Measured thermophysical data. Heat Capacities in the Solid and in the Liquid Phase of Isomeric Pentanols
Source: J. Chem. Eng. Data, 2007, 10.1021/je060411g
Compound 1: 2,2-dimethyl-1-propanol, C5H12O, InChI=1S/C5H12O/c1-5(2,3)4-6/h6H,4H2,1-3H3, purity 99%
Compound 2: 2-methyl-1-butanol, C5H12O, InChI=1S/C5H12O/c1-3-5(2)4-6/h5-6H,3-4H2,1-2H3, purity 99%
Compound 3: 2-methylbutan-2-ol, C5H12O, InChI=1S/C5H12O/c1-4-5(2,3)6/h6H,4H2,1-3H3, purity 99%
Compound 4: 3-methylbutan-1-ol, C5H12O, InChI=1S/C5H12O/c1-5(2)3-4-6/h5-6H,3-4H2,1-2H3, purity 99%
Compound 5: 3-methyl-2-butanol, C5H12O, InChI=1S/C5H12O/c1-4(2)5(3)6/h4-6H,1-3H3, purity 99%
Compound 6: pentan-2-ol, C5H12O, InChI=1S/C5H12O/c1-3-4-5(2)6/h5-6H,3-4H2,1-2H3, purity 98%
Compound 7: 3-pentanol, C5H12O, InChI=1S/C5H12O/c1-3-5(6)4-2/h5-6H,3-4H2,1-2H3, purity 98%

System: 2,2-dimethyl-1-propanol; phases: Crystal 1, Liquid, Gas
Property: Molar enthalpy of transition or fusion, kJ/mol (Crystal 1); method: ADIACA:UFactor:8
Molar enthalpy of transition or fusion, kJ/mol	uncertainty
2.9	0.2

System: 2,2-dimethyl-1-propanol; phases: Crystal 2, Crystal 1, Gas
Property: Molar enthalpy of transition or fusion, kJ/mol (Crystal 2); method: ADIACA:UFactor:8
Molar enthalpy of transition or fusion, kJ/mol	uncertainty
4.1	0.2

System: 2,2-dimethyl-1-propanol; phases: Crystal 2, Crystal 1, Gas
Property: Triple point temperature, K (Crystal 2); method: ADIACA:UFactor:8
Triple point temperature, K	uncertainty
233.3	1

System: 2,2-dimethyl-1-propanol; phases: Crystal 1, Liquid, Air at 1 atmosphere
Property: Triple point temperature, K (Crystal 1); method: ADIACA:UFactor:8
Triple point temperature, K	uncertainty
328.2	0.4

System: 2,2-dimethyl-1-propanol; phases: Crystal 2
Fixed: Pressure, kPa = 101.325
Property: Molar heat capacity at constant pressure, J/K/mol (Crystal 2); method: Vacuum adiabatic calorimetry
Temperature, K	Molar heat capacity at constant pressure, J/K/mol	uncertainty
6.04	1.42	0.03
6.22	1.34	0.04
6.72	1.62	0.04
6.93	1.79	0.04
7.63	2.48	0.06
7.66	2.49	0.06
8.46	3.25	0.07
8.71	3.26	0.07
9.38	3.5	0.08
9.84	3.94	0.08
10.52	4.52	0.1
11.19	4.61	0.1
11.74	4.61	0.1
12.6	5.48	0.12
12.96	6.1	0.13
13.95	7.71	0.16
14.12	7.8	0.16
15.22	9.22	0.19
15.26	9.22	0.19
16.54	10.78	0.22
16.63	10.92	0.23
17.89	12.37	0.26
18.17	12.68	0.26
19.28	14.02	0.29
19.75	14.6	0.3
20.7	15.68	0.32
21.36	16.44	0.34
22.16	17.26	0.35
23.02	18.27	0.37
23.65	18.89	0.39
24.72	20.07	0.41
25.17	20.52	0.42
26.45	21.86	0.44
26.71	22.12	0.45
27.26	22.45	0.45
27.45	22.66	0.46
28.26	23.73	0.48
28.44	23.84	0.48
29.84	25.29	0.51
30.14	25.52	0.51
31.75	26.93	0.54
33.36	28.48	0.57
35.01	29.81	0.6
36.67	31.13	0.63
38.35	32.76	0.66
40.05	33.71	0.68
41.77	34.97	0.7
43.5	36.21	0.73
45.25	37.39	0.75
47.01	38.58	0.78
48.78	39.8	0.8
50.56	40.96	0.82
52.36	42.15	0.85
54.16	43.42	0.87
55.98	44.6	0.9
57.81	45.76	0.92
59.64	46.96	0.94
61.49	48	0.96
63.34	48.9	0.98
65.21	49.05	0.99
67.11	48.13	0.97
69.02	47.57	0.96
70.93	51.84	1.04
72.82	53.62	1.08
74.71	54.48	1.09
76.62	55.54	1.12
78.53	57.23	1.15
80.43	58.98	1.18
82.34	59.82	1.2
84.25	60.91	1.22
86.17	61.94	1.24
88.09	63.01	1.27
90.01	64.26	1.3
91.94	65.3	1.32
93.72	66.04	1.33
93.87	66.34	1.34
93.99	65.67	1.33
95.11	67.03	1.35
95.8	67.7	1.37
97.08	68.3	1.38
97.74	68.54	1.38
99.03	69.37	1.4
99.68	69.74	1.41
100.97	70.67	1.43
102.92	71.57	1.44
104.87	72.73	1.47
106.82	73.77	1.49
108.77	74.92	1.51
110.72	75.98	1.53
112.68	77.06	1.55
114.63	78.14	1.58
116.59	79.23	1.6
118.55	80.35	1.62
120.51	81.5	1.64
122.47	82.44	1.66
124.43	83.56	1.68
126.39	84.65	1.7
128.36	85.69	1.73
130.32	86.79	1.75
131.73	87.42	1.76
132.15	87.41	1.76
132.29	87.89	1.77
133.36	88.24	1.78
134.27	88.87	1.79
135.34	89.35	1.8
136.24	89.94	1.81
137.31	90.43	1.82
139.28	91.45	1.84
141.25	92.54	1.86
143.22	93.56	1.88
145.19	94.64	1.9
147.17	95.67	1.92
149.14	96.7	1.95
151.11	97.64	1.96
153.09	98.81	1.99
155.06	99.89	2.01
157.04	100.86	2.03
159.01	101.85	2.05
160.99	102.94	2.07
162.97	104.04	2.09
164.94	104.98	2.11
166.92	106.04	2.13
168.9	107.14	2.15
170.88	108.23	2.18
172.86	109.18	2.19
174.83	110.28	2.22
176.81	111.23	2.24
178.79	112.41	2.26
180.77	113.61	2.28
182.75	115.04	2.31
184.73	115.99	2.33
186.72	117.16	2.35
188.7	118.27	2.38
190.69	119.62	2.4
192.68	120.83	2.43
194.67	122.08	2.45
196.66	123.36	2.48
198.66	124.74	2.51
200.66	126.14	2.53
202.67	127.38	2.56
204.67	128.75	2.59
204.67	128.75	2.59
206.68	130.08	2.61
206.68	130.08	2.61
208.7	131.55	2.64
208.7	131.55	2.64
210.71	132.96	2.67
210.71	132.96	2.67
212.71	134.53	2.7
212.71	134.53	2.7
214.72	136.27	2.74
214.72	136.27	2.74
216.71	138.22	2.77
216.71	138.22	2.77

System: 2,2-dimethyl-1-propanol; phases: Crystal 1
Fixed: Pressure, kPa = 101.325
Property: Molar heat capacity at constant pressure, J/K/mol (Crystal 1); method: VADIAC:UFactor:8
Temperature, K	Molar heat capacity at constant pressure, J/K/mol	uncertainty
240	160.1	3.8
250	167.3	3.9
260	175.3	4.1
270	184	4.3
280	194.5	4.5
290	206	4.7
298.15	214.3	4.9
300	216.4	4.9
310	227.8	5.2

System: 2,2-dimethyl-1-propanol; phases: Crystal 1
Fixed: Pressure, kPa = 101.325
Property: Molar heat capacity at constant pressure, J/K/mol (Crystal 1); method: VADIAC:UFactor:8
Temperature, K	Molar heat capacity at constant pressure, J/K/mol	uncertainty
237.42	158.16	3.76
237.42	158.16	3.76
239.45	159.61	3.79
239.45	159.61	3.79
241.42	161.17	3.82
241.42	161.17	3.82
243.4	162.58	3.84
243.4	162.58	3.84
245.38	163.87	3.87
245.38	163.87	3.87
247.36	165.12	3.9
247.36	165.12	3.9
249.33	166.8	3.93
249.33	166.8	3.93
251.31	168.24	3.96
251.31	168.24	3.96
253.28	169.62	3.99
253.28	169.62	3.99
255.26	171.23	4.02
255.26	171.23	4.02
257.24	172.85	4.05
257.24	172.85	4.05
259.21	174.64	4.09
259.21	174.64	4.09
261.18	176.19	4.12
261.18	176.19	4.12
263.15	177.74	4.15
263.15	177.74	4.15
265.1	179.42	4.18
265.1	179.42	4.18
267.05	181.32	4.22
267.05	181.32	4.22
268.99	183.18	4.26
268.99	183.18	4.26
270.93	184.74	4.29
270.93	184.74	4.29
272.86	186.95	4.33
272.86	186.95	4.33
274.77	188.7	4.37
274.77	188.7	4.37
276.68	190.91	4.41
276.68	190.91	4.41
278.57	192.85	4.45
278.57	192.85	4.45
280.46	195.04	4.5
280.46	195.04	4.5
282.33	197.11	4.54
282.33	197.11	4.54
284.2	199.17	4.58
284.2	199.17	4.58
286.05	201.41	4.62
286.05	201.41	4.62
287.9	203.48	4.67
287.9	203.48	4.67
289.73	205.72	4.71
289.73	205.72	4.71
291.56	207.85	4.75
291.56	207.85	4.75
293.37	211.16	4.82
293.37	211.16	4.82
295.17	213.27	4.88
295.17	213.27	4.88

System: 2,2-dimethyl-1-propanol; phases: Liquid
Fixed: Pressure, kPa = 101.325
Property: Molar heat capacity at constant pressure, J/K/mol (Liquid); method: VADIAC:UFactor:8
Temperature, K	Molar heat capacity at constant pressure, J/K/mol	uncertainty
330	256.6	5.7
340	277.1	6.2
350	283.8	6.3
360	290.2	6.4
370	295.4	6.5

System: 2,2-dimethyl-1-propanol; phases: Liquid
Fixed: Pressure, kPa = 101.325
Property: Molar heat capacity at constant pressure, J/K/mol (Liquid); method: VADIAC:UFactor:8
Temperature, K	Molar heat capacity at constant pressure, J/K/mol	uncertainty
328.08	267.44	5.97
329.23	268.95	6
330.33	267.74	5.97
330.38	270.44	6.03
331.53	271.12	6.1
331.59	268.59	6.05
332.68	271.99	6.07
332.84	269.67	6.02
333.82	273.19	6.08
334.1	271.2	6.04
334.97	273.8	6.1
335.35	272.07	6.06
336.11	274.9	6.12
336.6	273.27	6.09
337.25	276.23	6.15
337.86	274.28	6.11
338.39	277.22	6.17
339.12	275.37	6.13
339.52	278.09	6.18
340.38	276.53	6.15
340.66	278.87	6.2
341.64	277.24	6.18
341.79	279.67	6.23
342.91	278.19	6.19
342.92	280.81	6.24
344.05	281.29	6.26
344.18	279.29	6.22
345.18	282	6.26
345.46	280.32	6.23
346.75	281.22	6.25
348.04	282.21	6.27
349.35	283.25	6.29
350.67	284.33	6.31
352.01	285.41	6.33
353.37	286.57	6.36
354.74	285.99	6.35
356.13	288.33	6.39
357.55	289.27	6.41
358.99	289.94	6.43
360.45	290.3	6.43
361.93	290.05	6.43
363.41	288.87	6.41
364.86	286.3	6.35
366.24	283	6.29
367.51	296.63	6.56
368.71	295.14	6.53
369.9	295.38	6.54
371.09	296.21	6.56
372.27	296.96	6.57
373.45	297.66	6.59
374.63	298.2	6.6
375.81	298.87	6.61
376.99	299.38	6.62
378.17	299.76	6.63
379.34	300.28	6.64
380.52	300.53	6.64

System: 2,2-dimethyl-1-propanol; phases: Crystal 2
Fixed: Pressure, kPa = 101.325
Property: Molar heat capacity at constant pressure, J/K/mol (Crystal 2); method: VADIAC:UFactor:8
Temperature, K	Molar heat capacity at constant pressure, J/K/mol	uncertainty
10	4.09	0.26
15	9	0.44
20	14.89	0.61
25	20.35	0.7
30	25.41	0.72
35	29.8	0.82
40	33.67	0.91
45	37.23	0.99
50	40.59	1.06
55	43.96	1.14
60	47.18	1.21
65	49.1	1.26
70	49.5	1.26
75	54.63	1.38
80	58.6	1.47
85	61.31	1.53
90	64.25	1.97
95	66.91	2.02
100	69.96	2.07
105	72.8	2.12
110	75.58	2.17
120	81.21	2.27
130	86.6	2.37
140	91.85	2.47
150	97.11	2.57
160	102.4	2.7
170	107.8	2.8
180	113.1	2.9
190	119.2	3
200	125.7	3.1
210	132.5	3.3
220	145	3.5

System: 2,2-dimethyl-1-propanol; phases: Liquid
Fixed: Pressure, kPa = 101.325
Property: Molar enthalpy, kJ/mol (Liquid); method: VADIAC:UFactor:8
Temperature, K	Molar enthalpy, kJ/mol	uncertainty
330	45.35	1.104
340	47.85	1.16
350	50.66	1.222
360	53.54	1.285
370	56.44	1.349

System: 2,2-dimethyl-1-propanol; phases: Crystal 1
Fixed: Pressure, kPa = 101.325
Property: Molar enthalpy, kJ/mol (Crystal 1); method: VADIAC:UFactor:8
Temperature, K	Molar enthalpy, kJ/mol	uncertainty
240	23.18	0.614
250	24.81	0.652
260	26.52	0.692
270	28.32	0.733
280	30.21	0.776
290	32.21	0.822
298.15	33.97	0.861
300	34.37	0.87
310	36.57	0.92
320	39.84	0.99

System: 2,2-dimethyl-1-propanol; phases: Crystal 2
Fixed: Pressure, kPa = 101.325
Property: Molar enthalpy, kJ/mol (Crystal 2); method: VADIAC:UFactor:8
Temperature, K	Molar enthalpy, kJ/mol	uncertainty
10	0.01125	0.00117
15	0.04115	0.00264
20	0.1007	0.0048
25	0.1887	0.0073
30	0.3034	0.0119
35	0.4418	0.0157
40	0.6012	0.0199
45	0.7786	0.0246
50	0.9732	0.0296
55	1.185	0.035
60	1.412	0.041
65	1.654	0.047
70	1.896	0.053
75	2.161	0.06
80	2.443	0.067
85	2.743	0.074
90	3.056	0.134
95	3.385	0.144
100	3.727	0.154
105	4.084	0.164
110	4.455	0.174
120	5.239	0.196
130	6.077	0.218
140	6.97	0.242
150	7.915	0.267
160	8.913	0.292
170	9.963	0.319
180	11.07	0.346
190	12.23	0.375
200	13.45	0.405
210	14.74	0.436
220	16.11	0.468
230	17.95	0.51

System: 2,2-dimethyl-1-propanol; phases: Crystal 2
Fixed: Pressure, kPa = 101.325
Property: Molar entropy, J/K/mol (Crystal 2); method: VADIAC:UFactor:8
Temperature, K	Molar entropy, J/K/mol	uncertainty
10	1.5	0.2
15	3.86	0.33
20	7.24	0.48
25	11.14	0.61
30	15.31	0.76
35	19.57	0.89
40	23.82	1.03
45	28	1.17
50	32.09	1.31
55	36.12	1.44
60	40.08	1.58
65	43.95	1.71
70	47.54	1.83
75	51.19	1.95
80	54.82	2.08
85	58.46	2.2
90	62.04	2.9
95	65.6	2.99
100	69.1	3.08
105	72.59	3.18
110	76.04	3.27
120	82.86	3.46
130	89.57	3.64
140	96.18	3.83
150	102.7	4
160	109.1	4.2
170	115.5	4.4
180	121.8	4.6
190	128.1	4.7
200	134.4	4.9
210	140.7	5.1
220	147	5.3
230	155.2	5.5

System: 2,2-dimethyl-1-propanol; phases: Crystal 1
Fixed: Pressure, kPa = 101.325
Property: Molar entropy, J/K/mol (Crystal 1); method: VADIAC:UFactor:8
Temperature, K	Molar entropy, J/K/mol	uncertainty
240	177.5	6.2
250	184.2	6.4
260	190.9	6.6
270	197.7	6.8
280	204.6	7
290	211.6	7.2
298.15	217.6	7.4
300	218.9	7.5
310	226.1	7.7
320	236.5	8

System: 2,2-dimethyl-1-propanol; phases: Liquid
Fixed: Pressure, kPa = 101.325
Property: Molar entropy, J/K/mol (Liquid); method: VADIAC:UFactor:8
Temperature, K	Molar entropy, J/K/mol	uncertainty
330	253.4	8.5
340	260.9	8.7
350	269	9
360	277.1	9.2
370	285.1	9.5

System: 2-methyl-1-butanol; phases: Glass, Liquid, Gas
Property: Triple point temperature, K (Glass); method: Adiabatic calorimetry
Triple point temperature, K	uncertainty
118	5

System: 2-methyl-1-butanol; phases: Glass
Fixed: Pressure, kPa = 101.325
Property: Molar heat capacity at constant pressure, J/K/mol (Glass); method: VADIAC:UFactor:8
Temperature, K	Molar heat capacity at constant pressure, J/K/mol	uncertainty
84.68	66.37	1.65
85.32	66.9	1.66
86.62	68.05	1.69
88.13	68.63	1.7
88.55	69.49	1.72
89.15	69.5	1.72
90.45	69.12	2.06
90.85	70.72	2.08
92.36	71.63	2.12
92.5	69.54	2.06
92.77	72.07	2.11
93.04	72.48	2.12
94.27	72.89	2.12
94.29	72.88	2.12
94.69	73.39	2.13
96.19	74.2	2.15
96.22	74.42	2.15
96.61	74.74	2.16
98.11	75.66	2.18
98.15	75.92	2.18
98.53	76.35	2.19
100.03	77.35	2.21
100.07	77.68	2.22
100.45	77.93	2.21
101.96	78.33	2.22
101.99	78.7	2.23
102.38	78.97	2.23
103.89	79.44	2.24
103.92	79.95	2.25
104.32	80.34	2.26
105.82	80.96	2.27
105.85	81.54	2.28
106.25	82	2.29
107.75	82.7	2.32
107.79	83.22	2.32
108.19	83.82	2.32
109.68	84.31	2.34
109.72	84.61	2.34
110.13	85.55	2.35
111.62	86.17	2.36
111.66	86.13	2.36
112.07	87.55	2.39
113.54	88.63	2.42
113.6	88.13	2.41
114.02	89.94	2.43
115.46	92.53	2.5
115.54	91.47	2.48
115.95	93.24	2.5
117.36	100.69	2.66
117.46	98.77	2.63
117.87	98.66	2.6

System: 2-methyl-1-butanol; phases: Liquid
Fixed: Pressure, kPa = 101.325
Property: Molar heat capacity at constant pressure, J/K/mol (Liquid); method: VADIAC:UFactor:8
Temperature, K	Molar heat capacity at constant pressure, J/K/mol	uncertainty
124.07	145.49	3.51
124.32	145.64	3.51
124.62	145.89	3.51
125.99	145.72	3.51
126.25	145.78	3.51
126.56	145.84	3.51
127.96	145.9	3.51
128.21	145.94	3.51
128.53	145.95	3.51
129.93	146.02	3.52
130.19	146.06	3.52
130.5	146.03	3.52
131.9	146.08	3.52
132.16	146.14	3.52
132.47	146.14	3.52
133.88	146.23	3.52
134.14	146.25	3.52
134.45	146.21	3.52
135.85	146.27	3.52
136.11	146.35	3.52
136.42	146.35	3.52
137.83	146.45	3.52
138.09	146.51	3.53
138.4	146.51	3.53
139.8	146.64	3.53
140.06	146.68	3.53
140.37	146.62	3.53
141.77	146.82	3.53
142.04	146.87	3.53
142.35	146.83	3.53
143.75	146.95	3.53
144.02	146.99	3.53
144.32	146.98	3.53
145.73	147.13	3.54
145.99	147.22	3.54
146.3	147.23	3.54
147.7	147.38	3.54
147.97	147.38	3.54
148.27	147.42	3.54
149.68	147.55	3.55
149.94	147.65	3.55
150.25	147.61	3.55
151.45	147.59	3.55
151.8	147.34	3.54
151.92	147.82	3.55
152.97	147.67	3.55
153.9	148.01	3.56
154.95	148.09	3.56
155.88	148.33	3.56
156.92	148.38	3.56
157.86	148.55	3.57
158.9	148.61	3.57
159.84	148.75	3.57
160.88	148.86	3.57
161.82	149.02	3.58
162.85	149.11	3.58
163.8	149.23	3.58
164.83	149.31	3.58
165.78	149.53	3.59
166.81	149.67	3.59
167.76	149.85	3.59
168.79	149.95	3.59
169.74	150.13	3.6
170.77	150.21	3.6
171.72	150.38	3.6
172.75	150.45	3.6
173.69	150.67	3.61
174.73	150.8	3.61
175.67	150.96	3.61
176.7	151.12	3.62
177.65	151.36	3.62
178.68	151.42	3.62
179.63	151.66	3.63
180.65	151.78	3.63
181.61	151.91	3.63
182.63	152.05	3.64
183.59	152.19	3.64
184.61	152.36	3.64
185.56	152.59	3.65
186.59	152.73	3.65
187.54	152.92	3.65
188.56	153.02	3.65
189.52	153.24	3.66
190.54	153.38	3.66
191.5	153.55	3.66
192.51	153.71	3.67
193.48	153.87	3.67
194.49	154.12	3.68
195.45	154.28	3.68
196.47	154.44	3.68
197.43	154.67	3.69
198.44	154.78	3.69
199.4	155	3.69
200.41	155.18	3.7
201.38	155.44	3.7
202.39	155.73	3.71
203.35	155.9	3.71
204.36	156.25	3.72
205.33	156.37	3.72
206.33	156.66	3.73
207.3	156.95	3.73
208.31	157.5	3.74
209.28	157.69	3.75
210.28	158.2	3.76
211.25	158.49	3.76
212.25	158.88	3.77
213.22	159.25	3.78
214.23	159.75	3.79
215.2	160.09	3.79
216.21	160.71	3.81
217.17	160.99	3.81
218.18	161.49	3.82
219.15	161.82	3.83
220.15	162.39	3.84
221.13	162.7	3.85
222.13	163.26	3.86
223.11	163.61	3.86
224.1	164.01	3.87
225.09	164.48	3.88
226.08	164.73	3.89
227.07	165.18	3.9
228.06	165.39	3.9
229.05	165.83	3.91
230.04	166.09	3.91
231.03	166.52	3.92
232.02	166.86	3.93
233.01	167.29	3.94
233.99	167.66	3.95
234.99	168.13	3.96
235.97	168.53	3.96
236.96	169	3.97
237.94	169.41	3.98
238.94	169.88	3.99
239.92	170.34	4
240.92	170.8	4.01
241.89	171.24	4.02
242.89	171.69	4.03
243.86	172.18	4.04
244.85	172.64	4.05
245.82	173.22	4.06
246.81	173.63	4.07
247.77	174.23	4.08
248.76	174.73	4.09
249.72	175.28	4.1
250.7	175.88	4.11
251.66	176.43	4.12
252.64	177.14	4.14
253.59	177.16	4.14
254.57	177.34	4.14
255.52	177.97	4.15
256.5	178.62	4.17
257.44	179.24	4.18
258.43	179.85	4.19
259.36	180.45	4.2
260.34	181.06	4.21
261.27	181.7	4.23
262.25	182.25	4.24
263.18	182.89	4.25
264.15	183.6	4.27
265.08	184.25	4.28
266.04	184.88	4.29
266.97	185.71	4.31
267.93	186.53	4.32
268.85	187.04	4.33
269.81	187.76	4.35
270.72	188.25	4.36
271.68	189.05	4.37
272.59	189.75	4.39
273.55	190.39	4.4
274.46	191.2	4.42
275.41	191.82	4.43
276.31	192.56	4.45
277.26	193.3	4.46
278.16	193.91	4.47
279.11	194.8	4.49
280	195.48	4.5
280.94	196.42	4.52
281.83	197.02	4.54
282.77	197.86	4.55
283.66	198.58	4.57
284.6	199.41	4.58
285.47	200.28	4.6
286.41	201.04	4.62
287.29	201.86	4.63
288.22	202.76	4.65
289.09	203.46	4.67
290.02	204.47	4.69
290.89	205.13	4.7
291.81	206.07	4.72
292.67	206.55	4.73
293.6	207.65	4.75
294.46	208.23	4.76
295.38	209.45	4.79
296.23	210.26	4.8
297.15	211.14	4.82
298	211.98	4.84
298.92	212.94	4.86
299.76	213.73	4.87
300.68	214.69	4.89

System: 2-methylbutan-2-ol; phases: Crystal 3, Crystal 2, Gas
Property: Molar enthalpy of transition or fusion, kJ/mol (Crystal 3); method: ADIACA:UFactor:8
Molar enthalpy of transition or fusion, kJ/mol	uncertainty
0.9	0.1

System: 2-methylbutan-2-ol; phases: Crystal 1, Liquid, Gas
Property: Molar enthalpy of transition or fusion, kJ/mol (Crystal 1); method: ADIACA:UFactor:8
Molar enthalpy of transition or fusion, kJ/mol	uncertainty
2	0.2

System: 2-methylbutan-2-ol; phases: Crystal 2, Crystal 1, Gas
Property: Triple point temperature, K (Crystal 2); method: ADIACA:UFactor:8
Triple point temperature, K	uncertainty
215	1

System: 2-methylbutan-2-ol; phases: Crystal 1, Liquid, Gas
Property: Triple point temperature, K (Crystal 1); method: ADIACA:UFactor:8
Triple point temperature, K	uncertainty
264.7	0.4

System: 2-methylbutan-2-ol; phases: Crystal 3, Crystal 2, Gas
Property: Triple point temperature, K (Crystal 3); method: ADIACA:UFactor:8
Triple point temperature, K	uncertainty
145.8	0.4

System: 2-methylbutan-2-ol; phases: Crystal 3
Fixed: Pressure, kPa = 101.325
Property: Molar heat capacity at constant pressure, J/K/mol (Crystal 3); method: VADIAC:UFactor:8
Temperature, K	Molar heat capacity at constant pressure, J/K/mol	uncertainty
84.18	59.96	1.5
84.41	60.87	1.52
85.57	65.73	1.63
86.62	61.65	1.54
86.85	61.55	1.54
87.94	66.53	1.65
89.04	62.98	1.57
89.26	62.98	1.57
90.33	68.13	2.04
91.86	64.6	1.98
92.09	64.56	1.98
93.17	69.93	2.07
94.67	66.27	2.01
94.91	66.32	2.01
95.99	71.8	2.1
97.49	67.95	2.04
97.72	68.07	2.04
98.82	73.51	2.13
100.31	70.24	2.08
100.54	70.6	2.08
101.65	75.44	2.17
103.12	72.36	2.11
103.36	72.54	2.12
104.48	76.92	2.2
105.95	73.89	2.14
106.18	74.04	2.14
107.28	78.03	2.22
108.74	75.59	2.17
108.97	75.81	2.18
110.03	79.77	2.25
111.48	77.47	2.21
111.7	77.66	2.21
112.73	81.52	2.28
114.17	79.5	2.24
114.38	79.61	2.24
115.38	83.05	2.31
116.8	81.46	2.28
117.02	81.54	2.28
117.99	84.42	2.33
119.4	83.36	2.31
119.61	83.37	2.31
120.55	85.98	2.36
121.95	85.58	2.35
122.15	85.21	2.35
123.09	87.29	2.39
124.47	87.36	2.39
124.66	87.39	2.39
125.59	88.61	2.41
126.95	89.35	2.42
127.13	89.35	2.42
128.06	90.2	2.44
129.39	91.6	2.47
129.57	91.64	2.47
130.5	91.83	2.47
131.8	96.05	2.55
131.98	95.7	2.54
132.91	94.22	2.51
134.19	97.24	2.57
134.35	97.17	2.57
135.29	94.95	2.53
136.54	98.99	2.6
136.7	98.94	2.6
137.65	96.49	2.56
138.86	102.38	2.67
139.01	102.19	2.66
139.98	98.2	2.59
141.14	106.32	2.74
141.29	106.03	2.74
142.29	99.86	2.62
143.38	112.82	2.87
143.53	110.46	2.82
144.58	101.73	2.98

System: 2-methylbutan-2-ol; phases: Crystal 2
Fixed: Pressure, kPa = 101.325
Property: Molar heat capacity at constant pressure, J/K/mol (Crystal 2); method: VADIAC:UFactor:8
Temperature, K	Molar heat capacity at constant pressure, J/K/mol	uncertainty
148.39	89.39	2.97
148.47	107.13	3.23
149.08	105.46	2.73
150.5	120.91	3.02
150.6	120.49	3.02
151.3	107.39	2.76
152.65	120.48	3.02
152.74	120.32	3.01
153.5	109.42	2.8
154.78	120.35	3.01
154.87	120.25	3.01
155.66	111.51	2.84
156.9	120.17	3.01
156.98	120.02	3.01
157.81	113.29	2.88
159.02	121.07	3.03
159.09	120.89	3.02
159.95	115.97	2.93
161.12	121.73	3.04
161.19	121.42	3.03
162.06	118.39	2.97
163.23	122.32	3.05
163.28	121.93	3.04
164.16	120.83	3.02
165.34	123.02	3.06
165.36	122.85	3.06
166.24	123.44	3.07
167.44	123.55	3.08
167.45	123.69	3.08
168.29	126.14	3.13
169.53	124.34	3.09
169.57	124.68	3.1
170.33	128.89	3.18
171.63	125.44	3.11
171.7	125.8	3.12
172.35	131.56	3.23
173.74	126.82	3.14
173.85	127.21	3.15
174.35	134.03	3.28
175.89	128.48	3.17
176.02	128.7	3.22
176.33	136.74	3.33
178.07	130.33	3.3
178.22	130.54	3.21
178.3	139.33	3.47
180.24	141.75	3.55
180.29	131.97	3.24
180.44	132.57	3.38
182.18	143.44	3.47
182.53	133.47	3.32
182.64	134.58	3.29
184.1	145.88	3.51
184.82	137.28	3.34
186.01	147.63	3.55
186.94	141.12	3.42
187.9	148.63	3.57
189	143.98	3.48
189.78	150.78	3.61
191	146.05	3.52
191.66	151.3	3.62
192.96	149.37	3.58
193.52	152.71	3.65
194.88	150.75	3.61
195.38	154.88	3.69
196.78	151.94	3.63
197.23	154.68	3.69
198.65	154.12	3.68
199.07	156.86	3.73
199.87	155.64	3.71
200.5	154.04	3.67
200.9	157.7	3.75
201.17	157.49	3.74
202.35	156.44	3.72
202.62	157.61	3.75
204.18	158.51	3.76
204.44	159.27	3.78
206	158.34	3.76
206.25	159.14	3.78
207.81	159.84	3.79
208.06	160.6	3.81
209.61	159.89	3.79
209.85	161.82	3.83
211.4	158.72	3.8
211.64	164.89	3.92

System: 2-methylbutan-2-ol; phases: Crystal 1
Fixed: Pressure, kPa = 101.325
Property: Molar heat capacity at constant pressure, J/K/mol (Crystal 1); method: VADIAC:UFactor:8
Temperature, K	Molar heat capacity at constant pressure, J/K/mol	uncertainty
217.83	141.33	3.43
218.04	144.15	3.49
219.66	143.15	3.46
219.86	142.88	3.45
221.49	143.51	3.47
221.68	143.74	3.47
223.31	144.13	3.48
223.5	144.13	3.48
225.12	144.75	3.49
225.31	144.76	3.49
226.93	145.48	3.51
227.12	145.55	3.51
228.73	146.48	3.52
228.92	146.48	3.52
230.52	147.54	3.55
230.71	147.5	3.54
232.31	148.37	3.56
232.49	148.43	3.56
234.08	149.45	3.58
234.27	149.58	3.59
235.86	150.05	3.6
236.04	150.15	3.6
237.63	151.12	3.62
237.81	151.14	3.62
239.39	152.5	3.64
239.57	152.39	3.64
240.92	153.28	3.66
241.15	153.19	3.66
242.15	153.94	3.67
242.9	154.53	3.68
243.54	154.92	3.69
244.65	155.65	3.71
245.28	156.32	3.72
246.39	157.17	3.74
247.02	157.69	3.75
248.12	159.18	3.78
249.84	160.99	3.81
251.56	163.84	3.87
253.26	168.27	3.96

System: 3-methylbutan-1-ol; phases: Glass, Liquid, Gas
Property: Triple point temperature, K (Glass); method: ADIACA:UFactor:8
Triple point temperature, K	uncertainty
118	3

System: 3-methylbutan-1-ol; phases: Glass
Fixed: Pressure, kPa = 101.325
Property: Molar heat capacity at constant pressure, J/K/mol (Glass); method: VADIAC:UFactor:8
Temperature, K	Molar heat capacity at constant pressure, J/K/mol	uncertainty
79.29	64.16	1.6
79.93	64.23	1.6
81.22	65.13	1.62
83.16	66.6	1.65
85.07	67.98	1.69
86.97	69.22	1.71
88.88	70.53	1.74
90.79	71.96	2.11
92.71	73.36	2.13
94.62	74.71	2.16
96.54	76.12	2.18
98.47	77.7	2.21
100.4	79.43	2.24
102.33	80.27	2.26
104.26	81.54	2.28
106.19	83.08	2.31
108.13	84.68	2.34
110.07	86.19	2.36
112.01	87.96	2.4
113.94	90.43	2.44
115.88	94.62	2.52

System: 3-methylbutan-1-ol; phases: Liquid
Fixed: Pressure, kPa = 101.325
Property: Molar heat capacity at constant pressure, J/K/mol (Liquid); method: VADIAC:UFactor:8
Temperature, K	Molar heat capacity at constant pressure, J/K/mol	uncertainty
123.04	144.09	3.48
124.93	144.11	3.48
126.89	144.29	3.48
128.85	144.62	3.49
130.82	144.96	3.49
132.79	145.22	3.5
134.76	145.47	3.5
136.73	145.74	3.51
138.7	146.13	3.52
140.67	146.33	3.52
142.65	146.61	3.53
144.62	146.82	3.53
146.59	147.14	3.54
148.57	147.5	3.54
150.54	147.86	3.55
152.52	148.08	3.56
154.49	148.41	3.56
156.46	148.76	3.57
158.43	148.95	3.57
160.41	149.4	3.58
162.38	149.76	3.59
164.35	149.96	3.59
166.32	150.38	3.6
168.29	150.9	3.61
170.27	151.21	3.62
172.24	151.76	3.63
174.21	152.03	3.63
176.19	152.42	3.64
178.16	152.92	3.65
180.14	153.49	3.66
182.11	153.84	3.67
184.09	154.42	3.68
186.07	154.93	3.69
188.05	155.51	3.7
190.03	156.14	3.72
192.01	156.62	3.73
193.99	157.15	3.74
195.96	157.72	3.75
197.94	158.12	3.76
199.92	158.79	3.77
201.91	159.5	3.78

System: 3-methyl-2-butanol; phases: Glass
Fixed: Pressure, kPa = 101.325
Property: Molar heat capacity at constant pressure, J/K/mol (Glass); method: VADIAC:UFactor:8
Temperature, K	Molar heat capacity at constant pressure, J/K/mol	uncertainty
84.8	64.32	1.6
85.35	64.92	1.62
86.61	65.12	1.62
87.96	65.91	1.64
88.5	66.12	1.65
88.57	66.46	1.65
89.76	68.19	1.69
90.5	68.52	2.05
91.72	69.65	2.07
92.44	69.5	2.06
93.66	70.82	2.09
94.37	70.42	2.08
95.6	72.69	2.12
96.3	72.33	2.11
97.54	73.76	2.14
98.24	73.35	2.13
99.48	75.44	2.17
100.17	75.01	2.16
101.42	76.81	2.19
102.11	76.45	2.19
103.37	78.23	2.22
104.06	77.94	2.21
105.32	79.77	2.25
106	79.31	2.24
107.95	80.89	2.27
109.9	82.57	2.3
110.42	83.46	2.31
110.85	82.24	2.29
111.85	84.29	2.33
112.07	84.44	2.33
113.8	85.97	2.36
114.04	86.22	2.37
115.76	87.69	2.39
116	87.96	2.4
117.71	89.53	2.43
119.67	91.4	2.46
121.44	93.27	2.5
121.62	93.55	2.5
122.07	94.36	2.52
123.27	95.77	2.54
123.58	95.92	2.55
125.24	98.99	2.6
125.53	98.88	2.6
127.2	102.7	2.67
127.49	103.22	2.68
129.14	107.45	2.77

System: 3-methyl-2-butanol; phases: Liquid
Fixed: Pressure, kPa = 101.325
Property: Molar heat capacity at constant pressure, J/K/mol (Liquid); method: VADIAC:UFactor:8
Temperature, K	Molar heat capacity at constant pressure, J/K/mol	uncertainty
134.82	136.07	3.33
135.09	140.35	3.42
136.74	138.24	3.36
137.01	138.6	3.37
138.7	138.95	3.38
138.97	138.85	3.37
140.69	139.38	3.38
140.95	139.07	3.38
142.67	139.54	3.39
142.93	139.3	3.38
144.66	139.76	3.39
144.91	139.63	3.39
146.65	140.2	3.4
146.9	139.94	3.4
148.63	140.52	3.41
148.88	140.31	3.4
150.86	140.31	3.4
152.85	140.9	3.41
154.84	141.35	3.42
156.74	142.41	3.44
156.82	141.64	3.43
158.09	142.73	3.45
158.81	142.09	3.44
160.22	143.13	3.46
160.79	142.41	3.44
162.32	143.63	3.47
162.78	142.9	3.45
164.37	144.12	3.48
164.76	143.07	3.46
166.39	145.96	3.52
166.75	143.51	3.47
168.38	145.62	3.51
168.73	143.97	3.48
170.37	146.06	3.52
170.72	144.62	3.49
172.37	145.89	3.51
172.7	145.15	3.5
174.37	146.25	3.52
174.69	145.71	3.51
176.36	147.39	3.54
176.67	146.37	3.52
178.34	147.47	3.54
178.66	147.29	3.54
180.33	147.95	3.55
180.64	148.09	3.56
182.33	148.74	3.57
182.63	149.07	3.58
184.32	149.21	3.58
184.61	149.6	3.59
186.31	149.62	3.59
186.6	150.32	3.6
188.3	149.99	3.59
188.59	150.72	3.61
190.3	150.82	3.61
190.58	151.56	3.63
192.29	151.37	3.62
192.57	152.24	3.64
194.28	152	3.63
194.56	152.93	3.65
196.27	152.73	3.65
196.55	153.74	3.67
198.26	153.78	3.67
198.54	154.39	3.68
200.25	154.7	3.69
200.53	155.32	3.7
202.24	155.43	3.7
202.51	156.2	3.72
204.23	156.17	3.72
204.5	157.11	3.74
206.21	156.91	3.73
206.48	158.08	3.76
208.2	157.81	3.75
208.47	159.14	3.78
210.18	158.87	3.77
210.46	160.17	3.8
212.17	159.83	3.79
214.15	160.86	3.81
216.12	161.85	3.83
218.08	163.18	3.86
220.04	164.39	3.88
221.99	165.9	3.91
223.93	167.49	3.94
225.86	168.89	3.97
227.79	170.77	4.01
229.71	172.05	4.03
231.62	173.69	4.07
233.53	175.59	4.1
235.43	177.3	4.14
237.32	178.86	4.17
239.2	180.5	4.2
241.08	182.29	4.24
242.96	184.02	4.27
244.82	185.3	4.3
246.68	187.07	4.34
248.53	188.6	4.37
250.37	190.8	4.41
252.21	192.67	4.45
254.03	194.25	4.48
255.85	196.29	4.52
257.67	198.36	4.56
259.47	200.36	4.6
261.27	202.49	4.65
263.06	204.59	4.69
264.84	206.44	4.73
266.62	208.79	4.77
268.39	210.85	4.82
270.15	212.97	4.86
271.91	215.09	4.9
273.66	217.48	4.95
275.41	219.86	5
277.14	222.01	5.04
278.87	224.26	5.09
280.6	226.68	5.14
282.31	228.97	5.18
284.02	230.98	5.22
285.72	233.15	5.27
287.42	234.9	5.3
289.11	237.64	5.36
290.79	239.38	5.39
292.47	241.39	5.44
294.15	243.38	5.48
295.81	245.77	5.52
297.47	247.45	5.56
299.13	249.65	5.6
300.78	250.94	5.63

System: pentan-2-ol; phases: Liquid
Fixed: Pressure, kPa = 101.325
Property: Molar heat capacity at constant pressure, J/K/mol (Liquid); method: VADIAC:UFactor:8
Temperature, K	Molar heat capacity at constant pressure, J/K/mol	uncertainty
134.18	138.36	3.4
134.47	145.14	3.5
135.24	146.4	3.52
136	146.52	3.53
136.05	138.34	3.36
136.39	145.03	3.5
137.22	146.29	3.52
137.97	138.35	3.36
138.36	145.17	3.5
138.84	146.59	3.53
139.21	146.22	3.52
139.9	138.69	3.37
140.33	145.48	3.51
141.2	146.34	3.52
141.77	146.74	3.53
141.83	139.02	3.38
142.3	145.81	3.51
143.19	146.48	3.53
143.77	139.32	3.38
144.73	146.91	3.54
145.18	146.45	3.52
147.18	146.59	3.53
147.68	147.17	3.54
149.17	146.66	3.53
150.63	147.42	3.54
151.16	146.74	3.53
153.16	146.86	3.53
153.58	147.65	3.55
155.16	147.04	3.54
156.54	148.06	3.56
157.16	147.26	3.54
159.16	147.41	3.54
159.5	148.35	3.56
161.15	147.59	3.55
162.46	148.75	3.57
163.15	147.87	3.55
165.15	148.07	3.56
165.42	149.14	3.58
167.15	148.38	3.56
168.38	149.64	3.59
169.15	148.62	3.57
171.15	148.98	3.58
171.34	150.12	3.6
173.15	149.17	3.58
174.31	150.62	3.61
175.15	149.61	3.59
177.14	150.03	3.6
177.27	151.24	3.62
179.14	150.37	3.6
180.22	151.84	3.63
181.14	150.83	3.61
183.13	151.22	3.62
183.15	152.41	3.64
185.13	151.66	3.63
186.06	153.18	3.66
187.13	152.22	3.64
188.97	153.85	3.67
189.12	152.69	3.65
191.11	153.28	3.66
191.86	154.61	3.69
193.1	153.79	3.67
194.73	155.46	3.7
195.09	154.43	3.68
197.08	155.04	3.69
197.6	156.28	3.72
199.07	155.64	3.71
200.45	157.17	3.74
201.05	156.37	3.72
203.04	157.14	3.74
203.28	158.12	3.76
205.02	157.9	3.75
206.11	159.16	3.78
207	158.71	3.77
208.92	160.23	3.8
208.98	159.59	3.78
210.96	160.43	3.8
211.71	161.38	3.82
212.93	161.43	3.82
214.5	162.6	3.84
214.9	162.36	3.84
216.87	163.53	3.86
217.27	163.98	3.87
218.83	164.58	3.88
220.03	165.38	3.9
220.79	165.86	3.91
222.74	167.19	3.94
222.77	166.74	3.93
224.69	168.3	3.96
225.5	168.21	3.96
226.64	169.58	3.98
228.21	169.75	3.99
228.58	170.97	4.01
230.52	172.4	4.04
230.92	171.38	4.02
232.46	173.26	4.06
233.61	173.02	4.05
234.41	174.28	4.08
236.28	174.82	4.09
236.37	175.25	4.1
238.35	176.25	4.12
238.94	176.57	4.12
240.33	177.32	4.14
241.59	178.24	4.16
242.31	178.65	4.17
244.22	179.98	4.19
244.29	180.19	4.2
246.27	181.71	4.23
246.84	181.91	4.23
248.24	183.24	4.26
249.45	183.85	4.27
250.22	184.81	4.29
252.04	185.96	4.31
252.19	186.49	4.32
254.17	187.53	4.34
254.62	187.26	4.34
256.15	189.21	4.38
257.2	189.4	4.38
258.13	190.9	4.41
259.75	191.63	4.43
260.11	192.75	4.45
262.08	194.51	4.49
262.3	193.87	4.47
264.06	196.4	4.52
264.83	196.18	4.52
266.04	198.15	4.56
267.34	198.56	4.57
268.01	200.17	4.6
269.84	201.01	4.62
269.99	202.16	4.64
271.96	204.25	4.68
272.33	203.73	4.67
273.94	206.27	4.72
274.8	206.33	4.72
275.91	208.32	4.76
277.26	208.61	4.77
277.88	210.5	4.81
279.7	211.18	4.82
279.86	212.62	4.85
281.83	214.76	4.89
282.13	213.77	4.87
283.81	216.99	4.94
284.54	216.55	4.93
285.79	219.38	4.99
286.94	219.25	4.99
287.77	221.67	5.03
289.33	222.07	5.04
289.75	224.09	5.08
291.7	224.87	5.1
291.73	226.3	5.13
293.71	228.63	5.18
294.06	227.43	5.15
295.69	231.18	5.23
296.41	230.08	5.21
297.66	233.65	5.28
298.75	233	5.26
299.65	235.81	5.32
301.07	235.62	5.32

System: pentan-2-ol; phases: Glass
Fixed: Pressure, kPa = 101.325
Property: Molar heat capacity at constant pressure, J/K/mol (Glass); method: VADIAC:UFactor:8
Temperature, K	Molar heat capacity at constant pressure, J/K/mol	uncertainty
79.67	63.18	1.58
80.46	63.33	1.58
82.3	64.14	1.6
84.42	67.58	1.68
85.14	66.47	1.66
85.32	67.84	1.69
86.75	68.64	1.7
87.94	69.06	1.71
88.7	70.03	1.73
90.63	71.1	2.09
90.73	70.94	2.09
92.44	69.53	2.11
92.56	72.26	2.16
93.14	65.87	2
93.54	72.61	2.12
94.47	69.28	2.06
94.5	73.35	2.13
95.82	74.84	2.16
96.37	74.28	2.15
96.39	69.82	2.17
96.44	74.4	2.15
96.51	73.84	2.14
97.85	74.9	2.16
98.3	70.93	2.36
98.39	75.87	2.44
99.21	76.42	2.19
99.81	76.63	2.19
100.21	72.31	2.11
100.33	77.32	2.36
101.76	76.89	2.2
102.06	77.9	2.21
102.12	72.26	2.12
102.28	78.12	2.34
103.71	77.71	2.23
104.04	72.83	2.12
104.24	78.97	2.24
104.91	79.34	2.24
105.66	79.19	2.24
105.95	74.19	2.15
106.19	80.14	2.31
107.61	80.61	2.26
107.78	81.22	2.3
107.87	75.02	2.17
108.15	81.83	2.34
109.56	81.6	2.33
109.78	76.24	2.18
110.11	83.03	2.31
110.65	82.72	2.3
111.51	82.56	2.37
111.7	77.13	2.2
112.08	84.03	2.33
113.47	83.55	2.44
113.52	84.21	2.47
113.62	77.89	2.22
114.05	85.23	2.35
115.43	84.36	2.58
115.53	78.83	2.49
116.02	86.13	2.37
116.41	85.6	2.35
117.39	85.19	3.04
117.45	79.39	2.96
117.99	86.99	2.38
119.31	86.83	3.25
119.36	85.74	2.4
119.37	80.16	3.17
119.97	87.03	2.38
121.3	80.85	2.27
121.33	86.41	2.37
121.95	88.36	2.41
122.2	88.5	2.41
123.23	82.6	2.92
123.29	88	3
123.94	89.95	2.43
125.11	91.4	2.47
125.15	84.47	2.54
125.26	89.98	2.44
125.92	92.63	2.48
127.07	88.92	2.57
127.21	95.14	2.68

System: 3-pentanol; phases: Crystal 1, Liquid, Gas
Property: Molar enthalpy of transition or fusion, kJ/mol (Crystal 1); method: ADIACA:UFactor:8
Molar enthalpy of transition or fusion, kJ/mol	uncertainty
1.66	0.2

System: 3-pentanol; phases: Crystal, Liquid, Gas
Property: Triple point temperature, K (Crystal); method: ADIACA:UFactor:8
Triple point temperature, K	uncertainty
203.2	0.4

System: 3-pentanol; phases: Glass, Liquid, Gas
Property: Triple point temperature, K (Glass); method: ADIACA:UFactor:8
Triple point temperature, K	uncertainty
130	5

System: 3-pentanol; phases: Glass
Fixed: Pressure, kPa = 101.325
Property: Molar heat capacity at constant pressure, J/K/mol (Glass); method: VADIAC:UFactor:8
Temperature, K	Molar heat capacity at constant pressure, J/K/mol	uncertainty
98.9	77.69	2.21
99.63	77.09	2.2
101.47	78.26	2.22
104.37	79.98	2.25
107.23	82.34	2.29
110.1	84.56	2.33
112.97	86.83	2.38
115.84	89.3	2.42
118.71	92.11	2.47
121.59	95.01	2.53
124.46	99.21	2.61
127.34	104.26	2.7

System: 3-pentanol; phases: Liquid
Fixed: Pressure, kPa = 101.325
Property: Molar heat capacity at constant pressure, J/K/mol (Liquid); method: VADIAC:UFactor:8
Temperature, K	Molar heat capacity at constant pressure, J/K/mol	uncertainty
135.56	147.41	3.54
138.31	149.27	3.58
141.2	149.61	3.59
144.14	149.91	3.59
147.09	150.15	3.6
150.04	150.36	3.6
152.99	150.52	3.6
155.94	150.86	3.61
158.9	151.16	3.62
161.85	151.55	3.63
164.81	152.15	3.64
167.78	153.56	3.67
170.76	159.22	3.78
206.59	163.08	3.85
206.86	162.81	3.85
208.54	163.45	3.86
209.46	164.31	3.88
210.2	164.21	3.88
211.87	164.95	3.89
212.32	165.57	3.9
213.52	165.62	3.91
215.16	167.02	3.93
215.17	166.57	3.92
216.82	167.31	3.94
217.99	168.45	3.96
218.46	168.22	3.96
220.1	169.14	3.98
220.8	170.05	3.99
221.73	170.07	3.99
223.36	170.87	4.01
223.59	171.64	4.03
224.98	171.87	4.03
226.37	173.5	4.06
226.59	172.95	4.05
228.2	173.95	4.07
229.13	175.38	4.1
229.81	174.99	4.09
231.41	176.24	4.12
231.88	177.23	4.14
233	177.29	4.14
234.59	178.66	4.17
234.61	179.15	4.18
236.17	179.8	4.19
237.32	181.22	4.22
237.75	180.73	4.21
239.32	182.03	4.23
240.01	183.55	4.26
240.89	183.27	4.26
242.45	184.57	4.29
242.69	185.78	4.31
244	185.93	4.31
245.34	188.15	4.36
245.55	187.34	4.34
247.09	188.71	4.37
247.98	190.62	4.41
248.63	190.19	4.4
250.16	191.69	4.43
250.61	193.22	4.46
251.68	193.3	4.46
253.2	194.61	4.49
253.21	195.73	4.51
254.72	195.45	4.5
255.8	198.08	4.56
256.23	197.32	4.54
257.73	198.94	4.57
258.37	201.08	4.62
259.23	200.52	4.61
260.72	202.41	4.65
260.93	204.02	4.68
262.21	203.99	4.68
263.46	207.15	4.74
263.69	205.59	4.71
265.16	207.37	4.74
265.98	210.2	4.8
266.63	209.14	4.78
268.09	210.93	4.82
268.47	213.3	4.86
269.54	212.66	4.85
270.95	216.47	4.93
270.99	214.5	4.89
272.44	216.21	4.92
273.41	219.31	4.99
273.87	218	4.96
275.3	219.86	5
275.85	222.84	5.06
276.73	221.67	5.03
278.15	223.45	5.07
278.28	226.05	5.12
279.56	225.24	5.11
280.68	229.31	5.19
280.97	227.16	5.15
282.37	228.87	5.18
283.07	232.43	5.25
283.76	230.71	5.22
285.15	232.47	5.26
285.44	235.64	5.32
286.54	234.44	5.29
287.8	239.08	5.39
287.92	236.08	5.33
289.29	237.78	5.36
290.66	239.56	5.4
292.02	241.24	5.43
293.38	242.8	5.46
294.74	244.64	5.5
296.09	246.1	5.53
297.43	247.9	5.57
298.77	249.27	5.6
300.11	250.87	5.63
301.44	252.15	5.65
302.77	254	5.69
304.09	255.2	5.72
305.41	256.63	5.75
306.73	258.11	5.78
308.04	259.35	5.8
309.35	260.74	5.83

System: 3-pentanol; phases: Liquid
Fixed: Pressure, kPa = 101.325
Property: Molar heat capacity at constant pressure, J/K/mol (Liquid); method: VADIAC:UFactor:8
Temperature, K	Molar heat capacity at constant pressure, J/K/mol	uncertainty
210	164.2	3.9
220	169.1	4
230	175.1	4.1
240	183.5	4.3
250	191.4	4.4
260	201	4.6
270	213.6	4.9
280	227	5.1
290	238.7	5.4
298.15	248.7	5.6
300	250.7	5.6

System: 3-pentanol; phases: Crystal
Fixed: Pressure, kPa = 101.325
Property: Molar heat capacity at constant pressure, J/K/mol (Crystal); method: VADIAC:UFactor:8
Temperature, K	Molar heat capacity at constant pressure, J/K/mol	uncertainty
5.43	0.93	0.11
5.48	0.88	0.11
6.3	1.18	0.13
6.63	1.23	0.13
7.14	1.52	0.14
7.71	1.85	0.16
7.86	1.91	0.16
8.49	2.31	0.18
8.59	2.43	0.18
9.16	2.77	0.2
9.61	3.11	0.21
9.92	3.43	0.23
10.7	4.04	0.25
10.73	4.07	0.26
11.58	4.8	0.28
11.84	5.04	0.29
12.49	5.7	0.32
13.05	6.15	0.33
13.45	6.53	0.35
14.32	7.35	0.37
14.43	7.58	0.38
15.45	8.54	0.41
15.63	8.59	0.41
16.51	9.66	0.45
16.98	10.07	0.46
17.58	10.69	0.48
18.36	11.47	0.5
18.67	11.8	0.51
19.77	13.01	0.54
19.77	12.97	0.54
20.89	14.13	0.56
21.2	14.45	0.57
22.02	15.43	0.59
22.64	16.12	0.61
23.16	16.63	0.62
24.11	17.73	0.64
24.31	18.04	0.64
25.43	19.3	0.66
25.59	19.51	0.67
26.27	19.88	0.66
26.44	21	0.69
26.46	20.69	0.68
27.41	20.88	0.67
27.44	20.97	0.67
28.31	21.71	0.68
29.2	22.65	0.69
30.84	24.51	0.7
32.44	26.27	0.74
34.05	27.98	0.78
35.7	29.65	0.82
37.37	30.89	0.84
39.08	32.33	0.88
40.8	33.94	0.91
42.52	35.56	0.95
44.25	37.13	0.98
46	38.7	1.02
47.76	40.3	1.06
49.53	41.89	1.09
51.31	43.33	1.12
53.11	44.7	1.16
54.91	46.08	1.19
56.73	47.47	1.22
58.56	48.81	1.25
60.4	50.18	1.28
62.25	51.52	1.31
64.1	52.82	1.34
65.97	54.11	1.37
67.84	55.41	1.4
69.72	56.67	1.43
71.6	57.95	1.46
73.49	59.18	1.48
75.38	60.37	1.51
77.28	61.55	1.54
79.19	62.78	1.57
81.1	63.93	1.59
83.01	65.07	1.62
84.93	66.32	1.65
86.86	67.47	1.67
88.78	68.55	1.7
90.7	69.61	2.07
92.62	70.75	2.09
94.54	71.9	2.11
96.47	72.98	2.12
98.4	74.27	2.15
100.34	75.65	2.17
100.42	75.69	2.17
100.73	75.56	2.17
101.88	76.15	2.18
103.84	77.02	2.2
105.79	78.1	2.22
107.74	79.42	2.24
109.68	80.42	2.27
111.63	81.37	2.28
113.58	82.36	2.29
115.54	83.34	2.35
117.49	84.31	2.33
119.44	85.07	2.34
121.39	86.04	2.53
123.34	87.47	2.39
125.29	88.5	2.41
127.24	89.59	2.43
129.2	90.65	2.45
131.15	91.7	2.47
133.11	92.81	2.49
135.06	93.83	2.51
137.01	94.96	2.53
138.96	95.99	2.55
140.92	97.1	2.57
142.87	98.24	2.59
144.82	99.32	2.61
146.77	100.55	2.63
148.72	101.76	2.66
150.67	103.08	2.68
152.61	104.4	2.71
154.56	105.87	2.73
156.51	107.42	2.76
158.46	108.86	2.79
160.42	110.34	2.82
162.38	111.71	2.85
164.37	103.35	10
166.37	115.34	2.92
168.31	115.72	2.92
170.23	116.98	2.95
172.17	118.28	2.97
174.1	119.45	3
176.01	120.74	3.02
177.92	121.98	3.04
179.81	123.05	3.07
181.69	124.1	3.09
183.56	125.1	3.11
185.42	126.2	3.13
187.27	127.45	3.15
189.1	129.05	3.18
190.93	130.67	3.46
191.18	146.69	15
192.74	132.33	3.25
193.08	133.23	3.26
194.53	134.71	3.29
194.98	136.27	3.32
196.31	137.6	3.35
197.93	143.45	3.47
198.06	141.76	3.43

System: 3-pentanol; phases: Crystal
Fixed: Pressure, kPa = 101.325
Property: Molar heat capacity at constant pressure, J/K/mol (Crystal); method: VADIAC:UFactor:8
Temperature, K	Molar heat capacity at constant pressure, J/K/mol	uncertainty
10	3.5	0.23
15	8.21	0.4
20	13.21	0.54
25	18.82	0.66
30	23.56	0.68
35	28.96	0.8
40	33.19	0.9
45	37.81	1
50	42.29	1.1
55	46.14	1.19
60	49.88	1.27
65	53.44	1.35
70	56.86	1.43
75	60.13	1.51
80	63.27	1.58
85	66.36	1.65
90	69.21	2.06
95	72.17	2.11
100	76.23	2.18
105	79.46	2.24
110	83.89	2.32
120	82.36	2.29
130	110.5	2.8
140	71.89	2.11
150	150.8	3.6
160	118.8	3
170	110.3	2.8
180	123.2	3.1
190	129.8	3.2
200	155.5	3.7

System: 3-pentanol; phases: Crystal
Fixed: Pressure, kPa = 101.325
Property: Molar enthalpy, kJ/mol (Crystal); method: VADIAC:UFactor:8
Temperature, K	Molar enthalpy, kJ/mol	uncertainty
10	0.009	0.00106
15	0.038	0.0025
20	0.091	0.0044
25	0.171	0.007
30	0.277	0.011
35	0.408	0.015
40	0.563	0.019
45	0.741	0.024
50	0.941	0.029
55	1.162	0.035
60	1.403	0.041
65	1.661	0.047
70	1.937	0.054
75	2.229	0.061
80	2.538	0.069
85	2.862	0.077
90	3.201	0.136
95	3.554	0.146
100	3.924	0.156
105	4.316	0.167
110	4.73	0.178
120	5.499	0.2
130	6.616	0.227
140	7.067	0.244
150	9.528	0.294
160	9.741	0.306
170	10.2	0.323
180	11.73	0.358
190	12.99	0.388
200	14.07	0.416

System: 3-pentanol; phases: Liquid
Fixed: Pressure, kPa = 101.325
Property: Molar enthalpy, kJ/mol (Liquid); method: VADIAC:UFactor:8
Temperature, K	Molar enthalpy, kJ/mol	uncertainty
210	17.42	0.484
220	19.28	0.526
230	21.03	0.566
240	22.15	0.595
250	24.68	0.65
260	26.75	0.696
270	28.55	0.738
280	30.61	0.784
290	33.17	0.84
298.15	35.16	0.884
300	35.62	0.894

System: 3-pentanol; phases: Crystal
Fixed: Pressure, kPa = 101.325
Property: Molar entropy, J/K/mol (Crystal); method: VADIAC:UFactor:8
Temperature, K	Molar entropy, J/K/mol	uncertainty
10	1.23	0.18
15	3.49	0.31
20	6.49	0.44
25	10.05	0.56
30	13.9	0.71
35	17.93	0.84
40	22.07	0.97
45	26.25	1.11
50	30.47	1.25
55	34.68	1.39
60	38.86	1.54
65	42.99	1.68
70	47.08	1.81
75	51.11	1.95
80	55.09	2.09
85	59.02	2.22
90	62.9	2.92
95	66.72	3.02
100	70.51	3.12
105	74.34	3.22
110	78.18	3.33
120	84.88	3.51
130	93.79	3.76
140	97.2	3.9
150	114.1	4.3
160	115.3	4.4
170	118.3	4.5
180	127.2	4.7
190	134	4.9
200	139.5	5.1

System: 3-pentanol; phases: Liquid
Fixed: Pressure, kPa = 101.325
Property: Molar entropy, J/K/mol (Liquid); method: Vacuum adiabatic calorimetry
Temperature, K	Molar entropy, J/K/mol	uncertainty
210	155.9	4.7
220	164.5	5
230	172.3	5.2
240	177.1	5.3
250	187.4	5.6
260	195.5	5.9
270	202.3	6.1
280	209.8	6.3
290	218.8	6.6
298.15	225.5	6.8
300	227.1	6.8
