Measured thermophysical data. Physical Properties of 1-Butyl-3-methylimidazolium Methyl Sulfate as a Function of Temperature
Source: J. Chem. Eng. Data, 2007, 10.1021/je060313v
Compound 1: 1-butyl-3-methylimidazolium methyl sulfate, C9H18N2O4S, InChI=1S/C8H15N2.CH4O4S/c1-3-4-5-10-7-6-9(2)8-10;1-5-6(2,3)4/h6-8H,3-5H2,1-2H3;1H3,(H,2,3,4)/q+1;/p-1

System: 1-butyl-3-methylimidazolium methyl sulfate; phases: Liquid, Gas
Property: Surface tension liquid-gas, N/m (Liquid); method: Drop weight
Temperature, K	Surface tension liquid-gas, N/m	uncertainty
283.15	0.0459	0.0012
288.15	0.045	0.0011
293.15	0.0441	0.0011
298.15	0.0433	0.0011
303.15	0.0428	0.0011
308.15	0.0423	0.0011
313.15	0.0418	0.0011

System: 1-butyl-3-methylimidazolium methyl sulfate; phases: Liquid
Fixed: Pressure, kPa = 101.325
Property: Viscosity, Pa*s (Liquid); method: Capillary tube (Ostwald; Ubbelohde) method
Temperature, K	Viscosity, Pa*s	uncertainty
293.15	0.28899	0.01357
298.15	0.21319	0.00899
303.15	0.16093	0.00604
308.15	0.12373	0.00416
313.15	0.09683	0.00296
318.15	0.07708	0.00218
323.15	0.06222	0.00165
333.15	0.04224	0.00113
343.15	0.02999	0.0008

System: 1-butyl-3-methylimidazolium methyl sulfate; phases: Liquid
Fixed: Pressure, kPa = 101.325
Property: Refractive index (Na D-line) (Liquid); method: Standard Abbe refractometry
Temperature, K	Refractive index (Na D-line)	uncertainty
283.15	1.48351	0.00108
288.15	1.48213	0.00108
293.15	1.48076	0.00108
298.15	1.47942	0.00108
303.15	1.47805	0.00108
308.15	1.47671	0.00108
313.15	1.47536	0.00108
318.15	1.474	0.00108
323.15	1.47266	0.00108
328.15	1.47132	0.00108
333.15	1.47	0.00108
338.15	1.46864	0.00108
343.15	1.46725	0.00108

System: 1-butyl-3-methylimidazolium methyl sulfate; phases: Liquid
Fixed: Pressure, kPa = 101.325
Property: Speed of sound, m/s (Liquid); method: Sing-around technique in a fixed-path interferometer
Temperature, K	Speed of sound, m/s	uncertainty
278.15	1708.3	5.2
283.15	1695.8	5.2
288.15	1683.4	5.2
293.15	1670.9	5.2
298.15	1658.4	5.2
303.15	1646	5.2
308.15	1633.5	5.2
313.15	1621.1	5.2
318.15	1608.6	5.2
323.15	1596.1	5.2
328.15	1583.7	5.2
333.15	1571.2	5.2
338.15	1558.8	5.2
343.15	1546.3	5.2

System: 1-butyl-3-methylimidazolium methyl sulfate; phases: Liquid
Fixed: Pressure, kPa = 101.325
Property: Mass density, kg/m3 (Liquid); method: Vibrating tube method
Temperature, K	Mass density, kg/m3	uncertainty
278.15	1225.84	8.18
283.15	1222.44	8.14
288.15	1219.03	8.09
293.15	1215.62	8.04
298.15	1212.22	8
303.15	1208.81	7.95
308.15	1205.41	7.91
313.15	1202.04	7.86
318.15	1198.66	7.82
323.15	1195.34	7.77
328.15	1192.02	7.73
333.15	1188.73	7.69
338.15	1185.45	7.64
343.15	1182.19	7.6
