Measured thermophysical data. PVT Property Measurements for Some Aliphatic Esters from (298 to 393) K and up to 35 MPa
Source: J. Chem. Eng. Data, 2007, 10.1021/je060339m
Compound 1: ethyl acetate, C4H8O2, InChI=1S/C4H8O2/c1-3-6-4(2)5/h3H2,1-2H3, purity 99.9%
Compound 2: propyl ethanoate, C5H10O2, InChI=1S/C5H10O2/c1-3-4-7-5(2)6/h3-4H2,1-2H3, purity 99%
Compound 3: butyl ethanoate, C6H12O2, InChI=1S/C6H12O2/c1-3-4-5-8-6(2)7/h3-5H2,1-2H3, purity 99.7%
Compound 4: pentyl ethanoate, C7H14O2, InChI=1S/C7H14O2/c1-3-4-5-6-9-7(2)8/h3-6H2,1-2H3, purity 99%

System: ethyl acetate; phases: Liquid
Property: Mass density, kg/m3 (Liquid); method: VIBTUB:mpoint:UFactor:48
Temperature, K	Pressure, kPa	Mass density, kg/m3	uncertainty
298.15	100	894	3.1
298.15	1000	894.7	3.2
298.15	2000	895.7	3.4
298.15	3000	896.7	3.5
298.15	3800	897.4	3.6
298.15	5000	898.8	3.7
298.15	10000	903.4	4.3
298.15	15000	907.7	4.9
298.15	20000	912	5.5
298.15	25000	916.1	6.1
298.15	30000	921.1	6.7
298.15	35000	926.3	7.3
303.15	100	887.6	3.1
303.15	1000	888.5	3.2
303.15	2000	889.5	3.4
303.15	3000	890.5	3.5
303.15	3800	891.3	3.6
303.15	5000	892.7	3.7
303.15	10000	897.5	4.3
303.15	15000	902	4.9
303.15	20000	906.3	5.5
303.15	25000	910.7	6.1
303.15	30000	915.9	6.7
303.15	35000	921.2	7.3
308.15	100	881.4	3.1
308.15	1000	882.3	3.2
308.15	2000	883.3	3.4
308.15	3000	884.4	3.5
308.15	3800	885.3	3.6
308.15	5000	886.7	3.7
308.15	10000	891.7	4.3
308.15	15000	896.4	4.9
308.15	20000	900.9	5.5
308.15	25000	905.4	6.1
308.15	30000	910.7	6.7
308.15	35000	916.2	7.3
313.15	100	875.2	3.1
313.15	1000	876.1	3.2
313.15	2000	877.2	3.4
313.15	3000	878.3	3.5
313.15	3800	879.2	3.6
313.15	5000	880.6	3.7
313.15	10000	885.8	4.3
313.15	15000	890.7	4.9
313.15	20000	895.4	5.5
313.15	25000	899.8	6.1
313.15	30000	905.3	6.7
313.15	35000	910.9	7.3
318.15	100	868.8	3.1
318.15	1000	869.8	3.2
318.15	2000	871	3.4
318.15	3000	872.2	3.5
318.15	3800	873.1	3.6
318.15	5000	874.5	3.7
318.15	10000	880	4.3
318.15	15000	885.1	4.9
318.15	20000	889.8	5.5
318.15	25000	894.5	6.1
318.15	30000	900.1	6.7
318.15	35000	905.9	7.3
323.15	100	862.7	3.1
323.15	1000	864	3.2
323.15	2000	865.1	3.4
323.15	3000	866.2	3.5
323.15	3800	867.1	3.6
323.15	5000	868.6	3.7
323.15	10000	874.2	4.3
323.15	15000	879.4	4.9
323.15	20000	884.3	5.5
323.15	25000	889.2	6.1
323.15	30000	895	6.7
323.15	35000	900.9	7.3
328.15	100	856.4	3.1
328.15	1000	857.8	3.2
328.15	2000	859.2	3.4
328.15	3000	860.5	3.5
328.15	3800	861.5	3.6
328.15	5000	862.5	3.7
328.15	10000	868.4	4.3
328.15	15000	873.9	4.9
328.15	20000	879	5.5
328.15	25000	884.1	6.1
328.15	30000	890.1	6.7
328.15	35000	896.2	7.3
333.15	100	850.4	3.1
333.15	1000	851.7	3.2
333.15	2000	853	3.4
333.15	3000	854.4	3.5
333.15	3800	855.4	3.6
333.15	5000	856.8	3.7
333.15	10000	862.9	4.3
333.15	15000	868.5	4.9
333.15	20000	873.8	5.5
333.15	25000	879	6.1
333.15	30000	885.2	6.7
333.15	35000	891.4	7.3
338.15	100	844	3.1
338.15	1000	845.4	3.2
338.15	2000	846.8	3.4
338.15	3000	848.2	3.5
338.15	3800	849.3	3.6
338.15	5000	850.8	3.7
338.15	10000	857.1	4.3
338.15	15000	863	4.9
338.15	20000	868.5	5.5
338.15	25000	873.9	6.1
338.15	30000	880.3	6.7
338.15	35000	886.7	7.3
343.15	100	837.5	3.1
343.15	1000	839.1	3.2
343.15	2000	840.6	3.4
343.15	3000	842	3.5
343.15	3800	843.2	3.6
343.15	5000	844.5	3.7
343.15	10000	851.2	4.3
343.15	15000	857.3	4.9
343.15	20000	863	5.5
343.15	25000	868.5	6.1
343.15	30000	875.1	6.7
343.15	35000	881.6	7.3
348.15	100	829.4	3.1
348.15	1000	830.5	3.3
348.15	2000	832.3	3.4
348.15	3000	833.8	3.5
348.15	3800	835	3.6
348.15	5000	836.8	3.7
348.15	10000	845.5	4.3
348.15	15000	851.8	4.9
348.15	20000	857.7	5.5
348.15	25000	863.5	6.1
348.15	30000	870.2	6.7
348.15	35000	877	7.3
353.15	1000	824.3	3.3
353.15	2000	826	3.4
353.15	3000	827.5	3.5
353.15	3800	828.8	3.6
353.15	5000	830.6	3.7
353.15	10000	837.7	4.3
353.15	15000	844.3	4.9
353.15	20000	850.4	5.5
353.15	25000	856.1	6.1
353.15	30000	862.7	6.7
353.15	35000	869.6	7.3
358.15	1000	818.4	3.3
358.15	2000	820	3.4
358.15	3000	821.6	3.5
358.15	3800	822.8	3.6
358.15	5000	824.7	3.7
358.15	10000	832.1	4.3
358.15	15000	838.9	4.9
358.15	20000	845.2	5.5
358.15	25000	851	6.1
358.15	30000	857.6	6.7
358.15	35000	864.7	7.3
363.15	1000	811.8	3.3
363.15	2000	813.5	3.4
363.15	3000	815.3	3.5
363.15	3800	816.6	3.6
363.15	5000	818.5	3.7
363.15	10000	826.3	4.3
363.15	15000	833.3	4.9
363.15	20000	839.7	5.5
363.15	25000	845.8	6.1
363.15	30000	852.9	6.7
363.15	35000	860.2	7.3
368.15	1000	804.9	3.3
368.15	2000	806.8	3.4
368.15	3000	808.6	3.5
368.15	3800	810	3.6
368.15	5000	812.1	3.8
368.15	10000	820.2	4.4
368.15	15000	827.5	5
368.15	20000	834.3	5.6
368.15	25000	840.6	6.2
368.15	30000	848	6.8
368.15	35000	855.5	7.4
373.15	1000	798.5	3.3
373.15	2000	800.4	3.4
373.15	3000	802.4	3.5
373.15	3800	803.8	3.6
373.15	5000	806	3.8
373.15	10000	814.4	4.4
373.15	15000	822	5
373.15	20000	829	5.6
373.15	25000	835.5	6.2
373.15	30000	843	6.8
373.15	35000	850.6	7.4
378.15	1000	791.8	3.3
378.15	2000	793.8	3.4
378.15	3000	795.8	3.5
378.15	3800	797.3	3.6
378.15	5000	799.6	3.8
378.15	10000	808.5	4.4
378.15	15000	816.5	5
378.15	20000	823.7	5.6
378.15	25000	830.5	6.2
378.15	30000	838.4	6.8
378.15	35000	846.3	7.4
383.15	1000	784.8	3.3
383.15	2000	787.1	3.4
383.15	3000	789.1	3.5
383.15	3800	790.8	3.6
383.15	5000	793.2	3.8
383.15	10000	802.4	4.4
383.15	15000	810.7	5
383.15	20000	818.2	5.6
383.15	25000	825.3	6.2
383.15	30000	833.5	6.8
383.15	35000	841.6	7.4
388.15	1000	778.2	3.3
388.15	2000	780.5	3.4
388.15	3000	782.7	3.6
388.15	3800	784.4	3.7
388.15	5000	786.9	3.8
388.15	10000	796.4	4.4
388.15	15000	805.1	5
388.15	20000	813	5.6
388.15	25000	820.3	6.2
388.15	30000	828.8	6.8
388.15	35000	837.2	7.4
393.15	1000	771	3.3
393.15	2000	773.5	3.5
393.15	3000	775.9	3.6
393.15	3800	777.7	3.7
393.15	5000	780.4	3.8
393.15	10000	790.5	4.4
393.15	15000	799.4	5
393.15	20000	807.6	5.6
393.15	25000	815.2	6.2
393.15	30000	823.9	6.8
393.15	35000	832.4	7.4

System: propyl ethanoate; phases: Liquid
Property: Mass density, kg/m3 (Liquid); method: VIBTUB:mpoint:UFactor:48
Temperature, K	Pressure, kPa	Mass density, kg/m3	uncertainty
298.15	100	882	3.3
298.15	1000	882.5	3.4
298.15	2000	883.4	3.6
298.15	3000	884.3	3.7
298.15	3300	884.6	3.7
298.15	5000	886.4	3.9
298.15	10000	890.7	4.5
298.15	15000	894.8	5.1
298.15	20000	898.7	5.7
298.15	25000	902.5	6.3
298.15	30000	906.9	6.9
298.15	35000	911.7	7.5
303.15	100	876.2	3.3
303.15	1000	876.8	3.4
303.15	2000	877.7	3.6
303.15	3000	878.8	3.7
303.15	3300	879	3.7
303.15	5000	880.8	3.9
303.15	10000	885.3	4.5
303.15	15000	889.5	5.1
303.15	20000	893.5	5.7
303.15	25000	897.4	6.3
303.15	30000	902	6.9
303.15	35000	906.9	7.5
308.15	100	870.5	3.3
308.15	1000	871.2	3.4
308.15	2000	872.2	3.6
308.15	3000	873.2	3.7
308.15	3300	873.4	3.7
308.15	5000	875.3	3.9
308.15	10000	879.9	4.5
308.15	15000	884.3	5.1
308.15	20000	888.4	5.7
308.15	25000	892.4	6.3
308.15	30000	897.2	6.9
308.15	35000	902.3	7.5
313.15	100	864.9	3.3
313.15	1000	865.5	3.4
313.15	2000	866.6	3.6
313.15	3000	867.6	3.7
313.15	3300	867.9	3.7
313.15	5000	869.9	3.9
313.15	10000	874.7	4.5
313.15	15000	879.2	5.1
313.15	20000	883.5	5.7
313.15	25000	887.6	6.3
313.15	30000	892.6	6.9
313.15	35000	897.7	7.5
318.15	100	859.3	3.3
318.15	1000	859.8	3.4
318.15	2000	860.9	3.6
318.15	3000	862.1	3.7
318.15	3300	862.4	3.7
318.15	5000	864.4	3.9
318.15	10000	869.4	4.5
318.15	15000	874.1	5.1
318.15	20000	878.5	5.7
318.15	25000	882.8	6.3
318.15	30000	887.9	6.9
318.15	35000	893.2	7.5
323.15	100	853.6	3.3
323.15	1000	854.8	3.4
323.15	2000	855.8	3.5
323.15	3000	856.9	3.7
323.15	3300	857.1	3.7
323.15	5000	859	3.9
323.15	10000	864.1	4.5
323.15	15000	869	5.1
323.15	20000	873.5	5.7
323.15	25000	877.9	6.3
323.15	30000	883.2	6.9
323.15	35000	888.8	7.5
328.15	100	848	3.3
328.15	1000	848.7	3.4
328.15	2000	849.9	3.5
328.15	3000	851	3.7
328.15	3300	851.3	3.7
328.15	5000	853.7	3.9
328.15	10000	859	4.5
328.15	15000	864	5.1
328.15	20000	868.7	5.7
328.15	25000	873.3	6.3
328.15	30000	878.8	6.9
328.15	35000	884.4	7.5
333.15	100	842.5	3.3
333.15	1000	843.6	3.4
333.15	2000	844.8	3.5
333.15	3000	845.9	3.7
333.15	3300	846.2	3.7
333.15	5000	848.3	3.9
333.15	10000	853.9	4.5
333.15	15000	859	5.1
333.15	20000	863.9	5.7
333.15	25000	868.6	6.3
333.15	30000	874.3	6.9
333.15	35000	880.1	7.5
338.15	100	836.7	3.3
338.15	1000	838	3.4
338.15	2000	839.2	3.5
338.15	3000	840.5	3.7
338.15	3300	840.8	3.7
338.15	5000	842.8	3.9
338.15	10000	848.6	4.5
338.15	15000	853.9	5.1
338.15	20000	859	5.7
338.15	25000	863.8	6.3
338.15	30000	869.6	6.9
338.15	35000	875.5	7.5
343.15	100	831.2	3.3
343.15	1000	832.3	3.4
343.15	2000	833.7	3.5
343.15	3000	834.9	3.7
343.15	3300	835.3	3.7
343.15	5000	837.6	3.9
343.15	10000	843.6	4.5
343.15	15000	849.1	5.1
343.15	20000	854.3	5.7
343.15	25000	859.2	6.3
343.15	30000	865	6.9
343.15	35000	871.2	7.5
348.15	100	825.6	3.3
348.15	1000	826.8	3.4
348.15	2000	828.1	3.5
348.15	3000	829.5	3.7
348.15	3300	829.9	3.7
348.15	5000	832.2	3.9
348.15	10000	838.3	4.5
348.15	15000	844.1	5.1
348.15	20000	849.5	5.7
348.15	25000	854.5	6.3
348.15	30000	860.6	6.9
348.15	35000	866.8	7.5
353.15	100	820	3.3
353.15	1000	821.2	3.4
353.15	2000	822.6	3.5
353.15	3000	824	3.7
353.15	3300	824.4	3.7
353.15	5000	826.9	3.9
353.15	10000	833.3	4.5
353.15	15000	838.8	5.1
353.15	20000	844.8	5.7
353.15	25000	850	6.3
353.15	30000	856.4	6.9
353.15	35000	862.7	7.5
358.15	100	811.6	3.3
358.15	1000	812.9	3.4
358.15	2000	814.4	3.5
358.15	3000	815.8	3.7
358.15	3300	816.3	3.7
358.15	5000	818.6	3.9
358.15	10000	825.3	4.5
358.15	15000	831.5	5.1
358.15	20000	837.2	5.7
358.15	25000	842.8	6.3
363.15	100	804.8	3.3
363.15	1000	806.9	3.4
363.15	2000	808.4	3.5
363.15	3000	810	3.7
363.15	3300	810.4	3.7
363.15	5000	812.9	3.9
363.15	10000	819.9	4.5
363.15	15000	826.2	5.1
363.15	20000	832.1	5.7
363.15	25000	837.7	6.3
363.15	30000	844.4	6.9
368.15	1000	801	3.4
368.15	2000	802.7	3.6
368.15	3000	804.3	3.7
368.15	3300	804.8	3.7
368.15	5000	807.4	3.9
368.15	10000	814.6	4.5
368.15	15000	821.2	5.1
368.15	20000	827.3	5.7
368.15	25000	833.1	6.3
373.15	1000	795.5	3.4
373.15	2000	797.2	3.6
373.15	3000	798.9	3.7
373.15	3300	799.5	3.7
373.15	5000	802.3	3.9
373.15	10000	809.8	4.5
373.15	15000	816.6	5.1
373.15	20000	822.9	5.7
373.15	25000	828.9	6.3
378.15	1000	789.4	3.4
378.15	2000	791.3	3.6
378.15	3000	793	3.7
378.15	3300	793.6	3.7
378.15	5000	796.3	3.9
378.15	10000	803.3	4.5
378.15	15000	811.3	5.1
378.15	20000	817.7	5.7
378.15	25000	824	6.3
378.15	30000	831.2	6.9
383.15	1000	783.6	3.5
383.15	2000	785.5	3.6
383.15	3000	787.3	3.7
383.15	3300	788.2	3.7
383.15	5000	791.2	3.9
383.15	10000	799.2	4.5
383.15	15000	806.6	5.1
383.15	20000	813.2	5.8
383.15	25000	819.7	6.4
388.15	1000	777.9	3.5
388.15	2000	779.8	3.6
388.15	3000	781.6	3.7
388.15	3300	782.1	3.8
388.15	5000	785.4	4
388.15	10000	793.8	4.6
388.15	15000	801.5	5.2
388.15	20000	808.5	5.8
388.15	25000	815.2	6.4
388.15	30000	823.2	7
393.15	1000	771.8	3.5
393.15	2000	773.9	3.6
393.15	3000	775.9	3.7
393.15	3300	776.4	3.8
393.15	5000	779.7	4
393.15	10000	788.6	4.6
393.15	15000	796.5	5.2
393.15	20000	803.8	5.8
393.15	25000	810.7	6.4

System: butyl ethanoate; phases: Liquid
Property: Mass density, kg/m3 (Liquid); method: VIBTUB:mpoint:UFactor:48
Temperature, K	Pressure, kPa	Mass density, kg/m3	uncertainty
298.15	100	875.7	3.2
298.15	1000	876.3	3.3
298.15	2000	877.2	3.4
298.15	3000	878	3.5
298.15	3100	878.1	3.5
298.15	5000	879.9	3.7
298.15	10000	883.8	4.3
298.15	15000	887.6	4.9
298.15	20000	891.3	5.5
298.15	25000	894.9	6.1
298.15	30000	899.1	6.7
298.15	35000	903.7	7.3
303.15	100	870.4	3.1
303.15	1000	871.1	3.3
303.15	2000	872	3.4
303.15	3000	872.9	3.5
303.15	3100	873	3.5
303.15	5000	874.7	3.7
303.15	10000	878.8	4.3
303.15	15000	882.8	4.9
303.15	20000	886.5	5.5
303.15	25000	890.2	6.1
303.15	30000	894.4	6.7
303.15	35000	899.1	7.3
308.15	100	865.1	3.1
308.15	1000	865.9	3.3
308.15	2000	866.9	3.4
308.15	3000	867.8	3.5
308.15	3100	867.8	3.5
308.15	5000	869.6	3.7
308.15	10000	873.9	4.3
308.15	15000	878	4.9
308.15	20000	881.9	5.5
308.15	25000	885.6	6.1
308.15	30000	890	6.7
308.15	35000	894.8	7.3
313.15	100	859.9	3.1
313.15	1000	860.8	3.3
313.15	2000	861.7	3.4
313.15	3000	862.7	3.5
313.15	3100	862.7	3.5
313.15	5000	864.6	3.7
313.15	10000	869	4.3
313.15	15000	873.2	4.9
313.15	20000	877.2	5.5
313.15	25000	881	6.1
313.15	30000	885.6	6.7
313.15	35000	890.5	7.3
318.15	100	854.9	3.1
318.15	1000	855.7	3.3
318.15	2000	856.7	3.4
318.15	3000	857.8	3.5
318.15	3100	857.9	3.5
318.15	5000	859.6	3.7
318.15	10000	864.2	4.3
318.15	15000	868.5	4.9
318.15	20000	872.6	5.5
318.15	25000	876.5	6.1
318.15	30000	881.3	6.7
318.15	35000	886.3	7.3
323.15	100	849.7	3.1
323.15	1000	851	3.3
323.15	2000	852	3.4
323.15	3000	853	3.5
323.15	3100	853.1	3.5
323.15	5000	854.6	3.7
323.15	10000	859.4	4.3
323.15	15000	863.9	4.9
323.15	20000	868.1	5.5
323.15	25000	872.3	6.1
323.15	30000	877.3	6.7
323.15	35000	882.4	7.3
328.15	100	844.6	3.1
328.15	1000	845.7	3.3
328.15	2000	846.8	3.4
328.15	3000	847.9	3.5
328.15	3100	848	3.5
328.15	5000	849.7	3.7
328.15	10000	854.6	4.3
328.15	15000	859.3	4.9
328.15	20000	863.6	5.5
328.15	25000	867.8	6.1
328.15	30000	872.5	6.7
328.15	35000	877.7	7.3
333.15	100	839.6	3.2
333.15	1000	840.7	3.3
333.15	2000	841.8	3.4
333.15	3000	842.9	3.5
333.15	3100	842.9	3.5
333.15	5000	844.9	3.7
333.15	10000	850	4.3
333.15	15000	854.8	4.9
333.15	20000	859.3	5.5
333.15	25000	863.6	6.1
333.15	30000	868.6	6.7
333.15	35000	873.9	7.3
338.15	100	834.5	3.2
338.15	1000	835.6	3.3
338.15	2000	836.7	3.4
338.15	3000	837.9	3.5
338.15	3100	838	3.5
338.15	5000	840.1	3.7
338.15	10000	845.5	4.3
338.15	15000	850.1	4.9
338.15	20000	855	5.5
338.15	25000	859.5	6.1
338.15	30000	864.6	6.7
338.15	35000	870.1	7.3
343.15	100	829.5	3.2
343.15	1000	830.5	3.3
343.15	2000	831.7	3.4
343.15	3000	832.9	3.5
343.15	3100	833	3.5
343.15	5000	835.2	3.7
343.15	10000	840.7	4.3
343.15	15000	845.7	4.9
343.15	20000	850.5	5.5
343.15	25000	855.1	6.1
343.15	30000	860.7	6.7
343.15	35000	866.3	7.3
348.15	100	824.4	3.2
348.15	1000	825.4	3.3
348.15	2000	826.7	3.4
348.15	3000	827.9	3.5
348.15	3100	828	3.5
348.15	5000	830.5	3.7
348.15	10000	836.1	4.3
348.15	15000	841.3	4.9
348.15	20000	846.2	5.5
348.15	25000	850.9	6.1
348.15	30000	856.6	6.7
348.15	35000	862.4	7.3
353.15	100	819.3	3.2
353.15	1000	820.4	3.3
353.15	2000	821.7	3.4
353.15	3000	822.9	3.5
353.15	3100	823	3.5
353.15	5000	825.5	3.7
353.15	10000	831.3	4.3
353.15	15000	836.7	4.9
353.15	20000	841.8	5.5
353.15	25000	846.7	6.1
353.15	30000	852.5	6.7
353.15	35000	858.4	7.3
358.15	100	811.6	3.2
358.15	1000	813.2	3.3
358.15	2000	813.9	3.4
358.15	3100	815.3	3.5
358.15	5000	817.7	3.8
358.15	10000	823.6	4.4
358.15	15000	829.1	5
358.15	20000	835.5	5.6
363.15	100	806.1	3.2
363.15	1000	807.5	3.3
363.15	2000	808.8	3.4
363.15	3000	810.1	3.5
363.15	3100	810.3	3.5
363.15	5000	812.8	3.8
363.15	10000	819.2	4.4
363.15	15000	824.9	5
363.15	20000	830.4	5.6
368.15	100	800.3	3.2
368.15	1000	802.1	3.3
368.15	2000	803.6	3.4
368.15	3000	804.8	3.5
368.15	3100	805	3.5
368.15	5000	807.7	3.8
368.15	10000	814.3	4.4
368.15	15000	820.3	5
368.15	20000	825.9	5.6
373.15	100	795.8	3.2
373.15	1000	797.2	3.3
373.15	2000	798.7	3.4
373.15	3000	800.2	3.5
373.15	3100	800.4	3.5
373.15	5000	803.1	3.8
373.15	10000	809.9	4.4
373.15	15000	815.9	5
373.15	20000	821.3	5.6
378.15	100	790.4	3.2
378.15	1000	791.9	3.3
378.15	2000	793.7	3.4
378.15	3000	795.2	3.5
378.15	3100	795.4	3.6
378.15	5000	798	3.8
378.15	10000	804.7	4.4
378.15	15000	810.8	5
378.15	20000	817.1	5.6
383.15	100	785.2	3.2
383.15	1000	786.7	3.3
383.15	2000	788.3	3.4
383.15	3000	789.9	3.6
383.15	3100	790	3.6
383.15	5000	792.9	3.8
383.15	10000	800.1	4.4
383.15	15000	806.7	5
383.15	20000	812.8	5.6
388.15	100	779.9	3.2
388.15	1000	781.6	3.3
388.15	2000	783.2	3.5
388.15	3000	785.2	3.6
388.15	3100	785.4	3.6
388.15	5000	788.4	3.8
388.15	10000	795.8	4.4
388.15	15000	802.4	5
388.15	20000	808.6	5.6
393.15	100	775.2	3.2
393.15	1000	776.4	3.4
393.15	2000	778.1	3.5
393.15	3000	779.5	3.6
393.15	3100	779.7	3.6
393.15	5000	782.8	3.8
393.15	10000	790.6	4.4
393.15	15000	797.7	5
393.15	20000	804.2	5.6

System: pentyl ethanoate; phases: Liquid
Property: Mass density, kg/m3 (Liquid); method: VIBTUB:mpoint:UFactor:48
Temperature, K	Pressure, kPa	Mass density, kg/m3	uncertainty
298.15	100	871.4	3.3
298.15	1000	871.9	3.4
298.15	2000	872.7	3.6
298.15	2700	873.3	3.6
298.15	3000	873.5	3.7
298.15	5000	875.3	3.9
298.15	10000	879.1	4.5
298.15	15000	882.7	5.1
298.15	20000	886.2	5.7
298.15	25000	889.6	6.3
298.15	30000	893.6	6.9
298.15	35000	897.9	7.5
303.15	100	866.5	3.3
303.15	1000	867.1	3.4
303.15	2000	867.9	3.6
303.15	2700	868.5	3.6
303.15	3000	868.7	3.7
303.15	5000	870.5	3.9
303.15	10000	874.4	4.5
303.15	15000	878.1	5.1
303.15	20000	881.6	5.7
303.15	25000	885.1	6.3
303.15	30000	889.4	6.9
303.15	35000	893.8	7.5
308.15	100	861.6	3.3
308.15	1000	862.2	3.4
308.15	2000	863.1	3.6
308.15	2700	863.7	3.6
308.15	3000	863.9	3.7
308.15	5000	865.8	3.9
308.15	10000	869.8	4.5
308.15	15000	873.6	5.1
308.15	20000	877.3	5.7
308.15	25000	880.8	6.3
308.15	30000	885.2	6.9
308.15	35000	889.7	7.5
313.15	100	856.7	3.3
313.15	1000	857.4	3.4
313.15	2000	858.3	3.5
313.15	2700	858.9	3.6
313.15	3000	859.2	3.7
313.15	5000	861	3.9
313.15	10000	865.2	4.5
313.15	15000	869	5.1
313.15	20000	872.8	5.7
313.15	25000	876.4	6.3
313.15	30000	880.9	6.9
313.15	35000	885.5	7.5
318.15	100	851.9	3.3
318.15	1000	852.6	3.4
318.15	2000	853.5	3.5
318.15	2700	854.2	3.6
318.15	3000	854.4	3.7
318.15	5000	856.4	3.9
318.15	10000	860.7	4.5
318.15	15000	864.7	5.1
318.15	20000	868.5	5.7
318.15	25000	872.3	6.3
318.15	30000	876.9	6.9
318.15	35000	881.7	7.5
323.15	100	847.1	3.3
323.15	1000	847.7	3.4
323.15	2000	848.7	3.5
323.15	2700	849.3	3.6
323.15	3000	849.6	3.7
323.15	5000	851.7	3.9
323.15	10000	856.1	4.5
323.15	15000	860.2	5.1
323.15	20000	864.2	5.7
323.15	25000	868.1	6.3
323.15	30000	872.8	6.9
323.15	35000	877.6	7.5
328.15	100	842.3	3.3
328.15	1000	843.2	3.4
328.15	2000	844.4	3.5
328.15	2700	845.2	3.6
328.15	3000	845.5	3.7
328.15	5000	847.1	3.9
328.15	10000	851.6	4.5
328.15	15000	855.9	5.1
328.15	20000	860	5.7
328.15	25000	864.1	6.3
328.15	30000	869	6.9
328.15	35000	874	7.5
333.15	100	837.8	3.3
333.15	1000	838.7	3.4
333.15	2000	839.8	3.5
333.15	2700	840.5	3.6
333.15	3000	840.8	3.7
333.15	5000	842.7	3.9
333.15	10000	847.4	4.5
333.15	15000	851.8	5.1
333.15	20000	856	5.7
333.15	25000	860.1	6.3
333.15	30000	865.1	6.9
333.15	35000	870.2	7.5
338.15	100	832.9	3.3
338.15	1000	834	3.4
338.15	2000	835.1	3.5
338.15	2700	835.8	3.6
338.15	3000	836.1	3.7
338.15	5000	838.1	3.9
338.15	10000	842.9	4.5
338.15	15000	847.5	5.1
338.15	20000	851.9	5.7
338.15	25000	856.2	6.3
338.15	30000	861.3	6.9
338.15	35000	866.5	7.5
343.15	100	828.3	3.3
343.15	1000	829.3	3.4
343.15	2000	830.4	3.5
343.15	2700	831.2	3.6
343.15	3000	831.5	3.7
343.15	5000	833.5	3.9
343.15	10000	838.5	4.5
343.15	15000	843.2	5.1
343.15	20000	847.7	5.7
343.15	25000	852.1	6.3
343.15	30000	857.3	6.9
343.15	35000	862.7	7.5
348.15	100	823.2	3.3
348.15	1000	824.6	3.4
348.15	2000	825.7	3.5
348.15	2700	826.5	3.6
348.15	3000	826.9	3.7
348.15	5000	828.8	3.9
348.15	10000	834	4.5
348.15	15000	838.9	5.1
348.15	20000	843.5	5.7
348.15	25000	847.9	6.3
348.15	30000	853.3	6.9
348.15	35000	858.8	7.5
353.15	100	818.7	3.3
353.15	1000	819.9	3.4
353.15	2000	821.1	3.5
353.15	2700	821.9	3.6
353.15	3000	822.3	3.7
353.15	5000	824.4	3.9
353.15	10000	829.8	4.5
353.15	15000	835	5.1
353.15	20000	839.7	5.7
353.15	25000	844.3	6.3
353.15	30000	849.8	6.9
353.15	35000	855.4	7.5
358.15	100	811.3	3.3
358.15	1000	812.2	3.4
358.15	2000	813.4	3.5
358.15	2700	814.1	3.6
358.15	3000	814.5	3.7
358.15	5000	816.9	3.9
358.15	10000	822.5	4.5
358.15	15000	827.7	5.1
358.15	20000	832.5	5.7
358.15	25000	838	6.3
358.15	30000	843.9	6.9
358.15	35000	849.7	7.5
363.15	100	806.3	3.3
363.15	1000	807.4	3.4
363.15	2000	808.7	3.5
363.15	2700	809.6	3.6
363.15	3000	809.9	3.7
363.15	5000	812.4	3.9
363.15	10000	818.1	4.5
363.15	15000	823.4	5.1
363.15	20000	828.3	5.7
363.15	25000	833.9	6.3
363.15	30000	839.9	6.9
363.15	35000	845.6	7.5
368.15	100	801.2	3.3
368.15	1000	802.3	3.4
368.15	2000	803.7	3.6
368.15	2700	804.6	3.6
368.15	3000	805	3.7
368.15	5000	807.5	3.9
368.15	10000	813.4	4.5
368.15	15000	818.8	5.1
368.15	20000	824	5.7
368.15	25000	829.8	6.3
368.15	30000	835.9	6.9
368.15	35000	841.4	7.5
373.15	100	795.5	3.3
373.15	1000	796.4	3.4
373.15	2000	797.7	3.6
373.15	2700	799.5	3.6
373.15	3000	799	3.7
373.15	5000	802.5	3.9
373.15	10000	808.2	4.5
373.15	15000	813.9	5.1
373.15	20000	819.8	5.7
373.15	25000	826.3	6.3
373.15	30000	831.3	6.9
378.15	100	790.4	3.3
378.15	1000	791.6	3.4
378.15	2000	793.1	3.6
378.15	2700	794	3.7
378.15	3000	794.4	3.7
378.15	5000	797.1	3.9
378.15	10000	803.5	4.5
383.15	100	786.8	3.4
383.15	1000	788.1	3.5
383.15	2000	789.6	3.6
383.15	2700	790.7	3.7
383.15	3000	791.1	3.7
383.15	5000	793.9	3.9
383.15	10000	800.5	4.5
383.15	15000	806.6	5.1
383.15	20000	811.7	5.8
383.15	25000	816.5	6.4
383.15	30000	824	7
383.15	35000	830	7.6
388.15	100	781.9	3.4
388.15	1000	783.4	3.5
388.15	2000	785	3.6
388.15	2700	786	3.7
388.15	3000	786.5	3.7
388.15	5000	789.4	4
388.15	10000	796.3	4.6
388.15	15000	802.5	5.2
388.15	20000	808.1	5.8
388.15	25000	813.7	6.4
388.15	30000	819.7	7
388.15	35000	826.2	7.6
393.15	100	777.2	3.4
393.15	1000	778.7	3.5
393.15	2000	780.3	3.6
393.15	2700	781.4	3.7
393.15	3000	781.9	3.7
393.15	5000	784.9	4
393.15	10000	791.9	4.6
393.15	15000	798.4	5.2
393.15	20000	803.9	5.8
393.15	25000	809.7	6.4
393.15	30000	815.7	7
393.15	35000	822.2	7.6
