Measured thermophysical data. Compressed Liquid Densities and Excess Molar Volumes of CO2 + Hexan-1-ol Mixtures from (313 to 363) K and Pressures up to 25 MPa
Source: J. Chem. Eng. Data, 2006, 10.1021/je060154f
Compound 1: hexan-1-ol, C6H14O, InChI=1S/C6H14O/c1-2-3-4-5-6-7/h7H,2-6H2,1H3
Compound 2: carbon dioxide, CO2, InChI=1S/CO2/c2-1-3

System: hexan-1-ol; phases: Liquid
Property: Mass density, kg/m3 (Liquid); method: Vibrating tube method
Temperature, K	Pressure, kPa	Mass density, kg/m3	uncertainty
313.14	1034	804.9	0.5
313.14	2032	805.6	0.5
313.14	3046	806.3	0.5
313.14	4016	807	0.5
313.14	5013	807.7	0.5
313.14	6035	808.4	0.5
313.14	7010	809.1	0.5
313.14	8036	809.8	0.5
313.14	9015	810.5	0.5
313.14	10002	811.2	0.5
313.14	11020	811.8	0.5
313.14	12017	812.5	0.5
313.14	13002	813.2	0.5
313.14	14016	813.8	0.5
313.14	15016	814.5	0.5
313.14	16009	815.1	0.5
313.14	17010	815.8	0.5
313.14	18010	816.4	0.5
313.14	19012	817.1	0.5
313.14	20019	817.7	0.5
313.14	21006	818.3	0.5
313.14	22037	818.9	0.6
313.14	23037	819.6	0.6
313.14	24010	820.2	0.6
313.14	25023	820.8	0.6
323.12	1021	797.6	0.5
323.12	2009	798.4	0.5
323.12	3003	799.1	0.5
323.12	4014	799.8	0.5
323.12	5025	800.6	0.5
323.12	6021	801.3	0.5
323.12	7032	802.1	0.5
323.12	8016	802.8	0.5
323.12	9016	803.5	0.5
323.12	10019	804.2	0.5
323.12	11015	805	0.5
323.12	12012	805.7	0.5
323.12	13015	806.3	0.5
323.12	14006	807	0.5
323.12	15002	807.7	0.5
323.12	16013	808.4	0.5
323.12	17016	809.1	0.5
323.12	18018	809.7	0.5
323.12	19000	810.4	0.5
323.12	20003	811	0.5
323.12	21009	811.7	0.5
323.12	22000	812.3	0.6
323.12	23002	813	0.6
323.12	24021	813.6	0.6
323.12	25004	814.3	0.6
333.01	1023	790.2	0.5
333.01	2011	791	0.5
333.01	3042	791.8	0.5
333.01	4000	792.6	0.5
333.01	5014	793.3	0.5
333.01	6004	794.1	0.5
333.01	7021	794.9	0.5
333.01	8012	795.7	0.5
333.01	9002	796.4	0.5
333.01	10004	797.2	0.5
333.01	11026	797.9	0.5
333.01	12020	798.7	0.5
333.01	13018	799.4	0.5
333.01	14009	800.1	0.5
333.01	15019	800.8	0.5
333.01	16017	801.6	0.5
333.01	17006	802.3	0.5
333.01	18018	803	0.5
333.01	19013	803.7	0.5
333.01	20037	804.4	0.5
333.01	21029	805	0.6
333.01	22008	805.7	0.6
333.01	23026	806.4	0.6
333.01	24019	807	0.6
333.01	25025	807.7	0.6
342.96	1036	782.9	0.5
342.96	2011	783.7	0.5
342.96	3012	784.5	0.5
342.96	4015	785.4	0.5
342.96	5007	786.2	0.5
342.96	6013	787	0.5
342.96	7039	787.8	0.5
342.96	8023	788.6	0.5
342.96	9022	789.4	0.5
342.96	10035	790.2	0.5
342.96	11017	791	0.5
342.96	12016	791.7	0.5
342.96	13023	792.5	0.5
342.96	14003	793.2	0.5
342.96	15009	793.9	0.5
342.96	16014	794.7	0.5
342.96	17038	795.4	0.5
342.96	18023	796.1	0.5
342.96	19015	796.8	0.5
342.96	20015	797.5	0.6
342.96	21026	798.1	0.6
342.96	22003	798.8	0.6
342.96	23005	799.5	0.6
342.96	24003	800.1	0.6
342.96	25031	800.8	0.6
352.86	1020	775	0.5
352.86	2012	775.9	0.5
352.86	3028	776.9	0.5
352.86	4014	777.7	0.5
352.86	5010	778.6	0.5
352.86	6028	779.5	0.5
352.86	7039	780.4	0.5
352.86	8000	781.2	0.5
352.86	9030	782.1	0.5
352.86	10033	782.9	0.5
352.86	11014	783.7	0.5
352.86	12017	784.5	0.5
352.86	13014	785.3	0.5
352.86	14011	786.1	0.5
352.86	15010	786.9	0.5
352.86	16023	787.7	0.5
352.86	17018	788.5	0.5
352.86	18016	789.3	0.5
352.86	19014	790	0.5
352.86	20021	790.8	0.6
352.86	21017	791.5	0.6
352.86	22038	792.3	0.6
352.86	23016	793	0.6
352.86	24020	793.7	0.6
352.86	25048	794.5	0.6
362.8	1011	767	0.5
362.8	2009	768	0.5
362.8	3024	769	0.5
362.8	4006	769.9	0.5
362.8	5021	770.8	0.5
362.8	6035	771.8	0.5
362.8	7009	772.6	0.5
362.8	8023	773.6	0.5
362.8	9041	774.5	0.5
362.8	10000	775.3	0.5
362.8	11014	776.2	0.5
362.8	12026	777.1	0.5
362.8	13045	777.9	0.5
362.8	14030	778.8	0.5
362.8	15012	779.6	0.5
362.8	16031	780.4	0.5
362.8	17003	781.2	0.5
362.8	18020	782	0.5
362.8	19033	782.8	0.6
362.8	20004	783.6	0.6
362.8	21006	784.4	0.6
362.8	22032	785.2	0.6
362.8	22989	785.9	0.6
362.8	24055	786.7	0.6
362.8	25035	787.5	0.6

System: hexan-1-ol + carbon dioxide; phases: Liquid
Property: Mass density, kg/m3 (Liquid); method: Vibrating tube method
Mole fraction of carbon dioxide	Temperature, K	Pressure, kPa	Mass density, kg/m3	uncertainty
0.1413	313.13	8001	814.4	0.5
0.1413	313.13	9030	815.2	0.5
0.1413	313.13	10001	816	0.5
0.1413	313.13	11001	816.7	0.5
0.1413	313.13	12003	817.5	0.5
0.1413	313.13	12999	818.2	0.5
0.1413	313.13	13988	818.9	0.5
0.1413	313.13	15000	819.6	0.5
0.1413	313.13	15998	820.4	0.5
0.1413	313.13	16988	821.1	0.5
0.1413	313.13	17997	821.7	0.5
0.1413	313.13	19003	822.5	0.5
0.1413	313.13	20002	823.1	0.5
0.1413	313.13	20995	823.8	0.5
0.1413	313.13	22009	824.5	0.5
0.1413	313.13	22957	825.1	0.5
0.1413	313.13	24000	825.8	0.5
0.1413	323.1	8003	806.8	0.5
0.1413	323.1	9008	807.6	0.5
0.1413	323.1	10001	808.4	0.5
0.1413	323.1	11000	809.2	0.5
0.1413	323.1	12000	810	0.5
0.1413	323.1	12999	810.8	0.5
0.1413	323.1	14000	811.5	0.5
0.1413	323.1	15002	812.3	0.5
0.1413	323.1	16000	813	0.5
0.1413	323.1	16997	813.7	0.5
0.1413	323.1	18008	814.5	0.5
0.1413	323.1	19006	815.2	0.5
0.1413	323.1	20026	816	0.5
0.1413	323.1	21007	816.7	0.5
0.1413	323.1	22022	817.4	0.5
0.1413	323.1	23003	818.1	0.5
0.1413	323.1	24000	818.8	0.5
0.1413	332.65	8012	799.2	0.5
0.1413	332.65	9010	800.1	0.5
0.1413	332.65	9940	801	0.5
0.1413	332.65	11006	801.8	0.5
0.1413	332.65	12012	802.6	0.5
0.1413	332.65	12998	803.5	0.5
0.1413	332.65	14006	804.3	0.5
0.1413	332.65	14996	805.1	0.5
0.1413	332.65	16003	805.9	0.5
0.1413	332.65	17010	806.7	0.5
0.1413	332.65	18025	807.5	0.5
0.1413	332.65	19008	808.2	0.5
0.1413	332.65	19999	809	0.5
0.1413	332.65	21015	809.7	0.5
0.1413	332.65	21988	810.5	0.5
0.1413	332.65	23000	811.2	0.5
0.1413	332.65	24025	812	0.5
0.1413	342.99	8000	791.4	0.5
0.1413	342.99	9011	792.3	0.5
0.1413	342.99	10009	793.2	0.5
0.1413	342.99	11008	794	0.5
0.1413	342.99	12009	794.9	0.5
0.1413	342.99	13021	795.7	0.5
0.1413	342.99	14029	796.6	0.5
0.1413	342.99	15034	797.4	0.5
0.1413	342.99	16012	798.2	0.5
0.1413	342.99	17004	799	0.5
0.1413	342.99	18009	799.8	0.5
0.1413	342.99	19012	800.5	0.5
0.1413	342.99	19994	801.3	0.5
0.1413	342.99	21005	802.1	0.5
0.1413	342.99	22011	802.9	0.5
0.1413	342.99	22994	803.6	0.5
0.1413	342.99	24019	804.3	0.5
0.1413	352.87	8000	783.3	0.5
0.1413	352.87	9011	784.2	0.5
0.1413	352.87	10009	785.2	0.5
0.1413	352.87	11002	786.1	0.5
0.1413	352.87	12012	787	0.5
0.1413	352.87	13023	788	0.5
0.1413	352.87	14009	788.9	0.5
0.1413	352.87	15002	789.8	0.5
0.1413	352.87	16008	790.6	0.5
0.1413	352.87	17006	791.5	0.5
0.1413	352.87	18009	792.4	0.5
0.1413	352.87	18999	793.2	0.5
0.1413	352.87	19979	794	0.5
0.1413	352.87	21018	794.8	0.5
0.1413	352.87	22009	795.7	0.5
0.1413	352.87	23005	796.5	0.5
0.1413	352.87	24001	797.3	0.5
0.1413	362.75	8000	774.2	0.5
0.1413	362.75	9015	775.2	0.5
0.1413	362.75	10008	776.3	0.5
0.1413	362.75	11003	777.2	0.5
0.1413	362.75	12009	778.2	0.5
0.1413	362.75	12997	779.2	0.5
0.1413	362.75	14006	780.1	0.5
0.1413	362.75	15014	781	0.5
0.1413	362.75	16007	781.9	0.5
0.1413	362.75	17010	782.9	0.5
0.1413	362.75	18025	783.9	0.5
0.1413	362.75	19041	784.7	0.5
0.1413	362.75	20017	785.6	0.5
0.1413	362.75	21025	786.5	0.5
0.1413	362.75	22013	787.3	0.5
0.1413	362.75	23010	788.2	0.5
0.1413	362.75	24019	789.1	0.5
0.1413	313.13	8001	814.4	0.5
0.1413	313.13	9030	815.2	0.5
0.1413	313.13	10001	816	0.5
0.1413	313.13	11001	816.7	0.5
0.1413	313.13	12003	817.5	0.5
0.1413	313.13	12999	818.2	0.5
0.1413	313.13	13988	818.9	0.5
0.1413	313.13	15000	819.6	0.5
0.1413	313.13	15998	820.4	0.5
0.1413	313.13	16988	821.1	0.5
0.1413	313.13	17997	821.7	0.5
0.1413	313.13	19003	822.5	0.5
0.1413	313.13	20002	823.1	0.5
0.1413	313.13	20995	823.8	0.5
0.1413	313.13	22009	824.5	0.5
0.1413	313.13	22957	825.1	0.5
0.1413	313.13	24000	825.8	0.5
0.1413	323.1	8003	806.8	0.5
0.1413	323.1	9008	807.6	0.5
0.1413	323.1	10001	808.4	0.5
0.1413	323.1	11000	809.2	0.5
0.1413	323.1	12000	810	0.5
0.1413	323.1	12999	810.8	0.5
0.1413	323.1	14000	811.5	0.5
0.1413	323.1	15002	812.3	0.5
0.1413	323.1	16000	813	0.5
0.1413	323.1	16997	813.7	0.5
0.1413	323.1	18008	814.5	0.5
0.1413	323.1	19006	815.2	0.5
0.1413	323.1	20026	816	0.5
0.1413	323.1	21007	816.7	0.5
0.1413	323.1	22022	817.4	0.5
0.1413	323.1	23003	818.1	0.5
0.1413	323.1	24000	818.8	0.5
0.1413	332.65	8012	799.2	0.5
0.1413	332.65	9010	800.1	0.5
0.1413	332.65	9940	801	0.5
0.1413	332.65	11006	801.8	0.5
0.1413	332.65	12012	802.6	0.5
0.1413	332.65	12998	803.5	0.5
0.1413	332.65	14006	804.3	0.5
0.1413	332.65	14996	805.1	0.5
0.1413	332.65	16003	805.9	0.5
0.1413	332.65	17010	806.7	0.5
0.1413	332.65	18025	807.5	0.5
0.1413	332.65	19008	808.2	0.5
0.1413	332.65	19999	809	0.5
0.1413	332.65	21015	809.7	0.5
0.1413	332.65	21988	810.5	0.5
0.1413	332.65	23000	811.2	0.5
0.1413	332.65	24025	812	0.5
0.1413	342.99	8000	791.4	0.5
0.1413	342.99	9011	792.3	0.5
0.1413	342.99	10009	793.2	0.5
0.1413	342.99	11008	794	0.5
0.1413	342.99	12009	794.9	0.5
0.1413	342.99	13021	795.7	0.5
0.1413	342.99	14029	796.6	0.5
0.1413	342.99	15034	797.4	0.5
0.1413	342.99	16012	798.2	0.5
0.1413	342.99	17004	799	0.5
0.1413	342.99	18009	799.8	0.5
0.1413	342.99	19012	800.5	0.5
0.1413	342.99	19994	801.3	0.5
0.1413	342.99	21005	802.1	0.5
0.1413	342.99	22011	802.9	0.5
0.1413	342.99	22994	803.6	0.5
0.1413	342.99	24019	804.3	0.5
0.1413	352.87	8000	783.3	0.5
0.1413	352.87	9011	784.2	0.5
0.1413	352.87	10009	785.2	0.5
0.1413	352.87	11002	786.1	0.5
0.1413	352.87	12012	787	0.5
0.1413	352.87	13023	788	0.5
0.1413	352.87	14009	788.9	0.5
0.1413	352.87	15002	789.8	0.5
0.1413	352.87	16008	790.6	0.5
0.1413	352.87	17006	791.5	0.5
0.1413	352.87	18009	792.4	0.5
0.1413	352.87	18999	793.2	0.5
0.1413	352.87	19979	794	0.5
0.1413	352.87	21018	794.8	0.5
0.1413	352.87	22009	795.7	0.5
0.1413	352.87	23005	796.5	0.5
0.1413	352.87	24001	797.3	0.5
0.1413	362.75	8000	774.2	0.5
0.1413	362.75	9015	775.2	0.5
0.1413	362.75	10008	776.3	0.5
0.1413	362.75	11003	777.2	0.5
0.1413	362.75	12009	778.2	0.5
0.1413	362.75	12997	779.2	0.5
0.1413	362.75	14006	780.1	0.5
0.1413	362.75	15014	781	0.5
0.1413	362.75	16007	781.9	0.5
0.1413	362.75	17010	782.9	0.5
0.1413	362.75	18025	783.9	0.5
0.1413	362.75	19041	784.7	0.5
0.1413	362.75	20017	785.6	0.5
0.1413	362.75	21025	786.5	0.5
0.1413	362.75	22013	787.3	0.5
0.1413	362.75	23010	788.2	0.5
0.1413	362.75	24019	789.1	0.5
0.2289	362.6	22966	791.3	0.5
0.2289	362.6	23998	792.3	0.5
0.361	313.09	8000	825.3	0.5
0.361	313.09	9000	826.3	0.5
0.361	313.09	10001	827.3	0.5
0.361	313.09	11000	828.3	0.5
0.361	313.09	12000	829.2	0.5
0.361	313.09	13000	830.2	0.5
0.361	313.09	14001	831	0.5
0.361	313.09	15000	832	0.5
0.361	313.09	16000	832.9	0.5
0.361	313.09	17001	833.8	0.5
0.361	313.09	18000	834.6	0.5
0.361	313.09	19000	835.5	0.5
0.361	313.09	20000	836.3	0.5
0.361	313.09	21000	837.2	0.5
0.361	313.09	22000	838.1	0.5
0.361	313.09	23004	838.9	0.5
0.361	313.09	24000	839.7	0.5
0.361	323.02	8000	816.1	0.5
0.361	323.02	9000	817	0.5
0.361	323.02	10001	818.1	0.5
0.361	323.02	11000	819.1	0.5
0.361	323.02	12000	820.1	0.5
0.361	323.02	13000	821.1	0.5
0.361	323.02	14001	822.1	0.5
0.361	323.02	15000	823.1	0.5
0.361	323.02	16000	824	0.5
0.361	323.02	17001	824.9	0.5
0.361	323.02	18000	825.9	0.5
0.361	323.02	19000	826.8	0.5
0.361	323.02	20000	827.7	0.5
0.361	323.02	21000	828.6	0.5
0.361	323.02	22000	829.5	0.5
0.361	323.02	23004	830.4	0.5
0.361	323.02	24000	831.3	0.5
0.361	332.95	8000	806.7	0.5
0.361	332.95	9000	807.6	0.5
0.361	332.95	10001	808.8	0.5
0.361	332.95	11000	809.9	0.5
0.361	332.95	12000	811	0.5
0.361	332.95	13000	812.1	0.5
0.361	332.95	14001	813.1	0.5
0.361	332.95	15000	814.1	0.5
0.361	332.95	16000	815.1	0.5
0.361	332.95	17001	816.1	0.5
0.361	332.95	18000	817.1	0.5
0.361	332.95	19000	818.1	0.5
0.361	332.95	20000	819.1	0.5
0.361	332.95	21000	820	0.5
0.361	332.95	22000	820.9	0.5
0.361	332.95	23004	821.9	0.5
0.361	332.95	24000	822.8	0.5
0.361	342.8	8000	797.5	0.5
0.361	342.8	9000	798.3	0.5
0.361	342.8	10001	799.5	0.5
0.361	342.8	11000	800.6	0.5
0.361	342.8	12000	801.8	0.5
0.361	342.8	13000	802.9	0.5
0.361	342.8	14001	804	0.5
0.361	342.8	15000	805	0.5
0.361	342.8	16000	806.1	0.5
0.361	342.8	17001	807.1	0.5
0.361	342.8	18000	808.1	0.5
0.361	342.8	19000	809.1	0.5
0.361	342.8	20000	810.2	0.5
0.361	342.8	21000	811.1	0.5
0.361	342.8	22000	812.1	0.5
0.361	342.8	23004	813.1	0.5
0.361	342.8	24000	814	0.5
0.361	352.72	8000	787.3	0.5
0.361	352.72	9000	788.6	0.5
0.361	352.72	10001	789.9	0.5
0.361	352.72	11000	791.1	0.5
0.361	352.72	12000	792.3	0.5
0.361	352.72	13000	793.5	0.5
0.361	352.72	14001	794.7	0.5
0.361	352.72	15000	795.9	0.5
0.361	352.72	16000	797	0.5
0.361	352.72	17001	798.2	0.5
0.361	352.72	18000	799.3	0.5
0.361	352.72	19000	800.4	0.5
0.361	352.72	20000	801.5	0.5
0.361	352.72	21000	802.5	0.5
0.361	352.72	22000	803.6	0.5
0.361	352.72	23004	804.7	0.5
0.361	352.72	24000	805.7	0.5
0.361	362.56	8000	776.7	0.5
0.361	362.56	9000	777.5	0.5
0.361	362.56	10001	778.9	0.5
0.361	362.56	11000	780.4	0.5
0.361	362.56	12000	781.7	0.5
0.361	362.56	13000	783	0.5
0.361	362.56	14001	784.3	0.5
0.361	362.56	15000	785.6	0.5
0.361	362.56	16000	786.7	0.5
0.361	362.56	17001	788	0.5
0.361	362.56	18000	789.2	0.5
0.361	362.56	19000	790.3	0.5
0.361	362.56	20000	791.5	0.5
0.361	362.56	21000	792.7	0.5
0.361	362.56	22000	793.8	0.5
0.361	362.56	23004	794.9	0.5
0.361	362.56	24000	796	0.5
0.6673	313.12	10006	832.2	0.5
0.6673	313.12	11070	839.5	0.5
0.6673	313.12	11984	844	0.5
0.6673	313.12	12978	847.7	0.5
0.6673	313.12	14001	851	0.5
0.6673	313.12	15000	854	0.5
0.6673	313.12	16000	856.8	0.5
0.6673	313.12	17001	859.5	0.5
0.6673	313.12	18000	862.1	0.5
0.6673	313.12	19000	864.4	0.5
0.6673	313.12	20000	866.8	0.5
0.6673	313.12	21000	869	0.5
0.6673	313.12	22000	871.2	0.5
0.6673	313.12	23004	873.2	0.5
0.6673	313.12	24000	875.2	0.5
0.6673	323.04	11958	805.1	0.6
0.6673	323.04	13000	820.5	0.5
0.6673	323.04	14003	827.7	0.5
0.6673	323.04	14985	832.2	0.5
0.6673	323.04	15989	836.1	0.5
0.6673	323.04	16987	839.5	0.5
0.6673	323.04	17900	842.4	0.5
0.6673	323.04	19002	845.6	0.5
0.6673	323.04	20011	848.3	0.5
0.6673	323.04	21004	850.9	0.5
0.6673	323.04	22004	853.4	0.5
0.6673	323.04	22970	855.7	0.5
0.6673	323.04	24005	857.8	0.5
0.6673	332.91	13994	792.4	0.5
0.6673	332.91	15014	802.9	0.5
0.6673	332.91	16021	811.3	0.5
0.6673	332.91	16986	816.5	0.5
0.6673	332.91	17972	820.9	0.5
0.6673	332.91	18945	824.7	0.5
0.6673	332.91	19945	828.5	0.5
0.6673	332.91	20986	832	0.5
0.6673	332.91	21983	835.1	0.5
0.6673	332.91	22933	838	0.5
0.6673	332.91	24057	841	0.5
0.6673	342.84	16026	783	0.5
0.6673	342.84	17179	792.3	0.5
0.6673	342.84	18132	798.6	0.5
0.6673	342.84	19020	803.4	0.5
0.6673	342.84	20034	808.1	0.5
0.6673	342.84	20962	811.8	0.5
0.6673	342.84	21983	815.6	0.5
0.6673	342.84	22865	818.7	0.5
0.6673	342.84	23906	822.1	0.5
0.6673	352.76	17936	777.4	0.5
0.6673	352.76	19013	785.2	0.5
0.6673	352.76	20014	790.9	0.5
0.6673	352.76	20987	795.3	0.5
0.6673	352.76	22012	799.8	0.5
0.6673	352.76	22999	803.6	0.5
0.6673	352.76	23951	806.9	0.5
0.6673	362.63	18009	753.1	0.6
0.6673	362.63	18957	764.4	0.5
0.6673	362.63	20037	772.1	0.5
0.6673	362.63	21016	777.3	0.5
0.6673	362.63	22000	781.8	0.5
