Measured thermophysical data. Solubility of Anthracene in Binary Diisopropyl Ether + Alkane Solvent Mixtures at 298.15 K
Source: J. Chem. Eng. Data, 2007, 10.1021/je060380p
Compound 1: anthracene, C14H10, InChI=1S/C14H10/c1-2-6-12-10-14-8-4-3-7-13(14)9-11(12)5-1/h1-10H
Compound 2: hexane, C6H14, InChI=1S/C6H14/c1-3-5-6-4-2/h3-6H2,1-2H3
Compound 3: heptane, C7H16, InChI=1S/C7H16/c1-3-5-7-6-4-2/h3-7H2,1-2H3
Compound 4: octane, C8H18, InChI=1S/C8H18/c1-3-5-7-8-6-4-2/h3-8H2,1-2H3
Compound 5: cyclohexane, C6H12, InChI=1S/C6H12/c1-2-4-6-5-3-1/h1-6H2
Compound 6: methylcyclohexane, C7H14, InChI=1S/C7H14/c1-7-5-3-2-4-6-7/h7H,2-6H2,1H3
Compound 7: 2,2,4-trimethylpentane, C8H18, InChI=1S/C8H18/c1-7(2)6-8(3,4)5/h7H,6H2,1-5H3
Compound 8: diisopropyl ether, C6H14O, InChI=1S/C6H14O/c1-5(2)7-6(3)4/h5-6H,1-4H3

System: anthracene; phases: Crystal, Liquid, Air at 1 atmosphere
Property: Normal melting temperature, K (Crystal); method: VISOBS
Normal melting temperature, K	uncertainty
489	1

System: diisopropyl ether + hexane + anthracene; phases: Liquid, Crystal
Fixed: Temperature, K = 298.15
Fixed: Pressure, kPa = 101
Property: Mole fraction of anthracene (Liquid); method: spectrophotometric analysis
Solvent: Mole fraction of diisopropyl ether	Mole fraction of anthracene	uncertainty
0	0.001274	4.1e-05
0.1098	0.001463	4.7e-05
0.2022	0.00157	5.1e-05
0.3817	0.001756	5.7e-05
0.4835	0.001877	6.1e-05
0.5841	0.00198	6.4e-05
0.7732	0.002238	7.2e-05
0.8892	0.002419	7.8e-05
1	0.002515	8.1e-05

System: diisopropyl ether + anthracene + heptane; phases: Liquid, Crystal
Fixed: Temperature, K = 298.15
Fixed: Pressure, kPa = 101
Property: Mole fraction of anthracene (Liquid); method: spectrophometric analysis
Solvent: Mole fraction of diisopropyl ether	Mole fraction of anthracene	uncertainty
0	0.001576	5.1e-05
0.1357	0.001711	5.5e-05
0.2247	0.001799	5.8e-05
0.4129	0.001981	6.4e-05
0.5041	0.002074	6.7e-05
0.6102	0.00218	7e-05
0.797	0.002337	7.5e-05
0.893	0.00243	7.8e-05

System: diisopropyl ether + octane + anthracene; phases: Liquid, Crystal
Fixed: Temperature, K = 298.15
Fixed: Pressure, kPa = 101
Property: Mole fraction of anthracene (Liquid); method: spectrophometric analysis
Solvent: Mole fraction of diisopropyl ether	Mole fraction of anthracene	uncertainty
0	0.001838	5.9e-05
0.1401	0.001991	6.4e-05
0.2374	0.002064	6.6e-05
0.4258	0.002202	7.1e-05
0.5378	0.002311	7.4e-05
0.6317	0.002383	7.7e-05
0.8188	0.002504	8.1e-05
0.884	0.002533	8.2e-05

System: diisopropyl ether + cyclohexane + anthracene; phases: Liquid, Crystal
Fixed: Temperature, K = 298.15
Fixed: Pressure, kPa = 101
Property: Mole fraction of anthracene (Liquid); method: spectrophometric analysis
Solvent: Mole fraction of diisopropyl ether	Mole fraction of anthracene	uncertainty
0	0.001553	5e-05
0.1004	0.001768	5.7e-05
0.1502	0.001867	6e-05
0.3444	0.002145	6.9e-05
0.4344	0.002202	7.1e-05
0.4356	0.002213	7.1e-05
0.5831	0.002313	7.5e-05
0.7577	0.002435	7.8e-05
0.8688	0.00248	8e-05

System: diisopropyl ether + methylcyclohexane + anthracene; phases: Liquid, Crystal
Fixed: Temperature, K = 298.15
Fixed: Pressure, kPa = 101
Property: Mole fraction of anthracene (Liquid); method: spectrophometric analysis
Solvent: Mole fraction of diisopropyl ether	Mole fraction of anthracene	uncertainty
0	0.001649	5.3e-05
0.099	0.00186	6e-05
0.1945	0.00202	6.5e-05
0.2898	0.002121	6.8e-05
0.3721	0.002182	7e-05
0.4754	0.002296	7.4e-05
0.7635	0.002496	8e-05
0.8924	0.00252	8.1e-05

System: diisopropyl ether + anthracene + 2,2,4-trimethylpentane; phases: Liquid, Crystal
Fixed: Temperature, K = 298.15
Fixed: Pressure, kPa = 101
Property: Mole fraction of anthracene (Liquid); method: spectrophometric analysis
Solvent: Mole fraction of diisopropyl ether	Mole fraction of anthracene	uncertainty
0	0.001074	3.5e-05
0.1349	0.001229	4e-05
0.2408	0.001356	4.4e-05
0.453	0.001627	5.2e-05
0.541	0.001752	5.6e-05
0.6343	0.001897	6.1e-05
0.8184	0.002219	7.1e-05
0.9086	0.00238	7.7e-05
