Measured thermophysical data. Densities, Viscosities, and Excess Molar Volumes of Ternary Liquid Mixtures of Bromobenzene + 1,4-Dioxane + (Benzene or + Toluene or + Carbon Tetrachloride) and Some Associated Binary Liquid Mixtures
Source: J. Chem. Eng. Data, 2006, 10.1021/je0600303
Compound 1: bromobenzene, C6H5Br, InChI=1S/C6H5Br/c7-6-4-2-1-3-5-6/h1-5H, purity 99.2%
Compound 2: 1,4-dioxane, C4H8O2, InChI=1S/C4H8O2/c1-2-6-4-3-5-1/h1-4H2, purity 99.4%
Compound 3: benzene, C6H6, InChI=1S/C6H6/c1-2-4-6-5-3-1/h1-6H, purity 99.3%
Compound 4: toluene, C7H8, InChI=1S/C7H8/c1-7-5-3-2-4-6-7/h2-6H,1H3, purity 99.5%
Compound 5: tetrachloromethane, CCl4, InChI=1S/CCl4/c2-1(3,4)5, purity 99.3%

System: bromobenzene; phases: Liquid
Property: Viscosity, Pa*s (Liquid); method: CAPTUB:UFactor:2
Temperature, K	Pressure, kPa	Viscosity, Pa*s	uncertainty
303.15	101.325	0.0009915	1.65e-05

System: bromobenzene; phases: Liquid
Property: Mass density, kg/m3 (Liquid); method: VIBTUB:UFactor:8
Temperature, K	Pressure, kPa	Mass density, kg/m3	uncertainty
303.15	101.325	1481.4	2.4

System: 1,4-dioxane; phases: Liquid
Property: Viscosity, Pa*s (Liquid); method: CAPTUB:UFactor:2
Temperature, K	Pressure, kPa	Viscosity, Pa*s	uncertainty
303.15	101.325	0.00105	1.72e-05

System: 1,4-dioxane; phases: Liquid
Property: Mass density, kg/m3 (Liquid); method: VIBTUB:UFactor:8
Temperature, K	Pressure, kPa	Mass density, kg/m3	uncertainty
303.15	101.325	1019.5	0.5

System: benzene; phases: Liquid
Property: Viscosity, Pa*s (Liquid); method: CAPTUB:UFactor:2
Temperature, K	Pressure, kPa	Viscosity, Pa*s	uncertainty
303.15	101.325	0.000564	1.01e-05

System: benzene; phases: Liquid
Property: Mass density, kg/m3 (Liquid); method: VIBTUB:UFactor:8
Temperature, K	Pressure, kPa	Mass density, kg/m3	uncertainty
303.15	101.325	865	0.9

System: toluene; phases: Liquid
Property: Viscosity, Pa*s (Liquid); method: CAPTUB:UFactor:2
Temperature, K	Pressure, kPa	Viscosity, Pa*s	uncertainty
303.15	101.325	0.0005229	9.5e-06

System: toluene; phases: Liquid
Property: Mass density, kg/m3 (Liquid); method: VIBTUB:UFactor:8
Temperature, K	Pressure, kPa	Mass density, kg/m3	uncertainty
303.15	101.325	858.2	0.9

System: tetrachloromethane; phases: Liquid
Property: Viscosity, Pa*s (Liquid); method: CAPTUB:UFactor:2
Temperature, K	Pressure, kPa	Viscosity, Pa*s	uncertainty
303.15	101.325	0.00083	1.4e-05

System: tetrachloromethane; phases: Liquid
Property: Mass density, kg/m3 (Liquid); method: VIBTUB:UFactor:8
Temperature, K	Pressure, kPa	Mass density, kg/m3	uncertainty
303.15	101.325	1577.5	2.8

System: bromobenzene + 1,4-dioxane; phases: Liquid
Fixed: Temperature, K = 303.15
Fixed: Pressure, kPa = 101
Property: Viscosity, Pa*s (Liquid); method: CAPTUB:UFactor:2
Mole fraction of bromobenzene	Viscosity, Pa*s	uncertainty
0	0.00105	1.7e-05
0.083	0.001075	1.8e-05
0.17	0.001078	1.8e-05
0.259	0.001122	1.8e-05
0.352	0.001131	1.8e-05
0.449	0.001125	1.8e-05
0.55	0.001115	1.8e-05
0.655	0.001108	1.8e-05
0.766	0.001079	1.8e-05
0.88	0.001034	1.7e-05
1	0.000992	1.7e-05

System: bromobenzene + 1,4-dioxane; phases: Liquid
Fixed: Temperature, K = 303.15
Fixed: Pressure, kPa = 101
Property: Mass density, kg/m3 (Liquid); method: VIBTUB:UFactor:64
Mole fraction of bromobenzene	Mass density, kg/m3	uncertainty
0	1020	3
0.083	1051	4
0.17	1081	5
0.259	1117	6
0.352	1150	7
0.449	1193	9
0.55	1243	10
0.655	1292	12
0.766	1348	14
0.88	1411	16
1	1481	18

System: benzene + 1,4-dioxane; phases: Liquid
Fixed: Temperature, K = 303.15
Fixed: Pressure, kPa = 101
Property: Viscosity, Pa*s (Liquid); method: CAPTUB:UFactor:2
Mole fraction of 1,4-dioxane	Viscosity, Pa*s	uncertainty
0	0.000564	1e-05
0.104	0.000599	1.1e-05
0.207	0.000644	1.1e-05
0.309	0.000686	1.2e-05
0.411	0.000733	1.3e-05
0.511	0.000779	1.3e-05
0.61	0.000828	1.4e-05
0.709	0.000882	1.5e-05
0.807	0.000937	1.6e-05
0.904	0.000991	1.6e-05
1	0.00105	1.7e-05

System: benzene + 1,4-dioxane; phases: Liquid
Fixed: Temperature, K = 303.15
Fixed: Pressure, kPa = 101
Property: Mass density, kg/m3 (Liquid); method: VIBTUB:UFactor:64
Mole fraction of 1,4-dioxane	Mass density, kg/m3	uncertainty
0	865	7
0.104	870	7
0.207	877	7
0.309	882	6
0.411	895	6
0.511	908	6
0.61	925	5
0.709	945	4
0.807	968	4
0.904	991	3
1	1020	3

System: benzene + bromobenzene; phases: Liquid
Fixed: Temperature, K = 303.15
Fixed: Pressure, kPa = 101
Property: Viscosity, Pa*s (Liquid); method: CAPTUB:UFactor:2
Mole fraction of bromobenzene	Viscosity, Pa*s	uncertainty
0	0.000564	1e-05
0.086	0.00061	1.1e-05
0.176	0.000653	1.1e-05
0.268	0.0007	1.2e-05
0.362	0.000742	1.3e-05
0.46	0.000785	1.3e-05
0.561	0.000827	1.4e-05
0.665	0.000867	1.5e-05
0.774	0.000909	1.5e-05
0.884	0.000951	1.6e-05
1	0.000992	1.7e-05

System: benzene + bromobenzene; phases: Liquid
Fixed: Temperature, K = 303.15
Fixed: Pressure, kPa = 101
Property: Mass density, kg/m3 (Liquid); method: VIBTUB:UFactor:64
Mole fraction of bromobenzene	Mass density, kg/m3	uncertainty
0	865	7
0.086	923	5
0.176	982	3
0.268	1040	4
0.362	1101	6
0.46	1162	8
0.561	1223	10
0.665	1286	12
0.774	1349	14
0.884	1415	16
1	1481	18

System: toluene + 1,4-dioxane; phases: Liquid
Fixed: Temperature, K = 303.15
Fixed: Pressure, kPa = 101
Property: Viscosity, Pa*s (Liquid); method: CAPTUB:UFactor:2
Mole fraction of 1,4-dioxane	Viscosity, Pa*s	uncertainty
0	0.000523	9e-06
0.122	0.000573	1e-05
0.237	0.000622	1.1e-05
0.347	0.000675	1.2e-05
0.453	0.000729	1.2e-05
0.554	0.000779	1.3e-05
0.65	0.000831	1.4e-05
0.744	0.000882	1.5e-05
0.833	0.000939	1.6e-05
0.918	0.000995	1.6e-05
1	0.00105	1.7e-05

System: toluene + 1,4-dioxane; phases: Liquid
Fixed: Temperature, K = 303.15
Fixed: Pressure, kPa = 101
Property: Mass density, kg/m3 (Liquid); method: VIBTUB:UFactor:32
Mole fraction of 1,4-dioxane	Mass density, kg/m3	uncertainty
0	858	4
0.122	861	4
0.237	868	3
0.347	877	3
0.453	888	3
0.554	902	3
0.65	917	3
0.744	937	2
0.833	962	2
0.918	990	2
1	1020	2

System: bromobenzene + toluene; phases: Liquid
Fixed: Temperature, K = 303.15
Fixed: Pressure, kPa = 101
Property: Viscosity, Pa*s (Liquid); method: CAPTUB:UFactor:2
Mole fraction of bromobenzene	Viscosity, Pa*s	uncertainty
0	0.000523	9e-06
0.101	0.000581	1e-05
0.202	0.000635	1.1e-05
0.303	0.000689	1.2e-05
0.403	0.00074	1.3e-05
0.503	0.000788	1.3e-05
0.603	0.000831	1.4e-05
0.703	0.000877	1.5e-05
0.802	0.000918	1.5e-05
0.901	0.000957	1.6e-05
1	0.000992	1.7e-05

System: bromobenzene + toluene; phases: Liquid
Fixed: Temperature, K = 303.15
Fixed: Pressure, kPa = 101
Property: Mass density, kg/m3 (Liquid); method: VIBTUB:UFactor:32
Mole fraction of bromobenzene	Mass density, kg/m3	uncertainty
0	858	4
0.101	922	3
0.202	987	2
0.303	1051	2
0.403	1114	3
0.503	1176	4
0.603	1239	5
0.703	1301	6
0.802	1362	7
0.901	1422	8
1	1481	9

System: tetrachloromethane + 1,4-dioxane; phases: Liquid
Fixed: Temperature, K = 303.15
Fixed: Pressure, kPa = 101
Property: Viscosity, Pa*s (Liquid); method: CAPTUB:UFactor:2
Mole fraction of 1,4-dioxane	Viscosity, Pa*s	uncertainty
0	0.00083	1.4e-05
0.112	0.000922	1.5e-05
0.22	0.001016	1.7e-05
0.326	0.001097	1.8e-05
0.43	0.001137	1.9e-05
0.53	0.001163	1.9e-05
0.629	0.001164	1.9e-05
0.725	0.001161	1.9e-05
0.819	0.001132	1.8e-05
0.91	0.001092	1.8e-05
1	0.00105	1.7e-05

System: tetrachloromethane + 1,4-dioxane; phases: Liquid
Fixed: Temperature, K = 303.15
Fixed: Pressure, kPa = 101
Property: Mass density, kg/m3 (Liquid); method: VIBTUB:UFactor:32
Mole fraction of 1,4-dioxane	Mass density, kg/m3	uncertainty
0	1578	11
0.112	1527	10
0.22	1475	9
0.326	1421	8
0.43	1368	7
0.53	1312	6
0.629	1255	5
0.725	1196	5
0.819	1137	4
0.91	1079	3
1	1020	2

System: tetrachloromethane + bromobenzene; phases: Liquid
Fixed: Temperature, K = 303.15
Fixed: Pressure, kPa = 101
Property: Viscosity, Pa*s (Liquid); method: CAPTUB:UFactor:2
Mole fraction of bromobenzene	Viscosity, Pa*s	uncertainty
0	0.00083	1.4e-05
0.092	0.000727	1.3e-05
0.187	0.000653	1.1e-05
0.283	0.000624	1.1e-05
0.38	0.000595	1.1e-05
0.479	0.000619	1.1e-05
0.58	0.000656	1.2e-05
0.682	0.0007	1.2e-05
0.787	0.000778	1.3e-05
0.892	0.000881	1.5e-05
1	0.000992	1.7e-05

System: tetrachloromethane + bromobenzene; phases: Liquid
Fixed: Temperature, K = 303.15
Fixed: Pressure, kPa = 101
Property: Mass density, kg/m3 (Liquid); method: VIBTUB:UFactor:32
Mole fraction of bromobenzene	Mass density, kg/m3	uncertainty
0	1578	11
0.092	1570	11
0.187	1562	10
0.283	1553	10
0.38	1544	10
0.479	1535	10
0.58	1524	10
0.682	1514	10
0.787	1503	9
0.892	1492	9
1	1481	9

System: benzene + bromobenzene + 1,4-dioxane; phases: Liquid
Fixed: Pressure, kPa = 101
Fixed: Temperature, K = 303.15
Property: Viscosity, Pa*s (Liquid); method: CAPTUB:UFactor:2
Mole fraction of bromobenzene	Mole fraction of 1,4-dioxane	Viscosity, Pa*s	uncertainty
0.041	0.911	0.000606	1.1e-05
0.043	0.053	0.000583	1.1e-05
0.083	0.819	0.000678	1.2e-05
0.085	0.417	0.000659	4.5e-05
0.086	0.106	0.000614	1.1e-05
0.086	0.21	0.00063	1.1e-05
0.17	0.73	0.000731	1.3e-05
0.171	0.629	0.000734	1.3e-05
0.174	0.213	0.000708	1.7e-05
0.261	0.535	0.000772	1.3e-05
0.264	0.323	0.000795	1.6e-05
0.355	0.436	0.00083	1.4e-05
0.357	0.329	0.000848	1.4e-05
0.458	0.113	0.000882	3.6e-05
0.553	0.339	0.000946	1.6e-05
0.556	0.227	0.000924	2.3e-05
0.659	0.231	0.000977	1.8e-05
0.769	0.118	0.00101	2.4e-05
0.826	0.06	0.000994	1.7e-05
0.883	0.06	0.001006	1.9e-05

System: benzene + bromobenzene + 1,4-dioxane; phases: Liquid
Fixed: Pressure, kPa = 101
Fixed: Temperature, K = 303.15
Property: Mass density, kg/m3 (Liquid); method: VIBTUB:UFactor:32
Mole fraction of bromobenzene	Mole fraction of 1,4-dioxane	Mass density, kg/m3	uncertainty
0.041	0.911	951	2
0.043	0.053	953	2
0.083	0.819	992	2
0.085	0.417	988	2
0.086	0.106	980	2
0.086	0.21	968	2
0.17	0.73	1056	2
0.171	0.629	1053	2
0.174	0.213	1042	2
0.261	0.535	1106	3
0.264	0.323	1097	3
0.355	0.436	1149	4
0.357	0.329	1140	4
0.458	0.113	1213	5
0.553	0.339	1260	6
0.556	0.227	1259	6
0.659	0.231	1305	6
0.769	0.118	1349	7
0.826	0.06	1386	8
0.883	0.06	1430	8

System: bromobenzene + toluene + 1,4-dioxane; phases: Liquid
Fixed: Pressure, kPa = 101
Fixed: Temperature, K = 303.15
Property: Viscosity, Pa*s (Liquid); method: CAPTUB:UFactor:2
Mole fraction of bromobenzene	Mole fraction of 1,4-dioxane	Viscosity, Pa*s	uncertainty
0.041	0.917	0.000575	1e-05
0.05	0.062	0.000545	1e-05
0.085	0.832	0.000591	1.1e-05
0.092	0.453	0.000594	1.1e-05
0.096	0.236	0.000593	1e-05
0.098	0.122	0.000567	1.4e-05
0.173	0.742	0.000609	1.2e-05
0.177	0.649	0.000613	1.2e-05
0.193	0.236	0.000629	1.2e-05
0.27	0.553	0.000662	1.2e-05
0.282	0.346	0.00067	1.2e-05
0.367	0.451	0.000689	1.2e-05
0.376	0.346	0.000693	1.2e-05
0.491	0.121	0.00076	1.3e-05
0.563	0.345	0.000795	1.4e-05
0.576	0.235	0.000806	1.4e-05
0.671	0.235	0.000869	1.5e-05
0.783	0.12	0.000939	1.6e-05
0.842	0.061	0.000977	1.6e-05
0.89	0.061	0.001022	1.7e-05

System: bromobenzene + toluene + 1,4-dioxane; phases: Liquid
Fixed: Pressure, kPa = 101
Fixed: Temperature, K = 303.15
Property: Mass density, kg/m3 (Liquid); method: VIBTUB:UFactor:32
Mole fraction of bromobenzene	Mole fraction of 1,4-dioxane	Mass density, kg/m3	uncertainty
0.041	0.917	1017	2
0.05	0.062	872	3
0.085	0.832	1028	2
0.092	0.453	913	3
0.096	0.236	929	3
0.098	0.122	917	3
0.173	0.742	1015	2
0.177	0.649	1015	2
0.193	0.236	1020	2
0.27	0.553	1084	3
0.282	0.346	1080	3
0.367	0.451	1143	4
0.376	0.346	1145	4
0.491	0.121	1208	5
0.563	0.345	1243	5
0.576	0.235	1245	5
0.671	0.235	1298	6
0.783	0.12	1335	7
0.842	0.061	1366	7
0.89	0.061	1390	8

System: tetrachloromethane + bromobenzene + 1,4-dioxane; phases: Liquid
Fixed: Pressure, kPa = 101
Fixed: Temperature, K = 303.15
Property: Viscosity, Pa*s (Liquid); method: CAPTUB:UFactor:2
Mole fraction of bromobenzene	Mole fraction of 1,4-dioxane	Viscosity, Pa*s	uncertainty
0.041	0.914	0.000863	1.4e-05
0.046	0.056	0.000874	1.5e-05
0.084	0.825	0.000891	1.5e-05
0.088	0.433	0.000888	1.5e-05
0.09	0.222	0.000891	1.5e-05
0.091	0.113	0.000868	1.5e-05
0.172	0.735	0.000892	1.5e-05
0.174	0.638	0.000892	1.5e-05
0.183	0.223	0.000897	1.5e-05
0.265	0.543	0.000888	1.5e-05
0.272	0.334	0.000888	1.5e-05
0.361	0.443	0.000895	1.5e-05
0.365	0.336	0.000904	1.5e-05
0.473	0.116	0.000905	1.5e-05
0.557	0.342	0.00092	1.5e-05
0.565	0.231	0.000922	1.5e-05
0.664	0.232	0.000967	1.6e-05
0.775	0.119	0.001025	1.7e-05
0.833	0.06	0.001056	1.7e-05
0.886	0.061	0.001143	1.9e-05

System: tetrachloromethane + bromobenzene + 1,4-dioxane; phases: Liquid
Fixed: Pressure, kPa = 101
Fixed: Temperature, K = 303.15
Property: Mass density, kg/m3 (Liquid); method: VIBTUB:UFactor:32
Mole fraction of bromobenzene	Mole fraction of 1,4-dioxane	Mass density, kg/m3	uncertainty
0.041	0.914	1109	3
0.046	0.056	1130	3
0.084	0.825	1143	4
0.088	0.433	1164	4
0.09	0.222	1169	4
0.091	0.113	1190	4
0.172	0.735	1195	5
0.174	0.638	1202	5
0.183	0.223	1240	5
0.265	0.543	1268	6
0.272	0.334	1286	6
0.361	0.443	1318	7
0.365	0.336	1334	7
0.473	0.116	1378	8
0.557	0.342	1385	8
0.565	0.231	1374	7
0.664	0.232	1396	8
0.775	0.119	1407	8
0.833	0.06	1436	9
0.886	0.061	1428	8
