Measured thermophysical data. Solubility and Phase Diagram for the Ternary Sodium Oxalate + Hydrogen Peroxide + Water System at (283.15 and 293.15) K
Source: J. Chem. Eng. Data, 2007, 10.1021/je060461l
Compound 1: sodium oxalate, C2Na2O4, InChI=1S/C2H2O4.2Na/c3-1(4)2(5)6;;/h(H,3,4)(H,5,6);;/q;2*+1/p-2, purity 99.6%
Compound 2: hydrogen peroxide, H2O2, InChI=1S/H2O2/c1-2/h1-2H
Compound 3: water, H2O, InChI=1S/H2O/h1H2

System: sodium oxalate + hydrogen peroxide + water; phases: Liquid, Crystal of intercomponent compound 1
Fixed: Pressure, kPa = 101
Property: Mass density, kg/m3 (Liquid); method: PYCNOM:UFactor:32
Temperature, K	Mass fraction of hydrogen peroxide	Mass density, kg/m3	uncertainty
283.15	0.4249	1213.9	14
283.15	0.4444	1222.1	14.1
283.15	0.4486	1226.9	14.2
283.15	0.5047	1237.3	14.3
283.15	0.5922	1247.8	14.5
293.15	0.4497	1241.8	13.7
293.15	0.5073	1253.4	13.9
293.15	0.5764	1261.4	14
293.15	0.6586	1265.1	14.1

System: sodium oxalate + hydrogen peroxide + water; phases: Liquid, Crystal
Fixed: Pressure, kPa = 101
Property: Mass density, kg/m3 (Liquid); method: PYCNOM:UFactor:32
Temperature, K	Mass fraction of hydrogen peroxide	Mass density, kg/m3	uncertainty
283.15	0	1043.4	11.3
283.15	0.0623	1055.9	11.5
283.15	0.1083	1069.7	11.7
283.15	0.1298	1082.4	11.9
283.15	0.2332	1093	12.1
283.15	0.2943	1118.5	12.5
283.15	0.3378	1139.8	12.8
283.15	0.3684	1184.9	13.5
293.15	0	1023.9	10.3
293.15	0.0441	1037.1	10.5
293.15	0.0988	1065.6	10.9
293.15	0.1322	1082.7	11.2
293.15	0.1782	1097.8	11.4
293.15	0.2208	1119.8	11.8
293.15	0.2539	1138.3	12.1
293.15	0.3127	1169.9	12.6
293.15	0.3843	1201.7	13.1
293.15	0.4119	1217.9	13.3
293.15	0.4224	1225.1	13.4

System: sodium oxalate + hydrogen peroxide + water; phases: Liquid, Crystal of intercomponent compound 1
Fixed: Pressure, kPa = 101
Property: Mass fraction of sodium oxalate (Liquid); method: Titration method
Temperature, K	Mass fraction of hydrogen peroxide	Mass fraction of sodium oxalate	uncertainty
283.15	0.4249	0.0273	0.002
283.15	0.4444	0.0234	0.002
283.15	0.4486	0.0211	0.002
283.15	0.5047	0.0193	0.002
283.15	0.5922	0.0128	0.002
293.15	0.4497	0.0201	0.002
293.15	0.5073	0.0178	0.002
293.15	0.5764	0.0152	0.002
293.15	0.6586	0.0148	0.002

System: sodium oxalate + hydrogen peroxide + water; phases: Liquid, Crystal
Fixed: Pressure, kPa = 101
Property: Mass fraction of sodium oxalate (Liquid); method: Titration method
Temperature, K	Mass fraction of hydrogen peroxide	Mass fraction of sodium oxalate	uncertainty
283.15	0	0.0295	0.002
283.15	0.0623	0.0322	0.002
283.15	0.1083	0.0337	0.002
283.15	0.1298	0.0362	0.002
283.15	0.2332	0.0354	0.002
283.15	0.2943	0.0389	0.002
283.15	0.3378	0.0396	0.002
283.15	0.3684	0.0396	0.002
293.15	0	0.034	0.002
293.15	0.0441	0.0348	0.002
293.15	0.0988	0.036	0.002
293.15	0.1322	0.034	0.002
293.15	0.1782	0.0375	0.002
293.15	0.2208	0.0349	0.002
293.15	0.2539	0.0383	0.002
293.15	0.3127	0.0351	0.002
293.15	0.3843	0.0289	0.002
293.15	0.4119	0.0283	0.002
293.15	0.4224	0.0276	0.002

System: sodium oxalate + water; phases: Liquid, Crystal
Fixed: Pressure, kPa = 101
Property: Mass density, kg/m3 (Liquid); method: PYCNOM:UFactor:32
Temperature, K	Mass density, kg/m3	uncertainty
283.15	1043.4	11.3
293.15	1023.9	10.3

System: sodium oxalate + water; phases: Liquid, Crystal
Fixed: Pressure, kPa = 101
Property: Mass fraction of sodium oxalate (Liquid); method: Titration method
Temperature, K	Mass fraction of sodium oxalate	uncertainty
283.15	0.0295	0.002
293.15	0.034	0.002
