Measured thermophysical data. Electrical Conductances of Tetrabutylammonium Bromide, Sodium Tetraphenylborate, and Sodium Bromide in Methanol (1) + Water (2) Mixtures at (298.15, 308.15, and 318.15) K
Source: J. Chem. Eng. Data, 2006, 10.1021/je0600810
Compound 1: methanol, CH4O, InChI=1S/CH4O/c1-2/h2H,1H3
Compound 2: water, H2O, InChI=1S/H2O/h1H2
Compound 3: tetramethylammonium bromide, C4H12BrN, InChI=1S/C4H12N.BrH/c1-5(2,3)4;/h1-4H3;1H/q+1;/p-1
Compound 4: sodium tetraphenylboron, C24H20BNa, InChI=1S/C24H20B.Na/c1-5-13-21(14-6-1)25(22-15-7-2-8-16-22,23-17-9-3-10-18-23)24-19-11-4-12-20-24;/h1-20H;/q-1;+1
Compound 5: sodium bromide, BrNa, InChI=1S/BrH.Na/h1H;/q;+1/p-1

System: methanol; phases: Liquid
Fixed: Pressure, kPa = 101.325
Property: Viscosity, Pa*s (Liquid); method: Capillary tube (Ostwald; Ubbelohde) method
Temperature, K	Viscosity, Pa*s	uncertainty
298.15	0.0005446	4.8e-06
308.15	0.0004747	4.3e-06
318.15	0.0004185	3.9e-06

System: methanol; phases: Liquid
Fixed: Pressure, kPa = 101.325
Property: Mass density, kg/m3 (Liquid); method: VIBTUB:UFactor:4
Temperature, K	Mass density, kg/m3	uncertainty
298.15	786.59	0.61
308.15	777.28	0.62
318.15	767.74	0.63

System: methanol + water; phases: Liquid
Fixed: Pressure, kPa = 101
Property: Viscosity, Pa*s (Liquid); method: CAPTUB:UFactor:2
Volume fraction of methanol	Temperature, K	Viscosity, Pa*s	uncertainty
0.01	298.15	0.0010844	1.76e-05
0.01	308.15	0.0008665	1.46e-05
0.01	318.15	0.000702	1.22e-05
0.2	298.15	0.0013106	2.12e-05
0.2	308.15	0.0010217	1.7e-05
0.2	318.15	0.0008075	1.39e-05
0.3	298.15	0.0014712	2.35e-05
0.3	308.15	0.0011418	1.89e-05
0.3	318.15	0.0008957	1.54e-05

System: methanol + water; phases: Liquid
Fixed: Pressure, kPa = 101
Property: Mass density, kg/m3 (Liquid); method: VIBTUB:UFactor:8
Volume fraction of methanol	Temperature, K	Mass density, kg/m3	uncertainty
0.01	298.15	982.97	0.34
0.01	308.15	979.73	0.35
0.01	318.15	976.04	0.36
0.2	298.15	969.63	0.39
0.2	308.15	966.32	0.4
0.2	318.15	961.62	0.41
0.3	298.15	956.2	0.44
0.3	308.15	951.6	0.45
0.3	318.15	946.26	0.46

System: tetramethylammonium bromide + methanol + water; phases: Liquid
Fixed: Pressure, kPa = 101
Property: Molar conductivity, S*m2/mol (Liquid); method: Alternating current cell with electrodes
Solvent: Volume fraction of methanol	Temperature, K	Amount concentration (molarity), mol/dm3 of tetramethylammonium bromide	Molar conductivity, S*m2/mol	uncertainty
0.1	298.15	0.00896	0.007488	1.8e-05
0.1	298.15	0.01024	0.00747	1.8e-05
0.1	298.15	0.01152	0.007432	1.8e-05
0.1	298.15	0.0128	0.007396	1.8e-05
0.1	298.15	0.01793	0.007269	1.7e-05
0.1	298.15	0.0256	0.007113	1.7e-05
0.1	298.15	0.03842	0.006907	1.7e-05
0.1	298.15	0.05121	0.006741	1.6e-05
0.1	308.15	0.00893	0.008761	2.1e-05
0.1	308.15	0.01021	0.008703	2.1e-05
0.1	308.15	0.01149	0.008654	2.1e-05
0.1	308.15	0.01276	0.008608	2.1e-05
0.1	308.15	0.01767	0.008447	2e-05
0.1	308.15	0.02552	0.00825	2e-05
0.1	308.15	0.0383	0.007988	1.9e-05
0.1	308.15	0.05105	0.007777	1.9e-05
0.1	318.15	0.0089	0.010544	2.5e-05
0.1	318.15	0.01017	0.010399	2.5e-05
0.1	318.15	0.01144	0.010337	2.5e-05
0.1	318.15	0.01271	0.010278	2.5e-05
0.1	318.15	0.0178	0.010072	2.4e-05
0.1	318.15	0.02542	0.009818	2.4e-05
0.1	318.15	0.03819	0.00948	2.3e-05
0.1	318.15	0.0508	0.009209	2.2e-05
0.2	298.15	0.00905	0.006042	1.5e-05
0.2	298.15	0.01127	0.005993	1.4e-05
0.2	298.15	0.01285	0.005956	1.4e-05
0.2	298.15	0.0158	0.005894	1.4e-05
0.2	298.15	0.02264	0.005773	1.4e-05
0.2	298.15	0.03389	0.005615	1.3e-05
0.2	298.15	0.04514	0.005487	1.3e-05
0.2	298.15	0.0564	0.005378	1.3e-05
0.2	308.15	0.00899	0.007362	1.8e-05
0.2	308.15	0.0112	0.007305	1.8e-05
0.2	308.15	0.0135	0.007244	1.7e-05
0.2	308.15	0.0157	0.007191	1.7e-05
0.2	308.15	0.02251	0.007051	1.7e-05
0.2	308.15	0.03372	0.006871	1.6e-05
0.2	308.15	0.04493	0.006726	1.6e-05
0.2	308.15	0.05616	0.006605	1.6e-05
0.2	318.15	0.00897	0.009229	2.2e-05
0.2	318.15	0.01118	0.009146	2.2e-05
0.2	318.15	0.01347	0.009069	2.2e-05
0.2	318.15	0.01566	0.009002	2.2e-05
0.2	318.15	0.02244	0.008826	2.1e-05
0.2	318.15	0.0336	0.008599	2.1e-05
0.2	318.15	0.04474	0.008418	2e-05
0.2	318.15	0.0559	0.008265	2e-05
0.3	298.15	0.01104	0.005263	1.3e-05
0.3	298.15	0.01547	0.005116	1.2e-05
0.3	298.15	0.01987	0.004992	1.2e-05
0.3	298.15	0.02208	0.004936	1.2e-05
0.3	298.15	0.0265	0.004833	1.2e-05
0.3	298.15	0.03313	0.004696	1.1e-05
0.3	298.15	0.05521	0.004341	1e-05
0.3	308.15	0.01099	0.006172	1.5e-05
0.3	308.15	0.0154	0.005989	1.4e-05
0.3	308.15	0.01978	0.005834	1.4e-05
0.3	308.15	0.02198	0.005763	1.4e-05
0.3	308.15	0.02638	0.005635	1.4e-05
0.3	308.15	0.03297	0.005465	1.3e-05
0.3	308.15	0.05495	0.005027	1.2e-05
0.3	318.15	0.01092	0.008069	1.9e-05
0.3	318.15	0.01531	0.007829	1.9e-05
0.3	318.15	0.01966	0.007624	1.8e-05
0.3	318.15	0.02185	0.00753	1.8e-05
0.3	318.15	0.02622	0.007359	1.8e-05
0.3	318.15	0.03278	0.007133	1.7e-05
0.3	318.15	0.05462	0.006553	1.6e-05

System: methanol + sodium tetraphenylboron + water; phases: Liquid
Fixed: Pressure, kPa = 101
Property: Molar conductivity, S*m2/mol (Liquid); method: Alternating current cell with electrodes
Solvent: Volume fraction of methanol	Temperature, K	Amount concentration (molarity), mol/dm3 of sodium tetraphenylboron	Molar conductivity, S*m2/mol	uncertainty
0.1	298.15	0.00798	0.006064	1.5e-05
0.1	298.15	0.00843	0.006046	1.5e-05
0.1	298.15	0.00887	0.00603	1.4e-05
0.1	298.15	0.00931	0.006014	1.4e-05
0.1	298.15	0.00976	0.005998	1.4e-05
0.1	298.15	0.0102	0.005983	1.4e-05
0.1	298.15	0.01064	0.005968	1.4e-05
0.1	298.15	0.01116	0.00595	1.4e-05
0.1	308.15	0.00796	0.006803	1.6e-05
0.1	308.15	0.0084	0.006785	1.6e-05
0.1	308.15	0.00884	0.006765	1.6e-05
0.1	308.15	0.00928	0.006747	1.6e-05
0.1	308.15	0.00972	0.006728	1.6e-05
0.1	308.15	0.01017	0.00671	1.6e-05
0.1	308.15	0.01061	0.006693	1.6e-05
0.1	308.15	0.01105	0.006676	1.6e-05
0.1	318.15	0.00792	0.008229	2e-05
0.1	318.15	0.00836	0.008203	2e-05
0.1	318.15	0.00881	0.008177	2e-05
0.1	318.15	0.00925	0.008153	2e-05
0.1	318.15	0.00969	0.008129	2e-05
0.1	318.15	0.01013	0.008106	1.9e-05
0.1	318.15	0.01057	0.008082	1.9e-05
0.1	318.15	0.01101	0.00806	1.9e-05
0.2	298.15	0.0072	0.004827	1.2e-05
0.2	298.15	0.0076	0.004814	1.2e-05
0.2	298.15	0.008	0.004802	1.2e-05
0.2	298.15	0.0084	0.00479	1.2e-05
0.2	298.15	0.00879	0.004778	1.1e-05
0.2	298.15	0.00919	0.004766	1.1e-05
0.2	298.15	0.00959	0.004754	1.1e-05
0.2	298.15	0.00999	0.004743	1.1e-05
0.2	308.15	0.00717	0.006128	1.5e-05
0.2	308.15	0.00756	0.006117	1.5e-05
0.2	308.15	0.00796	0.006106	1.5e-05
0.2	308.15	0.00836	0.006093	1.5e-05
0.2	308.15	0.00876	0.006078	1.5e-05
0.2	308.15	0.00916	0.006063	1.5e-05
0.2	308.15	0.00956	0.006046	1.5e-05
0.2	308.15	0.00999	0.006028	1.4e-05
0.2	318.15	0.00714	0.00771	1.9e-05
0.2	318.15	0.00753	0.007689	1.8e-05
0.2	318.15	0.00793	0.007667	1.8e-05
0.2	318.15	0.00832	0.007647	1.8e-05
0.2	318.15	0.00872	0.007627	1.8e-05
0.2	318.15	0.00911	0.007608	1.8e-05
0.2	318.15	0.00951	0.007589	1.8e-05
0.2	318.15	0.0099	0.007571	1.8e-05
0.3	298.15	0.00726	0.003986	1e-05
0.3	298.15	0.00745	0.003981	1e-05
0.3	298.15	0.00764	0.003975	1e-05
0.3	298.15	0.00802	0.003964	1e-05
0.3	298.15	0.00841	0.003953	1e-05
0.3	298.15	0.00916	0.003931	9e-06
0.3	298.15	0.00917	0.003931	9e-06
0.3	298.15	0.00956	0.00392	9e-06
0.3	308.15	0.00723	0.005678	1.4e-05
0.3	308.15	0.00742	0.00567	1.4e-05
0.3	308.15	0.00799	0.005648	1.4e-05
0.3	308.15	0.008373	0.00563	1.4e-05
0.3	308.15	0.00912	0.005601	1.3e-05
0.3	308.15	0.00913	0.005601	1.3e-05
0.3	308.15	0.00952	0.005586	1.3e-05
0.3	318.15	0.00719	0.007031	1.7e-05
0.3	318.15	0.00738	0.00702	1.7e-05
0.3	318.15	0.00757	0.00701	1.7e-05
0.3	318.15	0.00794	0.00699	1.7e-05
0.3	318.15	0.00833	0.006972	1.7e-05
0.3	318.15	0.00908	0.006935	1.7e-05
0.3	318.15	0.00946	0.006917	1.7e-05

System: methanol + sodium bromide + water; phases: Liquid
Fixed: Pressure, kPa = 101
Property: Molar conductivity, S*m2/mol (Liquid); method: Alternating current cell with electrodes
Solvent: Volume fraction of methanol	Temperature, K	Amount concentration (molarity), mol/dm3 of sodium bromide	Molar conductivity, S*m2/mol	uncertainty
0.1	298.15	0.00909	0.010742	2.6e-05
0.1	298.15	0.0101	0.01069	2.6e-05
0.1	298.15	0.02019	0.010425	2.5e-05
0.1	298.15	0.03031	0.010232	2.5e-05
0.1	298.15	0.04049	0.010075	2.4e-05
0.1	298.15	0.05051	0.009943	2.4e-05
0.1	298.15	0.06061	0.009826	2.4e-05
0.1	298.15	0.07577	0.009673	2.3e-05
0.1	308.15	0.00906	0.012594	3e-05
0.1	308.15	0.01007	0.012565	3e-05
0.1	308.15	0.02014	0.012236	2.9e-05
0.1	308.15	0.0302	0.011996	2.9e-05
0.1	308.15	0.04027	0.011802	2.8e-05
0.1	308.15	0.05034	0.011637	2.8e-05
0.1	308.15	0.06041	0.011491	2.8e-05
0.1	308.15	0.07551	0.011301	2.7e-05
0.1	318.15	0.00903	0.015238	3.7e-05
0.1	318.15	0.01003	0.015205	3.6e-05
0.1	318.15	0.02006	0.014798	3.6e-05
0.1	318.15	0.03009	0.014501	3.5e-05
0.1	318.15	0.04012	0.014261	3.4e-05
0.1	318.15	0.05015	0.014056	3.4e-05
0.1	318.15	0.06017	0.013877	3.3e-05
0.1	318.15	0.07521	0.013641	3.3e-05
0.2	298.15	0.0093	0.008768	2.1e-05
0.2	298.15	0.01033	0.008751	2.1e-05
0.2	298.15	0.02067	0.00853	2e-05
0.2	298.15	0.03101	0.00837	2e-05
0.2	298.15	0.04133	0.008241	2e-05
0.2	298.15	0.05172	0.00813	2e-05
0.2	298.15	0.06197	0.008035	1.9e-05
0.2	298.15	0.07231	0.007949	1.9e-05
0.2	308.15	0.00924	0.011	2.6e-05
0.2	308.15	0.01027	0.010971	2.6e-05
0.2	308.15	0.02054	0.010667	2.6e-05
0.2	308.15	0.03081	0.010443	2.5e-05
0.2	308.15	0.04108	0.010261	2.5e-05
0.2	308.15	0.05135	0.010105	2.4e-05
0.2	308.15	0.06163	0.009955	2.4e-05
0.2	308.15	0.07189	0.009858	2.4e-05
0.2	318.15	0.00923	0.014136	3.4e-05
0.2	318.15	0.01025	0.014037	3.4e-05
0.2	318.15	0.0205	0.013542	3.3e-05
0.2	318.15	0.03075	0.013168	3.2e-05
0.2	318.15	0.04102	0.012859	3.1e-05
0.2	318.15	0.0513	0.012592	3e-05
0.2	318.15	0.0615	0.012337	3e-05
0.2	318.15	0.0717	0.012147	2.9e-05
0.3	298.15	0.01008	0.007788	1.9e-05
0.3	298.15	0.01513	0.007698	1.8e-05
0.3	298.15	0.02017	0.007615	1.8e-05
0.3	298.15	0.03026	0.007482	1.8e-05
0.3	298.15	0.04036	0.007375	1.8e-05
0.3	298.15	0.05045	0.007286	1.7e-05
0.3	298.15	0.06057	0.007208	1.7e-05
0.3	298.15	0.0694	0.007147	1.7e-05
0.3	308.15	0.01003	0.00988	2.4e-05
0.3	308.15	0.01505	0.009759	2.3e-05
0.3	308.15	0.02006	0.009644	2.3e-05
0.3	308.15	0.0301	0.009459	2.3e-05
0.3	308.15	0.04013	0.009311	2.2e-05
0.3	308.15	0.05016	0.009184	2.2e-05
0.3	308.15	0.0602	0.009074	2.2e-05
0.3	308.15	0.06897	0.008987	2.2e-05
0.3	318.15	0.00998	0.012909	3.1e-05
0.3	318.15	0.01498	0.012629	3e-05
0.3	318.15	0.01997	0.012392	3e-05
0.3	318.15	0.02999	0.011998	2.9e-05
0.3	318.15	0.04001	0.011672	2.8e-05
0.3	318.15	0.05003	0.011392	2.7e-05
0.3	318.15	0.06009	0.011144	2.7e-05
0.3	318.15	0.06889	0.010948	2.6e-05
