Measured thermophysical data. Measurement and Correlation of Partition Coefficients for Phenolic Compounds in the 1-Butyl-3-methylimidazolium Hexafluorophosphate/Water Two-Phase System
Source: J. Chem. Eng. Data, 2007, 10.1021/je060268r
Compound 1: 1-butyl-3-methylimidazolium hexafluorophosphate, C8H15F6N2P, InChI=1S/C8H15N2.F6P/c1-3-4-5-10-7-6-9(2)8-10;1-7(2,3,4,5)6/h6-8H,3-5H2,1-2H3;/q+1;-1
Compound 2: phenol, C6H6O, InChI=1S/C6H6O/c7-6-4-2-1-3-5-6/h1-5,7H
Compound 3: 2-methylphenol, C7H8O, InChI=1S/C7H8O/c1-6-4-2-3-5-7(6)8/h2-5,8H,1H3
Compound 4: 3-methylphenol, C7H8O, InChI=1S/C7H8O/c1-6-3-2-4-7(8)5-6/h2-5,8H,1H3
Compound 5: 4-methylphenol, C7H8O, InChI=1S/C7H8O/c1-6-2-4-7(8)5-3-6/h2-5,8H,1H3
Compound 6: 3,5-dimethylphenol, C8H10O, InChI=1S/C8H10O/c1-6-3-7(2)5-8(9)4-6/h3-5,9H,1-2H3
Compound 7: 1-naphthol, C10H8O, InChI=1S/C10H8O/c11-10-7-3-5-8-4-1-2-6-9(8)10/h1-7,11H
Compound 8: water, H2O, InChI=1S/H2O/h1H2

System: water + 1-butyl-3-methylimidazolium hexafluorophosphate; phases: Liquid mixture 2, Liquid mixture 1
Property: Mole fraction of water (Liquid mixture 2); method: UV spectrophotometer
Temperature, K	Pressure, kPa	Mole fraction of water	uncertainty
298.2	101	0.26	0.06

System: water + 1-butyl-3-methylimidazolium hexafluorophosphate; phases: Liquid mixture 1, Liquid mixture 2
Property: Mole fraction of 1-butyl-3-methylimidazolium hexafluorophosphate (Liquid mixture 1); method: UV spectrophotometer
Temperature, K	Pressure, kPa	Mole fraction of 1-butyl-3-methylimidazolium hexafluorophosphate	uncertainty
298.2	101	0.00128	0.00026

System: phenol + water + 1-butyl-3-methylimidazolium hexafluorophosphate; phases: Liquid, Liquid
Fixed: Pressure, kPa = 101
Fixed: Temperature, K = 298.2
Property: Amount concentration (molarity), mol/dm3 of phenol (Liquid); method: SPECTR
Amount concentration (molarity), mol/dm3 of phenol	Amount concentration (molarity), mol/dm3 of phenol	uncertainty
0.0001177	0.00177	0.0002
0.0002423	0.00355	0.00038
0.0003668	0.00535	0.00056
0.0004853	0.007	0.00071

System: phenol + water + 1-butyl-3-methylimidazolium hexafluorophosphate; phases: Liquid mixture 1, Liquid
Property: Amount concentration (molarity), mol/dm3 of phenol (Liquid mixture 1); method: extrapolation of results to 0 concentration
Temperature, K	Pressure, kPa	Mole fraction of phenol	Amount concentration (molarity), mol/dm3 of phenol	uncertainty
298.2	101	0	15.2	1.5

System: 2-methylphenol + water + 1-butyl-3-methylimidazolium hexafluorophosphate; phases: Liquid, Liquid
Fixed: Temperature, K = 298.2
Fixed: Pressure, kPa = 101
Property: Amount concentration (molarity), mol/dm3 of 2-methylphenol (Liquid); method: SPECTR
Amount concentration (molarity), mol/dm3 of 2-methylphenol	Amount concentration (molarity), mol/dm3 of 2-methylphenol	uncertainty
6.34e-05	0.00177	0.00036
0.0001329	0.00376	0.00047
0.0002012	0.00567	0.00058
0.0002645	0.0075	0.00077

System: 2-methylphenol + water + 1-butyl-3-methylimidazolium hexafluorophosphate; phases: Liquid mixture 1, Liquid
Property: Amount concentration (molarity), mol/dm3 of 2-methylphenol (Liquid mixture 1); method: extrapolation of results to 0 concentration
Temperature, K	Pressure, kPa	Mole fraction of 2-methylphenol	Amount concentration (molarity), mol/dm3 of 2-methylphenol	uncertainty
298.2	101	0	27.9	2.8

System: 3-methylphenol + water + 1-butyl-3-methylimidazolium hexafluorophosphate; phases: Liquid, Liquid
Fixed: Pressure, kPa = 101
Fixed: Temperature, K = 298.2
Property: Amount concentration (molarity), mol/dm3 of 3-methylphenol (Liquid); method: SPECTR
Amount concentration (molarity), mol/dm3 of 3-methylphenol	Amount concentration (molarity), mol/dm3 of 3-methylphenol	uncertainty
5.81e-05	0.00189	0.0002
0.0001216	0.00389	0.00039
0.0001829	0.00575	0.00058
0.0002471	0.00776	0.00079

System: 3-methylphenol + water + 1-butyl-3-methylimidazolium hexafluorophosphate; phases: Liquid mixture 1, Liquid
Property: Amount concentration (molarity), mol/dm3 of 3-methylphenol (Liquid mixture 1); method: extrapolation of results to 0 concentration
Temperature, K	Pressure, kPa	Mole fraction of 3-methylphenol	Amount concentration (molarity), mol/dm3 of 3-methylphenol	uncertainty
298.2	101	0	37.7	3.8

System: 4-methylphenol + water + 1-butyl-3-methylimidazolium hexafluorophosphate; phases: Liquid, Liquid
Fixed: Pressure, kPa = 101
Fixed: Temperature, K = 298.2
Property: Amount concentration (molarity), mol/dm3 of 4-methylphenol (Liquid); method: SPECTR
Amount concentration (molarity), mol/dm3 of 4-methylphenol	Amount concentration (molarity), mol/dm3 of 4-methylphenol	uncertainty
6.77e-05	0.0021	0.00022
0.0001455	0.00459	0.00066
0.000213	0.00693	0.00083
0.0003121	0.00999	0.00485

System: 4-methylphenol + water + 1-butyl-3-methylimidazolium hexafluorophosphate; phases: Liquid mixture 1, Liquid
Property: Amount concentration (molarity), mol/dm3 of 4-methylphenol (Liquid mixture 1); method: extrapolation of results to 0 concentration
Temperature, K	Pressure, kPa	Mole fraction of 4-methylphenol	Amount concentration (molarity), mol/dm3 of 4-methylphenol	uncertainty
298.2	101	0	30.9	3.1

System: 3,5-dimethylphenol + water + 1-butyl-3-methylimidazolium hexafluorophosphate; phases: Liquid, Liquid
Fixed: Pressure, kPa = 101
Fixed: Temperature, K = 298.2
Property: Amount concentration (molarity), mol/dm3 of 3,5-dimethylphenol (Liquid); method: SPECTR
Amount concentration (molarity), mol/dm3 of 3,5-dimethylphenol	Amount concentration (molarity), mol/dm3 of 3,5-dimethylphenol	uncertainty
3.42e-05	0.00187	0.0003
6.79e-05	0.00385	0.00064
9.83e-05	0.00591	0.00082
0.0001263	0.00796	0.00081

System: 3,5-dimethylphenol + water + 1-butyl-3-methylimidazolium hexafluorophosphate; phases: Liquid mixture 1, Liquid
Property: Amount concentration (molarity), mol/dm3 of 3,5-dimethylphenol (Liquid mixture 1); method: extrapolation of results to 0 concentration
Temperature, K	Pressure, kPa	Mole fraction of 3,5-dimethylphenol	Amount concentration (molarity), mol/dm3 of 3,5-dimethylphenol	uncertainty
298.2	101	0	51.4	5.1

System: 1-naphthol + water + 1-butyl-3-methylimidazolium hexafluorophosphate; phases: Liquid, Liquid
Fixed: Pressure, kPa = 101
Fixed: Temperature, K = 298.2
Property: Amount concentration (molarity), mol/dm3 of 1-naphthol (Liquid); method: SPECTR
Amount concentration (molarity), mol/dm3 of 1-naphthol	Amount concentration (molarity), mol/dm3 of 1-naphthol	uncertainty
1.12e-05	0.00344	0.00072
1.76e-05	0.00544	0.00083
2.33e-05	0.00719	0.00074

System: 1-naphthol + water + 1-butyl-3-methylimidazolium hexafluorophosphate; phases: Liquid mixture 1, Liquid
Property: Amount concentration (molarity), mol/dm3 of 1-naphthol (Liquid mixture 1); method: extrapolation of results to 0 concentration
Temperature, K	Pressure, kPa	Mole fraction of 1-naphthol	Amount concentration (molarity), mol/dm3 of 1-naphthol	uncertainty
298.2	101	0	305	32
