Measured thermophysical data. Ebulliometric Determination of Vapor-Liquid Equilibria for Methanol + Ethanol + Dimethyl Carbonate
Source: J. Chem. Eng. Data, 2006, 10.1021/je0601309
Compound 1: methanol, CH4O, InChI=1S/CH4O/c1-2/h2H,1H3
Compound 2: ethanol, C2H6O, InChI=1S/C2H6O/c1-2-3/h3H,2H2,1H3
Compound 3: dimethyl carbonate, C3H6O3, InChI=1S/C3H6O3/c1-5-3(4)6-2/h1-2H3

System: methanol; phases: Liquid
Property: Mass density, kg/m3 (Liquid); method: VIBTUB:UFactor:2
Temperature, K	Pressure, kPa	Mass density, kg/m3	uncertainty
298.15	101.325	786.67	0.31

System: methanol; phases: Liquid, Gas
Property: Vapor or sublimation pressure, kPa (Liquid); method: Ebulliometric method (Recirculating still)
Temperature, K	Vapor or sublimation pressure, kPa	uncertainty
315.74	40	0.4
315.87	40	0.4
322.17	53.33	0.54
322.25	53.33	0.54
327.37	66.66	0.67
327.45	66.66	0.67
331.75	79.99	0.8
331.84	79.99	0.8
335.56	93.32	0.94
335.66	93.32	0.94

System: ethanol; phases: Liquid
Property: Mass density, kg/m3 (Liquid); method: VIBTUB:UFactor:2
Temperature, K	Pressure, kPa	Mass density, kg/m3	uncertainty
298.15	101.325	785.23	0.31

System: ethanol; phases: Liquid, Gas
Property: Vapor or sublimation pressure, kPa (Liquid); method: Ebulliometric method (Recirculating still)
Temperature, K	Vapor or sublimation pressure, kPa	uncertainty
329.7	40	0.42
336.11	53.33	0.46
341.28	66.66	0.56
345.65	79.99	0.65
349.45	93.32	0.7

System: dimethyl carbonate; phases: Liquid
Property: Mass density, kg/m3 (Liquid); method: VIBTUB:UFactor:2
Temperature, K	Pressure, kPa	Mass density, kg/m3	uncertainty
298.15	101.325	1063.38	0.16

System: dimethyl carbonate; phases: Liquid, Gas
Property: Vapor or sublimation pressure, kPa (Liquid); method: EBULLIO:UFactor:2
Temperature, K	Vapor or sublimation pressure, kPa	uncertainty
336.68	40	0.35
344.38	53.33	0.39
350.66	66.66	0.46
356.01	79.99	0.54
360.68	93.32	0.57

System: ethanol + methanol; phases: Liquid, Gas
Property: Boiling temperature at pressure P, K (Liquid); method: Ebulliometric method (Recirculating still)
Mole fraction of methanol	Pressure, kPa	Boiling temperature at pressure P, K	uncertainty
0	40	329.7	
0	53.33	336.11	
0	66.66	341.28	
0	79.99	345.65	
0	93.32	349.45	
0.051	40	328.84	
0.051	53.33	335.26	
0.051	66.66	340.44	
0.051	79.99	344.82	
0.051	93.32	348.63	
0.099	40	328.03	
0.099	53.33	334.45	
0.099	66.66	339.65	
0.099	79.99	344.04	
0.099	93.32	347.85	
0.152	40	327.19	
0.152	53.33	333.63	
0.152	66.66	338.83	
0.152	79.99	343.21	
0.152	93.32	347.04	
0.2	40	326.39	
0.2	53.33	332.83	
0.2	66.66	338.05	
0.2	79.99	342.44	
0.2	93.32	346.26	
0.245	40	325.72	
0.245	53.33	332.19	
0.245	66.66	337.39	
0.245	79.99	341.79	
0.245	93.32	345.62	
0.294	40	324.96	
0.294	53.33	331.44	
0.294	66.66	336.65	
0.294	79.99	341.06	
0.294	93.32	344.87	
0.35	40	324.14	
0.35	53.33	330.59	
0.35	66.66	335.82	
0.35	79.99	340.22	
0.35	93.32	344.06	
0.397	40	323.44	
0.397	53.33	329.91	
0.397	66.66	335.12	
0.397	79.99	339.53	
0.397	93.32	343.37	
0.447	40	322.71	
0.447	53.33	329.19	
0.447	66.66	334.41	
0.447	79.99	338.82	
0.447	93.32	342.66	
0.503	40	321.94	
0.503	53.33	328.41	
0.503	66.66	333.63	
0.503	79.99	338.03	
0.503	93.32	341.86	
0.559	40	321.17	
0.559	53.33	327.65	
0.559	66.66	332.88	
0.559	79.99	337.29	
0.559	93.32	341.12	
0.607	40	320.54	
0.607	53.33	327	
0.607	66.66	332.23	
0.607	79.99	336.64	
0.607	93.32	340.48	
0.655	40	319.92	
0.655	53.33	326.38	
0.655	66.66	331.61	
0.655	79.99	336.01	
0.655	93.32	339.85	
0.702	40	319.33	
0.702	53.33	325.79	
0.702	66.66	331.02	
0.702	79.99	335.42	
0.702	93.32	339.25	
0.751	40	318.72	
0.751	53.33	325.17	
0.751	66.66	330.4	
0.751	79.99	334.8	
0.751	93.32	338.63	
0.815	40	317.94	
0.815	53.33	324.39	
0.815	66.66	329.61	
0.815	79.99	334	
0.815	93.32	337.83	
0.851	40	317.51	
0.851	53.33	323.96	
0.851	66.66	329.17	
0.851	79.99	333.57	
0.851	93.32	337.39	
0.9	40	316.94	
0.9	53.33	323.38	
0.9	66.66	328.59	
0.9	79.99	332.99	
0.9	93.32	336.81	
0.948	40	316.4	
0.948	53.33	322.84	
0.948	66.66	328.04	
0.948	79.99	332.44	
0.948	93.32	336.25	
1	40	315.87	
1	53.33	322.25	
1	66.66	327.45	
1	79.99	331.84	
1	93.32	335.66	

System: ethanol + dimethyl carbonate; phases: Liquid, Gas
Property: Azeotropic temperature, K (Liquid); method: By T(X) extreme
Pressure, kPa	Azeotropic temperature, K	uncertainty
40	324.97	0.23
53.33	331.76	0.23
66.66	337.24	0.23
79.99	341.86	0.23
93.32	345.88	0.23

System: ethanol + dimethyl carbonate; phases: Liquid, Gas
Property: Azeotropic composition: mole fraction of ethanol (Liquid); method: By T or P extreme
Pressure, kPa	Azeotropic composition: mole fraction of ethanol	uncertainty
40	0.612	0.006
53.33	0.642	0.005
66.66	0.66	0.005
79.99	0.677	0.005
93.32	0.686	0.005

System: ethanol + dimethyl carbonate; phases: Liquid, Gas
Property: Boiling temperature at pressure P, K (Liquid); method: EBULLIO:UFactor:2
Mole fraction of ethanol	Pressure, kPa	Boiling temperature at pressure P, K	uncertainty
0	40	336.68	0.23
0	53.33	344.38	0.26
0	66.66	350.66	0.26
0	79.99	356.01	0.26
0	93.32	360.68	0.28
0.057	40	332.79	0.22
0.057	53.33	340.41	0.26
0.057	66.66	346.62	0.26
0.057	79.99	351.91	0.26
0.057	93.32	356.51	0.29
0.104	40	330.42	0.21
0.104	53.33	337.9	0.25
0.104	66.66	343.99	0.25
0.104	79.99	349.22	0.26
0.104	93.32	353.77	0.29
0.152	40	328.96	0.21
0.152	53.33	336.32	0.25
0.152	66.66	342.36	0.25
0.152	79.99	347.44	0.25
0.152	93.32	351.95	0.28
0.204	40	327.7	0.21
0.204	53.33	334.95	0.24
0.204	66.66	340.87	0.25
0.204	79.99	345.89	0.25
0.204	93.32	350.29	0.28
0.255	40	326.88	0.21
0.255	53.33	334.05	0.24
0.255	66.66	339.87	0.24
0.255	79.99	344.84	0.24
0.255	93.32	349.17	0.26
0.303	40	326.28	0.21
0.303	53.33	333.34	0.24
0.303	66.66	339.07	0.24
0.303	79.99	343.96	0.24
0.303	93.32	348.25	0.26
0.357	40	325.79	0.21
0.357	53.33	332.8	0.24
0.357	66.66	338.5	0.24
0.357	79.99	343.32	0.24
0.357	93.32	347.55	0.25
0.405	40	325.42	0.2
0.405	53.33	332.34	0.23
0.405	66.66	337.97	0.23
0.405	79.99	342.74	0.23
0.405	93.32	346.89	0.26
0.458	40	325.25	0.2
0.458	53.33	332.14	0.23
0.458	66.66	337.75	0.23
0.458	79.99	342.48	0.23
0.458	93.32	346.62	0.25
0.503	40	325.08	0.2
0.503	53.33	331.95	0.23
0.503	66.66	337.51	0.23
0.503	79.99	342.22	0.23
0.503	93.32	346.34	0.25
0.549	40	325.01	0.2
0.549	53.33	331.86	0.23
0.549	66.66	337.39	0.23
0.549	79.99	342.09	0.23
0.549	93.32	346.18	0.25
0.599	40	324.96	0.2
0.599	53.33	331.77	0.23
0.599	66.66	337.27	0.23
0.599	79.99	341.95	0.23
0.599	93.32	345.99	0.25
0.65	40	324.98	0.2
0.65	53.33	331.75	0.23
0.65	66.66	337.24	0.23
0.65	79.99	341.87	0.23
0.65	93.32	345.9	0.24
0.7	40	325.05	0.2
0.7	53.33	331.79	0.23
0.7	66.66	337.25	0.23
0.7	79.99	341.86	0.23
0.7	93.32	345.88	0.24
0.752	40	325.24	0.2
0.752	53.33	331.96	0.23
0.752	66.66	337.4	0.22
0.752	79.99	341.98	0.23
0.752	93.32	345.98	0.24
0.813	40	325.59	0.2
0.813	53.33	332.28	0.22
0.813	66.66	337.7	0.22
0.813	79.99	342.27	0.22
0.813	93.32	346.25	0.24
0.845	40	325.89	0.19
0.845	53.33	332.57	0.22
0.845	66.66	337.97	0.22
0.845	79.99	342.52	0.22
0.845	93.32	346.48	0.24
0.898	40	326.61	0.19
0.898	53.33	333.23	0.22
0.898	66.66	338.59	0.22
0.898	79.99	343.11	0.22
0.898	93.32	347.04	0.25
0.946	40	327.71	0.19
0.946	53.33	334.29	0.22
0.946	66.66	339.61	0.22
0.946	79.99	344.05	0.22
0.946	93.32	347.94	0.24
1	40	329.7	0.19
1	53.33	336.11	0.21
1	66.66	341.28	0.21
1	79.99	345.65	0.21
1	93.32	349.45	0.23

System: methanol + dimethyl carbonate; phases: Liquid, Gas
Property: Azeotropic temperature, K (Liquid); method: By T(X) extreme
Pressure, kPa	Azeotropic temperature, K	uncertainty
40	314.41	0.23
53.33	320.94	0.23
66.66	326.22	0.23
79.99	330.69	0.23
93.32	334.57	0.23

System: methanol + dimethyl carbonate; phases: Liquid, Gas
Property: Azeotropic composition: mole fraction of methanol (Liquid); method: By T or P extreme
Pressure, kPa	Azeotropic composition: mole fraction of methanol	uncertainty
40	0.823	0.003
53.33	0.831	0.003
66.66	0.839	0.003
79.99	0.846	0.003
93.32	0.85	0.003

System: methanol + dimethyl carbonate; phases: Liquid, Gas
Property: Boiling temperature at pressure P, K (Liquid); method: EBULLIO:UFactor:2
Mole fraction of methanol	Pressure, kPa	Boiling temperature at pressure P, K	uncertainty
0	40	336.68	0.23
0	53.33	344.38	0.26
0	66.66	350.66	0.26
0	79.99	356.01	0.26
0	93.32	360.68	0.28
0.106	40	325.27	0.16
0.106	53.33	332.74	0.25
0.106	66.66	338.83	0.25
0.106	79.99	344.06	0.26
0.106	93.32	348.58	0.39
0.203	40	320.51	0.19
0.203	53.33	327.65	0.24
0.203	66.66	333.53	0.24
0.203	79.99	338.56	0.25
0.203	93.32	342.9	0.31
0.3	40	318.06	0.19
0.3	53.33	325.02	0.23
0.3	66.66	330.69	0.24
0.3	79.99	335.52	0.24
0.3	93.32	339.72	0.28
0.397	40	316.62	0.2
0.397	53.33	323.44	0.23
0.397	66.66	328.98	0.23
0.397	79.99	333.69	0.23
0.397	93.32	337.8	0.3
0.495	40	315.7	0.19
0.495	53.33	322.42	0.23
0.495	66.66	327.87	0.23
0.495	79.99	332.49	0.23
0.495	93.32	336.51	0.25
0.592	40	315.08	0.19
0.592	53.33	321.73	0.22
0.592	66.66	327.11	0.22
0.592	79.99	331.66	0.22
0.592	93.32	335.63	0.24
0.655	40	314.81	0.19
0.655	53.33	321.42	0.22
0.655	66.66	326.78	0.22
0.655	79.99	331.31	0.22
0.655	93.32	335.25	0.24
0.696	40	314.64	0.19
0.696	53.33	321.23	0.22
0.696	66.66	326.56	0.22
0.696	79.99	331.08	0.22
0.696	93.32	335.01	0.24
0.748	40	314.5	0.2
0.748	53.33	321.06	0.22
0.748	66.66	326.38	0.22
0.748	79.99	330.87	0.22
0.748	93.32	334.77	0.24
0.797	40	314.42	0.19
0.797	53.33	320.95	0.22
0.797	66.66	326.25	0.22
0.797	79.99	330.73	0.22
0.797	93.32	334.63	0.24
0.845	40	314.41	0.19
0.845	53.33	320.94	0.22
0.845	66.66	326.22	0.22
0.845	79.99	330.68	0.22
0.845	93.32	334.56	0.24
0.899	40	314.56	0.19
0.899	53.33	321.06	0.22
0.899	66.66	326.33	0.22
0.899	79.99	330.77	0.22
0.899	93.32	334.64	0.24
0.948	40	314.92	0.19
0.948	53.33	321.4	0.22
0.948	66.66	326.63	0.22
0.948	79.99	331.06	0.22
0.948	93.32	334.9	0.24
1	40	315.74	0.19
1	53.33	322.17	0.22
1	66.66	327.37	0.21
1	79.99	331.75	0.22
1	93.32	335.56	0.23

System: ethanol + methanol + dimethyl carbonate; phases: Liquid, Gas
Property: Boiling temperature at pressure P, K (Liquid); method: EBULLIO:UFactor:2
Mole fraction of methanol	Mole fraction of ethanol	Pressure, kPa	Boiling temperature at pressure P, K	uncertainty
0.05	0.57	40	324.11	0.2
0.05	0.57	53.33	330.88	0.23
0.05	0.57	66.66	336.35	0.23
0.05	0.57	79.99	340.96	0.23
0.05	0.57	93.32	344.97	0.24
0.05	0.594	40	324.16	0.2
0.05	0.594	53.33	330.92	0.23
0.05	0.594	66.66	336.39	0.23
0.05	0.594	79.99	340.98	0.23
0.05	0.594	93.32	344.99	0.24
0.05	0.617	40	324.2	0.2
0.05	0.617	53.33	330.95	0.23
0.05	0.617	66.66	336.4	0.23
0.05	0.617	79.99	341	0.23
0.05	0.617	93.32	344.99	0.24
0.05	0.641	40	324.25	0.2
0.05	0.641	53.33	331.01	0.23
0.05	0.641	66.66	336.46	0.23
0.05	0.641	79.99	341.08	0.23
0.05	0.641	93.32	345.1	0.24
0.05	0.665	40	324.31	0.2
0.05	0.665	53.33	331.05	0.23
0.05	0.665	66.66	336.49	0.22
0.05	0.665	79.99	341.08	0.23
0.05	0.665	93.32	345.09	0.24
0.052	0.853	40	325.97	0.2
0.052	0.853	53.33	332.62	0.22
0.052	0.853	66.66	337.97	0.22
0.052	0.853	79.99	342.5	0.22
0.052	0.853	93.32	346.45	0.24
0.099	0.27	40	323.15	0.2
0.099	0.27	53.33	330.01	0.23
0.099	0.27	66.66	335.47	0.23
0.099	0.27	79.99	340.15	0.23
0.099	0.27	93.32	344.21	0.25
0.1	0.18	40	323.46	0.2
0.1	0.18	53.33	330.39	0.23
0.1	0.18	66.66	335.98	0.23
0.1	0.18	79.99	340.68	0.23
0.1	0.18	93.32	344.81	0.27
0.1	0.36	40	323.07	0.2
0.1	0.36	53.33	329.9	0.23
0.1	0.36	66.66	335.43	0.23
0.1	0.36	79.99	340.08	0.23
0.1	0.36	93.32	344.05	0.24
0.1	0.45	40	323.06	0.2
0.1	0.45	53.33	329.83	0.23
0.1	0.45	66.66	335.28	0.22
0.1	0.45	79.99	339.87	0.23
0.1	0.45	93.32	343.86	0.25
0.1	0.54	40	323.21	0.2
0.1	0.54	53.33	329.93	0.23
0.1	0.54	66.66	335.36	0.22
0.1	0.54	79.99	339.92	0.22
0.1	0.54	93.32	343.92	0.25
0.1	0.72	40	324.13	0.19
0.1	0.72	53.33	330.81	0.22
0.1	0.72	66.66	336.22	0.22
0.1	0.72	79.99	340.78	0.22
0.1	0.72	93.32	344.74	0.25
0.101	0.09	40	324.16	0.21
0.101	0.09	53.33	331.25	0.24
0.101	0.09	66.66	337.08	0.24
0.101	0.09	79.99	342.05	0.24
0.101	0.09	93.32	346.41	0.28
0.101	0.629	40	323.51	0.19
0.101	0.629	53.33	330.22	0.22
0.101	0.629	66.66	335.64	0.22
0.101	0.629	79.99	340.22	0.23
0.101	0.629	93.32	344.21	0.25
0.102	0.808	40	325.28	0.19
0.102	0.808	53.33	331.9	0.22
0.102	0.808	66.66	337.25	0.22
0.102	0.808	79.99	341.79	0.22
0.102	0.808	93.32	345.77	0.25
0.103	0.852	40	326.38	0.19
0.103	0.852	53.33	332.94	0.22
0.103	0.852	66.66	338.25	0.22
0.103	0.852	79.99	342.74	0.22
0.103	0.852	93.32	346.63	0.23
0.104	0.045	40	324.64	0.22
0.104	0.045	53.33	332.04	0.25
0.104	0.045	66.66	338.1	0.25
0.104	0.045	79.99	343.22	0.25
0.104	0.045	93.32	347.66	0.27
0.149	0.766	40	324.66	0.19
0.149	0.766	53.33	331.26	0.22
0.149	0.766	66.66	336.6	0.22
0.149	0.766	79.99	341.13	0.22
0.149	0.766	93.32	345.06	0.24
0.197	0.04	40	320.77	0.19
0.197	0.04	53.33	327.92	0.24
0.197	0.04	66.66	333.74	0.24
0.197	0.04	79.99	338.66	0.24
0.197	0.04	93.32	342.97	0.3
0.197	0.321	40	321.13	0.2
0.197	0.321	53.33	327.9	0.23
0.197	0.321	66.66	333.39	0.23
0.197	0.321	79.99	338.01	0.23
0.197	0.321	93.32	342.06	0.24
0.197	0.562	40	322.15	0.19
0.197	0.562	53.33	328.81	0.22
0.197	0.562	66.66	334.21	0.22
0.197	0.562	79.99	338.75	0.22
0.197	0.562	93.32	342.72	0.24
0.197	0.723	40	324.01	0.19
0.197	0.723	53.33	330.62	0.22
0.197	0.723	66.66	335.94	0.22
0.197	0.723	79.99	340.45	0.22
0.197	0.723	93.32	344.37	0.25
0.198	0.08	40	320.77	0.2
0.198	0.08	53.33	327.81	0.24
0.198	0.08	66.66	333.54	0.24
0.198	0.08	79.99	338.41	0.24
0.198	0.08	93.32	342.67	0.27
0.198	0.762	40	325.07	0.19
0.198	0.762	53.33	331.64	0.22
0.198	0.762	66.66	336.95	0.22
0.198	0.762	79.99	341.41	0.22
0.198	0.762	93.32	345.3	0.23
0.199	0.481	40	321.7	0.2
0.199	0.481	53.33	328.38	0.22
0.199	0.481	66.66	333.78	0.22
0.199	0.481	79.99	338.33	0.22
0.199	0.481	93.32	342.31	0.24
0.2	0.16	40	320.73	0.19
0.2	0.16	53.33	327.58	0.23
0.2	0.16	66.66	333.13	0.23
0.2	0.16	79.99	337.85	0.23
0.2	0.16	93.32	341.93	0.27
0.2	0.24	40	320.86	0.2
0.2	0.24	53.33	327.6	0.23
0.2	0.24	66.66	333.06	0.22
0.2	0.24	79.99	337.63	0.23
0.2	0.24	93.32	341.63	0.25
0.2	0.4	40	321.29	0.19
0.2	0.4	53.33	327.97	0.22
0.2	0.4	66.66	333.4	0.22
0.2	0.4	79.99	337.98	0.22
0.2	0.4	93.32	341.96	0.25
0.2	0.64	40	322.8	0.19
0.2	0.64	53.33	329.46	0.22
0.2	0.64	66.66	334.84	0.22
0.2	0.64	79.99	339.38	0.22
0.2	0.64	93.32	343.33	0.25
0.296	0.281	40	319.56	0.19
0.296	0.281	53.33	326.15	0.22
0.296	0.281	66.66	331.55	0.22
0.296	0.281	79.99	336.1	0.22
0.296	0.281	93.32	340.09	0.24
0.297	0.492	40	320.89	0.19
0.297	0.492	53.33	327.54	0.22
0.297	0.492	66.66	332.92	0.22
0.297	0.492	79.99	337.46	0.22
0.297	0.492	93.32	341.4	0.25
0.298	0.071	40	318.55	0.2
0.298	0.071	53.33	325.4	0.23
0.298	0.071	66.66	330.99	0.23
0.298	0.071	79.99	335.69	0.23
0.298	0.071	93.32	339.79	0.26
0.298	0.211	40	319.19	0.19
0.298	0.211	53.33	325.93	0.22
0.298	0.211	66.66	331.32	0.22
0.298	0.211	79.99	335.88	0.22
0.298	0.211	93.32	339.81	0.25
0.298	0.562	40	321.59	0.19
0.298	0.562	53.33	328.23	0.22
0.298	0.562	66.66	333.59	0.22
0.298	0.562	79.99	338.13	0.22
0.298	0.562	93.32	342.07	0.25
0.299	0.42	40	320.35	0.2
0.299	0.42	53.33	327.02	0.22
0.299	0.42	66.66	332.39	0.22
0.299	0.42	79.99	336.96	0.22
0.299	0.42	93.32	340.89	0.24
0.299	0.666	40	323.66	0.19
0.299	0.666	53.33	330.25	0.22
0.299	0.666	66.66	335.55	0.22
0.299	0.666	79.99	340.01	0.22
0.299	0.666	93.32	343.87	0.23
0.3	0.63	40	322.74	0.19
0.3	0.63	53.33	329.32	0.22
0.3	0.63	66.66	334.65	0.22
0.3	0.63	79.99	339.16	0.22
0.3	0.63	93.32	343.07	0.24
0.301	0.035	40	318.32	0.19
0.301	0.035	53.33	325.2	0.23
0.301	0.035	66.66	330.84	0.23
0.301	0.035	79.99	335.54	0.23
0.301	0.035	93.32	339.68	0.28
0.301	0.349	40	319.87	0.19
0.301	0.349	53.33	326.52	0.22
0.301	0.349	66.66	331.89	0.22
0.301	0.349	79.99	336.45	0.22
0.301	0.349	93.32	340.37	0.24
0.303	0.14	40	318.81	0.2
0.303	0.14	53.33	325.58	0.23
0.303	0.14	66.66	331.05	0.23
0.303	0.14	79.99	335.64	0.23
0.303	0.14	93.32	339.64	0.24
0.398	0.241	40	318.37	0.2
0.398	0.241	53.33	325.04	0.22
0.398	0.241	66.66	330.43	0.22
0.398	0.241	79.99	335	0.22
0.398	0.241	93.32	338.97	0.24
0.398	0.542	40	321.56	0.19
0.398	0.542	53.33	328.13	0.22
0.398	0.542	66.66	333.44	0.22
0.398	0.542	79.99	337.93	0.22
0.398	0.542	93.32	341.83	0.24
0.399	0.36	40	319.18	0.19
0.399	0.36	53.33	325.82	0.22
0.399	0.36	66.66	331.19	0.22
0.399	0.36	79.99	335.75	0.22
0.399	0.36	93.32	339.7	0.24
0.4	0.12	40	317.56	0.19
0.4	0.12	53.33	324.27	0.23
0.4	0.12	66.66	329.71	0.23
0.4	0.12	79.99	334.32	0.23
0.4	0.12	93.32	338.3	0.25
0.4	0.3	40	318.73	0.2
0.4	0.3	53.33	325.39	0.22
0.4	0.3	66.66	330.78	0.22
0.4	0.3	79.99	335.33	0.22
0.4	0.3	93.32	339.3	0.24
0.4	0.42	40	319.72	0.19
0.4	0.42	53.33	326.36	0.22
0.4	0.42	66.66	331.71	0.22
0.4	0.42	79.99	336.24	0.22
0.4	0.42	93.32	340.18	0.24
0.4	0.48	40	320.45	0.19
0.4	0.48	53.33	327.07	0.22
0.4	0.48	66.66	332.41	0.22
0.4	0.48	79.99	336.92	0.22
0.4	0.48	93.32	340.84	0.25
0.4	0.57	40	322.34	0.19
0.4	0.57	53.33	328.87	0.22
0.4	0.57	66.66	334.13	0.22
0.4	0.57	79.99	338.59	0.22
0.4	0.57	93.32	342.46	0.23
0.401	0.06	40	317.14	0.2
0.401	0.06	53.33	323.91	0.23
0.401	0.06	66.66	329.39	0.23
0.401	0.06	79.99	334	0.23
0.401	0.06	93.32	338.03	0.25
0.401	0.18	40	317.95	0.2
0.401	0.18	53.33	324.63	0.22
0.401	0.18	66.66	330.05	0.22
0.401	0.18	79.99	334.63	0.22
0.401	0.18	93.32	338.61	0.24
0.403	0.03	40	316.88	0.19
0.403	0.03	53.33	323.67	0.23
0.403	0.03	66.66	329.18	0.23
0.403	0.03	79.99	333.85	0.23
0.403	0.03	93.32	337.93	0.26
0.498	0.452	40	320.46	0.19
0.498	0.452	53.33	327	0.22
0.498	0.452	66.66	332.29	0.22
0.498	0.452	79.99	336.77	0.22
0.498	0.452	93.32	340.67	0.24
0.5	0.05	40	316.23	0.2
0.5	0.05	53.33	322.9	0.22
0.5	0.05	66.66	328.29	0.22
0.5	0.05	79.99	332.85	0.22
0.5	0.05	93.32	336.83	0.25
0.5	0.1	40	316.59	0.19
0.5	0.1	53.33	323.25	0.22
0.5	0.1	66.66	328.66	0.22
0.5	0.1	79.99	333.23	0.22
0.5	0.1	93.32	337.2	0.24
0.5	0.15	40	316.95	0.2
0.5	0.15	53.33	323.6	0.22
0.5	0.15	66.66	328.99	0.22
0.5	0.15	79.99	333.54	0.22
0.5	0.15	93.32	337.48	0.24
0.5	0.2	40	317.34	0.2
0.5	0.2	53.33	323.98	0.22
0.5	0.2	66.66	329.35	0.22
0.5	0.2	79.99	333.87	0.22
0.5	0.2	93.32	337.82	0.24
0.5	0.25	40	317.73	0.19
0.5	0.25	53.33	324.36	0.22
0.5	0.25	66.66	329.72	0.22
0.5	0.25	79.99	334.24	0.22
0.5	0.25	93.32	338.19	0.24
0.5	0.3	40	318.18	0.19
0.5	0.3	53.33	324.79	0.22
0.5	0.3	66.66	330.13	0.22
0.5	0.3	79.99	334.64	0.22
0.5	0.3	93.32	338.58	0.25
0.5	0.35	40	318.71	0.19
0.5	0.35	53.33	325.31	0.22
0.5	0.35	66.66	330.64	0.22
0.5	0.35	79.99	335.15	0.22
0.5	0.35	93.32	339.07	0.25
0.5	0.4	40	319.45	0.19
0.5	0.4	53.33	326.04	0.22
0.5	0.4	66.66	331.36	0.22
0.5	0.4	79.99	335.85	0.22
0.5	0.4	93.32	339.76	0.24
0.5	0.475	40	321.1	0.19
0.5	0.475	53.33	327.64	0.22
0.5	0.475	66.66	332.91	0.22
0.5	0.475	79.99	337.35	0.22
0.5	0.475	93.32	341.21	0.23
0.501	0.025	40	315.98	0.19
0.501	0.025	53.33	322.68	0.22
0.501	0.025	66.66	328.11	0.22
0.501	0.025	79.99	332.71	0.23
0.501	0.025	93.32	336.72	0.25
0.599	0.361	40	319.39	0.19
0.599	0.361	53.33	325.91	0.22
0.599	0.361	66.66	331.19	0.22
0.599	0.361	79.99	335.64	0.22
0.599	0.361	93.32	339.5	0.24
0.6	0.02	40	315.32	0.19
0.6	0.02	53.33	321.94	0.22
0.6	0.02	66.66	327.31	0.22
0.6	0.02	79.99	331.85	0.22
0.6	0.02	93.32	335.82	0.24
0.6	0.04	40	315.5	0.19
0.6	0.04	53.33	322.12	0.22
0.6	0.04	66.66	327.49	0.22
0.6	0.04	79.99	332.03	0.22
0.6	0.04	93.32	336	0.24
0.6	0.08	40	315.83	0.19
0.6	0.08	53.33	322.45	0.22
0.6	0.08	66.66	327.8	0.22
0.6	0.08	79.99	332.34	0.22
0.6	0.08	93.32	336.28	0.24
0.6	0.12	40	316.16	0.19
0.6	0.12	53.33	322.78	0.22
0.6	0.12	66.66	328.13	0.22
0.6	0.12	79.99	332.65	0.22
0.6	0.12	93.32	336.58	0.24
0.6	0.2	40	316.89	0.19
0.6	0.2	53.33	323.49	0.22
0.6	0.2	66.66	328.82	0.22
0.6	0.2	79.99	333.32	0.22
0.6	0.2	93.32	337.24	0.24
0.6	0.24	40	317.33	0.19
0.6	0.24	53.33	323.92	0.22
0.6	0.24	66.66	329.25	0.22
0.6	0.24	79.99	333.74	0.22
0.6	0.24	93.32	337.66	0.24
0.6	0.28	40	317.85	0.19
0.6	0.28	53.33	324.41	0.22
0.6	0.28	66.66	329.71	0.22
0.6	0.28	79.99	334.2	0.22
0.6	0.28	93.32	338.1	0.24
0.6	0.32	40	318.49	0.19
0.6	0.32	53.33	325.05	0.22
0.6	0.32	66.66	330.34	0.22
0.6	0.32	79.99	334.81	0.22
0.6	0.32	93.32	338.7	0.24
0.6	0.38	40	319.96	0.19
0.6	0.38	53.33	326.46	0.22
0.6	0.38	66.66	331.7	0.22
0.6	0.38	79.99	336.15	0.22
0.6	0.38	93.32	339.99	0.23
0.601	0.16	40	316.52	0.19
0.601	0.16	53.33	323.12	0.22
0.601	0.16	66.66	328.45	0.22
0.601	0.16	79.99	332.97	0.22
0.601	0.16	93.32	336.89	0.24
0.697	0.273	40	318.42	0.19
0.697	0.273	53.33	324.92	0.22
0.697	0.273	66.66	330.18	0.22
0.697	0.273	79.99	334.62	0.22
0.697	0.273	93.32	338.38	0.23
0.7	0.015	40	314.86	0.19
0.7	0.015	53.33	321.44	0.22
0.7	0.015	66.66	326.77	0.22
0.7	0.015	79.99	331.28	0.22
0.7	0.015	93.32	335.2	0.24
0.7	0.03	40	315	0.19
0.7	0.03	53.33	321.57	0.22
0.7	0.03	66.66	326.9	0.22
0.7	0.03	79.99	331.41	0.22
0.7	0.03	93.32	335.32	0.24
0.7	0.06	40	315.28	0.19
0.7	0.06	53.33	321.85	0.22
0.7	0.06	66.66	327.17	0.22
0.7	0.06	79.99	331.67	0.22
0.7	0.06	93.32	335.59	0.24
0.7	0.09	40	315.58	0.19
0.7	0.09	53.33	322.15	0.22
0.7	0.09	66.66	327.47	0.22
0.7	0.09	79.99	331.96	0.22
0.7	0.09	93.32	335.87	0.24
0.7	0.12	40	315.89	0.19
0.7	0.12	53.33	322.45	0.22
0.7	0.12	66.66	327.76	0.22
0.7	0.12	79.99	332.24	0.22
0.7	0.12	93.32	336.15	0.24
0.7	0.15	40	316.24	0.19
0.7	0.15	53.33	322.79	0.22
0.7	0.15	66.66	328.09	0.22
0.7	0.15	79.99	332.58	0.22
0.7	0.15	93.32	336.47	0.24
0.7	0.18	40	316.64	0.19
0.7	0.18	53.33	323.19	0.22
0.7	0.18	66.66	328.48	0.22
0.7	0.18	79.99	332.95	0.22
0.7	0.18	93.32	336.84	0.24
0.7	0.21	40	317.1	0.19
0.7	0.21	53.33	323.64	0.22
0.7	0.21	66.66	328.92	0.22
0.7	0.21	79.99	333.39	0.22
0.7	0.21	93.32	337.27	0.24
0.7	0.24	40	317.67	0.19
0.7	0.24	53.33	324.18	0.22
0.7	0.24	66.66	329.45	0.22
0.7	0.24	79.99	333.9	0.22
0.7	0.24	93.32	337.78	0.23
0.7	0.285	40	318.84	0.19
0.7	0.285	53.33	325.32	0.22
0.7	0.285	66.66	330.55	0.22
0.7	0.285	79.99	334.98	0.22
0.7	0.285	93.32	338.84	0.23
0.798	0.181	40	317.48	0.19
0.798	0.181	53.33	323.96	0.22
0.798	0.181	66.66	329.2	0.22
0.798	0.181	79.99	333.62	0.22
0.798	0.181	93.32	337.46	0.23
0.8	0.01	40	314.62	0.19
0.8	0.01	53.33	321.17	0.22
0.8	0.01	66.66	326.46	0.22
0.8	0.01	79.99	330.93	0.22
0.8	0.01	93.32	334.82	0.24
0.8	0.02	40	314.74	0.19
0.8	0.02	53.33	321.28	0.22
0.8	0.02	66.66	326.57	0.22
0.8	0.02	79.99	331.03	0.22
0.8	0.02	93.32	334.92	0.24
0.8	0.04	40	314.97	0.19
0.8	0.04	53.33	321.51	0.22
0.8	0.04	66.66	326.79	0.22
0.8	0.04	79.99	331.26	0.22
0.8	0.04	93.32	335.14	0.24
0.8	0.06	40	315.21	0.19
0.8	0.06	53.33	321.75	0.22
0.8	0.06	66.66	327.03	0.22
0.8	0.06	79.99	331.49	0.22
0.8	0.06	93.32	335.49	0.24
0.8	0.08	40	315.48	0.19
0.8	0.08	53.33	322.01	0.22
0.8	0.08	66.66	327.29	0.22
0.8	0.08	79.99	331.75	0.22
0.8	0.08	93.32	335.63	0.24
0.8	0.1	40	315.78	0.19
0.8	0.1	53.33	322.31	0.22
0.8	0.1	66.66	327.58	0.22
0.8	0.1	79.99	332.03	0.22
0.8	0.1	93.32	335.9	0.24
0.8	0.12	40	316.12	0.19
0.8	0.12	53.33	322.64	0.22
0.8	0.12	66.66	327.9	0.22
0.8	0.12	79.99	332.35	0.22
0.8	0.12	93.32	336.22	0.24
0.8	0.14	40	316.49	0.19
0.8	0.14	53.33	323	0.22
0.8	0.14	66.66	328.26	0.22
0.8	0.14	79.99	332.7	0.22
0.8	0.14	93.32	336.56	0.24
0.8	0.16	40	316.96	0.19
0.8	0.16	53.33	323.45	0.22
0.8	0.16	66.66	328.7	0.22
0.8	0.16	79.99	333.13	0.22
0.8	0.16	93.32	336.98	0.23
0.8	0.19	40	317.79	0.19
0.8	0.19	53.33	324.26	0.22
0.8	0.19	66.66	329.48	0.22
0.8	0.19	79.99	333.89	0.22
0.8	0.19	93.32	337.72	0.23
0.85	0.135	40	317.04	0.19
0.85	0.135	53.33	323.51	0.22
0.85	0.135	66.66	328.74	0.22
0.85	0.135	79.99	333.15	0.22
0.85	0.135	93.32	336.99	0.23
0.899	0.091	40	316.62	0.19
0.899	0.091	53.33	323.08	0.22
0.899	0.091	66.66	328.29	0.22
0.899	0.091	79.99	332.7	0.22
0.899	0.091	93.32	336.54	0.23
0.9	0.005	40	314.75	0.19
0.9	0.005	53.33	321.25	0.22
0.9	0.005	66.66	326.51	0.22
0.9	0.005	79.99	330.95	0.22
0.9	0.005	93.32	334.81	0.23
0.9	0.01	40	314.83	0.19
0.9	0.01	53.33	321.33	0.22
0.9	0.01	66.66	326.58	0.22
0.9	0.01	79.99	331.01	0.22
0.9	0.01	93.32	334.87	0.23
0.9	0.02	40	315	0.19
0.9	0.02	53.33	321.5	0.22
0.9	0.02	66.66	326.75	0.22
0.9	0.02	79.99	331.18	0.22
0.9	0.02	93.32	335.04	0.23
0.9	0.03	40	315.18	0.19
0.9	0.03	53.33	321.67	0.22
0.9	0.03	66.66	326.91	0.22
0.9	0.03	79.99	331.35	0.22
0.9	0.03	93.32	335.21	0.24
0.9	0.04	40	315.38	0.19
0.9	0.04	53.33	321.87	0.22
0.9	0.04	66.66	327.11	0.22
0.9	0.04	79.99	331.53	0.22
0.9	0.04	93.32	335.38	0.24
0.9	0.05	40	315.58	0.19
0.9	0.05	53.33	322.06	0.22
0.9	0.05	66.66	327.3	0.22
0.9	0.05	79.99	331.72	0.22
0.9	0.05	93.32	335.56	0.24
0.9	0.06	40	315.82	0.19
0.9	0.06	53.33	322.3	0.22
0.9	0.06	66.66	327.53	0.22
0.9	0.06	79.99	331.96	0.22
0.9	0.06	93.32	335.79	0.23
0.9	0.07	40	316.06	0.19
0.9	0.07	53.33	322.53	0.22
0.9	0.07	66.66	327.76	0.22
0.9	0.07	79.99	332.17	0.22
0.9	0.07	93.32	336	0.23
0.9	0.08	40	316.34	0.19
0.9	0.08	53.33	322.8	0.22
0.9	0.08	66.66	328.02	0.22
0.9	0.08	79.99	332.44	0.22
0.9	0.08	93.32	336.27	0.23
0.9	0.095	40	316.79	0.19
0.9	0.095	53.33	323.24	0.22
0.9	0.095	66.66	328.45	0.22
0.9	0.095	79.99	332.84	0.22
0.9	0.095	93.32	336.66	0.23
0.95	0.045	40	316.21	0.19
0.95	0.045	53.33	322.65	0.22
0.95	0.045	66.66	327.86	0.22
0.95	0.045	79.99	332.26	0.22
0.95	0.045	93.32	336.08	0.23
