Measured thermophysical data. Interfacial Tension of Toluene + Water + Sodium Dodecyl Sulfate from (20 to 50) degC and pH between 4 and 9
Source: J. Chem. Eng. Data, 2006, 10.1021/je060204g
Compound 1: water, H2O, InChI=1S/H2O/h1H2
Compound 2: toluene, C7H8, InChI=1S/C7H8/c1-7-5-3-2-4-6-7/h2-6H,1H3

System: toluene + water; phases: Liquid mixture 1, Liquid mixture 2
Fixed: Pressure, kPa = 101
Property: Interfacial tension, N/m (Liquid mixture 1); method: Drop weight
Temperature, K	Interfacial tension, N/m	uncertainty
293.15	0.0371	0.0005
298.15	0.0361	0.0005
303.15	0.0355	0.0005
308.15	0.0351	0.0004
313.15	0.0347	0.0004
323.15	0.0343	0.0004
