Measured thermophysical data. Ternary Isobaric Vapor-Liquid Equilibria of Methanol + N-Methyldiethanolamine + Water and Methanol + 2-Amino-2-methyl-1-propanol + Water Systems
Source: J. Chem. Eng. Data, 2007, 10.1021/je060396f
Compound 1: water, H2O, InChI=1S/H2O/h1H2
Compound 2: methanol, CH4O, InChI=1S/CH4O/c1-2/h2H,1H3
Compound 3: N-methyldiethanolamine, C5H13NO2, InChI=1S/C5H13NO2/c1-6(2-4-7)3-5-8/h7-8H,2-5H2,1H3
Compound 4: 2-amino-2-methylpropan-1-ol, C4H11NO, InChI=1S/C4H11NO/c1-4(2,5)3-6/h6H,3,5H2,1-2H3

System: 2-amino-2-methylpropan-1-ol; phases: Liquid, Gas
Property: Vapor or sublimation pressure, kPa (Liquid); method: EBULLIO:UFactor:2
Temperature, K	Vapor or sublimation pressure, kPa	uncertainty
364.11	5	0.05
377.39	10	0.06
392.71	20	0.09
402.56	30	0.14
415.99	50	0.18
425.48	70	0.22

System: methanol + 2-amino-2-methylpropan-1-ol; phases: Liquid, Gas
Property: Boiling temperature at pressure P, K (Liquid); method: EBULLIO:UFactor:2
Pressure, kPa	Mole fraction of 2-amino-2-methylpropan-1-ol	Boiling temperature at pressure P, K	uncertainty
30	0.0954	311.89	0.23
30	0.2377	317.81	0.23
30	0.5075	330.56	0.18
30	0.7404	350.9	0.21
30	0.8919	371.93	0.32
50	0.0954	323.23	0.29
50	0.2377	329.43	0.3
50	0.5075	342.84	0.32
50	0.7404	364.27	0.35
50	0.8919	388.01	0.45
70	0.0954	331.18	0.28
70	0.2377	337.66	0.28
70	0.5075	351.95	0.33
70	0.7404	373.74	0.34
70	0.8919	401.3	0.45
90	0.0954	337.43	0.3
90	0.5075	359.07	0.39
90	0.7404	381.19	0.42
90	0.8919	410.15	0.35
101.33	0.0954	340.4	0.29
101.33	0.2377	347.73	0.37
101.33	0.5075	362.76	0.68
101.33	0.7404	384.72	0.85
101.33	0.8919	411.64	0.15

System: N-methyldiethanolamine + water; phases: Liquid, Gas
Property: Boiling temperature at pressure P, K (Liquid); method: EBULLIO:UFactor:2
Pressure, kPa	Mole fraction of water	Boiling temperature at pressure P, K	uncertainty
10	0.0573	394.14	0.21
10	0.2035	358.79	0.19
10	0.3983	341.62	0.21
30	0.2035	388.38	0.35
30	0.3983	366.35	0.31
50	0.2035	403.03	0.35
50	0.3983	380.05	0.28
70	0.3983	389.75	0.28
90	0.3983	397.18	0.57

System: methanol + 2-amino-2-methylpropan-1-ol + water; phases: Liquid, Gas
Property: Boiling temperature at pressure P, K (Liquid); method: EBULLIO:UFactor:2
Pressure, kPa	Mole fraction of water	Mole fraction of 2-amino-2-methylpropan-1-ol	Boiling temperature at pressure P, K	uncertainty
30	0.1951	0.3903	329.94	0.24
30	0.3003	0.3893	334.35	0.24
30	0.386	0.3803	336.7	0.25
30	0.3926	0.1948	324.34	0.23
30	0.3958	0.2931	330.37	0.23
30	0.4991	0.2904	334.99	0.24
30	0.5932	0.198	331.66	0.24
50	0.1951	0.3903	341.71	0.31
50	0.3003	0.3893	346.18	0.31
50	0.386	0.3803	348.89	0.31
50	0.3926	0.1948	335.97	0.3
50	0.3958	0.2931	342.3	0.31
50	0.4991	0.2904	347	0.31
50	0.5932	0.198	343.61	0.31
70	0.1951	0.3903	350.1	0.36
70	0.3003	0.3893	355.09	0.31
70	0.386	0.3803	357.31	0.3
70	0.3926	0.1948	344.3	0.3
70	0.3958	0.2931	350.77	0.3
70	0.4991	0.2904	355.63	0.31
70	0.5932	0.198	352.1	0.31
90	0.1951	0.3903	356.93	0.43
90	0.3003	0.3893	361.72	0.32
90	0.386	0.3803	363.97	0.32
90	0.3926	0.1948	350.79	0.31
90	0.3958	0.2931	357.4	0.33
90	0.4991	0.2904	362.39	0.33
90	0.5932	0.198	358.73	0.32
101.33	0.1951	0.3903	360.27	0.48
101.33	0.3003	0.3893	365.01	0.29
101.33	0.386	0.3803	367.25	0.33
101.33	0.3926	0.1948	353.97	0.31
101.33	0.3958	0.2931	360.67	0.37
101.33	0.4991	0.2904	365.64	0.32
101.33	0.5932	0.198	361.93	0.32

System: methanol + N-methyldiethanolamine + water; phases: Liquid, Gas
Property: Boiling temperature at pressure P, K (Liquid); method: Ebulliometric method (Recirculating still)
Pressure, kPa	Mole fraction of water	Mole fraction of N-methyldiethanolamine	Boiling temperature at pressure P, K	uncertainty
30	0.1999	0.3975	328.01	0.14
30	0.2997	0.3937	332.38	0.14
30	0.3451	0.2205	323.4	0.14
30	0.3894	0.3868	337.23	0.14
30	0.4124	0.2943	330.13	0.14
30	0.51	0.2904	334.58	0.14
30	0.6001	0.1991	330.79	0.14
50	0.1999	0.3975	340.69	0.16
50	0.2997	0.3937	345.2	0.16
50	0.3451	0.2205	335.19	0.16
50	0.3894	0.3868	348.76	0.16
50	0.4124	0.2943	342.92	0.17
50	0.51	0.2904	346.97	0.16
50	0.6001	0.1991	342.85	0.16
70	0.1999	0.3975	349.78	0.18
70	0.2997	0.3937	353.68	0.16
70	0.3451	0.2205	343.73	0.16
70	0.3894	0.3868	357.61	0.16
70	0.4124	0.2943	352.05	0.16
70	0.51	0.2904	356.52	0.17
70	0.6001	0.1991	351.46	0.16
90	0.1999	0.3975	357.89	0.21
90	0.2997	0.3937	360.74	0.17
90	0.3451	0.2205	350.31	0.16
90	0.3894	0.3868	364.77	0.17
90	0.4124	0.2943	359	0.16
90	0.51	0.2904	363.94	0.18
90	0.6001	0.1991	358.23	0.17
101.33	0.1999	0.3975	361.76	0.22
101.33	0.2997	0.3937	364.04	0.19
101.33	0.3451	0.2205	353.2	0.15
101.33	0.3894	0.3868	368.16	0.17
101.33	0.4124	0.2943	361.8	0.15
101.33	0.51	0.2904	367.47	0.18
101.33	0.6001	0.1991	361.5	0.17
