Measured thermophysical data. Isobaric Vapor-Liquid Equilibria of the Ternary System Dibutyl Ether + 1-Pentanol + Nonane
Source: J. Chem. Eng. Data, 2006, 10.1021/je060237w
Compound 1: nonane, C9H20, InChI=1S/C9H20/c1-3-5-7-9-8-6-4-2/h3-9H2,1-2H3
Compound 2: pentan-1-ol, C5H12O, InChI=1S/C5H12O/c1-2-3-4-5-6/h6H,2-5H2,1H3
Compound 3: dibutyl ether, C8H18O, InChI=1S/C8H18O/c1-3-5-7-9-8-6-4-2/h3-8H2,1-2H3

System: nonane; phases: Liquid
Property: Refractive index (Na D-line) (Liquid); method: Standard Abbe refractometry
Temperature, K	Pressure, kPa	Refractive index (Na D-line)	uncertainty
293.15	101.325	1.4055	0.0007

System: nonane; phases: Liquid
Property: Mass density, kg/m3 (Liquid); method: VIBTUB:UFactor:4
Temperature, K	Pressure, kPa	Mass density, kg/m3	uncertainty
293.15	101.325	717.6	0.7

System: nonane; phases: Liquid, Gas
Property: Vapor or sublimation pressure, kPa (Liquid); method: Ebulliometric method (Recirculating still)
Temperature, K	Vapor or sublimation pressure, kPa	uncertainty
379.88	26.66	0.25
401.28	53.33	0.3
415.26	79.99	0.42
423.97	101.32	0.49

System: pentan-1-ol; phases: Liquid
Property: Refractive index (Na D-line) (Liquid); method: Standard Abbe refractometry
Temperature, K	Pressure, kPa	Refractive index (Na D-line)	uncertainty
293.15	101.325	1.4098	0.0007

System: pentan-1-ol; phases: Liquid
Property: Mass density, kg/m3 (Liquid); method: VIBTUB:UFactor:4
Temperature, K	Pressure, kPa	Mass density, kg/m3	uncertainty
293.15	101.325	814.5	0.6

System: pentan-1-ol; phases: Liquid, Gas
Property: Vapor or sublimation pressure, kPa (Liquid); method: Ebulliometric method (Recirculating still)
Temperature, K	Vapor or sublimation pressure, kPa	uncertainty
375.63	26.66	0.31
392.7	53.33	0.37
403.8	79.99	0.53
410.86	101.32	0.61

System: dibutyl ether; phases: Liquid
Property: Refractive index (Na D-line) (Liquid); method: Standard Abbe refractometry
Temperature, K	Pressure, kPa	Refractive index (Na D-line)	uncertainty
293.15	101.325	1.3992	0.0007

System: dibutyl ether; phases: Liquid
Property: Mass density, kg/m3 (Liquid); method: VIBTUB:UFactor:4
Temperature, K	Pressure, kPa	Mass density, kg/m3	uncertainty
293.15	101.325	768.9	0.6

System: dibutyl ether; phases: Liquid, Gas
Property: Vapor or sublimation pressure, kPa (Liquid); method: Ebulliometric method (Recirculating still)
Temperature, K	Vapor or sublimation pressure, kPa	uncertainty
371.73	26.66	0.26
392.61	53.33	0.31
406.15	79.99	0.43
414.66	101.32	0.5

System: nonane + dibutyl ether; phases: Liquid, Gas
Property: Boiling temperature at pressure P, K (Liquid); method: Ebulliometric method (Recirculating still)
Pressure, kPa	Mole fraction of dibutyl ether	Boiling temperature at pressure P, K	uncertainty
26.66	0	379.88	0.15
26.66	0.155	378.33	0.15
26.66	0.295	376.95	0.15
26.66	0.406	376.05	0.15
26.66	0.498	375.26	0.15
26.66	0.599	374.53	0.15
26.66	0.698	373.82	0.15
26.66	0.796	373.07	0.15
26.66	1	371.73	0.15
53.33	0	401.28	0.18
53.33	0.155	399.66	0.18
53.33	0.295	398.15	0.18
53.33	0.406	397.15	0.18
53.33	0.498	396.36	0.18
53.33	0.599	395.54	0.18
53.33	0.698	394.76	0.18
53.33	0.796	394	0.18
53.33	1	392.61	0.18
79.99	0	415.26	0.18
79.99	0.155	413.53	0.18
79.99	0.295	412	0.18
79.99	0.406	410.92	0.18
79.99	0.498	410.08	0.18
79.99	0.599	409.23	0.18
79.99	0.698	408.39	0.18
79.99	0.796	407.66	0.18
79.99	1	406.15	0.18
101.32	0	423.97	0.19
101.32	0.155	422.2	0.19
101.32	0.295	420.59	0.19
101.32	0.406	419.55	0.19
101.32	0.498	418.59	0.19
101.32	0.599	417.78	0.19
101.32	0.698	416.78	0.19
101.32	0.796	416.09	0.19
101.32	1	414.66	0.19

System: pentan-1-ol + dibutyl ether; phases: Liquid, Gas
Property: Azeotropic temperature, K (Liquid); method: By T(X) extreme
Pressure, kPa	Azeotropic temperature, K	uncertainty
26.66	368	0.2
53.33	387.1	0.2
79.99	399.3	0.2
101.32	406.9	0.2

System: pentan-1-ol + dibutyl ether; phases: Liquid, Gas
Property: Azeotropic composition: mole fraction of dibutyl ether (Liquid); method: By T or P extreme
Pressure, kPa	Azeotropic composition: mole fraction of dibutyl ether	uncertainty
26.66	0.638	0.005
53.33	0.535	0.007
79.99	0.471	0.007
101.32	0.434	0.006

System: pentan-1-ol + dibutyl ether; phases: Liquid, Gas
Property: Boiling temperature at pressure P, K (Liquid); method: Ebulliometric method (Recirculating still)
Pressure, kPa	Mole fraction of dibutyl ether	Boiling temperature at pressure P, K	uncertainty
26.66	0	375.63	0.13
26.66	0.15	371.73	0.14
26.66	0.284	369.62	0.14
26.66	0.39	368.79	0.14
26.66	0.486	368.19	0.14
26.66	0.594	367.98	0.14
26.66	0.698	368.04	0.14
26.66	0.798	368.59	0.14
26.66	0.898	369.62	0.14
26.66	1	371.73	0.15
53.33	0	392.7	0.16
53.33	0.15	389.74	0.16
53.33	0.284	388.03	0.16
53.33	0.39	387.44	0.17
53.33	0.486	387.07	0.17
53.33	0.594	387.09	0.17
53.33	0.698	387.36	0.17
53.33	0.798	388.43	0.17
53.33	0.898	389.9	0.18
53.33	1	392.61	0.18
79.99	0	403.8	0.16
79.99	0.15	401.29	0.16
79.99	0.284	399.92	0.17
79.99	0.39	399.48	0.17
79.99	0.486	399.3	0.17
79.99	0.594	399.53	0.17
79.99	0.698	400.03	0.17
79.99	0.798	401.41	0.18
79.99	0.898	403.2	0.18
79.99	1	406.15	0.18
101.32	0	410.86	0.17
101.32	0.15	408.48	0.17
101.32	0.284	407.29	0.17
101.32	0.39	406.94	0.17
101.32	0.486	406.88	0.18
101.32	0.594	407.22	0.18
101.32	0.698	407.93	0.18
101.32	0.798	409.57	0.19
101.32	0.898	411.48	0.19
101.32	1	414.66	0.19

System: pentan-1-ol + nonane; phases: Liquid, Gas
Fixed: Pressure, kPa = 101.32
Property: Boiling temperature at pressure P, K (Liquid); method: Ebulliometric method (Recirculating still)
Mole fraction of pentan-1-ol	Boiling temperature at pressure P, K	uncertainty
0	423.97	0.13
0.15	412.69	0.15
0.189	410.93	0.13
0.267	408.61	0.13
0.401	406.89	0.13
0.501	406.15	0.13
0.605	405.95	0.13
0.693	406	0.13
0.803	406.58	0.13
0.9	408.03	0.13
1	410.86	0.13

System: pentan-1-ol + nonane + dibutyl ether; phases: Liquid, Gas
Property: Boiling temperature at pressure P, K (Liquid); method: Ebulliometric method (Recirculating still)
Pressure, kPa	Mole fraction of dibutyl ether	Mole fraction of pentan-1-ol	Boiling temperature at pressure P, K	uncertainty
26.66	0.107	0.298	368.75	0.46
26.66	0.118	0.118	371.17	0.49
26.66	0.121	0.242	369.27	0.47
26.66	0.14	0.574	368.13	0.45
26.66	0.207	0.414	368.08	0.44
26.66	0.207	0.689	369.14	0.44
26.66	0.238	0.238	368.79	0.46
26.66	0.24	0.12	370.78	0.49
26.66	0.282	0.566	368.32	0.45
26.66	0.325	0.513	368.36	0.45
26.66	0.331	0.332	368.19	0.46
26.66	0.378	0.188	369.24	0.48
26.66	0.548	0.178	369.28	0.48
26.66	0.554	0.276	368.22	0.47
26.66	0.727	0.091	370.25	0.49
26.66	0.751	0.166	368.9	0.48
53.33	0.107	0.298	387.93	0.75
53.33	0.118	0.118	391.82	0.8
53.33	0.121	0.242	388.86	0.67
53.33	0.14	0.574	386.68	0.72
53.33	0.207	0.414	387.07	0.74
53.33	0.207	0.689	387.57	0.71
53.33	0.238	0.238	388.33	0.76
53.33	0.24	0.12	391.33	0.8
53.33	0.282	0.566	387.1	0.88
53.33	0.325	0.513	387.12	0.73
53.33	0.331	0.332	387.35	0.75
53.33	0.378	0.188	389.23	0.78
53.33	0.548	0.178	389.31	0.78
53.33	0.554	0.276	387.74	0.76
53.33	0.727	0.091	390.8	0.8
53.33	0.751	0.166	388.79	0.78
79.99	0.107	0.298	400.54	0.82
79.99	0.118	0.118	405.31	0.86
79.99	0.14	0.574	398.74	0.77
79.99	0.207	0.414	399.4	0.79
79.99	0.207	0.689	399.44	0.76
79.99	0.238	0.238	401.16	0.83
79.99	0.24	0.12	404.77	0.86
79.99	0.325	0.513	399.3	0.78
79.99	0.331	0.332	399.9	0.8
79.99	0.378	0.188	402.3	0.83
79.99	0.548	0.178	402.41	0.84
79.99	0.554	0.276	400.51	0.82
79.99	0.727	0.091	404.16	0.85
79.99	0.751	0.166	401.91	0.84
101.32	0.107	0.298	408.47	1.06
101.32	0.118	0.118	413.86	0.95
101.32	0.14	0.574	406.26	0.84
101.32	0.207	0.414	407.05	0.94
101.32	0.207	0.689	406.84	0.82
101.32	0.238	0.238	409.22	1
101.32	0.24	0.12	413.23	0.94
101.32	0.325	0.513	406.95	0.85
101.32	0.331	0.332	407.73	0.87
101.32	0.378	0.188	410.45	0.91
101.32	0.548	0.178	410.71	0.89
101.32	0.554	0.276	408.5	0.89
101.32	0.727	0.091	412.59	0.94
101.32	0.751	0.166	410.13	0.91
