Measured thermophysical data. Measurement and Correlation of Vapor-Liquid Equilibria at T ) 333.15 K and Excess Molar Volumes at T ) 298.15 K for Ethanol + Dimethyl Carbonate (DMC), DMC + 1-Propanol, and DMC + 1-Butanol
Source: J. Chem. Eng. Data, 2006, 10.1021/je060217u
Compound 1: ethanol, C2H6O, InChI=1S/C2H6O/c1-2-3/h3H,2H2,1H3, purity 99.8%
Compound 2: dimethyl carbonate, C3H6O3, InChI=1S/C3H6O3/c1-5-3(4)6-2/h1-2H3, purity 99.8%
Compound 3: propan-1-ol, C3H8O, InChI=1S/C3H8O/c1-2-3-4/h4H,2-3H2,1H3, purity 99.8%
Compound 4: butan-1-ol, C4H10O, InChI=1S/C4H10O/c1-2-3-4-5/h5H,2-4H2,1H3, purity 99.8%

System: ethanol; phases: Liquid
Property: Mass density, kg/m3 (Liquid); method: VIBTUB:UFactor:4
Pressure, kPa	Temperature, K	Mass density, kg/m3	uncertainty
101	298.15	785.2	0.6

System: dimethyl carbonate; phases: Liquid
Property: Mass density, kg/m3 (Liquid); method: VIBTUB::UFactor:4
Pressure, kPa	Temperature, K	Mass density, kg/m3	uncertainty
101	298.15	1063.19	0.31

System: propan-1-ol; phases: Liquid
Property: Mass density, kg/m3 (Liquid); method: VIBTUB::UFactor:4
Pressure, kPa	Temperature, K	Mass density, kg/m3	uncertainty
101	298.15	799.75	0.57

System: butan-1-ol; phases: Liquid
Property: Mass density, kg/m3 (Liquid); method: VIBTUB::UFactor:4
Pressure, kPa	Temperature, K	Mass density, kg/m3	uncertainty
101	298.15	806.04	0.56

System: ethanol + dimethyl carbonate; phases: Liquid
Fixed: Pressure, kPa = 101
Fixed: Temperature, K = 298.15
Property: Mass density, kg/m3 (Liquid); method: VIBTUB:UFactor:4
Mole fraction of ethanol	Mass density, kg/m3	uncertainty
0	1063.19	0.31
0.0501	1052.75	0.29
0.1	1042.29	0.27
0.1501	1031.54	0.25
0.1998	1020.64	0.24
0.2498	1009.34	0.22
0.2998	997.73	0.21
0.3501	985.68	0.24
0.4002	973.28	0.26
0.4499	960.59	0.29
0.5	947.4	0.32
0.55	933.74	0.34
0.6001	919.57	0.36
0.65	905	0.38
0.6999	889.89	0.41
0.7499	874.1	0.43
0.8001	857.71	0.46
0.8498	840.7	0.49
0.8998	822.98	0.53
0.95	804.45	0.56
1	785.2	0.6

System: ethanol + dimethyl carbonate; phases: Gas, Liquid
Fixed: Temperature, K = 333.15
Property: Mole fraction of ethanol (Gas); method: Chromatography
Mole fraction of ethanol	Mole fraction of ethanol	uncertainty
0.017	0.0649	0.02
0.0343	0.1194	0.02
0.1004	0.2673	0.0201
0.1492	0.3468	0.0202
0.1994	0.3963	0.0203
0.2495	0.4236	0.0203
0.3001	0.4697	0.0204
0.3492	0.5134	0.0204
0.4496	0.5453	0.0204
0.5003	0.5766	0.0203
0.5499	0.6115	0.0203
0.5995	0.6303	0.0203
0.6502	0.6529	0.0202
0.7002	0.662	0.0202
0.75	0.7132	0.0202
0.7999	0.7472	0.0201
0.8501	0.7756	0.0201
0.9002	0.8226	0.0201
0.9502	0.8877	0.02
0.9659	0.9174	0.02
0.9831	0.9576	0.02

System: propan-1-ol + dimethyl carbonate; phases: Liquid
Fixed: Pressure, kPa = 101
Fixed: Temperature, K = 298.15
Property: Mass density, kg/m3 (Liquid); method: VIBTUB:UFactor:4
Mole fraction of propan-1-ol	Mass density, kg/m3	uncertainty
0	1063.19	0.31
0.0501	1050.5	0.29
0.1002	1037.73	0.27
0.1498	1025.44	0.24
0.1999	1012.47	0.22
0.2502	999.85	0.21
0.2999	987.13	0.23
0.3498	974.39	0.26
0.3998	961.45	0.28
0.4499	948.47	0.31
0.5001	935.29	0.34
0.55	922.19	0.35
0.6	908.92	0.37
0.6501	895.57	0.4
0.7001	882.18	0.42
0.75	868.68	0.44
0.8002	855.15	0.47
0.8501	841.36	0.49
0.9002	827.59	0.52
0.9502	813.83	0.54
1	799.75	0.57

System: propan-1-ol + dimethyl carbonate; phases: Gas, Liquid
Fixed: Temperature, K = 333.15
Property: Mole fraction of propan-1-ol (Gas); method: Chromatography
Mole fraction of propan-1-ol	Mole fraction of propan-1-ol	uncertainty
0.0169	0.1004	0.02
0.0337	0.1754	0.0201
0.0497	0.2287	0.0201
0.0999	0.3461	0.0202
0.1497	0.415	0.0203
0.1998	0.4669	0.0204
0.2496	0.5023	0.0205
0.2997	0.5115	0.0204
0.3496	0.5623	0.0204
0.3997	0.5813	0.0203
0.4496	0.6077	0.0203
0.4999	0.6224	0.0203
0.5498	0.6405	0.0202
0.5998	0.6516	0.0202
0.6502	0.6843	0.0202
0.6998	0.7093	0.0202
0.7501	0.7388	0.0201
0.8002	0.7733	0.0201
0.8498	0.8143	0.0201
0.9	0.8642	0.02
0.9498	0.9231	0.02
0.9662	0.9488	0.02
0.983	0.9715	0.02

System: butan-1-ol + dimethyl carbonate; phases: Liquid
Fixed: Pressure, kPa = 101
Fixed: Temperature, K = 298.15
Property: Mass density, kg/m3 (Liquid); method: VIBTUB:UFactor:4
Mole fraction of butan-1-ol	Mass density, kg/m3	uncertainty
0	1063.19	0.31
0.0502	1047.97	0.28
0.0999	1033.24	0.26
0.1499	1018.51	0.23
0.2003	1004.53	0.21
0.2501	990.53	0.22
0.2998	976.9	0.25
0.3499	963.39	0.27
0.4	950.13	0.3
0.4501	937.02	0.33
0.5	924.2	0.35
0.55	911.58	0.37
0.6	899.07	0.39
0.65	886.83	0.41
0.7	874.68	0.43
0.7499	862.98	0.45
0.7999	851.07	0.47
0.85	839.53	0.49
0.8999	828.11	0.52
0.9499	817	0.54
1	806.04	0.56

System: butan-1-ol + dimethyl carbonate; phases: Gas, Liquid
Fixed: Temperature, K = 333.15
Property: Mole fraction of butan-1-ol (Gas); method: Chromatography
Mole fraction of butan-1-ol	Mole fraction of butan-1-ol	uncertainty
0.0169	0.1935	0.0201
0.034	0.3319	0.0202
0.05	0.3795	0.0203
0.098	0.5688	0.0203
0.1505	0.6168	0.0203
0.2007	0.6624	0.0202
0.2511	0.6984	0.0202
0.3012	0.7373	0.0201
0.3513	0.7745	0.0201
0.4015	0.7739	0.0201
0.4514	0.7976	0.0201
0.5014	0.8089	0.0201
0.5515	0.827	0.0201
0.6015	0.8418	0.02
0.6514	0.8543	0.02
0.7014	0.8659	0.02
0.7512	0.8833	0.02
0.8012	0.8983	0.02
0.8509	0.9228	0.02
0.9006	0.9397	0.02
0.9505	0.9677	0.02
0.9663	0.9793	0.02
0.983	0.9894	0.0106
