Measured thermophysical data. Determination of Thermal Diffusivities, Thermal Conductivities, and Sound Speeds of Room-Temperature Ionic Liquids by the Transient Grating Technique
Source: J. Chem. Eng. Data, 2006, 10.1021/je0600092
Compound 1: 1-ethyl-3-methylimidazolium bis((trifluoromethyl)sulfonyl)imide, C8H11F6N3O4S2, InChI=1S/C6H11N2.C2F6NO4S2/c1-3-8-5-4-7(2)6-8;3-1(4,5)14(10,11)9-15(12,13)2(6,7)8/h4-6H,3H2,1-2H3;/q+1;-1
Compound 2: 1-butyl-3-methylimidazolium bis(trifluoromethylsulfonyl)imide, C10H15F6N3O4S2, InChI=1S/C8H15N2.C2F6NO4S2/c1-3-4-5-10-7-6-9(2)8-10;3-1(4,5)14(10,11)9-15(12,13)2(6,7)8/h6-8H,3-5H2,1-2H3;/q+1;-1
Compound 3: 1-butyl-3-methylimidazolium tetrafluoroborate, C8H15BF4N2, InChI=1S/C8H15N2.BF4/c1-3-4-5-10-7-6-9(2)8-10;2-1(3,4)5/h6-8H,3-5H2,1-2H3;/q+1;-1
Compound 4: 1-butyl-3-methylimidazolium hexafluorophosphate, C8H15F6N2P, InChI=1S/C8H15N2.F6P/c1-3-4-5-10-7-6-9(2)8-10;1-7(2,3,4,5)6/h6-8H,3-5H2,1-2H3;/q+1;-1
Compound 5: 1-octyl-3-methylimidazolium bis[(trifluoromethyl)sulfonyl]imide, C14H23F6N3O4S2, InChI=1S/C12H23N2.C2F6NO4S2/c1-3-4-5-6-7-8-9-14-11-10-13(2)12-14;3-1(4,5)14(10,11)9-15(12,13)2(6,7)8/h10-12H,3-9H2,1-2H3;/q+1;-1
Compound 6: 1-hexyl-3-methylimidazolium bis[(trifluoromethyl)sulfonyl]imide, C12H19F6N3O4S2, InChI=1S/C10H19N2.C2F6NO4S2/c1-3-4-5-6-7-12-9-8-11(2)10-12;3-1(4,5)14(10,11)9-15(12,13)2(6,7)8/h8-10H,3-7H2,1-2H3;/q+1;-1
Compound 7: 1-methyl-3-pentylimidazolium bis(trifluoromethylsulfonyl)imide, C11H17F6N3O4S2, InChI=1S/C9H17N2.C2F6NO4S2/c1-3-4-5-6-11-8-7-10(2)9-11;3-1(4,5)14(10,11)9-15(12,13)2(6,7)8/h7-9H,3-6H2,1-2H3;/q+1;-1

System: 1-ethyl-3-methylimidazolium bis((trifluoromethyl)sulfonyl)imide; phases: Liquid
Property: Thermal diffusivity, m2/s (Liquid); method: Optical interferometry
Temperature, K	Pressure, kPa	Thermal diffusivity, m2/s	uncertainty
293.15	101.325	6.01e-08	2.9e-09

System: 1-ethyl-3-methylimidazolium bis((trifluoromethyl)sulfonyl)imide; phases: Liquid
Property: Speed of sound, m/s (Liquid); method: Light diffraction method
Temperature, K	Pressure, kPa	Speed of sound, m/s	uncertainty
293.15	101.325	1240	10

System: 1-butyl-3-methylimidazolium bis(trifluoromethylsulfonyl)imide; phases: Liquid
Property: Thermal diffusivity, m2/s (Liquid); method: Optical interferometry
Temperature, K	Pressure, kPa	Thermal diffusivity, m2/s	uncertainty
293.15	101.325	6e-08	3e-09

System: 1-butyl-3-methylimidazolium bis(trifluoromethylsulfonyl)imide; phases: Liquid
Property: Speed of sound, m/s (Liquid); method: Light diffraction method
Temperature, K	Pressure, kPa	Speed of sound, m/s	uncertainty
293.15	101.325	1227	13

System: 1-butyl-3-methylimidazolium tetrafluoroborate; phases: Liquid
Property: Thermal diffusivity, m2/s (Liquid); method: Optical interferometry
Temperature, K	Pressure, kPa	Thermal diffusivity, m2/s	uncertainty
293.15	101.325	8.6e-08	4e-09

System: 1-butyl-3-methylimidazolium tetrafluoroborate; phases: Liquid
Property: Speed of sound, m/s (Liquid); method: Light diffraction method
Temperature, K	Pressure, kPa	Speed of sound, m/s	uncertainty
293.15	101.325	1564	10

System: 1-butyl-3-methylimidazolium hexafluorophosphate; phases: Liquid
Property: Thermal diffusivity, m2/s (Liquid); method: Optical interferometry
Temperature, K	Pressure, kPa	Thermal diffusivity, m2/s	uncertainty
293.15	101.325	7.5e-08	5e-09

System: 1-butyl-3-methylimidazolium hexafluorophosphate; phases: Liquid
Property: Speed of sound, m/s (Liquid); method: Light diffraction method
Temperature, K	Pressure, kPa	Speed of sound, m/s	uncertainty
293.15	101.325	1441	11

System: 1-octyl-3-methylimidazolium bis[(trifluoromethyl)sulfonyl]imide; phases: Liquid
Property: Thermal diffusivity, m2/s (Liquid); method: Optical interferometry
Temperature, K	Pressure, kPa	Thermal diffusivity, m2/s	uncertainty
293.15	101.325	6.1e-08	5e-09

System: 1-octyl-3-methylimidazolium bis[(trifluoromethyl)sulfonyl]imide; phases: Liquid
Property: Speed of sound, m/s (Liquid); method: Light diffraction method
Temperature, K	Pressure, kPa	Speed of sound, m/s	uncertainty
293.15	101.325	1232	11

System: 1-hexyl-3-methylimidazolium bis[(trifluoromethyl)sulfonyl]imide; phases: Liquid
Property: Thermal diffusivity, m2/s (Liquid); method: Optical interferometry
Temperature, K	Pressure, kPa	Thermal diffusivity, m2/s	uncertainty
293.15	101.325	6.06e-08	3.2e-09

System: 1-hexyl-3-methylimidazolium bis[(trifluoromethyl)sulfonyl]imide; phases: Liquid
Property: Speed of sound, m/s (Liquid); method: Light diffraction method
Temperature, K	Pressure, kPa	Speed of sound, m/s	uncertainty
293.15	101.325	1232	11

System: 1-methyl-3-pentylimidazolium bis(trifluoromethylsulfonyl)imide; phases: Liquid
Property: Thermal diffusivity, m2/s (Liquid); method: Optical interferometry
Temperature, K	Pressure, kPa	Thermal diffusivity, m2/s	uncertainty
298.15	101.325	5.8e-08	3e-09

System: 1-methyl-3-pentylimidazolium bis(trifluoromethylsulfonyl)imide; phases: Liquid
Property: Speed of sound, m/s (Liquid); method: Light diffraction method
Temperature, K	Pressure, kPa	Speed of sound, m/s	uncertainty
298.15	101.325	1227	7
