Measured thermophysical data. Vapor-Liquid Equilibrium Data for the Ethane + Trifluoromethane System at Temperatures from (188.31 to 243.76) K
Source: J. Chem. Eng. Data, 2006, 10.1021/je0601107
Compound 1: ethane, C2H6, InChI=1S/C2H6/c1-2/h1-2H3, purity 99.95%
Compound 2: trifluoromethane, CHF3, InChI=1S/CHF3/c2-1(3)4/h1H, purity 99.97%

System: ethane; phases: Liquid, Gas
Property: Vapor or sublimation pressure, kPa (Liquid); method: Ebulliometric method (Recirculating still)
Temperature, K	Vapor or sublimation pressure, kPa	uncertainty
188.31	123.8	4
193.28	159	4
198.66	204.7	4.1
212.84	374.3	4.2
228.5	665.4	4.7
243.76	1084	5.6

System: trifluoromethane; phases: Liquid, Gas
Property: Vapor or sublimation pressure, kPa (Liquid); method: Ebulliometric method (Recirculating still)
Temperature, K	Vapor or sublimation pressure, kPa	uncertainty
188.31	85.4	4
193.28	115.2	4
198.66	153.3	4
212.84	307.8	4.2
228.5	591.5	4.6
243.76	1028	5.5

System: ethane + trifluoromethane; phases: Liquid, Gas
Property: Azeotropic pressure, kPa (Liquid); method: By X=Y
Temperature, K	Azeotropic pressure, kPa	uncertainty
188.31	190.8	4.1
193.28	243.9	4.2
198.66	313.4	4.3
212.84	568.5	4.8
228.5	1003.1	6
243.76	1625.9	8.1

System: ethane + trifluoromethane; phases: Liquid, Gas
Property: Azeotropic composition: mole fraction of ethane (Liquid); method: By X=Y
Temperature, K	Azeotropic composition: mole fraction of ethane	uncertainty
188.31	0.5874	0.0058
193.28	0.5805	0.0058
198.66	0.5728	0.0059
212.84	0.554	0.006
228.5	0.5337	0.0061
243.76	0.517	0.0063

System: ethane + trifluoromethane; phases: Liquid, Gas
Property: Vapor or sublimation pressure, kPa (Liquid); method: Ebulliometric method (Recirculating still)
Mole fraction of ethane	Temperature, K	Vapor or sublimation pressure, kPa	uncertainty
0	188.31	85.4	4
0	193.28	115.2	4
0	198.66	153.3	4
0	212.84	307.8	4.2
0	228.5	591.5	4.6
0	243.76	1028	5.5
0.0871	212.84	469.1	5.6
0.0941	198.66	273.5	4.6
0.1037	193.28	216.2	4.4
0.1182	243.76	1389.6	10.1
0.1208	228.5	864.1	6.8
0.1439	188.31	179.8	4.3
0.2468	212.84	546.1	4.7
0.2617	243.76	1548.1	7.5
0.2717	198.66	306.4	4.2
0.2774	188.31	189.9	4.1
0.2858	228.5	968.8	5.5
0.2861	193.28	241.2	4.1
0.3925	212.84	564.4	4.6
0.3936	188.31	191.4	4.1
0.3962	198.66	312.1	4.2
0.4022	193.28	244.1	4.1
0.4049	243.76	1609.5	7.1
0.4258	228.5	995.4	5.4
0.4956	243.76	1619.2	7.1
0.5009	228.5	1000.2	5.7
0.5023	188.31	191.5	4.1
0.5063	198.66	313	4.2
0.5069	243.76	1620.6	7.1
0.5114	212.84	568.5	4.6
0.5171	193.28	244.3	4.1
0.5195	243.76	1620.4	7.1
0.5247	228.5	1000.8	6.5
0.5385	228.5	1001.2	13.4
0.5505	212.84	568.9	4.9
0.5687	198.66	313.3	4.3
0.5688	212.84	568.7	5.5
0.5737	193.28	244.4	4.3
0.5753	198.66	313.3	4.3
0.5755	188.31	191.6	4.1
0.5825	193.28	244.5	4.3
0.5919	188.31	191.6	4.1
0.6119	243.76	1610.4	7.3
0.612	212.84	566.5	6.4
0.6164	228.5	998.4	5.6
0.6221	188.31	191.4	4.1
0.6242	198.66	312.5	4.2
0.6319	193.28	244.1	4.1
0.7957	198.66	305.3	4.3
0.7967	193.28	239.7	4.2
0.7968	188.31	189.2	4.1
0.8036	212.84	544.6	4.9
0.8166	228.5	940.8	6.3
0.8255	243.76	1484.9	8.5
1	188.31	123.8	4
1	193.28	159	4
1	198.66	204.7	4.1
1	212.84	374.3	4.2
1	228.5	665.4	4.7
1	243.76	1084	5.6

System: ethane + trifluoromethane; phases: Gas, Liquid
Property: Mole fraction of ethane (Gas); method: Chromatography
Mole fraction of ethane	Temperature, K	Mole fraction of ethane	uncertainty
0	188.31	0	0.0001
0	193.28	0	0.0001
0	198.66	0	0.0001
0	212.84	0	0.0001
0	228.5	0	0.0001
0	243.76	0	0.0001
0.0871	212.84	0.3526	0.0087
0.0941	198.66	0.4468	0.0087
0.1037	193.28	0.488	0.0092
0.1182	243.76	0.2787	0.0076
0.1208	228.5	0.3424	0.0076
0.1439	188.31	0.534	0.0101
0.2468	212.84	0.4791	0.0061
0.2617	243.76	0.3971	0.0059
0.2717	198.66	0.5363	0.0058
0.2774	188.31	0.5699	0.0055
0.2858	228.5	0.453	0.0059
0.2861	193.28	0.5625	0.0056
0.3925	212.84	0.5167	0.0058
0.3936	188.31	0.5795	0.0054
0.3962	198.66	0.5563	0.0055
0.4022	193.28	0.5755	0.0054
0.4049	243.76	0.4721	0.006
0.4258	228.5	0.5037	0.006
0.4956	243.76	0.5043	0.0061
0.5009	228.5	0.5251	0.0058
0.5023	188.31	0.5829	0.0053
0.5063	198.66	0.5661	0.0055
0.5069	243.76	0.51	0.006
0.5114	212.84	0.5422	0.0056
0.5171	193.28	0.5785	0.0054
0.5195	243.76	0.5147	0.0059
0.5247	228.5	0.5317	0.0057
0.5385	228.5	0.5349	0.0057
0.5505	212.84	0.5498	0.0056
0.5687	198.66	0.5714	0.0054
0.5688	212.84	0.5551	0.0056
0.5737	193.28	0.5806	0.0054
0.5753	198.66	0.572	0.0054
0.5755	188.31	0.5844	0.0054
0.5825	193.28	0.5811	0.0054
0.5919	188.31	0.5862	0.0053
0.6119	243.76	0.5537	0.0059
0.612	212.84	0.5644	0.0055
0.6164	228.5	0.5586	0.0057
0.6221	188.31	0.5872	0.0053
0.6242	198.66	0.5768	0.0054
0.6319	193.28	0.5851	0.0054
0.7957	198.66	0.6128	0.007
0.7967	193.28	0.6089	0.007
0.7968	188.31	0.6069	0.0069
0.8036	212.84	0.6274	0.0068
0.8166	228.5	0.646	0.0068
0.8255	243.76	0.673	0.0066
1	188.31	1	0.0001
1	193.28	1	0.0001
1	198.66	1	0.0001
1	212.84	1	0.0001
1	228.5	1	0.0001
1	243.76	1	0.0001
