Measured thermophysical data. Excess Molar Enthalpy, Density, and Speed of Sound for the Mixtures a-Pinene + 1- or 2-Pentanol at (283.15, 298.15, and 313.15) K
Source: J. Chem. Eng. Data, 2006, 10.1021/je060210c
Compound 1: .beta.-pinene, C10H16, InChI=1S/C10H16/c1-7-4-5-8-6-9(7)10(8,2)3/h8-9H,1,4-6H2,2-3H3
Compound 2: pentan-1-ol, C5H12O, InChI=1S/C5H12O/c1-2-3-4-5-6/h6H,2-5H2,1H3
Compound 3: pentan-2-ol, C5H12O, InChI=1S/C5H12O/c1-3-4-5(2)6/h5-6H,3-4H2,1-2H3

System: .beta.-pinene; phases: Liquid
Fixed: Pressure, kPa = 101.325
Property: Speed of sound, m/s (Liquid); method: Sing-around technique in a fixed-path interferometer
Temperature, K	Speed of sound, m/s	uncertainty
283.15	1354.3	1.3
298.15	1295.6	1.3
313.15	1236.3	1.2

System: .beta.-pinene; phases: Liquid
Fixed: Pressure, kPa = 101.325
Property: Mass density, kg/m3 (Liquid); method: VIBTUB:UFactor:8
Temperature, K	Mass density, kg/m3	uncertainty
283.15	879.07	0.77
298.15	867.11	0.8
313.15	854.87	0.83

System: pentan-1-ol; phases: Liquid
Fixed: Pressure, kPa = 101.325
Property: Speed of sound, m/s (Liquid); method: Sing-around technique in a fixed-path interferometer
Temperature, K	Speed of sound, m/s	uncertainty
283.15	1325.9	1.3
298.15	1274.1	1.2
313.15	1225.5	1.2

System: pentan-1-ol; phases: Liquid
Fixed: Pressure, kPa = 101.325
Property: Mass density, kg/m3 (Liquid); method: VIBTUB:UFactor:8
Temperature, K	Mass density, kg/m3	uncertainty
283.15	821.79	0.92
298.15	810.83	0.95
313.15	799.8	0.98

System: pentan-2-ol; phases: Liquid
Fixed: Pressure, kPa = 101.325
Property: Speed of sound, m/s (Liquid); method: Sing-around technique in a fixed-path interferometer
Temperature, K	Speed of sound, m/s	uncertainty
283.15	1286.7	2.1
298.15	1232.6	2.1
313.15	1168.1	2.1

System: pentan-2-ol; phases: Liquid
Fixed: Pressure, kPa = 101.325
Property: Mass density, kg/m3 (Liquid); method: VIBTUB:UFactor:16
Temperature, K	Mass density, kg/m3	uncertainty
283.15	816.77	1.86
298.15	804.97	1.92
313.15	792.42	1.99

System: pentan-1-ol + .beta.-pinene; phases: Liquid
Fixed: Pressure, kPa = 101
Property: Excess molar enthalpy (molar enthalpy of mixing), kJ/mol (Liquid); method: FLOW:UFactor:2
Mole fraction of .beta.-pinene	Temperature, K	Excess molar enthalpy (molar enthalpy of mixing), kJ/mol	uncertainty
0.049	283.15	0.028	0.004
0.049	298.15	0.074	0.005
0.049	313.15	0.107	0.005
0.096	283.15	0.065	0.005
0.096	298.15	0.155	0.005
0.096	313.15	0.224	0.006
0.192	283.15	0.136	0.005
0.192	298.15	0.314	0.007
0.192	313.15	0.443	0.009
0.286	283.15	0.209	0.006
0.286	298.15	0.459	0.009
0.286	313.15	0.647	0.012
0.388	283.15	0.27	0.007
0.388	298.15	0.585	0.011
0.388	313.15	0.812	0.014
0.488	283.15	0.315	0.007
0.488	298.15	0.671	0.012
0.488	313.15	0.926	0.016
0.588	283.15	0.339	0.007
0.588	298.15	0.72	0.013
0.588	313.15	0.989	0.017
0.69	283.15	0.345	0.007
0.69	298.15	0.726	0.013
0.69	313.15	0.994	0.017
0.791	283.15	0.322	0.007
0.791	298.15	0.673	0.012
0.791	313.15	0.929	0.016
0.892	283.15	0.253	0.006
0.892	298.15	0.528	0.01
0.892	313.15	0.762	0.013
0.95	283.15	0.2	0.006
0.95	298.15	0.385	0.008
0.95	313.15	0.536	0.01
0.97	283.15	0.15	0.005
0.97	298.15	0.306	0.007
0.97	313.15	0.399	0.008
0.99	283.15	0.095	0.005
0.99	298.15	0.246	0.007
0.99	313.15	0.137	0.006

System: pentan-1-ol + .beta.-pinene; phases: Liquid
Fixed: Pressure, kPa = 101
Property: Speed of sound, m/s (Liquid); method: Sing-around technique in a fixed-path interferometer
Mole fraction of .beta.-pinene	Temperature, K	Speed of sound, m/s	uncertainty
0.1004	298.15	1275	1.2
0.1023	313.15	1223.7	1.2
0.1075	283.15	1327.7	1.3
0.2007	313.15	1221.7	1.2
0.2016	283.15	1328.9	1.3
0.2024	298.15	1275.5	1.2
0.3016	283.15	1330.6	1.3
0.3049	313.15	1220.9	1.2
0.3081	298.15	1275.8	1.2
0.3975	298.15	1275.9	1.2
0.4019	313.15	1220.4	1.2
0.4028	283.15	1331.6	1.3
0.4982	298.15	1276.4	1.3
0.5024	313.15	1220.6	1.2
0.5026	283.15	1333.2	1.3
0.5976	313.15	1221.2	1.2
0.6021	298.15	1277.9	1.3
0.6034	283.15	1335.1	1.3
0.696	298.15	1279.6	1.3
0.6977	313.15	1222.1	1.2
0.7014	283.15	1337.8	1.3
0.7991	313.15	1224.3	1.2
0.8036	283.15	1341.4	1.3
0.8066	298.15	1283	1.3
0.8952	298.15	1286.9	1.3
0.9009	283.15	1346.2	1.3
0.9066	313.15	1228.6	1.2
0.9468	313.15	1231	1.2
0.9481	283.15	1349.3	1.3
0.9528	298.15	1291	1.3

System: pentan-1-ol + .beta.-pinene; phases: Liquid
Fixed: Pressure, kPa = 101
Property: Mass density, kg/m3 (Liquid); method: VIBTUB:UFactor:2
Temperature, K	Mole fraction of .beta.-pinene	Mass density, kg/m3	uncertainty
283.15	0.1075	830.13	0.46
283.15	0.2016	836.79	0.46
283.15	0.3016	843.32	0.47
283.15	0.4028	849.41	0.47
283.15	0.5026	854.98	0.47
283.15	0.6034	860.24	0.47
283.15	0.7014	865.12	0.47
283.15	0.8036	869.97	0.47
283.15	0.9009	874.43	0.47
283.15	0.9481	876.59	0.47
298.15	0.1057	819.15	0.46
298.15	0.2012	825.47	0.46
298.15	0.3032	831.91	0.46
298.15	0.4023	837.67	0.46
298.15	0.4984	842.91	0.47
298.15	0.6021	848.24	0.47
298.15	0.6945	852.74	0.47
298.15	0.7994	857.65	0.47
298.15	0.8997	862.25	0.47
298.15	0.9465	864.37	0.47
313.15	0.1007	807.27	0.46
313.15	0.2048	814.01	0.46
313.15	0.3027	819.95	0.46
313.15	0.4019	825.6	0.46
313.15	0.5024	830.92	0.46
313.15	0.5976	835.75	0.46
313.15	0.6977	840.54	0.47
313.15	0.7991	845.26	0.47
313.15	0.9066	850.18	0.47
313.15	0.9468	852.1	0.47

System: .beta.-pinene + pentan-2-ol; phases: Liquid
Fixed: Pressure, kPa = 101
Property: Excess molar enthalpy (molar enthalpy of mixing), kJ/mol (Liquid); method: FLOW:UFactor:2
Mole fraction of .beta.-pinene	Temperature, K	Excess molar enthalpy (molar enthalpy of mixing), kJ/mol	uncertainty
0.049	283.15	0.125	0.005
0.049	298.15	0.16	0.006
0.049	313.15	0.209	0.006
0.1	283.15	0.264	0.007
0.1	298.15	0.336	0.007
0.1	313.15	0.413	0.008
0.193	283.15	0.49	0.009
0.193	298.15	0.622	0.011
0.193	313.15	0.749	0.013
0.294	283.15	0.683	0.012
0.294	298.15	0.862	0.015
0.294	313.15	1.026	0.017
0.395	283.15	0.811	0.014
0.395	298.15	1.018	0.017
0.395	313.15	1.211	0.02
0.495	283.15	0.878	0.015
0.495	298.15	1.1	0.019
0.495	313.15	1.319	0.022
0.591	283.15	0.878	0.015
0.591	298.15	1.102	0.019
0.591	313.15	1.345	0.022
0.695	283.15	0.81	0.014
0.695	298.15	1.06	0.018
0.695	313.15	1.31	0.022
0.794	283.15	0.704	0.012
0.794	298.15	0.938	0.016
0.794	313.15	1.196	0.02
0.9	283.15	0.514	0.01
0.9	298.15	0.719	0.013
0.9	313.15	0.88	0.015
0.942	283.15	0.385	0.008
0.942	298.15	0.52	0.01
0.942	313.15	0.642	0.012
0.971	283.15	0.276	0.007
0.971	298.15	0.366	0.008
0.971	313.15	0.405	0.008
0.985	283.15	0.149	0.006
0.985	298.15	0.189	0.006
0.985	313.15	0.185	0.007

System: .beta.-pinene + pentan-2-ol; phases: Liquid
Fixed: Pressure, kPa = 101
Property: Speed of sound, m/s (Liquid); method: Sing-around technique in a fixed-path interferometer
Mole fraction of .beta.-pinene	Temperature, K	Speed of sound, m/s	uncertainty
0.104	283.15	1291.4	2
0.1056	298.15	1235	2
0.1069	313.15	1170.1	2
0.1981	313.15	1173.2	2
0.2047	283.15	1295.3	1.9
0.2051	298.15	1238.6	1.9
0.3039	313.15	1177.7	1.9
0.3052	298.15	1241.5	1.9
0.3071	283.15	1299.3	1.9
0.3997	283.15	1303.5	1.8
0.4034	313.15	1182.2	1.8
0.4038	298.15	1245.8	1.8
0.4964	283.15	1308.8	1.7
0.5067	313.15	1188.2	1.7
0.5068	298.15	1251.5	1.7
0.601	298.15	1257.8	1.6
0.6023	313.15	1195.1	1.6
0.6058	283.15	1316.2	1.6
0.6929	283.15	1323.1	1.5
0.695	298.15	1265	1.5
0.7005	313.15	1203.4	1.5
0.7975	313.15	1212.8	1.4
0.8014	298.15	1273.7	1.4
0.8016	283.15	1332.7	1.4
0.8956	313.15	1223.2	1.3
0.9001	298.15	1282.7	1.3
0.904	283.15	1342.4	1.3
0.9454	283.15	1346.8	1.3
0.9497	313.15	1229.6	1.3
0.9499	298.15	1288.2	1.3

System: .beta.-pinene + pentan-2-ol; phases: Liquid
Fixed: Pressure, kPa = 101
Property: Mass density, kg/m3 (Liquid); method: VIBTUB:UFactor:2
Temperature, K	Mole fraction of .beta.-pinene	Mass density, kg/m3	uncertainty
283.15	0.104	824.99	0.82
283.15	0.2047	832.2	0.79
283.15	0.3071	839.03	0.75
283.15	0.3997	844.95	0.71
283.15	0.4964	850.86	0.67
283.15	0.6058	857.28	0.63
283.15	0.6929	862.26	0.6
283.15	0.8016	868.23	0.55
283.15	0.904	873.67	0.51
283.15	0.9454	875.83	0.49
298.15	0.1056	812.89	0.81
298.15	0.2051	819.88	0.78
298.15	0.3052	826.49	0.74
298.15	0.4038	832.72	0.7
298.15	0.5068	838.99	0.66
298.15	0.601	844.56	0.63
298.15	0.695	849.94	0.59
298.15	0.8014	855.84	0.55
298.15	0.9001	861.15	0.51
298.15	0.9499	863.9	0.49
313.15	0.1069	800.02	0.8
313.15	0.1981	806.39	0.77
313.15	0.3039	813.43	0.73
313.15	0.4034	819.78	0.7
313.15	0.5067	826.14	0.66
313.15	0.6023	831.84	0.62
313.15	0.7005	837.55	0.58
313.15	0.7975	843.07	0.55
313.15	0.8957	848.53	0.51
313.15	0.9497	851.6	0.49
