Measured thermophysical data. Effect of NiCl2a6H2O and CoCl2a6H2O on the Viscosity of Aqueous Ethanol Mixtures
Source: J. Chem. Eng. Data, 2007, 10.1021/je060219e
Compound 1: cobalt chloride, Cl2Co, InChI=1S/2ClH.Co/h2*1H;/q;;+2/p-2
Compound 2: nickel chloride (NiCl2), Cl2Ni, InChI=1S/2ClH.Ni/h2*1H;/q;;+2/p-2
Compound 3: water, H2O, InChI=1S/H2O/h1H2
Compound 4: ethanol, C2H6O, InChI=1S/C2H6O/c1-2-3/h3H,2H2,1H3

System: ethanol + water; phases: Liquid
Fixed: Pressure, kPa = 101
Property: Viscosity, Pa*s (Liquid); method: CAPTUB:UFactor:16
Temperature, K	Volume fraction of ethanol	Viscosity, Pa*s	uncertainty
303.15	0.1	0.0006791	7.04e-05
303.15	0.2	0.0009735	9.39e-05
303.15	0.3	0.0011864	0.0001114
303.15	0.4	0.0012538	0.0001165
303.15	0.5	0.0014258	0.0001304
308.15	0.1	0.0006191	6.56e-05
308.15	0.2	0.000871	8.58e-05
308.15	0.3	0.0008816	8.68e-05
308.15	0.4	0.0011471	0.000108
308.15	0.5	0.0012164	0.0001135
313.15	0.1	0.0005909	6.33e-05
313.15	0.2	0.0007442	7.57e-05
313.15	0.3	0.0008614	8.49e-05
313.15	0.4	0.0009262	9.03e-05
313.15	0.5	0.0011397	0.0001074
318.15	0.1	0.0005763	6.21e-05
318.15	0.2	0.0006476	6.79e-05
318.15	0.3	0.000797	7.98e-05
318.15	0.4	0.0008844	8.69e-05
318.15	0.5	0.0008776	8.65e-05
318.15	0.3	0.00079	7.93e-05
323.15	0.1	0.0005305	5.85e-05
323.15	0.2	0.000598	6.39e-05
323.15	0.3	0.000698	7.2e-05
323.15	0.4	0.0007081	7.29e-05
323.15	0.5	0.000825	8.2e-05

System: ethanol + cobalt chloride + water; phases: Liquid
Fixed: Pressure, kPa = 101
Property: Viscosity, Pa*s (Liquid); method: CAPTUB:UFactor:16
Temperature, K	Amount concentration (molarity), mol/dm3 of cobalt chloride	Solvent: Volume fraction of ethanol	Viscosity, Pa*s	uncertainty
303.15	0	0.1	0.0006791	7.04e-05
303.15	0	0.2	0.0009735	9.39e-05
303.15	0	0.3	0.0011864	0.0001114
303.15	0	0.4	0.0012538	0.0001165
303.15	0	0.5	0.0014258	0.0001304
303.15	1	0.1	0.0007281	7.43e-05
303.15	1	0.2	0.0010143	9.72e-05
303.15	1	0.3	0.0012266	0.0001147
303.15	1	0.4	0.0013321	0.0001227
303.15	1	0.5	0.0015195	0.0001378
303.15	2	0.1	0.0007456	7.58e-05
303.15	2	0.2	0.0010204	9.77e-05
303.15	2	0.3	0.001239	0.0001156
303.15	2	0.4	0.0013591	0.0001248
303.15	2	0.5	0.0015259	0.0001383
303.15	4	0.1	0.0007806	7.86e-05
303.15	4	0.2	0.0010277	9.83e-05
303.15	4	0.3	0.0012426	0.0001158
303.15	4	0.4	0.0013826	0.0001267
303.15	4	0.5	0.0015506	0.0001403
303.15	6	0.1	0.000782	7.88e-05
303.15	6	0.2	0.0010379	9.91e-05
303.15	6	0.3	0.0012418	0.0001158
303.15	6	0.4	0.0013993	0.000128
303.15	6	0.5	0.0015716	0.0001419
303.15	8	0.1	0.000792	7.96e-05
303.15	8	0.2	0.0010476	9.99e-05
303.15	8	0.3	0.0012283	0.0001146
303.15	8	0.4	0.0014041	0.0001284
303.15	8	0.5	0.001587	0.0001432
308.15	0	0.1	0.0006191	6.56e-05
308.15	0	0.2	0.000871	8.58e-05
308.15	0	0.3	0.0008816	8.68e-05
308.15	0	0.4	0.0011471	0.000108
308.15	0	0.5	0.0012164	0.0001135
308.15	1	0.1	0.0006354	6.69e-05
308.15	1	0.2	0.0009237	9e-05
308.15	1	0.3	0.0009114	8.91e-05
308.15	1	0.4	0.0012425	0.0001156
308.15	1	0.5	0.0013194	0.0001217
308.15	2	0.1	0.0006394	6.72e-05
308.15	2	0.2	0.0009357	9.1e-05
308.15	2	0.3	0.0009656	9.35e-05
308.15	2	0.4	0.0012781	0.0001185
308.15	2	0.5	0.001341	0.0001234
308.15	4	0.1	0.0006428	6.75e-05
308.15	4	0.2	0.0009641	9.32e-05
308.15	4	0.3	0.0009883	9.53e-05
308.15	4	0.4	0.0013121	0.0001212
308.15	4	0.5	0.0013763	0.0001262
308.15	6	0.1	0.0006415	6.74e-05
308.15	6	0.2	0.0009657	9.33e-05
308.15	6	0.3	0.0009918	9.56e-05
308.15	6	0.4	0.0013554	0.0001246
308.15	6	0.5	0.0014011	0.0001282
308.15	8	0.1	0.0006404	6.73e-05
308.15	8	0.2	0.0009668	9.34e-05
308.15	8	0.3	0.0010052	9.66e-05
308.15	8	0.4	0.0013446	0.0001237
308.15	8	0.5	0.0014213	0.0001298
313.15	0	0.1	0.0005909	6.33e-05
313.15	0	0.2	0.0007442	7.57e-05
313.15	0	0.3	0.0008614	8.49e-05
313.15	0	0.4	0.0009262	9.03e-05
313.15	0	0.5	0.0011397	0.0001074
313.15	1	0.1	0.000616	6.53e-05
313.15	1	0.2	0.0008149	8.13e-05
313.15	1	0.3	0.0009157	8.93e-05
313.15	1	0.4	0.0010173	9.76e-05
313.15	1	0.5	0.0012485	0.0001161
313.15	2	0.1	0.0006232	6.59e-05
313.15	2	0.2	0.0008351	8.29e-05
313.15	2	0.3	0.0009224	8.98e-05
313.15	2	0.4	0.0010373	9.92e-05
313.15	2	0.5	0.0012796	0.0001186
313.15	4	0.1	0.0006326	6.66e-05
313.15	4	0.2	0.0008678	8.55e-05
313.15	4	0.3	0.0009285	9.03e-05
313.15	4	0.4	0.0010656	0.0001014
313.15	4	0.5	0.0013931	0.0001277
313.15	6	0.1	0.0006366	6.69e-05
313.15	6	0.2	0.0008827	8.67e-05
313.15	6	0.3	0.0009335	9.07e-05
313.15	6	0.4	0.0010821	0.0001028
313.15	6	0.5	0.0013534	0.0001245
313.15	8	0.1	0.0006357	6.69e-05
313.15	8	0.2	0.0008896	8.73e-05
313.15	8	0.3	0.000942	9.14e-05
313.15	8	0.4	0.0011025	0.0001044
313.15	8	0.5	0.0013427	0.0001237
318.15	0	0.1	0.0005763	6.21e-05
318.15	0	0.2	0.0006476	6.79e-05
318.15	0	0.3	0.000797	7.98e-05
318.15	0	0.4	0.0008844	8.69e-05
318.15	0	0.5	0.0008776	8.65e-05
318.15	1	0.1	0.0006025	6.42e-05
318.15	1	0.2	0.0007191	7.36e-05
318.15	1	0.3	0.0008679	8.55e-05
318.15	1	0.4	0.0009693	9.36e-05
318.15	1	0.5	0.0009622	9.32e-05
318.15	2	0.1	0.0006078	6.46e-05
318.15	2	0.2	0.0007402	7.53e-05
318.15	2	0.3	0.000896	8.77e-05
318.15	2	0.4	0.0009927	9.55e-05
318.15	2	0.5	0.0009785	9.46e-05
318.15	4	0.1	0.0006161	6.53e-05
318.15	4	0.2	0.0007732	7.79e-05
318.15	4	0.3	0.0009156	8.93e-05
318.15	4	0.4	0.001024	9.8e-05
318.15	4	0.5	0.0009957	9.61e-05
318.15	6	0.1	0.0006219	6.58e-05
318.15	6	0.2	0.0007929	7.95e-05
318.15	6	0.3	0.0009314	9.05e-05
318.15	6	0.4	0.0010405	9.93e-05
318.15	6	0.5	0.0010135	9.74e-05
318.15	8	0.1	0.0006183	6.55e-05
318.15	8	0.2	0.0007944	7.96e-05
318.15	8	0.3	0.0009439	9.15e-05
318.15	8	0.4	0.0010367	9.9e-05
318.15	8	0.5	0.0010329	9.89e-05
323.15	0	0.1	0.0005305	5.85e-05
323.15	0	0.2	0.000598	6.39e-05
323.15	0	0.3	0.000698	7.2e-05
323.15	0	0.4	0.0007081	7.29e-05
323.15	0	0.5	0.000825	8.2e-05
323.15	1	0.1	0.0005581	6.07e-05
323.15	1	0.2	0.0006618	6.9e-05
323.15	1	0.3	0.0007929	7.96e-05
323.15	1	0.4	0.0008185	8.17e-05
323.15	1	0.5	0.0009096	8.88e-05
323.15	2	0.1	0.000564	6.12e-05
323.15	2	0.2	0.0006738	7e-05
323.15	2	0.3	0.0008213	8.18e-05
323.15	2	0.4	0.0008552	8.46e-05
323.15	2	0.5	0.0009282	9.03e-05
323.15	4	0.1	0.0005729	6.19e-05
323.15	4	0.2	0.0007007	7.21e-05
323.15	4	0.3	0.000859	8.48e-05
323.15	4	0.4	0.0009046	8.85e-05
323.15	4	0.5	0.000964	9.32e-05
323.15	6	0.1	0.0005746	6.2e-05
323.15	6	0.2	0.0007197	7.36e-05
323.15	6	0.3	0.0008853	8.69e-05
323.15	6	0.4	0.0009318	9.07e-05
323.15	6	0.5	0.0009806	9.45e-05
323.15	8	0.1	0.0005761	6.21e-05
323.15	8	0.2	0.0007226	7.39e-05
323.15	8	0.3	0.0008975	8.79e-05
323.15	8	0.4	0.0009524	9.23e-05
323.15	8	0.5	0.0009684	9.35e-05

System: ethanol + nickel chloride (NiCl2) + water; phases: Liquid
Fixed: Pressure, kPa = 101
Property: Viscosity, Pa*s (Liquid); method: CAPTUB:UFactor:16
Temperature, K	Amount concentration (molarity), mol/dm3 of nickel chloride (NiCl2)	Solvent: Volume fraction of ethanol	Viscosity, Pa*s	uncertainty
303.15	0	0.1	0.0006791	7.04e-05
303.15	0	0.2	0.0009735	9.4e-05
303.15	0	0.3	0.0011864	0.0001115
303.15	0	0.4	0.0012538	0.0001165
303.15	0	0.5	0.0014258	0.0001304
303.15	1	0.1	0.0008678	8.55e-05
303.15	1	0.2	0.0010971	0.0001039
303.15	1	0.3	0.0013026	0.0001205
303.15	1	0.4	0.0014456	0.0001318
303.15	1	0.5	0.0016149	0.0001454
303.15	2	0.1	0.0009364	9.1e-05
303.15	2	0.2	0.001096	0.0001039
303.15	2	0.3	0.0013004	0.0001203
303.15	2	0.4	0.0014594	0.000133
303.15	2	0.5	0.001625	0.0001463
303.15	4	0.1	0.0009802	9.45e-05
303.15	4	0.2	0.0011059	0.0001047
303.15	4	0.3	0.0012884	0.0001193
303.15	4	0.4	0.0014506	0.0001324
303.15	4	0.5	0.0016451	0.000148
303.15	6	0.1	0.001021	9.78e-05
303.15	6	0.2	0.0010927	0.0001036
303.15	6	0.3	0.00123	0.0001146
303.15	6	0.4	0.0014621	0.0001333
303.15	6	0.5	0.0015829	0.000143
303.15	8	0.1	0.0010564	0.0001006
303.15	8	0.2	0.0010533	0.0001007
303.15	8	0.3	0.0011897	0.0001113
303.15	8	0.4	0.0014275	0.0001305
303.15	8	0.5	0.0015306	0.0001388
308.15	0	0.1	0.0006191	6.56e-05
308.15	0	0.2	0.000871	8.59e-05
308.15	0	0.3	0.0008816	8.68e-05
308.15	0	0.4	0.0011471	0.0001081
308.15	0	0.5	0.0012164	0.0001135
308.15	1	0.1	0.0008063	8.06e-05
308.15	1	0.2	0.0009807	9.46e-05
308.15	1	0.3	0.0010843	0.000103
308.15	1	0.4	0.0012985	0.0001202
308.15	1	0.5	0.0014012	0.0001283
308.15	2	0.1	0.0008659	8.54e-05
308.15	2	0.2	0.0009855	9.5e-05
308.15	2	0.3	0.0011177	0.0001057
308.15	2	0.4	0.0012995	0.0001203
308.15	2	0.5	0.0014262	0.0001303
308.15	4	0.1	0.0009113	8.91e-05
308.15	4	0.2	0.0009865	9.51e-05
308.15	4	0.3	0.001139	0.0001074
308.15	4	0.4	0.0012815	0.0001188
308.15	4	0.5	0.001411	0.0001291
308.15	6	0.1	0.0009481	9.2e-05
308.15	6	0.2	0.0009648	9.33e-05
308.15	6	0.3	0.0011598	0.000109
308.15	6	0.4	0.0012465	0.000116
308.15	6	0.5	0.0013742	0.0001261
308.15	8	0.1	0.0009683	9.37e-05
308.15	8	0.2	0.0008956	8.78e-05
308.15	8	0.3	0.0011762	0.0001103
308.15	8	0.4	0.001186	0.0001112
308.15	8	0.5	0.0013367	0.0001231
313.15	0	0.1	0.0005909	6.33e-05
313.15	0	0.2	0.0007442	7.57e-05
313.15	0	0.3	0.0008614	8.5e-05
313.15	0	0.4	0.0009262	9.03e-05
313.15	0	0.5	0.0011397	0.0001075
313.15	1	0.1	0.0007214	7.38e-05
313.15	1	0.2	0.0008687	8.56e-05
313.15	1	0.3	0.0009776	9.43e-05
313.15	1	0.4	0.0011008	0.0001043
313.15	1	0.5	0.0013384	0.0001233
313.15	2	0.1	0.000761	7.7e-05
313.15	2	0.2	0.0008765	8.63e-05
313.15	2	0.3	0.0009807	9.46e-05
313.15	2	0.4	0.0011095	0.000105
313.15	2	0.5	0.001362	0.0001252
313.15	4	0.1	0.0007717	7.79e-05
313.15	4	0.2	0.000889	8.73e-05
313.15	4	0.3	0.0009791	9.45e-05
313.15	4	0.4	0.0011291	0.0001065
313.15	4	0.5	0.0013586	0.0001249
313.15	6	0.1	0.0007855	7.9e-05
313.15	6	0.2	0.0008863	8.7e-05
313.15	6	0.3	0.0009394	9.14e-05
313.15	6	0.4	0.0011031	0.0001044
313.15	6	0.5	0.0013406	0.0001234
313.15	8	0.1	0.0007814	7.87e-05
313.15	8	0.2	0.0008325	8.27e-05
313.15	8	0.3	0.000893	8.78e-05
313.15	8	0.4	0.0010833	0.0001028
313.15	8	0.5	0.0012718	0.0001179
318.15	0	0.1	0.0005763	6.22e-05
318.15	0	0.2	0.0006476	6.79e-05
318.15	0	0.3	0.00079	7.93e-05
318.15	0	0.4	0.0008844	8.69e-05
318.15	0	0.5	0.0008776	8.65e-05
318.15	1	0.1	0.0006921	7.14e-05
318.15	1	0.2	0.0007828	7.87e-05
318.15	1	0.3	0.0009037	8.85e-05
318.15	1	0.4	0.0010276	9.84e-05
318.15	1	0.5	0.0011084	0.000105
318.15	2	0.1	0.0007181	7.35e-05
318.15	2	0.2	0.0007912	7.94e-05
318.15	2	0.3	0.0008994	8.81e-05
318.15	2	0.4	0.0010269	9.84e-05
318.15	2	0.5	0.0011651	0.0001095
318.15	4	0.1	0.0007177	7.35e-05
318.15	4	0.2	0.0008044	8.05e-05
318.15	4	0.3	0.0008769	8.63e-05
318.15	4	0.4	0.001017	9.76e-05
318.15	4	0.5	0.00119	0.0001115
318.15	6	0.1	0.0007303	7.45e-05
318.15	6	0.2	0.0008211	8.18e-05
318.15	6	0.3	0.0008499	8.41e-05
318.15	6	0.4	0.000997	9.6e-05
318.15	6	0.5	0.0012033	0.0001126
318.15	8	0.1	0.0007132	7.32e-05
318.15	8	0.2	0.0007886	7.92e-05
318.15	8	0.3	0.0008324	8.27e-05
318.15	8	0.4	0.0009579	9.29e-05
318.15	8	0.5	0.0011941	0.0001118
323.15	0	0.1	0.0005305	5.85e-05
323.15	0	0.2	0.000598	6.39e-05
323.15	0	0.3	0.000698	7.21e-05
323.15	0	0.4	0.0007081	7.29e-05
323.15	0	0.5	0.000825	8.21e-05
323.15	1	0.1	0.0006357	6.7e-05
323.15	1	0.2	0.0007203	7.38e-05
323.15	1	0.3	0.0007093	7.3e-05
323.15	1	0.4	0.0008263	8.26e-05
323.15	1	0.5	0.00099	9.55e-05
323.15	2	0.1	0.0006421	6.75e-05
323.15	2	0.2	0.0007247	7.41e-05
323.15	2	0.3	0.0008016	8.04e-05
323.15	2	0.4	0.0008292	8.27e-05
323.15	2	0.5	0.0009976	9.61e-05
323.15	4	0.1	0.0006538	6.84e-05
323.15	4	0.2	0.0007371	7.51e-05
323.15	4	0.3	0.0007915	7.95e-05
323.15	4	0.4	0.000827	8.25e-05
323.15	4	0.5	0.0010046	9.68e-05
323.15	6	0.1	0.0006565	6.86e-05
323.15	6	0.2	0.0007415	7.55e-05
323.15	6	0.3	0.0007711	7.78e-05
323.15	6	0.4	0.0008013	8.04e-05
323.15	6	0.5	0.0009745	9.45e-05
323.15	8	0.1	0.0006295	6.65e-05
323.15	8	0.2	0.0007129	7.32e-05
323.15	8	0.3	0.0007493	7.61e-05
323.15	8	0.4	0.0007661	7.75e-05
323.15	8	0.5	0.0009416	9.2e-05
