Measured thermophysical data. Relative Permittivity Measurements of Gaseous, Liquid, and Supercritical Dimethyl Ether
Source: J. Chem. Eng. Data, 2007, 10.1021/je060283w
Compound 1: dimethyl ether, C2H6O, InChI=1S/C2H6O/c1-3-2/h1-2H3

System: dimethyl ether; phases: Gas
Property: Relative permittivity at zero frequency (Gas); method: Parallel plate capacitor
Temperature, K	Pressure, kPa	Relative permittivity at zero frequency	uncertainty
303.7	180	1.016	0.02
303.7	320	1.025	0.02
303.7	440	1.032	0.02
303.7	460	1.034	0.02
303.7	500	1.037	0.022
303.7	530	1.039	0.023
303.7	660	1.084	0.024
313.3	80	1.011	0.02
313.3	150	1.015	0.02
313.3	460	1.034	0.02
313.3	510	1.037	0.02
313.3	560	1.041	0.02
313.3	770	1.057	0.023
313.3	870	1.142	0.04
323	50	1.01	0.02
323	100	1.012	0.02
323	240	1.02	0.02
323	450	1.033	0.02
323	530	1.038	0.02
323	700	1.049	0.021
323	1080	1.118	0.022
333.4	430	1.03	0.02
333.4	460	1.031	0.02
333.4	540	1.036	0.02
333.4	710	1.047	0.02
333.4	850	1.057	0.02
333.4	1050	1.071	0.021
333.4	1380	1.122	0.021
343.2	60	1.01	0.02
343.2	120	1.013	0.02
343.2	220	1.018	0.02
343.2	390	1.027	0.02
343.2	430	1.029	0.02
343.2	490	1.032	0.02
343.2	550	1.035	0.02
343.2	610	1.039	0.02
343.2	740	1.044	0.02
343.2	930	1.059	0.02
343.2	1090	1.069	0.02
343.2	1240	1.08	0.02
343.2	1550	1.106	0.021
343.2	1730	1.166	0.025
353.1	40	1.01	0.02
353.1	100	1.012	0.02
353.1	220	1.017	0.02
353.1	480	1.03	0.02
353.1	530	1.033	0.02
353.1	580	1.036	0.02
353.1	680	1.041	0.02
353.1	780	1.047	0.02
353.1	870	1.052	0.02
353.1	970	1.058	0.02
353.1	1070	1.064	0.02
353.1	1180	1.071	0.02
353.1	1270	1.078	0.02
353.1	1340	1.082	0.02
353.1	1440	1.09	0.02
353.1	1540	1.098	0.02
353.1	1700	1.109	0.021
353.1	1890	1.128	0.021
353.1	2150	1.178	0.022
363.4	850	1.048	0.02
363.4	1050	1.059	0.02
363.4	1200	1.068	0.02
363.4	1410	1.081	0.02
363.4	1580	1.092	0.02
363.4	1750	1.104	0.02
363.4	1890	1.116	0.02
363.4	2070	1.131	0.021
363.4	2280	1.15	0.021

System: dimethyl ether; phases: Fluid (supercritical or subcritical phases)
Fixed: Temperature, K = 402.9
Property: Relative permittivity at zero frequency (Fluid (supercritical or subcritical phases)); method: Parallel plate capacitor
Pressure, kPa	Relative permittivity at zero frequency	uncertainty
6900	2.75	0.05
8600	2.96	0.05
10200	3.08	0.03
12000	3.19	0.03
14200	3.28	0.03
16100	3.35	0.02
18000	3.4	0.02
20000	3.47	0.02
21700	3.51	0.02
23600	3.55	0.02
25800	3.61	0.02
27100	3.64	0.02
29500	3.68	0.02

System: dimethyl ether; phases: Liquid
Property: Relative permittivity at zero frequency (Liquid); method: Parallel plate capacitor
Temperature, K	Pressure, kPa	Relative permittivity at zero frequency	uncertainty
303.7	6300	5.34	0.03
303.7	8000	5.37	0.03
303.7	10200	5.41	0.03
303.7	12200	5.44	0.03
303.7	14200	5.47	0.03
303.7	16300	5.5	0.03
303.7	17600	5.52	0.03
303.7	20200	5.56	0.03
303.7	22400	5.59	0.03
303.7	24200	5.62	0.03
303.7	25900	5.64	0.03
303.7	27500	5.66	0.03
313.3	2300	5	0.04
313.3	4400	5.05	0.03
313.3	6300	5.1	0.03
313.3	8300	5.14	0.03
313.3	10200	5.16	0.03
313.3	12200	5.2	0.03
313.3	14300	5.24	0.03
313.3	16300	5.27	0.03
313.3	18000	5.3	0.03
313.3	20400	5.33	0.03
313.3	22000	5.35	0.03
313.3	24300	5.39	0.03
313.3	26100	5.41	0.03
313.3	28200	5.44	0.03
313.3	29600	5.46	0.03
323	1300	4.72	0.04
323	2200	4.74	0.04
323	4200	4.8	0.04
323	6200	4.85	0.03
323	8200	4.89	0.03
323	10400	4.93	0.03
323	12400	4.97	0.03
323	14200	5.01	0.03
323	16400	5.04	0.03
323	18300	5.07	0.03
323	19800	5.1	0.03
323	22000	5.13	0.03
323	24000	5.17	0.03
323	26300	5.2	0.03
323	27900	5.23	0.03
323	29400	5.25	0.03
323	31200	5.27	0.03
333.4	2200	4.46	0.04
333.4	4300	4.52	0.04
333.4	6400	4.58	0.03
333.4	8300	4.62	0.03
333.4	10200	4.67	0.03
333.4	12200	4.71	0.03
333.4	14000	4.74	0.03
333.4	15800	4.78	0.03
333.4	17200	4.81	0.03
333.4	22000	4.89	0.03
333.4	23800	4.92	0.03
333.4	25800	4.95	0.03
333.4	27600	4.97	0.03
333.4	29400	4.99	0.03
343.2	2600	4.21	0.04
343.2	4000	4.25	0.04
343.2	6000	4.32	0.04
343.2	8200	4.38	0.03
343.2	10200	4.43	0.03
343.2	12200	4.48	0.03
343.2	14400	4.52	0.03
343.2	16300	4.56	0.03
343.2	18000	4.59	0.03
343.2	20200	4.64	0.03
343.2	21900	4.67	0.03
343.2	23400	4.69	0.03
343.2	27700	4.76	0.03
343.2	30400	4.8	0.03
343.2	33200	4.84	0.03
353.1	2200	3.92	0.04
353.1	4000	3.98	0.04
353.1	6400	4.07	0.04
353.1	8200	4.13	0.03
353.1	10200	4.19	0.03
353.1	12200	4.24	0.03
353.1	14200	4.29	0.03
353.1	16100	4.33	0.03
353.1	18200	4.38	0.03
353.1	20000	4.42	0.03
353.1	21800	4.45	0.03
353.1	24000	4.49	0.03
353.1	25800	4.52	0.03
353.1	27700	4.55	0.03
353.1	29800	4.58	0.03
363.4	2800	3.63	0.04
363.4	4200	3.71	0.04
363.4	6200	3.8	0.04
363.4	8000	3.88	0.04
363.4	10200	3.95	0.03
363.4	12200	4.01	0.03
363.4	14200	4.06	0.03
363.4	16000	4.11	0.03
363.4	18000	4.16	0.03
363.4	20000	4.2	0.03
363.4	22000	4.24	0.03
363.4	24000	4.28	0.03
363.4	26000	4.31	0.03
363.4	28000	4.35	0.03
363.4	30500	4.4	0.03
372.9	3400	3.38	0.05
372.9	4200	3.44	0.05
372.9	6100	3.57	0.04
372.9	8300	3.66	0.03
372.9	10200	3.73	0.03
372.9	12200	3.81	0.03
372.9	14400	3.88	0.03
372.9	16200	3.91	0.03
372.9	18300	3.96	0.03
372.9	20000	4	0.03
372.9	22300	4.05	0.03
372.9	24100	4.09	0.03
372.9	26200	4.14	0.03
372.9	27800	4.16	0.03
372.9	29200	4.18	0.03
382.9	4000	3.08	0.06
382.9	6200	3.31	0.05
382.9	8100	3.43	0.04
382.9	10000	3.53	0.03
382.9	12300	3.62	0.03
382.9	14200	3.68	0.03
382.9	16100	3.74	0.03
382.9	18000	3.79	0.03
382.9	20000	3.84	0.03
382.9	22000	3.89	0.03
382.9	24000	3.93	0.03
382.9	26000	3.97	0.03
382.9	27900	4.01	0.03
382.9	30100	4.05	0.03
393	6200	3.01	0.05
393	8400	3.21	0.05
393	10000	3.3	0.04
393	12300	3.4	0.03
393	14200	3.47	0.03
393	16200	3.54	0.02
393	18200	3.6	0.03
393	20000	3.65	0.03
393	22000	3.7	0.03
393	24000	3.75	0.03
393	26000	3.79	0.03
393	27800	3.83	0.03
393	29500	3.86	0.03
