Measured thermophysical data. Density, Kinematic Viscosity, Speed of Sound, and Surface Tension of Hexyl, Octyl, and Decyl Trimethyl Ammonium Bromide Aqueous Solutions
Source: J. Chem. Eng. Data, 2007, 10.1021/je060486k
Compound 1: hexyltrimethylammonium bromide, C9H22BrN, InChI=1S/C9H22N.BrH/c1-5-6-7-8-9-10(2,3)4;/h5-9H2,1-4H3;1H/q+1;/p-1
Compound 2: octyl trimethyl ammonium bromide, C11H26BrN, InChI=1S/C11H26N.BrH/c1-5-6-7-8-9-10-11-12(2,3)4;/h5-11H2,1-4H3;1H/q+1;/p-1
Compound 3: N,N,N-trimethyl-1-decanaminium bromide, C13H30BrN, InChI=1S/C13H30N.BrH/c1-5-6-7-8-9-10-11-12-13-14(2,3)4;/h5-13H2,1-4H3;1H/q+1;/p-1
Compound 4: water, H2O, InChI=1S/H2O/h1H2

System: hexyltrimethylammonium bromide + water; phases: Liquid, Air at 1 atmosphere
Fixed: Temperature, K = 298.15
Property: Surface tension liquid-gas, N/m (Liquid); method: Wilhelmy plate method
Amount concentration (molarity), mol/dm3 of hexyltrimethylammonium bromide	Surface tension liquid-gas, N/m	uncertainty
0	0.0725	0.0008
0.1	0.0516	0.0008
0.2	0.0443	0.0008
0.3	0.0411	0.0008
0.4	0.0383	0.0008
0.45	0.0368	0.0008
0.5	0.0358	0.0008
0.6	0.034	0.0008
0.7	0.0325	0.0008
0.8	0.0312	0.0008
0.9	0.0305	0.0008
1	0.0299	0.0008
1.1	0.0295	0.0008
1.3	0.0293	0.0008
1.5	0.0291	0.0008
1.7	0.0291	0.0008
2	0.0289	0.0008

System: hexyltrimethylammonium bromide + water; phases: Liquid
Fixed: Temperature, K = 298.15
Fixed: Pressure, kPa = 101
Property: Kinematic viscosity, m2/s (Liquid); method: Capillary tube (Ostwald; Ubbelohde) method
Amount concentration (molarity), mol/dm3 of hexyltrimethylammonium bromide	Kinematic viscosity, m2/s	uncertainty
0	8.957e-07	6e-09
0.1	9.149e-07	6.2e-09
0.2	9.406e-07	6.4e-09
0.3	9.727e-07	6.6e-09
0.4	1.0113e-06	6.8e-09
0.45	1.0331e-06	7e-09
0.5	1.0564e-06	7.1e-09
0.6	1.108e-06	7.5e-09
0.7	1.166e-06	7.8e-09
0.8	1.2304e-06	8.3e-09
0.9	1.3014e-06	8.7e-09
1	1.3788e-06	9.2e-09
1.1	1.4626e-06	9.8e-09
1.3	1.6497e-06	1.1e-08
1.5	1.8626e-06	1.24e-08
1.7	2.101e-06	1.4e-08
2	2.508e-06	1.7e-08

System: hexyltrimethylammonium bromide + water; phases: Liquid
Fixed: Temperature, K = 298.15
Fixed: Pressure, kPa = 101
Property: Speed of sound, m/s (Liquid); method: FPINT:UFactor:4
Amount concentration (molarity), mol/dm3 of hexyltrimethylammonium bromide	Speed of sound, m/s	uncertainty
0	1496.8	3
0.1	1510.6	3
0.2	1524.9	3.1
0.3	1537.3	3.1
0.4	1550.5	3.1
0.45	1557.7	3.1
0.5	1562.9	3.1
0.6	1575.3	3.2
0.7	1588.6	3.2
0.8	1599.1	3.2
0.9	1610	3.2
1	1620.6	3.2
1.1	1628.1	3.2
1.3	1644.8	3.3
1.5	1652.1	3.3
1.7	1660	3.3
2	1670.3	3.3

System: hexyltrimethylammonium bromide + water; phases: Liquid
Fixed: Temperature, K = 298.15
Fixed: Pressure, kPa = 101
Property: Mass density, kg/m3 (Liquid); method: VIBTUB:UFactor:16
Amount concentration (molarity), mol/dm3 of hexyltrimethylammonium bromide	Mass density, kg/m3	uncertainty
0	997	0.57
0.1	1000.32	0.55
0.2	1003.85	0.58
0.3	1006.97	0.6
0.4	1010.42	0.62
0.45	1012.06	0.64
0.5	1013.74	0.65
0.6	1017.19	0.67
0.7	1021.02	0.7
0.8	1024.21	0.72
0.9	1027.68	0.75
1	1031.33	0.77
1.1	1034.12	0.79
1.3	1041.07	0.84
1.5	1047.62	0.89
1.7	1054.38	0.94
2	1064.23	1.01

System: octyl trimethyl ammonium bromide + water; phases: Liquid, Air at 1 atmosphere
Fixed: Temperature, K = 298.15
Property: Surface tension liquid-gas, N/m (Liquid); method: Wilhelmy plate method
Amount concentration (molarity), mol/dm3 of octyl trimethyl ammonium bromide	Surface tension liquid-gas, N/m	uncertainty
0	0.0725	0.0008
0.02	0.0694	0.0008
0.04	0.0631	0.0008
0.06	0.0595	0.0008
0.08	0.0546	0.0008
0.1	0.0511	0.0008
0.12	0.0489	0.0008
0.14	0.0465	0.0008
0.16	0.044	0.0008
0.18	0.0417	0.0008
0.2	0.0398	0.0008
0.3	0.0364	0.0008
0.4	0.0358	0.0008
0.5	0.0355	0.0008
0.6	0.0354	0.0008
0.8	0.0352	0.0008
1	0.0351	0.0008

System: octyl trimethyl ammonium bromide + water; phases: Liquid
Fixed: Temperature, K = 298.15
Fixed: Pressure, kPa = 101
Property: Kinematic viscosity, m2/s (Liquid); method: Capillary tube (Ostwald; Ubbelohde) method
Amount concentration (molarity), mol/dm3 of octyl trimethyl ammonium bromide	Kinematic viscosity, m2/s	uncertainty
0	8.957e-07	6e-09
0.02	8.99e-07	6.1e-09
0.04	9.033e-07	6.1e-09
0.06	9.083e-07	6.1e-09
0.08	9.14e-07	6.2e-09
0.1	9.2e-07	6.2e-09
0.12	9.276e-07	6.3e-09
0.14	9.355e-07	6.3e-09
0.16	9.441e-07	6.4e-09
0.18	9.534e-07	6.4e-09
0.2	9.636e-07	6.5e-09
0.3	1.0245e-06	6.9e-09
0.4	1.1033e-06	7.4e-09
0.5	1.2001e-06	8e-09
0.6	1.3148e-06	8.7e-09
0.8	1.5981e-06	1.05e-08
1	1.9533e-06	1.28e-08

System: octyl trimethyl ammonium bromide + water; phases: Liquid
Fixed: Temperature, K = 298.15
Fixed: Pressure, kPa = 101
Property: Speed of sound, m/s (Liquid); method: FPINT:UFactor:4
Amount concentration (molarity), mol/dm3 of octyl trimethyl ammonium bromide	Speed of sound, m/s	uncertainty
0	1496.8	3
0.02	1500.1	3
0.04	1503.1	3
0.06	1506.3	3
0.08	1510	3
0.1	1513.1	3
0.12	1516.4	3.1
0.14	1520.3	3.1
0.16	1522.7	3.1
0.18	1525.8	3.1
0.2	1529.6	3.1
0.3	1540	3.1
0.4	1546.5	3.1
0.5	1549.2	3.1
0.6	1552.2	3.1
0.8	1557.4	3.1
1	1562.7	3.1

System: octyl trimethyl ammonium bromide + water; phases: Liquid
Fixed: Temperature, K = 298.15
Fixed: Pressure, kPa = 101
Property: Mass density, kg/m3 (Liquid); method: VIBTUB:UFactor:16
Amount concentration (molarity), mol/dm3 of octyl trimethyl ammonium bromide	Mass density, kg/m3	uncertainty
0	997	0.57
0.02	997.62	0.56
0.04	998.2	0.56
0.06	998.73	0.56
0.08	999.23	0.55
0.1	999.68	0.55
0.12	1000.25	0.55
0.14	1000.79	0.56
0.16	1001.62	0.56
0.18	1001.9	0.56
0.2	1002.54	0.57
0.3	1005	0.59
0.4	1008.09	0.61
0.5	1010.5	0.63
0.6	1013.19	0.65
0.8	1018.07	0.68
1	1022.98	0.72

System: N,N,N-trimethyl-1-decanaminium bromide + water; phases: Liquid, Air at 1 atmosphere
Fixed: Temperature, K = 298.15
Property: Surface tension liquid-gas, N/m (Liquid); method: Wilhelmy plate method
Amount concentration (molarity), mol/dm3 of N,N,N-trimethyl-1-decanaminium bromide	Surface tension liquid-gas, N/m	uncertainty
0	0.0725	0.0008
0.001	0.0654	0.0008
0.005	0.0601	0.0008
0.01	0.0576	0.0008
0.02	0.0497	0.0008
0.03	0.0434	0.0008
0.04	0.038	0.0008
0.05	0.0369	0.0008
0.06	0.0361	0.0008
0.07	0.0355	0.0008
0.08	0.0352	0.0008
0.1	0.0352	0.0008
0.12	0.035	0.0008
0.15	0.0352	0.0008
0.2	0.035	0.0008
0.25	0.0351	0.0008

System: N,N,N-trimethyl-1-decanaminium bromide + water; phases: Liquid
Fixed: Temperature, K = 298.15
Fixed: Pressure, kPa = 101
Property: Kinematic viscosity, m2/s (Liquid); method: Capillary tube (Ostwald; Ubbelohde) method
Amount concentration (molarity), mol/dm3 of N,N,N-trimethyl-1-decanaminium bromide	Kinematic viscosity, m2/s	uncertainty
0	8.956e-07	6e-09
0.001	8.975e-07	6.1e-09
0.005	8.99e-07	6.1e-09
0.01	9.048e-07	6.1e-09
0.02	9.14e-07	6.2e-09
0.03	9.224e-07	6.2e-09
0.04	9.35e-07	6.3e-09
0.05	9.449e-07	6.4e-09
0.06	9.56e-07	6.4e-09
0.07	9.642e-07	6.5e-09
0.08	9.78e-07	6.6e-09
0.1	1.0016e-06	6.7e-09
0.12	1.024e-06	6.9e-09
0.15	1.0624e-06	7.2e-09
0.2	1.1173e-06	7.5e-09
0.25	1.1812e-06	8e-09

System: N,N,N-trimethyl-1-decanaminium bromide + water; phases: Liquid
Fixed: Temperature, K = 298.15
Fixed: Pressure, kPa = 101
Property: Speed of sound, m/s (Liquid); method: FPINT:UFactor:4
Amount concentration (molarity), mol/dm3 of N,N,N-trimethyl-1-decanaminium bromide	Speed of sound, m/s	uncertainty
0	1496.8	3
0.001	1497.3	3
0.005	1497.8	3
0.01	1498.7	3
0.02	1500.8	3
0.03	1502.6	3
0.04	1504.3	3
0.05	1506.3	3
0.06	1508	3
0.07	1509.2	3
0.08	1509.7	3
0.1	1510.1	3
0.12	1510.6	3.1
0.15	1511.1	3.1
0.2	1511.7	3.1
0.25	1512.4	3.1

System: N,N,N-trimethyl-1-decanaminium bromide + water; phases: Liquid
Fixed: Temperature, K = 298.15
Fixed: Pressure, kPa = 101
Property: Mass density, kg/m3 (Liquid); method: VIBTUB:UFactor:16
Amount concentration (molarity), mol/dm3 of N,N,N-trimethyl-1-decanaminium bromide	Mass density, kg/m3	uncertainty
0	997	0.58
0.001	997.11	0.57
0.005	997.25	0.57
0.01	997.37	0.56
0.02	997.58	0.56
0.03	997.85	0.56
0.04	998.06	0.56
0.05	998.33	0.56
0.06	998.52	0.56
0.07	998.79	0.56
0.08	999	0.56
0.1	999.37	0.56
0.12	999.77	0.56
0.15	1000.4	0.56
0.2	1001.22	0.57
0.25	1002.09	0.58
