Measured thermophysical data. Thermodynamic Properties of Mixtures Containing Ionic Liquids: Activity Coefficients at Infinite Dilution of Organic Compounds in 1-Propyl Boronic Acid-3-Alkylimidazolium Bromide and 1-Propenyl-3-alkylimidazolium Bromide Using Inverse Gas Chromatography
Source: J. Chem. Eng. Data, 2006, 10.1021/je060033f
Compound 1: hexane, C6H14, InChI=1S/C6H14/c1-3-5-6-4-2/h3-6H2,1-2H3
Compound 2: 1-allyl-3-methylimidazolium bromide, C7H11BrN2, InChI=1S/C7H11N2.BrH/c1-3-4-9-6-5-8(2)7-9;/h3,5-7H,1,4H2,2H3;1H/q+1;/p-1
Compound 3: 3-allyl-1-octyl-1H-imidazol-3-ium bromide, C14H25BrN2, InChI=1S/C14H25N2.BrH/c1-3-5-6-7-8-9-11-16-13-12-15(14-16)10-4-2;/h4,12-14H,2-3,5-11H2,1H3;1H/q+1;/p-1
Compound 4: 3-allyl-1-decyl-1H-imidazol-3-ium bromide, C16H29BrN2, InChI=1S/C16H29N2.BrH/c1-3-5-6-7-8-9-10-11-13-18-15-14-17(16-18)12-4-2;/h4,14-16H,2-3,5-13H2,1H3;1H/q+1;/p-1
Compound 5: 3-allyl-1-dodecyl-1H-imidazol-3-ium bromide, C18H33BrN2, InChI=1S/C18H33N2.BrH/c1-3-5-6-7-8-9-10-11-12-13-15-20-17-16-19(18-20)14-4-2;/h4,16-18H,2-3,5-15H2,1H3;1H/q+1;/p-1
Compound 6: heptane, C7H16, InChI=1S/C7H16/c1-3-5-7-6-4-2/h3-7H2,1-2H3
Compound 7: octane, C8H18, InChI=1S/C8H18/c1-3-5-7-8-6-4-2/h3-8H2,1-2H3
Compound 8: nonane, C9H20, InChI=1S/C9H20/c1-3-5-7-9-8-6-4-2/h3-9H2,1-2H3
Compound 9: cyclohexane, C6H12, InChI=1S/C6H12/c1-2-4-6-5-3-1/h1-6H2
Compound 10: benzene, C6H6, InChI=1S/C6H6/c1-2-4-6-5-3-1/h1-6H
Compound 11: toluene, C7H8, InChI=1S/C7H8/c1-7-5-3-2-4-6-7/h2-6H,1H3
Compound 12: ethylbenzene, C8H10, InChI=1S/C8H10/c1-2-8-6-4-3-5-7-8/h3-7H,2H2,1H3
Compound 13: 1,3-dimethylbenzene, C8H10, InChI=1S/C8H10/c1-7-4-3-5-8(2)6-7/h3-6H,1-2H3
Compound 14: 1,2-dimethylbenzene, C8H10, InChI=1S/C8H10/c1-7-5-3-4-6-8(7)2/h3-6H,1-2H3
Compound 15: hex-1-ene, C6H12, InChI=1S/C6H12/c1-3-5-6-4-2/h3H,1,4-6H2,2H3
Compound 16: 1-hexyne, C6H10, InChI=1S/C6H10/c1-3-5-6-4-2/h1H,4-6H2,2H3
Compound 17: 1-heptyne, C7H12, InChI=1S/C7H12/c1-3-5-7-6-4-2/h1H,4-7H2,2H3
Compound 18: butanone, C4H8O, InChI=1S/C4H8O/c1-3-4(2)5/h3H2,1-2H3
Compound 19: pentan-2-one, C5H10O, InChI=1S/C5H10O/c1-3-4-5(2)6/h3-4H2,1-2H3
Compound 20: 1,4-dioxane, C4H8O2, InChI=1S/C4H8O2/c1-2-6-4-3-5-1/h1-4H2
Compound 21: methanol, CH4O, InChI=1S/CH4O/c1-2/h2H,1H3
Compound 22: ethanol, C2H6O, InChI=1S/C2H6O/c1-2-3/h3H,2H2,1H3
Compound 23: propan-1-ol, C3H8O, InChI=1S/C3H8O/c1-2-3-4/h4H,2-3H2,1H3
Compound 24: propan-2-ol, C3H8O, InChI=1S/C3H8O/c1-3(2)4/h3-4H,1-2H3
Compound 25: 2-methyl-1-propanol, C4H10O, InChI=1S/C4H10O/c1-4(2)3-5/h4-5H,3H2,1-2H3
Compound 26: diethyl ether, C4H10O, InChI=1S/C4H10O/c1-3-5-4-2/h3-4H2,1-2H3
Compound 27: trichloromethane, CHCl3, InChI=1S/CHCl3/c2-1(3)4/h1H
Compound 28: dichloromethane, CH2Cl2, InChI=1S/CH2Cl2/c2-1-3/h1H2
Compound 29: tetrachloromethane, CCl4, InChI=1S/CCl4/c2-1(3,4)5
Compound 30: acetonitrile, C2H3N, InChI=1S/C2H3N/c1-2-3/h1H3
Compound 31: 1-nitropropane, C3H7NO2, InChI=1S/C3H7NO2/c1-2-3-4(5)6/h2-3H2,1H3
Compound 32: thiophene, C4H4S, InChI=1S/C4H4S/c1-2-4-5-3-1/h1-4H
Compound 33: 1-(3-boronopropyl)-3-octyl-1H-imidazol-3-ium bromide, C14H28BBrN2O2, InChI=1S/C14H28BN2O2.BrH/c1-2-3-4-5-6-7-10-16-12-13-17(14-16)11-8-9-15(18)19;/h12-14,18-19H,2-11H2,1H3;1H/q+1;/p-1
Compound 34: 1-(3-boronopropyl)-3-decyl-1H-imidazol-3-ium bromide, C16H32BBrN2O2, InChI=1S/C16H32BN2O2.BrH/c1-2-3-4-5-6-7-8-9-12-18-14-15-19(16-18)13-10-11-17(20)21;/h14-16,20-21H,2-13H2,1H3;1H/q+1;/p-1
Compound 35: 1-(3-boronopropyl)-3-dodecyl-1H-imidazol-3-ium bromide, C18H36BBrN2O2, InChI=1S/C18H36BN2O2.BrH/c1-2-3-4-5-6-7-8-9-10-11-14-20-16-17-21(18-20)15-12-13-19(22)23;/h16-18,22-23H,2-15H2,1H3;1H/q+1;/p-1
Compound 36: 1-(3-boronopropyl)-3-methyl-1H-imidazol-3-ium bromide, C7H14BBrN2O2, InChI=1S/C7H14BN2O2.BrH/c1-9-5-6-10(7-9)4-2-3-8(11)12;/h5-7,11-12H,2-4H2,1H3;1H/q+1;/p-1

System: hexane + 1-allyl-3-methylimidazolium bromide; phases: Liquid
Property: Activity coefficient of hexane (Liquid); method: Chromatography
Temperature, K	Pressure, kPa	Mole fraction of hexane	Activity coefficient of hexane	uncertainty
323.15	101	0	25.07	1.71

System: hexane + 3-allyl-1-octyl-1H-imidazol-3-ium bromide; phases: Liquid
Property: Activity coefficient of hexane (Liquid); method: Chromatography
Temperature, K	Pressure, kPa	Mole fraction of hexane	Activity coefficient of hexane	uncertainty
323.15	101	0	8.9	0.61

System: hexane + 3-allyl-1-decyl-1H-imidazol-3-ium bromide; phases: Liquid
Property: Activity coefficient of hexane (Liquid); method: Chromatography
Temperature, K	Pressure, kPa	Mole fraction of hexane	Activity coefficient of hexane	uncertainty
323.15	101	0	8.39	0.57

System: hexane + 3-allyl-1-dodecyl-1H-imidazol-3-ium bromide; phases: Liquid
Property: Activity coefficient of hexane (Liquid); method: Chromatography
Temperature, K	Pressure, kPa	Mole fraction of hexane	Activity coefficient of hexane	uncertainty
323.15	101	0	4.41	0.3

System: heptane + 1-allyl-3-methylimidazolium bromide; phases: Liquid
Property: Activity coefficient of heptane (Liquid); method: Chromatography
Temperature, K	Pressure, kPa	Mole fraction of heptane	Activity coefficient of heptane	uncertainty
323.15	101	0	49.65	3.4

System: heptane + 3-allyl-1-octyl-1H-imidazol-3-ium bromide; phases: Liquid
Property: Activity coefficient of heptane (Liquid); method: Chromatography
Temperature, K	Pressure, kPa	Mole fraction of heptane	Activity coefficient of heptane	uncertainty
323.15	101	0	11.36	0.78

System: heptane + 3-allyl-1-decyl-1H-imidazol-3-ium bromide; phases: Liquid
Property: Activity coefficient of heptane (Liquid); method: Chromatography
Temperature, K	Pressure, kPa	Mole fraction of heptane	Activity coefficient of heptane	uncertainty
323.15	101	0	11.13	0.76

System: heptane + 3-allyl-1-dodecyl-1H-imidazol-3-ium bromide; phases: Liquid
Property: Activity coefficient of heptane (Liquid); method: Chromatography
Temperature, K	Pressure, kPa	Mole fraction of heptane	Activity coefficient of heptane	uncertainty
323.15	101	0	5.32	0.36

System: octane + 1-allyl-3-methylimidazolium bromide; phases: Liquid
Property: Activity coefficient of octane (Liquid); method: Chromatography
Temperature, K	Pressure, kPa	Mole fraction of octane	Activity coefficient of octane	uncertainty
323.15	101	0	63.02	4.32

System: octane + 3-allyl-1-octyl-1H-imidazol-3-ium bromide; phases: Liquid
Property: Activity coefficient of octane (Liquid); method: Chromatography
Temperature, K	Pressure, kPa	Mole fraction of octane	Activity coefficient of octane	uncertainty
323.15	101	0	14.94	1.02

System: octane + 3-allyl-1-decyl-1H-imidazol-3-ium bromide; phases: Liquid
Property: Activity coefficient of octane (Liquid); method: Chromatography
Temperature, K	Pressure, kPa	Mole fraction of octane	Activity coefficient of octane	uncertainty
323.15	101	0	14.35	0.98

System: octane + 3-allyl-1-dodecyl-1H-imidazol-3-ium bromide; phases: Liquid
Property: Activity coefficient of octane (Liquid); method: Chromatography
Temperature, K	Pressure, kPa	Mole fraction of octane	Activity coefficient of octane	uncertainty
323.15	101	0	6.37	0.43

System: nonane + 1-allyl-3-methylimidazolium bromide; phases: Liquid
Property: Activity coefficient of nonane (Liquid); method: Chromatography
Temperature, K	Pressure, kPa	Mole fraction of nonane	Activity coefficient of nonane	uncertainty
323.15	101	0	65.61	4.49

System: nonane + 3-allyl-1-octyl-1H-imidazol-3-ium bromide; phases: Liquid
Property: Activity coefficient of nonane (Liquid); method: Chromatography
Temperature, K	Pressure, kPa	Mole fraction of nonane	Activity coefficient of nonane	uncertainty
323.15	101	0	17.42	1.19

System: nonane + 3-allyl-1-decyl-1H-imidazol-3-ium bromide; phases: Liquid
Property: Activity coefficient of nonane (Liquid); method: Chromatography
Temperature, K	Pressure, kPa	Mole fraction of nonane	Activity coefficient of nonane	uncertainty
323.15	101	0	16.91	1.16

System: nonane + 3-allyl-1-dodecyl-1H-imidazol-3-ium bromide; phases: Liquid
Property: Activity coefficient of nonane (Liquid); method: Chromatography
Temperature, K	Pressure, kPa	Mole fraction of nonane	Activity coefficient of nonane	uncertainty
323.15	101	0	6.93	0.47

System: cyclohexane + 1-allyl-3-methylimidazolium bromide; phases: Liquid
Property: Activity coefficient of cyclohexane (Liquid); method: Chromatography
Temperature, K	Pressure, kPa	Mole fraction of cyclohexane	Activity coefficient of cyclohexane	uncertainty
323.15	101	0	15.68	1.07

System: cyclohexane + 3-allyl-1-octyl-1H-imidazol-3-ium bromide; phases: Liquid
Property: Activity coefficient of cyclohexane (Liquid); method: Chromatography
Temperature, K	Pressure, kPa	Mole fraction of cyclohexane	Activity coefficient of cyclohexane	uncertainty
323.15	101	0	5.66	0.39

System: cyclohexane + 3-allyl-1-decyl-1H-imidazol-3-ium bromide; phases: Liquid
Property: Activity coefficient of cyclohexane (Liquid); method: Chromatography
Temperature, K	Pressure, kPa	Mole fraction of cyclohexane	Activity coefficient of cyclohexane	uncertainty
323.15	101	0	5.64	0.38

System: cyclohexane + 3-allyl-1-dodecyl-1H-imidazol-3-ium bromide; phases: Liquid
Property: Activity coefficient of cyclohexane (Liquid); method: Chromatography
Temperature, K	Pressure, kPa	Mole fraction of cyclohexane	Activity coefficient of cyclohexane	uncertainty
323.15	101	0	3.12	0.21

System: benzene + 1-allyl-3-methylimidazolium bromide; phases: Liquid
Property: Activity coefficient of benzene (Liquid); method: Chromatography
Temperature, K	Pressure, kPa	Mole fraction of benzene	Activity coefficient of benzene	uncertainty
323.15	101	0	3.6	0.25

System: benzene + 3-allyl-1-octyl-1H-imidazol-3-ium bromide; phases: Liquid
Property: Activity coefficient of benzene (Liquid); method: Chromatography
Temperature, K	Pressure, kPa	Mole fraction of benzene	Activity coefficient of benzene	uncertainty
323.15	101	0	1.4	0.09

System: benzene + 3-allyl-1-decyl-1H-imidazol-3-ium bromide; phases: Liquid
Property: Activity coefficient of benzene (Liquid); method: Chromatography
Temperature, K	Pressure, kPa	Mole fraction of benzene	Activity coefficient of benzene	uncertainty
323.15	101	0	1.39	0.09

System: benzene + 3-allyl-1-dodecyl-1H-imidazol-3-ium bromide; phases: Liquid
Property: Activity coefficient of benzene (Liquid); method: Chromatography
Temperature, K	Pressure, kPa	Mole fraction of benzene	Activity coefficient of benzene	uncertainty
323.15	101	0	1.08	0.07

System: toluene + 1-allyl-3-methylimidazolium bromide; phases: Liquid
Property: Activity coefficient of toluene (Liquid); method: Chromatography
Temperature, K	Pressure, kPa	Mole fraction of toluene	Activity coefficient of toluene	uncertainty
323.15	101	0	6.19	0.42

System: toluene + 3-allyl-1-octyl-1H-imidazol-3-ium bromide; phases: Liquid
Property: Activity coefficient of toluene (Liquid); method: Chromatography
Temperature, K	Pressure, kPa	Mole fraction of toluene	Activity coefficient of toluene	uncertainty
323.15	101	0	1.92	0.13

System: toluene + 3-allyl-1-decyl-1H-imidazol-3-ium bromide; phases: Liquid
Property: Activity coefficient of toluene (Liquid); method: Chromatography
Temperature, K	Pressure, kPa	Mole fraction of toluene	Activity coefficient of toluene	uncertainty
323.15	101	0	1.85	0.12

System: toluene + 3-allyl-1-dodecyl-1H-imidazol-3-ium bromide; phases: Liquid
Property: Activity coefficient of toluene (Liquid); method: Chromatography
Temperature, K	Pressure, kPa	Mole fraction of toluene	Activity coefficient of toluene	uncertainty
323.15	101	0	1.38	0.09

System: ethylbenzene + 1-allyl-3-methylimidazolium bromide; phases: Liquid
Property: Activity coefficient of ethylbenzene (Liquid); method: Chromatography
Temperature, K	Pressure, kPa	Mole fraction of ethylbenzene	Activity coefficient of ethylbenzene	uncertainty
323.15	101	0	11.09	0.76

System: ethylbenzene + 3-allyl-1-octyl-1H-imidazol-3-ium bromide; phases: Liquid
Property: Activity coefficient of ethylbenzene (Liquid); method: Chromatography
Temperature, K	Pressure, kPa	Mole fraction of ethylbenzene	Activity coefficient of ethylbenzene	uncertainty
323.15	101	0	2.56	0.17

System: ethylbenzene + 3-allyl-1-decyl-1H-imidazol-3-ium bromide; phases: Liquid
Property: Activity coefficient of ethylbenzene (Liquid); method: Chromatography
Temperature, K	Pressure, kPa	Mole fraction of ethylbenzene	Activity coefficient of ethylbenzene	uncertainty
323.15	101	0	2.54	0.17

System: ethylbenzene + 3-allyl-1-dodecyl-1H-imidazol-3-ium bromide; phases: Liquid
Property: Activity coefficient of ethylbenzene (Liquid); method: Chromatography
Temperature, K	Pressure, kPa	Mole fraction of ethylbenzene	Activity coefficient of ethylbenzene	uncertainty
323.15	101	0	1.77	0.12

System: 1,3-dimethylbenzene + 1-allyl-3-methylimidazolium bromide; phases: Liquid
Property: Activity coefficient of 1,3-dimethylbenzene (Liquid); method: Chromatography
Temperature, K	Pressure, kPa	Mole fraction of 1,3-dimethylbenzene	Activity coefficient of 1,3-dimethylbenzene	uncertainty
323.15	101	0	11.1	0.76

System: 1,3-dimethylbenzene + 3-allyl-1-octyl-1H-imidazol-3-ium bromide; phases: Liquid
Property: Activity coefficient of 1,3-dimethylbenzene (Liquid); method: Chromatography
Temperature, K	Pressure, kPa	Mole fraction of 1,3-dimethylbenzene	Activity coefficient of 1,3-dimethylbenzene	uncertainty
323.15	101	0	2.73	0.19

System: 1,3-dimethylbenzene + 3-allyl-1-decyl-1H-imidazol-3-ium bromide; phases: Liquid
Property: Activity coefficient of 1,3-dimethylbenzene (Liquid); method: Chromatography
Temperature, K	Pressure, kPa	Mole fraction of 1,3-dimethylbenzene	Activity coefficient of 1,3-dimethylbenzene	uncertainty
323.15	101	0	2.73	0.19

System: 1,3-dimethylbenzene + 3-allyl-1-dodecyl-1H-imidazol-3-ium bromide; phases: Liquid
Property: Activity coefficient of 1,3-dimethylbenzene (Liquid); method: Chromatography
Temperature, K	Pressure, kPa	Mole fraction of 1,3-dimethylbenzene	Activity coefficient of 1,3-dimethylbenzene	uncertainty
323.15	101	0	1.85	0.12

System: 1,2-dimethylbenzene + 1-allyl-3-methylimidazolium bromide; phases: Liquid
Property: Activity coefficient of 1,2-dimethylbenzene (Liquid); method: Chromatography
Temperature, K	Pressure, kPa	Mole fraction of 1,2-dimethylbenzene	Activity coefficient of 1,2-dimethylbenzene	uncertainty
323.15	101	0	8.98	0.61

System: 1,2-dimethylbenzene + 3-allyl-1-octyl-1H-imidazol-3-ium bromide; phases: Liquid
Property: Activity coefficient of 1,2-dimethylbenzene (Liquid); method: Chromatography
Temperature, K	Pressure, kPa	Mole fraction of 1,2-dimethylbenzene	Activity coefficient of 1,2-dimethylbenzene	uncertainty
323.15	101	0	2.39	0.16

System: 1,2-dimethylbenzene + 3-allyl-1-dodecyl-1H-imidazol-3-ium bromide; phases: Liquid
Property: Activity coefficient of 1,2-dimethylbenzene (Liquid); method: Chromatography
Temperature, K	Pressure, kPa	Mole fraction of 1,2-dimethylbenzene	Activity coefficient of 1,2-dimethylbenzene	uncertainty
323.15	101	0	1.66	0.11

System: 1,2-dimethylbenzene + 3-allyl-1-decyl-1H-imidazol-3-ium bromide; phases: Liquid
Property: Activity coefficient of 1,2-dimethylbenzene (Liquid); method: Chromatography
Temperature, K	Pressure, kPa	Mole fraction of 1,2-dimethylbenzene	Activity coefficient of 1,2-dimethylbenzene	uncertainty
323.15	101	0	2.34	0.16

System: hex-1-ene + 1-allyl-3-methylimidazolium bromide; phases: Liquid
Property: Activity coefficient of hex-1-ene (Liquid); method: Chromatography
Temperature, K	Pressure, kPa	Mole fraction of hex-1-ene	Activity coefficient of hex-1-ene	uncertainty
323.15	101	0	16.5	1.1

System: hex-1-ene + 3-allyl-1-octyl-1H-imidazol-3-ium bromide; phases: Liquid
Property: Activity coefficient of hex-1-ene (Liquid); method: Chromatography
Temperature, K	Pressure, kPa	Mole fraction of hex-1-ene	Activity coefficient of hex-1-ene	uncertainty
323.15	101	0	5.93	0.4

System: hex-1-ene + 3-allyl-1-decyl-1H-imidazol-3-ium bromide; phases: Liquid
Property: Activity coefficient of hex-1-ene (Liquid); method: Chromatography
Temperature, K	Pressure, kPa	Mole fraction of hex-1-ene	Activity coefficient of hex-1-ene	uncertainty
323.15	101	0	5.89	0.4

System: hex-1-ene + 3-allyl-1-dodecyl-1H-imidazol-3-ium bromide; phases: Liquid
Property: Activity coefficient of hex-1-ene (Liquid); method: Chromatography
Temperature, K	Pressure, kPa	Mole fraction of hex-1-ene	Activity coefficient of hex-1-ene	uncertainty
323.15	101	0	3.47	0.24

System: 1-hexyne + 1-allyl-3-methylimidazolium bromide; phases: Liquid
Property: Activity coefficient of 1-hexyne (Liquid); method: Chromatography
Temperature, K	Pressure, kPa	Mole fraction of 1-hexyne	Activity coefficient of 1-hexyne	uncertainty
323.15	101	0	8.27	0.56

System: 1-hexyne + 3-allyl-1-octyl-1H-imidazol-3-ium bromide; phases: Liquid
Property: Activity coefficient of 1-hexyne (Liquid); method: Chromatography
Temperature, K	Pressure, kPa	Mole fraction of 1-hexyne	Activity coefficient of 1-hexyne	uncertainty
323.15	101	0	2.04	0.14

System: 1-hexyne + 3-allyl-1-decyl-1H-imidazol-3-ium bromide; phases: Liquid
Property: Activity coefficient of 1-hexyne (Liquid); method: Chromatography
Temperature, K	Pressure, kPa	Mole fraction of 1-hexyne	Activity coefficient of 1-hexyne	uncertainty
323.15	101	0	2.02	0.14

System: 1-hexyne + 3-allyl-1-dodecyl-1H-imidazol-3-ium bromide; phases: Liquid
Property: Activity coefficient of 1-hexyne (Liquid); method: Chromatography
Temperature, K	Pressure, kPa	Mole fraction of 1-hexyne	Activity coefficient of 1-hexyne	uncertainty
323.15	101	0	1.56	0.1

System: 1-heptyne + 1-allyl-3-methylimidazolium bromide; phases: Liquid
Property: Activity coefficient of 1-heptyne (Liquid); method: Chromatography
Temperature, K	Pressure, kPa	Mole fraction of 1-heptyne	Activity coefficient of 1-heptyne	uncertainty
323.15	101	0	13.16	0.9

System: 1-heptyne + 3-allyl-1-octyl-1H-imidazol-3-ium bromide; phases: Liquid
Property: Activity coefficient of 1-heptyne (Liquid); method: Chromatography
Temperature, K	Pressure, kPa	Mole fraction of 1-heptyne	Activity coefficient of 1-heptyne	uncertainty
323.15	101	0	2.56	0.17

System: 1-heptyne + 3-allyl-1-decyl-1H-imidazol-3-ium bromide; phases: Liquid
Property: Activity coefficient of 1-heptyne (Liquid); method: Chromatography
Temperature, K	Pressure, kPa	Mole fraction of 1-heptyne	Activity coefficient of 1-heptyne	uncertainty
323.15	101	0	2.58	0.18

System: 1-heptyne + 3-allyl-1-dodecyl-1H-imidazol-3-ium bromide; phases: Liquid
Property: Activity coefficient of 1-heptyne (Liquid); method: Chromatography
Temperature, K	Pressure, kPa	Mole fraction of 1-heptyne	Activity coefficient of 1-heptyne	uncertainty
323.15	101	0	1.87	0.13

System: butanone + 1-allyl-3-methylimidazolium bromide; phases: Liquid
Property: Activity coefficient of butanone (Liquid); method: Chromatography
Temperature, K	Pressure, kPa	Mole fraction of butanone	Activity coefficient of butanone	uncertainty
323.15	101	0	2.68	0.18

System: butanone + 3-allyl-1-octyl-1H-imidazol-3-ium bromide; phases: Liquid
Property: Activity coefficient of butanone (Liquid); method: Chromatography
Temperature, K	Pressure, kPa	Mole fraction of butanone	Activity coefficient of butanone	uncertainty
323.15	101	0	1.46	0.1

System: butanone + 3-allyl-1-decyl-1H-imidazol-3-ium bromide; phases: Liquid
Property: Activity coefficient of butanone (Liquid); method: Chromatography
Temperature, K	Pressure, kPa	Mole fraction of butanone	Activity coefficient of butanone	uncertainty
323.15	101	0	1.48	0.1

System: butanone + 3-allyl-1-dodecyl-1H-imidazol-3-ium bromide; phases: Liquid
Property: Activity coefficient of butanone (Liquid); method: Chromatography
Temperature, K	Pressure, kPa	Mole fraction of butanone	Activity coefficient of butanone	uncertainty
323.15	101	0	1.43	0.09

System: pentan-2-one + 1-allyl-3-methylimidazolium bromide; phases: Liquid
Property: Activity coefficient of pentan-2-one (Liquid); method: Chromatography
Temperature, K	Pressure, kPa	Mole fraction of pentan-2-one	Activity coefficient of pentan-2-one	uncertainty
323.15	101	0	4.32	0.29

System: pentan-2-one + 3-allyl-1-octyl-1H-imidazol-3-ium bromide; phases: Liquid
Property: Activity coefficient of pentan-2-one (Liquid); method: Chromatography
Temperature, K	Pressure, kPa	Mole fraction of pentan-2-one	Activity coefficient of pentan-2-one	uncertainty
323.15	101	0	1.93	0.13

System: pentan-2-one + 3-allyl-1-decyl-1H-imidazol-3-ium bromide; phases: Liquid
Property: Activity coefficient of pentan-2-one (Liquid); method: Chromatography
Temperature, K	Pressure, kPa	Mole fraction of pentan-2-one	Activity coefficient of pentan-2-one	uncertainty
323.15	101	0	1.78	0.12

System: pentan-2-one + 3-allyl-1-dodecyl-1H-imidazol-3-ium bromide; phases: Liquid
Property: Activity coefficient of pentan-2-one (Liquid); method: Chromatography
Temperature, K	Pressure, kPa	Mole fraction of pentan-2-one	Activity coefficient of pentan-2-one	uncertainty
323.15	101	0	1.62	0.11

System: 1,4-dioxane + 1-allyl-3-methylimidazolium bromide; phases: Liquid
Property: Activity coefficient of 1,4-dioxane (Liquid); method: Chromatography
Temperature, K	Pressure, kPa	Mole fraction of 1,4-dioxane	Activity coefficient of 1,4-dioxane	uncertainty
323.15	101	0	1.59	0.11

System: 1,4-dioxane + 3-allyl-1-octyl-1H-imidazol-3-ium bromide; phases: Liquid
Property: Activity coefficient of 1,4-dioxane (Liquid); method: Chromatography
Temperature, K	Pressure, kPa	Mole fraction of 1,4-dioxane	Activity coefficient of 1,4-dioxane	uncertainty
323.15	101	0	1.52	0.1

System: 1,4-dioxane + 3-allyl-1-decyl-1H-imidazol-3-ium bromide; phases: Liquid
Property: Activity coefficient of 1,4-dioxane (Liquid); method: Chromatography
Temperature, K	Pressure, kPa	Mole fraction of 1,4-dioxane	Activity coefficient of 1,4-dioxane	uncertainty
323.15	101	0	1.39	0.09

System: 1,4-dioxane + 3-allyl-1-dodecyl-1H-imidazol-3-ium bromide; phases: Liquid
Property: Activity coefficient of 1,4-dioxane (Liquid); method: Chromatography
Temperature, K	Pressure, kPa	Mole fraction of 1,4-dioxane	Activity coefficient of 1,4-dioxane	uncertainty
323.15	101	0	1.3	0.08

System: methanol + 1-allyl-3-methylimidazolium bromide; phases: Liquid
Property: Activity coefficient of methanol (Liquid); method: Chromatography
Temperature, K	Pressure, kPa	Mole fraction of methanol	Activity coefficient of methanol	uncertainty
323.15	101	0	0.18	0.03

System: methanol + 3-allyl-1-octyl-1H-imidazol-3-ium bromide; phases: Liquid
Property: Activity coefficient of methanol (Liquid); method: Chromatography
Temperature, K	Pressure, kPa	Mole fraction of methanol	Activity coefficient of methanol	uncertainty
323.15	101	0	0.17	0.03

System: methanol + 3-allyl-1-decyl-1H-imidazol-3-ium bromide; phases: Liquid
Property: Activity coefficient of methanol (Liquid); method: Chromatography
Temperature, K	Pressure, kPa	Mole fraction of methanol	Activity coefficient of methanol	uncertainty
323.15	101	0	0.17	0.03

System: methanol + 3-allyl-1-dodecyl-1H-imidazol-3-ium bromide; phases: Liquid
Property: Activity coefficient of methanol (Liquid); method: Chromatography
Temperature, K	Pressure, kPa	Mole fraction of methanol	Activity coefficient of methanol	uncertainty
323.15	101	0	0.15	0.03

System: ethanol + 1-allyl-3-methylimidazolium bromide; phases: Liquid
Property: Activity coefficient of ethanol (Liquid); method: Chromatography
Temperature, K	Pressure, kPa	Mole fraction of ethanol	Activity coefficient of ethanol	uncertainty
323.15	101	0	0.27	0.03

System: ethanol + 3-allyl-1-octyl-1H-imidazol-3-ium bromide; phases: Liquid
Property: Activity coefficient of ethanol (Liquid); method: Chromatography
Temperature, K	Pressure, kPa	Mole fraction of ethanol	Activity coefficient of ethanol	uncertainty
323.15	101	0	0.27	0.03

System: ethanol + 3-allyl-1-decyl-1H-imidazol-3-ium bromide; phases: Liquid
Property: Activity coefficient of ethanol (Liquid); method: Chromatography
Temperature, K	Pressure, kPa	Mole fraction of ethanol	Activity coefficient of ethanol	uncertainty
323.15	101	0	0.26	0.03

System: ethanol + 3-allyl-1-dodecyl-1H-imidazol-3-ium bromide; phases: Liquid
Property: Activity coefficient of ethanol (Liquid); method: Chromatography
Temperature, K	Pressure, kPa	Mole fraction of ethanol	Activity coefficient of ethanol	uncertainty
323.15	101	0	0.23	0.03

System: propan-1-ol + 1-allyl-3-methylimidazolium bromide; phases: Liquid
Property: Activity coefficient of propan-1-ol (Liquid); method: Chromatography
Temperature, K	Pressure, kPa	Mole fraction of propan-1-ol	Activity coefficient of propan-1-ol	uncertainty
323.15	101	0	0.54	0.04

System: propan-1-ol + 3-allyl-1-octyl-1H-imidazol-3-ium bromide; phases: Liquid
Property: Activity coefficient of propan-1-ol (Liquid); method: Chromatography
Temperature, K	Pressure, kPa	Mole fraction of propan-1-ol	Activity coefficient of propan-1-ol	uncertainty
323.15	101	0	0.28	0.03

System: propan-1-ol + 3-allyl-1-decyl-1H-imidazol-3-ium bromide; phases: Liquid
Property: Activity coefficient of propan-1-ol (Liquid); method: Chromatography
Temperature, K	Pressure, kPa	Mole fraction of propan-1-ol	Activity coefficient of propan-1-ol	uncertainty
323.15	101	0	0.28	0.03

System: propan-1-ol + 3-allyl-1-dodecyl-1H-imidazol-3-ium bromide; phases: Liquid
Property: Activity coefficient of propan-1-ol (Liquid); method: Chromatography
Temperature, K	Pressure, kPa	Mole fraction of propan-1-ol	Activity coefficient of propan-1-ol	uncertainty
323.15	101	0	0.23	0.03

System: propan-2-ol + 1-allyl-3-methylimidazolium bromide; phases: Liquid
Property: Activity coefficient of propan-2-ol (Liquid); method: Chromatography
Temperature, K	Pressure, kPa	Mole fraction of propan-2-ol	Activity coefficient of propan-2-ol	uncertainty
323.15	101	0	0.69	0.05

System: propan-2-ol + 3-allyl-1-octyl-1H-imidazol-3-ium bromide; phases: Liquid
Property: Activity coefficient of propan-2-ol (Liquid); method: Chromatography
Temperature, K	Pressure, kPa	Mole fraction of propan-2-ol	Activity coefficient of propan-2-ol	uncertainty
323.15	101	0	0.36	0.03

System: propan-2-ol + 3-allyl-1-decyl-1H-imidazol-3-ium bromide; phases: Liquid
Property: Activity coefficient of propan-2-ol (Liquid); method: Chromatography
Temperature, K	Pressure, kPa	Mole fraction of propan-2-ol	Activity coefficient of propan-2-ol	uncertainty
323.15	101	0	0.35	0.03

System: propan-2-ol + 3-allyl-1-dodecyl-1H-imidazol-3-ium bromide; phases: Liquid
Property: Activity coefficient of propan-2-ol (Liquid); method: Chromatography
Temperature, K	Pressure, kPa	Mole fraction of propan-2-ol	Activity coefficient of propan-2-ol	uncertainty
323.15	101	0	0.29	0.03

System: 2-methyl-1-propanol + 1-allyl-3-methylimidazolium bromide; phases: Liquid
Property: Activity coefficient of 2-methyl-1-propanol (Liquid); method: Chromatography
Temperature, K	Pressure, kPa	Mole fraction of 2-methyl-1-propanol	Activity coefficient of 2-methyl-1-propanol	uncertainty
323.15	101	0	0.33	0.03

System: 2-methyl-1-propanol + 3-allyl-1-octyl-1H-imidazol-3-ium bromide; phases: Liquid
Property: Activity coefficient of 2-methyl-1-propanol (Liquid); method: Chromatography
Temperature, K	Pressure, kPa	Mole fraction of 2-methyl-1-propanol	Activity coefficient of 2-methyl-1-propanol	uncertainty
323.15	101	0	0.29	0.03

System: 2-methyl-1-propanol + 3-allyl-1-decyl-1H-imidazol-3-ium bromide; phases: Liquid
Property: Activity coefficient of 2-methyl-1-propanol (Liquid); method: Chromatography
Temperature, K	Pressure, kPa	Mole fraction of 2-methyl-1-propanol	Activity coefficient of 2-methyl-1-propanol	uncertainty
323.15	101	0	0.29	0.03

System: 2-methyl-1-propanol + 3-allyl-1-dodecyl-1H-imidazol-3-ium bromide; phases: Liquid
Property: Activity coefficient of 2-methyl-1-propanol (Liquid); method: Chromatography
Temperature, K	Pressure, kPa	Mole fraction of 2-methyl-1-propanol	Activity coefficient of 2-methyl-1-propanol	uncertainty
323.15	101	0	0.23	0.03

System: diethyl ether + 1-allyl-3-methylimidazolium bromide; phases: Liquid
Property: Activity coefficient of diethyl ether (Liquid); method: Chromatography
Temperature, K	Pressure, kPa	Mole fraction of diethyl ether	Activity coefficient of diethyl ether	uncertainty
323.15	101	0	11.4	0.78

System: diethyl ether + 3-allyl-1-octyl-1H-imidazol-3-ium bromide; phases: Liquid
Property: Activity coefficient of diethyl ether (Liquid); method: Chromatography
Temperature, K	Pressure, kPa	Mole fraction of diethyl ether	Activity coefficient of diethyl ether	uncertainty
323.15	101	0	4.18	0.28

System: diethyl ether + 3-allyl-1-decyl-1H-imidazol-3-ium bromide; phases: Liquid
Property: Activity coefficient of diethyl ether (Liquid); method: Chromatography
Temperature, K	Pressure, kPa	Mole fraction of diethyl ether	Activity coefficient of diethyl ether	uncertainty
323.15	101	0	3.54	0.24

System: diethyl ether + 3-allyl-1-dodecyl-1H-imidazol-3-ium bromide; phases: Liquid
Property: Activity coefficient of diethyl ether (Liquid); method: Chromatography
Temperature, K	Pressure, kPa	Mole fraction of diethyl ether	Activity coefficient of diethyl ether	uncertainty
323.15	101	0	2.95	0.2

System: trichloromethane + 1-allyl-3-methylimidazolium bromide; phases: Liquid
Property: Activity coefficient of trichloromethane (Liquid); method: Chromatography
Temperature, K	Pressure, kPa	Mole fraction of trichloromethane	Activity coefficient of trichloromethane	uncertainty
323.15	101	0	0.25	0.03

System: trichloromethane + 3-allyl-1-octyl-1H-imidazol-3-ium bromide; phases: Liquid
Property: Activity coefficient of trichloromethane (Liquid); method: Chromatography
Temperature, K	Pressure, kPa	Mole fraction of trichloromethane	Activity coefficient of trichloromethane	uncertainty
323.15	101	0	0.14	0.03

System: trichloromethane + 3-allyl-1-decyl-1H-imidazol-3-ium bromide; phases: Liquid
Property: Activity coefficient of trichloromethane (Liquid); method: Chromatography
Temperature, K	Pressure, kPa	Mole fraction of trichloromethane	Activity coefficient of trichloromethane	uncertainty
323.15	101	0	0.13	0.03

System: trichloromethane + 3-allyl-1-dodecyl-1H-imidazol-3-ium bromide; phases: Liquid
Property: Activity coefficient of trichloromethane (Liquid); method: Chromatography
Temperature, K	Pressure, kPa	Mole fraction of trichloromethane	Activity coefficient of trichloromethane	uncertainty
323.15	101	0	0.12	0.03

System: dichloromethane + 1-allyl-3-methylimidazolium bromide; phases: Liquid
Property: Activity coefficient of dichloromethane (Liquid); method: Chromatography
Temperature, K	Pressure, kPa	Mole fraction of dichloromethane	Activity coefficient of dichloromethane	uncertainty
323.15	101	0	0.33	0.03

System: dichloromethane + 3-allyl-1-octyl-1H-imidazol-3-ium bromide; phases: Liquid
Property: Activity coefficient of dichloromethane (Liquid); method: Chromatography
Temperature, K	Pressure, kPa	Mole fraction of dichloromethane	Activity coefficient of dichloromethane	uncertainty
323.15	101	0	0.28	0.03

System: dichloromethane + 3-allyl-1-decyl-1H-imidazol-3-ium bromide; phases: Liquid
Property: Activity coefficient of dichloromethane (Liquid); method: Chromatography
Temperature, K	Pressure, kPa	Mole fraction of dichloromethane	Activity coefficient of dichloromethane	uncertainty
323.15	101	0	0.27	0.03

System: dichloromethane + 3-allyl-1-dodecyl-1H-imidazol-3-ium bromide; phases: Liquid
Property: Activity coefficient of dichloromethane (Liquid); method: Chromatography
Temperature, K	Pressure, kPa	Mole fraction of dichloromethane	Activity coefficient of dichloromethane	uncertainty
323.15	101	0	0.25	0.03

System: tetrachloromethane + 1-allyl-3-methylimidazolium bromide; phases: Liquid
Property: Activity coefficient of tetrachloromethane (Liquid); method: Chromatography
Temperature, K	Pressure, kPa	Mole fraction of tetrachloromethane	Activity coefficient of tetrachloromethane	uncertainty
323.15	101	0	1.54	0.1

System: tetrachloromethane + 3-allyl-1-octyl-1H-imidazol-3-ium bromide; phases: Liquid
Property: Activity coefficient of tetrachloromethane (Liquid); method: Chromatography
Temperature, K	Pressure, kPa	Mole fraction of tetrachloromethane	Activity coefficient of tetrachloromethane	uncertainty
323.15	101	0	0.82	0.05

System: tetrachloromethane + 3-allyl-1-dodecyl-1H-imidazol-3-ium bromide; phases: Liquid
Property: Activity coefficient of tetrachloromethane (Liquid); method: Chromatography
Temperature, K	Pressure, kPa	Mole fraction of tetrachloromethane	Activity coefficient of tetrachloromethane	uncertainty
323.15	101	0	0.7	0.05

System: acetonitrile + 1-allyl-3-methylimidazolium bromide; phases: Liquid
Property: Activity coefficient of acetonitrile (Liquid); method: Chromatography
Temperature, K	Pressure, kPa	Mole fraction of acetonitrile	Activity coefficient of acetonitrile	uncertainty
323.15	101	0	1.04	0.07

System: acetonitrile + 3-allyl-1-octyl-1H-imidazol-3-ium bromide; phases: Liquid
Property: Activity coefficient of acetonitrile (Liquid); method: Chromatography
Temperature, K	Pressure, kPa	Mole fraction of acetonitrile	Activity coefficient of acetonitrile	uncertainty
323.15	101	0	0.98	0.06

System: acetonitrile + 3-allyl-1-decyl-1H-imidazol-3-ium bromide; phases: Liquid
Property: Activity coefficient of acetonitrile (Liquid); method: Chromatography
Temperature, K	Pressure, kPa	Mole fraction of acetonitrile	Activity coefficient of acetonitrile	uncertainty
323.15	101	0	0.89	0.06

System: acetonitrile + 3-allyl-1-dodecyl-1H-imidazol-3-ium bromide; phases: Liquid
Property: Activity coefficient of acetonitrile (Liquid); method: Chromatography
Temperature, K	Pressure, kPa	Mole fraction of acetonitrile	Activity coefficient of acetonitrile	uncertainty
323.15	101	0	0.86	0.06

System: 1-nitropropane + 1-allyl-3-methylimidazolium bromide; phases: Liquid
Property: Activity coefficient of 1-nitropropane (Liquid); method: Chromatography
Temperature, K	Pressure, kPa	Mole fraction of 1-nitropropane	Activity coefficient of 1-nitropropane	uncertainty
323.15	101	0	1.83	0.12

System: 1-nitropropane + 3-allyl-1-octyl-1H-imidazol-3-ium bromide; phases: Liquid
Property: Activity coefficient of 1-nitropropane (Liquid); method: Chromatography
Temperature, K	Pressure, kPa	Mole fraction of 1-nitropropane	Activity coefficient of 1-nitropropane	uncertainty
323.15	101	0	1.23	0.08

System: 1-nitropropane + 3-allyl-1-decyl-1H-imidazol-3-ium bromide; phases: Liquid
Property: Activity coefficient of 1-nitropropane (Liquid); method: Chromatography
Temperature, K	Pressure, kPa	Mole fraction of 1-nitropropane	Activity coefficient of 1-nitropropane	uncertainty
323.15	101	0	1.14	0.07

System: 1-nitropropane + 3-allyl-1-dodecyl-1H-imidazol-3-ium bromide; phases: Liquid
Property: Activity coefficient of 1-nitropropane (Liquid); method: Chromatography
Temperature, K	Pressure, kPa	Mole fraction of 1-nitropropane	Activity coefficient of 1-nitropropane	uncertainty
323.15	101	0	1.12	0.07

System: thiophene + 1-allyl-3-methylimidazolium bromide; phases: Liquid
Property: Activity coefficient of thiophene (Liquid); method: Chromatography
Temperature, K	Pressure, kPa	Mole fraction of thiophene	Activity coefficient of thiophene	uncertainty
323.15	101	0	1.48	0.1

System: thiophene + 3-allyl-1-octyl-1H-imidazol-3-ium bromide; phases: Liquid
Property: Activity coefficient of thiophene (Liquid); method: Chromatography
Temperature, K	Pressure, kPa	Mole fraction of thiophene	Activity coefficient of thiophene	uncertainty
323.15	101	0	0.93	0.06

System: thiophene + 3-allyl-1-decyl-1H-imidazol-3-ium bromide; phases: Liquid
Property: Activity coefficient of thiophene (Liquid); method: Chromatography
Temperature, K	Pressure, kPa	Mole fraction of thiophene	Activity coefficient of thiophene	uncertainty
323.15	101	0	0.89	0.06

System: thiophene + 3-allyl-1-dodecyl-1H-imidazol-3-ium bromide; phases: Liquid
Property: Activity coefficient of thiophene (Liquid); method: Chromatography
Temperature, K	Pressure, kPa	Mole fraction of thiophene	Activity coefficient of thiophene	uncertainty
323.15	101	0	0.77	0.05

System: hexane + 1-(3-boronopropyl)-3-octyl-1H-imidazol-3-ium bromide; phases: Liquid
Property: Activity coefficient of hexane (Liquid); method: Chromatography
Temperature, K	Pressure, kPa	Mole fraction of hexane	Activity coefficient of hexane	uncertainty
323.15	101	0	18.23	1.25

System: hexane + 1-(3-boronopropyl)-3-decyl-1H-imidazol-3-ium bromide; phases: Liquid
Property: Activity coefficient of hexane (Liquid); method: Chromatography
Temperature, K	Pressure, kPa	Mole fraction of hexane	Activity coefficient of hexane	uncertainty
323.15	101	0	5.45	0.37

System: hexane + 1-(3-boronopropyl)-3-dodecyl-1H-imidazol-3-ium bromide; phases: Liquid
Property: Activity coefficient of hexane (Liquid); method: Chromatography
Temperature, K	Pressure, kPa	Mole fraction of hexane	Activity coefficient of hexane	uncertainty
323.15	101	0	4.65	0.32

System: heptane + 1-(3-boronopropyl)-3-methyl-1H-imidazol-3-ium bromide; phases: Liquid
Property: Activity coefficient of heptane (Liquid); method: Chromatography
Temperature, K	Pressure, kPa	Mole fraction of heptane	Activity coefficient of heptane	uncertainty
323.15	101	0	77.64	5.32

System: heptane + 1-(3-boronopropyl)-3-octyl-1H-imidazol-3-ium bromide; phases: Liquid
Property: Activity coefficient of heptane (Liquid); method: Chromatography
Temperature, K	Pressure, kPa	Mole fraction of heptane	Activity coefficient of heptane	uncertainty
323.15	101	0	20.25	1.38

System: heptane + 1-(3-boronopropyl)-3-decyl-1H-imidazol-3-ium bromide; phases: Liquid
Property: Activity coefficient of heptane (Liquid); method: Chromatography
Temperature, K	Pressure, kPa	Mole fraction of heptane	Activity coefficient of heptane	uncertainty
323.15	101	0	7.04	0.48

System: heptane + 1-(3-boronopropyl)-3-dodecyl-1H-imidazol-3-ium bromide; phases: Liquid
Property: Activity coefficient of heptane (Liquid); method: Chromatography
Temperature, K	Pressure, kPa	Mole fraction of heptane	Activity coefficient of heptane	uncertainty
323.15	101	0	5.36	0.37

System: octane + 1-(3-boronopropyl)-3-methyl-1H-imidazol-3-ium bromide; phases: Liquid
Property: Activity coefficient of octane (Liquid); method: Chromatography
Temperature, K	Pressure, kPa	Mole fraction of octane	Activity coefficient of octane	uncertainty
323.15	101	0	80.97	5.55

System: octane + 1-(3-boronopropyl)-3-octyl-1H-imidazol-3-ium bromide; phases: Liquid
Property: Activity coefficient of octane (Liquid); method: Chromatography
Temperature, K	Pressure, kPa	Mole fraction of octane	Activity coefficient of octane	uncertainty
323.15	101	0	23.65	1.62

System: octane + 1-(3-boronopropyl)-3-decyl-1H-imidazol-3-ium bromide; phases: Liquid
Property: Activity coefficient of octane (Liquid); method: Chromatography
Temperature, K	Pressure, kPa	Mole fraction of octane	Activity coefficient of octane	uncertainty
323.15	101	0	8.81	0.6

System: octane + 1-(3-boronopropyl)-3-dodecyl-1H-imidazol-3-ium bromide; phases: Liquid
Property: Activity coefficient of octane (Liquid); method: Chromatography
Temperature, K	Pressure, kPa	Mole fraction of octane	Activity coefficient of octane	uncertainty
323.15	101	0	6.34	0.43

System: nonane + 1-(3-boronopropyl)-3-methyl-1H-imidazol-3-ium bromide; phases: Liquid
Property: Activity coefficient of nonane (Liquid); method: Chromatography
Temperature, K	Pressure, kPa	Mole fraction of nonane	Activity coefficient of nonane	uncertainty
323.15	101	0	83.18	5.7

System: nonane + 1-(3-boronopropyl)-3-octyl-1H-imidazol-3-ium bromide; phases: Liquid
Property: Activity coefficient of nonane (Liquid); method: Chromatography
Temperature, K	Pressure, kPa	Mole fraction of nonane	Activity coefficient of nonane	uncertainty
323.15	101	0	26.17	1.79

System: nonane + 1-(3-boronopropyl)-3-decyl-1H-imidazol-3-ium bromide; phases: Liquid
Property: Activity coefficient of nonane (Liquid); method: Chromatography
Temperature, K	Pressure, kPa	Mole fraction of nonane	Activity coefficient of nonane	uncertainty
323.15	101	0	9.92	0.68

System: nonane + 1-(3-boronopropyl)-3-dodecyl-1H-imidazol-3-ium bromide; phases: Liquid
Property: Activity coefficient of nonane (Liquid); method: Chromatography
Temperature, K	Pressure, kPa	Mole fraction of nonane	Activity coefficient of nonane	uncertainty
323.15	101	0	6.99	0.48

System: cyclohexane + 1-(3-boronopropyl)-3-octyl-1H-imidazol-3-ium bromide; phases: Liquid
Property: Activity coefficient of cyclohexane (Liquid); method: Chromatography
Temperature, K	Pressure, kPa	Mole fraction of cyclohexane	Activity coefficient of cyclohexane	uncertainty
323.15	101	0	8.15	0.56

System: cyclohexane + 1-(3-boronopropyl)-3-decyl-1H-imidazol-3-ium bromide; phases: Liquid
Property: Activity coefficient of cyclohexane (Liquid); method: Chromatography
Temperature, K	Pressure, kPa	Mole fraction of cyclohexane	Activity coefficient of cyclohexane	uncertainty
323.15	101	0	3.89	0.26

System: cyclohexane + 1-(3-boronopropyl)-3-dodecyl-1H-imidazol-3-ium bromide; phases: Liquid
Property: Activity coefficient of cyclohexane (Liquid); method: Chromatography
Temperature, K	Pressure, kPa	Mole fraction of cyclohexane	Activity coefficient of cyclohexane	uncertainty
323.15	101	0	3.25	0.22

System: benzene + 1-(3-boronopropyl)-3-methyl-1H-imidazol-3-ium bromide; phases: Liquid
Property: Activity coefficient of benzene (Liquid); method: Chromatography
Temperature, K	Pressure, kPa	Mole fraction of benzene	Activity coefficient of benzene	uncertainty
323.15	101	0	18.07	1.23

System: benzene + 1-(3-boronopropyl)-3-octyl-1H-imidazol-3-ium bromide; phases: Liquid
Property: Activity coefficient of benzene (Liquid); method: Chromatography
Temperature, K	Pressure, kPa	Mole fraction of benzene	Activity coefficient of benzene	uncertainty
323.15	101	0	1.84	0.12

System: benzene + 1-(3-boronopropyl)-3-decyl-1H-imidazol-3-ium bromide; phases: Liquid
Property: Activity coefficient of benzene (Liquid); method: Chromatography
Temperature, K	Pressure, kPa	Mole fraction of benzene	Activity coefficient of benzene	uncertainty
323.15	101	0	1.33	0.09

System: benzene + 1-(3-boronopropyl)-3-dodecyl-1H-imidazol-3-ium bromide; phases: Liquid
Property: Activity coefficient of benzene (Liquid); method: Chromatography
Temperature, K	Pressure, kPa	Mole fraction of benzene	Activity coefficient of benzene	uncertainty
323.15	101	0	1.21	0.08

System: toluene + 1-(3-boronopropyl)-3-methyl-1H-imidazol-3-ium bromide; phases: Liquid
Property: Activity coefficient of toluene (Liquid); method: Chromatography
Temperature, K	Pressure, kPa	Mole fraction of toluene	Activity coefficient of toluene	uncertainty
323.15	101	0	38.76	2.65

System: toluene + 1-(3-boronopropyl)-3-octyl-1H-imidazol-3-ium bromide; phases: Liquid
Property: Activity coefficient of toluene (Liquid); method: Chromatography
Temperature, K	Pressure, kPa	Mole fraction of toluene	Activity coefficient of toluene	uncertainty
323.15	101	0	2.41	0.16

System: toluene + 1-(3-boronopropyl)-3-decyl-1H-imidazol-3-ium bromide; phases: Liquid
Property: Activity coefficient of toluene (Liquid); method: Chromatography
Temperature, K	Pressure, kPa	Mole fraction of toluene	Activity coefficient of toluene	uncertainty
323.15	101	0	1.8	0.12

System: toluene + 1-(3-boronopropyl)-3-dodecyl-1H-imidazol-3-ium bromide; phases: Liquid
Property: Activity coefficient of toluene (Liquid); method: Chromatography
Temperature, K	Pressure, kPa	Mole fraction of toluene	Activity coefficient of toluene	uncertainty
323.15	101	0	3.36	0.23

System: ethylbenzene + 1-(3-boronopropyl)-3-methyl-1H-imidazol-3-ium bromide; phases: Liquid
Property: Activity coefficient of ethylbenzene (Liquid); method: Chromatography
Temperature, K	Pressure, kPa	Mole fraction of ethylbenzene	Activity coefficient of ethylbenzene	uncertainty
323.15	101	0	45.06	3.08

System: ethylbenzene + 1-(3-boronopropyl)-3-octyl-1H-imidazol-3-ium bromide; phases: Liquid
Property: Activity coefficient of ethylbenzene (Liquid); method: Chromatography
Temperature, K	Pressure, kPa	Mole fraction of ethylbenzene	Activity coefficient of ethylbenzene	uncertainty
323.15	101	0	3.28	0.22

System: ethylbenzene + 1-(3-boronopropyl)-3-decyl-1H-imidazol-3-ium bromide; phases: Liquid
Property: Activity coefficient of ethylbenzene (Liquid); method: Chromatography
Temperature, K	Pressure, kPa	Mole fraction of ethylbenzene	Activity coefficient of ethylbenzene	uncertainty
323.15	101	0	2.37	0.16

System: ethylbenzene + 1-(3-boronopropyl)-3-dodecyl-1H-imidazol-3-ium bromide; phases: Liquid
Property: Activity coefficient of ethylbenzene (Liquid); method: Chromatography
Temperature, K	Pressure, kPa	Mole fraction of ethylbenzene	Activity coefficient of ethylbenzene	uncertainty
323.15	101	0	3.83	0.26

System: 1,3-dimethylbenzene + 1-(3-boronopropyl)-3-methyl-1H-imidazol-3-ium bromide; phases: Liquid
Property: Activity coefficient of 1,3-dimethylbenzene (Liquid); method: Chromatography
Temperature, K	Pressure, kPa	Mole fraction of 1,3-dimethylbenzene	Activity coefficient of 1,3-dimethylbenzene	uncertainty
323.15	101	0	48.15	3.3

System: 1,3-dimethylbenzene + 1-(3-boronopropyl)-3-octyl-1H-imidazol-3-ium bromide; phases: Liquid
Property: Activity coefficient of 1,3-dimethylbenzene (Liquid); method: Chromatography
Temperature, K	Pressure, kPa	Mole fraction of 1,3-dimethylbenzene	Activity coefficient of 1,3-dimethylbenzene	uncertainty
323.15	101	0	3.57	0.24

System: 1,3-dimethylbenzene + 1-(3-boronopropyl)-3-decyl-1H-imidazol-3-ium bromide; phases: Liquid
Property: Activity coefficient of 1,3-dimethylbenzene (Liquid); method: Chromatography
Temperature, K	Pressure, kPa	Mole fraction of 1,3-dimethylbenzene	Activity coefficient of 1,3-dimethylbenzene	uncertainty
323.15	101	0	2.11	0.14

System: 1,3-dimethylbenzene + 1-(3-boronopropyl)-3-dodecyl-1H-imidazol-3-ium bromide; phases: Liquid
Property: Activity coefficient of 1,3-dimethylbenzene (Liquid); method: Chromatography
Temperature, K	Pressure, kPa	Mole fraction of 1,3-dimethylbenzene	Activity coefficient of 1,3-dimethylbenzene	uncertainty
323.15	101	0	1.98	0.13

System: 1,2-dimethylbenzene + 1-(3-boronopropyl)-3-methyl-1H-imidazol-3-ium bromide; phases: Liquid
Property: Activity coefficient of 1,2-dimethylbenzene (Liquid); method: Chromatography
Temperature, K	Pressure, kPa	Mole fraction of 1,2-dimethylbenzene	Activity coefficient of 1,2-dimethylbenzene	uncertainty
323.15	101	0	44.02	3.01

System: 1,2-dimethylbenzene + 1-(3-boronopropyl)-3-octyl-1H-imidazol-3-ium bromide; phases: Liquid
Property: Activity coefficient of 1,2-dimethylbenzene (Liquid); method: Chromatography
Temperature, K	Pressure, kPa	Mole fraction of 1,2-dimethylbenzene	Activity coefficient of 1,2-dimethylbenzene	uncertainty
323.15	101	0	3.11	0.21

System: 1,2-dimethylbenzene + 1-(3-boronopropyl)-3-decyl-1H-imidazol-3-ium bromide; phases: Liquid
Property: Activity coefficient of 1,2-dimethylbenzene (Liquid); method: Chromatography
Temperature, K	Pressure, kPa	Mole fraction of 1,2-dimethylbenzene	Activity coefficient of 1,2-dimethylbenzene	uncertainty
323.15	101	0	1.89	0.13

System: 1,2-dimethylbenzene + 1-(3-boronopropyl)-3-dodecyl-1H-imidazol-3-ium bromide; phases: Liquid
Property: Activity coefficient of 1,2-dimethylbenzene (Liquid); method: Chromatography
Temperature, K	Pressure, kPa	Mole fraction of 1,2-dimethylbenzene	Activity coefficient of 1,2-dimethylbenzene	uncertainty
323.15	101	0	1.78	0.12

System: hex-1-ene + 1-(3-boronopropyl)-3-octyl-1H-imidazol-3-ium bromide; phases: Liquid
Property: Activity coefficient of hex-1-ene (Liquid); method: Chromatography
Temperature, K	Pressure, kPa	Mole fraction of hex-1-ene	Activity coefficient of hex-1-ene	uncertainty
323.15	101	0	8.32	0.57

System: hex-1-ene + 1-(3-boronopropyl)-3-decyl-1H-imidazol-3-ium bromide; phases: Liquid
Property: Activity coefficient of hex-1-ene (Liquid); method: Chromatography
Temperature, K	Pressure, kPa	Mole fraction of hex-1-ene	Activity coefficient of hex-1-ene	uncertainty
323.15	101	0	3.76	0.26

System: hex-1-ene + 1-(3-boronopropyl)-3-dodecyl-1H-imidazol-3-ium bromide; phases: Liquid
Property: Activity coefficient of hex-1-ene (Liquid); method: Chromatography
Temperature, K	Pressure, kPa	Mole fraction of hex-1-ene	Activity coefficient of hex-1-ene	uncertainty
323.15	101	0	3.6	0.25

System: 1-hexyne + 1-(3-boronopropyl)-3-octyl-1H-imidazol-3-ium bromide; phases: Liquid
Property: Activity coefficient of 1-hexyne (Liquid); method: Chromatography
Temperature, K	Pressure, kPa	Mole fraction of 1-hexyne	Activity coefficient of 1-hexyne	uncertainty
323.15	101	0	2.77	0.19

System: 1-hexyne + 1-(3-boronopropyl)-3-decyl-1H-imidazol-3-ium bromide; phases: Liquid
Property: Activity coefficient of 1-hexyne (Liquid); method: Chromatography
Temperature, K	Pressure, kPa	Mole fraction of 1-hexyne	Activity coefficient of 1-hexyne	uncertainty
323.15	101	0	1.77	0.12

System: 1-hexyne + 1-(3-boronopropyl)-3-dodecyl-1H-imidazol-3-ium bromide; phases: Liquid
Property: Activity coefficient of 1-hexyne (Liquid); method: Chromatography
Temperature, K	Pressure, kPa	Mole fraction of 1-hexyne	Activity coefficient of 1-hexyne	uncertainty
323.15	101	0	1.86	0.13

System: butanone + 1-(3-boronopropyl)-3-methyl-1H-imidazol-3-ium bromide; phases: Liquid
Property: Activity coefficient of butanone (Liquid); method: Chromatography
Temperature, K	Pressure, kPa	Mole fraction of butanone	Activity coefficient of butanone	uncertainty
323.15	101	0	21.8	1.49

System: butanone + 1-(3-boronopropyl)-3-octyl-1H-imidazol-3-ium bromide; phases: Liquid
Property: Activity coefficient of butanone (Liquid); method: Chromatography
Temperature, K	Pressure, kPa	Mole fraction of butanone	Activity coefficient of butanone	uncertainty
323.15	101	0	1.88	0.13

System: butanone + 1-(3-boronopropyl)-3-decyl-1H-imidazol-3-ium bromide; phases: Liquid
Property: Activity coefficient of butanone (Liquid); method: Chromatography
Temperature, K	Pressure, kPa	Mole fraction of butanone	Activity coefficient of butanone	uncertainty
323.15	101	0	1.59	0.11

System: butanone + 1-(3-boronopropyl)-3-dodecyl-1H-imidazol-3-ium bromide; phases: Liquid
Property: Activity coefficient of butanone (Liquid); method: Chromatography
Temperature, K	Pressure, kPa	Mole fraction of butanone	Activity coefficient of butanone	uncertainty
323.15	101	0	1.33	0.09

System: pentan-2-one + 1-(3-boronopropyl)-3-methyl-1H-imidazol-3-ium bromide; phases: Liquid
Property: Activity coefficient of pentan-2-one (Liquid); method: Chromatography
Temperature, K	Pressure, kPa	Mole fraction of pentan-2-one	Activity coefficient of pentan-2-one	uncertainty
323.15	101	0	24.23	1.66

System: pentan-2-one + 1-(3-boronopropyl)-3-octyl-1H-imidazol-3-ium bromide; phases: Liquid
Property: Activity coefficient of pentan-2-one (Liquid); method: Chromatography
Temperature, K	Pressure, kPa	Mole fraction of pentan-2-one	Activity coefficient of pentan-2-one	uncertainty
323.15	101	0	2.32	0.16

System: pentan-2-one + 1-(3-boronopropyl)-3-decyl-1H-imidazol-3-ium bromide; phases: Liquid
Property: Activity coefficient of pentan-2-one (Liquid); method: Chromatography
Temperature, K	Pressure, kPa	Mole fraction of pentan-2-one	Activity coefficient of pentan-2-one	uncertainty
323.15	101	0	1.67	0.11

System: pentan-2-one + 1-(3-boronopropyl)-3-dodecyl-1H-imidazol-3-ium bromide; phases: Liquid
Property: Activity coefficient of pentan-2-one (Liquid); method: Chromatography
Temperature, K	Pressure, kPa	Mole fraction of pentan-2-one	Activity coefficient of pentan-2-one	uncertainty
323.15	101	0	1.63	0.11

System: 1,4-dioxane + 1-(3-boronopropyl)-3-methyl-1H-imidazol-3-ium bromide; phases: Liquid
Property: Activity coefficient of 1,4-dioxane (Liquid); method: Chromatography
Temperature, K	Pressure, kPa	Mole fraction of 1,4-dioxane	Activity coefficient of 1,4-dioxane	uncertainty
323.15	101	0	11.21	0.77

System: 1,4-dioxane + 1-(3-boronopropyl)-3-octyl-1H-imidazol-3-ium bromide; phases: Liquid
Property: Activity coefficient of 1,4-dioxane (Liquid); method: Chromatography
Temperature, K	Pressure, kPa	Mole fraction of 1,4-dioxane	Activity coefficient of 1,4-dioxane	uncertainty
323.15	101	0	1.78	0.12

System: 1,4-dioxane + 1-(3-boronopropyl)-3-decyl-1H-imidazol-3-ium bromide; phases: Liquid
Property: Activity coefficient of 1,4-dioxane (Liquid); method: Chromatography
Temperature, K	Pressure, kPa	Mole fraction of 1,4-dioxane	Activity coefficient of 1,4-dioxane	uncertainty
323.15	101	0	1.38	0.09

System: 1,4-dioxane + 1-(3-boronopropyl)-3-dodecyl-1H-imidazol-3-ium bromide; phases: Liquid
Property: Activity coefficient of 1,4-dioxane (Liquid); method: Chromatography
Temperature, K	Pressure, kPa	Mole fraction of 1,4-dioxane	Activity coefficient of 1,4-dioxane	uncertainty
323.15	101	0	1.32	0.09

System: methanol + 1-(3-boronopropyl)-3-methyl-1H-imidazol-3-ium bromide; phases: Liquid
Property: Activity coefficient of methanol (Liquid); method: Chromatography
Temperature, K	Pressure, kPa	Mole fraction of methanol	Activity coefficient of methanol	uncertainty
323.15	101	0	0.05	0.03

System: methanol + 1-(3-boronopropyl)-3-octyl-1H-imidazol-3-ium bromide; phases: Liquid
Property: Activity coefficient of methanol (Liquid); method: Chromatography
Temperature, K	Pressure, kPa	Mole fraction of methanol	Activity coefficient of methanol	uncertainty
323.15	101	0	0.04	0.03

System: methanol + 1-(3-boronopropyl)-3-decyl-1H-imidazol-3-ium bromide; phases: Liquid
Property: Activity coefficient of methanol (Liquid); method: Chromatography
Temperature, K	Pressure, kPa	Mole fraction of methanol	Activity coefficient of methanol	uncertainty
323.15	101	0	0.05	0.03

System: methanol + 1-(3-boronopropyl)-3-dodecyl-1H-imidazol-3-ium bromide; phases: Liquid
Property: Activity coefficient of methanol (Liquid); method: Chromatography
Temperature, K	Pressure, kPa	Mole fraction of methanol	Activity coefficient of methanol	uncertainty
323.15	101	0	0.04	0.03

System: trichloromethane + 1-(3-boronopropyl)-3-methyl-1H-imidazol-3-ium bromide; phases: Liquid
Property: Activity coefficient of trichloromethane (Liquid); method: Chromatography
Temperature, K	Pressure, kPa	Mole fraction of trichloromethane	Activity coefficient of trichloromethane	uncertainty
323.15	101	0	3.01	0.2

System: trichloromethane + 1-(3-boronopropyl)-3-octyl-1H-imidazol-3-ium bromide; phases: Liquid
Property: Activity coefficient of trichloromethane (Liquid); method: Chromatography
Temperature, K	Pressure, kPa	Mole fraction of trichloromethane	Activity coefficient of trichloromethane	uncertainty
323.15	101	0	0.23	0.03

System: trichloromethane + 1-(3-boronopropyl)-3-decyl-1H-imidazol-3-ium bromide; phases: Liquid
Property: Activity coefficient of trichloromethane (Liquid); method: Chromatography
Temperature, K	Pressure, kPa	Mole fraction of trichloromethane	Activity coefficient of trichloromethane	uncertainty
323.15	101	0	0.12	0.03

System: trichloromethane + 1-(3-boronopropyl)-3-dodecyl-1H-imidazol-3-ium bromide; phases: Liquid
Property: Activity coefficient of trichloromethane (Liquid); method: Chromatography
Temperature, K	Pressure, kPa	Mole fraction of trichloromethane	Activity coefficient of trichloromethane	uncertainty
323.15	101	0	0.19	0.03

System: dichloromethane + 1-(3-boronopropyl)-3-methyl-1H-imidazol-3-ium bromide; phases: Liquid
Property: Activity coefficient of dichloromethane (Liquid); method: Chromatography
Temperature, K	Pressure, kPa	Mole fraction of dichloromethane	Activity coefficient of dichloromethane	uncertainty
323.15	101	0	3.2	0.22

System: dichloromethane + 1-(3-boronopropyl)-3-octyl-1H-imidazol-3-ium bromide; phases: Liquid
Property: Activity coefficient of dichloromethane (Liquid); method: Chromatography
Temperature, K	Pressure, kPa	Mole fraction of dichloromethane	Activity coefficient of dichloromethane	uncertainty
323.15	101	0	0.41	0.03

System: dichloromethane + 1-(3-boronopropyl)-3-decyl-1H-imidazol-3-ium bromide; phases: Liquid
Property: Activity coefficient of dichloromethane (Liquid); method: Chromatography
Temperature, K	Pressure, kPa	Mole fraction of dichloromethane	Activity coefficient of dichloromethane	uncertainty
323.15	101	0	0.25	0.03

System: dichloromethane + 1-(3-boronopropyl)-3-dodecyl-1H-imidazol-3-ium bromide; phases: Liquid
Property: Activity coefficient of dichloromethane (Liquid); method: Chromatography
Temperature, K	Pressure, kPa	Mole fraction of dichloromethane	Activity coefficient of dichloromethane	uncertainty
323.15	101	0	0.34	0.03

System: tetrachloromethane + 1-(3-boronopropyl)-3-methyl-1H-imidazol-3-ium bromide; phases: Liquid
Property: Activity coefficient of tetrachloromethane (Liquid); method: Chromatography
Temperature, K	Pressure, kPa	Mole fraction of tetrachloromethane	Activity coefficient of tetrachloromethane	uncertainty
323.15	101	0	21.21	1.45

System: tetrachloromethane + 1-(3-boronopropyl)-3-octyl-1H-imidazol-3-ium bromide; phases: Liquid
Property: Activity coefficient of tetrachloromethane (Liquid); method: Chromatography
Temperature, K	Pressure, kPa	Mole fraction of tetrachloromethane	Activity coefficient of tetrachloromethane	uncertainty
323.15	101	0	1.23	0.08

System: tetrachloromethane + 1-(3-boronopropyl)-3-decyl-1H-imidazol-3-ium bromide; phases: Liquid
Property: Activity coefficient of tetrachloromethane (Liquid); method: Chromatography
Temperature, K	Pressure, kPa	Mole fraction of tetrachloromethane	Activity coefficient of tetrachloromethane	uncertainty
323.15	101	0	0.79	0.05

System: tetrachloromethane + 1-(3-boronopropyl)-3-dodecyl-1H-imidazol-3-ium bromide; phases: Liquid
Property: Activity coefficient of tetrachloromethane (Liquid); method: Chromatography
Temperature, K	Pressure, kPa	Mole fraction of tetrachloromethane	Activity coefficient of tetrachloromethane	uncertainty
323.15	101	0	0.9	0.06

System: acetonitrile + 1-(3-boronopropyl)-3-methyl-1H-imidazol-3-ium bromide; phases: Liquid
Property: Activity coefficient of acetonitrile (Liquid); method: Chromatography
Temperature, K	Pressure, kPa	Mole fraction of acetonitrile	Activity coefficient of acetonitrile	uncertainty
323.15	101	0	3.3	0.22

System: acetonitrile + 1-(3-boronopropyl)-3-octyl-1H-imidazol-3-ium bromide; phases: Liquid
Property: Activity coefficient of acetonitrile (Liquid); method: Chromatography
Temperature, K	Pressure, kPa	Mole fraction of acetonitrile	Activity coefficient of acetonitrile	uncertainty
323.15	101	0	1.28	0.08

System: acetonitrile + 1-(3-boronopropyl)-3-decyl-1H-imidazol-3-ium bromide; phases: Liquid
Property: Activity coefficient of acetonitrile (Liquid); method: Chromatography
Temperature, K	Pressure, kPa	Mole fraction of acetonitrile	Activity coefficient of acetonitrile	uncertainty
323.15	101	0	0.95	0.06

System: acetonitrile + 1-(3-boronopropyl)-3-dodecyl-1H-imidazol-3-ium bromide; phases: Liquid
Property: Activity coefficient of acetonitrile (Liquid); method: Chromatography
Temperature, K	Pressure, kPa	Mole fraction of acetonitrile	Activity coefficient of acetonitrile	uncertainty
323.15	101	0	1.16	0.07

System: 1-nitropropane + 1-(3-boronopropyl)-3-methyl-1H-imidazol-3-ium bromide; phases: Liquid
Property: Activity coefficient of 1-nitropropane (Liquid); method: Chromatography
Temperature, K	Pressure, kPa	Mole fraction of 1-nitropropane	Activity coefficient of 1-nitropropane	uncertainty
323.15	101	0	15.84	1.08

System: 1-nitropropane + 1-(3-boronopropyl)-3-octyl-1H-imidazol-3-ium bromide; phases: Liquid
Property: Activity coefficient of 1-nitropropane (Liquid); method: Chromatography
Temperature, K	Pressure, kPa	Mole fraction of 1-nitropropane	Activity coefficient of 1-nitropropane	uncertainty
323.15	101	0	1.58	0.1

System: 1-nitropropane + 1-(3-boronopropyl)-3-decyl-1H-imidazol-3-ium bromide; phases: Liquid
Property: Activity coefficient of 1-nitropropane (Liquid); method: Chromatography
Temperature, K	Pressure, kPa	Mole fraction of 1-nitropropane	Activity coefficient of 1-nitropropane	uncertainty
323.15	101	0	1.19	0.08

System: 1-nitropropane + 1-(3-boronopropyl)-3-dodecyl-1H-imidazol-3-ium bromide; phases: Liquid
Property: Activity coefficient of 1-nitropropane (Liquid); method: Chromatography
Temperature, K	Pressure, kPa	Mole fraction of 1-nitropropane	Activity coefficient of 1-nitropropane	uncertainty
323.15	101	0	1.51	0.1

System: thiophene + 1-(3-boronopropyl)-3-methyl-1H-imidazol-3-ium bromide; phases: Liquid
Property: Activity coefficient of thiophene (Liquid); method: Chromatography
Temperature, K	Pressure, kPa	Mole fraction of thiophene	Activity coefficient of thiophene	uncertainty
323.15	101	0	19.37	1.32

System: thiophene + 1-(3-boronopropyl)-3-octyl-1H-imidazol-3-ium bromide; phases: Liquid
Property: Activity coefficient of thiophene (Liquid); method: Chromatography
Temperature, K	Pressure, kPa	Mole fraction of thiophene	Activity coefficient of thiophene	uncertainty
323.15	101	0	1.2	0.08

System: thiophene + 1-(3-boronopropyl)-3-decyl-1H-imidazol-3-ium bromide; phases: Liquid
Property: Activity coefficient of thiophene (Liquid); method: Chromatography
Temperature, K	Pressure, kPa	Mole fraction of thiophene	Activity coefficient of thiophene	uncertainty
323.15	101	0	0.79	0.05

System: thiophene + 1-(3-boronopropyl)-3-dodecyl-1H-imidazol-3-ium bromide; phases: Liquid
Property: Activity coefficient of thiophene (Liquid); method: Chromatography
Temperature, K	Pressure, kPa	Mole fraction of thiophene	Activity coefficient of thiophene	uncertainty
323.15	101	0	0.9	0.06

System: 1-heptyne + 1-(3-boronopropyl)-3-methyl-1H-imidazol-3-ium bromide; phases: Liquid
Property: Activity coefficient of 1-heptyne (Liquid); method: Chromatography
Temperature, K	Pressure, kPa	Mole fraction of 1-heptyne	Activity coefficient of 1-heptyne	uncertainty
323.15	101	0	42.9	2.94

System: 1-heptyne + 1-(3-boronopropyl)-3-octyl-1H-imidazol-3-ium bromide; phases: Liquid
Property: Activity coefficient of 1-heptyne (Liquid); method: Chromatography
Temperature, K	Pressure, kPa	Mole fraction of 1-heptyne	Activity coefficient of 1-heptyne	uncertainty
323.15	101	0	3.7	0.25

System: 1-heptyne + 1-(3-boronopropyl)-3-decyl-1H-imidazol-3-ium bromide; phases: Liquid
Property: Activity coefficient of 1-heptyne (Liquid); method: Chromatography
Temperature, K	Pressure, kPa	Mole fraction of 1-heptyne	Activity coefficient of 1-heptyne	uncertainty
323.15	101	0	2.22	0.15

System: 1-heptyne + 1-(3-boronopropyl)-3-dodecyl-1H-imidazol-3-ium bromide; phases: Liquid
Property: Activity coefficient of 1-heptyne (Liquid); method: Chromatography
Temperature, K	Pressure, kPa	Mole fraction of 1-heptyne	Activity coefficient of 1-heptyne	uncertainty
323.15	101	0	2.2	0.15

System: tetrachloromethane + 3-allyl-1-decyl-1H-imidazol-3-ium bromide; phases: Liquid
Property: Activity coefficient of tetrachloromethane (Liquid); method: Chromatography
Temperature, K	Pressure, kPa	Mole fraction of tetrachloromethane	Activity coefficient of tetrachloromethane	uncertainty
323.15	101	0	0.8	0.05
