Measured thermophysical data. Isochoric PVTx Measurements for the N2O + R125 Binary System
Source: J. Chem. Eng. Data, 2006, 10.1021/je060140+
Compound 1: nitrous oxide, N2O, InChI=1S/N2O/c1-2-3
Compound 2: pentafluoroethane, C2HF5, InChI=1S/C2HF5/c3-1(4)2(5,6)7/h1H

System: pentafluoroethane + nitrous oxide; phases: Gas, Liquid
Property: Vapor or sublimation pressure, kPa (Gas); method: Closed cell (Static) method
Mole fraction of nitrous oxide	Temperature, K	Vapor or sublimation pressure, kPa	uncertainty
0.082	293.9	1327	4
0.147	273.8	779	4
0.28	274.6	915	4
0.475	259.2	699	4
0.649	258.2	893	4
0.793	255.8	1118	6

System: pentafluoroethane + nitrous oxide; phases: Fluid (supercritical or subcritical phases)
Property: Molar volume, m3/mol (Fluid (supercritical or subcritical phases)); method: ISOCHOR
Mole fraction of nitrous oxide	Temperature, K	Pressure, kPa	Molar volume, m3/mol	uncertainty
0.082	293.08	1298	0.001387	3e-06
0.082	298.07	1360	0.001387	3e-06
0.082	303.05	1401	0.001387	3e-06
0.082	308.04	1440	0.001388	3e-06
0.082	313.03	1480	0.001388	3e-06
0.082	318.02	1518	0.001388	3e-06
0.082	323	1557	0.001389	3e-06
0.082	328.11	1595	0.001389	3e-06
0.082	333.1	1632	0.001389	3e-06
0.082	338.09	1670	0.00139	3e-06
0.082	343.08	1707	0.00139	3e-06
0.082	348.06	1744	0.00139	3e-06
0.082	353.05	1780	0.001391	3e-06
0.082	358.03	1818	0.001391	3e-06
0.082	363.02	1853	0.001391	3e-06
0.147	278.03	793	0.00245	5e-06
0.147	283.02	818	0.00245	5e-06
0.147	288.01	835	0.002451	5e-06
0.147	293.09	856	0.002451	5e-06
0.147	298.07	876	0.002452	5e-06
0.147	303.05	896	0.002452	5e-06
0.147	308.04	915	0.002453	5e-06
0.147	313.02	935	0.002454	5e-06
0.147	318.01	954	0.002454	5e-06
0.147	323	973	0.002455	5e-06
0.147	327.99	993	0.002455	5e-06
0.147	333.1	1012	0.002456	5e-06
0.147	338.09	1031	0.002456	5e-06
0.147	343.08	1050	0.002457	5e-06
0.147	348.07	1069	0.002457	5e-06
0.147	353.04	1088	0.002458	5e-06
0.147	358.02	1106	0.002458	5e-06
0.147	363.02	1125	0.002459	5e-06
0.28	278.02	919	0.002066	4e-06
0.28	283.01	955	0.002067	4e-06
0.28	288	979	0.002067	4e-06
0.28	293.08	1004	0.002068	4e-06
0.28	298.07	1028	0.002068	4e-06
0.28	303.06	1051	0.002069	4e-06
0.28	308.04	1075	0.002069	4e-06
0.28	313.02	1098	0.00207	4e-06
0.28	313.03	1145	0.002058	4e-06
0.28	318.01	1167	0.002058	4e-06
0.28	322.99	1188	0.002059	4e-06
0.28	328.11	1211	0.002059	4e-06
0.28	333.11	1232	0.00206	4e-06
0.28	338.09	1254	0.00206	4e-06
0.28	343.08	1275	0.002061	4e-06
0.28	348.06	1297	0.002061	4e-06
0.28	353.04	1318	0.002062	4e-06
0.28	358.03	1340	0.002062	4e-06
0.28	363.02	1361	0.002062	4e-06
0.475	263.07	703	0.002658	5e-06
0.475	268.12	727	0.002659	5e-06
0.475	273.11	752	0.002659	5e-06
0.475	278.02	769	0.00266	5e-06
0.475	283	787	0.002661	5e-06
0.475	288	804	0.002661	5e-06
0.475	293.08	821	0.002662	5e-06
0.475	298.07	839	0.002662	5e-06
0.475	303.05	856	0.002663	5e-06
0.475	308.04	873	0.002663	5e-06
0.475	313.02	890	0.002664	5e-06
0.475	318.01	907	0.002665	5e-06
0.475	322.99	924	0.002665	5e-06
0.475	328.11	941	0.002666	5e-06
0.475	333.1	958	0.002666	5e-06
0.475	338.09	974	0.002667	5e-06
0.475	343.08	991	0.002668	5e-06
0.475	348.07	1007	0.002668	5e-06
0.475	353.03	1023	0.002669	5e-06
0.475	358.02	1040	0.002669	5e-06
0.475	363.01	1056	0.00267	5e-06
0.649	258.04	876	0.002053	4e-06
0.649	263.08	907	0.002053	4e-06
0.649	268.13	936	0.002054	4e-06
0.649	273.12	965	0.002054	4e-06
0.649	278.05	987	0.002055	4e-06
0.649	283.01	1010	0.002055	4e-06
0.649	283.01	1278	0.001612	3e-06
0.649	287.98	1032	0.002056	4e-06
0.649	287.99	1307	0.001613	3e-06
0.649	293.08	1056	0.002056	4e-06
0.649	293.08	1337	0.001613	3e-06
0.649	298.07	1079	0.002057	4e-06
0.649	298.07	1365	0.001613	3e-06
0.649	303.04	1394	0.001614	3e-06
0.649	303.06	1101	0.002057	4e-06
0.649	308.02	1422	0.001614	3e-06
0.649	308.04	1123	0.002057	4e-06
0.649	313.01	1450	0.001614	3e-06
0.649	317.99	1478	0.001615	3e-06
0.649	322.98	1506	0.001615	3e-06
0.649	328.1	1535	0.001615	3e-06
0.649	333.09	1563	0.001616	3e-06
0.649	338.08	1590	0.001616	3e-06
0.649	343.07	1618	0.001616	3e-06
0.649	348.05	1646	0.001617	3e-06
0.649	353.04	1673	0.001617	3e-06
0.649	358.01	1700	0.001618	3e-06
0.649	363.01	1728	0.001618	3e-06
0.793	258.05	1118	0.00161	3e-06
0.793	263.11	1160	0.001611	3e-06
0.793	268.14	1190	0.001611	3e-06
0.793	273.13	1220	0.001612	3e-06
0.793	278.05	1250	0.001612	3e-06
0.793	317.99	1120	0.00207	4e-06
0.793	322.99	1144	0.00207	4e-06
0.793	328.11	1167	0.002071	4e-06
0.793	333.1	1190	0.002071	4e-06
0.793	338.09	1212	0.002072	4e-06
0.793	343.08	1235	0.002072	4e-06
0.793	348.07	1257	0.002073	4e-06
0.793	353.05	1279	0.002073	4e-06
0.793	358.03	1301	0.002074	4e-06
0.793	363.02	1323	0.002074	4e-06
