Measured thermophysical data. Thermodynamics of Solvation of Urea and Some Monosubstituted N-Alkylureas in Water at 298.15 K
Source: J. Chem. Eng. Data, 2007, 10.1021/je060360n
Compound 1: methylurea, C2H6N2O, InChI=1S/C2H6N2O/c1-4-2(3)5/h1H3,(H3,3,4,5)
Compound 2: ethylurea, C3H8N2O, InChI=1S/C3H8N2O/c1-2-5-3(4)6/h2H2,1H3,(H3,4,5,6)
Compound 3: N-butylurea, C5H12N2O, InChI=1S/C5H12N2O/c1-2-3-4-7-5(6)8/h2-4H2,1H3,(H3,6,7,8)
Compound 4: N-propylurea, C4H10N2O, InChI=1S/C4H10N2O/c1-2-3-6-4(5)7/h2-3H2,1H3,(H3,5,6,7)
Compound 5: urea, isobutyl-, C5H12N2O, InChI=1S/C5H12N2O/c1-4(2)3-7-5(6)8/h4H,3H2,1-2H3,(H3,6,7,8)
Compound 6: N-(1,1-dimethylethyl)urea, C5H12N2O, InChI=1S/C5H12N2O/c1-5(2,3)7-4(6)8/h1-3H3,(H3,6,7,8)
Compound 7: urea, CH4N2O, InChI=1S/CH4N2O/c2-1(3)4/h(H4,2,3,4)
Compound 8: water, H2O, InChI=1S/H2O/h1H2, purity 99.9%

System: urea + water; phases: Liquid
Fixed: Pressure, kPa = 101
Property: Molar enthalpy of solution, kJ/mol (Liquid); method: CALVET:UFactor:2
Molality, mol/kg of urea	Temperature, K	Molar enthalpy of solution, kJ/mol	uncertainty
0.00601	296.84	15.38	0.31
0.00628	316.95	14.96	0.3
0.00695	306.89	15.1	0.3
0.00738	316.95	14.65	0.29
0.00822	316.95	15.15	0.3
0.01068	316.95	15.4	0.31
0.01162	306.89	15.28	0.31
0.01289	316.95	15.3	0.31
0.01367	306.89	15.14	0.3
0.01461	306.89	15.1	0.3
0.0159	296.84	15.02	0.3
0.01664	316.95	15.21	0.3
0.01782	316.95	14.88	0.3
0.02171	296.84	15.44	0.31
0.02233	306.89	15.18	0.3
0.0254	316.95	14.86	0.3
0.02858	296.84	15.3	0.31
0.05032	296.84	15.29	0.31

System: ethylurea + water; phases: Liquid
Fixed: Pressure, kPa = 101
Property: Molar enthalpy of solution, kJ/mol (Liquid); method: CALVET:UFactor:2
Molality, mol/kg of ethylurea	Temperature, K	Molar enthalpy of solution, kJ/mol	uncertainty
0.0035	306.89	10.84	0.22
0.0065	306.89	11.15	0.22
0.00677	306.89	11.14	0.22
0.00796	306.89	11.59	0.23
0.0108	296.84	10.3	0.21
0.01127	306.89	11.21	0.22
0.01136	316.95	11.64	0.23
0.01151	316.95	11.77	0.24
0.0122	316.95	11.77	0.24
0.01341	316.95	11.58	0.23
0.01393	296.84	10.4	0.21
0.015	316.95	11.9	0.24
0.01614	296.84	10.67	0.21
0.01622	316.95	12.01	0.24
0.01707	316.95	11.35	0.23
0.01851	296.84	10.01	0.2
0.02373	296.84	10.55	0.21
0.02673	296.84	10.5	0.21

System: methylurea + water; phases: Liquid
Fixed: Pressure, kPa = 101
Property: Molar enthalpy of solution, kJ/mol (Liquid); method: CALVET:UFactor:2
Molality, mol/kg of methylurea	Temperature, K	Molar enthalpy of solution, kJ/mol	uncertainty
0.00311	306.89	11.81	0.24
0.00355	306.89	11.9	0.24
0.00705	306.89	11.34	0.23
0.00867	316.95	11.98	0.24
0.00917	296.84	11.57	0.23
0.01035	306.89	11.82	0.24
0.01079	316.95	11.87	0.24
0.01095	306.89	11.54	0.23
0.01141	296.84	11.47	0.23
0.01334	316.95	11.61	0.23
0.01495	316.95	11.55	0.23
0.01665	316.95	11.49	0.23
0.01795	306.89	11.4	0.23
0.01831	296.84	11.65	0.23
0.01883	296.84	11.43	0.23
0.02073	316.95	11.61	0.23
0.02734	296.84	11.4	0.23

System: N-propylurea + water; phases: Liquid
Fixed: Pressure, kPa = 101
Property: Molar enthalpy of solution, kJ/mol (Liquid); method: CALVET:UFactor:2
Molality, mol/kg of N-propylurea	Temperature, K	Molar enthalpy of solution, kJ/mol	uncertainty
0.00683	316.95	12.43	0.25
0.00694	306.89	11.37	0.23
0.007	316.95	12.46	0.25
0.00757	316.95	12.44	0.25
0.00837	316.95	12.6	0.25
0.00919	296.84	9.33	0.19
0.01008	306.89	10.78	0.22
0.01086	306.89	10.93	0.22
0.01099	316.95	12.69	0.25
0.01112	296.84	9.38	0.19
0.01211	296.84	9.55	0.19
0.01259	306.89	10.79	0.22
0.01259	306.89	10.77	0.22
0.01289	296.84	9.61	0.19
0.01328	306.89	10.82	0.22
0.01484	296.84	9.18	0.18
0.01668	296.84	9.39	0.19

System: N-butylurea + water; phases: Liquid
Fixed: Pressure, kPa = 101
Property: Molar enthalpy of solution, kJ/mol (Liquid); method: CALVET:UFactor:2
Molality, mol/kg of N-butylurea	Temperature, K	Molar enthalpy of solution, kJ/mol	uncertainty
0.00532	306.89	19.21	0.38
0.00571	296.84	16.96	0.34
0.00708	296.84	16.92	0.34
0.00723	316.95	21.68	0.43
0.00784	306.89	19.43	0.39
0.00825	306.89	19.45	0.39
0.00875	316.95	21.59	0.43
0.00888	316.95	21.46	0.43
0.00898	306.89	19.25	0.39
0.00921	296.84	16.76	0.34
0.00944	306.89	19.21	0.39
0.00955	316.95	21.76	0.44
0.00983	306.89	19.31	0.39
0.01009	296.84	16.75	0.34
0.01093	296.84	16.7	0.34
0.01188	316.95	21.67	0.43

System: urea, isobutyl- + water; phases: Liquid
Fixed: Pressure, kPa = 101
Property: Molar enthalpy of solution, kJ/mol (Liquid); method: CALVET:UFactor:2
Molality, mol/kg of urea, isobutyl-	Temperature, K	Molar enthalpy of solution, kJ/mol	uncertainty
0.00371	306.89	10.91	0.22
0.00396	316.95	12.44	0.25
0.00422	306.89	11.03	0.22
0.00457	316.95	12.71	0.25
0.00464	296.84	9.16	0.18
0.005	306.89	11.04	0.22
0.00568	316.95	12.72	0.26
0.0059	316.95	12.72	0.26
0.00772	296.84	9.11	0.18
0.01178	306.89	11.37	0.23
0.01505	296.84	9.08	0.18
0.01843	296.84	9.33	0.19

System: N-(1,1-dimethylethyl)urea + water; phases: Liquid
Fixed: Pressure, kPa = 101
Property: Molar enthalpy of solution, kJ/mol (Liquid); method: CALVET:UFactor:2
Molality, mol/kg of N-(1,1-dimethylethyl)urea	Temperature, K	Molar enthalpy of solution, kJ/mol	uncertainty
0.0059	296.84	9.31	0.19
0.00727	316.95	12.2	0.24
0.00774	296.84	9.16	0.18
0.00783	296.84	9.08	0.18
0.008	316.95	12.21	0.24
0.0081	296.84	9.3	0.19
0.00865	296.84	9.15	0.18
0.00972	316.95	12.27	0.25
0.01067	306.89	11.11	0.22
0.01089	296.84	9.36	0.19
0.01123	316.95	12.09	0.24
0.01277	306.89	10.95	0.22
0.01407	296.84	9.03	0.18
0.01582	306.89	10.53	0.23
0.0159	306.89	11.02	0.24
