Measured thermophysical data. Vapor-Liquid Equilibria for the Trifluoromethane + 1,1,1,2-Tetrafluoroethane System
Source: J. Chem. Eng. Data, 2006, 10.1021/je0602622
Compound 1: trifluoromethane, CHF3, InChI=1S/CHF3/c2-1(3)4/h1H, purity 99.9%
Compound 2: 1,1,1,2-tetrafluoroethane, C2H2F4, InChI=1S/C2H2F4/c3-1-2(4,5)6/h1H2, purity 99.9%

System: trifluoromethane + 1,1,1,2-tetrafluoroethane; phases: Liquid, Gas
Property: Vapor or sublimation pressure, kPa (Liquid); method: CCELL:UFactor:16
Mole fraction of trifluoromethane	Temperature, K	Vapor or sublimation pressure, kPa	uncertainty
0.0621	293.15	735.9	37
0.0691	283.15	564.7	28.4
0.0692	275.15	444.9	22.5
0.0712	268.15	356.1	18.1
0.0731	263.15	301.7	15.4
0.0741	258.15	283.3	14.4
0.1148	293.15	842.3	42.2
0.1179	258.15	327.5	16.7
0.1196	263.15	363.9	18.5
0.1208	275.15	525.3	26.6
0.1223	268.15	424.8	21.5
0.1239	283.15	661	33.2
0.164	258.15	392.8	19.8
0.1851	275.15	664.4	33.4
0.1929	293.15	988	49.4
0.1941	263.15	482.7	24.4
0.1957	268.15	541.3	27.3
0.1994	283.15	811.4	40.6
0.2792	293.15	1212.7	60.6
0.2901	258.15	515.4	25.9
0.2932	263.15	619.2	31.1
0.2939	283.15	953.9	47.8
0.2954	268.15	692.5	34.7
0.2985	275.15	838	42
0.4296	258.15	715	35.8
0.4669	263.15	907.4	45.4
0.4942	275.15	1258.8	62.8
0.4957	268.15	1043.9	52.1
0.5012	293.15	1873.4	93.3
0.5147	283.15	1537.4	76.7
0.6524	258.15	1024.5	51.1
0.6682	275.15	1626.1	81
0.6766	263.15	1281.8	63.9
0.6793	283.15	1980.3	98.6
0.6874	293.15	2512.5	125
0.6928	268.15	1443.5	71.9
0.7711	293.15	2915.4	145.1
0.7892	283.15	2387.4	118.8
0.7982	275.15	1988	99
0.8016	258.15	1299.3	64.8
0.8039	268.15	1710.3	85.2
0.8084	263.15	1536	76.5
0.8333	258.15	1351.7	67.4
0.8533	263.15	1631.9	81.2
0.8688	268.15	1834.1	91.3
0.8736	283.15	2691.2	133.9
0.8741	293.15	3421.9	170.2
0.8752	275.15	2206.8	109.8
0.8938	258.15	1471.3	73.3
0.8979	283.15	2823.2	140.7
0.8985	263.15	1701.4	84.7
0.9028	268.15	1936.5	96.5
0.9053	275.15	2328.4	116.1

System: trifluoromethane + 1,1,1,2-tetrafluoroethane; phases: Gas, Liquid
Property: Mole fraction of trifluoromethane (Gas); method: CHROM:UFactor:8
Mole fraction of trifluoromethane	Temperature, K	Mole fraction of trifluoromethane	uncertainty
0.0621	293.15	0.2194	0.0172
0.0691	283.15	0.2772	0.0213
0.0692	275.15	0.2782	0.0211
0.0712	268.15	0.3399	0.0258
0.0731	263.15	0.409	0.0309
0.0741	258.15	0.3452	0.0275
0.1148	293.15	0.3608	0.0271
0.1179	258.15	0.5637	0.0331
0.1196	263.15	0.4981	0.0372
0.1208	275.15	0.4086	0.0307
0.1223	268.15	0.479	0.0359
0.1239	283.15	0.41	0.0307
0.164	258.15	0.6513	0.026
0.1851	275.15	0.5193	0.0358
0.1929	293.15	0.4829	0.036
0.1941	263.15	0.6263	0.0279
0.1957	268.15	0.598	0.03
0.1994	283.15	0.5213	0.0357
0.2792	293.15	0.583	0.0311
0.2901	258.15	0.751	0.0186
0.2932	263.15	0.7028	0.0221
0.2939	283.15	0.6	0.0298
0.2954	268.15	0.6866	0.0233
0.2985	275.15	0.6211	0.0282
0.4296	258.15	0.8338	0.0124
0.4669	263.15	0.8251	0.0131
0.4942	275.15	0.7864	0.0159
0.4957	268.15	0.7998	0.0149
0.5012	293.15	0.7635	0.0176
0.5147	283.15	0.7854	0.016
0.6524	258.15	0.9109	0.0067
0.6682	275.15	0.8705	0.0097
0.6766	263.15	0.9201	0.006
0.6793	283.15	0.8725	0.0095
0.6874	293.15	0.8581	0.0106
0.6928	268.15	0.89	0.0082
0.7711	293.15	0.9055	0.0071
0.7892	283.15	0.9164	0.0063
0.7982	275.15	0.9264	0.0055
0.8016	258.15	0.954	0.0038
0.8039	268.15	0.9428	0.0045
0.8084	263.15	0.951	0.0039
0.8333	258.15	0.9653	0.0032
0.8533	263.15	0.9674	0.003
0.8688	268.15	0.9636	0.0033
0.8736	283.15	0.9467	0.0042
0.8741	293.15	0.9465	0.0042
0.8752	275.15	0.9567	0.0037
0.8938	258.15	0.983	0.0024
0.8979	283.15	0.9633	0.0035
0.8985	263.15	0.9793	0.0025
0.9028	268.15	0.9778	0.0026
0.9053	275.15	0.9733	0.0029
