Measured thermophysical data. Phase Boundaries of CO2 + Toluene, CO2 + Acetone, and CO2 + Ethanol at High Temperatures and High Pressures
Source: J. Chem. Eng. Data, 2006, 10.1021/je060099a
Compound 1: toluene, C7H8, InChI=1S/C7H8/c1-7-5-3-2-4-6-7/h2-6H,1H3
Compound 2: acetone, C3H6O, InChI=1S/C3H6O/c1-3(2)4/h1-2H3
Compound 3: ethanol, C2H6O, InChI=1S/C2H6O/c1-2-3/h3H,2H2,1H3
Compound 4: carbon dioxide, CO2, InChI=1S/CO2/c2-1-3

System: toluene + carbon dioxide; phases: Liquid, Gas
Property: Critical pressure, kPa (Liquid); method: Direct measurement
Mole fraction of toluene	Critical pressure, kPa	uncertainty
0.1	10160	200
0.2	15510	200

System: toluene + carbon dioxide; phases: Liquid, Gas
Property: Critical temperature, K (Liquid); method: Visual observation in a stirred cell
Mole fraction of toluene	Critical temperature, K	uncertainty
0.1	333.2	0.2
0.2	393.2	0.2

System: toluene + carbon dioxide; phases: Liquid, Gas
Property: Vapor or sublimation pressure, kPa (Liquid); method: Closed cell (Static) method
Temperature, K	Mole fraction of toluene	Vapor or sublimation pressure, kPa	uncertainty
333.2	0.2	9470	210
333.2	0.3	8830	210
333.2	0.4	8090	210
333.2	0.5	6790	200
343.2	0.2	10930	210
343.2	0.3	10050	210
343.2	0.4	8910	210
353.2	0.2	12030	210
353.2	0.3	11280	210
353.2	0.4	10160	210
353.2	0.5	8480	200
353.2	0.6	6990	200
363.2	0.2	13180	210
363.2	0.3	12420	210
363.2	0.4	11200	210
373.2	0.2	14110	210
373.2	0.3	13620	210
373.2	0.4	12120	210
373.2	0.5	9980	200
373.2	0.6	8200	200
383.2	0.2	14860	210
383.2	0.3	14550	210
383.2	0.4	13140	210
393.2	0.3	15280	210
393.2	0.4	13970	210
393.2	0.5	11410	200
393.2	0.6	9470	200
393.2	0.7	7360	200
403.2	0.3	15960	210
403.2	0.4	14810	210
413.2	0.3	16300	210
413.2	0.4	15460	210
413.2	0.5	12720	200
413.2	0.6	10350	200
413.2	0.7	8010	200
423.2	0.3	16490	210
423.2	0.4	15920	210
433.2	0.4	16190	210
433.2	0.5	13840	210
433.2	0.6	11290	200
433.2	0.7	8850	200
443.2	0.4	16350	210
453.2	0.4	16350	210
453.2	0.5	15120	200
453.2	0.6	11930	200
453.2	0.7	9490	200
463.2	0.4	16080	210

System: toluene + carbon dioxide; phases: Gas, Liquid
Property: Vapor or sublimation pressure, kPa (Gas); method: Closed cell (Static) method
Temperature, K	Mole fraction of toluene	Vapor or sublimation pressure, kPa	uncertainty
343.2	0.1	11270	210
353.2	0.1	12290	210
363.2	0.1	13110	210
373.2	0.1	13740	200
383.2	0.1	13980	200
393.2	0.1	13980	200
403.2	0.1	13570	210
403.2	0.2	15860	210
413.2	0.2	15990	210
420.5	0.1	12430	270
423.2	0.2	15990	210
424.5	0.1	10600	1930
425.3	0.1	6770	460
426.8	0.1	7670	390
427.4	0.1	8620	660
433.2	0.2	15710	200
433.2	0.3	16580	210
443.2	0.2	15070	210
443.2	0.3	16490	210
451	0.2	14340	250
453.2	0.3	16340	210
463.2	0.3	15820	210
466.8	0.2	6790	1200
468.7	0.2	12420	300
472.2	0.2	10650	290

System: toluene + carbon dioxide; phases: Liquid, Gas
Property: Vapor or sublimation pressure, kPa (Liquid); method: Closed cell (Static) method
Temperature, K	Mole fraction of toluene	Vapor or sublimation pressure, kPa	uncertainty
473.2	0.5	15220	210
473.2	0.6	12400	200
473.2	0.7	10010	200
485	0.5	14940	210
493	0.6	12800	200
493	0.7	10210	200
493	0.8	6830	210
503	0.6	12750	210
513	0.6	12480	220
513	0.7	10390	200
513	0.8	7470	210
523	0.6	12010	240
533	0.6	11190	260
533	0.7	10310	210
533	0.8	7620	200
553	0.8	7670	200
565	0.8	7200	220
572	0.8	6740	240

System: toluene + carbon dioxide; phases: Gas, Liquid
Property: Vapor or sublimation pressure, kPa (Gas); method: Closed cell (Static) method
Temperature, K	Mole fraction of toluene	Vapor or sublimation pressure, kPa	uncertainty
473.2	0.2	8620	430
473.2	0.3	15100	250
473.2	0.4	15690	230
483	0.3	13880	330
483	0.4	15170	240
493	0.4	14400	270
493	0.5	14570	260
494	0.3	12460	370
496	0.3	6770	650
497	0.3	11540	570
499	0.3	7690	990
499	0.5	14090	260
501	0.3	10600	510
502	0.3	9670	1340
502	0.3	8620	650
504	0.4	13370	300
510	0.4	12440	1120
516	0.4	6790	430
520	0.5	12470	280
521	0.4	10600	1540
522	0.4	8650	650
534	0.5	10620	430
535	0.5	6770	540
539	0.5	8620	950
548	0.6	9640	550
550	0.6	6770	450
552	0.6	8620	550
553	0.7	9020	290
557	0.7	8600	340
563	0.7	7690	360
564	0.7	6770	560

System: acetone + carbon dioxide; phases: Liquid, Gas
Property: Vapor or sublimation pressure, kPa (Liquid); method: Closed cell (Static) method
Temperature, K	Mole fraction of acetone	Vapor or sublimation pressure, kPa	uncertainty
333.2	0.1	9440	210
333.2	0.2	8440	210
333.2	0.3	7140	200
343.2	0.2	9470	210
343.2	0.3	8060	210
343.2	0.4	7050	200
353.2	0.2	10540	210
353.2	0.3	9170	210
353.2	0.4	7780	200
363.2	0.2	11180	200
363.2	0.3	10230	210
363.2	0.4	8570	200
363.2	0.5	7100	200
373.2	0.3	10990	200
373.2	0.4	9500	200
373.2	0.5	7760	200
383.2	0.3	11530	200
383.2	0.4	10340	200
383.2	0.5	8720	200
383.2	0.6	6980	200
393.2	0.3	11790	200
393.2	0.4	11000	200
393.2	0.5	9390	200
393.2	0.6	7540	200
403.2	0.4	11450	200
403.2	0.5	10030	200
403.2	0.6	8180	200
413.2	0.4	11550	200
413.2	0.5	10620	200
413.2	0.6	8720	200
423.2	0.5	10890	200
423.2	0.6	9290	200
423.2	0.7	7250	200
433.2	0.5	10900	200
433.2	0.6	9660	200
433.2	0.7	7800	200
443.2	0.5	10440	200
443.2	0.6	9830	200
443.2	0.7	8090	200
453.2	0.6	9800	200
453.2	0.7	8460	200
463.2	0.7	8630	200

System: acetone + carbon dioxide; phases: Gas, Liquid
Property: Vapor or sublimation pressure, kPa (Gas); method: Closed cell (Static) method
Temperature, K	Mole fraction of acetone	Vapor or sublimation pressure, kPa	uncertainty
343.2	0.1	10040	200
353.2	0.1	10220	210
363.1	0.1	6770	770
363.2	0.1	9470	200
363.3	0.1	8620	210
363.6	0.1	7700	770
373.2	0.2	11510	200
383.2	0.2	11510	200
393.2	0.2	10950	200
397.2	0.2	10480	320
398.3	0.2	6770	350
399	0.2	9670	460
399.2	0.2	7690	500
399.9	0.2	8610	560
403.2	0.3	11790	200
413.2	0.3	11510	200
422.5	0.3	10590	2210
423.2	0.3	6740	310
423.2	0.4	11370	200
425.7	0.3	7640	250
425.7	0.3	8560	350
425.9	0.3	9600	470
433.2	0.4	10800	200
437	0.4	10610	280
441.5	0.4	6760	260
441.9	0.4	9680	230
443.4	0.4	8640	370
444.5	0.4	7680	400
453.9	0.5	9670	490
456.5	0.5	6780	240
458.2	0.5	8630	480
458.3	0.5	7690	290
463.2	0.6	9080	210
468.1	0.6	8620	210
471.2	0.6	7720	780
471.7	0.6	6780	780

System: acetone + carbon dioxide; phases: Liquid, Gas
Property: Vapor or sublimation pressure, kPa (Liquid); method: Closed cell (Static) method
Temperature, K	Mole fraction of acetone	Vapor or sublimation pressure, kPa	uncertainty
473.2	0.7	8180	840

System: acetone + carbon dioxide; phases: Gas, Liquid
Fixed: Mole fraction of acetone = 0.7
Property: Vapor or sublimation pressure, kPa (Gas); method: Closed cell (Static) method
Temperature, K	Vapor or sublimation pressure, kPa	uncertainty
480	7700	800
482	7250	750
482	6770	710

System: ethanol + carbon dioxide; phases: Liquid, Gas
Property: Critical pressure, kPa (Liquid); method: Direct measurement
Mole fraction of ethanol	Critical pressure, kPa	uncertainty
0.3	14720	200
0.8	8870	200

System: ethanol + carbon dioxide; phases: Liquid, Gas
Property: Critical temperature, K (Liquid); method: Visual observation in a stirred cell
Mole fraction of ethanol	Critical temperature, K	uncertainty
0.3	383.2	0.2
0.8	493	1

System: ethanol + carbon dioxide; phases: Liquid, Gas
Property: Vapor or sublimation pressure, kPa (Liquid); method: Closed cell (Static) method
Temperature, K	Mole fraction of ethanol	Vapor or sublimation pressure, kPa	uncertainty
333.2	0.2	10630	210
333.2	0.3	10470	210
333.2	0.4	9910	210
333.2	0.5	9240	210
333.2	0.6	7820	200
343.2	0.3	11730	210
343.2	0.4	11130	210
343.2	0.5	10270	210
343.2	0.6	8770	200
343.2	0.7	7000	200
353.2	0.3	12750	210
353.2	0.4	12130	210
353.2	0.5	11290	210
353.2	0.6	9630	200
353.2	0.7	7710	200
363.2	0.3	13660	210
363.2	0.4	13150	210
363.2	0.5	12110	210
363.2	0.6	10330	200
363.2	0.7	8370	200
373.2	0.3	14240	210
373.2	0.4	13980	210
373.2	0.5	12760	200
373.2	0.6	11050	200
373.2	0.7	8920	200
383.2	0.4	14450	200
383.2	0.5	13420	210
383.2	0.6	11530	200
383.2	0.7	9390	200
393.2	0.4	14820	200
393.2	0.5	13960	200
393.2	0.6	12130	200
393.2	0.7	9840	200
393.2	0.8	7050	200
403.2	0.4	14910	200
403.2	0.5	14330	200
403.2	0.6	12580	200
403.2	0.8	7410	200
413.2	0.4	14840	200
413.2	0.5	14530	200
413.2	0.6	12960	200
413.2	0.7	10580	200
413.2	0.8	7780	200
423.2	0.5	14440	200
423.2	0.6	13310	200
433.2	0.5	14150	200
433.2	0.6	13420	340
433.2	0.7	11240	200
433.2	0.8	8420	200
443.2	0.6	13310	200
443.2	0.7	11510	200
453.2	0.6	12850	200
453.2	0.7	11620	200
453.2	0.8	9130	200
463.2	0.7	11580	200

System: ethanol + carbon dioxide; phases: Gas, Liquid
Property: Vapor or sublimation pressure, kPa (Gas); method: Closed cell (Static) method
Temperature, K	Mole fraction of ethanol	Vapor or sublimation pressure, kPa	uncertainty
333.2	0.1	10650	210
343.2	0.1	11720	210
353.2	0.1	12260	200
353.2	0.2	12820	210
363.2	0.1	12420	200
363.2	0.2	13570	210
373.2	0.1	11860	210
373.2	0.2	14050	200
381.2	0.1	10490	260
383.2	0.2	14210	200
384.2	0.1	6760	340
385.2	0.1	8483	718
393.2	0.2	13940	200
393.2	0.3	14830	200
403.2	0.2	13310	210
403.2	0.3	14830	200
410.1	0.2	12350	300
413.2	0.3	14460	210
413.7	0.2	6800	350
414.7	0.2	10510	410
415.7	0.2	8580	800
423.2	0.3	13550	210
423.2	0.4	14620	210
430.4	0.3	12460	2300
431.4	0.3	6740	200
433.2	0.3	11510	450
433.2	0.4	14000	210
433.7	0.3	7670	270
435.1	0.3	9670	610
443.2	0.4	13120	1430
443.2	0.5	13620	210
445	0.4	6750	410
448.4	0.4	7630	280
448.8	0.4	11430	310
450.8	0.4	9560	430
453.2	0.5	12780	260
458.2	0.5	6770	240
460.7	0.5	11430	300
461.7	0.5	7650	240
463.2	0.6	12100	210
464	0.5	9590	390
469.3	0.6	11470	1890
470.3	0.6	6770	1890

System: ethanol + carbon dioxide; phases: Liquid, Gas
Property: Vapor or sublimation pressure, kPa (Liquid); method: Closed cell (Static) method
Temperature, K	Mole fraction of ethanol	Vapor or sublimation pressure, kPa	uncertainty
473.2	0.7	11030	1120
473.2	0.8	9790	1000
483	0.8	9730	990

System: ethanol + carbon dioxide; phases: Gas, Liquid
Property: Vapor or sublimation pressure, kPa (Gas); method: Closed cell (Static) method
Temperature, K	Mole fraction of ethanol	Vapor or sublimation pressure, kPa	uncertainty
474.2	0.6	7680	310
476.2	0.6	9640	1020
482	0.7	6740	500
483	0.7	10000	1580
486	0.7	7650	1580
487	0.7	8570	740
494	0.8	6770	950
496	0.8	7680	960
