Measured thermophysical data. Thermodynamics of Fuels with a Biosynthetic Component: Vapor-Liquid Equilibrium Data for Binary and Ternary Mixtures Containing Ethyl 1,1-Dimethylethyl Ether, n-Heptane, and Toluene at T ) 313.15 K
Source: J. Chem. Eng. Data, 2006, 10.1021/je0602115
Compound 1: heptane, C7H16, InChI=1S/C7H16/c1-3-5-7-6-4-2/h3-7H2,1-2H3
Compound 2: toluene, C7H8, InChI=1S/C7H8/c1-7-5-3-2-4-6-7/h2-6H,1H3
Compound 3: 2-ethoxy-2-methylpropane, C6H14O, InChI=1S/C6H14O/c1-5-7-6(2,3)4/h5H2,1-4H3

System: heptane; phases: Liquid, Gas
Fixed: Temperature, K = 313.15
Property: Vapor or sublimation pressure, kPa (Liquid); method: Closed cell (Static) method
Vapor or sublimation pressure, kPa	uncertainty
12.318	0.056
12.326	0.056
12.315	0.056

System: toluene; phases: Liquid, Gas
Fixed: Temperature, K = 313.15
Property: Vapor or sublimation pressure, kPa (Liquid); method: Closed cell (Static) method
Vapor or sublimation pressure, kPa	uncertainty
7.879	0.041
7.902	0.041
7.875	0.041
7.88	0.041

System: 2-ethoxy-2-methylpropane; phases: Liquid, Gas
Fixed: Temperature, K = 313.15
Property: Vapor or sublimation pressure, kPa (Liquid); method: Closed cell (Static) method
Vapor or sublimation pressure, kPa	uncertainty
31.62	0.119
31.626	0.119
31.64	0.119
31.628	0.119

System: heptane + 2-ethoxy-2-methylpropane; phases: Liquid, Gas
Fixed: Temperature, K = 313.15
Property: Vapor or sublimation pressure, kPa (Liquid); method: Closed cell (Static) method
Mole fraction of 2-ethoxy-2-methylpropane	Vapor or sublimation pressure, kPa	uncertainty
0	12.318	0.056
0.0525	13.602	0.064
0.1294	15.376	0.069
0.1707	16.294	0.072
0.1988	16.904	0.074
0.2489	17.969	0.077
0.2997	19.014	0.08
0.3268	19.556	0.083
0.3491	19.999	0.083
0.3983	20.947	0.088
0.3996	20.981	0.088
0.4481	21.896	0.089
0.4487	21.921	0.089
0.4985	22.836	0.092
0.4989	22.862	0.092
0.5482	23.744	0.095
0.5489	23.773	0.095
0.5976	24.64	0.099
0.5991	24.675	0.099
0.6488	25.54	0.101
0.6988	26.419	0.104
0.7281	26.935	0.106
0.7492	27.3	0.106
0.7996	28.165	0.109
0.8489	29	0.112
0.9001	29.883	0.115
0.9472	30.695	0.118
1	31.62	0.119

System: toluene + heptane; phases: Liquid, Gas
Fixed: Temperature, K = 313.15
Property: Vapor or sublimation pressure, kPa (Liquid); method: Closed cell (Static) method
Mole fraction of heptane	Vapor or sublimation pressure, kPa	uncertainty
0	7.879	0.041
0.0386	8.322	0.044
0.0776	8.717	0.045
0.1173	9.07	0.046
0.1581	9.395	0.047
0.1986	9.682	0.047
0.2412	9.951	0.048
0.2863	10.216	0.049
0.2984	10.271	0.049
0.3313	10.452	0.05
0.3783	10.673	0.05
0.4032	10.778	0.051
0.4267	10.885	0.051
0.4496	10.974	0.051
0.4757	11.078	0.052
0.4998	11.166	0.052
0.5273	11.269	0.052
0.5491	11.342	0.052
0.5995	11.51	0.053
0.6496	11.66	0.053
0.6999	11.794	0.054
0.6999	11.783	0.054
0.7499	11.913	0.054
0.7986	12.022	0.055
0.8485	12.119	0.055
0.8966	12.2	0.055
0.952	12.275	0.055
1	12.326	0.056

System: toluene + 2-ethoxy-2-methylpropane; phases: Liquid, Gas
Fixed: Temperature, K = 313.15
Property: Vapor or sublimation pressure, kPa (Liquid); method: Closed cell (Static) method
Mole fraction of 2-ethoxy-2-methylpropane	Vapor or sublimation pressure, kPa	uncertainty
0	7.902	0.041
0.0566	9.495	0.054
0.1033	10.754	0.057
0.1544	12.115	0.061
0.2003	13.278	0.064
0.2494	14.506	0.067
0.2994	15.725	0.071
0.3133	16.054	0.072
0.349	16.906	0.074
0.3993	18.074	0.078
0.401	18.113	0.078
0.4492	19.23	0.081
0.4514	19.277	0.081
0.4991	20.369	0.085
0.5027	20.449	0.085
0.5493	21.509	0.089
0.5503	21.553	0.089
0.599	22.629	0.092
0.5998	22.665	0.092
0.6494	23.75	0.096
0.6985	24.85	0.1
0.6995	24.875	0.1
0.7496	25.994	0.103
0.7997	27.108	0.107
0.8493	28.222	0.11
0.9017	29.398	0.114
0.9508	30.514	0.118
1	31.626	0.119

System: toluene + heptane + 2-ethoxy-2-methylpropane; phases: Liquid, Gas
Fixed: Temperature, K = 313.15
Property: Vapor or sublimation pressure, kPa (Liquid); method: Closed cell (Static) method
Mole fraction of 2-ethoxy-2-methylpropane	Mole fraction of heptane	Vapor or sublimation pressure, kPa	uncertainty
0	0	7.875	0.041
0	0.2984	10.271	0.049
0	0.6999	11.783	0.054
0	1	12.318	0.056
0.0001	0	7.88	0.041
0.0001	1	12.315	0.056
0.0278	0.2902	10.896	0.068
0.0291	0.6795	12.426	0.064
0.0507	0.6644	12.907	0.067
0.0515	0.2831	11.442	0.055
0.1005	0.6296	13.991	0.066
0.1011	0.2683	12.557	0.061
0.1504	0.5947	15.067	0.069
0.1506	0.2535	13.656	0.065
0.1579	0.4964	14.885	0.068
0.1612	0.3319	14.282	0.066
0.173	0.4482	15.053	0.069
0.1777	0.3659	14.814	0.068
0.1893	0.3963	15.209	0.07
0.1939	0.3993	15.34	0.069
0.1996	0.5602	16.102	0.072
0.2003	0.2387	14.747	0.068
0.205	0.3459	15.358	0.07
0.2103	0.4331	15.856	0.071
0.2203	0.2972	15.49	0.07
0.2271	0.4676	16.388	0.073
0.2361	0.2465	15.615	0.07
0.2435	0.5016	16.909	0.075
0.2493	0.224	15.818	0.071
0.2496	0.5253	17.144	0.075
0.2516	0.197	15.729	0.071
0.2599	0.5354	17.424	0.076
0.267	0.148	15.831	0.071
0.2764	0.5694	17.947	0.078
0.2826	0.098	15.919	0.071
0.2931	0.6037	18.471	0.08
0.298	0.0488	15.996	0.073
0.2991	0.2092	16.892	0.074
0.2997	0.4901	18.167	0.079
0.3051	0.0263	16.024	0.075
0.3101	0.6389	19.021	0.081
0.3133	0	16.054	0.072
0.318	0.6551	19.269	0.082
0.3268	0.6732	19.556	0.083
0.3485	0.5012	19.326	0.082
0.3489	0.1943	17.95	0.078
0.3489	0.4557	19.159	0.082
0.3684	0.1375	18.101	0.078
0.3833	0.4513	19.911	0.084
0.3988	0.1794	19.017	0.081
0.3994	0.4204	20.165	0.085
0.4047	0.1511	18.996	0.081
0.4179	0.4018	20.484	0.086
0.4409	0.1646	19.875	0.084
0.4488	0.1645	20.074	0.085
0.4496	0.3853	21.155	0.088
0.4551	0.3486	21.081	0.088
0.4773	0.1782	20.773	0.087
0.4985	0.1497	21.122	0.088
0.499	0.3507	22.12	0.091
0.5138	0.1918	21.661	0.089
0.5157	0.2618	22.037	0.091
0.5222	0.2524	22.141	0.091
0.55	0.2054	22.54	0.092
0.5572	0.2023	22.686	0.093
0.5851	0.2185	23.402	0.095
0.5916	0.153	23.222	0.094
0.6204	0.2317	24.267	0.098
0.6267	0.1027	23.764	0.096
0.6579	0.2457	25.187	0.101
0.6612	0.0534	24.291	0.098
0.6786	0.0284	24.556	0.099
0.6932	0.2589	26.064	0.104
0.6985	0	24.85	0.1
0.7101	0.2652	26.487	0.105
0.7281	0.2719	26.935	0.106
1	0	31.64	0.119
1	0	31.628	0.119
