Measured thermophysical data. Solubilities of Sulfadiazine, Sulfamethazine, Sulfadimethoxine, Sulfamethoxydiazine, Sulfamonomethoxine, Sulfamethoxazole, and Sulfachloropyrazine in Water from (298.15 to 333.15) K
Source: J. Chem. Eng. Data, 2007, 10.1021/je0603978
Compound 1: 4-amino-N-2-pyrimidinylbenzenesulfonamide, C10H10N4O2S, InChI=1S/C10H10N4O2S/c11-8-2-4-9(5-3-8)17(15,16)14-10-12-6-1-7-13-10/h1-7H,11H2,(H,12,13,14)
Compound 2: 4-amino-N-(4,6-dimethyl-2-pyrimidinyl)benzenesulfonamide, C12H14N4O2S, InChI=1S/C12H14N4O2S/c1-8-7-9(2)15-12(14-8)16-19(17,18)11-5-3-10(13)4-6-11/h3-7H,13H2,1-2H3,(H,14,15,16)
Compound 3: benzenesulfonamide, 4-amino-N-(2,6-dimethoxy-4-pyrimidinyl)-, C12H14N4O4S, InChI=1S/C12H14N4O4S/c1-19-11-7-10(14-12(15-11)20-2)16-21(17,18)9-5-3-8(13)4-6-9/h3-7H,13H2,1-2H3,(H,14,15,16)
Compound 4: N1-(5-methoxy-2-pyrimidinyl)sulfanilamide, C11H12N4O3S, InChI=1S/C11H12N4O3S/c1-18-9-6-13-11(14-7-9)15-19(16,17)10-4-2-8(12)3-5-10/h2-7H,12H2,1H3,(H,13,14,15)
Compound 5: sulfamonomethoxine, C11H12N4O3S, InChI=1S/C11H12N4O3S/c1-18-11-6-10(13-7-14-11)15-19(16,17)9-4-2-8(12)3-5-9/h2-7H,12H2,1H3,(H,13,14,15)
Compound 6: N1-(5-methyl-3-isoxazolyl)sulfanilamide, C10H11N3O3S, InChI=1S/C10H11N3O3S/c1-7-6-10(12-16-7)13-17(14,15)9-4-2-8(11)3-5-9/h2-6H,11H2,1H3,(H,12,13)
Compound 7: sulfachloropyrazine, C10H9ClN4O2S, InChI=1S/C10H9ClN4O2S/c11-9-5-14-10(6-13-9)15-18(16,17)8-3-1-7(12)2-4-8/h1-6H,12H2,(H,14,15)
Compound 8: water, H2O, InChI=1S/H2O/h1H2

System: 4-amino-N-2-pyrimidinylbenzenesulfonamide + water; phases: Liquid, Crystal
Fixed: Pressure, kPa = 101
Property: Mole fraction of 4-amino-N-2-pyrimidinylbenzenesulfonamide (Liquid); method: UV Spectra
Temperature, K	Mole fraction of 4-amino-N-2-pyrimidinylbenzenesulfonamide	uncertainty
298.15	4.819e-06	2.46e-07
303.15	6.198e-06	3.15e-07
308.15	8.23e-06	4.18e-07
313.15	1.053e-05	5.3e-07
318.15	1.334e-05	6.8e-07
323.15	1.697e-05	8.6e-07
328.15	2.102e-05	1.06e-06
333.15	2.621e-05	1.32e-06

System: 4-amino-N-(4,6-dimethyl-2-pyrimidinyl)benzenesulfonamide + water; phases: Liquid, Crystal
Fixed: Pressure, kPa = 101
Property: Mole fraction of 4-amino-N-(4,6-dimethyl-2-pyrimidinyl)benzenesulfonamide (Liquid); method: UV Spectra
Temperature, K	Mole fraction of 4-amino-N-(4,6-dimethyl-2-pyrimidinyl)benzenesulfonamide	uncertainty
298.15	2.919e-05	1.53e-06
303.15	3.565e-05	1.86e-06
308.15	4.188e-05	2.18e-06
313.15	4.903e-05	2.56e-06
318.15	5.814e-05	3.03e-06
323.15	6.786e-05	3.53e-06
328.15	7.873e-05	4.1e-06
333.15	9.186e-05	4.78e-06

System: benzenesulfonamide, 4-amino-N-(2,6-dimethoxy-4-pyrimidinyl)- + water; phases: Liquid, Crystal
Fixed: Pressure, kPa = 101
Property: Mole fraction of benzenesulfonamide, 4-amino-N-(2,6-dimethoxy-4-pyrimidinyl)- (Liquid); method: UV Spectra
Temperature, K	Mole fraction of benzenesulfonamide, 4-amino-N-(2,6-dimethoxy-4-pyrimidinyl)-	uncertainty
298.15	3.068e-06	1.69e-07
303.15	3.83e-06	2.1e-07
308.15	4.775e-06	2.62e-07
313.15	5.832e-06	3.2e-07
318.15	7.253e-06	3.97e-07
323.15	8.756e-06	4.79e-07
328.15	1.054e-05	5.8e-07
333.15	1.276e-05	7e-07

System: N1-(5-methoxy-2-pyrimidinyl)sulfanilamide + water; phases: Liquid, Crystal
Fixed: Pressure, kPa = 101
Property: Mole fraction of N1-(5-methoxy-2-pyrimidinyl)sulfanilamide (Liquid); method: UV Spectra
Temperature, K	Mole fraction of N1-(5-methoxy-2-pyrimidinyl)sulfanilamide	uncertainty
298.15	5.518e-06	2.94e-07
303.15	7.19e-06	3.8e-07
308.15	9.259e-06	4.88e-07
313.15	1.166e-05	6.1e-07
318.15	1.481e-05	7.8e-07
323.15	1.878e-05	9.9e-07
328.15	2.338e-05	1.23e-06
333.15	2.916e-05	1.53e-06

System: sulfamonomethoxine + water; phases: Liquid, Crystal
Fixed: Pressure, kPa = 101
Property: Mole fraction of sulfamonomethoxine (Liquid); method: UV Spectra
Temperature, K	Mole fraction of sulfamonomethoxine	uncertainty
298.15	3.882e-06	2.05e-07
303.15	4.899e-06	2.58e-07
308.15	6.134e-06	3.23e-07
313.15	7.646e-06	4.03e-07
318.15	9.628e-06	5.06e-07
323.15	1.173e-05	6.2e-07
328.15	1.452e-05	7.6e-07
333.15	1.761e-05	9.2e-07

System: N1-(5-methyl-3-isoxazolyl)sulfanilamide + water; phases: Liquid, Crystal
Fixed: Pressure, kPa = 101
Property: Mole fraction of N1-(5-methyl-3-isoxazolyl)sulfanilamide (Liquid); method: UV Spectra
Temperature, K	Mole fraction of N1-(5-methyl-3-isoxazolyl)sulfanilamide	uncertainty
298.15	2.698e-05	1.37e-06
303.15	3.266e-05	1.65e-06
308.15	3.916e-05	1.97e-06
313.15	4.61e-05	2.32e-06
318.15	5.426e-05	2.73e-06
323.15	6.327e-05	3.18e-06
328.15	7.533e-05	3.79e-06
333.15	8.768e-05	4.4e-06

System: sulfachloropyrazine + water; phases: Liquid, Crystal
Fixed: Pressure, kPa = 101
Property: Mole fraction of sulfachloropyrazine (Liquid); method: UV Spectra
Temperature, K	Mole fraction of sulfachloropyrazine	uncertainty
298.15	1.124e-05	5.9e-07
303.15	1.35e-05	7.1e-07
308.15	1.592e-05	8.4e-07
313.15	1.908e-05	1.01e-06
318.15	2.3e-05	1.21e-06
323.15	2.748e-05	1.45e-06
328.15	3.28e-05	1.73e-06
333.15	3.912e-05	2.06e-06
