Measured thermophysical data. Solubility and Metastable Zone Width of 1-Keto-1,2,3,4-tetrahydro-6-methylcarbazole in Acetone
Source: J. Chem. Eng. Data, 2006, 10.1021/je0600552
Compound 1: 1-keto-1,2,3,4-tetrahydro-6-methylcarbazole, C13H13NO, InChI=1S/C13H13NO/c1-8-5-6-11-10(7-8)9-3-2-4-12(15)13(9)14-11/h5-7,14H,2-4H2,1H3
Compound 2: acetone, C3H6O, InChI=1S/C3H6O/c1-3(2)4/h1-2H3

System: 1-keto-1,2,3,4-tetrahydro-6-methylcarbazole; phases: Crystal, Liquid, Air at 1 atmosphere
Property: Normal melting temperature, K (Crystal); method: DTA
Normal melting temperature, K	uncertainty
468.45	0.9

System: 1-keto-1,2,3,4-tetrahydro-6-methylcarbazole; phases: Crystal, Liquid, Air at 1 atmosphere
Property: Molar enthalpy of transition or fusion, kJ/mol (Crystal); method: DSC
Molar enthalpy of transition or fusion, kJ/mol	uncertainty
26.9	0.6

System: acetone + 1-keto-1,2,3,4-tetrahydro-6-methylcarbazole; phases: Liquid, Crystal
Fixed: Pressure, kPa = 101
Property: Mass ratio of solute to solvent of 1-keto-1,2,3,4-tetrahydro-6-methylcarbazole (Liquid); method: Gravimetric
Temperature, K	Mass ratio of solute to solvent of 1-keto-1,2,3,4-tetrahydro-6-methylcarbazole	uncertainty
323.15	5.69	0.07
315.15	4.57	0.07
313.15	4.32	0.07
306.15	3.55	0.07
291.45	2.35	0.07
