Measured thermophysical data. Solubility of Felodipine and Nitrendipine in Liquid and Supercritical Carbon Dioxide by Cloud Point and UV Spectroscopy
Source: J. Chem. Eng. Data, 2007, 10.1021/je0603729
Compound 1: carbon dioxide, CO2, InChI=1S/CO2/c2-1-3
Compound 2: nitrendipine, C18H20N2O6, InChI=1S/C18H20N2O6/c1-5-26-18(22)15-11(3)19-10(2)14(17(21)25-4)16(15)12-7-6-8-13(9-12)20(23)24/h6-9,16,19H,5H2,1-4H3
Compound 3: felodipine, C18H19Cl2NO4, InChI=1S/C18H19Cl2NO4/c1-5-25-18(23)14-10(3)21-9(2)13(17(22)24-4)15(14)11-7-6-8-12(19)16(11)20/h6-8,15,21H,5H2,1-4H3

System: carbon dioxide + felodipine; phases: Fluid (supercritical or subcritical phases), Crystal
Property: Mole fraction of felodipine (Fluid (supercritical or subcritical phases)); method: visual observation of could point with volume change
Temperature, K	Pressure, kPa	Mole fraction of felodipine	uncertainty
298	8000	5.9e-07	1.8e-07
298	10100	8.6e-07	2.7e-07
298	12500	1e-06	3.1e-07
298	15200	1.5e-06	4.7e-07
298	17500	2.7e-06	8.4e-07
298	20000	3.1e-06	9.6e-07
298	22500	4.4e-06	1.37e-06
298	25000	5.4e-06	1.68e-06
308	8000	7.6e-07	2.4e-07
308	10000	9.7e-07	3e-07
308	12500	1.1e-06	3.7e-07
308	15100	1.7e-06	5.6e-07
308	17500	4.4e-06	1.38e-06
308	20300	4.5e-06	1.42e-06
308	22500	7.3e-06	2.29e-06
308	24800	9.5e-06	2.99e-06
318	8000	9.7e-07	3e-07
318	10000	2.8e-06	8.8e-07
318	12500	8.5e-06	2.65e-06
318	15100	1e-05	3.12e-06
318	17500	1.2e-05	3.74e-06
318	20200	1.6e-05	4.99e-06
318	22600	2e-05	6.21e-06
318	25000	2.8e-05	8.72e-06

System: carbon dioxide + felodipine; phases: Fluid (supercritical or subcritical phases), Crystal
Property: Mole fraction of felodipine (Fluid (supercritical or subcritical phases)); method: UV absorption
Temperature, K	Pressure, kPa	Mole fraction of felodipine	uncertainty
298	8000	4.5e-07	1.4e-07
298	10300	9e-07	2.7e-07
298	13800	1.5e-06	4.5e-07
298	17200	2.2e-06	6.6e-07
298	20700	4e-06	1.2e-06
298	24100	5.1e-06	1.53e-06
308	8000	4e-08	1e-08
308	10300	1.3e-06	3.9e-07
308	13800	1.7e-06	5.1e-07
308	17200	5e-06	1.5e-06
308	20700	8e-06	2.4e-06
308	24100	9.5e-06	2.86e-06
318	8000	1e-08	1e-08
318	10300	1.2e-07	4e-08
318	13800	9.1e-06	2.74e-06
318	17200	1.4e-05	4.21e-06
318	20700	2.3e-05	6.91e-06
318	24100	2.9e-05	8.72e-06

System: carbon dioxide + nitrendipine; phases: Fluid (supercritical or subcritical phases), Crystal
Property: Mole fraction of nitrendipine (Fluid (supercritical or subcritical phases)); method: visual observation of could point with volume change
Temperature, K	Pressure, kPa	Mole fraction of nitrendipine	uncertainty
298	8000	8.3e-06	2.6e-06
298	9900	9.2e-06	2.9e-06
298	12600	1.7e-05	5.3e-06
298	15000	2.2e-05	6.8e-06
298	17500	2.7e-05	8.4e-06
298	20000	3.5e-05	1.09e-05
298	22500	4.1e-05	1.27e-05
298	25000	5.1e-05	1.58e-05
308	8000	1e-05	3.1e-06
308	10000	1.7e-05	5.3e-06
308	12500	2.2e-05	6.8e-06
308	15000	2.7e-05	8.4e-06
308	17500	3.9e-05	1.21e-05
308	20000	4.3e-05	1.33e-05
308	22500	6.3e-05	1.96e-05
308	25000	7.4e-05	2.3e-05
318	8000	1e-05	3.1e-06
318	10000	3.7e-05	1.15e-05
318	12500	4e-05	1.24e-05
318	15100	4.6e-05	1.43e-05
318	17500	4.8e-05	1.49e-05
318	20200	5.4e-05	1.68e-05
318	22400	6.5e-05	2.02e-05
318	25100	8.9e-05	2.76e-05

System: carbon dioxide + nitrendipine; phases: Fluid (supercritical or subcritical phases), Crystal
Property: Mole fraction of nitrendipine (Fluid (supercritical or subcritical phases)); method: UV absorption
Temperature, K	Pressure, kPa	Mole fraction of nitrendipine	uncertainty
298	8000	3.3e-06	9.9e-07
298	10300	6.4e-06	1.92e-06
298	13800	2.1e-05	6.31e-06
298	17200	3.1e-05	9.32e-06
298	20700	4.2e-05	1.262e-05
298	24100	5.6e-05	1.683e-05
308	8000	2.5e-07	8e-08
308	10300	1e-05	3.01e-06
308	13800	2.2e-05	6.61e-06
308	17200	3.9e-05	1.172e-05
308	20700	6e-05	1.803e-05
308	24100	7.6e-05	2.284e-05
318	8000	4e-08	1e-08
318	10300	8.8e-06	2.64e-06
318	13800	2.6e-05	7.81e-06
318	17200	5e-05	1.503e-05
318	20700	6e-05	1.803e-05
318	24100	9e-05	2.705e-05
