Measured thermophysical data. Volumetric Properties of the Binary Methanol + Chloroform and Ternary Methanol + Chloroform + Benzene Mixtures at (288.15, 293.15, 298.15, 303.15, 308.15, and 313.15) K
Source: J. Chem. Eng. Data, 2007, 10.1021/je060441j
Compound 1: methanol, CH4O, InChI=1S/CH4O/c1-2/h2H,1H3, purity 99.8%
Compound 2: trichloromethane, CHCl3, InChI=1S/CHCl3/c2-1(3)4/h1H, purity 99.8%
Compound 3: benzene, C6H6, InChI=1S/C6H6/c1-2-4-6-5-3-1/h1-6H, purity 99.9%

System: methanol; phases: Liquid
Fixed: Pressure, kPa = 101
Property: Mass density, kg/m3 (Liquid); method: VIBTUB:UFactor:2
Temperature, K	Mass density, kg/m3	uncertainty
288.15	796.093	0.226
293.15	791.4	0.23
298.15	786.694	0.234
303.15	781.966	0.237
308.15	777.213	0.241
313.15	772.443	0.245

System: trichloromethane; phases: Liquid
Fixed: Pressure, kPa = 101
Property: Mass density, kg/m3 (Liquid); method: VIBTUB:UFactor:2
Temperature, K	Mass density, kg/m3	uncertainty
288.15	1498.077	0.469
293.15	1488.638	0.462
298.15	1479.148	0.454
303.15	1469.612	0.446
308.15	1460.025	0.438
313.15	1450.413	0.431

System: benzene; phases: Liquid
Property: Mass density, kg/m3 (Liquid); method: VIBTUB:UFactor:2
Temperature, K	Pressure, kPa	Mass density, kg/m3	uncertainty
298.15	101.325	873.582	0.164

System: methanol + trichloromethane; phases: Liquid
Fixed: Pressure, kPa = 101
Property: Mass density, kg/m3 (Liquid); method: VIBTUB:UFactor:2
Temperature, K	Mole fraction of methanol	Mass density, kg/m3	uncertainty
288.15	0	1498.077	0.469
288.15	0.0298	1487.346	0.466
288.15	0.0492	1480.267	0.461
288.15	0.0724	1471.759	0.454
288.15	0.0942	1463.439	0.448
288.15	0.1282	1450.192	0.438
288.15	0.1586	1437.963	0.429
288.15	0.2444	1401.121	0.401
288.15	0.2956	1377.441	0.384
288.15	0.3383	1356.507	0.37
288.15	0.398	1325.255	0.347
288.15	0.4393	1302.229	0.333
288.15	0.4983	1267.1	0.309
288.15	0.5505	1233.392	0.289
288.15	0.6022	1197.323	0.268
288.15	0.6352	1172.938	0.26
288.15	0.6999	1121.29	0.235
288.15	0.75	1077.545	0.225
288.15	0.7996	1030.616	0.213
288.15	0.8193	1011.238	0.22
288.15	0.8534	975.44	0.238
288.15	0.91	911.539	0.267
288.15	0.93	887.399	0.292
288.15	0.9542	857.083	0.317
288.15	1	796.093	0.226
293.15	0	1488.638	0.462
293.15	0.0298	1477.931	0.459
293.15	0.0492	1470.881	0.453
293.15	0.0724	1462.414	0.447
293.15	0.0942	1454.141	0.441
293.15	0.1282	1440.98	0.43
293.15	0.1586	1428.829	0.422
293.15	0.2444	1392.244	0.394
293.15	0.2956	1368.733	0.377
293.15	0.3383	1347.953	0.363
293.15	0.398	1316.934	0.34
293.15	0.4393	1294.082	0.326
293.15	0.4983	1259.218	0.303
293.15	0.5505	1225.765	0.284
293.15	0.6022	1190.011	0.263
293.15	0.6352	1165.776	0.255
293.15	0.6999	1114.52	0.23
293.15	0.75	1071.098	0.22
293.15	0.7996	1024.5	0.21
293.15	0.8193	1005.113	0.217
293.15	0.8534	969.692	0.238
293.15	0.91	906.188	0.268
293.15	0.93	882.191	0.293
293.15	0.9542	852.051	0.319
293.15	1	791.4	0.23
298.15	0	1479.148	0.454
298.15	0.0298	1468.465	0.451
298.15	0.0492	1461.441	0.446
298.15	0.0724	1453.013	0.439
298.15	0.0942	1444.789	0.433
298.15	0.1282	1431.705	0.423
298.15	0.1586	1419.634	0.415
298.15	0.2444	1383.302	0.387
298.15	0.2956	1359.967	0.37
298.15	0.3383	1339.334	0.356
298.15	0.398	1308.55	0.334
298.15	0.4393	1285.874	0.32
298.15	0.4983	1251.28	0.297
298.15	0.5505	1218.088	0.278
298.15	0.6022	1182.624	0.257
298.15	0.6352	1158.565	0.25
298.15	0.6999	1107.707	0.226
298.15	0.75	1064.609	0.216
298.15	0.7996	1018.344	0.207
298.15	0.8193	998.988	0.215
298.15	0.8534	963.915	0.238
298.15	0.91	900.813	0.269
298.15	0.93	876.963	0.294
298.15	0.9542	847	0.32
298.15	1	786.694	0.234
303.15	0	1469.612	0.446
303.15	0.0298	1458.953	0.443
303.15	0.0492	1451.95	0.438
303.15	0.0724	1443.554	0.432
303.15	0.0942	1435.375	0.425
303.15	0.1282	1422.367	0.415
303.15	0.1586	1410.374	0.407
303.15	0.2444	1374.295	0.379
303.15	0.2956	1351.137	0.363
303.15	0.3383	1330.656	0.349
303.15	0.398	1300.105	0.327
303.15	0.4393	1277.602	0.313
303.15	0.4983	1243.281	0.291
303.15	0.5505	1210.35	0.272
303.15	0.6022	1175.169	0.252
303.15	0.6352	1151.299	0.245
303.15	0.6999	1100.844	0.221
303.15	0.75	1058.072	0.212
303.15	0.7996	1012.148	0.203
303.15	0.8193	992.86	0.215
303.15	0.8534	958.1	0.239
303.15	0.91	895.41	0.27
303.15	0.93	871.71	0.295
303.15	0.9542	841.927	0.321
303.15	1	781.966	0.237
308.15	0	1460.025	0.438
308.15	0.0298	1449.385	0.436
308.15	0.0492	1442.4	0.43
308.15	0.0724	1434.035	0.424
308.15	0.0942	1425.891	0.418
308.15	0.1282	1412.964	0.408
308.15	0.1586	1401.043	0.4
308.15	0.2444	1365.219	0.372
308.15	0.2956	1342.24	0.356
308.15	0.3383	1321.902	0.342
308.15	0.398	1291.589	0.32
308.15	0.4393	1269.262	0.307
308.15	0.4983	1235.216	0.284
308.15	0.5505	1202.554	0.266
308.15	0.6022	1167.65	0.246
308.15	0.6352	1143.978	0.239
308.15	0.6999	1093.926	0.216
308.15	0.75	1051.484	0.208
308.15	0.7996	1005.907	0.2
308.15	0.8193	986.761	0.215
308.15	0.8534	952.24	0.24
308.15	0.91	889.975	0.271
308.15	0.93	866.422	0.296
308.15	0.9542	836.829	0.322
308.15	1	777.213	0.241
313.15	0	1450.413	0.431
313.15	0.0298	1439.804	0.428
313.15	0.0492	1432.835	0.423
313.15	0.0724	1424.49	0.416
313.15	0.0942	1416.399	0.41
313.15	0.1282	1403.524	0.4
313.15	0.1586	1391.678	0.392
313.15	0.2444	1356.097	0.365
313.15	0.2956	1333.29	0.349
313.15	0.3383	1313.094	0.335
313.15	0.398	1283.024	0.314
313.15	0.4393	1260.885	0.3
313.15	0.4983	1227.126	0.278
313.15	0.5505	1194.712	0.26
313.15	0.6022	1160.084	0.24
313.15	0.6352	1136.625	0.234
313.15	0.6999	1086.962	0.212
313.15	0.75	1044.851	0.205
313.15	0.7996	999.622	0.198
313.15	0.8193	980.633	0.216
313.15	0.8534	946.342	0.24
313.15	0.91	884.513	0.272
313.15	0.93	861.11	0.297
313.15	0.9542	831.705	0.323
313.15	1	772.443	0.245

System: methanol + trichloromethane + benzene; phases: Liquid
Fixed: Pressure, kPa = 101
Property: Mass density, kg/m3 (Liquid); method: VIBTUB:UFactor:2
Temperature, K	Mole fraction of methanol	Mole fraction of trichloromethane	Mass density, kg/m3	uncertainty
288.15	0.0192	0.8016	1368.917	0.389
288.15	0.0233	0.8952	1433.328	0.426
288.15	0.0296	0.6985	1303.088	0.37
288.15	0.0383	0.801	1373.387	0.394
288.15	0.0404	0.6	1241.336	0.366
288.15	0.0424	0.8986	1441.49	0.433
288.15	0.0494	0.5004	1179.37	0.379
288.15	0.0496	0.5011	1179.783	0.379
288.15	0.0566	0.4023	1118.783	0.297
288.15	0.0598	0.9015	1449.115	0.439
288.15	0.0603	0.6995	1310.564	0.379
288.15	0.0666	0.3002	1057.071	0.214
288.15	0.0777	0.2015	998.153	0.137
288.15	0.0785	0.5994	1247.8	0.376
288.15	0.0789	0.9028	1456.092	0.445
288.15	0.0791	0.7995	1383.499	0.405
288.15	0.0881	0.1008	938.735	0.127
288.15	0.0968	0.1002	938.272	0.127
288.15	0.0976	0.5009	1186.422	0.39
288.15	0.1192	0.7014	1325.72	0.392
288.15	0.1195	0.7988	1394.494	0.414
288.15	0.1199	0.3988	1123.082	0.322
288.15	0.1412	0.2988	1060.835	0.223
288.15	0.1578	0.5998	1263.561	0.401
288.15	0.1585	0.7993	1406.704	0.426
288.15	0.1601	0.2002	999.417	0.148
288.15	0.1784	0.1022	938.572	0.129
288.15	0.1827	0.6964	1338.345	0.409
288.15	0.1829	0.7986	1413.916	0.432
288.15	0.1984	0.5012	1202.097	0.428
288.15	0.2381	0.702	1357.857	0.425
288.15	0.2388	0.602	1282.813	0.42
288.15	0.2433	0.3981	1136.85	0.336
288.15	0.2667	0.7034	1367.586	0.431
288.15	0.2804	0.3017	1073.145	0.242
288.15	0.3005	0.4996	1219.55	0.443
288.15	0.319	0.2029	1006.366	0.157
288.15	0.3208	0.6004	1302.125	0.44
288.15	0.358	0.4009	1154.649	0.372
288.15	0.3586	0.602	1313.627	0.461
288.15	0.3594	0.1007	935.475	0.135
288.15	0.3669	0.4111	1163.87	0.38
288.15	0.3992	0.5007	1241.361	0.476
288.15	0.4196	0.3003	1084.812	0.273
288.15	0.4515	0.4993	1252.64	0.509
288.15	0.4777	0.4014	1175.042	0.392
288.15	0.48	0.2004	1011.071	0.18
288.15	0.4885	0.4252	1197.407	0.425
288.15	0.5396	0.4011	1186.718	0.421
288.15	0.5408	0.0998	932.271	0.146
288.15	0.5604	0.3006	1101.164	0.295
288.15	0.6294	0.3008	1110.632	0.32
288.15	0.64	0.2005	1019.575	0.201
288.15	0.7198	0.1995	1023.657	0.211
288.15	0.7206	0.1002	928.648	0.156
288.15	0.8096	0.1004	926.523	0.158
293.15	0.0192	0.8016	1360.432	0.383
293.15	0.0233	0.8952	1424.347	0.419
293.15	0.0296	0.6985	1295.071	0.364
293.15	0.0383	0.801	1364.839	0.387
293.15	0.0404	0.6	1233.748	0.361
293.15	0.0424	0.8986	1432.416	0.426
293.15	0.0494	0.5004	1172.209	0.374
293.15	0.0496	0.5011	1172.618	0.374
293.15	0.0566	0.4023	1112.016	0.293
293.15	0.0598	0.9015	1439.96	0.432
293.15	0.0603	0.6995	1302.463	0.373
293.15	0.0666	0.3002	1050.695	0.21
293.15	0.0777	0.2015	992.137	0.139
293.15	0.0785	0.5994	1240.145	0.37
293.15	0.0789	0.9028	1446.863	0.437
293.15	0.0791	0.7995	1374.839	0.398
293.15	0.0881	0.1008	933.07	0.131
293.15	0.0968	0.1002	932.608	0.131
293.15	0.0976	0.5009	1179.19	0.386
293.15	0.1192	0.7014	1317.477	0.386
293.15	0.1195	0.7988	1385.725	0.407
293.15	0.1199	0.3988	1116.271	0.317
293.15	0.1412	0.2988	1054.425	0.219
293.15	0.1578	0.5998	1255.76	0.396
293.15	0.1585	0.7993	1397.817	0.419
293.15	0.1601	0.2002	993.39	0.15
293.15	0.1784	0.1022	932.91	0.133
293.15	0.1827	0.6964	1329.982	0.403
293.15	0.1829	0.7986	1404.959	0.425
293.15	0.1984	0.5012	1194.908	0.424
293.15	0.2381	0.702	1349.321	0.418
293.15	0.2388	0.602	1274.854	0.415
293.15	0.2433	0.3981	1129.934	0.331
293.15	0.2667	0.7034	1358.966	0.424
293.15	0.2804	0.3017	1066.646	0.239
293.15	0.3005	0.4996	1212.049	0.437
293.15	0.319	0.2029	1000.3	0.154
293.15	0.3208	0.6004	1293.999	0.434
293.15	0.358	0.4009	1147.608	0.369
293.15	0.3586	0.602	1305.405	0.454
293.15	0.3594	0.1007	929.849	0.139
293.15	0.3669	0.4111	1156.762	0.376
293.15	0.3992	0.5007	1233.687	0.469
293.15	0.4196	0.3003	1078.25	0.269
293.15	0.4515	0.4993	1244.871	0.502
293.15	0.4777	0.4014	1167.855	0.386
293.15	0.48	0.2004	1004.999	0.177
293.15	0.4885	0.4252	1190.056	0.419
293.15	0.5396	0.4011	1179.446	0.415
293.15	0.5408	0.0998	926.7	0.15
293.15	0.5604	0.3006	1094.506	0.29
293.15	0.6294	0.3008	1103.923	0.316
293.15	0.64	0.2005	1013.478	0.198
293.15	0.7198	0.1995	1017.556	0.208
293.15	0.7206	0.1002	923.144	0.159
293.15	0.8096	0.1004	921.055	0.161
298.15	0.0192	0.8016	1351.904	0.376
298.15	0.0233	0.8952	1415.32	0.412
298.15	0.0296	0.6985	1287.013	0.358
298.15	0.0383	0.801	1356.246	0.38
298.15	0.0404	0.6	1226.124	0.355
298.15	0.0424	0.8986	1423.296	0.419
298.15	0.0494	0.5004	1165.01	0.369
298.15	0.0496	0.5011	1165.413	0.369
298.15	0.0566	0.4023	1105.219	0.288
298.15	0.0598	0.9015	1430.754	0.425
298.15	0.0603	0.6995	1294.318	0.366
298.15	0.0666	0.3002	1044.29	0.207
298.15	0.0777	0.2015	986.093	0.141
298.15	0.0785	0.5994	1232.445	0.365
298.15	0.0789	0.9028	1437.581	0.43
298.15	0.0791	0.7995	1366.128	0.391
298.15	0.0881	0.1008	927.383	0.135
298.15	0.0968	0.1002	926.922	0.135
298.15	0.0976	0.5009	1171.916	0.381
298.15	0.1192	0.7014	1309.182	0.38
298.15	0.1195	0.7988	1376.895	0.4
298.15	0.1199	0.3988	1109.421	0.313
298.15	0.1412	0.2988	1047.98	0.216
298.15	0.1578	0.5998	1247.911	0.39
298.15	0.1585	0.7993	1388.87	0.412
298.15	0.1601	0.2002	987.329	0.152
298.15	0.1784	0.1022	927.22	0.137
298.15	0.1827	0.6964	1321.56	0.397
298.15	0.1829	0.7986	1395.942	0.418
298.15	0.1984	0.5012	1187.594	0.419
298.15	0.2381	0.702	1340.724	0.411
298.15	0.2388	0.602	1266.844	0.408
298.15	0.2433	0.3981	1122.976	0.327
298.15	0.2667	0.7034	1350.284	0.417
298.15	0.2804	0.3017	1060.115	0.235
298.15	0.3005	0.4996	1204.493	0.431
298.15	0.319	0.2029	994.202	0.155
298.15	0.3208	0.6004	1285.815	0.428
298.15	0.358	0.4009	1140.514	0.364
298.15	0.3586	0.602	1297.124	0.448
298.15	0.3594	0.1007	924.193	0.142
298.15	0.3669	0.4111	1149.608	0.371
298.15	0.3992	0.5007	1225.954	0.463
298.15	0.4196	0.3003	1071.644	0.265
298.15	0.4515	0.4993	1237.051	0.496
298.15	0.4777	0.4014	1160.615	0.381
298.15	0.48	0.2004	998.89	0.175
298.15	0.4885	0.4252	1182.656	0.414
298.15	0.5396	0.4011	1172.121	0.41
298.15	0.5408	0.0998	921.097	0.153
298.15	0.5604	0.3006	1087.805	0.286
298.15	0.6294	0.3008	1097.168	0.312
298.15	0.64	0.2005	1007.345	0.195
298.15	0.7198	0.1995	1011.418	0.205
298.15	0.7206	0.1002	917.607	0.162
298.15	0.8096	0.1004	915.556	0.164
303.15	0.0192	0.8016	1343.332	0.37
303.15	0.0233	0.8952	1406.243	0.404
303.15	0.0296	0.6985	1278.914	0.352
303.15	0.0383	0.801	1347.606	0.373
303.15	0.0404	0.6	1218.458	0.35
303.15	0.0424	0.8986	1414.124	0.411
303.15	0.0494	0.5004	1157.779	0.364
303.15	0.0496	0.5011	1158.174	0.364
303.15	0.0566	0.4023	1098.387	0.284
303.15	0.0598	0.9015	1421.494	0.417
303.15	0.0603	0.6995	1286.125	0.36
303.15	0.0666	0.3002	1037.855	0.203
303.15	0.0777	0.2015	980.022	0.143
303.15	0.0785	0.5994	1224.698	0.359
303.15	0.0789	0.9028	1428.239	0.422
303.15	0.0791	0.7995	1357.363	0.384
303.15	0.0881	0.1008	921.668	0.138
303.15	0.0968	0.1002	921.208	0.139
303.15	0.0976	0.5009	1164.595	0.376
303.15	0.1192	0.7014	1300.835	0.373
303.15	0.1195	0.7988	1368.014	0.393
303.15	0.1199	0.3988	1102.528	0.309
303.15	0.1412	0.2988	1041.495	0.212
303.15	0.1578	0.5998	1240.011	0.384
303.15	0.1585	0.7993	1379.859	0.405
303.15	0.1601	0.2002	981.237	0.153
303.15	0.1784	0.1022	921.5	0.141
303.15	0.1827	0.6964	1313.081	0.39
303.15	0.1829	0.7986	1386.863	0.411
303.15	0.1984	0.5012	1180.148	0.413
303.15	0.2381	0.702	1332.068	0.404
303.15	0.2388	0.602	1258.783	0.402
303.15	0.2433	0.3981	1115.975	0.322
303.15	0.2667	0.7034	1341.539	0.41
303.15	0.2804	0.3017	1053.538	0.231
303.15	0.3005	0.4996	1196.89	0.426
303.15	0.319	0.2029	988.064	0.156
303.15	0.3208	0.6004	1277.572	0.421
303.15	0.358	0.4009	1133.371	0.359
303.15	0.3586	0.602	1288.781	0.441
303.15	0.3594	0.1007	918.504	0.146
303.15	0.3669	0.4111	1142.403	0.366
303.15	0.3992	0.5007	1218.167	0.458
303.15	0.4196	0.3003	1064.992	0.261
303.15	0.4515	0.4993	1229.168	0.49
303.15	0.4777	0.4014	1153.32	0.376
303.15	0.48	0.2004	992.742	0.176
303.15	0.4885	0.4252	1175.202	0.408
303.15	0.5396	0.4011	1164.742	0.405
303.15	0.5408	0.0998	915.457	0.156
303.15	0.5604	0.3006	1081.054	0.282
303.15	0.6294	0.3008	1090.362	0.307
303.15	0.64	0.2005	1001.169	0.192
303.15	0.7198	0.1995	1005.235	0.202
303.15	0.7206	0.1002	912.041	0.166
303.15	0.8096	0.1004	910.028	0.167
308.15	0.0192	0.8016	1334.715	0.363
308.15	0.0233	0.8952	1397.116	0.397
308.15	0.0296	0.6985	1270.769	0.345
308.15	0.0383	0.801	1338.912	0.367
308.15	0.0404	0.6	1210.744	0.344
308.15	0.0424	0.8986	1404.899	0.404
308.15	0.0494	0.5004	1150.508	0.36
308.15	0.0496	0.5011	1150.897	0.359
308.15	0.0566	0.4023	1091.516	0.28
308.15	0.0598	0.9015	1412.178	0.41
308.15	0.0603	0.6995	1277.88	0.354
308.15	0.0666	0.3002	1031.382	0.2
308.15	0.0777	0.2015	973.921	0.145
308.15	0.0785	0.5994	1216.905	0.353
308.15	0.0789	0.9028	1418.836	0.415
308.15	0.0791	0.7995	1348.551	0.377
308.15	0.0881	0.1008	915.926	0.142
308.15	0.0968	0.1002	915.468	0.143
308.15	0.0976	0.5009	1157.23	0.37
308.15	0.1192	0.7014	1292.435	0.367
308.15	0.1195	0.7988	1359.075	0.386
308.15	0.1199	0.3988	1095.596	0.304
308.15	0.1412	0.2988	1034.972	0.209
308.15	0.1578	0.5998	1232.057	0.378
308.15	0.1585	0.7993	1370.777	0.398
308.15	0.1601	0.2002	975.112	0.155
308.15	0.1784	0.1022	915.752	0.144
308.15	0.1827	0.6964	1304.546	0.383
308.15	0.1829	0.7986	1377.722	0.404
308.15	0.1984	0.5012	1172.629	0.408
308.15	0.2381	0.702	1323.346	0.397
308.15	0.2388	0.602	1250.66	0.396
308.15	0.2433	0.3981	1108.932	0.318
308.15	0.2667	0.7034	1332.731	0.404
308.15	0.2804	0.3017	1046.916	0.228
308.15	0.3005	0.4996	1189.223	0.42
308.15	0.319	0.2029	981.882	0.158
308.15	0.3208	0.6004	1269.264	0.415
308.15	0.358	0.4009	1126.172	0.355
308.15	0.3586	0.602	1280.368	0.435
308.15	0.3594	0.1007	912.774	0.15
308.15	0.3669	0.4111	1135.143	0.361
308.15	0.3992	0.5007	1210.308	0.452
308.15	0.4196	0.3003	1058.283	0.257
308.15	0.4515	0.4993	1221.221	0.484
308.15	0.4777	0.4014	1145.962	0.371
308.15	0.48	0.2004	986.547	0.177
308.15	0.4885	0.4252	1167.684	0.403
308.15	0.5396	0.4011	1157.303	0.4
308.15	0.5408	0.0998	909.781	0.16
308.15	0.5604	0.3006	1074.257	0.278
308.15	0.6294	0.3008	1083.5	0.303
308.15	0.64	0.2005	994.946	0.192
308.15	0.7198	0.1995	999.004	0.199
308.15	0.7206	0.1002	906.438	0.169
308.15	0.8096	0.1004	904.459	0.171
313.15	0.0192	0.8016	1326.078	0.355
313.15	0.0233	0.8952	1387.968	0.39
313.15	0.0296	0.6985	1262.613	0.339
313.15	0.0383	0.801	1330.201	0.36
313.15	0.0404	0.6	1203.021	0.339
313.15	0.0424	0.8986	1395.642	0.396
313.15	0.0494	0.5004	1143.218	0.355
313.15	0.0496	0.5011	1143.608	0.354
313.15	0.0566	0.4023	1084.631	0.276
313.15	0.0598	0.9015	1402.828	0.402
313.15	0.0603	0.6995	1269.579	0.347
313.15	0.0666	0.3002	1024.884	0.196
313.15	0.0777	0.2015	967.811	0.147
313.15	0.0785	0.5994	1209.086	0.347
313.15	0.0789	0.9028	1409.405	0.407
313.15	0.0791	0.7995	1339.711	0.37
313.15	0.0881	0.1008	910.174	0.146
313.15	0.0968	0.1002	909.705	0.147
313.15	0.0976	0.5009	1149.848	0.365
313.15	0.1192	0.7014	1284.02	0.36
313.15	0.1195	0.7988	1350.105	0.379
313.15	0.1199	0.3988	1088.634	0.299
313.15	0.1412	0.2988	1028.42	0.206
313.15	0.1578	0.5998	1224.085	0.371
313.15	0.1585	0.7993	1361.636	0.39
313.15	0.1601	0.2002	968.97	0.157
313.15	0.1784	0.1022	909.981	0.148
313.15	0.1827	0.6964	1295.978	0.376
313.15	0.1829	0.7986	1368.54	0.396
313.15	0.1984	0.5012	1165.089	0.401
313.15	0.2381	0.702	1314.581	0.391
313.15	0.2388	0.602	1242.491	0.389
313.15	0.2433	0.3981	1101.899	0.313
313.15	0.2667	0.7034	1323.869	0.397
313.15	0.2804	0.3017	1040.265	0.223
313.15	0.3005	0.4996	1181.496	0.415
313.15	0.319	0.2029	975.677	0.159
313.15	0.3208	0.6004	1260.916	0.409
313.15	0.358	0.4009	1118.952	0.348
313.15	0.3586	0.602	1271.909	0.428
313.15	0.3594	0.1007	907.022	0.154
313.15	0.3669	0.4111	1127.846	0.355
313.15	0.3992	0.5007	1202.418	0.447
313.15	0.4196	0.3003	1051.537	0.253
313.15	0.4515	0.4993	1213.238	0.478
313.15	0.4777	0.4014	1138.57	0.367
313.15	0.48	0.2004	980.321	0.178
313.15	0.4885	0.4252	1160.113	0.399
313.15	0.5396	0.4011	1149.821	0.394
313.15	0.5408	0.0998	904.074	0.163
313.15	0.5604	0.3006	1067.434	0.274
313.15	0.6294	0.3008	1076.591	0.299
313.15	0.64	0.2005	988.679	0.193
313.15	0.7198	0.1995	992.738	0.2
313.15	0.7206	0.1002	900.799	0.172
313.15	0.8096	0.1004	898.864	0.174
