Measured thermophysical data. Ammonium Dinitramide-Water: Interaction and Properties
Source: J. Chem. Eng. Data, 2006, 10.1021/je0600698
Compound 1: water, H2O, InChI=1S/H2O/h1H2
Compound 2: ammonium dinitramide, H4N4O4, InChI=1S/N3O4.H3N/c4-2(5)1-3(6)7;/h;1H3/q-1;/p+1
Compound 3: ammonium nitrate, H4N2O3, InChI=1S/NO3.H3N/c2-1(3)4;/h;1H3/q-1;/p+1

System: water + ammonium dinitramide; phases: Crystal, Liquid, Crystal, Air at 1 atmosphere
Property: Eutectic composition: mass fraction of ammonium dinitramide (Crystal); method: Derived from phase diagram analysis
Eutectic composition: mass fraction of ammonium dinitramide	uncertainty
0.58	0.05

System: water + ammonium dinitramide; phases: Crystal, Liquid, Crystal, Air at 1 atmosphere
Property: Eutectic temperature, K (Crystal); method: Derived from phase diagram analysis
Eutectic temperature, K	uncertainty
257.85	0.4

System: water + ammonium dinitramide; phases: Liquid, Crystal
Fixed: Pressure, kPa = 101
Property: Mass fraction of ammonium dinitramide (Liquid); method: UV spectra
Temperature, K	Mass fraction of ammonium dinitramide	uncertainty
258.15	0.583	0.004
263.15	0.627	0.004
273.15	0.693	0.002
293.15	0.781	0.002

System: water + ammonium dinitramide; phases: Liquid, Crystal
Fixed: Pressure, kPa = 101
Property: Solid-liquid equilibrium temperature, K (Liquid); method: DTA
Mass fraction of ammonium dinitramide	Solid-liquid equilibrium temperature, K	uncertainty
0	273.15	0.5
0.049	273.55	0.5
0.09	271.95	0.5
0.136	270.95	0.5
0.171	270.05	0.5
0.251	268.65	0.5
0.3	267.55	0.5
0.403	264.45	0.5

System: water + ammonium dinitramide; phases: Liquid
Fixed: Pressure, kPa = 101
Property: Mass density, kg/m3 (Liquid); method: Vibrating tube method
Temperature, K	Mole fraction of ammonium dinitramide	Mass density, kg/m3	uncertainty
298.15	0	997	5.4
298.15	0.26581	1122.4	5.4
298.15	0.43414	1215.6	5.4
298.15	0.54737	1286.7	5.4
298.15	0.63191	1344.6	5.4
298.15	0.69628	1391.6	5.4
298.15	0.74682	1430.6	5.4
298.15	0.78836	1464.2	5.4
278.15	0	1000	5.4
278.15	0.26581	1132.4	5.5
278.15	0.43414	1228.4	5.6
278.15	0.54737	1300.8	5.6
278.15	0.63191	1359.6	5.6
278.15	0.69628	1407.2	5.6
278.15	0.74682	1446.4	5.6
288.15	0	999.1	5.4
288.15	0.26581	1127.7	5.5
288.15	0.43414	1222.4	5.5
288.15	0.54737	1294	5.5
288.15	0.63191	1352.3	5.5
288.15	0.69628	1399.5	5.5
288.15	0.74682	1438.7	5.5
288.15	0.78836	1472.3	5.5
308.15	0	994	5.3
308.15	0.26581	1116.8	5.4
308.15	0.43414	1209.1	5.4
308.15	0.54737	1279.6	5.4
308.15	0.63191	1337.3	5.4
308.15	0.69628	1384.2	5.4
308.15	0.74682	1423.2	5.4
308.15	0.78836	1456.5	5.4
318.15	0	990.2	5.3
318.15	0.26581	1110.6	5.3
318.15	0.43414	1201.8	5.3
318.15	0.54737	1271.7	5.3
318.15	0.63191	1329	5.3
318.15	0.69628	1375.8	5.3
318.15	0.74682	1414.7	5.3
318.15	0.78836	1448.2	5.3
328.15	0	985.7	5.2
328.15	0.26581	1104.3	5.2
328.15	0.43414	1194.8	5.2
328.15	0.54737	1264.4	5.3
328.15	0.63191	1321.7	5.3
328.15	0.69628	1368.4	5.3
328.15	0.74682	1407.3	5.3
328.15	0.78836	1440.5	5.3
338.15	0	980.6	5.2
338.15	0.26581	1097.3	5.2
338.15	0.43414	1187	5.2
338.15	0.54737	1256.2	5.2
338.15	0.63191	1313.3	5.2
338.15	0.69628	1359.9	5.2
338.15	0.74682	1398.8	5.2
338.15	0.78836	1432.3	5.2
348.15	0	974.9	5.1
348.15	0.26581	1090.5	5.1
348.15	0.43414	1179.5	5.1
348.15	0.54737	1248.8	5.1
348.15	0.63191	1305.8	5.1
348.15	0.69628	1352.5	5.1
348.15	0.74682	1391.4	5.1
348.15	0.78836	1424.6	5.1
358.15	0	968.6	5.1
358.15	0.26581	1082.9	5
358.15	0.43414	1171.3	5
358.15	0.54737	1240.5	5.1
358.15	0.63191	1297.4	5.1
358.15	0.69628	1344.2	5.1
358.15	0.74682	1383.3	5.1
358.15	0.78836	1416.5	5.1

System: ammonium nitrate + water; phases: Liquid
Fixed: Pressure, kPa = 101
Fixed: Temperature, K = 298.15
Property: Mass density, kg/m3 (Liquid); method: Vibrating tube method
Mole fraction of ammonium nitrate	Mass density, kg/m3	uncertainty
0	997	5.4
0.04998	1075.9	6
0.09998	1139.6	6.5
0.14985	1192.2	6.8
0.19992	1236.6	7
0.25023	1274.6	7.1
0.30018	1307.3	7.2
