Measured thermophysical data. Isobaric Vapor-Liquid Equilibria for Water + 2-Propanol + 1-Butyl-3-methylimidazolium Tetrafluoroborate
Source: J. Chem. Eng. Data, 2007, 10.1021/je060354r
Compound 1: water, H2O, InChI=1S/H2O/h1H2
Compound 2: propan-2-ol, C3H8O, InChI=1S/C3H8O/c1-3(2)4/h3-4H,1-2H3
Compound 3: 1-butyl-3-methylimidazolium tetrafluoroborate, C8H15BF4N2, InChI=1S/C8H15N2.BF4/c1-3-4-5-10-7-6-9(2)8-10;2-1(3,4)5/h6-8H,3-5H2,1-2H3;/q+1;-1

System: propan-2-ol; phases: Liquid, Gas
Property: Boiling temperature at pressure P, K (Liquid); method: Ebulliometric method (Recirculating still)
Pressure, kPa	Boiling temperature at pressure P, K	uncertainty
100	355.01	0.22

System: propan-2-ol + water + 1-butyl-3-methylimidazolium tetrafluoroborate; phases: Gas, Liquid
Fixed: Pressure, kPa = 100
Property: Mole fraction of propan-2-ol (Gas); method: ebulliometer
Mass fraction of 1-butyl-3-methylimidazolium tetrafluoroborate	Temperature, K	Mole fraction of propan-2-ol	uncertainty
0.3	354.22	0.6812	0.0377
0.3	354.23	0.7262	0.0781
0.3	354.34	0.7796	0.0429
0.3	354.48	0.6379	0.0334
0.3	354.62	0.8334	0.0625
0.3	354.89	0.6224	0.033
0.3	354.95	0.8899	0.0337
0.3	355.14	0.9146	0.0854
0.3	355.38	0.9495	0.0327
0.3	355.55	0.6094	0.0397
0.3	355.7	0.99753	0.00247
0.3	356.63	0.5929	0.032
0.3	358.49	0.5561	0.0109
0.5	355.18	0.7339	0.0695
0.5	355.29	0.7864	0.0575
0.5	355.38	0.6916	0.1656
0.5	355.62	0.872	0.0952
0.5	355.82	0.6511	0.0741
0.5	355.92	0.9305	0.039
0.5	356.23	0.9799	0.0201
0.5	356.29	0.99748	0.00252
0.5	356.39	0.6278	0.0401
0.5	357.46	0.6077	0.0111
0.5	360.27	0.5606	0.0107
0.7	358.31	0.8016	0.1191
0.7	358.35	0.8574	0.0839
0.7	358.42	0.7385	0.2274
0.7	358.53	0.9205	0.0795
0.7	358.62	0.9602	0.0398
0.7	358.65	0.9761	0.0239
0.7	358.72	0.99703	0.00297
0.7	358.74	0.6822	0.0177
0.7	359.85	0.6282	0.0147
0.7	360.43	0.5957	0.0129
0.7	361.97	0.5447	0.0115
0.7	364.57	0.4897	0.0113
0.7	366.6	0.4231	0.0103

System: propan-2-ol + water + 1-butyl-3-methylimidazolium tetrafluoroborate; phases: Liquid, Gas
Fixed: Pressure, kPa = 100
Property: Mole fraction of water (Liquid); method: ebulliometer
Mass fraction of 1-butyl-3-methylimidazolium tetrafluoroborate	Temperature, K	Mole fraction of water	uncertainty
0.3	354.22	0.4164	0.0803
0.3	354.23	0.323	0.1656
0.3	354.34	0.2403	0.0612
0.3	354.48	0.5111	0.0896
0.3	354.62	0.1626	0.1444
0.3	354.89	0.6042	0.0323
0.3	354.95	0.1028	0.035
0.3	355.14	0.0748	0.0748
0.3	355.38	0.0418	0.0286
0.3	355.55	0.6963	0.0864
0.3	355.7	0.00177	0.00177
0.3	356.63	0.7793	0.0589
0.3	358.49	0.8525	0.0097
0.5	355.18	0.2998	0.0893
0.5	355.29	0.2159	0.0631
0.5	355.38	0.3966	0.2522
0.5	355.62	0.1215	0.1215
0.5	355.82	0.4926	0.0963
0.5	355.92	0.0661	0.0372
0.5	356.23	0.0183	0.0183
0.5	356.29	0.00231	0.00231
0.5	356.39	0.5842	0.0764
0.5	357.46	0.6813	0.014
0.5	360.27	0.7782	0.009
0.7	358.31	0.2362	0.1508
0.7	358.35	0.1604	0.096
0.7	358.42	0.3165	0.2787
0.7	358.53	0.0855	0.0855
0.7	358.62	0.0427	0.0427
0.7	358.65	0.0252	0.0252
0.7	358.72	0.00316	0.00316
0.7	358.74	0.4015	0.0236
0.7	359.85	0.4821	0.0194
0.7	360.43	0.5483	0.0153
0.7	361.97	0.6271	0.0097
0.7	364.57	0.7046	0.0077
0.7	366.6	0.7479	0.0068
