Measured thermophysical data. Viscosity of Aqueous Electrolyte Solutions at High Temperatures and High Pressures. Viscosity B-coefficient. Sodium Iodide
Source: J. Chem. Eng. Data, 2006, 10.1021/je060124c
Compound 1: water, H2O, InChI=1S/H2O/h1H2
Compound 2: lithium chloride, ClLi, InChI=1S/ClH.Li/h1H;/q;+1/p-1

System: water; phases: Liquid
Property: Viscosity, Pa*s (Liquid); method: Capillary tube (Ostwald; Ubbelohde) method
Pressure, kPa	Temperature, K	Viscosity, Pa*s	uncertainty
10000	296.56	0.0009188	2.73e-05
10000	337.85	0.0004362	1.3e-05
10000	369.15	0.000296	8.9e-06
10000	398.75	0.0002229	6.7e-06
10000	436.34	0.000168	5.1e-06
10000	482.43	0.0001308	4e-06
10000	521.56	0.0001089	3.4e-06
10000	580.74	8.38e-05	2.7e-06
30000	296.56	0.0009185	2.73e-05
30000	337.85	0.0004437	1.33e-05
30000	369.15	0.0003028	9.1e-06
30000	398.75	0.0002295	6.9e-06
30000	436.34	0.0001743	5.3e-06
30000	482.43	0.0001341	4.1e-06
30000	521.56	0.0001143	3.6e-06
30000	580.74	9.53e-05	3e-06

System: lithium chloride + water; phases: Liquid
Property: Viscosity, Pa*s (Liquid); method: Capillary tube (Ostwald; Ubbelohde) method
Molality, mol/kg of lithium chloride	Pressure, kPa	Temperature, K	Viscosity, Pa*s	uncertainty
0.0473	100	298.15	0.0008971	2.67e-05
0.0473	100	323.15	0.0005513	1.64e-05
0.0473	100	348.15	0.000381	1.14e-05
0.0473	100	372.33	0.0002867	8.6e-06
0.0473	10000	298.15	0.0008975	2.67e-05
0.0473	10000	323.15	0.0005535	1.65e-05
0.0473	10000	348.15	0.0003839	1.15e-05
0.0473	10000	372.33	0.0002894	8.7e-06
0.0473	10000	398.95	0.0002258	6.8e-06
0.0473	10000	424.52	0.0001848	5.6e-06
0.0473	10000	449.16	0.0001575	4.8e-06
0.0473	10000	474.25	0.000137	4.2e-06
0.0473	10000	497.83	0.000122	3.8e-06
0.0473	10000	522.35	0.0001093	3.4e-06
0.0473	10000	549.25	9.74e-05	3.1e-06
0.0473	10000	574.1	8.71e-05	2.8e-06
0.0473	20000	298.15	0.000898	2.67e-05
0.0473	20000	323.15	0.0005551	1.65e-05
0.0473	20000	348.15	0.000387	1.16e-05
0.0473	20000	372.33	0.0002921	8.8e-06
0.0473	20000	398.95	0.000228	6.9e-06
0.0473	20000	424.52	0.0001879	5.7e-06
0.0473	20000	449.16	0.00016	4.9e-06
0.0473	20000	474.25	0.0001394	4.3e-06
0.0473	20000	497.83	0.0001245	3.9e-06
0.0473	20000	522.35	0.0001125	3.5e-06
0.0473	20000	549.25	0.0001009	3.2e-06
0.0473	20000	574.1	9.07e-05	2.9e-06
0.0473	40000	298.15	0.000899	2.67e-05
0.0473	40000	323.15	0.0005594	1.67e-05
0.0473	40000	348.15	0.000392	1.17e-05
0.0473	40000	372.33	0.0002975	8.9e-06
0.0473	40000	398.95	0.0002335	7.1e-06
0.0473	40000	424.52	0.0001928	5.9e-06
0.0473	40000	449.16	0.0001655	5.1e-06
0.0473	40000	474.25	0.0001441	4.4e-06
0.0473	40000	497.83	0.0001291	4e-06
0.0473	40000	522.35	0.0001168	3.6e-06
0.0473	40000	549.25	0.000106	3.3e-06
0.0473	40000	574.1	9.66e-05	3.1e-06
0.1185	100	298.15	0.000907	2.69e-05
0.1185	100	323.15	0.0005573	1.66e-05
0.1185	100	348.15	0.0003851	1.15e-05
0.1185	100	372.06	0.0002906	8.7e-06
0.1185	10000	298.15	0.0009075	2.7e-05
0.1185	10000	323.15	0.0005599	1.67e-05
0.1185	10000	348.15	0.000388	1.16e-05
0.1185	10000	372.06	0.0002912	8.8e-06
0.1185	10000	399.74	0.0002261	6.8e-06
0.1185	10000	421.03	0.0001915	5.8e-06
0.1185	10000	448.75	0.0001599	4.9e-06
0.1185	10000	472.03	0.0001403	4.3e-06
0.1185	10000	498.45	0.0001233	3.8e-06
0.1185	10000	521.37	0.000111	3.5e-06
0.1185	10000	547.5	9.93e-05	3.1e-06
0.1185	10000	573.1	8.85e-05	2.8e-06
0.1185	20000	298.15	0.000908	2.7e-05
0.1185	20000	323.15	0.0005618	1.67e-05
0.1185	20000	348.15	0.000391	1.17e-05
0.1185	20000	372.06	0.0002961	8.9e-06
0.1185	20000	399.74	0.0002292	6.9e-06
0.1185	20000	421.03	0.0001941	5.9e-06
0.1185	20000	448.75	0.0001628	5e-06
0.1185	20000	472.03	0.000143	4.4e-06
0.1185	20000	498.45	0.0001256	3.9e-06
0.1185	20000	521.37	0.0001137	3.6e-06
0.1185	20000	547.5	0.0001018	3.2e-06
0.1185	20000	573.1	9.22e-05	2.9e-06
0.1185	40000	298.15	0.000909	2.7e-05
0.1185	40000	323.15	0.0005665	1.69e-05
0.1185	40000	348.15	0.0003968	1.19e-05
0.1185	40000	372.06	0.0003015	9.1e-06
0.1185	40000	399.74	0.0002339	7.1e-06
0.1185	40000	421.03	0.000199	6e-06
0.1185	40000	448.75	0.0001675	5.1e-06
0.1185	40000	472.03	0.0001477	4.5e-06
0.1185	40000	498.45	0.0001303	4e-06
0.1185	40000	521.37	0.0001187	3.7e-06
0.1185	40000	547.5	0.0001076	3.4e-06
0.1185	40000	573.1	9.82e-05	3.1e-06
0.4814	100	298.15	0.0009559	2.84e-05
0.4814	100	323.15	0.0005884	1.75e-05
0.4814	100	348.15	0.0004072	1.22e-05
0.4814	100	371.43	0.0003099	9.3e-06
0.4814	10000	298.15	0.0009562	2.84e-05
0.4814	10000	323.15	0.0005905	1.76e-05
0.4814	10000	348.15	0.0004099	1.23e-05
0.4814	10000	371.43	0.000313	9.4e-06
0.4814	10000	399.75	0.00024	7.2e-06
0.4814	10000	420.32	0.0002047	6.2e-06
0.4814	10000	450.74	0.0001681	5.1e-06
0.4814	10000	473.7	0.0001482	4.6e-06
0.4814	10000	497.3	0.0001323	4.1e-06
0.4814	10000	521.42	0.000119	3.7e-06
0.4814	10000	548.75	0.000106	3.3e-06
0.4814	10000	574.03	9.47e-05	3e-06
0.4814	20000	298.15	0.000957	2.84e-05
0.4814	20000	323.15	0.0005927	1.77e-05
0.4814	20000	348.15	0.0004128	1.23e-05
0.4814	20000	371.43	0.0003159	9.5e-06
0.4814	20000	399.75	0.000243	7.3e-06
0.4814	20000	420.32	0.0002074	6.3e-06
0.4814	20000	450.74	0.0001707	5.2e-06
0.4814	20000	473.7	0.0001509	4.6e-06
0.4814	20000	497.3	0.000135	4.2e-06
0.4814	20000	521.42	0.0001219	3.8e-06
0.4814	20000	548.75	0.0001091	3.4e-06
0.4814	20000	574.03	9.86e-05	3.1e-06
0.4814	40000	298.15	0.000958	2.85e-05
0.4814	40000	323.15	0.0005974	1.78e-05
0.4814	40000	348.15	0.0004189	1.25e-05
0.4814	40000	371.43	0.0003217	9.7e-06
0.4814	40000	399.75	0.0002483	7.5e-06
0.4814	40000	420.32	0.0002127	6.4e-06
0.4814	40000	450.74	0.0001758	5.4e-06
0.4814	40000	473.7	0.0001559	4.8e-06
0.4814	40000	497.3	0.0001401	4.3e-06
0.4814	40000	521.42	0.0001271	3.9e-06
0.4814	40000	548.75	0.0001148	3.6e-06
0.4814	40000	574.03	0.0001051	3.3e-06
1.2415	100	298.15	0.0010619	3.15e-05
1.2415	100	323.15	0.0006546	1.95e-05
1.2415	100	348.15	0.0004536	1.35e-05
1.2415	100	371.25	0.0003462	1.04e-05
1.2415	10000	298.15	0.001062	3.15e-05
1.2415	10000	323.15	0.000657	1.96e-05
1.2415	10000	348.15	0.0004575	1.37e-05
1.2415	10000	371.25	0.0003496	1.05e-05
1.2415	10000	400.25	0.0002663	8e-06
1.2415	10000	422.4	0.0002248	6.8e-06
1.2415	10000	450.7	0.0001876	5.7e-06
1.2415	10000	470.42	0.0001686	5.2e-06
1.2415	10000	494.2	0.0001501	4.6e-06
1.2415	10000	520.61	0.0001336	4.1e-06
1.2415	10000	545.92	0.0001203	3.7e-06
1.2415	10000	574.21	0.0001064	3.3e-06
1.2415	20000	298.15	0.0010625	3.15e-05
1.2415	20000	323.15	0.00066	1.96e-05
1.2415	20000	348.15	0.000462	1.38e-05
1.2415	20000	371.25	0.000353	1.06e-05
1.2415	20000	400.25	0.0002696	8.1e-06
1.2415	20000	422.4	0.0002281	6.9e-06
1.2415	20000	450.7	0.0001908	5.8e-06
1.2415	20000	470.42	0.0001717	5.2e-06
1.2415	20000	494.2	0.0001532	4.7e-06
1.2415	20000	520.61	0.000137	4.2e-06
1.2415	20000	545.92	0.000124	3.8e-06
1.2415	20000	574.21	0.000111	3.5e-06
1.2415	40000	298.15	0.0010625	3.15e-05
1.2415	40000	323.15	0.00066	1.96e-05
1.2415	40000	348.15	0.000462	1.38e-05
1.2415	40000	371.25	0.000353	1.06e-05
1.2415	40000	400.25	0.0002696	8.1e-06
1.2415	40000	422.4	0.0002281	6.9e-06
1.2415	40000	450.7	0.0001908	5.8e-06
1.2415	40000	470.42	0.0001717	5.2e-06
1.2415	40000	494.2	0.0001532	4.7e-06
1.2415	40000	520.61	0.000137	4.2e-06
1.2415	40000	545.92	0.000124	3.8e-06
1.2415	40000	574.21	0.000111	3.5e-06
2.621	100	298.15	0.0012888	3.82e-05
2.621	100	323.15	0.0007967	2.37e-05
2.621	100	348.15	0.0005541	1.65e-05
2.621	100	370.2	0.000428	1.28e-05
2.621	10000	298.15	0.0012895	3.82e-05
2.621	10000	323.15	0.0008	2.38e-05
2.621	10000	348.15	0.0005583	1.66e-05
2.621	10000	370.2	0.0004328	1.29e-05
2.621	10000	399.72	0.0003286	9.9e-06
2.621	10000	425.84	0.0002701	8.1e-06
2.621	10000	452.54	0.0002292	6.9e-06
2.621	10000	476.22	0.0002026	6.1e-06
2.621	10000	497.12	0.0001843	5.6e-06
2.621	10000	522.42	0.0001665	5.1e-06
2.621	10000	550.4	0.0001487	4.6e-06
2.621	10000	573.86	0.0001352	4.2e-06
2.621	20000	298.15	0.001291	3.83e-05
2.621	20000	323.15	0.0008028	2.39e-05
2.621	20000	348.15	0.0005621	1.68e-05
2.621	20000	370.2	0.0004367	1.31e-05
2.621	20000	399.72	0.0003327	1e-05
2.621	20000	425.84	0.0002739	8.2e-06
2.621	20000	452.54	0.0002329	7e-06
2.621	20000	476.22	0.0002064	6.3e-06
2.621	20000	497.12	0.000188	5.7e-06
2.621	20000	522.42	0.0001706	5.2e-06
2.621	20000	550.4	0.0001533	4.7e-06
2.621	20000	573.86	0.0001409	4.3e-06
2.621	40000	298.15	0.001292	3.83e-05
2.621	40000	323.15	0.0008094	2.41e-05
2.621	40000	348.15	0.0005704	1.7e-05
2.621	40000	370.2	0.0004449	1.33e-05
2.621	40000	399.72	0.0003409	1.02e-05
2.621	40000	425.84	0.0002812	8.5e-06
2.621	40000	452.54	0.0002399	7.2e-06
2.621	40000	476.22	0.0002135	6.5e-06
2.621	40000	497.12	0.0001951	5.9e-06
2.621	40000	522.42	0.0001781	5.4e-06
2.621	40000	550.4	0.0001615	4.9e-06
2.621	40000	573.86	0.0001502	4.6e-06
5.897	100	298.15	0.001925	5.7e-05
5.897	100	323.15	0.0012057	3.58e-05
5.897	100	348.15	0.0008423	2.5e-05
5.897	100	370.7	0.0006536	1.95e-05
5.897	10000	298.15	0.0019258	5.71e-05
5.897	10000	323.15	0.0012102	3.59e-05
5.897	10000	348.15	0.0008484	2.52e-05
5.897	10000	370.7	0.0006594	1.96e-05
5.897	10000	397.2	0.0005175	1.54e-05
5.897	10000	421.96	0.0004291	1.28e-05
5.897	10000	447.18	0.0003666	1.1e-05
5.897	10000	471.5	0.000322	9.7e-06
5.897	10000	499.3	0.000282	8.5e-06
5.897	10000	524.86	0.0002531	7.6e-06
5.897	10000	549.32	0.0002338	7.1e-06
5.897	10000	573.7	0.0002138	6.5e-06
5.897	20000	298.15	0.0019265	5.71e-05
5.897	20000	323.15	0.0012146	3.6e-05
5.897	20000	348.15	0.0008546	2.54e-05
5.897	20000	370.7	0.000666	1.98e-05
5.897	20000	397.2	0.0005233	1.56e-05
5.897	20000	421.96	0.000435	1.3e-05
5.897	20000	447.18	0.0003725	1.12e-05
5.897	20000	471.5	0.0003277	9.8e-06
5.897	20000	499.3	0.000288	8.7e-06
5.897	20000	524.86	0.00026	7.8e-06
5.897	20000	549.32	0.0002411	7.3e-06
5.897	20000	573.7	0.0002229	6.7e-06
5.897	40000	298.15	0.001928	5.71e-05
5.897	40000	323.15	0.0012239	3.63e-05
5.897	40000	348.15	0.0008667	2.58e-05
5.897	40000	370.7	0.0006781	2.02e-05
5.897	40000	397.2	0.0005352	1.6e-05
5.897	40000	421.96	0.0004463	1.33e-05
5.897	40000	447.18	0.000384	1.15e-05
5.897	40000	471.5	0.0003385	1.02e-05
5.897	40000	499.3	0.0002988	9e-06
5.897	40000	524.86	0.0002718	8.2e-06
5.897	40000	549.32	0.0002537	7.7e-06
5.897	40000	573.7	0.000239	7.2e-06
7.863	100	298.15	0.0025347	7.5e-05
7.863	100	323.15	0.0015764	4.67e-05
7.863	100	348.15	0.0011017	3.27e-05
7.863	100	370.4	0.0008587	2.55e-05
7.863	10000	298.15	0.0025356	7.51e-05
7.863	10000	323.15	0.0015816	4.69e-05
7.863	10000	348.15	0.0011093	3.29e-05
7.863	10000	370.4	0.000867	2.58e-05
7.863	10000	399.31	0.0006675	1.99e-05
7.863	10000	424.51	0.0005562	1.66e-05
7.863	10000	449.82	0.0004786	1.43e-05
7.863	10000	472.3	0.0004267	1.28e-05
7.863	10000	497.3	0.0003824	1.14e-05
7.863	10000	520.7	0.0003496	1.05e-05
7.863	20000	298.15	0.002537	7.51e-05
7.863	20000	323.15	0.0015878	4.71e-05
7.863	20000	348.15	0.0011173	3.32e-05
7.863	20000	370.4	0.0008747	2.6e-05
7.863	20000	399.31	0.0006758	2.01e-05
7.863	20000	424.51	0.000564	1.68e-05
7.863	20000	449.82	0.0004862	1.45e-05
7.863	20000	472.3	0.0004344	1.3e-05
7.863	20000	497.3	0.0003901	1.17e-05
7.863	20000	520.7	0.000358	1.07e-05
7.863	40000	298.15	0.002538	7.51e-05
7.863	40000	323.15	0.001601	4.75e-05
7.863	40000	348.15	0.0011334	3.36e-05
7.863	40000	370.4	0.0008907	2.65e-05
7.863	40000	399.31	0.0006916	2.06e-05
7.863	40000	424.51	0.0005785	1.72e-05
7.863	40000	449.82	0.0005006	1.49e-05
7.863	40000	472.3	0.0004487	1.34e-05
7.863	40000	497.3	0.0004047	1.21e-05
7.863	40000	520.7	0.0003733	1.12e-05
10.1097	100	298.15	0.0034265	0.0001014
10.1097	100	323.15	0.0021161	6.27e-05
10.1097	100	348.15	0.0014655	4.35e-05
10.1097	100	370.45	0.0011273	3.35e-05
10.1097	10000	298.15	0.0034269	0.0001014
10.1097	10000	323.15	0.0021231	6.29e-05
10.1097	10000	348.15	0.0014756	4.38e-05
10.1097	10000	370.45	0.0011379	3.38e-05
10.1097	10000	397.6	0.0008792	2.61e-05
10.1097	10000	422.51	0.0007257	2.16e-05
10.1097	10000	448.7	0.0006126	1.82e-05
10.1097	10000	473.8	0.0005335	1.59e-05
10.1097	10000	499.52	0.0004719	1.41e-05
10.1097	10000	522.94	0.0004262	1.27e-05
10.1097	20000	298.15	0.0034275	0.0001014
10.1097	20000	323.15	0.0021307	6.31e-05
10.1097	20000	348.15	0.0014866	4.41e-05
10.1097	20000	370.45	0.0011484	3.41e-05
10.1097	20000	397.6	0.0008897	2.64e-05
10.1097	20000	422.51	0.0007354	2.19e-05
10.1097	20000	448.7	0.000622	1.85e-05
10.1097	20000	473.8	0.000543	1.62e-05
10.1097	20000	499.52	0.0004813	1.44e-05
10.1097	20000	522.94	0.0004365	1.3e-05
10.1097	40000	298.15	0.003429	0.0001015
10.1097	40000	323.15	0.0021471	6.36e-05
10.1097	40000	348.15	0.0015074	4.47e-05
10.1097	40000	370.45	0.001169	3.47e-05
10.1097	40000	397.6	0.0009092	2.7e-05
10.1097	40000	422.51	0.0007544	2.24e-05
10.1097	40000	448.7	0.0006415	1.91e-05
10.1097	40000	473.8	0.000562	1.68e-05
10.1097	40000	499.52	0.0005	1.49e-05
10.1097	40000	522.94	0.0004263	1.27e-05
12.702	100	298.15	0.005414	0.00016
12.702	100	323.15	0.003121	9.24e-05
12.702	100	348.15	0.0020755	6.15e-05
12.702	100	370.55	0.00153	4.54e-05
12.702	10000	298.15	0.005416	0.0001601
12.702	10000	323.15	0.0031314	9.27e-05
12.702	10000	348.15	0.0020897	6.19e-05
12.702	10000	370.55	0.0015442	4.58e-05
12.702	10000	397.25	0.0011617	3.45e-05
12.702	10000	423.8	0.0009216	2.74e-05
12.702	10000	446.9	0.0007773	2.31e-05
12.702	10000	472.52	0.0006626	1.97e-05
12.702	10000	499.82	0.0005736	1.71e-05
12.702	10000	523.03	0.0005136	1.53e-05
12.702	10000	548.9	0.0004554	1.36e-05
12.702	10000	573.81	0.0004053	1.21e-05
12.702	20000	298.15	0.0054178	0.0001601
12.702	20000	323.15	0.0031431	9.3e-05
12.702	20000	348.15	0.002104	6.23e-05
12.702	20000	370.55	0.0015591	4.62e-05
12.702	20000	397.25	0.0011749	3.49e-05
12.702	20000	423.8	0.0009345	2.78e-05
12.702	20000	446.9	0.0007897	2.35e-05
12.702	20000	472.52	0.0006742	2.01e-05
12.702	20000	499.82	0.0005853	1.74e-05
12.702	20000	523.03	0.0005262	1.57e-05
12.702	20000	548.9	0.0004693	1.4e-05
12.702	20000	573.81	0.000422	1.26e-05
12.702	40000	298.15	0.00542	0.0001602
12.702	40000	323.15	0.0031673	9.37e-05
12.702	40000	348.15	0.0021337	6.32e-05
12.702	40000	370.55	0.0015867	4.7e-05
12.702	40000	397.25	0.0012015	3.57e-05
12.702	40000	423.8	0.0009595	2.85e-05
12.702	40000	446.9	0.0008123	2.41e-05
12.702	40000	472.52	0.0006964	2.07e-05
12.702	40000	499.82	0.0006075	1.81e-05
12.702	40000	523.03	0.0005488	1.64e-05
12.702	40000	548.9	0.000494	1.47e-05
12.702	40000	573.81	0.000449	1.34e-05
16.393	100	298.15	0.0094402	0.0002782
16.393	100	323.15	0.0051727	0.0001529
16.393	100	348.15	0.0032932	9.75e-05
16.393	100	372.4	0.0023078	6.83e-05
16.393	10000	298.15	0.009443	0.0002783
16.393	10000	323.15	0.0051903	0.0001535
16.393	10000	348.15	0.0033162	9.81e-05
16.393	10000	372.4	0.0023292	6.9e-05
16.393	10000	399.2	0.00171	5.07e-05
16.393	10000	424.5	0.001333	3.95e-05
16.393	10000	449.75	0.0010911	3.24e-05
16.393	10000	471.52	0.0009346	2.78e-05
16.393	10000	497.2	0.000807	2.4e-05
16.393	10000	523.82	0.0007062	2.1e-05
16.393	10000	547.82	0.0006309	1.88e-05
16.393	10000	574.23	0.000555	1.65e-05
16.393	20000	298.15	0.009449	0.0002785
16.393	20000	323.15	0.0052088	0.000154
16.393	20000	348.15	0.0033389	9.88e-05
16.393	20000	372.4	0.0023511	6.96e-05
16.393	20000	399.2	0.0017298	5.13e-05
16.393	20000	424.5	0.0013513	4.01e-05
16.393	20000	449.75	0.0011077	3.29e-05
16.393	20000	471.52	0.000951	2.82e-05
16.393	20000	497.2	0.0008237	2.45e-05
16.393	20000	523.82	0.000722	2.15e-05
16.393	20000	547.82	0.000648	1.93e-05
16.393	20000	574.23	0.000576	1.72e-05
16.393	40000	298.15	0.009451	0.0002785
16.393	40000	323.15	0.005249	0.0001552
16.393	40000	348.15	0.0033856	0.0001002
16.393	40000	372.4	0.0023942	7.09e-05
16.393	40000	399.2	0.0017691	5.24e-05
16.393	40000	424.5	0.0013863	4.11e-05
16.393	40000	449.75	0.001141	3.39e-05
16.393	40000	471.52	0.000982	2.92e-05
16.393	40000	497.2	0.0008543	2.54e-05
16.393	40000	523.82	0.000754	2.24e-05
16.393	40000	547.82	0.000682	2.03e-05
16.393	40000	574.23	0.000615	1.83e-05
