Measured thermophysical data. Densities and Excess Molar Volumes for Binary Glycerol + 1-Propanol, + 2-Propanol, + 1,2-Propanediol, and + 1,3-Propanediol Mixtures at Different Temperatures
Source: J. Chem. Eng. Data, 2007, 10.1021/je060496l
Compound 1: glycerol, C3H8O3, InChI=1S/C3H8O3/c4-1-3(6)2-5/h3-6H,1-2H2
Compound 2: propan-1-ol, C3H8O, InChI=1S/C3H8O/c1-2-3-4/h4H,2-3H2,1H3
Compound 3: propan-2-ol, C3H8O, InChI=1S/C3H8O/c1-3(2)4/h3-4H,1-2H3
Compound 4: 1,2-propanediol, C3H8O2, InChI=1S/C3H8O2/c1-3(5)2-4/h3-5H,2H2,1H3
Compound 5: propan-1,3-diol, C3H8O2, InChI=1S/C3H8O2/c4-2-1-3-5/h4-5H,1-3H2

System: glycerol; phases: Liquid
Fixed: Pressure, kPa = 101
Property: Mass density, kg/m3 (Liquid); method: PYCNOM:UFactor:6
Temperature, K	Mass density, kg/m3	uncertainty
298.15	1258.9	2
303.15	1255.6	2
308.15	1252.7	2.1
313.15	1249.5	2.1
318.15	1246.2	2.2
323.15	1242.9	2.3
328.15	1239.6	2.3
333.15	1236	2.4

System: propan-1-ol; phases: Liquid
Fixed: Pressure, kPa = 101
Property: Mass density, kg/m3 (Liquid); method: PYCNOM::UFactor:6
Temperature, K	Mass density, kg/m3	uncertainty
298.15	799.6	1.2
303.15	795.5	1.2
308.15	791.5	1.3
313.15	787.3	1.3
318.15	783.3	1.4
323.15	779	1.4
328.15	774.9	1.5
333.15	770.8	1.6

System: propan-2-ol; phases: Liquid
Fixed: Pressure, kPa = 101
Property: Mass density, kg/m3 (Liquid); method: PYCNOM::UFactor:6
Temperature, K	Mass density, kg/m3	uncertainty
298.15	780.6	1.2
303.15	776.6	1.2
308.15	772.3	1.3
313.15	767.9	1.3
318.15	763.3	1.3
323.15	758.6	1.4
328.15	753.8	1.4
333.15	748.9	1.5

System: 1,2-propanediol; phases: Liquid
Fixed: Pressure, kPa = 101
Property: Mass density, kg/m3 (Liquid); method: PYCNOM::UFactor:6
Temperature, K	Mass density, kg/m3	uncertainty
298.15	1032.5	1.6
303.15	1029.2	1.6
308.15	1025.3	1.7
313.15	1021.5	1.8
318.15	1018	1.8
323.15	1014	1.9
328.15	1010.2	1.9
333.15	1006.2	2

System: propan-1,3-diol; phases: Liquid
Fixed: Pressure, kPa = 101
Property: Mass density, kg/m3 (Liquid); method: PYCNOM::UFactor:6
Temperature, K	Mass density, kg/m3	uncertainty
298.15	1049.9	1.6
303.15	1047	1.7
308.15	1044.1	1.8
313.15	1040.8	1.8
318.15	1037.8	1.9
323.15	1034.8	2
328.15	1031.4	2
333.15	1028.2	2.1

System: glycerol + propan-1-ol; phases: Liquid
Fixed: Pressure, kPa = 101
Property: Mass density, kg/m3 (Liquid); method: PYCNOM:UFactor:6
Temperature, K	Mole fraction of glycerol	Mass density, kg/m3	uncertainty
298.15	0	799.6	1.2
298.15	0.0676	832.8	1.2
298.15	0.1402	867.3	1.3
298.15	0.2185	903.5	1.3
298.15	0.3031	942.9	1.4
298.15	0.3949	986	1.5
298.15	0.4946	1032.7	1.6
298.15	0.6036	1083.1	1.6
298.15	0.723	1138.8	1.7
298.15	0.8545	1198.7	1.8
298.15	1	1258.9	2
303.15	0	795.5	1.2
303.15	0.0676	828.9	1.3
303.15	0.1402	863.2	1.3
303.15	0.2185	900	1.4
303.15	0.3031	939.3	1.5
303.15	0.3949	982.1	1.5
303.15	0.4946	1029.5	1.6
303.15	0.6036	1079.9	1.7
303.15	0.723	1135.7	1.8
303.15	0.8545	1195.6	1.9
303.15	1	1255.6	2
308.15	0	791.5	1.3
308.15	0.0676	825	1.3
308.15	0.1402	859.4	1.4
308.15	0.2185	896	1.5
308.15	0.3031	935.6	1.5
308.15	0.3949	978.4	1.6
308.15	0.4946	1025.9	1.7
308.15	0.6036	1076.3	1.8
308.15	0.723	1132.4	1.9
308.15	0.8545	1192.7	2
308.15	1	1252.7	2.1
313.15	0	787.3	1.3
313.15	0.0676	820.7	1.4
313.15	0.1402	855.4	1.4
313.15	0.2185	892.1	1.5
313.15	0.3031	931.5	1.6
313.15	0.3949	974.7	1.7
313.15	0.4946	1022.3	1.8
313.15	0.6036	1072.7	1.8
313.15	0.723	1128.8	1.9
313.15	0.8545	1189.5	2
313.15	1	1249.5	2.1
318.15	0	783.3	1.4
318.15	0.0676	816.8	1.4
318.15	0.1402	851.3	1.5
318.15	0.2185	888.3	1.6
318.15	0.3031	927.7	1.6
318.15	0.3949	970.8	1.7
318.15	0.4946	1018.4	1.8
318.15	0.6036	1069.2	1.9
318.15	0.723	1125.5	2
318.15	0.8545	1186.1	2.1
318.15	1	1246.2	2.2
323.15	0	779	1.4
323.15	0.0676	812.5	1.5
323.15	0.1402	847.2	1.6
323.15	0.2185	884.1	1.6
323.15	0.3031	923.6	1.7
323.15	0.3949	966.8	1.8
323.15	0.4946	1014.7	1.9
323.15	0.6036	1065.5	2
323.15	0.723	1122	2.1
323.15	0.8545	1182.7	2.2
323.15	1	1242.9	2.3
328.15	0	774.9	1.5
328.15	0.0676	808.4	1.6
328.15	0.1402	843.1	1.6
328.15	0.2185	880.3	1.7
328.15	0.3031	919.7	1.8
328.15	0.3949	963.3	1.9
328.15	0.4946	1010.8	1.9
328.15	0.6036	1061.8	2
328.15	0.723	1118.3	2.1
328.15	0.8545	1179.2	2.2
328.15	1	1239.6	2.3
333.15	0	770.8	1.6
333.15	0.0676	804.3	1.6
333.15	0.1402	839.2	1.7
333.15	0.2185	876.3	1.8
333.15	0.3031	915.7	1.8
333.15	0.3949	959.4	1.9
333.15	0.4946	1006.8	2
333.15	0.6036	1058	2.1
333.15	0.723	1114.3	2.2
333.15	0.8545	1175.8	2.3
333.15	1	1236	2.4

System: glycerol + propan-2-ol; phases: Liquid
Fixed: Pressure, kPa = 101
Property: Mass density, kg/m3 (Liquid); method: PYCNOM:UFactor:6
Temperature, K	Mole fraction of glycerol	Mass density, kg/m3	uncertainty
298.15	0	780.6	1.2
298.15	0.0676	813.5	1.2
298.15	0.1402	848.6	1.3
298.15	0.2185	887.5	1.3
298.15	0.3031	929.1	1.4
298.15	0.3949	974.3	1.5
298.15	0.4946	1023.8	1.5
298.15	0.6036	1077	1.6
298.15	0.723	1135.2	1.7
298.15	0.8545	1196.5	1.8
298.15	1	1258.9	2
303.15	0	776.6	1.2
303.15	0.0676	809.5	1.2
303.15	0.1402	844.7	1.3
303.15	0.2185	883.8	1.4
303.15	0.3031	926.4	1.4
303.15	0.3949	970.6	1.5
303.15	0.4946	1020	1.6
303.15	0.6036	1073.4	1.7
303.15	0.723	1131.9	1.8
303.15	0.8545	1193.4	1.9
303.15	1	1255.6	2
308.15	0	772.3	1.3
308.15	0.0676	805.5	1.3
308.15	0.1402	840.5	1.4
308.15	0.2185	879.9	1.4
308.15	0.3031	922.3	1.5
308.15	0.3949	967.3	1.6
308.15	0.4946	1016.2	1.7
308.15	0.6036	1070.4	1.8
308.15	0.723	1128.5	1.9
308.15	0.8545	1190	2
308.15	1	1252.7	2.1
313.15	0	767.9	1.3
313.15	0.0676	801.4	1.4
313.15	0.1402	836.1	1.4
313.15	0.2185	875.9	1.5
313.15	0.3031	918.4	1.5
313.15	0.3949	963.4	1.6
313.15	0.4946	1012.6	1.7
313.15	0.6036	1067	1.8
313.15	0.723	1125	1.9
313.15	0.8545	1186.8	2
313.15	1	1249.5	2.1
318.15	0	763.3	1.3
318.15	0.0676	796.8	1.4
318.15	0.1402	831.9	1.5
318.15	0.2185	871.7	1.5
318.15	0.3031	914.5	1.6
318.15	0.3949	959.2	1.7
318.15	0.4946	1008.7	1.8
318.15	0.6036	1063.1	1.9
318.15	0.723	1121.3	2
318.15	0.8545	1183.2	2.1
318.15	1	1246.2	2.2
323.15	0	758.6	1.4
323.15	0.0676	792.2	1.5
323.15	0.1402	827.6	1.5
323.15	0.2185	867.4	1.6
323.15	0.3031	910.2	1.7
323.15	0.3949	955.3	1.8
323.15	0.4946	1004.8	1.9
323.15	0.6036	1059.6	1.9
323.15	0.723	1117.6	2
323.15	0.8545	1180.3	2.2
323.15	1	1242.9	2.3
328.15	0	753.8	1.4
328.15	0.0676	787.5	1.5
328.15	0.1402	823.3	1.6
328.15	0.2185	863.3	1.6
328.15	0.3031	906.2	1.7
328.15	0.3949	951.3	1.8
328.15	0.4946	1000.9	1.9
328.15	0.6036	1055.7	2
328.15	0.723	1114.1	2.1
328.15	0.8545	1176.6	2.2
328.15	1	1239.6	2.3
333.15	0	748.9	1.5
333.15	0.0676	782.9	1.6
333.15	0.1402	818.4	1.6
333.15	0.2185	858.8	1.7
333.15	0.3031	901.6	1.8
333.15	0.3949	947.5	1.9
333.15	0.4946	997.2	2
333.15	0.6036	1051.9	2.1
333.15	0.723	1110.5	2.2
333.15	0.8545	1173.1	2.3
333.15	1	1236	2.4

System: glycerol + 1,2-propanediol; phases: Liquid
Fixed: Pressure, kPa = 101
Property: Mass density, kg/m3 (Liquid); method: PYCNOM:UFactor:6
Temperature, K	Mole fraction of glycerol	Mass density, kg/m3	uncertainty
298.15	0	1032.5	1.6
298.15	0.0841	1052.6	1.6
298.15	0.1712	1072.7	1.6
298.15	0.2615	1094.1	1.7
298.15	0.3552	1115.8	1.7
298.15	0.4524	1138.3	1.7
298.15	0.5534	1161	1.8
298.15	0.6585	1184.4	1.8
298.15	0.7677	1207.8	1.9
298.15	0.8815	1233.3	1.9
298.15	1	1258.9	2
303.15	0	1029.2	1.6
303.15	0.0841	1049.2	1.7
303.15	0.1712	1069.6	1.7
303.15	0.2615	1090.5	1.7
303.15	0.3552	1112.6	1.8
303.15	0.4524	1134.8	1.8
303.15	0.5534	1157.5	1.8
303.15	0.6585	1181.2	1.9
303.15	0.7677	1205	1.9
303.15	0.8815	1230.1	2
303.15	1	1255.6	2
308.15	0	1025.3	1.7
308.15	0.0841	1045.7	1.7
308.15	0.1712	1066.1	1.8
308.15	0.2615	1087.1	1.8
308.15	0.3552	1109.3	1.8
308.15	0.4524	1131.4	1.9
308.15	0.5534	1154.2	1.9
308.15	0.6585	1178	2
308.15	0.7677	1202.2	2
308.15	0.8815	1227.4	2
308.15	1	1252.7	2.1
313.15	0	1021.5	1.8
313.15	0.0841	1042	1.8
313.15	0.1712	1062.4	1.8
313.15	0.2615	1083.8	1.9
313.15	0.3552	1105.6	1.9
313.15	0.4524	1128.2	1.9
313.15	0.5534	1151.2	2
313.15	0.6585	1175.1	2
313.15	0.7677	1199.2	2.1
313.15	0.8815	1224.4	2.1
313.15	1	1249.5	2.1
318.15	0	1018	1.8
318.15	0.0841	1038.5	1.8
318.15	0.1712	1058.6	1.9
318.15	0.2615	1080.2	1.9
318.15	0.3552	1102.3	2
318.15	0.4524	1124.8	2
318.15	0.5534	1147.9	2
318.15	0.6585	1171.5	2.1
318.15	0.7677	1195.6	2.1
318.15	0.8815	1221	2.2
318.15	1	1246.2	2.2
323.15	0	1014	1.9
323.15	0.0841	1034.7	1.9
323.15	0.1712	1055	1.9
323.15	0.2615	1076.3	2
323.15	0.3552	1098.3	2
323.15	0.4524	1121.2	2.1
323.15	0.5534	1144.1	2.1
323.15	0.6585	1168.1	2.1
323.15	0.7677	1192.5	2.2
323.15	0.8815	1218	2.2
323.15	1	1242.9	2.3
328.15	0	1010.2	1.9
328.15	0.0841	1031	2
328.15	0.1712	1051.4	2
328.15	0.2615	1072.7	2
328.15	0.3552	1094.7	2.1
328.15	0.4524	1117.5	2.1
328.15	0.5534	1140.5	2.2
328.15	0.6585	1164.6	2.2
328.15	0.7677	1189	2.2
328.15	0.8815	1214.7	2.3
328.15	1	1239.6	2.3
333.15	0	1006.2	2
333.15	0.0841	1027.2	2
333.15	0.1712	1047.6	2.1
333.15	0.2615	1069.2	2.1
333.15	0.3552	1091.2	2.1
333.15	0.4524	1114.3	2.2
333.15	0.5534	1137.3	2.2
333.15	0.6585	1161.3	2.3
333.15	0.7677	1185.8	2.3
333.15	0.8815	1211.3	2.4
333.15	1	1236	2.4

System: glycerol + propan-1,3-diol; phases: Liquid
Fixed: Pressure, kPa = 101
Property: Mass density, kg/m3 (Liquid); method: PYCNOM:UFactor:6
Temperature, K	Mole fraction of glycerol	Mass density, kg/m3	uncertainty
298.15	0	1049.9	1.6
298.15	0.0841	1067.8	1.7
298.15	0.1712	1086.4	1.7
298.15	0.2615	1105.7	1.7
298.15	0.3552	1125.6	1.7
298.15	0.4524	1146.4	1.8
298.15	0.5534	1167.6	1.8
298.15	0.6585	1189.3	1.8
298.15	0.7677	1212.6	1.9
298.15	0.8815	1235.2	1.9
298.15	1	1258.9	2
303.15	0	1047	1.7
303.15	0.0841	1065	1.7
303.15	0.1712	1083.5	1.8
303.15	0.2615	1103	1.8
303.15	0.3552	1122.8	1.8
303.15	0.4524	1143.4	1.8
303.15	0.5534	1164.6	1.9
303.15	0.6585	1186.4	1.9
303.15	0.7677	1209	1.9
303.15	0.8815	1232.1	2
303.15	1	1255.6	2
308.15	0	1044.1	1.8
308.15	0.0841	1062	1.8
308.15	0.1712	1080.6	1.8
308.15	0.2615	1100	1.8
308.15	0.3552	1119.8	1.9
308.15	0.4524	1140.6	1.9
308.15	0.5534	1161.8	1.9
308.15	0.6585	1183.5	2
308.15	0.7677	1206.1	2
308.15	0.8815	1229.3	2
308.15	1	1252.7	2.1
313.15	0	1040.8	1.8
313.15	0.0841	1058.8	1.9
313.15	0.1712	1077.5	1.9
313.15	0.2615	1096.9	1.9
313.15	0.3552	1116.8	1.9
313.15	0.4524	1137.3	2
313.15	0.5534	1158.7	2
313.15	0.6585	1180.4	2
313.15	0.7677	1203	2.1
313.15	0.8815	1226.1	2.1
313.15	1	1249.5	2.1
318.15	0	1037.8	1.9
318.15	0.0841	1055.7	1.9
318.15	0.1712	1074.5	1.9
318.15	0.2615	1093.9	2
318.15	0.3552	1113.7	2
318.15	0.4524	1134.3	2
318.15	0.5534	1155.6	2.1
318.15	0.6585	1177.2	2.1
318.15	0.7677	1199.7	2.1
318.15	0.8815	1222.8	2.2
318.15	1	1246.2	2.2
323.15	0	1034.8	2
323.15	0.0841	1052.7	2
323.15	0.1712	1071.4	2
323.15	0.2615	1090.9	2
323.15	0.3552	1110.7	2.1
323.15	0.4524	1131.2	2.1
323.15	0.5534	1152.5	2.1
323.15	0.6585	1174.1	2.2
323.15	0.7677	1196.6	2.2
323.15	0.8815	1219.8	2.2
323.15	1	1242.9	2.3
328.15	0	1031.4	2
328.15	0.0841	1049.3	2
328.15	0.1712	1068.1	2.1
328.15	0.2615	1087.6	2.1
328.15	0.3552	1107.5	2.1
328.15	0.4524	1127.8	2.2
328.15	0.5534	1149.2	2.2
328.15	0.6585	1170.8	2.2
328.15	0.7677	1193.4	2.3
328.15	0.8815	1216.6	2.3
328.15	1	1239.6	2.3
333.15	0	1028.2	2.1
333.15	0.0841	1046.1	2.1
333.15	0.1712	1064.9	2.1
333.15	0.2615	1084.4	2.2
333.15	0.3552	1104.1	2.2
333.15	0.4524	1124.6	2.2
333.15	0.5534	1145.9	2.3
333.15	0.6585	1167.5	2.3
333.15	0.7677	1190	2.3
333.15	0.8815	1213.3	2.4
333.15	1	1236	2.4
