Measured thermophysical data. Phase Equilibrium Properties of Binary and Ternary Mixtures Containing 1,1-Dimethylethyl Methyl Ether, 1-Propanol, and Hexane at T ) 313.15 K
Source: J. Chem. Eng. Data, 2006, 10.1021/je060253t
Compound 1: 2-methoxy-2-methylpropane, C5H12O, InChI=1S/C5H12O/c1-5(2,3)6-4/h1-4H3
Compound 2: propan-1-ol, C3H8O, InChI=1S/C3H8O/c1-2-3-4/h4H,2-3H2,1H3
Compound 3: hexane, C6H14, InChI=1S/C6H14/c1-3-5-6-4-2/h3-6H2,1-2H3

System: 2-methoxy-2-methylpropane; phases: Liquid, Gas
Fixed: Temperature, K = 313.15
Property: Vapor or sublimation pressure, kPa (Liquid); method: Closed cell (Static) method
Vapor or sublimation pressure, kPa	uncertainty
59.924	0.211
59.91	0.211
59.915	0.211

System: propan-1-ol; phases: Liquid, Gas
Fixed: Temperature, K = 313.15
Property: Vapor or sublimation pressure, kPa (Liquid); method: Closed cell (Static) method
Vapor or sublimation pressure, kPa	uncertainty
6.999	0.038
7.007	0.038
7	0.038

System: hexane; phases: Liquid, Gas
Fixed: Temperature, K = 313.15
Property: Vapor or sublimation pressure, kPa (Liquid); method: Closed cell (Static) method
Vapor or sublimation pressure, kPa	uncertainty
37.302	0.137
37.252	0.137

System: propan-1-ol + 2-methoxy-2-methylpropane; phases: Liquid, Gas
Fixed: Temperature, K = 313.15
Property: Vapor or sublimation pressure, kPa (Liquid); method: Closed cell (Static) method
Mole fraction of 2-methoxy-2-methylpropane	Vapor or sublimation pressure, kPa	uncertainty
0	6.999	0.038
0.0123	8.338	0.042
0.0303	10.221	0.048
0.0549	12.722	0.057
0.1015	17.175	0.071
0.1278	19.563	0.079
0.1519	21.603	0.086
0.1945	24.936	0.097
0.2549	29.171	0.11
0.2998	31.976	0.12
0.30661	32.358	0.121
0.348	34.7	0.129
0.3978	37.182	0.137
0.3979	37.243	0.137
0.447	39.487	0.144
0.4495	39.65	0.145
0.4989	41.722	0.152
0.4992	41.771	0.152
0.5486	43.706	0.158
0.5496	43.77	0.158
0.5974	45.548	0.164
0.5978	45.576	0.164
0.649	47.391	0.17
0.69218	48.886	0.175
0.6977	49.087	0.176
0.75	50.861	0.182
0.7985	52.491	0.187
0.8476	54.189	0.192
0.873	55.073	0.195
0.8957	55.901	0.198
0.9477	57.853	0.204
0.977	59.008	0.208
0.9849	59.292	0.209
1	59.924	0.211

System: hexane + 2-methoxy-2-methylpropane; phases: Liquid, Gas
Fixed: Temperature, K = 313.15
Property: Vapor or sublimation pressure, kPa (Liquid); method: Closed cell (Static) method
Mole fraction of 2-methoxy-2-methylpropane	Vapor or sublimation pressure, kPa	uncertainty
0.29473	46.475	0.167
0.69707	55.276	0.196

System: propan-1-ol + hexane; phases: Liquid, Gas
Fixed: Temperature, K = 313.15
Property: Vapor or sublimation pressure, kPa (Liquid); method: Closed cell (Static) method
Mole fraction of propan-1-ol	Vapor or sublimation pressure, kPa	uncertainty
0.30162	39.425	0.144
0.70116	34.772	0.129

System: propan-1-ol + hexane + 2-methoxy-2-methylpropane; phases: Liquid, Gas
Fixed: Temperature, K = 313.15
Property: Vapor or sublimation pressure, kPa (Liquid); method: Closed cell (Static) method
Mole fraction of 2-methoxy-2-methylpropane	Mole fraction of propan-1-ol	Vapor or sublimation pressure, kPa	uncertainty
0	0	37.302	0.137
0	0.30162	39.425	0.144
0	0.70116	34.772	0.129
0	1	7.007	0.038
0.0001	0	37.252	0.137
0.0001	1	7	0.038
0.03106	0.29226	40.003	0.146
0.03319	0.67785	35.395	0.131
0.04966	0.28666	40.346	0.147
0.05747	0.66081	35.905	0.133
0.10284	0.2706	41.382	0.15
0.10745	0.62568	37.028	0.136
0.14748	0.50014	39.888	0.146
0.15314	0.59358	38.096	0.14
0.15351	0.25529	42.376	0.154
0.15492	0.34894	41.798	0.152
0.16202	0.45081	40.75	0.148
0.16955	0.382	41.72	0.152
0.17661	0.40134	41.525	0.151
0.18517	0.41732	41.566	0.151
0.19152	0.35076	42.253	0.153
0.20085	0.45283	41.309	0.15
0.20159	0.55956	39.243	0.143
0.20461	0.23986	43.387	0.157
0.20737	0.29697	42.984	0.156
0.21485	0.48455	40.979	0.149
0.22127	0.24979	43.589	0.158
0.23086	0.52086	40.43	0.147
0.23538	0.20185	44.204	0.16
0.24675	0.55697	39.642	0.145
0.25018	0.15159	44.842	0.162
0.25105	0.52483	40.423	0.147
0.25233	0.22545	44.333	0.16
0.2616	0.59076	38.609	0.141
0.26524	0.10041	45.487	0.164
0.27771	0.62751	37.032	0.136
0.27981	0.05081	46.111	0.166
0.28783	0.02351	46.385	0.167
0.29048	0.6567	35.315	0.131
0.29473	0	46.475	0.167
0.29708	0.67167	34.243	0.127
0.30339	0.48809	41.689	0.151
0.30343	0.21003	45.362	0.164
0.30661	0.69339	32.358	0.121
0.34592	0.15346	46.609	0.168
0.3488	0.49981	41.678	0.151
0.35082	0.45481	42.792	0.155
0.38156	0.16932	47.091	0.169
0.38157	0.45281	43.089	0.156
0.40219	0.41877	44.006	0.159
0.40269	0.18005	47.361	0.17
0.41414	0.18381	47.495	0.171
0.41769	0.401	44.525	0.161
0.44064	0.1686	48.135	0.173
0.44824	0.199	47.886	0.172
0.44858	0.38624	45.108	0.163
0.45239	0.35121	45.825	0.165
0.47415	0.1585	48.811	0.175
0.48341	0.21467	48.238	0.173
0.48739	0.301	47.087	0.169
0.4998	0.35033	46.325	0.167
0.51846	0.23029	48.552	0.174
0.51974	0.25457	48.225	0.173
0.55108	0.24484	48.769	0.175
0.55542	0.20337	49.488	0.177
0.58572	0.2603	48.953	0.175
0.59068	0.15276	50.753	0.181
0.62228	0.1074	51.971	0.185
0.62273	0.27684	49.044	0.176
0.65543	0.29146	49.03	0.176
0.65907	0.05457	53.52	0.19
0.67187	0.29877	48.982	0.175
0.67538	0.03116	54.257	0.193
0.69218	0.30782	48.886	0.175
0.69707	0	55.276	0.196
1	0	59.91	0.211
1	0	59.915	0.211
