Measured thermophysical data. Densities and Viscosities of the Binary Mixtures of Tetrahydrofuran with Isomeric Chlorobutanes at 298.15 K and 313.15 K
Source: J. Chem. Eng. Data, 2006, 10.1021/je0600653
Compound 1: tetrahydrofuran, C4H8O, InChI=1S/C4H8O/c1-2-4-5-3-1/h1-4H2
Compound 2: 1-chlorobutane, C4H9Cl, InChI=1S/C4H9Cl/c1-2-3-4-5/h2-4H2,1H3
Compound 3: 2-chlorobutane, C4H9Cl, InChI=1S/C4H9Cl/c1-3-4(2)5/h4H,3H2,1-2H3
Compound 4: 1-chloro-2-methylpropane, C4H9Cl, InChI=1S/C4H9Cl/c1-4(2)3-5/h4H,3H2,1-2H3
Compound 5: 2-chloro-2-methylpropane, C4H9Cl, InChI=1S/C4H9Cl/c1-4(2,3)5/h1-3H3

System: tetrahydrofuran; phases: Liquid
Fixed: Pressure, kPa = 101.325
Property: Viscosity, Pa*s (Liquid); method: Capillary tube (Ostwald; Ubbelohde) method
Temperature, K	Viscosity, Pa*s	uncertainty
298.15	0.0004631	5.1e-06
313.15	0.0003979	4.9e-06

System: tetrahydrofuran; phases: Liquid
Fixed: Pressure, kPa = 101.325
Property: Mass density, kg/m3 (Liquid); method: VIBTUB:UFactor:2
Temperature, K	Mass density, kg/m3	uncertainty
298.15	881.95	0.27
313.15	865.36	0.28

System: 1-chlorobutane; phases: Liquid
Fixed: Pressure, kPa = 101.325
Property: Viscosity, Pa*s (Liquid); method: Capillary tube (Ostwald; Ubbelohde) method
Temperature, K	Viscosity, Pa*s	uncertainty
298.15	0.0004212	5e-06
313.15	0.000364	4.8e-06

System: 1-chlorobutane; phases: Liquid
Fixed: Pressure, kPa = 101.325
Property: Mass density, kg/m3 (Liquid); method: VIBTUB:UFactor:2
Temperature, K	Mass density, kg/m3	uncertainty
298.15	880.69	0.27
313.15	863.82	0.28

System: 2-chlorobutane; phases: Liquid
Fixed: Pressure, kPa = 101.325
Property: Viscosity, Pa*s (Liquid); method: Capillary tube (Ostwald; Ubbelohde) method
Temperature, K	Viscosity, Pa*s	uncertainty
298.15	0.0003938	5.2e-06
313.15	0.0003371	4.9e-06

System: 2-chlorobutane; phases: Liquid
Fixed: Pressure, kPa = 101.325
Property: Mass density, kg/m3 (Liquid); method: VIBTUB:UFactor:2
Temperature, K	Mass density, kg/m3	uncertainty
298.15	867.37	0.47
313.15	850.13	0.47

System: 1-chloro-2-methylpropane; phases: Liquid
Fixed: Pressure, kPa = 101.325
Property: Viscosity, Pa*s (Liquid); method: Capillary tube (Ostwald; Ubbelohde) method
Temperature, K	Viscosity, Pa*s	uncertainty
298.15	0.0004295	5.3e-06
313.15	0.0003664	5.1e-06

System: 1-chloro-2-methylpropane; phases: Liquid
Fixed: Pressure, kPa = 101.325
Property: Mass density, kg/m3 (Liquid); method: VIBTUB:UFactor:2
Temperature, K	Mass density, kg/m3	uncertainty
298.15	871.13	0.47
313.15	853.31	0.47

System: 2-chloro-2-methylpropane; phases: Liquid
Fixed: Pressure, kPa = 101.325
Property: Viscosity, Pa*s (Liquid); method: Capillary tube (Ostwald; Ubbelohde) method
Temperature, K	Viscosity, Pa*s	uncertainty
298.15	0.0004751	5.6e-06
313.15	0.0003907	5.2e-06

System: 2-chloro-2-methylpropane; phases: Liquid
Fixed: Pressure, kPa = 101.325
Property: Mass density, kg/m3 (Liquid); method: VIBTUB:UFactor:2
Temperature, K	Mass density, kg/m3	uncertainty
298.15	836.45	0.46
313.15	818.31	0.46

System: 1-chlorobutane + tetrahydrofuran; phases: Liquid
Fixed: Pressure, kPa = 101
Property: Viscosity, Pa*s (Liquid); method: Capillary tube (Ostwald; Ubbelohde) method
Mole fraction of tetrahydrofuran	Temperature, K	Viscosity, Pa*s	uncertainty
0.0524	298.15	0.0004231	5e-06
0.0524	313.15	0.0003656	4.8e-06
0.108	298.15	0.000425	5e-06
0.108	313.15	0.0003675	4.8e-06
0.2063	298.15	0.0004287	5e-06
0.2063	313.15	0.0003706	4.8e-06
0.2991	298.15	0.0004324	5e-06
0.2991	313.15	0.0003737	4.8e-06
0.4088	298.15	0.0004367	5e-06
0.4088	313.15	0.0003772	4.8e-06
0.507	298.15	0.0004408	5.1e-06
0.507	313.15	0.0003804	4.9e-06
0.6074	298.15	0.0004453	5.1e-06
0.6074	313.15	0.0003838	4.9e-06
0.7001	298.15	0.0004495	5.1e-06
0.7001	313.15	0.000387	4.9e-06
0.8054	298.15	0.0004546	5.1e-06
0.8054	313.15	0.0003907	4.9e-06
0.891	298.15	0.0004587	5.1e-06
0.891	313.15	0.0003939	4.9e-06
0.9528	298.15	0.0004613	5.1e-06
0.9528	313.15	0.0003961	4.9e-06

System: 1-chlorobutane + tetrahydrofuran; phases: Liquid
Fixed: Temperature, K = 298.15
Fixed: Pressure, kPa = 101
Property: Mass density, kg/m3 (Liquid); method: VIBTUB:UFactor:2
Mole fraction of tetrahydrofuran	Mass density, kg/m3	uncertainty
0.0405	880.75	0.27
0.1083	880.88	0.27
0.2061	881.13	0.27
0.2987	881.35	0.27
0.4018	881.57	0.27
0.4966	881.74	0.27
0.596	881.86	0.27
0.7018	881.94	0.27
0.7991	881.98	0.27
0.9022	881.98	0.27
0.9489	881.97	0.27

System: 2-chlorobutane + tetrahydrofuran; phases: Liquid
Fixed: Temperature, K = 298.15
Fixed: Pressure, kPa = 101
Property: Viscosity, Pa*s (Liquid); method: Capillary tube (Ostwald; Ubbelohde) method
Mole fraction of tetrahydrofuran	Viscosity, Pa*s	uncertainty
0.0544	0.0003967	5.2e-06
0.111	0.0003999	5.2e-06
0.2078	0.0004057	5.2e-06
0.2947	0.000411	5.2e-06
0.3996	0.0004176	5.1e-06
0.5075	0.0004246	5.1e-06
0.6041	0.0004313	5.1e-06
0.7055	0.0004387	5.1e-06
0.8076	0.0004469	5.1e-06
0.9065	0.0004551	5.1e-06
0.9544	0.0004592	5.1e-06

System: 2-chlorobutane + tetrahydrofuran; phases: Liquid
Fixed: Pressure, kPa = 101
Property: Mass density, kg/m3 (Liquid); method: VIBTUB:UFactor:2
Temperature, K	Mole fraction of tetrahydrofuran	Mass density, kg/m3	uncertainty
298.15	0.0348	867.97	0.46
298.15	0.0902	868.9	0.45
298.15	0.182	870.4	0.43
298.15	0.2532	871.55	0.42
298.15	0.3718	873.44	0.39
298.15	0.4603	874.85	0.38
298.15	0.5819	876.71	0.35
298.15	0.6932	878.3	0.33
298.15	0.7825	879.43	0.31
298.15	0.9161	881.04	0.29
298.15	0.9512	881.38	0.28
313.15	0.0524	851.13	0.46
313.15	0.0985	851.96	0.45
313.15	0.1977	853.67	0.43
313.15	0.2931	855.24	0.41
313.15	0.3996	856.96	0.39
313.15	0.5015	858.57	0.37
313.15	0.6054	860.16	0.35
313.15	0.6994	861.54	0.33
313.15	0.8119	863.09	0.31
313.15	0.9006	864.24	0.29
313.15	0.9563	864.89	0.28

System: tetrahydrofuran + 1-chloro-2-methylpropane; phases: Liquid
Fixed: Pressure, kPa = 101
Property: Viscosity, Pa*s (Liquid); method: Capillary tube (Ostwald; Ubbelohde) method
Mole fraction of tetrahydrofuran	Temperature, K	Viscosity, Pa*s	uncertainty
0.0537	298.15	0.0004311	5.3e-06
0.0537	313.15	0.000368	5.1e-06
0.1037	298.15	0.0004325	5.3e-06
0.1037	313.15	0.0003694	5e-06
0.2081	298.15	0.0004353	5.3e-06
0.2081	313.15	0.0003723	5e-06
0.3079	298.15	0.0004379	5.3e-06
0.3079	313.15	0.0003751	5e-06
0.41	298.15	0.0004409	5.2e-06
0.41	313.15	0.0003781	5e-06
0.5085	298.15	0.0004442	5.2e-06
0.5085	313.15	0.000381	5e-06
0.5964	298.15	0.0004472	5.2e-06
0.5964	313.15	0.0003837	5e-06
0.705	298.15	0.0004512	5.2e-06
0.705	313.15	0.0003871	4.9e-06
0.8051	298.15	0.000455	5.2e-06
0.8051	313.15	0.0003904	4.9e-06
0.8989	298.15	0.0004589	5.1e-06
0.8989	313.15	0.0003938	4.9e-06
0.951	298.15	0.000461	5.1e-06
0.951	313.15	0.0003957	4.9e-06

System: tetrahydrofuran + 1-chloro-2-methylpropane; phases: Liquid
Fixed: Pressure, kPa = 101
Property: Mass density, kg/m3 (Liquid); method: VIBTUB:UFactor:2
Temperature, K	Mole fraction of tetrahydrofuran	Mass density, kg/m3	uncertainty
298.15	0.0571	871.87	0.46
298.15	0.1071	872.53	0.45
298.15	0.1884	873.57	0.43
298.15	0.2881	874.78	0.41
298.15	0.4158	876.28	0.38
298.15	0.4933	877.18	0.37
298.15	0.6022	878.39	0.35
298.15	0.7032	879.48	0.33
298.15	0.8064	880.49	0.31
298.15	0.8983	881.3	0.29
298.15	0.9538	881.69	0.28
313.15	0.0562	854.45	0.46
313.15	0.1267	855.53	0.44
313.15	0.2163	856.77	0.42
313.15	0.3482	858.48	0.4
313.15	0.4419	859.64	0.38
313.15	0.5439	860.87	0.36
313.15	0.6661	862.25	0.34
313.15	0.7494	863.13	0.32
313.15	0.8325	863.96	0.31
313.15	0.9104	864.68	0.29
313.15	0.9613	865.08	0.28

System: tetrahydrofuran + 2-chloro-2-methylpropane; phases: Liquid
Fixed: Pressure, kPa = 101
Property: Viscosity, Pa*s (Liquid); method: Capillary tube (Ostwald; Ubbelohde) method
Mole fraction of tetrahydrofuran	Temperature, K	Viscosity, Pa*s	uncertainty
0.0557	313.15	0.0003913	5.2e-06
0.0634	298.15	0.0004743	5.5e-06
0.0959	313.15	0.0003917	5.1e-06
0.1288	298.15	0.0004733	5.5e-06
0.1963	313.15	0.0003928	5.1e-06
0.2423	298.15	0.0004718	5.4e-06
0.296	313.15	0.0003935	5.1e-06
0.3198	298.15	0.0004705	5.4e-06
0.3892	313.15	0.000394	5.1e-06
0.4555	298.15	0.0004684	5.3e-06
0.521	313.15	0.0003945	5e-06
0.5341	298.15	0.0004673	5.3e-06
0.5951	313.15	0.0003946	5e-06
0.6368	313.15	0.0003947	5e-06
0.6598	298.15	0.0004656	5.2e-06
0.7441	298.15	0.0004647	5.2e-06
0.8089	313.15	0.0003951	4.9e-06
0.8407	298.15	0.0004639	5.2e-06
0.8916	298.15	0.0004636	5.2e-06
0.9009	313.15	0.0003959	4.9e-06
0.9526	313.15	0.0003968	4.9e-06
0.961	298.15	0.0004633	5.1e-06

System: tetrahydrofuran + 2-chloro-2-methylpropane; phases: Liquid
Fixed: Pressure, kPa = 101
Property: Mass density, kg/m3 (Liquid); method: VIBTUB:UFactor:2
Temperature, K	Mole fraction of tetrahydrofuran	Mass density, kg/m3	uncertainty
298.15	0.0526	838.96	0.45
298.15	0.1013	841.3	0.44
298.15	0.1967	845.97	0.43
298.15	0.317	851.56	0.4
298.15	0.4131	856.07	0.39
298.15	0.5061	860.43	0.37
298.15	0.6033	864.82	0.35
298.15	0.7087	869.5	0.33
298.15	0.8132	874.03	0.31
298.15	0.9031	877.92	0.29
298.15	0.9545	880.08	0.28
313.15	0.0559	821.08	0.45
313.15	0.1219	824.43	0.44
313.15	0.2311	829.82	0.42
313.15	0.3509	835.82	0.4
313.15	0.4172	839.02	0.38
313.15	0.511	843.5	0.37
313.15	0.595	847.38	0.35
313.15	0.7018	852.4	0.33
313.15	0.8044	856.93	0.31
313.15	0.9004	861.05	0.29
313.15	0.9545	863.37	0.28
