Measured thermophysical data. Densities, Viscosities, and Ultrasonic Velocity Studies of Binary Mixtures of Chloroform with Octan-1-ol and Decan-1-ol at (303.15 and 313.15) K
Source: J. Chem. Eng. Data, 2006, 10.1021/je060192z
Compound 1: octan-1-ol, C8H18O, InChI=1S/C8H18O/c1-2-3-4-5-6-7-8-9/h9H,2-8H2,1H3
Compound 2: decan-1-ol, C10H22O, InChI=1S/C10H22O/c1-2-3-4-5-6-7-8-9-10-11/h11H,2-10H2,1H3
Compound 3: trichloromethane, CHCl3, InChI=1S/CHCl3/c2-1(3)4/h1H

System: octan-1-ol; phases: Liquid
Fixed: Pressure, kPa = 101
Property: Viscosity, Pa*s (Liquid); method: CAPTUB:UFactor:4
Temperature, K	Viscosity, Pa*s	uncertainty
303.15	0.006446	0.000133
313.15	0.004604	0.000103

System: octan-1-ol; phases: Liquid
Fixed: Pressure, kPa = 101
Property: Speed of sound, m/s (Liquid); method: FPINT:UFactor:4
Temperature, K	Speed of sound, m/s	uncertainty
303.15	1335	4
313.15	1303	4

System: octan-1-ol; phases: Liquid
Fixed: Pressure, kPa = 101
Property: Mass density, kg/m3 (Liquid); method: PYCNOM:UFactor:2
Temperature, K	Mass density, kg/m3	uncertainty
303.15	818.2	0.46
313.15	811.09	0.5

System: decan-1-ol; phases: Liquid
Fixed: Pressure, kPa = 101
Property: Viscosity, Pa*s (Liquid); method: CAPTUB::UFactor:4
Temperature, K	Viscosity, Pa*s	uncertainty
303.15	0.009715	0.00019
313.15	0.006819	0.000144

System: decan-1-ol; phases: Liquid
Fixed: Pressure, kPa = 101
Property: Speed of sound, m/s (Liquid); method: FPINT::UFactor:4
Temperature, K	Speed of sound, m/s	uncertainty
303.15	1370	4
313.15	1334	4

System: decan-1-ol; phases: Liquid
Fixed: Pressure, kPa = 101
Property: Mass density, kg/m3 (Liquid); method: PYCNOM::UFactor:2
Temperature, K	Mass density, kg/m3	uncertainty
303.15	822.69	0.59
313.15	816.1	0.61

System: trichloromethane; phases: Liquid
Fixed: Pressure, kPa = 101
Property: Viscosity, Pa*s (Liquid); method: CAPTUB:UFactor:4
Temperature, K	Viscosity, Pa*s	uncertainty
303.15	0.000534	4.2e-05
313.15	0.000491	4.2e-05

System: trichloromethane; phases: Liquid
Fixed: Pressure, kPa = 101
Property: Speed of sound, m/s (Liquid); method: FPINT:UFactor:4
Temperature, K	Speed of sound, m/s	uncertainty
303.15	969	3
313.15	934	3

System: trichloromethane; phases: Liquid
Fixed: Pressure, kPa = 101
Property: Mass density, kg/m3 (Liquid); method: PYCNOM:UFactor:2
Temperature, K	Mass density, kg/m3	uncertainty
303.15	1469.21	1.13
313.15	1449.74	1.14

System: trichloromethane + octan-1-ol; phases: Liquid
Fixed: Pressure, kPa = 101
Property: Viscosity, Pa*s (Liquid); method: CAPTUB:UFactor:4
Temperature, K	Mole fraction of trichloromethane	Viscosity, Pa*s	uncertainty
303.15	0	0.006446	0.000133
303.15	0.0471	0.005924	0.000125
303.15	0.0996	0.00536	0.000116
303.15	0.149	0.004852	0.000107
303.15	0.1997	0.004346	9.7e-05
303.15	0.2493	0.003898	8.9e-05
303.15	0.3001	0.003475	8.2e-05
303.15	0.3529	0.003039	7.5e-05
303.15	0.4037	0.002666	6.9e-05
303.15	0.4548	0.002332	6.4e-05
303.15	0.5001	0.002062	6e-05
303.15	0.555	0.001772	5.5e-05
303.15	0.5995	0.001552	5.2e-05
303.15	0.6467	0.00137	5e-05
303.15	0.7001	0.001171	4.8e-05
303.15	0.7484	0.001036	4.7e-05
303.15	0.7997	0.000929	4.5e-05
303.15	0.8451	0.000804	4.4e-05
303.15	0.9007	0.000693	4.3e-05
303.15	0.9494	0.000616	4.3e-05
303.15	1	0.000534	4.2e-05
313.15	0	0.004604	0.000103
313.15	0.0471	0.004259	9.6e-05
313.15	0.0996	0.003883	9e-05
313.15	0.149	0.003545	8.4e-05
313.15	0.1997	0.003212	7.8e-05
313.15	0.2493	0.002902	7.3e-05
313.15	0.3001	0.002593	6.8e-05
313.15	0.3529	0.002315	6.3e-05
313.15	0.4037	0.00207	6e-05
313.15	0.4548	0.001823	5.6e-05
313.15	0.5001	0.001648	5.4e-05
313.15	0.555	0.001426	5.1e-05
313.15	0.5995	0.001273	4.9e-05
313.15	0.6467	0.001134	4.8e-05
313.15	0.7001	0.000987	4.6e-05
313.15	0.7484	0.000883	4.5e-05
313.15	0.7997	0.000769	4.4e-05
313.15	0.8451	0.000704	4.3e-05
313.15	0.9007	0.000627	4.3e-05
313.15	0.9494	0.000555	4.2e-05
313.15	1	0.000491	4.2e-05

System: trichloromethane + octan-1-ol; phases: Liquid
Fixed: Pressure, kPa = 101
Property: Speed of sound, m/s (Liquid); method: FPINT:UFactor:4
Temperature, K	Mole fraction of trichloromethane	Speed of sound, m/s	uncertainty
303.15	0	1335	4
303.15	0.0471	1320	4
303.15	0.0996	1303	4
303.15	0.149	1286	4
303.15	0.1997	1267	4
303.15	0.2493	1247	4
303.15	0.3001	1227	3
303.15	0.3529	1207	3
303.15	0.4037	1186	3
303.15	0.4548	1164	3
303.15	0.5001	1147	3
303.15	0.555	1125	3
303.15	0.5995	1107	3
303.15	0.6467	1088	3
303.15	0.7001	1069	3
303.15	0.7484	1051	3
303.15	0.7997	1033	3
303.15	0.8451	1017	3
303.15	0.9007	999	3
303.15	0.9494	984	3
303.15	1	969	3
313.15	0	1303	4
313.15	0.0471	1287	4
313.15	0.0996	1271	4
313.15	0.149	1252	4
313.15	0.1997	1233	3
313.15	0.2493	1214	3
313.15	0.3001	1193	3
313.15	0.3529	1172	3
313.15	0.4037	1150	3
313.15	0.4548	1130	3
313.15	0.5001	1111	3
313.15	0.555	1089	3
313.15	0.5995	1071	3
313.15	0.6467	1053	3
313.15	0.7001	1033	3
313.15	0.7484	1015	3
313.15	0.7997	996	3
313.15	0.8451	980	3
313.15	0.9007	962	3
313.15	0.9494	948	3
313.15	1	934	3

System: trichloromethane + octan-1-ol; phases: Liquid
Fixed: Pressure, kPa = 101
Property: Mass density, kg/m3 (Liquid); method: PYCNOM:UFactor:2
Temperature, K	Mole fraction of trichloromethane	Mass density, kg/m3	uncertainty
303.15	0	818.2	0.46
303.15	0.0471	834.14	0.48
303.15	0.0996	852.81	0.5
303.15	0.149	871.31	0.52
303.15	0.1997	891.24	0.54
303.15	0.2493	911.82	0.56
303.15	0.3001	934.12	0.58
303.15	0.3529	958.7	0.61
303.15	0.4037	983.84	0.64
303.15	0.4548	1010.69	0.67
303.15	0.5001	1036.04	0.69
303.15	0.555	1068.85	0.73
303.15	0.5995	1097.36	0.76
303.15	0.6467	1129.61	0.79
303.15	0.7001	1168.88	0.84
303.15	0.7484	1207.34	0.88
303.15	0.7997	1251.63	0.93
303.15	0.8451	1294.14	0.97
303.15	0.9007	1351.2	1.04
303.15	0.9494	1406.28	1.09
313.15	0	811.09	0.5
313.15	0.0471	826.77	0.52
313.15	0.0996	845.16	0.53
313.15	0.149	863.32	0.55
313.15	0.1997	882.91	0.57
313.15	0.2493	903.14	0.59
313.15	0.3001	924.95	0.61
313.15	0.3529	949.03	0.64
313.15	0.4037	973.63	0.66
313.15	0.4548	999.95	0.69
313.15	0.5001	1024.78	0.72
313.15	0.555	1056.9	0.75
313.15	0.5995	1084.74	0.78
313.15	0.6467	1116.27	0.81
313.15	0.7001	1154.72	0.85
313.15	0.7484	1192.38	0.89
313.15	0.7997	1235.77	0.94
313.15	0.8451	1277.5	0.99
313.15	0.9007	1333.55	1.04
313.15	0.9494	1387.58	1.1
313.15	1	1449.74	1.14

System: trichloromethane + decan-1-ol; phases: Liquid
Fixed: Pressure, kPa = 101
Property: Viscosity, Pa*s (Liquid); method: CAPTUB:UFactor:4
Temperature, K	Mole fraction of trichloromethane	Viscosity, Pa*s	uncertainty
303.15	0	0.009715	0.00019
303.15	0.0523	0.008774	0.000175
303.15	0.1025	0.007938	0.000161
303.15	0.1519	0.007108	0.000147
303.15	0.1992	0.006311	0.000134
303.15	0.2501	0.00565	0.000123
303.15	0.2992	0.005021	0.000112
303.15	0.3497	0.004374	9.9e-05
303.15	0.4005	0.003838	8.9e-05
303.15	0.451	0.003293	8e-05
303.15	0.5	0.002873	7.3e-05
303.15	0.5504	0.002439	6.6e-05
303.15	0.5991	0.002098	6e-05
303.15	0.6496	0.001778	5.6e-05
303.15	0.699	0.001501	5.2e-05
303.15	0.7508	0.001277	4.9e-05
303.15	0.799	0.001052	4.7e-05
303.15	0.8513	0.000916	4.5e-05
303.15	0.8999	0.000784	4.4e-05
303.15	0.9501	0.000651	4.3e-05
303.15	1	0.000534	4.2e-05
313.15	0	0.006819	0.000144
313.15	0.0523	0.006174	0.000133
313.15	0.1025	0.00559	0.000123
313.15	0.1519	0.005068	0.000114
313.15	0.1992	0.004603	0.000104
313.15	0.2501	0.004121	9.5e-05
313.15	0.2992	0.003726	8.8e-05
313.15	0.3497	0.003291	8e-05
313.15	0.4005	0.002935	7.4e-05
313.15	0.451	0.002571	6.8e-05
313.15	0.5	0.002259	6.3e-05
313.15	0.5504	0.001974	5.9e-05
313.15	0.5991	0.001697	5.5e-05
313.15	0.6496	0.00148	5.2e-05
313.15	0.699	0.001251	4.9e-05
313.15	0.7508	0.001076	4.7e-05
313.15	0.799	0.000911	4.5e-05
313.15	0.8513	0.00077	4.4e-05
313.15	0.8999	0.000661	4.3e-05
313.15	0.9501	0.000561	4.2e-05
313.15	1	0.000491	4.2e-05

System: trichloromethane + decan-1-ol; phases: Liquid
Fixed: Pressure, kPa = 101
Property: Speed of sound, m/s (Liquid); method: FPINT:UFactor:4
Temperature, K	Mole fraction of trichloromethane	Speed of sound, m/s	uncertainty
303.15	0	1370	4
303.15	0.0523	1354	4
303.15	0.1025	1338	4
303.15	0.1519	1322	4
303.15	0.1992	1305	4
303.15	0.2501	1284	4
303.15	0.2992	1264	4
303.15	0.3497	1244	4
303.15	0.4005	1222	4
303.15	0.451	1201	4
303.15	0.5	1180	3
303.15	0.5504	1158	3
303.15	0.5991	1137	3
303.15	0.6496	1116	3
303.15	0.699	1096	3
303.15	0.7508	1074	3
303.15	0.799	1054	3
303.15	0.8513	1033	3
303.15	0.8999	1013	3
303.15	0.9501	992	3
303.15	1	969	3
313.15	0	1334	4
313.15	0.0523	1318	4
313.15	0.1025	1301	4
313.15	0.1519	1283	4
313.15	0.1992	1265	4
313.15	0.2501	1245	4
313.15	0.2992	1226	4
313.15	0.3497	1205	4
313.15	0.4005	1184	3
313.15	0.451	1163	3
313.15	0.5	1142	3
313.15	0.5504	1121	3
313.15	0.5991	1100	3
313.15	0.6496	1079	3
313.15	0.699	1059	3
313.15	0.7508	1037	3
313.15	0.799	1017	3
313.15	0.8513	995	3
313.15	0.8999	975	3
313.15	0.9501	954	3
313.15	1	934	3

System: trichloromethane + decan-1-ol; phases: Liquid
Fixed: Pressure, kPa = 101
Property: Mass density, kg/m3 (Liquid); method: PYCNOM:UFactor:2
Temperature, K	Mole fraction of trichloromethane	Mass density, kg/m3	uncertainty
303.15	0	822.69	0.59
303.15	0.0523	837.35	0.6
303.15	0.1025	852.18	0.61
303.15	0.1519	867.73	0.63
303.15	0.1992	883.56	0.64
303.15	0.2501	901.66	0.66
303.15	0.2992	920.32	0.67
303.15	0.3497	940.92	0.69
303.15	0.4005	963.19	0.71
303.15	0.451	987.1	0.73
303.15	0.5	1012.24	0.75
303.15	0.5504	1040.28	0.78
303.15	0.5991	1069.75	0.8
303.15	0.6496	1103.28	0.84
303.15	0.699	1139.34	0.87
303.15	0.7508	1181.21	0.91
303.15	0.799	1224.43	0.95
303.15	0.8513	1277.02	1
303.15	0.8999	1331.89	1.05
303.15	0.9501	1396.24	1.11
303.15	1	1469.21	1.13
313.15	0	816.1	0.61
313.15	0.0523	830.45	0.63
313.15	0.1025	845.07	0.64
313.15	0.1519	860.35	0.65
313.15	0.1992	875.81	0.67
313.15	0.2501	893.54	0.68
313.15	0.2992	911.84	0.7
313.15	0.3497	932.02	0.71
313.15	0.4005	953.9	0.73
313.15	0.451	977.26	0.75
313.15	0.5	1001.85	0.77
313.15	0.5504	1029.31	0.8
313.15	0.5991	1058.22	0.82
313.15	0.6496	1091	0.85
313.15	0.699	1126.33	0.88
313.15	0.7508	1167.24	0.92
313.15	0.799	1209.66	0.96
313.15	0.8513	1260.95	1
313.15	0.8999	1314.72	1.05
313.15	0.9501	1377.93	1.11
313.15	1	1449.74	1.15
