Measured thermophysical data. Effect of Pressure on the Static Relative Permittivities of Alkan-1-ols at 298.15 K
Source: J. Chem. Eng. Data, 2006, 10.1021/je060248p
Compound 1: methanol, CH4O, InChI=1S/CH4O/c1-2/h2H,1H3
Compound 2: ethanol, C2H6O, InChI=1S/C2H6O/c1-2-3/h3H,2H2,1H3
Compound 3: propan-1-ol, C3H8O, InChI=1S/C3H8O/c1-2-3-4/h4H,2-3H2,1H3
Compound 4: butan-1-ol, C4H10O, InChI=1S/C4H10O/c1-2-3-4-5/h5H,2-4H2,1H3
Compound 5: pentan-1-ol, C5H12O, InChI=1S/C5H12O/c1-2-3-4-5-6/h6H,2-5H2,1H3
Compound 6: hexan-1-ol, C6H14O, InChI=1S/C6H14O/c1-2-3-4-5-6-7/h7H,2-6H2,1H3
Compound 7: heptan-1-ol, C7H16O, InChI=1S/C7H16O/c1-2-3-4-5-6-7-8/h8H,2-7H2,1H3
Compound 8: octan-1-ol, C8H18O, InChI=1S/C8H18O/c1-2-3-4-5-6-7-8-9/h9H,2-8H2,1H3

System: methanol; phases: Liquid
Property: Refractive index (Na D-line) (Liquid); method: Standard Abbe refractometry
Temperature, K	Pressure, kPa	Refractive index (Na D-line)	uncertainty
298.15	101.325	1.3266	0.0007

System: methanol; phases: Liquid
Fixed: Temperature, K = 298.15
Property: Relative permittivity at zero frequency (Liquid); method: Parallel plate capacitor
Pressure, kPa	Relative permittivity at zero frequency	uncertainty
100	32.72	0.07
50000	34.43	0.07
100000	35.7	0.07
150000	36.77	0.07
200000	37.7	0.08
250000	38.52	0.08
300000	39.25	0.08

System: ethanol; phases: Liquid
Property: Refractive index (Na D-line) (Liquid); method: Standard Abbe refractometry
Temperature, K	Pressure, kPa	Refractive index (Na D-line)	uncertainty
298.15	101.325	1.3596	0.0007

System: ethanol; phases: Liquid
Fixed: Temperature, K = 298.15
Property: Relative permittivity at zero frequency (Liquid); method: Parallel plate capacitor
Pressure, kPa	Relative permittivity at zero frequency	uncertainty
100	24.35	0.05
50000	25.56	0.05
100000	26.46	0.05
150000	27.22	0.05
200000	27.86	0.06
250000	28.45	0.06
300000	29	0.06

System: propan-1-ol; phases: Liquid
Property: Refractive index (Na D-line) (Liquid); method: Standard Abbe refractometry
Temperature, K	Pressure, kPa	Refractive index (Na D-line)	uncertainty
298.15	101.325	1.3833	0.0007

System: propan-1-ol; phases: Liquid
Fixed: Temperature, K = 298.15
Property: Relative permittivity at zero frequency (Liquid); method: Parallel plate capacitor
Pressure, kPa	Relative permittivity at zero frequency	uncertainty
100	20.45	0.04
50000	21.3	0.04
100000	21.98	0.04
150000	22.55	0.05
200000	23.05	0.05
250000	23.5	0.05
300000	23.91	0.05

System: butan-1-ol; phases: Liquid
Property: Refractive index (Na D-line) (Liquid); method: Standard Abbe refractometry
Temperature, K	Pressure, kPa	Refractive index (Na D-line)	uncertainty
298.15	101.325	1.3972	0.0007

System: butan-1-ol; phases: Liquid
Fixed: Temperature, K = 298.15
Property: Relative permittivity at zero frequency (Liquid); method: Parallel plate capacitor
Pressure, kPa	Relative permittivity at zero frequency	uncertainty
100	17.54	0.04
50000	18.29	0.04
100000	18.87	0.04
150000	19.36	0.04
200000	19.79	0.04
250000	20.17	0.04
300000	20.52	0.04

System: pentan-1-ol; phases: Liquid
Property: Refractive index (Na D-line) (Liquid); method: Standard Abbe refractometry
Temperature, K	Pressure, kPa	Refractive index (Na D-line)	uncertainty
298.15	101.325	1.4078	0.0007

System: pentan-1-ol; phases: Liquid
Fixed: Temperature, K = 298.15
Property: Relative permittivity at zero frequency (Liquid); method: Parallel plate capacitor
Pressure, kPa	Relative permittivity at zero frequency	uncertainty
100	14.96	0.03
50000	15.62	0.03
100000	16.12	0.03
150000	16.55	0.03
200000	16.92	0.03
250000	17.25	0.03
300000	17.56	0.04

System: hexan-1-ol; phases: Liquid
Property: Refractive index (Na D-line) (Liquid); method: Standard Abbe refractometry
Temperature, K	Pressure, kPa	Refractive index (Na D-line)	uncertainty
298.15	101.325	1.4157	0.0007

System: hexan-1-ol; phases: Liquid
Fixed: Temperature, K = 298.15
Property: Relative permittivity at zero frequency (Liquid); method: Parallel plate capacitor
Pressure, kPa	Relative permittivity at zero frequency	uncertainty
100	13.06	0.03
50000	13.63	0.03
100000	14.07	0.03
150000	14.45	0.03
200000	14.77	0.03
250000	15.06	0.03
300000	15.33	0.03

System: heptan-1-ol; phases: Liquid
Property: Refractive index (Na D-line) (Liquid); method: Standard Abbe refractometry
Temperature, K	Pressure, kPa	Refractive index (Na D-line)	uncertainty
298.15	101.325	1.4219	0.0007

System: heptan-1-ol; phases: Liquid
Fixed: Temperature, K = 298.15
Property: Relative permittivity at zero frequency (Liquid); method: Parallel plate capacitor
Pressure, kPa	Relative permittivity at zero frequency	uncertainty
100	11.41	0.02
50000	11.92	0.02
100000	12.32	0.03
150000	12.65	0.03
200000	12.95	0.03
250000	13.21	0.03
300000	13.45	0.03

System: octan-1-ol; phases: Liquid
Property: Refractive index (Na D-line) (Liquid); method: Standard Abbe refractometry
Temperature, K	Pressure, kPa	Refractive index (Na D-line)	uncertainty
298.15	101.325	1.4275	0.0007

System: octan-1-ol; phases: Liquid
Fixed: Temperature, K = 298.15
Property: Relative permittivity at zero frequency (Liquid); method: Parallel plate capacitor
Pressure, kPa	Relative permittivity at zero frequency	uncertainty
100	10.01	0.02
50000	10.48	0.02
100000	10.84	0.02
150000	11.13	0.02
200000	11.39	0.02
