Measured thermophysical data. Critical Point and Vapor Pressure Measurements for Four Compounds by a Low Residence Time Flow Method
Source: J. Chem. Eng. Data, 2006, 10.1021/je0602465
Compound 1: 1,6-hexanediol, C6H14O2, InChI=1S/C6H14O2/c7-5-3-1-2-4-6-8/h7-8H,1-6H2
Compound 2: 1,3-benzenediol, C6H6O2, InChI=1S/C6H6O2/c7-5-2-1-3-6(8)4-5/h1-4,7-8H
Compound 3: piperazine, C4H10N2, InChI=1S/C4H10N2/c1-2-6-4-3-5-1/h5-6H,1-4H2
Compound 4: 1,2-benzenediol, C6H6O2, InChI=1S/C6H6O2/c7-5-3-1-2-4-6(5)8/h1-4,7-8H, purity 99.5%

System: 1,6-hexanediol; phases: Liquid, Gas
Property: Critical pressure, kPa (Liquid); method: Low residence time flow calorimetry
Critical pressure, kPa	uncertainty
4080	470

System: 1,6-hexanediol; phases: Liquid, Gas
Property: Critical temperature, K (Liquid); method: Low residence time flow method
Critical temperature, K	uncertainty
740.8	10

System: 1,6-hexanediol; phases: Liquid, Gas
Property: Vapor or sublimation pressure, kPa (Liquid); method: low residence time flow method
Temperature, K	Vapor or sublimation pressure, kPa	uncertainty
523.2	93.33	10.06
552.8	199.3	21.5
597.1	500.6	53.9
637.1	1001	108
685.1	2007	216
717.6	3024	325
740	4012	432
740.4	4054	436

System: 1,3-benzenediol; phases: Liquid, Gas
Property: Critical pressure, kPa (Liquid); method: Low residence time flow calorimetry
Critical pressure, kPa	uncertainty
6240	620

System: 1,3-benzenediol; phases: Liquid, Gas
Property: Critical temperature, K (Liquid); method: Low residence time flow method
Critical temperature, K	uncertainty
836	10

System: 1,3-benzenediol; phases: Liquid, Gas
Property: Vapor or sublimation pressure, kPa (Liquid); method: low residence time flow method
Temperature, K	Vapor or sublimation pressure, kPa	uncertainty
546.7	84.54	3.43
582.6	192.6	7.8
631.7	494.8	19.9
675.9	994.4	39.9
728.6	1994	80
790.6	3994	160
813.7	4999	200
831.3	5995	240

System: piperazine; phases: Liquid, Gas
Property: Critical pressure, kPa (Liquid); method: Low residence time flow calorimetry
Critical pressure, kPa	uncertainty
5420	320

System: piperazine; phases: Liquid, Gas
Property: Critical temperature, K (Liquid); method: Low residence time flow calorimetry
Critical temperature, K	uncertainty
656.3	4

System: piperazine; phases: Liquid, Gas
Property: Vapor or sublimation pressure, kPa (Liquid); method: low residence time flow method
Temperature, K	Vapor or sublimation pressure, kPa	uncertainty
445.2	189.5	20.4
471.6	343.6	37
488.9	492.3	53
528.1	992.6	106.9
573.6	1994	215
629.7	3997	430
649.3	4994	537
653.7	5243	564
655	5348	576

System: 1,2-benzenediol; phases: Liquid, Gas
Property: Vapor or sublimation pressure, kPa (Liquid); method: low residence time flow method
Temperature, K	Vapor or sublimation pressure, kPa	uncertainty
511.3	81.47	3.3
535.7	147	5.9
547	187.4	7.6
577.6	349.1	14
595.6	487.9	19.6
597.3	499.4	20
621.8	742.9	29.8
640.1	988.9	39.6
640.9	992.8	39.7
692.7	1995	80
692.7	1996	80
711.5	2496	100
727.5	2993	120
727.9	2997	120
753.5	4007	160
754.8	3993	160
