Measured thermophysical data. Temperature and Pressure Dependence of the Viscosity of Diisodecyl Phthalate at Temperatures between (0 and 100) deg C and at Pressures to 1 GPa
Source: J. Chem. Eng. Data, 2007, 10.1021/je060382+
Compound 1: 3-methylnonyl 1,2-benzenedioate, C28H46O4, InChI=1S/C28H46O4/c1-23(2)17-11-7-5-9-15-21-31-27(29)25-19-13-14-20-26(25)28(30)32-22-16-10-6-8-12-18-24(3)4/h13-14,19-20,23-24H,5-12,15-18,21-22H2,1-4H3

System: 3-methylnonyl 1,2-benzenedioate; phases: Liquid
Fixed: Pressure, kPa = 101.325
Property: Viscosity, Pa*s (Liquid); method: Falling or rolling sphere viscometry
Temperature, K	Viscosity, Pa*s	uncertainty
273.15	0.6276	0.0557
278.15	0.3935	0.0305
283.15	0.2552	0.017
288.15	0.1709	0.0098
293.15	0.1226	0.0062
298.15	0.0877	0.004
298.15	0.0841	0.0038
303.15	0.0646	0.0028
303.15	0.0638	0.0027
308.15	0.0489	0.0021
308.15	0.0476	0.002
313.15	0.0366	0.0015
323.15	0.023	0.001
333.15	0.0155	0.0006
343.15	0.011	0.0005
353.15	0.00812	0.00034

System: 3-methylnonyl 1,2-benzenedioate; phases: Liquid
Fixed: Pressure, kPa = 101.325
Property: Mass density, kg/m3 (Liquid); method: VIBTUB:UFactor:4
Temperature, K	Mass density, kg/m3	uncertainty
273.15	980.73	0.45
283.15	973.48	0.46
293.15	966.37	0.47
298.15	962.83	0.47
303.15	959.31	0.48
303.15	959.31	0.48
303.15	959.29	0.48
313.15	952.2	0.49
323.15	945.12	0.5
333.15	938.05	0.51
343.15	930.99	0.53
353.15	923.95	0.54
363.15	916.91	0.55

System: 3-methylnonyl 1,2-benzenedioate; phases: Liquid
Fixed: Pressure, kPa = 101.325
Property: Viscosity, Pa*s (Liquid); method: Falling or rolling sphere viscometry
Temperature, K	Viscosity, Pa*s	uncertainty
273.15	0.6645	0.06
273.150001	0.6645	0.06
278.15	0.4108	0.0322
278.15	0.4105	0.0322
283.15	0.2668	0.018
283.15	0.2668	0.018
288.15	0.1786	0.0104
288.15	0.1786	0.0104
293.15	0.1236	0.0063
293.15	0.1237	0.0063
293.15	0.1235	0.0063
293.15	0.1225	0.0062
298.15	0.0884	0.004
298.15	0.0884	0.004
303.15	0.0651	0.0028
303.15	0.065	0.0028
308.15	0.0491	0.0021
308.15	0.0486	0.0021
313.15	0.0376	0.0016
313.15	0.0375	0.0016
313.15	0.0374	0.0016
323.15	0.0237	0.001
323.15	0.0237	0.001
323.15	0.0237	0.001
333.15	0.0159	0.0007
333.15	0.0158	0.0007
333.15	0.0158	0.0007
333.15	0.016	0.0007
333.15	0.016	0.0007
338.15	0.0133	0.0006
338.15	0.0132	0.0005
338.15	0.0132	0.0005
338.15	0.013	0.0005
338.15	0.0133	0.0006
338.15	0.0133	0.0006
343.15	0.0111	0.0005
343.15	0.0112	0.0005
343.15	0.0113	0.0005
348.15	0.00963	0.0004
348.15	0.00965	0.0004
353.15	0.00835	0.00034
353.15	0.00835	0.00034

System: 3-methylnonyl 1,2-benzenedioate; phases: Liquid
Fixed: Pressure, kPa = 101.325
Property: Mass density, kg/m3 (Liquid); method: VIBTUB:UFactor:2
Temperature, K	Mass density, kg/m3	uncertainty
273.15	980.75	0.11
278.15	977.12	0.12
283.15	973.49	0.12
288.15	969.89	0.12
293.15	966.38	0.13
293.15	966.37	0.13
298.15	962.84	0.13
303.15	959.3	0.14
313.15	952.21	0.14
323.15	945.13	0.15
333.15	938.07	0.16
343.15	931.01	0.16
353.15	923.98	0.17
353.15	923.97	0.17
363.15	916.94	0.18

System: 3-methylnonyl 1,2-benzenedioate; phases: Liquid
Property: Viscosity, Pa*s (Liquid); method: Falling or rolling sphere viscometry
Temperature, K	Pressure, kPa	Viscosity, Pa*s	uncertainty
313.15	100	0.0376	0.00374
313.15	25000	0.0654	0.00635
313.15	50000	0.1094	0.01225
313.15	100000	0.29	0.04749
313.15	200000	1.665	0.26162
313.15	252000	3.75	0.77
313.15	300000	8.11	1.71
313.15	400000	36.3	9.78
313.15	500000	168	52.87
313.15	600000	782	284.86
313.15	700000	3820	1639
313.15	800000	23600	10540
313.15	200000	1.58	0.25
338.15	100	0.0132	0.00133
338.15	25000	0.0202	0.00231
338.15	50000	0.0307	0.00378
338.15	100000	0.0677	0.01009
338.15	200000	0.291	0.05647
338.15	300000	1.103	0.27734
338.15	394000	3.89	4.09
338.15	400000	4.28	4.1
338.15	500000	14.2	5.74
338.15	600000	45.5	25.7
338.15	700000	160	122.13
338.15	800000	517	719.37
338.15	900000	1720	933.52
338.15	1000000	7420	3004
338.15	300000	1.17	0.28
373.15	100	0.00467	0.00059
373.15	25000	0.00673	0.00088
373.15	50000	0.00966	0.00134
373.15	100000	0.018	0.00287
373.15	200000	0.0566	0.01266
373.15	300000	0.163	0.05185
373.15	400000	0.442	0.21453
373.15	500000	1.18	0.74
373.15	600000	2.97	2.42
373.15	700000	7.19	8.7
373.15	800000	17.5	28.49
373.15	900000	41.9	95.59
373.15	1000000	107	418.8
373.15	400000	0.46	0.21

System: 3-methylnonyl 1,2-benzenedioate; phases: Liquid
Property: Viscosity, Pa*s (Liquid); method: Falling or rolling sphere viscometry
Temperature, K	Pressure, kPa	Viscosity, Pa*s	uncertainty
293.15	19400	0.2024	0.0125
293.15	39700	0.335	0.0247
293.15	59500	0.5345	0.0454
293.15	103600	1.4356	0.164
293.15	118200	1.9815	0.2473
293.15	118900	2.0338	0.2555
293.15	159600	4.7192	0.7232
298.15	25400	0.1655	0.0093
298.15	50700	0.3002	0.0209
298.15	75500	0.525	0.0439
298.15	100600	0.9047	0.0892
313.15	700	0.0383	0.0018
313.15	25800	0.066	0.0029
313.15	50600	0.1103	0.0054
313.15	75500	0.181	0.0104
313.15	100300	0.2916	0.0201
313.15	125100	0.4632	0.037
313.15	150400	0.7326	0.0701
313.15	175800	1.1436	0.1221
313.15	197600	1.68	0.1994
313.15	227900	2.6717	0.3589
313.15	252000	3.9323	0.5784
338.15	500	0.0133	0.0006
338.15	30500	0.0227	0.001
338.15	60700	0.0378	0.0016
338.15	90600	0.0609	0.0029
338.15	99500	0.0709	0.00335
338.15	120500	0.0963	0.005
338.15	150100	0.1496	0.0088
338.15	180400	0.2292	0.0155
338.15	200600	0.3078	0.0232
338.15	250700	0.6149	0.0583
338.15	275600	0.8565	0.0853
338.15	301000	1.2037	0.1298
338.15	321800	1.571	0.1832
338.15	352700	2.381	0.3111
338.15	370500	2.9987	0.4145
338.15	394400	4.0055	0.5917
348.15	11100	0.0117	0.0005
348.15	26500	0.0151	0.0006
348.15	52600	0.0229	0.001
348.15	78900	0.0337	0.0014
348.15	81000	0.035	0.0015
348.15	105700	0.04967	0.00209
348.15	124200	0.06518	0.00275
348.15	125700	0.066	0.0028
348.15	149800	0.092	0.0042
348.15	175700	0.1303	0.0067
348.15	202300	0.18652	0.01092
348.15	225400	0.25	0.0162
348.15	274700	0.4673	0.038
348.15	275700	0.4723	0.0385
348.15	324900	0.8668	0.0846
348.15	372500	1.5415	0.1804

System: 3-methylnonyl 1,2-benzenedioate; phases: Liquid
Property: Refractive index (Na D-line) (Liquid); method: Standard Abbe refractometry
Temperature, K	Pressure, kPa	Refractive index (Na D-line)	uncertainty
293.1	101.325	1.4849	0.0012

System: 3-methylnonyl 1,2-benzenedioate; phases: Liquid
Property: Mass density, kg/m3 (Liquid); method: Vibrating tube method
Temperature, K	Pressure, kPa	Mass density, kg/m3	uncertainty
293.1	101.325	967.6	6.5

System: 3-methylnonyl 1,2-benzenedioate; phases: Liquid
Property: Viscosity, Pa*s (Liquid); method: Falling or rolling sphere viscometry
Temperature, K	Pressure, kPa	Viscosity, Pa*s	uncertainty
313.15	100	0.0368	0.00376
313.15	25000	0.0639	0.00531
313.15	50000	0.107	0.01195
313.15	100000	0.273	0.0441
313.15	200000	1.53	0.298
313.15	300000	7.27	1.648
313.15	400000	33.7	9.071
313.15	500000	158	49.022
313.15	600000	694	251.166
313.15	700000	3410	1437
313.15	800000	19800	8744
313.15	100000	0.271	0.044
338.15	100	0.01308	0.00141
338.15	50000	0.0311	0.00384
338.15	100000	0.0694	0.00983
338.15	200000	0.286	0.05304
338.15	300000	1.07	0.25497
338.15	400000	4.09	1.196
338.15	500000	13.1	5.374
338.15	600000	43.5	23.119
338.15	700000	146	109.198
338.15	800000	452	604.723
338.15	900000	1556	805.947
338.15	1000000	6141	2452
338.15	200000	0.299	0.054
338.15	300000	1.131	0.259
373.15	100	0.0047	0.00059
373.15	25000	0.00686	0.00069
373.15	50000	0.00977	0.00138
373.15	100000	0.0185	0.00298
373.15	200000	0.0578	0.01241
373.15	300000	0.166	0.05026
373.15	400000	0.437	0.20461
373.15	500000	1.152	0.678
373.15	600000	2.83	2.313
373.15	700000	6.91	7.926
373.15	800000	16.7	24.821
373.15	900000	40.9	86.381
373.15	1000000	101.9	346.09
373.15	300000	0.165	0.05
373.15	400000	0.453	0.205
