Measured thermophysical data. Solubility of Phenazine-1-carboxylic Acid in Water, Methanol, and Ethanol from (278.2 to 328.2) K
Source: J. Chem. Eng. Data, 2007, 10.1021/je0603473
Compound 1: water, H2O, InChI=1S/H2O/h1H2
Compound 2: methanol, CH4O, InChI=1S/CH4O/c1-2/h2H,1H3
Compound 3: ethanol, C2H6O, InChI=1S/C2H6O/c1-2-3/h3H,2H2,1H3
Compound 4: 1-phenazinecarboxylic acid, C13H8N2O2, InChI=1S/C13H8N2O2/c16-13(17)8-4-3-7-11-12(8)15-10-6-2-1-5-9(10)14-11/h1-7H,(H,16,17)

System: 1-phenazinecarboxylic acid + water; phases: Liquid, Crystal
Fixed: Pressure, kPa = 101
Property: Amount concentration (molarity), mol/dm3 (Liquid); method: HPLC
Temperature, K	Amount concentration (molarity), mol/dm3	uncertainty
278.2	0.00023	2e-05
283.2	0.00023	1e-05
288.2	0.00024	2e-05
293.2	0.00025	4e-05
298.2	0.00027	4e-05
303.2	0.00029	0.0001
308.2	0.00032	0.00012
313.2	0.00035	8e-05
318.2	0.00039	8e-05
323.2	0.00044	0.0001
328.2	0.00051	0.00012

System: methanol + 1-phenazinecarboxylic acid; phases: Liquid, Crystal
Fixed: Pressure, kPa = 101
Property: Amount concentration (molarity), mol/dm3 (Liquid); method: HPLC
Temperature, K	Amount concentration (molarity), mol/dm3	uncertainty
278.2	0.0034	0.00024
283.2	0.0037	6e-05
288.2	0.0041	0.00012
293.2	0.0046	3e-05
298.2	0.0054	0.00016
303.2	0.0063	0.0003
308.2	0.0076	6e-05
313.2	0.0093	0.00118
318.2	0.0116	0.00075
323.2	0.0146	0.00101
328.2	0.0188	0.00183

System: ethanol + 1-phenazinecarboxylic acid; phases: Liquid, Crystal
Fixed: Pressure, kPa = 101
Property: Amount concentration (molarity), mol/dm3 (Liquid); method: HPLC
Temperature, K	Amount concentration (molarity), mol/dm3	uncertainty
278.2	0.0037	3e-05
283.2	0.0043	0.00026
288.2	0.0049	0.00014
293.2	0.0056	0.00044
298.2	0.0064	0.00038
303.2	0.0074	0.00011
308.2	0.0084	0.00056
313.2	0.0096	0.00015
318.2	0.0109	0.00025
323.2	0.0123	0.00114
328.2	0.0139	0.00037
