Measured thermophysical data. Density, Refractive Index, Speed of Sound at 298.15 K, and Vapor-Liquid Equilibria at 101.3 kPa for Binary Mixtures of Ethyl Acetate + Ethyl Lactate and Methyl Acetate + Ethyl Lactate
Source: J. Chem. Eng. Data, 2006, 10.1021/je060052p
Compound 1: ethyl acetate, C4H8O2, InChI=1S/C4H8O2/c1-3-6-4(2)5/h3H2,1-2H3
Compound 2: methyl ethanoate, C3H6O2, InChI=1S/C3H6O2/c1-3(4)5-2/h1-2H3
Compound 3: DL-ethyl lactate, C5H10O3, InChI=1S/C5H10O3/c1-3-8-5(7)4(2)6/h4,6H,3H2,1-2H3

System: ethyl acetate; phases: Liquid
Property: Refractive index (Na D-line) (Liquid); method: ABBE:UFactor:4
Temperature, K	Pressure, kPa	Refractive index (Na D-line)	uncertainty
298.15	101.325	1.36978	0.00124

System: ethyl acetate; phases: Liquid
Property: Mass density, kg/m3 (Liquid); method: VIBTUB:UFactor:4
Temperature, K	Pressure, kPa	Mass density, kg/m3	uncertainty
298.15	101.325	894.29	0.34

System: ethyl acetate; phases: Liquid, Gas
Property: Vapor or sublimation pressure, kPa (Liquid); method: Ebulliometric method (Recirculating still)
Temperature, K	Vapor or sublimation pressure, kPa	uncertainty
350.25	101.3	1

System: ethyl acetate; phases: Liquid
Property: Speed of sound, m/s (Liquid); method: FPINT:UFactor:4
Temperature, K	Pressure, kPa	Speed of sound, m/s	uncertainty
298.15	101.325	1138	3

System: methyl ethanoate; phases: Liquid
Property: Refractive index (Na D-line) (Liquid); method: ABBE:UFactor:4
Temperature, K	Pressure, kPa	Refractive index (Na D-line)	uncertainty
298.15	101.325	1.35865	0.00124

System: methyl ethanoate; phases: Liquid
Property: Mass density, kg/m3 (Liquid); method: VIBTUB:UFactor:4
Temperature, K	Pressure, kPa	Mass density, kg/m3	uncertainty
298.15	101.325	926.96	0.3

System: methyl ethanoate; phases: Liquid, Gas
Property: Vapor or sublimation pressure, kPa (Liquid); method: Ebulliometric method (Recirculating still)
Temperature, K	Vapor or sublimation pressure, kPa	uncertainty
330.03	101.3	1

System: methyl ethanoate; phases: Liquid
Property: Speed of sound, m/s (Liquid); method: FPINT:UFactor:4
Temperature, K	Pressure, kPa	Speed of sound, m/s	uncertainty
298.15	101.325	1148	3

System: DL-ethyl lactate; phases: Liquid
Property: Refractive index (Na D-line) (Liquid); method: ABBE:UFactor:4
Temperature, K	Pressure, kPa	Refractive index (Na D-line)	uncertainty
298.15	101.325	1.4105	0.00124

System: DL-ethyl lactate; phases: Liquid
Property: Mass density, kg/m3 (Liquid); method: VIBTUB:UFactor:4
Temperature, K	Pressure, kPa	Mass density, kg/m3	uncertainty
298.15	101.325	1028.02	0.27

System: DL-ethyl lactate; phases: Liquid, Gas
Property: Vapor or sublimation pressure, kPa (Liquid); method: Ebulliometric method (Recirculating still)
Temperature, K	Vapor or sublimation pressure, kPa	uncertainty
424.98	101.3	1

System: DL-ethyl lactate; phases: Liquid
Property: Speed of sound, m/s (Liquid); method: FPINT:UFactor:4
Temperature, K	Pressure, kPa	Speed of sound, m/s	uncertainty
298.15	101.325	1277	3

System: DL-ethyl lactate + ethyl acetate; phases: Liquid
Fixed: Temperature, K = 298.15
Fixed: Pressure, kPa = 101
Property: Refractive index (Na D-line) (Liquid); method: ABBE:UFactor:4
Mole fraction of ethyl acetate	Refractive index (Na D-line)	uncertainty
0.049	1.4088	0.00124
0.1	1.40722	0.00124
0.15	1.40535	0.00124
0.2	1.40357	0.00124
0.251	1.40168	0.00124
0.3	1.40005	0.00124
0.35	1.39819	0.00124
0.4	1.39623	0.00124
0.45	1.39451	0.00124
0.5	1.39263	0.00124
0.55	1.3906	0.00124
0.6	1.38855	0.00124
0.65	1.38645	0.00125
0.7	1.3842	0.00125
0.756	1.38126	0.00125
0.8	1.37923	0.00125
0.849	1.37694	0.00125
0.9	1.3747	0.00125
0.95	1.3722	0.00125

System: DL-ethyl lactate + ethyl acetate; phases: Liquid
Fixed: Temperature, K = 298.15
Fixed: Pressure, kPa = 101
Property: Speed of sound, m/s (Liquid); method: FPINT:UFactor:4
Mole fraction of ethyl acetate	Speed of sound, m/s	uncertainty
0.049	1267	3
0.1	1263	3
0.15	1256	3
0.2	1249	3
0.251	1243	3
0.3	1236	3
0.35	1229	3
0.4	1222	3
0.45	1215	3
0.5	1208	3
0.55	1201	3
0.6	1194	3
0.65	1188	3
0.7	1180	3
0.756	1173	3
0.8	1167	3
0.849	1160	3
0.9	1153	3
0.95	1145	3

System: DL-ethyl lactate + ethyl acetate; phases: Liquid, Gas
Fixed: Pressure, kPa = 101.3
Property: Boiling temperature at pressure P, K (Liquid); method: Ebulliometric method (Recirculating still)
Mole fraction of ethyl acetate	Boiling temperature at pressure P, K	uncertainty
0	424.98	0.09
0.015	421.19	2.16
0.035	417.39	1.9
0.05	414.54	1.93
0.098	405.28	1.61
0.152	398.08	1.31
0.185	393.89	1.26
0.202	391.81	0.99
0.246	387.77	0.97
0.307	381.69	0.91
0.35	378.46	0.72
0.417	373.82	0.65
0.514	367.89	0.6
0.556	365.7	0.46
0.604	363.83	0.41
0.688	360.36	0.4
0.727	359.03	0.39
0.766	357.43	0.38
0.81	355.93	0.33
0.855	354.57	0.32
0.943	351.87	0.32
0.977	350.84	0.3
1	350.25	0.09

System: DL-ethyl lactate + ethyl acetate; phases: Liquid
Fixed: Temperature, K = 298.15
Fixed: Pressure, kPa = 101
Property: Mass density, kg/m3 (Liquid); method: VIBTUB:UFactor:4
Mole fraction of ethyl acetate	Mass density, kg/m3	uncertainty
0.049	1022.5	0.34
0.1	1016.77	0.34
0.15	1010.85	0.34
0.2	1004.94	0.34
0.251	998.8	0.34
0.3	992.68	0.35
0.35	986.4	0.36
0.4	979.87	0.36
0.45	973.59	0.36
0.5	966.98	0.37
0.55	960.41	0.38
0.6	953.46	0.39
0.65	946.64	0.4
0.7	939.6	0.41
0.756	931.41	0.42
0.8	924.84	0.42
0.849	917.72	0.43
0.9	910.03	0.44
0.95	902.37	0.45

System: DL-ethyl lactate + ethyl acetate; phases: Gas, Liquid
Fixed: Pressure, kPa = 101.3
Property: Mole fraction of ethyl acetate (Gas); method: densimetry and refractometry
Mole fraction of ethyl acetate	Mole fraction of ethyl acetate	uncertainty
0	0	0.001
0.015	0.116	0.017
0.035	0.238	0.015
0.05	0.315	0.013
0.098	0.514	0.012
0.152	0.624	0.011
0.185	0.686	0.011
0.202	0.717	0.01
0.246	0.765	0.01
0.307	0.826	0.01
0.35	0.855	0.01
0.417	0.89	0.01
0.514	0.927	0.01
0.556	0.938	0.01
0.604	0.948	0.01
0.688	0.964	0.01
0.727	0.969	0.01
0.766	0.975	0.01
0.81	0.981	0.01
0.855	0.986	0.01
0.943	0.995	0.005
0.977	0.998	0.002
1	1	0.001

System: methyl ethanoate + DL-ethyl lactate; phases: Liquid
Fixed: Temperature, K = 298.15
Fixed: Pressure, kPa = 101
Property: Refractive index (Na D-line) (Liquid); method: ABBE:UFactor:4
Mole fraction of methyl ethanoate	Refractive index (Na D-line)	uncertainty
0.058	1.40872	0.00124
0.1	1.40699	0.00124
0.15	1.40595	0.00124
0.2	1.40379	0.00124
0.25	1.4023	0.00124
0.3	1.39968	0.00125
0.35	1.39787	0.00124
0.4	1.39628	0.00124
0.45	1.39379	0.00125
0.5	1.39125	0.00125
0.55	1.3879	0.00125
0.6	1.38498	0.00125
0.65	1.38197	0.00125
0.7	1.37916	0.00125
0.75	1.37601	0.00125
0.8	1.37278	0.00125
0.85	1.3696	0.00125
0.9	1.36642	0.00125
0.95	1.36248	0.00125

System: methyl ethanoate + DL-ethyl lactate; phases: Liquid
Fixed: Temperature, K = 298.15
Fixed: Pressure, kPa = 101
Property: Speed of sound, m/s (Liquid); method: FPINT:UFactor:4
Mole fraction of methyl ethanoate	Speed of sound, m/s	uncertainty
0.058	1272	3
0.1	1266	3
0.15	1261	3
0.2	1255	3
0.25	1250	3
0.3	1244	3
0.35	1238	3
0.4	1232	3
0.45	1226	3
0.5	1220	3
0.55	1213	3
0.6	1207	3
0.65	1200	3
0.7	1193	3
0.75	1186	3
0.8	1180	3
0.85	1172	3
0.9	1164	3
0.95	1157	3

System: methyl ethanoate + DL-ethyl lactate; phases: Liquid, Gas
Fixed: Pressure, kPa = 101.3
Property: Boiling temperature at pressure P, K (Liquid); method: Ebulliometric method (Recirculating still)
Mole fraction of methyl ethanoate	Boiling temperature at pressure P, K	uncertainty
0	424.98	0.09
0.011	419.85	3.4
0.043	409.96	2.79
0.077	401.45	2.44
0.112	393.12	2.21
0.153	384.62	1.68
0.185	381	1.32
0.261	370.56	1.35
0.289	367.01	1.13
0.323	363.53	1.03
0.35	360.78	0.9
0.409	355.74	0.82
0.464	351.45	0.63
0.54	347.5	0.53
0.596	344.49	0.48
0.695	340.14	0.44
0.743	338.2	0.39
0.785	336.72	0.37
0.822	335.33	0.37
0.914	332.03	0.34
0.955	331.01	0.25
0.979	330.48	0.23
1	330.03	0.09

System: methyl ethanoate + DL-ethyl lactate; phases: Liquid
Fixed: Temperature, K = 298.15
Fixed: Pressure, kPa = 101
Property: Mass density, kg/m3 (Liquid); method: VIBTUB:UFactor:4
Mole fraction of methyl ethanoate	Mass density, kg/m3	uncertainty
0.058	1024.62	0.28
0.1	1021.03	0.27
0.15	1017.3	0.26
0.2	1013.63	0.26
0.25	1009.78	0.27
0.3	1005.46	0.28
0.35	1001.13	0.28
0.4	996.59	0.28
0.45	992.2	0.28
0.5	987.41	0.29
0.55	982.34	0.29
0.6	977.25	0.3
0.65	972.03	0.31
0.7	966.3	0.32
0.75	960.47	0.32
0.8	954.34	0.33
0.85	947.87	0.34
0.9	941.28	0.35
0.95	934.27	0.36

System: methyl ethanoate + DL-ethyl lactate; phases: Gas, Liquid
Fixed: Pressure, kPa = 101.3
Property: Mole fraction of methyl ethanoate (Gas); method: densimetry and refractometry
Mole fraction of methyl ethanoate	Mole fraction of methyl ethanoate	uncertainty
0	0	0.001
0.011	0.154	0.021
0.043	0.401	0.016
0.077	0.562	0.013
0.112	0.681	0.012
0.153	0.775	0.011
0.185	0.807	0.01
0.261	0.88	0.01
0.289	0.898	0.01
0.323	0.917	0.01
0.35	0.929	0.01
0.409	0.947	0.01
0.464	0.961	0.01
0.54	0.971	0.01
0.596	0.978	0.01
0.695	0.986	0.01
0.743	0.989	0.01
0.785	0.991	0.009
0.822	0.993	0.007
0.914	0.997	0.003
0.955	0.999	0.001
0.979	0.999	0.001
1	1	0.001
