Measured thermophysical data. Vapor-Liquid Equilibrium for Benzaldehyde with 1-Methylethylbenzene and for 2-Methyl-propan-2-ol with 2,4,4-Trimethyl-1-pentene
Source: J. Chem. Eng. Data, 2007, 10.1021/je060359o
Compound 1: benzaldehyde, C7H6O, InChI=1S/C7H6O/c8-6-7-4-2-1-3-5-7/h1-6H
Compound 2: isopropylbenzene, C9H12, InChI=1S/C9H12/c1-8(2)9-6-4-3-5-7-9/h3-8H,1-2H3
Compound 3: 2-methylpropan-2-ol, C4H10O, InChI=1S/C4H10O/c1-4(2,3)5/h5H,1-3H3
Compound 4: 2,4,4-trimethyl-1-pentene, C8H16, InChI=1S/C8H16/c1-7(2)6-8(3,4)5/h1,6H2,2-5H3

System: 2-methylpropan-2-ol; phases: Liquid, Gas
Property: Vapor or sublimation pressure, kPa (Liquid); method: Ebulliometric method (Recirculating still)
Temperature, K	Vapor or sublimation pressure, kPa	uncertainty
305.87	8.957	0.02
310.08	11.512	0.021
313.14	13.717	0.022
316.04	16.106	0.024
319.5	19.431	0.026
322.94	23.276	0.029
326.3	27.62	0.033
329.74	32.736	0.036
333.15	38.574	0.04
336.41	44.935	0.045
339.74	52.288	0.051
343.25	61.091	0.056
346.5	70.274	0.063
349.84	80.847	0.07
353.15	92.534	0.076
355.31	100.91	0.08

System: 2,4,4-trimethyl-1-pentene; phases: Liquid, Gas
Property: Vapor or sublimation pressure, kPa (Liquid); method: Ebulliometric method (Recirculating still)
Temperature, K	Vapor or sublimation pressure, kPa	uncertainty
306.23	8.664	0.018
309.74	10.15	0.018
313.14	11.778	0.019
316.42	13.564	0.02
319.61	15.492	0.021
323.2	17.94	0.022
326.72	20.627	0.023
330.07	23.472	0.024
333.14	26.373	0.026
336.41	29.748	0.027
339.75	33.568	0.029
343.12	37.809	0.032
346.79	42.896	0.034
349.5	47.012	0.036
353.14	53.001	0.039
356.24	58.567	0.04

System: isopropylbenzene + benzaldehyde; phases: Liquid, Gas
Fixed: Temperature, K = 373.15
Property: Vapor or sublimation pressure, kPa (Liquid); method: Ebulliometric method (Recirculating still)
Mole fraction of benzaldehyde	Vapor or sublimation pressure, kPa	uncertainty
0	20.661	0.134
0.1091	19.934	0.131
0.2169	19.097	0.127
0.3001	18.391	0.123
0.3631	17.819	0.12
0.4171	17.277	0.118
0.6214	15.054	0.107
0.6661	14.448	0.104
0.7186	13.683	0.101
0.8414	11.619	0.091
0.9543	9.326	0.081
1	8.4109	0.0756

System: isopropylbenzene + benzaldehyde; phases: Gas, Liquid
Fixed: Temperature, K = 373.15
Property: Mole fraction of benzaldehyde (Gas); method: CHROM:UFactor:6
Mole fraction of benzaldehyde	Mole fraction of benzaldehyde	uncertainty
0	0	0.0001
0.1091	0.0683	0.004
0.2169	0.1256	0.007
0.3001	0.1728	0.0096
0.3631	0.2024	0.0113
0.4171	0.2363	0.0132
0.6214	0.3666	0.0205
0.6661	0.4003	0.0223
0.7186	0.4487	0.025
0.8414	0.6112	0.0217
0.9543	0.8599	0.0079
1	1	0.0001

System: 2-methylpropan-2-ol + 2,4,4-trimethyl-1-pentene; phases: Liquid, Gas
Property: Azeotropic pressure, kPa (Liquid); method: By P(X) extreme
Temperature, K	Azeotropic pressure, kPa	uncertainty
313.16	18.27	0.27
333.14	45.38	0.39
353.18	100.31	0.64

System: 2-methylpropan-2-ol + 2,4,4-trimethyl-1-pentene; phases: Liquid, Gas
Property: Azeotropic composition: mole fraction of 2-methylpropan-2-ol (Liquid); method: By T or P extreme
Temperature, K	Azeotropic composition: mole fraction of 2-methylpropan-2-ol	uncertainty
313.16	0.525	0.011
333.14	0.63	0.011
353.18	0.76	0.01

System: 2-methylpropan-2-ol + 2,4,4-trimethyl-1-pentene; phases: Liquid, Gas
Property: Vapor or sublimation pressure, kPa (Liquid); method: Ebulliometric method (Recirculating still)
Mole fraction of 2-methylpropan-2-ol	Temperature, K	Vapor or sublimation pressure, kPa	uncertainty
0	313.16	11.778	0.086
0	333.14	26.373	0.142
0	353.18	53.002	0.245
0.0728	333.14	36.202	0.187
0.0728	353.18	72.364	0.34
0.0731	313.16	15.833	0.104
0.1576	353.18	82.854	0.366
0.1606	333.14	40.184	0.198
0.1633	313.16	17.142	0.108
0.2583	353.18	89.385	0.389
0.2588	313.16	17.705	0.11
0.2606	333.14	42.499	0.207
0.3349	353.18	92.674	0.401
0.3408	333.14	43.599	0.211
0.3435	313.16	18.02	0.112
0.4042	333.14	44.282	0.214
0.405	353.18	95.065	0.411
0.4059	313.16	18.191	0.112
0.462	353.18	96.659	0.416
0.4627	313.16	18.248	0.113
0.4639	333.14	44.777	0.216
0.5191	333.14	45.07	0.217
0.5225	353.18	98.036	0.403
0.525	313.16	18.272	0.113
0.5253	313.16	18.266	0.113
0.6176	313.16	18.178	0.113
0.6215	333.14	45.375	0.643
0.6264	353.18	99.675	0.429
0.63	333.14	45.38	0.643
0.6911	333.14	45.335	0.218
0.6981	313.16	17.933	0.112
0.6993	353.18	100.236	0.431
0.734	353.18	100.302	0.431
0.7591	333.14	44.874	0.217
0.7645	313.16	17.581	0.11
0.7648	353.18	100.237	0.431
0.7999	333.14	44.398	0.215
0.8	353.18	99.982	0.43
0.8017	313.16	17.27	0.109
0.8399	353.18	99.465	0.428
0.8406	333.14	43.761	0.212
0.8451	313.16	16.795	0.108
0.881	353.18	98.577	0.425
0.8815	333.14	42.854	0.212
0.8861	313.16	16.196	0.106
1	313.16	13.717	0.095
1	333.14	38.574	0.192
1	353.18	92.536	0.401

System: 2-methylpropan-2-ol + 2,4,4-trimethyl-1-pentene; phases: Gas, Liquid
Property: Mole fraction of 2-methylpropan-2-ol (Gas); method: CHROM:UFactor:8
Mole fraction of 2-methylpropan-2-ol	Temperature, K	Mole fraction of 2-methylpropan-2-ol	uncertainty
0	313.16	0	0.001
0	333.14	0	0.001
0	353.18	0	0.001
0.0728	333.14	0.347	0.026
0.0728	353.18	0.316	0.024
0.0731	313.16	0.302	0.023
0.1576	353.18	0.433	0.032
0.1606	333.14	0.447	0.033
0.1633	313.16	0.376	0.028
0.2583	353.18	0.501	0.037
0.2588	313.16	0.422	0.031
0.2606	333.14	0.494	0.037
0.3349	353.18	0.546	0.034
0.3408	333.14	0.521	0.036
0.3435	313.16	0.456	0.034
0.4042	333.14	0.512	0.036
0.405	353.18	0.578	0.031
0.4059	313.16	0.475	0.035
0.462	353.18	0.601	0.03
0.4627	313.16	0.496	0.037
0.4639	333.14	0.581	0.031
0.5191	333.14	0.585	0.031
0.5225	353.18	0.639	0.027
0.525	313.16	0.524	0.035
0.5253	313.16	0.523	0.035
0.6176	313.16	0.55	0.033
0.6215	333.14	0.623	0.028
0.6264	353.18	0.675	0.024
0.63	333.14	0.628	0.028
0.6911	333.14	0.657	0.026
0.6981	313.16	0.597	0.03
0.6993	353.18	0.714	0.021
0.734	353.18	0.734	0.02
0.7591	333.14	0.689	0.023
0.7645	313.16	0.633	0.027
0.7648	353.18	0.753	0.018
0.7999	333.14	0.722	0.021
0.8	353.18	0.777	0.017
0.8017	313.16	0.664	0.025
0.8399	353.18	0.799	0.015
0.8406	333.14	0.759	0.018
0.8451	313.16	0.709	0.022
0.881	353.18	0.813	0.014
0.8815	333.14	0.799	0.015
0.8861	313.16	0.755	0.018
1	313.16	1	0.001
1	333.14	1	0.001
1	353.18	1	0.001
