Measured thermophysical data. Solubiliy of Sodium Cefotaxime in Aqueous 2-Propanol Mixtures
Source: J. Chem. Eng. Data, 2006, 10.1021/je060318s
Compound 1: cefotaxime sodium salt, C16H16N5NaO7S2, InChI=1S/C16H17N5O7S2.Na/c1-6(22)28-3-7-4-29-14-10(13(24)21(14)11(7)15(25)26)19-12(23)9(20-27-2)8-5-30-16(17)18-8;/h5,10,14H,3-4H2,1-2H3,(H2,17,18)(H,19,23)(H,25,26);/q;+1/p-1/b20-9+;/t10-,14-;/m1./s1
Compound 2: water, H2O, InChI=1S/H2O/h1H2
Compound 3: propan-2-ol, C3H8O, InChI=1S/C3H8O/c1-3(2)4/h3-4H,1-2H3

System: propan-2-ol + cefotaxime sodium salt; phases: Liquid, Crystal
Fixed: Pressure, kPa = 101
Property: Mole fraction of cefotaxime sodium salt (Liquid); method: laser intensity
Temperature, K	Mole fraction of cefotaxime sodium salt	uncertainty
278.15	4.8e-07	5e-08
283.15	7.8e-07	8e-08
288.15	1.07e-06	1.1e-07
293.15	1.61e-06	1.6e-07
298.15	2.07e-06	2.1e-07
303.15	2.99e-06	3e-07
308.15	3.57e-06	3.6e-07

System: propan-2-ol + water + cefotaxime sodium salt; phases: Liquid, Crystal
Fixed: Pressure, kPa = 101
Property: Mole fraction of cefotaxime sodium salt (Liquid); method: laser intensity
Solvent: Mole fraction of propan-2-ol	Temperature, K	Mole fraction of cefotaxime sodium salt	uncertainty
0.0256	278.15	0.00902	0.001023
0.0256	283.15	0.01038	0.00118
0.0256	288.15	0.01125	0.00128
0.0256	293.15	0.01282	0.00146
0.0256	298.15	0.01379	0.00157
0.0256	303.15	0.01508	0.00171
0.0256	308.15	0.01685	0.00191
0.0998	278.15	0.0056	0.000616
0.0998	283.15	0.00667	0.000734
0.0998	288.15	0.00773	0.000851
0.0998	293.15	0.00911	0.001003
0.0998	298.15	0.01054	0.00116
0.0998	303.15	0.01205	0.00133
0.0998	308.15	0.01369	0.00151
0.1987	278.15	0.00347	0.000372
0.1987	283.15	0.00408	0.000437
0.1987	288.15	0.00475	0.000509
0.1987	293.15	0.00581	0.000623
0.1987	298.15	0.00683	0.00073
0.1987	303.15	0.00792	0.000849
0.1987	308.15	0.00917	0.000983
0.3015	278.15	0.0022	0.000232
0.3015	283.15	0.00266	0.00028
0.3015	288.15	0.00307	0.000323
0.3015	293.15	0.00356	0.000375
0.3015	298.15	0.00408	0.00043
0.3015	303.15	0.00494	0.00052
0.3015	308.15	0.00567	0.000597
0.4068	278.15	0.00127	0.000132
0.4068	283.15	0.00136	0.000142
0.4068	288.15	0.00157	0.000163
0.4068	293.15	0.00182	0.000189
0.4068	298.15	0.0021	0.000219
0.4068	303.15	0.00266	0.000277
0.4068	308.15	0.00309	0.000322
0.5105	278.15	0.000542	5.6e-05
0.5105	283.15	0.000586	6.05e-05
0.5105	288.15	0.000664	6.86e-05
0.5105	293.15	0.000765	7.9e-05
0.5105	298.15	0.00097	0.0001001
0.5105	303.15	0.00103	0.000106
0.5105	308.15	0.00123	0.000127
0.6032	278.15	6.85e-05	7.03e-06
0.6032	283.15	0.000113	1.16e-05
0.6032	288.15	0.000124	1.27e-05
0.6032	293.15	0.000259	2.66e-05
0.6032	298.15	0.000293	3.01e-05
0.6032	303.15	0.000251	2.58e-05
0.6032	308.15	0.000311	3.19e-05
0.6986	278.15	3.25e-05	3.32e-06
0.6986	283.15	7.03e-05	7.19e-06
0.6986	288.15	0.000104	1.06e-05
0.6986	293.15	0.000109	1.11e-05
0.6986	298.15	0.000113	1.16e-05
0.6986	303.15	0.000151	1.54e-05
0.6986	308.15	0.000205	2.1e-05
0.8023	278.15	1.25e-05	1.27e-06
0.8023	283.15	1.5e-05	1.53e-06
0.8023	288.15	1.76e-05	1.79e-06
0.8023	293.15	1.79e-05	1.82e-06
0.8023	298.15	1.91e-05	1.95e-06
0.8023	303.15	2.15e-05	2.19e-06
0.8023	308.15	2.45e-05	2.5e-06
0.9105	278.15	4.68e-06	4.8e-07
0.9105	283.15	8.68e-06	8.8e-07
0.9105	288.15	1.33e-05	1.35e-06
0.9105	293.15	1.57e-05	1.6e-06
0.9105	298.15	1.93e-05	1.96e-06
0.9105	303.15	2.63e-05	2.67e-06
0.9105	308.15	2.97e-05	3.02e-06
1	278.15	4.8e-07	5e-08
1	283.15	7.8e-07	8e-08
1	288.15	1.07e-06	1.1e-07
1	293.15	1.61e-06	1.6e-07
1	298.15	2.07e-06	2.1e-07
1	303.15	2.99e-06	3e-07
1	308.15	3.57e-06	3.6e-07
