Measured thermophysical data. Vapor-Liquid-Liquid Equilibria of Hydrofluorocarbons + 1-Butyl-3-methylimidazolium Hexafluorophosphate
Source: J. Chem. Eng. Data, 2006, 10.1021/je060275f
Compound 1: 1-butyl-3-methylimidazolium hexafluorophosphate, C8H15F6N2P, InChI=1S/C8H15N2.F6P/c1-3-4-5-10-7-6-9(2)8-10;1-7(2,3,4,5)6/h6-8H,3-5H2,1-2H3;/q+1;-1
Compound 2: 1,1,1,2-tetrafluoroethane, C2H2F4, InChI=1S/C2H2F4/c3-1-2(4,5)6/h1H2, purity 99.9%
Compound 3: 1,1,1-trifluoroethane, C2H3F3, InChI=1S/C2H3F3/c1-2(3,4)5/h1H3, purity 99%
Compound 4: 1,1-difluoroethane, C2H4F2, InChI=1S/C2H4F2/c1-2(3)4/h2H,1H3, purity 99.9%
Compound 5: fluoromethane, CH3F, InChI=1S/CH3F/c1-2/h1H3
Compound 6: fluoroethane, C2H5F, InChI=1S/C2H5F/c1-2-3/h2H2,1H3

System: fluoromethane + 1-butyl-3-methylimidazolium hexafluorophosphate; phases: Liquid mixture 1, Liquid mixture 2, Gas
Property: Molar volume, m3/mol (Liquid mixture 1); method: volume-mass measurement method
Temperature, K	Molar volume, m3/mol	uncertainty
243.2	6.76e-05	2e-06
263.2	7.12e-05	2e-06
294.1	8.27e-05	2e-06

System: fluoromethane + 1-butyl-3-methylimidazolium hexafluorophosphate; phases: Liquid mixture 2, Liquid mixture 1, Gas
Property: Molar volume, m3/mol (Liquid mixture 2); method: volume-mass measurement method
Temperature, K	Molar volume, m3/mol	uncertainty
243.2	4.38e-05	2e-06
263.2	4.78e-05	2e-06
294.1	5.59e-05	2e-06

System: fluoromethane + 1-butyl-3-methylimidazolium hexafluorophosphate; phases: Liquid mixture 1, Liquid mixture 2, Gas
Property: Mole fraction of fluoromethane (Liquid mixture 1); method: volume-mass measurement method
Temperature, K	Mole fraction of fluoromethane	uncertainty
243.2	0.818	0.02
263.2	0.807	0.02
294.1	0.746	0.02

System: fluoromethane + 1-butyl-3-methylimidazolium hexafluorophosphate; phases: Liquid mixture 2, Liquid mixture 1, Gas
Property: Mole fraction of fluoromethane (Liquid mixture 2); method: volume-mass measurement method
Temperature, K	Mole fraction of fluoromethane	uncertainty
243.2	1	0.001
263.2	0.999	0.001
294.1	1	0.001

System: 1,1,1,2-tetrafluoroethane + 1-butyl-3-methylimidazolium hexafluorophosphate; phases: Liquid mixture 1, Liquid mixture 2, Gas
Property: Molar volume, m3/mol (Liquid mixture 1); method: volume-mass measurement method
Temperature, K	Molar volume, m3/mol	uncertainty
318.2	0.0001147	1e-05
333.8	0.0001274	6e-06
355	0.000139	1e-05

System: 1,1,1,2-tetrafluoroethane + 1-butyl-3-methylimidazolium hexafluorophosphate; phases: Liquid mixture 2, Liquid mixture 1, Gas
Property: Molar volume, m3/mol (Liquid mixture 2); method: volume-mass measurement method
Temperature, K	Molar volume, m3/mol	uncertainty
318.2	8.85e-05	1e-05
333.8	9.66e-05	3e-06
355	0.0001107	1e-05

System: 1,1,1,2-tetrafluoroethane + 1-butyl-3-methylimidazolium hexafluorophosphate; phases: Liquid mixture 1, Liquid mixture 2, Gas
Property: Mole fraction of 1,1,1,2-tetrafluoroethane (Liquid mixture 1); method: volume-mass measurement method
Temperature, K	Mole fraction of 1,1,1,2-tetrafluoroethane	uncertainty
318.2	0.695	0.04
333.8	0.638	0.04
355	0.575	0.04

System: 1,1,1,2-tetrafluoroethane + 1-butyl-3-methylimidazolium hexafluorophosphate; phases: Liquid mixture 2, Liquid mixture 1, Gas
Property: Mole fraction of 1,1,1,2-tetrafluoroethane (Liquid mixture 2); method: volume-mass measurement method
Temperature, K	Mole fraction of 1,1,1,2-tetrafluoroethane	uncertainty
318.2	1	0.001
333.8	0.994	0.006
355	0.991	0.009

System: 1,1,1-trifluoroethane + 1-butyl-3-methylimidazolium hexafluorophosphate; phases: Liquid mixture 1, Liquid mixture 2, Gas
Property: Molar volume, m3/mol (Liquid mixture 1); method: volume-mass measurement method
Temperature, K	Molar volume, m3/mol	uncertainty
291.8	0.0001631	2e-06
324.6	0.0001788	2e-06
338.6	0.0001813	2e-06

System: 1,1,1-trifluoroethane + 1-butyl-3-methylimidazolium hexafluorophosphate; phases: Liquid mixture 2, Liquid mixture 1, Gas
Property: Molar volume, m3/mol (Liquid mixture 2); method: volume-mass measurement method
Temperature, K	Molar volume, m3/mol	uncertainty
291.8	8.92e-05	2e-06
324.6	0.0001056	2e-06
338.6	0.0001241	2e-06

System: 1,1,1-trifluoroethane + 1-butyl-3-methylimidazolium hexafluorophosphate; phases: Liquid mixture 1, Liquid mixture 2, Gas
Property: Mole fraction of 1,1,1-trifluoroethane (Liquid mixture 1); method: volume-mass measurement method
Temperature, K	Mole fraction of 1,1,1-trifluoroethane	uncertainty
291.8	0.29	0.02
324.6	0.258	0.02
338.6	0.24	0.02

System: 1,1,1-trifluoroethane + 1-butyl-3-methylimidazolium hexafluorophosphate; phases: Liquid mixture 2, Liquid mixture 1, Gas
Property: Mole fraction of 1,1,1-trifluoroethane (Liquid mixture 2); method: volume-mass measurement method
Temperature, K	Mole fraction of 1,1,1-trifluoroethane	uncertainty
291.8	1	0.001
324.6	1	0.001
338.6	1	0.001

System: 1,1-difluoroethane + 1-butyl-3-methylimidazolium hexafluorophosphate; phases: Liquid mixture 1, Liquid mixture 2, Gas
Property: Molar volume, m3/mol (Liquid mixture 1); method: volume-mass measurement method
Temperature, K	Molar volume, m3/mol	uncertainty
318.3	8.05e-05	1e-05
333.8	9.32e-05	6e-06
354.9	0.0001182	1e-05

System: 1,1-difluoroethane + 1-butyl-3-methylimidazolium hexafluorophosphate; phases: Liquid mixture 2, Liquid mixture 1, Gas
Property: Molar volume, m3/mol (Liquid mixture 2); method: volume-mass measurement method
Temperature, K	Molar volume, m3/mol	uncertainty
318.3	7.8e-05	1e-05
333.8	7.66e-05	1e-05
354.9	7.86e-05	1e-05

System: 1,1-difluoroethane + 1-butyl-3-methylimidazolium hexafluorophosphate; phases: Liquid mixture 1, Liquid mixture 2, Gas
Property: Mole fraction of 1,1-difluoroethane (Liquid mixture 1); method: volume-mass measurement method
Temperature, K	Mole fraction of 1,1-difluoroethane	uncertainty
318.3	0.774	0.02
333.8	0.722	0.02
354.9	0.676	0.02

System: 1,1-difluoroethane + 1-butyl-3-methylimidazolium hexafluorophosphate; phases: Liquid mixture 2, Liquid mixture 1, Gas
Property: Mole fraction of 1,1-difluoroethane (Liquid mixture 2); method: volume-mass measurement method
Temperature, K	Mole fraction of 1,1-difluoroethane	uncertainty
318.3	0.961	0.02
333.8	0.95	0.02
354.9	0.987	0.013

System: fluoroethane + 1-butyl-3-methylimidazolium hexafluorophosphate; phases: Liquid mixture 1, Liquid mixture 2, Gas
Property: Molar volume, m3/mol (Liquid mixture 1); method: volume-mass measurement method
Temperature, K	Molar volume, m3/mol	uncertainty
243.2	7.23e-05	6e-06
263.2	7.8e-05	2e-06
293.7	8.31e-05	2e-06
324.6	0.0001046	1e-05
338.6	0.0001204	3e-05

System: fluoroethane + 1-butyl-3-methylimidazolium hexafluorophosphate; phases: Liquid mixture 2, Liquid mixture 1, Gas
Property: Molar volume, m3/mol (Liquid mixture 2); method: volume-mass measurement method
Temperature, K	Molar volume, m3/mol	uncertainty
243.2	4.97e-05	4e-06
263.2	5.26e-05	2e-06
293.7	5.97e-05	2e-06
324.6	7.36e-05	1e-05
338.6	8.17e-05	1e-05

System: fluoroethane + 1-butyl-3-methylimidazolium hexafluorophosphate; phases: Liquid mixture 1, Liquid mixture 2, Gas
Property: Mole fraction of fluoroethane (Liquid mixture 1); method: volume-mass measurement method
Temperature, K	Mole fraction of fluoroethane	uncertainty
243.2	0.761	0.04
263.2	0.718	0.02
293.7	0.689	0.02
324.6	0.625	0.02
338.6	0.608	0.02

System: fluoroethane + 1-butyl-3-methylimidazolium hexafluorophosphate; phases: Liquid mixture 2, Liquid mixture 1, Gas
Property: Mole fraction of fluoroethane (Liquid mixture 2); method: volume-mass measurement method
Temperature, K	Mole fraction of fluoroethane	uncertainty
243.2	1	0.001
263.2	1	0.001
293.7	1	0.001
324.6	1	0.001
338.6	1	0.001
