Measured thermophysical data. Densities, Viscosities, and Sound Speeds of Some Acetate Salts in Binary Mixtures of Tetrahydrofuran and Methanol at (303.15, 313.15, and 323.15) K
Source: J. Chem. Eng. Data, 2006, 10.1021/je060113j
Compound 1: 1,2-ethanediol, C2H6O2, InChI=1S/C2H6O2/c3-1-2-4/h3-4H,1-2H2
Compound 2: tetrahydrofuran, C4H8O, InChI=1S/C4H8O/c1-2-4-5-3-1/h1-4H2
Compound 3: 1,4-dioxane, C4H8O2, InChI=1S/C4H8O2/c1-2-6-4-3-5-1/h1-4H2
Compound 4: dimethylformamide, C3H7NO, InChI=1S/C3H7NO/c1-4(2)3-5/h3H,1-2H3
Compound 5: dimethyl sulfoxide, C2H6OS, InChI=1S/C2H6OS/c1-4(2)3/h1-2H3
Compound 6: water, H2O, InChI=1S/H2O/h1H2

System: 1,2-ethanediol; phases: Liquid
Fixed: Pressure, kPa = 101.325
Property: Viscosity, Pa*s (Liquid); method: Capillary tube (Ostwald; Ubbelohde) method
Temperature, K	Viscosity, Pa*s	uncertainty
298.15	0.0163876	0.0001091
308.15	0.0107719	7.36e-05
318.15	0.0077029	5.42e-05

System: 1,2-ethanediol; phases: Liquid
Property: Speed of sound, m/s (Liquid); method: Sing-around technique in a fixed-path interferometer
Temperature, K	Pressure, kPa	Speed of sound, m/s	uncertainty
298.15	101.325	1666	1.3

System: 1,2-ethanediol; phases: Liquid
Fixed: Pressure, kPa = 101.325
Property: Mass density, kg/m3 (Liquid); method: Pycnometric method
Temperature, K	Mass density, kg/m3	uncertainty
298.15	1106.3	0.6
308.15	1102.9	0.6
318.15	1096.4	0.6

System: tetrahydrofuran; phases: Liquid
Fixed: Pressure, kPa = 101.325
Property: Viscosity, Pa*s (Liquid); method: Capillary tube (Ostwald; Ubbelohde) method
Temperature, K	Viscosity, Pa*s	uncertainty
298.15	0.000463	4e-06
308.15	0.0004277	3.8e-06
318.15	0.0003902	3.5e-06

System: tetrahydrofuran; phases: Liquid
Property: Speed of sound, m/s (Liquid); method: Sing-around technique in a fixed-path interferometer
Temperature, K	Pressure, kPa	Speed of sound, m/s	uncertainty
298.15	101.325	1279	1.2

System: tetrahydrofuran; phases: Liquid
Fixed: Pressure, kPa = 101.325
Property: Mass density, kg/m3 (Liquid); method: Pycnometric method
Temperature, K	Mass density, kg/m3	uncertainty
298.15	880.7	0.4
308.15	871.2	0.5
318.15	861.4	0.5

System: 1,4-dioxane; phases: Liquid
Fixed: Pressure, kPa = 101.325
Property: Viscosity, Pa*s (Liquid); method: Capillary tube (Ostwald; Ubbelohde) method
Temperature, K	Viscosity, Pa*s	uncertainty
298.15	0.0012236	9.6e-06
308.15	0.0009268	7.4e-06
318.15	0.0007991	6.5e-06

System: 1,4-dioxane; phases: Liquid
Property: Speed of sound, m/s (Liquid); method: Sing-around technique in a fixed-path interferometer
Temperature, K	Pressure, kPa	Speed of sound, m/s	uncertainty
298.15	101.325	1344	1.2

System: 1,4-dioxane; phases: Liquid
Fixed: Pressure, kPa = 101.325
Property: Mass density, kg/m3 (Liquid); method: Pycnometric method
Temperature, K	Mass density, kg/m3	uncertainty
298.15	1027.3	0.5
308.15	1016	0.5
318.15	1005.6	0.5

System: dimethylformamide; phases: Liquid
Fixed: Pressure, kPa = 101.325
Property: Viscosity, Pa*s (Liquid); method: Capillary tube (Ostwald; Ubbelohde) method
Temperature, K	Viscosity, Pa*s	uncertainty
298.15	0.0008586	6.9e-06
308.15	0.0007763	6.3e-06
318.15	0.0007125	5.8e-06

System: dimethylformamide; phases: Liquid
Property: Speed of sound, m/s (Liquid); method: Sing-around technique in a fixed-path interferometer
Temperature, K	Pressure, kPa	Speed of sound, m/s	uncertainty
298.15	101.325	1465	1.2

System: dimethylformamide; phases: Liquid
Fixed: Pressure, kPa = 101.325
Property: Mass density, kg/m3 (Liquid); method: Pycnometric method
Temperature, K	Mass density, kg/m3	uncertainty
298.15	946.1	0.5
308.15	939.9	0.5
318.15	931.6	0.5

System: dimethyl sulfoxide; phases: Liquid
Fixed: Pressure, kPa = 101.325
Property: Viscosity, Pa*s (Liquid); method: Capillary tube (Ostwald; Ubbelohde) method
Temperature, K	Viscosity, Pa*s	uncertainty
298.15	0.0020418	1.56e-05
308.15	0.0015682	1.21e-05
318.15	0.0014847	1.15e-05

System: dimethyl sulfoxide; phases: Liquid
Property: Speed of sound, m/s (Liquid); method: Sing-around technique in a fixed-path interferometer
Temperature, K	Pressure, kPa	Speed of sound, m/s	uncertainty
298.15	101.325	1493	1.2

System: dimethyl sulfoxide; phases: Liquid
Fixed: Pressure, kPa = 101.325
Property: Mass density, kg/m3 (Liquid); method: Pycnometric method
Temperature, K	Mass density, kg/m3	uncertainty
298.15	1095.4	0.6
308.15	1085.9	0.6
318.15	1076.7	0.6

System: water; phases: Liquid
Fixed: Pressure, kPa = 101.325
Property: Viscosity, Pa*s (Liquid); method: Capillary tube (Ostwald; Ubbelohde) method
Temperature, K	Viscosity, Pa*s	uncertainty
298.15	0.0008904	7.1e-06
308.15	0.0007194	5.9e-06
318.15	0.000596	5e-06

System: water; phases: Liquid
Property: Speed of sound, m/s (Liquid); method: Sing-around technique in a fixed-path interferometer
Temperature, K	Pressure, kPa	Speed of sound, m/s	uncertainty
298.15	101.325	1498	1.2

System: water; phases: Liquid
Fixed: Pressure, kPa = 101.325
Property: Mass density, kg/m3 (Liquid); method: Pycnometric method
Temperature, K	Mass density, kg/m3	uncertainty
298.15	997.1	0.5
308.15	994.1	0.5
318.15	990.3	0.5

System: 1,2-ethanediol + tetrahydrofuran; phases: Liquid
Fixed: Mole fraction of 1,2-ethanediol = 0.5374
Fixed: Pressure, kPa = 101
Property: Viscosity, Pa*s (Liquid); method: Capillary tube (Ostwald; Ubbelohde) method
Temperature, K	Viscosity, Pa*s	uncertainty
298.15	0.0025089	1.9e-05
308.15	0.0018657	1.43e-05
318.15	0.001558	1.2e-05

System: 1,2-ethanediol + tetrahydrofuran; phases: Liquid
Property: Speed of sound, m/s (Liquid); method: Sing-around technique in a fixed-path interferometer
Mole fraction of 1,2-ethanediol	Pressure, kPa	Temperature, K	Speed of sound, m/s	uncertainty
0.5374	101	298.15	1436.8	1.2

System: 1,2-ethanediol + tetrahydrofuran; phases: Liquid
Fixed: Mole fraction of 1,2-ethanediol = 0.5374
Fixed: Pressure, kPa = 101
Property: Mass density, kg/m3 (Liquid); method: Pycnometric method
Temperature, K	Mass density, kg/m3	uncertainty
298.15	984.5	0.5
308.15	974.1	0.5
318.15	964.9	0.5

System: 1,2-ethanediol + 1,4-dioxane; phases: Liquid
Fixed: Mole fraction of 1,2-ethanediol = 0.5867
Fixed: Pressure, kPa = 101
Property: Viscosity, Pa*s (Liquid); method: Capillary tube (Ostwald; Ubbelohde) method
Temperature, K	Viscosity, Pa*s	uncertainty
298.15	0.0043863	3.26e-05
308.15	0.0033599	2.52e-05
318.15	0.0026606	2.01e-05

System: 1,2-ethanediol + 1,4-dioxane; phases: Liquid
Property: Speed of sound, m/s (Liquid); method: Sing-around technique in a fixed-path interferometer
Mole fraction of 1,2-ethanediol	Pressure, kPa	Temperature, K	Speed of sound, m/s	uncertainty
0.5867	101	298.15	1519.2	1.3

System: 1,2-ethanediol + 1,4-dioxane; phases: Liquid
Fixed: Mole fraction of 1,2-ethanediol = 0.5867
Fixed: Pressure, kPa = 101
Property: Mass density, kg/m3 (Liquid); method: Pycnometric method
Temperature, K	Mass density, kg/m3	uncertainty
298.15	1070.9	0.5
308.15	1060.4	0.6
318.15	1050.9	0.6

System: dimethylformamide + 1,2-ethanediol; phases: Liquid
Fixed: Mole fraction of 1,2-ethanediol = 0.5408
Fixed: Pressure, kPa = 101
Property: Viscosity, Pa*s (Liquid); method: Capillary tube (Ostwald; Ubbelohde) method
Temperature, K	Viscosity, Pa*s	uncertainty
298.15	0.0030647	2.3e-05
308.15	0.0024529	1.86e-05
318.15	0.0019599	1.5e-05

System: dimethylformamide + 1,2-ethanediol; phases: Liquid
Property: Speed of sound, m/s (Liquid); method: Sing-around technique in a fixed-path interferometer
Mole fraction of 1,2-ethanediol	Pressure, kPa	Temperature, K	Speed of sound, m/s	uncertainty
0.5408	101	298.15	1584.4	1.3

System: dimethylformamide + 1,2-ethanediol; phases: Liquid
Fixed: Mole fraction of 1,2-ethanediol = 0.5408
Fixed: Pressure, kPa = 101
Property: Mass density, kg/m3 (Liquid); method: Pycnometric method
Temperature, K	Mass density, kg/m3	uncertainty
298.15	1024.8	0.5
308.15	1016.8	0.5
318.15	1008.2	0.5

System: dimethyl sulfoxide + 1,2-ethanediol; phases: Liquid
Fixed: Mole fraction of 1,2-ethanediol = 0.5573
Fixed: Pressure, kPa = 101
Property: Viscosity, Pa*s (Liquid); method: Capillary tube (Ostwald; Ubbelohde) method
Temperature, K	Viscosity, Pa*s	uncertainty
298.15	0.0051947	0.03
308.15	0.0039014	0.03
318.15	0.0031081	0.03

System: dimethyl sulfoxide + 1,2-ethanediol; phases: Liquid
Property: Speed of sound, m/s (Liquid); method: Sing-around technique in a fixed-path interferometer
Mole fraction of 1,2-ethanediol	Pressure, kPa	Temperature, K	Speed of sound, m/s	uncertainty
0.5573	101	298.15	1617.3	1.3

System: dimethyl sulfoxide + 1,2-ethanediol; phases: Liquid
Fixed: Mole fraction of 1,2-ethanediol = 0.5573
Fixed: Pressure, kPa = 101
Property: Mass density, kg/m3 (Liquid); method: Pycnometric method
Temperature, K	Mass density, kg/m3	uncertainty
298.15	1108.5	0.6
308.15	1098.9	0.6
318.15	1089.6	0.6

System: 1,2-ethanediol + tetrahydrofuran + water; phases: Liquid
Fixed: Pressure, kPa = 101
Fixed: Temperature, K = 298.15
Property: Speed of sound, m/s (Liquid); method: Sing-around technique in a fixed-path interferometer
Mole fraction of water	Mole fraction of 1,2-ethanediol	Speed of sound, m/s	uncertainty
0	0.5374	1436.8	1.2
0.2917	0.3807	1502.4	1.2
0.4809	0.2789	1554.8	1.3
0.6137	0.2076	1592.8	1.3
0.7119	0.1548	1623.9	1.3
0.7875	0.1142	1652	1.3
0.8476	0.0819	1663	1.3
0.8964	0.0557	1633.2	1.3
0.9368	0.0339	1593.7	1.3
0.9709	0.0156	1546.3	1.3
1	0	1498	1.2

System: 1,2-ethanediol + tetrahydrofuran + water; phases: Liquid
Fixed: Pressure, kPa = 101
Property: Viscosity, Pa*s (Liquid); method: Capillary tube (Ostwald; Ubbelohde) method
Temperature, K	Mole fraction of water	Mole fraction of 1,2-ethanediol	Viscosity, Pa*s	uncertainty
298.15	0	0.5374	0.0025089	1.9e-05
298.15	0.2917	0.3807	0.0030132	2.27e-05
298.15	0.4809	0.2789	0.0032529	2.44e-05
298.15	0.6137	0.2076	0.0032052	2.41e-05
298.15	0.7119	0.1548	0.0028614	2.15e-05
298.15	0.7875	0.1142	0.0025922	1.96e-05
298.15	0.8476	0.0819	0.0022505	1.71e-05
298.15	0.8964	0.0557	0.0018361	1.41e-05
298.15	0.9368	0.0339	0.0015022	1.17e-05
298.15	0.9709	0.0156	0.0011334	9e-06
298.15	1	0	0.0008904	7.1e-06
308.15	0	0.5374	0.0018657	1.43e-05
308.15	0.2917	0.3807	0.0021278	1.62e-05
308.15	0.4809	0.2789	0.0022389	1.7e-05
308.15	0.6137	0.2076	0.0020902	1.6e-05
308.15	0.7119	0.1548	0.0020876	1.59e-05
308.15	0.7875	0.1142	0.0018937	1.45e-05
308.15	0.8476	0.0819	0.0016581	1.28e-05
308.15	0.8964	0.0557	0.0013794	1.08e-05
308.15	0.9368	0.0339	0.0011586	9.2e-06
308.15	0.9709	0.0156	0.0009263	7.4e-06
308.15	1	0	0.0007194	5.9e-06
318.15	0	0.5374	0.001558	1.2e-05
318.15	0.2917	0.3807	0.0017702	1.36e-05
318.15	0.4809	0.2789	0.0018577	1.42e-05
318.15	0.6137	0.2076	0.0017386	1.34e-05
318.15	0.7119	0.1548	0.0016777	1.29e-05
318.15	0.7875	0.1142	0.0014754	1.14e-05
318.15	0.8476	0.0819	0.0013085	1.02e-05
318.15	0.8964	0.0557	0.0011199	8.8e-06
318.15	0.9368	0.0339	0.0009499	7.6e-06
318.15	0.9709	0.0156	0.0007761	6.3e-06
318.15	1	0	0.000596	5e-06

System: 1,2-ethanediol + tetrahydrofuran + water; phases: Liquid
Fixed: Pressure, kPa = 101
Property: Mass density, kg/m3 (Liquid); method: Pycnometric method
Temperature, K	Mole fraction of water	Mole fraction of 1,2-ethanediol	Mass density, kg/m3	uncertainty
298.15	0	0.5374	984.5	0.5
298.15	0.2917	0.3807	991.4	0.5
298.15	0.4809	0.2789	996.4	0.5
298.15	0.6137	0.2076	1000.9	0.5
298.15	0.7119	0.1548	1003.5	0.5
298.15	0.7875	0.1142	1004.8	0.5
298.15	0.8476	0.0819	1005.2	0.5
298.15	0.8964	0.0557	1003	1
298.15	0.9368	0.0339	1001	1
298.15	0.9709	0.0156	999	1
298.15	1	0	997.1	0.5
308.15	0	0.5374	974.1	0.5
308.15	0.2917	0.3807	981.2	0.5
308.15	0.4809	0.2789	988.3	0.5
308.15	0.6137	0.2076	992.7	0.5
308.15	0.7119	0.1548	993.8	0.5
308.15	0.7875	0.1142	994.9	0.5
308.15	0.8476	0.0819	995.6	0.5
308.15	0.8964	0.0557	995.7	0.5
308.15	0.9368	0.0339	994.6	0.5
308.15	0.9709	0.0156	994.4	0.5
308.15	1	0	994.1	0.5
318.15	0	0.5374	964.9	0.5
318.15	0.2917	0.3807	971.2	0.5
318.15	0.4809	0.2789	978.9	0.5
318.15	0.6137	0.2076	984.2	0.5
318.15	0.7119	0.1548	986.8	0.5
318.15	0.7875	0.1142	987.5	0.5
318.15	0.8476	0.0819	987.9	0.5
318.15	0.8964	0.0557	987.7	0.5
318.15	0.9368	0.0339	987.8	0.5
318.15	0.9709	0.0156	988.8	0.5
318.15	1	0	990.3	0.5

System: 1,2-ethanediol + 1,4-dioxane + water; phases: Liquid
Fixed: Pressure, kPa = 101
Fixed: Temperature, K = 298.15
Property: Speed of sound, m/s (Liquid); method: Sing-around technique in a fixed-path interferometer
Mole fraction of water	Mole fraction of 1,2-ethanediol	Speed of sound, m/s	uncertainty
0	0.5867	1519.2	1.3
0.3102	0.4047	1578.7	1.3
0.5029	0.2917	1617.9	1.3
0.6343	0.2146	1644.4	1.3
0.7296	0.1587	1671.4	1.3
0.8018	0.1163	1691	1.3
0.8585	0.0829	1697.6	1.3
0.9042	0.0562	1659.1	1.3
0.9418	0.0341	1606.2	1.3
0.9733	0.0157	1559.8	1.3
1	0	1498	1.2

System: 1,2-ethanediol + 1,4-dioxane + water; phases: Liquid
Fixed: Pressure, kPa = 101
Property: Viscosity, Pa*s (Liquid); method: Capillary tube (Ostwald; Ubbelohde) method
Temperature, K	Mole fraction of water	Mole fraction of 1,2-ethanediol	Viscosity, Pa*s	uncertainty
298.15	0	0.5867	0.0043863	3.25e-05
298.15	0.3102	0.4047	0.0046841	3.47e-05
298.15	0.5029	0.2917	0.0044134	3.28e-05
298.15	0.6343	0.2146	0.0040934	3.05e-05
298.15	0.7296	0.1587	0.003512	2.63e-05
298.15	0.8018	0.1163	0.003015	2.27e-05
298.15	0.8585	0.0829	0.0025926	1.96e-05
298.15	0.9042	0.0562	0.0020955	1.6e-05
298.15	0.9418	0.0341	0.0016589	1.28e-05
298.15	0.9733	0.0157	0.0013144	1.04e-05
298.15	1	0	0.0008904	7.1e-06
308.15	0	0.5867	0.0033599	2.52e-05
308.15	0.3102	0.4047	0.0033688	2.52e-05
308.15	0.5029	0.2917	0.0032323	2.42e-05
308.15	0.6343	0.2146	0.002989	2.25e-05
308.15	0.7296	0.1587	0.0026999	2.04e-05
308.15	0.8018	0.1163	0.0023145	1.76e-05
308.15	0.8585	0.0829	0.0020389	1.56e-05
308.15	0.9042	0.0562	0.0016466	1.27e-05
308.15	0.9418	0.0341	0.0013502	1.06e-05
308.15	0.9733	0.0157	0.0010865	8.7e-06
308.15	1	0	0.0007194	5.9e-06
318.15	0	0.5867	0.0026606	2.01e-05
318.15	0.3102	0.4047	0.0026591	2.01e-05
318.15	0.5029	0.2917	0.0025678	1.94e-05
318.15	0.6343	0.2146	0.0024148	1.83e-05
318.15	0.7296	0.1587	0.0021916	1.67e-05
318.15	0.8018	0.1163	0.0019302	1.48e-05
318.15	0.8585	0.0829	0.0017051	1.31e-05
318.15	0.9042	0.0562	0.0014275	1.11e-05
318.15	0.9418	0.0341	0.0011692	9.2e-06
318.15	0.9733	0.0157	0.0009308	7.5e-06
318.15	1	0	0.000596	5e-06

System: 1,2-ethanediol + 1,4-dioxane + water; phases: Liquid
Fixed: Pressure, kPa = 101
Property: Mass density, kg/m3 (Liquid); method: Pycnometric method
Temperature, K	Mole fraction of water	Mole fraction of 1,2-ethanediol	Mass density, kg/m3	uncertainty
298.15	0	0.5867	1070.9	0.5
298.15	0.3102	0.4047	1069.5	0.5
298.15	0.5029	0.2917	1066.6	0.5
298.15	0.6343	0.2146	1062.4	0.5
298.15	0.7296	0.1587	1056.7	0.5
298.15	0.8018	0.1163	1048.8	0.5
298.15	0.8585	0.0829	1039.7	0.5
298.15	0.9042	0.0562	1030.2	0.5
298.15	0.9418	0.0341	1019.3	0.5
298.15	0.9733	0.0157	1007.6	0.5
298.15	1	0	997.1	0.5
308.15	0	0.5867	1060.4	0.6
308.15	0.3102	0.4047	1060	1
308.15	0.5029	0.2917	1058.3	0.6
308.15	0.6343	0.2146	1054.6	0.6
308.15	0.7296	0.1587	1047.5	0.5
308.15	0.8018	0.1163	1040.4	0.5
308.15	0.8585	0.0829	1032.3	0.5
308.15	0.9042	0.0562	1022.5	0.5
308.15	0.9418	0.0341	1012.9	0.5
308.15	0.9733	0.0157	1003.3	0.5
308.15	1	0	994.1	0.5
318.15	0	0.5867	1050.9	0.6
318.15	0.3102	0.4047	1049.8	0.6
318.15	0.5029	0.2917	1049.2	0.6
318.15	0.6343	0.2146	1045.7	0.6
318.15	0.7296	0.1587	1039.6	0.6
318.15	0.8018	0.1163	1032.8	0.6
318.15	0.8585	0.0829	1024.9	0.6
318.15	0.9042	0.0562	1016.2	0.5
318.15	0.9418	0.0341	1007.2	0.5
318.15	0.9733	0.0157	998.3	0.5
318.15	1	0	990.3	0.5

System: dimethylformamide + 1,2-ethanediol + water; phases: Liquid
Fixed: Pressure, kPa = 101
Fixed: Temperature, K = 298.15
Property: Speed of sound, m/s (Liquid); method: Sing-around technique in a fixed-path interferometer
Mole fraction of water	Mole fraction of 1,2-ethanediol	Speed of sound, m/s	uncertainty
0	0.5408	1584.4	1.3
0.2929	0.3824	1650.9	1.3
0.4825	0.2799	1688.8	1.3
0.6152	0.2081	1713.8	1.3
0.7132	0.1551	1733.4	1.3
0.7886	0.1143	1752.5	1.3
0.8484	0.082	1756.6	1.3
0.8969	0.0557	1705.3	1.3
0.9372	0.0339	1641.9	1.3
0.9711	0.0156	1576.5	1.3
1	0	1498	1.2

System: dimethylformamide + 1,2-ethanediol + water; phases: Liquid
Fixed: Pressure, kPa = 101
Property: Viscosity, Pa*s (Liquid); method: Capillary tube (Ostwald; Ubbelohde) method
Temperature, K	Mole fraction of water	Mole fraction of 1,2-ethanediol	Viscosity, Pa*s	uncertainty
298.15	0	0.5408	0.0030647	2.3e-05
298.15	0.2929	0.3824	0.0035692	2.67e-05
298.15	0.4825	0.2799	0.0037485	2.8e-05
298.15	0.6152	0.2081	0.0034817	2.6e-05
298.15	0.7132	0.1551	0.0032008	2.4e-05
298.15	0.7886	0.1143	0.0028546	2.15e-05
298.15	0.8484	0.082	0.0024439	1.85e-05
298.15	0.8969	0.0557	0.0019531	1.49e-05
298.15	0.9372	0.0339	0.0016778	1.3e-05
298.15	0.9711	0.0156	0.0013057	1.03e-05
298.15	1	0	0.0008904	7.1e-06
308.15	0	0.5408	0.0024529	1.86e-05
308.15	0.2929	0.3824	0.0026729	2.02e-05
308.15	0.4825	0.2799	0.0026966	2.04e-05
308.15	0.6152	0.2081	0.0025674	1.94e-05
308.15	0.7132	0.1551	0.0024	1.82e-05
308.15	0.7886	0.1143	0.0021559	1.64e-05
308.15	0.8484	0.082	0.0018837	1.44e-05
308.15	0.8969	0.0557	0.001539	1.19e-05
308.15	0.9372	0.0339	0.0013388	1.05e-05
308.15	0.9711	0.0156	0.0010679	8.5e-06
308.15	1	0	0.0007194	5.9e-06
318.15	0	0.5408	0.0019599	1.5e-05
318.15	0.2929	0.3824	0.0021575	1.64e-05
318.15	0.4825	0.2799	0.0021779	1.66e-05
318.15	0.6152	0.2081	0.0021075	1.6e-05
318.15	0.7132	0.1551	0.0019306	1.48e-05
318.15	0.7886	0.1143	0.0017646	1.35e-05
318.15	0.8484	0.082	0.0015409	1.19e-05
318.15	0.8969	0.0557	0.0013014	1.02e-05
318.15	0.9372	0.0339	0.0011293	8.9e-06
318.15	0.9711	0.0156	0.0009164	7.4e-06
318.15	1	0	0.000596	5e-06

System: dimethylformamide + 1,2-ethanediol + water; phases: Liquid
Fixed: Pressure, kPa = 101
Property: Mass density, kg/m3 (Liquid); method: Pycnometric method
Temperature, K	Mole fraction of water	Mole fraction of 1,2-ethanediol	Mass density, kg/m3	uncertainty
298.15	0	0.5408	1024.8	0.5
298.15	0.2929	0.3824	1027.9	0.5
298.15	0.4825	0.2799	1029.4	0.5
298.15	0.6152	0.2081	1030.1	0.5
298.15	0.7132	0.1551	1029.1	0.5
298.15	0.7886	0.1143	1025.9	0.5
298.15	0.8484	0.082	1022.2	0.5
298.15	0.8969	0.0557	1015.6	0.5
298.15	0.9372	0.0339	1009.4	0.5
298.15	0.9711	0.0156	1002.8	0.5
298.15	1	0	997.1	0.5
308.15	0	0.5408	1016.8	0.5
308.15	0.2929	0.3824	1020	1
308.15	0.4825	0.2799	1023.4	0.5
308.15	0.6152	0.2081	1023.7	0.5
308.15	0.7132	0.1551	1021.4	0.5
308.15	0.7886	0.1143	1018.5	0.5
308.15	0.8484	0.082	1014.9	0.5
308.15	0.8969	0.0557	1010.2	0.5
308.15	0.9372	0.0339	1004.1	0.5
308.15	0.9711	0.0156	998.5	0.5
308.15	1	0	994.1	0.5
318.15	0	0.5408	1008.2	0.5
318.15	0.2929	0.3824	1011.1	0.5
318.15	0.4825	0.2799	1014.6	0.5
318.15	0.6152	0.2081	1016	1
318.15	0.7132	0.1551	1014.7	0.5
318.15	0.7886	0.1143	1011.6	0.5
318.15	0.8484	0.082	1007.9	0.5
318.15	0.8969	0.0557	1003	1
318.15	0.9372	0.0339	997.9	0.5
318.15	0.9711	0.0156	993.7	0.5
318.15	1	0	990.3	0.5

System: dimethyl sulfoxide + 1,2-ethanediol + water; phases: Liquid
Fixed: Pressure, kPa = 101
Fixed: Temperature, K = 298.15
Property: Speed of sound, m/s (Liquid); method: Sing-around technique in a fixed-path interferometer
Mole fraction of water	Mole fraction of 1,2-ethanediol	Speed of sound, m/s	uncertainty
0	0.5573	1617.3	1.3
0.2993	0.3905	1687.9	1.3
0.49	0.2842	1728.1	1.3
0.6222	0.2105	1747.9	1.3
0.7193	0.1564	1769.6	1.3
0.7935	0.1151	1789.3	1.3
0.8522	0.0824	1789.9	1.3
0.8997	0.0559	1719	1.3
0.9389	0.034	1645.5	1.3
0.9719	0.0157	1581.3	1.3
1	0	1498	1.2

System: dimethyl sulfoxide + 1,2-ethanediol + water; phases: Liquid
Fixed: Pressure, kPa = 101
Property: Viscosity, Pa*s (Liquid); method: Capillary tube (Ostwald; Ubbelohde) method
Temperature, K	Mole fraction of water	Mole fraction of 1,2-ethanediol	Viscosity, Pa*s	uncertainty
298.15	0	0.5573	0.0051947	0.03
298.15	0.2993	0.3905	0.0052372	0.03
298.15	0.49	0.2842	0.0049627	0.03
298.15	0.6222	0.2105	0.0043772	0.03
298.15	0.7193	0.1564	0.0038823	0.03
298.15	0.7935	0.1151	0.0032904	0.03
298.15	0.8522	0.0824	0.0027917	0.03
298.15	0.8997	0.0559	0.0023008	0.03
298.15	0.9389	0.034	0.0018725	0.03
298.15	0.9719	0.0157	0.0013859	0.03
298.15	1	0	0.0008904	0.03
308.15	0	0.5573	0.0039014	0.03
308.15	0.2993	0.3905	0.0038752	0.03
308.15	0.49	0.2842	0.0037189	0.03
308.15	0.6222	0.2105	0.0033605	0.03
308.15	0.7193	0.1564	0.0029391	0.03
308.15	0.7935	0.1151	0.002576	0.03
308.15	0.8522	0.0824	0.0022892	0.03
308.15	0.8997	0.0559	0.001895	0.03
308.15	0.9389	0.034	0.0015362	0.03
308.15	0.9719	0.0157	0.0011737	0.03
308.15	1	0	0.0007194	0.03
318.15	0	0.5573	0.0031081	0.03
318.15	0.2993	0.3905	0.0031009	0.03
318.15	0.49	0.2842	0.0029574	0.03
318.15	0.6222	0.2105	0.0027177	0.03
318.15	0.7193	0.1564	0.0024509	0.03
318.15	0.7935	0.1151	0.0022202	0.03
318.15	0.8522	0.0824	0.0019817	0.03
318.15	0.8997	0.0559	0.0016577	0.03
318.15	0.9389	0.034	0.0013437	0.03
318.15	0.9719	0.0157	0.0010216	0.03
318.15	1	0	0.000596	0.03

System: dimethyl sulfoxide + 1,2-ethanediol + water; phases: Liquid
Fixed: Pressure, kPa = 101
Property: Mass density, kg/m3 (Liquid); method: Pycnometric method
Temperature, K	Mole fraction of water	Mole fraction of 1,2-ethanediol	Mass density, kg/m3	uncertainty
298.15	0	0.5573	1108.5	0.6
298.15	0.2993	0.3905	1103.4	0.6
298.15	0.49	0.2842	1096.8	0.6
298.15	0.6222	0.2105	1089.1	0.6
298.15	0.7193	0.1564	1079.9	0.5
298.15	0.7935	0.1151	1068.1	0.5
298.15	0.8522	0.0824	1054.9	0.5
298.15	0.8997	0.0559	1041.7	0.5
298.15	0.9389	0.034	1026.9	0.5
298.15	0.9719	0.0157	1011.9	0.5
298.15	1	0	997.1	0.5
308.15	0	0.5573	1098.9	0.6
308.15	0.2993	0.3905	1094.3	0.6
308.15	0.49	0.2842	1089.4	0.6
308.15	0.6222	0.2105	1081.8	0.6
308.15	0.7193	0.1564	1071.6	0.6
308.15	0.7935	0.1151	1059.4	0.6
308.15	0.8522	0.0824	1047.7	0.5
308.15	0.8997	0.0559	1033.9	0.5
308.15	0.9389	0.034	1021.3	0.5
308.15	0.9719	0.0157	1007.4	0.5
308.15	1	0	994.1	0.5
318.15	0	0.5573	1089.6	0.6
318.15	0.2993	0.3905	1085.1	0.6
318.15	0.49	0.2842	1080.5	0.6
318.15	0.6222	0.2105	1073.8	0.6
318.15	0.7193	0.1564	1064.3	0.6
318.15	0.7935	0.1151	1052.8	0.6
318.15	0.8522	0.0824	1041.2	0.6
318.15	0.8997	0.0559	1028.7	0.6
318.15	0.9389	0.034	1015.8	0.6
318.15	0.9719	0.0157	1002.3	0.5
318.15	1	0	990.3	0.5
