Measured thermophysical data. Measurement and Correlation of Isothermal Vapor-Liquid Equilibrium Data for the System Acetonitrile + Water + Tetrapropylammonium Bromide
Source: J. Chem. Eng. Data, 2006, 10.1021/je0600855
Compound 1: acetonitrile, C2H3N, InChI=1S/C2H3N/c1-2-3/h1H3, purity 99.9%
Compound 2: water, H2O, InChI=1S/H2O/h1H2
Compound 3: tetrapropylammonium bromide, C12H28BrN, InChI=1S/C12H28N.BrH/c1-5-9-13(10-6-2,11-7-3)12-8-4;/h5-12H2,1-4H3;1H/q+1;/p-1, purity 99%

System: acetonitrile + tetrapropylammonium bromide + water; phases: Gas, Liquid
Property: Mole fraction of acetonitrile (Gas); method: Chromatography
Temperature, K	Molality, mol/kg of tetrapropylammonium bromide	Solvent: Mole fraction of acetonitrile	Mole fraction of acetonitrile	uncertainty
298.15	0	0.052	0.497	0.025
298.15	0	0.101	0.606	0.016
298.15	0	0.201	0.69	0.012
298.15	0	0.299	0.725	0.011
298.15	0	0.499	0.768	0.01
298.15	0	0.75	0.798	0.01
298.15	0	0.88	0.858	0.012
298.15	0	0.95	0.937	0.015
298.15	0.2	0.052	0.473	0.028
298.15	0.2	0.101	0.582	0.017
298.15	0.2	0.201	0.674	0.012
298.15	0.2	0.299	0.703	0.011
298.15	0.2	0.499	0.726	0.01
298.15	0.2	0.75	0.773	0.011
298.15	0.2	0.88	0.842	0.012
298.15	0.2	0.95	0.915	0.014
298.15	0.4	0.052	0.397	0.028
298.15	0.4	0.101	0.536	0.019
298.15	0.4	0.201	0.651	0.013
298.15	0.4	0.299	0.68	0.011
298.15	0.4	0.499	0.712	0.011
298.15	0.4	0.75	0.754	0.011
298.15	0.4	0.88	0.822	0.012
298.15	0.4	0.95	0.886	0.014
298.15	0.8	0.052	0.294	0.033
298.15	0.8	0.101	0.441	0.02
298.15	0.8	0.201	0.573	0.014
298.15	0.8	0.299	0.619	0.011
298.15	0.8	0.499	0.666	0.011
298.15	0.8	0.75	0.725	0.011
298.15	0.8	0.88	0.786	0.012
298.15	0.8	0.95	0.858	0.015
298.15	1	0.052	0.225	0.039
298.15	1	0.101	0.408	0.022
298.15	1	0.201	0.53	0.014
298.15	1	0.299	0.581	0.011
298.15	1	0.499	0.641	0.011
298.15	1	0.75	0.707	0.011
298.15	1	0.88	0.774	0.012
298.15	1	0.95	0.847	0.015
323.15	0	0.052	0.62	0.02
323.15	0	0.101	0.703	0.014
323.15	0	0.201	0.76	0.011
323.15	0	0.299	0.778	0.01
323.15	0	0.499	0.795	0.01
323.15	0	0.75	0.821	0.01
323.15	0	0.88	0.86	0.011
323.15	0	0.95	0.919	0.013
323.15	0.2	0.052	0.361	0.022
323.15	0.2	0.101	0.524	0.016
323.15	0.2	0.201	0.593	0.012
323.15	0.2	0.299	0.614	0.011
323.15	0.2	0.499	0.642	0.011
323.15	0.2	0.75	0.694	0.011
323.15	0.2	0.88	0.783	0.014
323.15	0.2	0.95	0.885	0.018
323.15	0.4	0.052	0.304	0.032
323.15	0.4	0.101	0.458	0.018
323.15	0.4	0.201	0.541	0.012
323.15	0.4	0.299	0.569	0.011
323.15	0.4	0.499	0.615	0.011
323.15	0.4	0.75	0.686	0.011
323.15	0.4	0.88	0.764	0.013
323.15	0.4	0.95	0.846	0.017
323.15	0.8	0.052	0.215	0.033
323.15	0.8	0.101	0.372	0.017
323.15	0.8	0.201	0.444	0.012
323.15	0.8	0.299	0.477	0.011
323.15	0.8	0.499	0.531	0.011
323.15	0.8	0.75	0.608	0.012
323.15	0.8	0.88	0.731	0.015
323.15	0.8	0.95	0.825	0.017
323.15	1	0.052	0.182	0.032
323.15	1	0.101	0.331	0.017
323.15	1	0.201	0.391	0.011
323.15	1	0.299	0.413	0.011
323.15	1	0.499	0.459	0.011
323.15	1	0.75	0.555	0.012
323.15	1	0.88	0.701	0.017
323.15	1	0.95	0.816	0.019
