Measured thermophysical data. Vapor-Liquid Equilibria of the 1,1,1-Trifluoroethane + n-Butane System
Source: J. Chem. Eng. Data, 2007, 10.1021/je060336+
Compound 1: 1,1,1-trifluoroethane, C2H3F3, InChI=1S/C2H3F3/c1-2(3,4)5/h1H3
Compound 2: butane, C4H10, InChI=1S/C4H10/c1-3-4-2/h3-4H2,1-2H3

System: 1,1,1-trifluoroethane; phases: Liquid, Gas
Property: Vapor or sublimation pressure, kPa (Liquid); method: EBULLIO:UFactor:2
Temperature, K	Vapor or sublimation pressure, kPa	uncertainty
313.15	1831	14
323.15	2302	18
333.15	2874	22
343.15	3553	28

System: butane; phases: Liquid, Gas
Property: Vapor or sublimation pressure, kPa (Liquid); method: EBULLIO:UFactor:2
Temperature, K	Vapor or sublimation pressure, kPa	uncertainty
313.15	377	3
323.15	495	4
333.15	639	5
343.15	810	6
353.15	1012	8
363.15	1250	10

System: butane + 1,1,1-trifluoroethane; phases: Liquid, Gas
Property: Vapor or sublimation pressure, kPa (Liquid); method: EBULLIO:UFactor:2
Mole fraction of 1,1,1-trifluoroethane	Temperature, K	Vapor or sublimation pressure, kPa	uncertainty
0	313.15	377	3
0	323.15	495	4
0	333.15	639	5
0	343.15	810	6
0	353.15	1012	8
0	363.15	1250	10
0.0454	363.15	1621	13
0.0499	323.15	742	6
0.0506	353.15	1372	11
0.0536	333.15	949	8
0.0789	343.15	1271	10
0.102	313.15	753	6
0.147	363.15	2163	17
0.1548	333.15	1310	10
0.157	353.15	1872	15
0.1823	323.15	1141	9
0.2093	313.15	990	8
0.2204	343.15	1808	14
0.2299	363.15	2541	20
0.2885	333.15	1671	13
0.313	313.15	1160	9
0.36	323.15	1496	12
0.3797	353.15	2650	21
0.3863	363.15	3134	25
0.4507	333.15	2000	16
0.4783	343.15	2476	19
0.4815	313.15	1361	11
0.5383	363.15	3638	28
0.5384	353.15	3092	24
0.6066	323.15	1834	14
0.6415	343.15	2814	22
0.643	333.15	2317	18
0.668	353.15	3443	27
0.7162	323.15	1964	15
0.7364	313.15	1599	13
0.7412	343.15	3015	24
0.7776	353.15	3718	29
0.8085	343.15	3145	25
0.8294	323.15	2103	17
0.8728	333.15	2672	21
0.8734	343.15	3272	26
0.905	313.15	1740	14
0.9136	343.15	3352	26
0.9333	333.15	2754	22
0.937	323.15	2232	18
0.9615	333.15	2802	22
1	313.15	1831	14
1	323.15	2302	18
1	333.15	2874	22
1	343.15	3553	28

System: butane + 1,1,1-trifluoroethane; phases: Gas, Liquid
Property: Mole fraction of 1,1,1-trifluoroethane (Gas); method: CHROM:UFactor:2
Mole fraction of 1,1,1-trifluoroethane	Temperature, K	Mole fraction of 1,1,1-trifluoroethane	uncertainty
0	313.15	0	0.0001
0	323.15	0	0.0001
0	333.15	0	0.0001
0	343.15	0	0.0001
0	353.15	0	0.0001
0	363.15	0	0.0001
0.0454	363.15	0.2072	0.004
0.0499	323.15	0.3376	0.0064
0.0506	353.15	0.2429	0.0047
0.0536	333.15	0.3149	0.006
0.0789	343.15	0.3504	0.0066
0.102	313.15	0.5203	0.0091
0.147	363.15	0.4044	0.0076
0.1548	333.15	0.5168	0.0091
0.157	353.15	0.4497	0.0084
0.1823	323.15	0.5952	0.0076
0.2093	313.15	0.6581	0.0064
0.2204	343.15	0.5503	0.0084
0.2299	363.15	0.495	0.0093
0.2885	333.15	0.6408	0.0067
0.313	313.15	0.7242	0.0052
0.36	323.15	0.7169	0.0053
0.3797	353.15	0.6317	0.0069
0.3863	363.15	0.5976	0.0075
0.4507	333.15	0.7237	0.0052
0.4783	343.15	0.6993	0.0056
0.4815	313.15	0.7908	0.0039
0.5383	363.15	0.6632	0.0063
0.5384	353.15	0.7044	0.0055
0.6066	323.15	0.8107	0.0035
0.6415	343.15	0.7728	0.0043
0.643	333.15	0.8064	0.0036
0.668	353.15	0.7601	0.0045
0.7162	323.15	0.8479	0.0029
0.7364	313.15	0.8719	0.0024
0.7412	343.15	0.8176	0.0034
0.7776	353.15	0.8068	0.0036
0.8085	343.15	0.8508	0.0028
0.8294	323.15	0.896	0.002
0.8728	333.15	0.9055	0.0018
0.8734	343.15	0.8873	0.0021
0.905	313.15	0.945	0.001
0.9136	343.15	0.9129	0.0017
0.9333	333.15	0.9399	0.0012
0.937	323.15	0.9548	0.0009
0.9615	333.15	0.9588	0.0009
1	313.15	1	0.0001
1	323.15	1	0.0001
1	333.15	1	0.0001
1	343.15	1	0.0001
