Measured thermophysical data. Molar Heat Capacity of Various Aqueous Alkanolamine Solutions from 303.15 K to 353.15 K
Source: J. Chem. Eng. Data, 2007, 10.1021/je0604232
Compound 1: N-(2-aminoethyl)ethanolamine, C4H12N2O, InChI=1S/C4H12N2O/c5-1-2-6-3-4-7/h6-7H,1-5H2
Compound 2: 3-amino-1-propanol, C3H9NO, InChI=1S/C3H9NO/c4-2-1-3-5/h5H,1-4H2
Compound 3: 2-(methylamino)ethanol, C3H9NO, InChI=1S/C3H9NO/c1-4-2-3-5/h4-5H,2-3H2,1H3
Compound 4: 1-amino-2-propanol, C3H9NO, InChI=1S/C3H9NO/c1-3(5)2-4/h3,5H,2,4H2,1H3
Compound 5: 2-(N,N-dimethylamino)ethanol, C4H11NO, InChI=1S/C4H11NO/c1-5(2)3-4-6/h6H,3-4H2,1-2H3
Compound 6: water, H2O, InChI=1S/H2O/h1H2
Compound 7: 2-aminoethan-1-ol, C2H7NO, InChI=1S/C2H7NO/c3-1-2-4/h4H,1-3H2
Compound 8: N-methyldiethanolamine, C5H13NO2, InChI=1S/C5H13NO2/c1-6(2-4-7)3-5-8/h7-8H,2-5H2,1H3

System: N-(2-aminoethyl)ethanolamine; phases: Liquid
Fixed: Pressure, kPa = 101
Property: Molar heat capacity at constant pressure, J/K/mol (Liquid); method: FLOW:UFactor:4
Temperature, K	Molar heat capacity at constant pressure, J/K/mol	uncertainty
303.15	279	2
308.15	284	2
313.15	285	2
318.15	286	2
323.15	287	2
328.15	289	2
333.15	290	2
338.15	292	2
343.15	293	2
348.15	295	2
353.15	296	2

System: 3-amino-1-propanol; phases: Liquid
Fixed: Pressure, kPa = 101
Property: Molar heat capacity at constant pressure, J/K/mol (Liquid); method: FLOW:UFactor:4
Temperature, K	Molar heat capacity at constant pressure, J/K/mol	uncertainty
303.15	204	2
308.15	207	2
313.15	208	2
318.15	208	2
323.15	209	2
328.15	210	2
333.15	211	2
338.15	213	2
343.15	214	2
348.15	216	2
353.15	217	2

System: 2-(methylamino)ethanol; phases: Liquid
Fixed: Pressure, kPa = 101
Property: Molar heat capacity at constant pressure, J/K/mol (Liquid); method: FLOW:UFactor:4
Temperature, K	Molar heat capacity at constant pressure, J/K/mol	uncertainty
303.15	194	2
308.15	199	2
313.15	200	2
318.15	202	2
323.15	203	2
328.15	205	2
333.15	206	2
338.15	207	2
343.15	208	2
348.15	210	2
353.15	212	2

System: 1-amino-2-propanol; phases: Liquid
Fixed: Pressure, kPa = 101
Property: Molar heat capacity at constant pressure, J/K/mol (Liquid); method: FLOW:UFactor:4
Temperature, K	Molar heat capacity at constant pressure, J/K/mol	uncertainty
303.15	209	2
308.15	213	2
313.15	214	2
318.15	215	2
323.15	217	2
328.15	218	2
333.15	221	2
338.15	223	2
343.15	225	2
348.15	228	2
353.15	230	2

System: 2-(N,N-dimethylamino)ethanol; phases: Liquid
Fixed: Pressure, kPa = 101
Property: Molar heat capacity at constant pressure, J/K/mol (Liquid); method: FLOW:UFactor:4
Temperature, K	Molar heat capacity at constant pressure, J/K/mol	uncertainty
303.15	213	2
308.15	215	2
313.15	217	2
318.15	219	2
323.15	221	2
328.15	222	2
333.15	223	2
338.15	223	2
343.15	223	2
348.15	224	2
353.15	226	2

System: 2-aminoethan-1-ol; phases: Liquid
Fixed: Pressure, kPa = 101.325
Property: Molar heat capacity at constant pressure, J/K/mol (Liquid); method: FLOW:UFactor:4
Temperature, K	Molar heat capacity at constant pressure, J/K/mol	uncertainty
303.15	168	1
308.15	169	1
313.15	169	1
318.15	171	2
323.15	173	2
328.15	174	2
333.15	175	2
338.15	178	2
343.15	179	2
348.15	180	2
353.15	182	2

System: N-methyldiethanolamine; phases: Liquid
Fixed: Pressure, kPa = 101.325
Property: Molar heat capacity at constant pressure, J/K/mol (Liquid); method: FLOW:UFactor:4
Temperature, K	Molar heat capacity at constant pressure, J/K/mol	uncertainty
303.15	273	2
308.15	276	2
313.15	279	2
318.15	282	2
323.15	285	2
328.15	288	2
333.15	290	2
338.15	294	2
343.15	298	2
348.15	301	3
353.15	304	3

System: 3-amino-1-propanol + water; phases: Liquid
Fixed: Pressure, kPa = 101
Property: Molar heat capacity at constant pressure, J/K/mol (Liquid); method: FLOW:UFactor:4
Temperature, K	Mole fraction of 3-amino-1-propanol	Molar heat capacity at constant pressure, J/K/mol	uncertainty
303.15	0.0999	94	1
303.15	0.2001	108	1
303.15	0.3003	120	1
303.15	0.4015	131	1
303.15	0.4996	143	1
303.15	0.6006	155	1
303.15	0.7003	168	1
303.15	0.8003	180	2
303.15	0.8966	193	2
303.15	1	204	2
308.15	0.0999	96	1
308.15	0.2001	111	1
308.15	0.3003	123	1
308.15	0.4015	135	1
308.15	0.4996	147	1
308.15	0.6006	159	1
308.15	0.7003	171	2
308.15	0.8003	184	2
308.15	0.8966	196	2
308.15	1	207	2
313.15	0.0999	97	1
313.15	0.2001	112	1
313.15	0.3003	124	1
313.15	0.4015	136	1
313.15	0.4996	148	1
313.15	0.6006	160	1
313.15	0.7003	172	2
313.15	0.8003	185	2
313.15	0.8966	197	2
313.15	1	208	2
318.15	0.0999	98	1
318.15	0.2001	113	1
318.15	0.3003	126	1
318.15	0.4015	138	1
318.15	0.4996	150	1
318.15	0.6006	162	1
318.15	0.7003	173	2
318.15	0.8003	186	2
318.15	0.8966	198	2
318.15	1	208	2
323.15	0.0999	99	1
323.15	0.2001	115	1
323.15	0.3003	128	1
323.15	0.4015	140	1
323.15	0.4996	152	1
323.15	0.6006	163	1
323.15	0.7003	175	2
323.15	0.8003	187	2
323.15	0.8966	199	2
323.15	1	209	2
328.15	0.0999	101	1
328.15	0.2001	117	1
328.15	0.3003	130	1
328.15	0.4015	142	1
328.15	0.4996	154	1
328.15	0.6006	166	1
328.15	0.7003	177	2
328.15	0.8003	189	2
328.15	0.8966	200	2
328.15	1	210	2
333.15	0.0999	103	1
333.15	0.2001	119	1
333.15	0.3003	132	1
333.15	0.4015	145	1
333.15	0.4996	157	1
333.15	0.6006	169	1
333.15	0.7003	179	2
333.15	0.8003	191	2
333.15	0.8966	202	2
333.15	1	211	2
338.15	0.0999	106	1
338.15	0.2001	122	1
338.15	0.3003	135	1
338.15	0.4015	148	1
338.15	0.4996	160	1
338.15	0.6006	172	2
338.15	0.7003	182	2
338.15	0.8003	193	2
338.15	0.8966	204	2
338.15	1	213	2
343.15	0.0999	110	1
343.15	0.2001	126	1
343.15	0.3003	139	1
343.15	0.4015	151	1
343.15	0.4996	163	1
343.15	0.6006	175	2
343.15	0.7003	185	2
343.15	0.8003	196	2
343.15	0.8966	206	2
343.15	1	214	2
348.15	0.0999	114	1
348.15	0.2001	130	1
348.15	0.3003	143	1
348.15	0.4015	155	1
348.15	0.4996	167	1
348.15	0.6006	179	2
348.15	0.7003	188	2
348.15	0.8003	198	2
348.15	0.8966	208	2
348.15	1	216	2
353.15	0.0999	119	1
353.15	0.2001	135	1
353.15	0.3003	147	1
353.15	0.4015	160	1
353.15	0.4996	172	2
353.15	0.6006	183	2
353.15	0.7003	192	2
353.15	0.8003	201	2
353.15	0.8966	210	2
353.15	1	217	2

System: 2-(methylamino)ethanol + water; phases: Liquid
Fixed: Pressure, kPa = 101
Property: Molar heat capacity at constant pressure, J/K/mol (Liquid); method: FLOW:UFactor:4
Temperature, K	Mole fraction of 2-(methylamino)ethanol	Molar heat capacity at constant pressure, J/K/mol	uncertainty
303.15	0.1	96	1
303.15	0.1998	108	1
303.15	0.3003	119	1
303.15	0.399	129	1
303.15	0.5002	139	1
303.15	0.6061	151	1
303.15	0.6987	160	1
303.15	0.8003	172	2
303.15	0.9004	182	2
303.15	1	194	2
308.15	0.1	98	1
308.15	0.1998	111	1
308.15	0.3003	122	1
308.15	0.399	132	1
308.15	0.5002	143	1
308.15	0.6061	155	1
308.15	0.6987	165	1
308.15	0.8003	176	2
308.15	0.9004	187	2
308.15	1	199	2
313.15	0.1	99	1
313.15	0.1998	113	1
313.15	0.3003	124	1
313.15	0.399	135	1
313.15	0.5002	146	1
313.15	0.6061	157	1
313.15	0.6987	167	1
313.15	0.8003	178	2
313.15	0.9004	189	2
313.15	1	200	2
318.15	0.1	100	1
318.15	0.1998	114	1
318.15	0.3003	126	1
318.15	0.399	137	1
318.15	0.5002	148	1
318.15	0.6061	160	1
318.15	0.6987	170	2
318.15	0.8003	180	2
318.15	0.9004	190	2
318.15	1	202	2
323.15	0.1	101	1
323.15	0.1998	116	1
323.15	0.3003	128	1
323.15	0.399	139	1
323.15	0.5002	150	1
323.15	0.6061	162	1
323.15	0.6987	172	2
323.15	0.8003	183	2
323.15	0.9004	192	2
323.15	1	203	2
328.15	0.1	103	1
328.15	0.1998	118	1
328.15	0.3003	131	1
328.15	0.399	142	1
328.15	0.5002	153	1
328.15	0.6061	165	1
328.15	0.6987	175	2
328.15	0.8003	185	2
328.15	0.9004	195	2
328.15	1	205	2
333.15	0.1	105	1
333.15	0.1998	121	1
333.15	0.3003	134	1
333.15	0.399	145	1
333.15	0.5002	157	1
333.15	0.6061	168	1
333.15	0.6987	178	2
333.15	0.8003	188	2
333.15	0.9004	197	2
333.15	1	206	2
338.15	0.1	107	1
338.15	0.1998	124	1
338.15	0.3003	138	1
338.15	0.399	149	1
338.15	0.5002	161	1
338.15	0.6061	172	2
338.15	0.6987	182	2
338.15	0.8003	191	2
338.15	0.9004	199	2
338.15	1	207	2
343.15	0.1	110	1
343.15	0.1998	127	1
343.15	0.3003	141	1
343.15	0.399	153	1
343.15	0.5002	164	1
343.15	0.6061	176	2
343.15	0.6987	185	2
343.15	0.8003	194	2
343.15	0.9004	201	2
343.15	1	208	2
348.15	0.1	114	1
348.15	0.1998	132	1
348.15	0.3003	146	1
348.15	0.399	158	1
348.15	0.5002	169	1
348.15	0.6061	181	2
348.15	0.6987	190	2
348.15	0.8003	198	2
348.15	0.9004	205	2
348.15	1	210	2
353.15	0.1	119	1
353.15	0.1998	138	1
353.15	0.3003	152	1
353.15	0.399	163	1
353.15	0.5002	174	2
353.15	0.6061	186	2
353.15	0.6987	195	2
353.15	0.8003	203	2
353.15	0.9004	208	2
353.15	1	212	2

System: 1-amino-2-propanol + water; phases: Liquid
Fixed: Pressure, kPa = 101
Property: Molar heat capacity at constant pressure, J/K/mol (Liquid); method: FLOW:UFactor:4
Temperature, K	Mole fraction of 1-amino-2-propanol	Molar heat capacity at constant pressure, J/K/mol	uncertainty
303.15	0.1	95	1
303.15	0.2007	110	1
303.15	0.2996	121	1
303.15	0.4001	133	1
303.15	0.4983	145	1
303.15	0.6013	158	1
303.15	0.6999	170	2
303.15	0.7996	183	2
303.15	0.8959	196	2
303.15	1	209	2
308.15	0.1	97	1
308.15	0.2007	113	1
308.15	0.2996	124	1
308.15	0.4001	137	1
308.15	0.4983	149	1
308.15	0.6013	162	1
308.15	0.6999	174	2
308.15	0.7996	187	2
308.15	0.8959	200	2
308.15	1	213	2
313.15	0.1	98	1
313.15	0.2007	114	1
313.15	0.2996	126	1
313.15	0.4001	139	1
313.15	0.4983	151	1
313.15	0.6013	164	1
313.15	0.6999	176	2
313.15	0.7996	188	2
313.15	0.8959	201	2
313.15	1	214	2
318.15	0.1	99	1
318.15	0.2007	116	1
318.15	0.2996	128	1
318.15	0.4001	141	1
318.15	0.4983	154	1
318.15	0.6013	166	1
318.15	0.6999	177	2
318.15	0.7996	190	2
318.15	0.8959	202	2
318.15	1	215	2
323.15	0.1	100	1
323.15	0.2007	117	1
323.15	0.2996	130	1
323.15	0.4001	144	1
323.15	0.4983	156	1
323.15	0.6013	168	1
323.15	0.6999	180	2
323.15	0.7996	192	2
323.15	0.8959	204	2
323.15	1	217	2
328.15	0.1	102	1
328.15	0.2007	119	1
328.15	0.2996	133	1
328.15	0.4001	147	1
328.15	0.4983	159	1
328.15	0.6013	171	2
328.15	0.6999	182	2
328.15	0.7996	194	2
328.15	0.8959	206	2
328.15	1	218	2
333.15	0.1	104	1
333.15	0.2007	121	1
333.15	0.2996	136	1
333.15	0.4001	150	1
333.15	0.4983	162	1
333.15	0.6013	174	2
333.15	0.6999	185	2
333.15	0.7996	197	2
333.15	0.8959	209	2
333.15	1	221	2
338.15	0.1	106	1
338.15	0.2007	125	1
338.15	0.2996	140	1
338.15	0.4001	154	1
338.15	0.4983	166	1
338.15	0.6013	178	2
338.15	0.6999	188	2
338.15	0.7996	200	2
338.15	0.8959	211	2
338.15	1	223	2
343.15	0.1	109	1
343.15	0.2007	128	1
343.15	0.2996	144	1
343.15	0.4001	158	1
343.15	0.4983	170	2
343.15	0.6013	181	2
343.15	0.6999	192	2
343.15	0.7996	203	2
343.15	0.8959	214	2
343.15	1	225	2
348.15	0.1	112	1
348.15	0.2007	133	1
348.15	0.2996	149	1
348.15	0.4001	163	1
348.15	0.4983	175	2
348.15	0.6013	185	2
348.15	0.6999	195	2
348.15	0.7996	206	2
348.15	0.8959	216	2
348.15	1	228	2
353.15	0.1	117	1
353.15	0.2007	138	1
353.15	0.2996	155	1
353.15	0.4001	169	1
353.15	0.4983	180	2
353.15	0.6013	190	2
353.15	0.6999	199	2
353.15	0.7996	209	2
353.15	0.8959	219	2
353.15	1	230	2

System: 2-(N,N-dimethylamino)ethanol + water; phases: Liquid
Fixed: Pressure, kPa = 101
Property: Molar heat capacity at constant pressure, J/K/mol (Liquid); method: FLOW:UFactor:4
Temperature, K	Mole fraction of 2-(N,N-dimethylamino)ethanol	Molar heat capacity at constant pressure, J/K/mol	uncertainty
303.15	0.0997	103	1
303.15	0.1962	118	1
303.15	0.3003	132	1
303.15	0.3984	144	1
303.15	0.4983	156	1
303.15	0.6008	168	1
303.15	0.698	179	2
303.15	0.7981	191	2
303.15	0.8938	202	2
303.15	1	213	2
308.15	0.0997	104	1
308.15	0.1962	119	1
308.15	0.3003	134	1
308.15	0.3984	146	1
308.15	0.4983	158	1
308.15	0.6008	170	2
308.15	0.698	181	2
308.15	0.7981	193	2
308.15	0.8938	205	2
308.15	1	215	2
313.15	0.0997	105	1
313.15	0.1962	121	1
313.15	0.3003	136	1
313.15	0.3984	149	1
313.15	0.4983	161	1
313.15	0.6008	173	2
313.15	0.698	185	2
313.15	0.7981	196	2
313.15	0.8938	208	2
313.15	1	217	2
318.15	0.0997	105	1
318.15	0.1962	123	1
318.15	0.3003	139	1
318.15	0.3984	152	1
318.15	0.4983	164	1
318.15	0.6008	177	2
318.15	0.698	188	2
318.15	0.7981	199	2
318.15	0.8938	210	2
318.15	1	219	2
323.15	0.0997	107	1
323.15	0.1962	125	1
323.15	0.3003	141	1
323.15	0.3984	155	1
323.15	0.4983	168	1
323.15	0.6008	180	2
323.15	0.698	191	2
323.15	0.7981	203	2
323.15	0.8938	213	2
323.15	1	221	2
328.15	0.0997	108	1
328.15	0.1962	127	1
328.15	0.3003	144	1
328.15	0.3984	158	1
328.15	0.4983	171	2
328.15	0.6008	184	2
328.15	0.698	195	2
328.15	0.7981	206	2
328.15	0.8938	215	2
328.15	1	222	2
333.15	0.0997	109	1
333.15	0.1962	129	1
333.15	0.3003	147	1
333.15	0.3984	161	1
333.15	0.4983	175	2
333.15	0.6008	187	2
333.15	0.698	199	2
333.15	0.7981	209	2
333.15	0.8938	217	2
333.15	1	223	2
338.15	0.0997	112	1
338.15	0.1962	132	1
338.15	0.3003	150	1
338.15	0.3984	165	1
338.15	0.4983	179	2
338.15	0.6008	192	2
338.15	0.698	203	2
338.15	0.7981	213	2
338.15	0.8938	220	2
338.15	1	223	2
343.15	0.0997	114	1
343.15	0.1962	136	1
343.15	0.3003	155	1
343.15	0.3984	170	2
343.15	0.4983	184	2
343.15	0.6008	196	2
343.15	0.698	208	2
343.15	0.7981	218	2
343.15	0.8938	223	2
343.15	1	223	2
348.15	0.0997	118	1
348.15	0.1962	140	1
348.15	0.3003	160	1
348.15	0.3984	176	2
348.15	0.4983	190	2
348.15	0.6008	203	2
348.15	0.698	214	2
348.15	0.7981	223	2
348.15	0.8938	225	2
348.15	1	224	2
353.15	0.0997	123	1
353.15	0.1962	146	1
353.15	0.3003	166	1
353.15	0.3984	184	2
353.15	0.4983	198	2
353.15	0.6008	210	2
353.15	0.698	221	2
353.15	0.7981	229	2
353.15	0.8938	228	2
353.15	1	226	2

System: N-(2-aminoethyl)ethanolamine + water; phases: Liquid
Fixed: Pressure, kPa = 101
Property: Molar heat capacity at constant pressure, J/K/mol (Liquid); method: FLOW:UFactor:4
Temperature, K	Mole fraction of N-(2-aminoethyl)ethanolamine	Molar heat capacity at constant pressure, J/K/mol	uncertainty
303.15	0.0999	100	1
303.15	0.1999	121	1
303.15	0.2995	141	1
303.15	0.4	161	1
303.15	0.5002	181	2
303.15	0.5997	201	2
303.15	0.7011	221	2
303.15	0.8003	240	2
303.15	0.8979	258	2
303.15	1	279	2
308.15	0.0999	103	1
308.15	0.1999	125	1
308.15	0.2995	145	1
308.15	0.4	165	1
308.15	0.5002	185	2
308.15	0.5997	205	2
308.15	0.7011	226	2
308.15	0.8003	245	2
308.15	0.8979	263	2
308.15	1	284	2
313.15	0.0999	104	1
313.15	0.1999	127	1
313.15	0.2995	147	1
313.15	0.4	167	1
313.15	0.5002	187	2
313.15	0.5997	207	2
313.15	0.7011	227	2
313.15	0.8003	247	2
313.15	0.8979	265	2
313.15	1	285	2
318.15	0.0999	106	1
318.15	0.1999	129	1
318.15	0.2995	150	1
318.15	0.4	170	2
318.15	0.5002	190	2
318.15	0.5997	209	2
318.15	0.7011	229	2
318.15	0.8003	249	2
318.15	0.8979	266	2
318.15	1	286	2
323.15	0.0999	107	1
323.15	0.1999	131	1
323.15	0.2995	152	1
323.15	0.4	172	2
323.15	0.5002	192	2
323.15	0.5997	211	2
323.15	0.7011	231	2
323.15	0.8003	250	2
323.15	0.8979	267	2
323.15	1	287	2
328.15	0.0999	110	1
328.15	0.1999	134	1
328.15	0.2995	155	1
328.15	0.4	175	2
328.15	0.5002	195	2
328.15	0.5997	214	2
328.15	0.7011	233	2
328.15	0.8003	252	2
328.15	0.8979	269	2
328.15	1	289	2
333.15	0.0999	112	1
333.15	0.1999	137	1
333.15	0.2995	158	1
333.15	0.4	178	2
333.15	0.5002	197	2
333.15	0.5997	216	2
333.15	0.7011	235	2
333.15	0.8003	254	2
333.15	0.8979	271	2
333.15	1	290	2
338.15	0.0999	116	1
338.15	0.1999	141	1
338.15	0.2995	162	1
338.15	0.4	181	2
338.15	0.5002	201	2
338.15	0.5997	219	2
338.15	0.7011	238	2
338.15	0.8003	257	2
338.15	0.8979	273	2
338.15	1	292	2
343.15	0.0999	120	1
343.15	0.1999	146	1
343.15	0.2995	167	1
343.15	0.4	185	2
343.15	0.5002	204	2
343.15	0.5997	223	2
343.15	0.7011	241	2
343.15	0.8003	260	2
343.15	0.8979	275	2
343.15	1	293	2
348.15	0.0999	124	1
348.15	0.1999	152	1
348.15	0.2995	172	2
348.15	0.4	189	2
348.15	0.5002	208	2
348.15	0.5997	227	2
348.15	0.7011	244	2
348.15	0.8003	262	2
348.15	0.8979	277	2
348.15	1	295	2
353.15	0.0999	130	1
353.15	0.1999	158	1
353.15	0.2995	177	2
353.15	0.4	194	2
353.15	0.5002	213	2
353.15	0.5997	231	2
353.15	0.7011	248	2
353.15	0.8003	265	2
353.15	0.8979	279	2
353.15	1	296	2
