Measured thermophysical data. Acoustic Determination of Thermophysical Properties and Critical Parameters for R410A and Critical Line of xCO2 + (1 - x)R410A
Source: J. Chem. Eng. Data, 2006, 10.1021/je060243s
Compound 1: difluoromethane, CH2F2, InChI=1S/CH2F2/c2-1-3/h1H2
Compound 2: pentafluoroethane, C2HF5, InChI=1S/C2HF5/c3-1(4)2(5,6)7/h1H
Compound 3: carbon dioxide, CO2, InChI=1S/CO2/c2-1-3

System: difluoromethane + pentafluoroethane; phases: Liquid, Gas
Property: Critical pressure, kPa (Liquid); method: derived from speed of sound
Mass fraction of difluoromethane	Critical pressure, kPa	uncertainty
0.5	4900	100

System: difluoromethane + pentafluoroethane; phases: Liquid, Gas
Fixed: Mass fraction of difluoromethane = 0.5
Property: Speed of sound, m/s (Liquid); method: Pulse-echo method
Temperature, K	Speed of sound, m/s	uncertainty
273.12	574.5	1.3
280.72	535.2	1.3
298.25	440.4	1.3
308.25	383.4	1.3
318.17	323.4	1.3

System: difluoromethane + pentafluoroethane; phases: Liquid, Gas
Property: Critical temperature, K (Liquid); method: derived from speed of sound
Mass fraction of difluoromethane	Critical temperature, K	uncertainty
0.5	344.9	1

System: difluoromethane + pentafluoroethane; phases: Liquid
Fixed: Mass fraction of difluoromethane = 0.5
Property: Speed of sound, m/s (Liquid); method: Pulse-echo method
Temperature, K	Pressure, kPa	Speed of sound, m/s	uncertainty
253.09	1180	684.1	1.3
253.09	1260	684.8	1.3
253.09	1380	685.8	1.3
253.09	1500	686.8	1.3
253.09	1620	687.7	1.3
253.09	1750	688.8	1.3
253.09	2010	690.6	1.3
253.09	2250	692.6	1.3
253.09	2510	694.3	1.3
253.09	2750	696.4	1.3
253.09	3010	698.4	1.3
253.09	3500	702.3	1.3
253.09	4000	705	1.3
253.09	4500	709.5	1.3
253.09	5000	713.3	1.3
253.09	6010	720.6	1.3
253.09	7010	727.4	1.3
253.09	8000	734.2	1.3
253.09	9000	740.8	1.3
253.09	10000	747.5	1.3
253.09	12000	760.2	1.3
253.09	14000	772.5	1.3
253.09	16010	784.5	1.3
253.09	18000	795.3	1.3
253.09	20000	806.9	1.3
253.09	23000	822.9	1.3
253.09	26000	837.9	1.3
253.09	29010	852.8	1.3
253.09	32000	867.2	1.3
253.09	35000	880.5	1.3
253.09	40000	902.6	1.3
253.09	45000	923.6	1.3
253.09	50000	943.8	1.3
253.09	55000	962.8	1.3
253.09	60000	981.2	1.3
253.09	65000	999.5	1.3
258.09	1000	656.5	1.3
258.09	1120	657.6	1.3
258.09	1260	658.8	1.3
258.09	1380	659.7	1.3
258.09	1500	660.8	1.3
258.09	1630	662.2	1.3
258.09	1750	663.1	1.3
258.09	2010	665.1	1.3
258.09	2250	667.1	1.3
258.09	2510	669.2	1.3
258.09	2750	671.4	1.3
258.09	3010	673.4	1.3
258.09	3500	677.1	1.3
258.09	4000	681.1	1.3
258.09	4500	685.3	1.3
258.09	5000	689.1	1.3
258.09	6010	696.6	1.3
258.09	7010	703.9	1.3
258.09	8000	711	1.3
258.09	9000	718.1	1.3
258.09	10000	724.8	1.3
258.09	12000	738.2	1.3
258.09	14000	751.2	1.3
258.09	16010	763.4	1.3
258.09	18000	775	1.3
258.09	20000	786.7	1.3
258.09	23000	803.2	1.3
258.09	26000	818.7	1.3
258.09	29010	833.7	1.3
258.09	32000	848.7	1.3
258.09	35000	862.6	1.3
258.09	40000	885	1.3
258.09	45000	906.3	1.3
258.09	50000	926.7	1.3
258.09	55000	946.6	1.3
258.09	60000	965.6	1.3
258.09	65000	983.3	1.3
258.09	1500	661	1.3
265.61	1190	618.9	1.3
265.61	1340	620	1.3
265.61	1500	621.6	1.3
265.61	1750	623.8	1.3
265.61	2010	626.1	1.3
265.61	2250	628.3	1.3
265.61	2510	630.7	1.3
265.61	2750	633	1.3
265.61	3010	635.2	1.3
265.61	3500	639.4	1.3
265.61	4000	644	1.3
265.61	4500	648.1	1.3
265.61	5000	652.1	1.3
265.61	6010	660.6	1.3
265.61	7010	668.4	1.3
265.61	8000	676.1	1.3
265.61	9000	683.8	1.3
265.61	10000	691	1.3
265.61	12000	705.2	1.3
265.61	14000	718.9	1.3
265.61	16010	732.1	1.3
265.61	18000	744.4	1.3
265.61	20000	756.2	1.3
265.61	23000	773.6	1.3
265.61	26000	790.1	1.3
265.61	29010	806.2	1.3
265.61	32000	821.5	1.3
265.61	35000	835.5	1.3
265.61	40000	858.8	1.3
265.61	45000	880.8	1.3
265.61	50000	902	1.3
265.61	55000	922.4	1.3
265.61	60000	941.6	1.3
265.61	65000	959.9	1.3
273.12	830	574.5	1.3
273.12	1220	578.8	1.3
273.12	1360	580.1	1.3
273.12	1500	581.6	1.3
273.12	1750	584.2	1.3
273.12	2010	586.8	1.3
273.12	2250	589.4	1.3
273.12	2510	591.9	1.3
273.12	2750	594.1	1.3
273.12	3010	596.9	1.3
273.12	3500	601.6	1.3
273.12	4000	606.4	1.3
273.12	4500	611	1.3
273.12	5000	615.4	1.3
273.12	6010	624.4	1.3
273.12	7010	633.3	1.3
273.12	8000	641.5	1.3
273.12	9000	649.3	1.3
273.12	10000	657.6	1.3
273.12	12000	672.7	1.3
273.12	14000	687.3	1.3
273.12	16010	701.1	1.3
273.12	18000	714.5	1.3
273.12	20000	727	1.3
273.12	23000	745.4	1.3
273.12	26000	762.7	1.3
273.12	29010	779	1.3
273.12	32000	794.8	1.3
273.12	35000	809.6	1.3
273.12	40000	833.5	1.3
273.12	45000	856.4	1.3
273.12	50000	877.8	1.3
273.12	55000	898.7	1.3
273.12	60000	919	1.3
273.12	65000	938	1.3
273.12	830	574.5	1.3
280.72	1030	535.2	1.3
280.72	1060	535.5	1.3
280.72	1150	536.9	1.3
280.72	1260	538	1.3
280.72	1380	539.4	1.3
280.72	1500	540.9	1.3
280.72	1630	542.3	1.3
280.72	1750	543.8	1.3
280.72	2010	546.7	1.3
280.72	2250	549.6	1.3
280.72	2510	552.3	1.3
280.72	2750	555	1.3
280.72	3010	557.9	1.3
280.72	3500	563.2	1.3
280.72	4000	568.5	1.3
280.72	4500	573.7	1.3
280.72	5000	579	1.3
280.72	6010	588.6	1.3
280.72	7010	598.3	1.3
280.72	8000	607.1	1.3
280.72	9000	615.9	1.3
280.72	10000	624.5	1.3
280.72	12000	640.6	1.3
280.72	14000	656.1	1.3
280.72	16010	670.9	1.3
280.72	18000	684.9	1.3
280.72	20000	698.3	1.3
280.72	23000	717	1.3
280.72	26000	735.5	1.3
280.72	29010	752.6	1.3
280.72	32000	769.2	1.3
280.72	35000	785.1	1.3
280.72	40000	809.7	1.3
280.72	45000	833.1	1.3
280.72	50000	855.3	1.3
280.72	55000	876.4	1.3
280.72	60000	898.9	1.3
280.72	65000	916.7	1.3
288.2	1350	496	1.3
288.2	1420	497.2	1.3
288.2	1480	498	1.3
288.2	1550	499	1.3
288.2	1650	500.3	1.3
288.2	1750	501.7	1.3
288.2	1880	503.4	1.3
288.2	2010	505.1	1.3
288.2	2250	508.2	1.3
288.2	2510	511.3	1.3
288.2	2750	514.7	1.3
288.2	3010	517.7	1.3
288.2	3500	524	1.3
288.2	4000	529.7	1.3
288.2	4500	535.6	1.3
288.2	5000	541.1	1.3
288.2	6010	552	1.3
288.2	7010	562.3	1.3
288.2	8000	572.3	1.3
288.2	9000	582	1.3
288.2	10000	591.2	1.3
288.2	12000	608.7	1.3
288.2	14000	625.1	1.3
288.2	16010	640.6	1.3
288.2	18000	655.7	1.3
288.2	20000	669.7	1.3
288.2	23000	689.6	1.3
288.2	26000	708.7	1.3
288.2	29010	727	1.3
288.2	32000	744	1.3
288.2	35000	760.4	1.3
288.2	40000	786.1	1.3
288.2	45000	810	1.3
288.2	50000	833	1.3
288.2	55000	854.6	1.3
288.2	60000	875.4	1.3
288.2	65000	895.5	1.3
298.2	1680	440.6	1.3
298.2	1750	441.7	1.4
298.2	1880	444	1.4
298.2	2010	446	1.4
298.2	2130	448.2	1.4
298.2	2250	450	1.4
298.2	2510	454	1.3
298.2	2750	457.8	1.3
298.2	3010	461.7	1.3
298.2	3500	469.1	1.3
298.2	4000	475.9	1.3
298.2	4500	483	1.3
298.2	5000	489.9	1.3
298.2	6010	502.6	1.3
298.2	7010	514.4	1.3
298.2	8000	525.7	1.3
298.2	9000	536.4	1.3
298.2	10000	546.7	1.3
298.2	12000	566.4	1.3
298.2	14000	584.5	1.3
298.2	16010	601.6	1.3
298.2	18000	617.3	1.3
298.2	20000	632.4	1.3
298.2	23000	653.8	1.3
298.2	26000	673.7	1.3
298.2	29010	693	1.3
298.2	32000	711.1	1.3
298.2	35000	728.5	1.3
298.2	40000	754.9	1.3
298.2	45000	780.3	1.3
298.2	50000	803.7	1.3
298.2	55000	826.3	1.3
298.2	60000	847.6	1.3
298.2	65000	868.2	1.3
298.2	1680	440.2	1.3
298.2	16010	601.3	1.3
298.2	1680	440.3	1.3
308.25	2170	383.3	1.4
308.25	2250	384.9	1.4
308.25	2380	387.7	1.4
308.25	2510	390.5	1.4
308.25	2750	395.6	1.4
308.25	3010	400.6	1.4
308.25	3500	409.9	1.4
308.25	4000	418.9	1.3
308.25	4500	427.4	1.3
308.25	5000	435.6	1.3
308.25	6010	450.5	1.3
308.25	7010	464.7	1.3
308.25	8000	477.8	1.3
308.25	9000	490.2	1.3
308.25	10000	501.7	1.3
308.25	12000	523.6	1.3
308.25	14000	543.5	1.3
308.25	16010	562.1	1.3
308.25	18000	579.5	1.3
308.25	20000	596	1.3
308.25	23000	619	1.3
308.25	26000	640	1.3
308.25	29010	660.1	1.3
308.25	32000	678.9	1.3
308.25	35000	697.2	1.3
308.25	40000	725.2	1.3
308.25	45000	751.3	1.3
308.25	50000	775.7	1.3
308.25	55000	798.8	1.3
308.25	60000	821	1.3
308.25	65000	841.9	1.3
308.25	2170	383.4	1.4
318.17	2750	323.4	1.4
318.17	2760	323.6	1.4
318.17	2880	327.2	1.4
318.17	3010	330.8	1.4
318.17	3250	337.8	1.4
318.17	3500	344.5	1.4
318.17	4000	356.6	1.4
318.17	4500	367.9	1.4
318.17	5000	378.2	1.4
318.17	6010	397.4	1.3
318.17	7010	414.5	1.3
318.17	8000	429.7	1.3
318.17	9000	444.1	1.3
318.17	10000	457.3	1.3
318.17	12000	481.7	1.3
318.17	14000	503.8	1.3
318.17	16010	524.3	1.3
318.17	18000	543.1	1.3
318.17	20000	560.6	1.3
318.17	23000	585.3	1.3
318.17	26000	607.9	1.3
318.17	29010	628.9	1.3
318.17	32000	648.5	1.3
318.17	35000	667.3	1.3
318.17	40000	696.7	1.3
318.17	45000	723.8	1.3
318.17	50000	749.1	1.3
318.17	55000	772.8	1.3
318.17	60000	795.7	1.3
318.17	65000	817.3	1.3
328.17	3470	257.9	1.5
328.17	3590	263.4	1.5
328.17	3720	269.8	1.5
328.17	3860	275.4	1.5
328.17	4000	281.3	1.5
328.17	4250	290.2	1.5
328.17	4500	298.5	1.5
328.17	5000	313.4	1.4
328.17	6010	339.3	1.4
328.17	7010	360.6	1.3
328.17	8000	379.4	1.3
328.17	9000	396.7	1.3
328.17	10000	412.2	1.3
328.17	12000	440.2	1.3
328.17	14000	464.8	1.3
328.17	16010	487.3	1.3
328.17	18000	507.4	1.3
328.17	20000	526.4	1.3
328.17	23000	552.3	1.3
328.17	26000	576.7	1.3
328.17	29010	598.7	1.3
328.17	32000	619.2	1.3
328.17	35000	638.6	1.3
328.17	40000	669	1.3
328.17	45000	697.4	1.3
328.17	50000	723.3	1.3
328.17	55000	747.8	1.3
328.17	60000	770.9	1.3
328.17	65000	793.1	1.3
328.17	3470	258.1	1.5
328.17	3470	258	1.5
338.16	4340	183.3	1.7
338.16	4410	189.7	1.6
338.16	4500	200.4	1.6
338.16	4750	217.6	1.6
338.16	5000	231.3	1.5
338.16	5500	255.4	1.5
338.16	6010	273.8	1.4
338.16	7010	303.5	1.3
338.16	8000	327.5	1.3
338.16	9000	348.4	1.3
338.16	10000	366.8	1.3
338.16	12000	398.9	1.3
338.16	14000	426.3	1.3
338.16	16010	450.8	1.3
338.16	18000	472.9	1.3
338.16	20000	493.2	1.3
338.16	23000	521.1	1.3
338.16	26000	546.3	1.3
338.16	29010	569.7	1.3
338.16	32000	591.3	1.3
338.16	35000	611.3	1.3
338.16	40000	642.8	1.3
338.16	45000	671.7	1.3
338.16	50000	698.8	1.3
338.16	55000	724.1	1.3
338.16	60000	747.7	1.3
338.16	65000	770.1	1.3

System: difluoromethane + carbon dioxide + pentafluoroethane; phases: Liquid, Gas
Fixed: Solvent: Mass fraction of difluoromethane = 0.5
Property: Critical pressure, kPa (Liquid); method: derived from speed of sound
Mole fraction of carbon dioxide	Critical pressure, kPa	uncertainty
0	4900	100
0.053	5010	100
0.1	5300	100
0.254	5840	100
0.501	6350	100
0.746	6970	100
0.855	7160	100
0.902	7270	100
0.919	7320	100
0.951	7350	100
0.979	7390	100

System: difluoromethane + carbon dioxide + pentafluoroethane; phases: Liquid, Gas
Fixed: Solvent: Mass fraction of difluoromethane = 0.5
Property: Critical temperature, K (Liquid); method: derived from speed of sound
Mole fraction of carbon dioxide	Critical temperature, K	uncertainty
0	344.9	1
0.053	343.45	1
0.1	341.05	1
0.254	336.1	1
0.501	328.95	1
0.746	319.86	1
0.855	314.5	1
0.902	311.32	1
0.919	309.03	1
0.951	307.75	1
0.979	306.45	1
