Measured thermophysical data. Thermophysical and Acoustical Properties of the Binary Mixtures 1,2-Dibromoethane + Heptane within the Temperature Range from 293.15 K to 313.15 K
Source: J. Chem. Eng. Data, 2007, 10.1021/je0603325
Compound 1: 1,2-dibromoethane, C2H4Br2, InChI=1S/C2H4Br2/c3-1-2-4/h1-2H2
Compound 2: heptane, C7H16, InChI=1S/C7H16/c1-3-5-7-6-4-2/h3-7H2,1-2H3

System: 1,2-dibromoethane; phases: Liquid
Fixed: Pressure, kPa = 101
Property: Molar heat capacity at constant pressure, J/K/mol (Liquid); method: Small sample (50 mg) DSC
Temperature, K	Molar heat capacity at constant pressure, J/K/mol	uncertainty
293.15	136.87	2.12
294.15	136.9	2.12
295.15	136.95	2.12
296.15	136.99	2.12
297.15	137.02	2.12
298.15	137.04	2.12
299.15	137.09	2.12
300.15	137.11	2.12
301.15	137.15	2.12
302.15	137.2	2.13
303.15	137.25	2.13
304.15	137.29	2.13
305.15	137.32	2.13
306.15	137.39	2.13
307.15	137.42	2.13
308.15	137.49	2.13
309.15	137.53	2.13
310.15	137.6	2.13
311.15	137.65	2.13
312.15	137.71	2.13
313.15	137.77	2.13

System: 1,2-dibromoethane; phases: Liquid
Fixed: Pressure, kPa = 101
Property: Speed of sound, m/s (Liquid); method: PULSEH:UFactor:4
Temperature, K	Speed of sound, m/s	uncertainty
292.84	1007.52	2.41
299.17	991.14	2.39
303.37	980.18	2.37
308.75	966.56	2.36
314.45	952	2.34

System: 1,2-dibromoethane; phases: Liquid
Fixed: Pressure, kPa = 101
Property: Mass density, kg/m3 (Liquid); method: VIBTUB:UFactor:4
Temperature, K	Mass density, kg/m3	uncertainty
293.15	2178.77	2.91
298.15	2168.41	2.89
303.15	2157.94	2.86
308.15	2147.47	2.84
313.15	2136.96	2.81

System: heptane; phases: Liquid
Fixed: Pressure, kPa = 101
Property: Mass density, kg/m3 (Liquid); method: VIBTUB:UFactor:4
Temperature, K	Mass density, kg/m3	uncertainty
293.15	683.82	0.63
298.15	679.59	0.63
303.15	675.31	0.64
308.15	671.02	0.65
313.15	666.68	0.65

System: 1,2-dibromoethane + heptane; phases: Liquid
Fixed: Pressure, kPa = 101
Property: Molar heat capacity at constant pressure, J/K/mol (Liquid); method: Small sample (50 mg) DSC
Temperature, K	Mole fraction of 1,2-dibromoethane	Molar heat capacity at constant pressure, J/K/mol	uncertainty
293.15	0.1016	213.58	3.31
293.15	0.2016	204.39	3.17
293.15	0.2989	196.15	3.04
293.15	0.3977	187.73	2.91
293.15	0.4996	179.31	2.78
293.15	0.5991	170.59	2.64
293.15	0.6928	162.47	2.52
293.15	0.8022	153.18	2.37
293.15	0.9003	144.9	2.24
293.15	1	136.87	2.12
294.15	0.1016	213.9	3.31
294.15	0.2016	204.73	3.17
294.15	0.2989	196.48	3.04
294.15	0.3977	188.03	2.91
294.15	0.4996	179.43	2.78
294.15	0.5991	170.8	2.65
294.15	0.6928	162.6	2.52
294.15	0.8022	153.26	2.37
294.15	0.9003	144.94	2.25
294.15	1	136.9	2.12
295.15	0.1016	214.26	3.32
295.15	0.2016	204.92	3.17
295.15	0.2989	196.66	3.05
295.15	0.3977	188.2	2.92
295.15	0.4996	179.65	2.78
295.15	0.5991	170.96	2.65
295.15	0.6928	162.81	2.52
295.15	0.8022	153.4	2.38
295.15	0.9003	145.07	2.25
295.15	1	136.95	2.12
296.15	0.1016	214.59	3.32
296.15	0.2016	205.3	3.18
296.15	0.2989	196.95	3.05
296.15	0.3977	188.51	2.92
296.15	0.4996	179.89	2.79
296.15	0.5991	171.13	2.65
296.15	0.6928	162.9	2.52
296.15	0.8022	153.53	2.38
296.15	0.9003	145.16	2.25
296.15	1	136.99	2.12
297.15	0.1016	214.9	3.33
297.15	0.2016	205.51	3.18
297.15	0.2989	197.29	3.06
297.15	0.3977	188.66	2.92
297.15	0.4996	180.09	2.79
297.15	0.5991	171.23	2.65
297.15	0.6928	163.05	2.53
297.15	0.8022	153.63	2.38
297.15	0.9003	145.24	2.25
297.15	1	137.02	2.12
298.15	0.1016	215.25	3.33
298.15	0.2016	205.83	3.19
298.15	0.2989	197.53	3.06
298.15	0.3977	188.94	2.93
298.15	0.4996	180.26	2.79
298.15	0.5991	171.4	2.66
298.15	0.6928	163.18	2.53
298.15	0.8022	153.72	2.38
298.15	0.9003	145.27	2.25
298.15	1	137.04	2.12
299.15	0.1016	215.55	3.34
299.15	0.2016	206.18	3.19
299.15	0.2989	197.72	3.06
299.15	0.3977	189.11	2.93
299.15	0.4996	180.39	2.79
299.15	0.5991	171.55	2.66
299.15	0.6928	163.24	2.53
299.15	0.8022	153.84	2.38
299.15	0.9003	145.33	2.25
299.15	1	137.09	2.12
300.15	0.1016	215.9	3.34
300.15	0.2016	206.45	3.2
300.15	0.2989	198	3.07
300.15	0.3977	189.43	2.93
300.15	0.4996	180.66	2.8
300.15	0.5991	171.77	2.66
300.15	0.6928	163.47	2.53
300.15	0.8022	153.91	2.38
300.15	0.9003	145.4	2.25
300.15	1	137.11	2.12
301.15	0.1016	216.32	3.35
301.15	0.2016	206.71	3.2
301.15	0.2989	198.31	3.07
301.15	0.3977	189.64	2.94
301.15	0.4996	180.79	2.8
301.15	0.5991	171.9	2.66
301.15	0.6928	163.5	2.53
301.15	0.8022	153.98	2.39
301.15	0.9003	145.47	2.25
301.15	1	137.15	2.12
302.15	0.1016	216.6	3.36
302.15	0.2016	207.03	3.21
302.15	0.2989	198.6	3.08
302.15	0.3977	189.82	2.94
302.15	0.4996	181.03	2.8
302.15	0.5991	172.01	2.66
302.15	0.6928	163.71	2.54
302.15	0.8022	154.13	2.39
302.15	0.9003	145.6	2.26
302.15	1	137.2	2.13
303.15	0.1016	216.95	3.36
303.15	0.2016	207.33	3.21
303.15	0.2989	198.77	3.08
303.15	0.3977	190.01	2.94
303.15	0.4996	181.17	2.81
303.15	0.5991	172.23	2.67
303.15	0.6928	163.89	2.54
303.15	0.8022	154.24	2.39
303.15	0.9003	145.65	2.26
303.15	1	137.25	2.13
304.15	0.1016	217.33	3.37
304.15	0.2016	207.57	3.22
304.15	0.2989	199.17	3.09
304.15	0.3977	190.33	2.95
304.15	0.4996	181.4	2.81
304.15	0.5991	172.31	2.67
304.15	0.6928	163.94	2.54
304.15	0.8022	154.32	2.39
304.15	0.9003	145.75	2.26
304.15	1	137.29	2.13
305.15	0.1016	217.7	3.37
305.15	0.2016	207.95	3.22
305.15	0.2989	199.39	3.09
305.15	0.3977	190.62	2.95
305.15	0.4996	181.54	2.81
305.15	0.5991	172.49	2.67
305.15	0.6928	164.06	2.54
305.15	0.8022	154.37	2.39
305.15	0.9003	145.77	2.26
305.15	1	137.32	2.13
306.15	0.1016	218.07	3.38
306.15	0.2016	208.28	3.23
306.15	0.2989	199.58	3.09
306.15	0.3977	190.75	2.96
306.15	0.4996	181.72	2.82
306.15	0.5991	172.71	2.68
306.15	0.6928	164.29	2.55
306.15	0.8022	154.55	2.39
306.15	0.9003	145.83	2.26
306.15	1	137.39	2.13
307.15	0.1016	218.39	3.38
307.15	0.2016	208.47	3.23
307.15	0.2989	199.9	3.1
307.15	0.3977	191.03	2.96
307.15	0.4996	181.95	2.82
307.15	0.5991	172.88	2.68
307.15	0.6928	164.4	2.55
307.15	0.8022	154.6	2.4
307.15	0.9003	145.96	2.26
307.15	1	137.42	2.13
308.15	0.1016	218.69	3.39
308.15	0.2016	208.8	3.23
308.15	0.2989	200.2	3.1
308.15	0.3977	191.31	2.96
308.15	0.4996	182.17	2.82
308.15	0.5991	173	2.68
308.15	0.6928	164.48	2.55
308.15	0.8022	154.68	2.4
308.15	0.9003	146.01	2.26
308.15	1	137.49	2.13
309.15	0.1016	219.1	3.39
309.15	0.2016	209.1	3.24
309.15	0.2989	200.37	3.1
309.15	0.3977	191.5	2.97
309.15	0.4996	182.37	2.83
309.15	0.5991	173.19	2.68
309.15	0.6928	164.7	2.55
309.15	0.8022	154.79	2.4
309.15	0.9003	146.13	2.26
309.15	1	137.53	2.13
310.15	0.1016	219.41	3.4
310.15	0.2016	209.5	3.25
310.15	0.2989	200.65	3.11
310.15	0.3977	191.66	2.97
310.15	0.4996	182.48	2.83
310.15	0.5991	173.29	2.68
310.15	0.6928	164.8	2.55
310.15	0.8022	154.9	2.4
310.15	0.9003	146.2	2.26
310.15	1	137.6	2.13
311.15	0.1016	219.69	3.4
311.15	0.2016	209.78	3.25
311.15	0.2989	200.99	3.11
311.15	0.3977	191.91	2.97
311.15	0.4996	182.68	2.83
311.15	0.5991	173.5	2.69
311.15	0.6928	164.88	2.55
311.15	0.8022	155	2.4
311.15	0.9003	146.21	2.27
311.15	1	137.65	2.13
312.15	0.1016	220.11	3.41
312.15	0.2016	210.1	3.26
312.15	0.2989	201.15	3.12
312.15	0.3977	192.12	2.98
312.15	0.4996	182.91	2.83
312.15	0.5991	173.69	2.69
312.15	0.6928	165.06	2.56
312.15	0.8022	155.16	2.4
312.15	0.9003	146.3	2.27
312.15	1	137.71	2.13
313.15	0.1016	220.35	3.41
313.15	0.2016	210.39	3.26
313.15	0.2989	201.51	3.12
313.15	0.3977	192.42	2.98
313.15	0.4996	183.06	2.84
313.15	0.5991	173.84	2.69
313.15	0.6928	165.16	2.56
313.15	0.8022	155.25	2.41
313.15	0.9003	146.43	2.27
313.15	1	137.77	2.13

System: 1,2-dibromoethane + heptane; phases: Liquid
Fixed: Pressure, kPa = 101
Property: Speed of sound, m/s (Liquid); method: PULSEH:UFactor:4
Temperature, K	Mole fraction of 1,2-dibromoethane	Speed of sound, m/s	uncertainty
292.6	0.6005	996.77	2.29
292.62	0.2	1079.5	2.36
292.64	0.1024	1112.12	2.39
292.64	0.2986	1050.76	2.33
292.66	0.6997	989.87	2.31
292.68	0.4002	1027.19	2.3
292.68	0.8004	989.25	2.33
292.7	0.4996	1009.41	2.29
292.7	0.9061	995.84	2.37
292.84	1	1007.52	2.41
298.56	0.1024	1087.95	2.36
298.56	0.9061	980	2.34
298.58	0.2	1056.48	2.32
298.59	0.4996	990.17	2.26
298.59	0.6005	978.03	2.26
298.6	0.4002	1006.69	2.27
298.6	0.6997	972.29	2.28
298.68	0.8004	972.17	2.3
298.69	0.2986	1028.57	2.29
299.17	1	991.14	2.39
303.37	1	980.18	2.37
303.54	0.4002	989.74	2.24
303.57	0.9061	966.53	2.33
303.59	0.1024	1067.66	2.33
303.61	0.2	1037.19	2.29
303.61	0.6997	957.6	2.26
303.62	0.6005	962.51	2.24
303.65	0.2986	1010.63	2.26
303.66	0.4996	973.72	2.24
303.78	0.8004	957.87	2.28
308.44	0.9061	953.47	2.31
308.57	0.6997	943.03	2.23
308.58	0.4002	972.63	2.22
308.59	0.6005	947.22	2.22
308.59	0.8004	944.46	2.26
308.62	0.1024	1047.39	2.3
308.62	0.2986	992.63	2.23
308.65	0.2	1017.99	2.26
308.75	1	966.56	2.36
309.57	0.4996	954.55	2.21
314.45	1	952	2.34
314.52	0.9061	937.35	2.28
314.55	0.6997	925.53	2.2
314.56	0.2	995.72	2.22
314.58	0.4002	952.25	2.18
314.58	0.8004	927.74	2.24
314.59	0.1024	1023.62	2.26
314.59	0.4996	938.54	2.18
314.59	0.6005	928.96	2.19
314.61	0.2986	971.18	2.19

System: 1,2-dibromoethane + heptane; phases: Liquid
Fixed: Pressure, kPa = 101
Property: Mass density, kg/m3 (Liquid); method: VIBTUB:UFactor:4
Temperature, K	Mole fraction of 1,2-dibromoethane	Mass density, kg/m3	uncertainty
293.15	0	683.82	0.63
293.15	0.1018	776.01	0.52
293.15	0.2052	878.46	0.43
293.15	0.2931	973.9	0.43
293.15	0.3754	1070.54	0.56
293.15	0.3919	1091.09	0.6
293.15	0.5009	1234.71	0.95
293.15	0.5993	1379.31	1.11
293.15	0.6916	1530.51	1.36
293.15	0.7886	1707.97	1.71
293.15	0.8919	1922	2.22
293.15	1	2178.77	2.91
298.15	0	679.59	0.63
298.15	0.1018	771.16	0.51
298.15	0.2052	872.98	0.42
298.15	0.2931	968	0.41
298.15	0.3754	1064.3	0.56
298.15	0.3919	1084.74	0.59
298.15	0.5009	1227.73	0.92
298.15	0.5993	1372.04	1.08
298.15	0.6916	1522.49	1.32
298.15	0.7886	1699.34	1.67
298.15	0.8919	1912.55	2.18
298.15	1	2168.41	2.89
303.15	0	675.31	0.64
303.15	0.1018	766.4	0.52
303.15	0.2052	867.72	0.42
303.15	0.2931	962.23	0.41
303.15	0.3754	1058	0.55
303.15	0.3919	1078.36	0.59
303.15	0.5009	1220.93	0.91
303.15	0.5993	1364.69	1.07
303.15	0.6916	1514.35	1.31
303.15	0.7886	1690.56	1.65
303.15	0.8919	1903.13	2.16
303.15	1	2157.94	2.86
308.15	0	671.02	0.65
308.15	0.1018	761.38	0.52
308.15	0.2052	862.14	0.43
308.15	0.2931	956.31	0.42
308.15	0.3754	1051.8	0.54
308.15	0.3919	1071.93	0.58
308.15	0.5009	1213.97	0.9
308.15	0.5993	1357.19	1.06
308.15	0.6916	1506.3	1.29
308.15	0.7886	1681.76	1.64
308.15	0.8919	1893.55	2.13
308.15	1	2147.47	2.84
313.15	0	666.68	0.65
313.15	0.1018	756.39	0.52
313.15	0.2052	856.68	0.42
313.15	0.2931	950.37	0.41
313.15	0.3754	1045.35	0.54
313.15	0.3919	1065.57	0.57
313.15	0.5009	1207.14	0.88
313.15	0.5993	1349.51	1.04
313.15	0.6916	1498.2	1.27
313.15	0.7886	1673.14	1.61
313.15	0.8919	1884.12	2.11
313.15	1	2136.96	2.81
