Measured thermophysical data. Thermal Conductivity of HFC-245fa from (243 to 413) K
Source: J. Chem. Eng. Data, 2006, 10.1021/je060116w
Compound 1: 1,1,1,3,3-pentafluoropropane, C3H3F5, InChI=1S/C3H3F5/c4-2(5)1-3(6,7)8/h2H,1H2

System: 1,1,1,3,3-pentafluoropropane; phases: Liquid, Gas
Property: Thermal conductivity, W/m/K (Liquid); method: Hot wire method
Temperature, K	Thermal conductivity, W/m/K	uncertainty
244.4	0.1044	0.0021
244.64	0.1043	0.0021
244.9	0.1041	0.0021
254.41	0.1014	0.0021
254.67	0.1014	0.0021
254.94	0.1013	0.0021
264.37	0.09835	0.00201
264.64	0.0982	0.00201
264.91	0.0981	0.00201
274.38	0.09519	0.00195
274.66	0.09525	0.00195
274.94	0.09497	0.00194
284.51	0.09219	0.00189
284.8	0.09211	0.00189
285.08	0.09178	0.00188
294.42	0.08894	0.00182
294.67	0.08895	0.00182
294.99	0.08862	0.00182
304.46	0.08598	0.00176
304.72	0.08564	0.00176
305.08	0.08542	0.00175
314.17	0.0826	0.00169
314.45	0.08276	0.0017
314.53	0.08259	0.00169
314.76	0.08269	0.0017
314.8	0.08262	0.00169
315.13	0.08252	0.00169
315.17	0.08234	0.00169
324.46	0.0795	0.00163
324.78	0.07945	0.00163
325.15	0.07953	0.00163
334.52	0.07649	0.00157
334.84	0.0765	0.00157
335.21	0.0765	0.00157
344.59	0.07365	0.00151
344.93	0.07351	0.00151
345.31	0.07356	0.00151
354.66	0.07059	0.00145
355	0.07059	0.00145
355.37	0.07058	0.00145
364.67	0.06648	0.00137
365.04	0.06636	0.00137
365.43	0.06604	0.00136
374.69	0.06371	0.00131
375.06	0.0631	0.0013
375.44	0.06262	0.00129
384.7	0.06117	0.00126
385.14	0.0606	0.00125
385.48	0.05985	0.00124
394.71	0.05833	0.00121
395.1	0.05813	0.0012
395.52	0.05783	0.0012
404.77	0.05598	0.00116
405.12	0.05595	0.00116
405.54	0.05564	0.00115
414.79	0.05331	0.00111
415.16	0.05316	0.0011
415.54	0.0529	0.0011

System: 1,1,1,3,3-pentafluoropropane; phases: Gas
Property: Thermal conductivity, W/m/K (Gas); method: Hot wire method
Temperature, K	Pressure, kPa	Thermal conductivity, W/m/K	uncertainty
296.14	121.3	0.01256	0.00032
297.06	121.3	0.01257	0.00032
297.76	121.3	0.01267	0.00033
305.45	123.2	0.01342	0.00044
305.99	123.2	0.01345	0.00035
306.63	123.2	0.01352	0.00038
315.24	203.4	0.01425	0.00036
315.99	203.4	0.01428	0.00036
316.55	203.4	0.01435	0.00036
325.29	203.3	0.0152	0.00038
326.02	203.3	0.01524	0.00038
326.56	203.3	0.01527	0.00038
335.28	291.6	0.01607	0.0004
335.96	291.6	0.0161	0.0004
336.77	291.6	0.01611	0.0004
345.15	303	0.01704	0.00042
345.77	303	0.0171	0.00043
346.5	303	0.01714	0.00043
354.97	738.2	0.01782	0.00044
355.04	579.7	0.01778	0.00044
355.53	738.2	0.01786	0.00044
355.63	579.7	0.01782	0.00044
356.17	738.2	0.0179	0.00044
356.29	579.7	0.01791	0.00044
364.88	954.5	0.01876	0.00046
365.05	617.9	0.01865	0.00046
365.4	954.5	0.01875	0.00046
365.61	617.9	0.01873	0.00046
365.96	954.5	0.0189	0.00047
366.24	617.9	0.01878	0.00046
374.84	1243	0.01982	0.00049
374.99	997	0.01966	0.00048
375.13	604.2	0.01956	0.00048
375.31	1243	0.01995	0.00049
375.48	997	0.01969	0.00048
375.71	604.2	0.01959	0.00048
375.83	1243	0.02001	0.00049
376.05	997	0.01976	0.00049
376.31	604.2	0.01963	0.00048
384.79	1489.1	0.0211	0.00052
385.04	998.9	0.02061	0.0005
385.2	598.1	0.02052	0.0005
385.21	1489.1	0.02101	0.00051
385.55	998.9	0.02067	0.00051
385.68	1489.1	0.02112	0.00052
385.76	598.1	0.02059	0.0005
386.13	998.9	0.02072	0.00051
386.35	598.1	0.0206	0.0005
394.74	1765.3	0.02246	0.00055
394.9	1498.3	0.02208	0.00054
395.07	602.5	0.02148	0.00052
395.09	1004.6	0.02149	0.00052
395.16	1765.3	0.02251	0.00055
395.36	1498.3	0.02216	0.00054
395.52	1765.3	0.02258	0.00055
395.58	602.5	0.02153	0.00052
395.6	1004.6	0.02161	0.00053
395.75	1498.3	0.02218	0.00054
395.94	602.5	0.02147	0.00052
396.04	1004.6	0.02168	0.00053
404.55	2269.8	0.02483	0.0006
404.75	1999.2	0.02362	0.00057
404.85	1500.7	0.02277	0.00055
404.89	2269.8	0.02475	0.0006
405	998.4	0.02248	0.00055
405.12	604.3	0.02248	0.00055
405.14	1999.2	0.02364	0.00057
405.29	2269.8	0.02484	0.0006
405.3	1500.7	0.02285	0.00056
405.48	998.4	0.02253	0.00055
405.55	1999.2	0.02369	0.00057
405.62	604.3	0.02249	0.00055
405.78	1500.7	0.02302	0.00056
406.02	998.4	0.0227	0.00055
406.18	604.3	0.02253	0.00055
414.76	2496.6	0.02664	0.00064
414.88	1998	0.02456	0.00059
415.04	995.9	0.02342	0.00057
415.04	1502.2	0.02374	0.00058
415.15	604.1	0.02337	0.00057
415.25	2496.6	0.02694	0.00065
415.45	1998	0.0246	0.0006
415.64	604.1	0.02346	0.00057
415.64	1502.2	0.02378	0.00058
415.66	2496.6	0.02696	0.00065
415.68	995.9	0.02355	0.00057
415.92	1998	0.02467	0.0006
416.18	1502.2	0.02399	0.00058
416.19	604.1	0.02348	0.00057
416.22	995.9	0.0236	0.00057
