Measured thermophysical data. Excess Molar Enthalpies of p-Cymene + r-Pinene + a-Pinene at (298.15, 308.15, and 318.15) K and at Atmospheric Pressure
Source: J. Chem. Eng. Data, 2007, 10.1021/je060420p
Compound 1: 2-pinene, C10H16, InChI=1S/C10H16/c1-7-4-5-8-6-9(7)10(8,2)3/h4,8-9H,5-6H2,1-3H3, purity 99%
Compound 2: .beta.-pinene, C10H16, InChI=1S/C10H16/c1-7-4-5-8-6-9(7)10(8,2)3/h8-9H,1,4-6H2,2-3H3, purity 99%
Compound 3: 1-(1-methylethyl)-4-methylbenzene, C10H14, InChI=1S/C10H14/c1-8(2)10-6-4-9(3)5-7-10/h4-8H,1-3H3, purity 99%

System: 2-pinene; phases: Liquid
Fixed: Pressure, kPa = 101.325
Property: Refractive index (Na D-line) (Liquid); method: Standard Abbe refractometry
Temperature, K	Refractive index (Na D-line)	uncertainty
298.15	1.4626	0.0006
308.15	1.4581	0.0006
318.15	1.4542	0.0006

System: 2-pinene; phases: Liquid
Fixed: Pressure, kPa = 101.325
Property: Mass density, kg/m3 (Liquid); method: VIBTUB:UFactor:8
Temperature, K	Mass density, kg/m3	uncertainty
298.15	854.03	0.93
308.15	845.79	0.97
318.15	838.64	1

System: .beta.-pinene; phases: Liquid
Fixed: Pressure, kPa = 101.325
Property: Refractive index (Na D-line) (Liquid); method: Standard Abbe refractometry
Temperature, K	Refractive index (Na D-line)	uncertainty
298.15	1.476	0.0006
308.15	1.4714	0.0006
318.15	1.4665	0.0006

System: .beta.-pinene; phases: Liquid
Fixed: Pressure, kPa = 101.325
Property: Mass density, kg/m3 (Liquid); method: VIBTUB:UFactor:8
Temperature, K	Mass density, kg/m3	uncertainty
298.15	867.06	0.9
308.15	859.08	0.93
318.15	852.08	0.96

System: 1-(1-methylethyl)-4-methylbenzene; phases: Liquid
Fixed: Pressure, kPa = 101.325
Property: Refractive index (Na D-line) (Liquid); method: Standard Abbe refractometry
Temperature, K	Refractive index (Na D-line)	uncertainty
298.15	1.4878	0.0006
308.15	1.4831	0.0006
318.15	1.4789	0.0006

System: 1-(1-methylethyl)-4-methylbenzene; phases: Liquid
Fixed: Pressure, kPa = 101.325
Property: Mass density, kg/m3 (Liquid); method: VIBTUB:UFactor:8
Temperature, K	Mass density, kg/m3	uncertainty
298.15	853.47	1.05
308.15	845.59	1.08
318.15	838.46	1.11

System: 2-pinene + .beta.-pinene; phases: Liquid
Fixed: Pressure, kPa = 101
Property: Excess molar enthalpy (molar enthalpy of mixing), kJ/mol (Liquid); method: Calvet calorimetry
Mole fraction of 2-pinene	Temperature, K	Excess molar enthalpy (molar enthalpy of mixing), kJ/mol	uncertainty
0.2	308.15	0.0075	0.0008
0.2003	318.15	0.0088	0.0008
0.2012	298.15	0.007	0.0008
0.3001	318.15	0.0112	0.0009
0.3004	308.15	0.0101	0.0009
0.3013	298.15	0.0092	0.0008
0.3987	298.15	0.0106	0.0009
0.3999	308.15	0.0114	0.0009
0.4034	318.15	0.0127	0.0009
0.4993	298.15	0.0111	0.0009
0.5	318.15	0.0132	0.0009
0.5006	308.15	0.0119	0.0009
0.5994	298.15	0.0103	0.0009
0.6004	318.15	0.0126	0.0009
0.6013	308.15	0.0109	0.0009
0.6972	308.15	0.0099	0.0009
0.7012	318.15	0.0114	0.0009
0.7023	298.15	0.0095	0.0009
0.7975	318.15	0.0084	0.0008
0.7998	298.15	0.0073	0.0008
0.7998	308.15	0.0074	0.0008

System: 2-pinene + 1-(1-methylethyl)-4-methylbenzene + .beta.-pinene; phases: Liquid
Fixed: Pressure, kPa = 101
Property: Excess molar enthalpy (molar enthalpy of mixing), kJ/mol (Liquid); method: Calvet calorimetry
Solvent: Amount ratio of component to other component of binary solvent of 2-pinene	Temperature, K	Mole fraction of 1-(1-methylethyl)-4-methylbenzene	Excess molar enthalpy (molar enthalpy of mixing), kJ/mol	uncertainty
0.5028	298.15	0.05	0.0262	0.0011
0.5028	298.15	0.0983	0.0498	0.0013
0.5028	298.15	0.1506	0.0692	0.0015
0.5028	298.15	0.2052	0.0866	0.0017
0.5028	298.15	0.2573	0.1036	0.0019
0.5028	298.15	0.2997	0.115	0.0021
0.5028	298.15	0.35	0.126	0.0022
0.5028	298.15	0.4093	0.135	0.0023
0.5028	298.15	0.4506	0.1372	0.0024
0.5028	298.15	0.4939	0.1387	0.0024
0.5028	298.15	0.5543	0.136	0.0023
0.5028	298.15	0.6089	0.1311	0.0023
0.5028	298.15	0.649	0.1235	0.0022
0.5028	298.15	0.7024	0.1113	0.002
0.5028	298.15	0.7516	0.098	0.0018
0.5028	298.15	0.7995	0.0855	0.0017
0.5028	298.15	0.8519	0.0684	0.0015
0.5028	298.15	0.9	0.0428	0.0012
0.5028	298.15	0.9499	0.0226	0.001
0.5028	308.15	0.0503	0.0292	0.0011
0.5028	308.15	0.1011	0.0528	0.0013
0.5028	308.15	0.15	0.0752	0.0016
0.5028	308.15	0.2001	0.0949	0.0018
0.5028	308.15	0.2503	0.11	0.002
0.5028	308.15	0.3001	0.1231	0.0022
0.5028	308.15	0.35	0.1332	0.0023
0.5028	308.15	0.4001	0.1407	0.0024
0.5028	308.15	0.4503	0.1439	0.0024
0.5028	308.15	0.5007	0.1459	0.0025
0.5028	308.15	0.55	0.1433	0.0024
0.5028	308.15	0.5995	0.1388	0.0024
0.5028	308.15	0.65	0.1301	0.0023
0.5028	308.15	0.6999	0.1214	0.0022
0.5028	308.15	0.7499	0.1046	0.0019
0.5028	308.15	0.7996	0.0912	0.0018
0.5028	308.15	0.8501	0.0727	0.0016
0.5028	308.15	0.9006	0.0489	0.0013
0.5028	308.15	0.9499	0.0279	0.0011
0.5028	318.15	0.05	0.0299	0.0011
0.5028	318.15	0.1	0.0563	0.0014
0.5028	318.15	0.15	0.0772	0.0016
0.5028	318.15	0.2	0.0965	0.0018
0.5028	318.15	0.2498	0.1121	0.002
0.5028	318.15	0.2997	0.1273	0.0022
0.5028	318.15	0.35	0.138	0.0024
0.5028	318.15	0.3998	0.1481	0.0025
0.5028	318.15	0.4503	0.15	0.0025
0.5028	318.15	0.4999	0.1511	0.0025
0.5028	318.15	0.5498	0.1496	0.0025
0.5028	318.15	0.5996	0.1437	0.0024
0.5028	318.15	0.65	0.1352	0.0023
0.5028	318.15	0.6996	0.1241	0.0022
0.5028	318.15	0.7495	0.109	0.002
0.5028	318.15	0.8	0.0922	0.0018
0.5028	318.15	0.85	0.0719	0.0015
0.5028	318.15	0.9005	0.0504	0.0013
0.5028	318.15	0.95	0.0274	0.0011
1	298.15	0.0501	0.03	0.0011
1	298.15	0.1016	0.0541	0.0013
1	298.15	0.1529	0.0765	0.0016
1	298.15	0.2003	0.0926	0.0018
1	298.15	0.252	0.1101	0.002
1	298.15	0.3007	0.1257	0.0022
1	298.15	0.35	0.1401	0.0024
1	298.15	0.3999	0.1499	0.0025
1	298.15	0.449	0.1548	0.0026
1	298.15	0.5004	0.1572	0.0026
1	298.15	0.5489	0.1554	0.0026
1	298.15	0.5994	0.1502	0.0025
1	298.15	0.65	0.1372	0.0024
1	298.15	0.7026	0.124	0.0022
1	298.15	0.7512	0.1089	0.002
1	298.15	0.8017	0.09	0.0018
1	298.15	0.8499	0.0729	0.0016
1	298.15	0.8995	0.0526	0.0013
1	298.15	0.95	0.0275	0.0011
1	308.15	0.0505	0.0326	0.0012
1	308.15	0.1008	0.0642	0.0015
1	308.15	0.1502	0.0896	0.0018
1	308.15	0.2002	0.1061	0.002
1	308.15	0.2504	0.1242	0.0022
1	308.15	0.2997	0.1373	0.0024
1	308.15	0.35	0.1532	0.0026
1	308.15	0.4001	0.1612	0.0027
1	308.15	0.45	0.1646	0.0027
1	308.15	0.5002	0.1669	0.0028
1	308.15	0.5497	0.1639	0.0027
1	308.15	0.5987	0.1572	0.0026
1	308.15	0.65	0.1469	0.0025
1	308.15	0.6995	0.1346	0.0023
1	308.15	0.7496	0.1162	0.0021
1	308.15	0.7994	0.0989	0.0019
1	308.15	0.85	0.0774	0.0016
1	308.15	0.9002	0.0572	0.0014
1	308.15	0.9495	0.0291	0.0012
1	318.15	0.0506	0.0332	0.0012
1	318.15	0.1006	0.0641	0.0015
1	318.15	0.15	0.0901	0.0018
1	318.15	0.2001	0.1097	0.002
1	318.15	0.2502	0.1287	0.0023
1	318.15	0.3001	0.1422	0.0024
1	318.15	0.35	0.1566	0.0026
1	318.15	0.4003	0.1651	0.0027
1	318.15	0.4501	0.17	0.0028
1	318.15	0.4996	0.1711	0.0028
1	318.15	0.5499	0.1684	0.0028
1	318.15	0.5998	0.1629	0.0027
1	318.15	0.65	0.1512	0.0026
1	318.15	0.6998	0.1384	0.0024
1	318.15	0.7497	0.1214	0.0022
1	318.15	0.7996	0.1019	0.0019
1	318.15	0.85	0.0836	0.0017
1	318.15	0.9	0.0596	0.0014
1	318.15	0.9499	0.0292	0.0012
1.9876	298.15	0.05	0.0326	0.0012
1.9876	298.15	0.0996	0.0615	0.0015
1.9876	298.15	0.15	0.0842	0.0017
1.9876	298.15	0.2	0.10476	0.00196
1.9876	298.15	0.2491	0.1236	0.0022
1.9876	298.15	0.3005	0.1434	0.0025
1.9876	298.15	0.35	0.155	0.0026
1.9876	298.15	0.4003	0.1645	0.0027
1.9876	298.15	0.4501	0.1701	0.0028
1.9876	298.15	0.5	0.1714	0.0028
1.9876	298.15	0.5498	0.1686	0.0028
1.9876	298.15	0.5993	0.164	0.0027
1.9876	298.15	0.6505	0.1531	0.0026
1.9876	298.15	0.6993	0.1415	0.0024
1.9876	298.15	0.75	0.1234	0.0022
1.9876	298.15	0.8006	0.1019	0.0019
1.9876	298.15	0.8504	0.0801	0.0017
1.9876	298.15	0.9	0.0546	0.0014
1.9876	298.15	0.9499	0.0304	0.0011
1.9876	308.15	0.0502	0.0359	0.0013
1.9876	308.15	0.1004	0.0695	0.0016
1.9876	308.15	0.15	0.0952	0.0019
1.9876	308.15	0.2005	0.1185	0.0021
1.9876	308.15	0.2504	0.1375	0.0024
1.9876	308.15	0.2999	0.1564	0.0026
1.9876	308.15	0.35	0.1675	0.0028
1.9876	308.15	0.3998	0.1764	0.0029
1.9876	308.15	0.4504	0.1817	0.003
1.9876	308.15	0.5003	0.1827	0.003
1.9876	308.15	0.55	0.1803	0.0029
1.9876	308.15	0.5999	0.1741	0.0029
1.9876	308.15	0.65	0.1631	0.0027
1.9876	308.15	0.7001	0.1537	0.0026
1.9876	308.15	0.7499	0.1352	0.0024
1.9876	308.15	0.7994	0.1149	0.0021
1.9876	308.15	0.85	0.0866	0.0018
1.9876	308.15	0.9	0.0607	0.0015
1.9876	308.15	0.9495	0.033	0.0012
1.9876	318.15	0.05	0.0342	0.0013
1.9876	318.15	0.0997	0.0716	0.0016
1.9876	318.15	0.15	0.0982	0.0019
1.9876	318.15	0.1999	0.1212	0.0022
1.9876	318.15	0.2497	0.14129	0.00244
1.9876	318.15	0.3	0.1613	0.0027
1.9876	318.15	0.35	0.1749	0.0029
1.9876	318.15	0.3996	0.1834	0.003
1.9876	318.15	0.4498	0.188	0.003
1.9876	318.15	0.4998	0.1896	0.0031
1.9876	318.15	0.5503	0.1879	0.003
1.9876	318.15	0.6003	0.1797	0.0029
1.9876	318.15	0.65	0.1701	0.0028
1.9876	318.15	0.6997	0.1553	0.0026
1.9876	318.15	0.75	0.1352	0.0024
1.9876	318.15	0.7996	0.115	0.0021
1.9876	318.15	0.85	0.0916	0.0018
1.9876	318.15	0.8995	0.0649	0.0015
1.9876	318.15	0.95	0.0328	0.0012
