Measured thermophysical data. Viscosity B Coefficients and Activation Parameters of Viscous Flow for Hexanedioic Acid in Aqueous Dextran Solution
Source: J. Chem. Eng. Data, 2007, 10.1021/je060189f
Compound 1: 1,6-hexanedioic acid, C6H10O4, InChI=1S/C6H10O4/c7-5(8)3-1-2-4-6(9)10/h1-4H2,(H,7,8)(H,9,10)
Compound 2: water, H2O, InChI=1S/H2O/h1H2

System: 1,6-hexanedioic acid + water; phases: Liquid
Fixed: Pressure, kPa = 101
Property: Viscosity, Pa*s (Liquid); method: CAPTUB:UFactor:2
Temperature, K	Molality, mol/kg of 1,6-hexanedioic acid	Viscosity, Pa*s	uncertainty
293.15	0	0.001002	1.3e-05
293.15	0.00708	0.001006	1.3e-05
293.15	0.01399	0.001008	1.3e-05
293.15	0.02122	0.00101	1.3e-05
293.15	0.02857	0.001014	1.3e-05
293.15	0.05669	0.001023	1.3e-05
293.15	0.08401	0.001035	1.3e-05
293.15	0.1125	0.001047	1.3e-05
293.15	0.143	0.00106	1.3e-05
298.15	0	0.0008904	1.14e-05
298.15	0.0154	0.0008959	1.14e-05
298.15	0.0257	0.0008985	1.15e-05
298.15	0.03133	0.0009017	1.15e-05
298.15	0.03789	0.0009028	1.15e-05
298.15	0.0455	0.000905	1.15e-05
298.15	0.05256	0.0009074	1.16e-05
298.15	0.05776	0.0009102	1.16e-05
298.15	0.06453	0.0009122	1.16e-05
298.15	0.06989	0.0009136	1.16e-05
298.15	0.08956	0.0009197	1.17e-05
298.15	0.1136	0.0009285	1.18e-05
303.15	0	0.0007975	1.04e-05
303.15	0.0154	0.0008022	1.04e-05
303.15	0.0257	0.000806	1.05e-05
303.15	0.03133	0.0008073	1.05e-05
303.15	0.03789	0.0008085	1.05e-05
303.15	0.0455	0.0008116	1.05e-05
303.15	0.05256	0.0008134	1.05e-05
303.15	0.05776	0.0008148	1.06e-05
303.15	0.06453	0.0008157	1.06e-05
303.15	0.06989	0.0008172	1.06e-05
303.15	0.08956	0.0008233	1.06e-05
303.15	0.1136	0.0008297	1.07e-05
308.15	0	0.0007194	9.5e-06
308.15	0.0154	0.0007229	9.5e-06
308.15	0.0257	0.0007255	9.6e-06
308.15	0.03133	0.0007275	9.6e-06
308.15	0.03789	0.0007285	9.6e-06
308.15	0.0455	0.0007309	9.6e-06
308.15	0.05256	0.0007323	9.6e-06
308.15	0.05776	0.0007334	9.7e-06
308.15	0.06453	0.0007353	9.7e-06
308.15	0.06989	0.0007362	9.7e-06
308.15	0.08956	0.0007406	9.7e-06
308.15	0.1136	0.0007457	9.8e-06
313.15	0	0.000653	8.8e-06
313.15	0.0154	0.0006559	8.8e-06
313.15	0.0257	0.0006585	8.8e-06
313.15	0.03133	0.00066	8.8e-06
313.15	0.03789	0.0006612	8.9e-06
313.15	0.0455	0.0006625	8.9e-06
313.15	0.05256	0.0006639	8.9e-06
313.15	0.05776	0.0006643	8.9e-06
313.15	0.06453	0.0006663	8.9e-06
313.15	0.06989	0.0006674	8.9e-06
313.15	0.08956	0.0006708	9e-06
313.15	0.1136	0.0006754	9e-06

System: 1,6-hexanedioic acid + water; phases: Liquid
Fixed: Pressure, kPa = 101
Property: Mass density, kg/m3 (Liquid); method: VIBTUB:UFactor:8
Temperature, K	Molality, mol/kg of 1,6-hexanedioic acid	Mass density, kg/m3	uncertainty
293.15	0	998.2	0.3
293.15	0.00708	998.48	0.3
293.15	0.01399	998.72	0.3
293.15	0.02122	999.01	0.3
293.15	0.02857	999.2	0.3
293.15	0.05669	1000.16	0.3
293.15	0.08401	1000.95	0.3
293.15	0.1125	1001.81	0.31
293.15	0.143	1002.78	0.31
298.15	0	997.04	0.31
298.15	0.01287	997.49	0.31
298.15	0.0154	997.52	0.3
298.15	0.0257	997.83	0.31
298.15	0.02702	997.91	0.31
298.15	0.03133	998.11	0.31
298.15	0.03789	998.27	0.3
298.15	0.04282	998.42	0.3
298.15	0.05544	998.81	0.3
298.15	0.06825	999.2	0.3
298.15	0.06989	999.21	0.3
298.15	0.08417	999.71	0.3
298.15	0.09767	1000.15	0.3
298.15	0.1088	1000.49	0.3
298.15	0.1136	1000.66	0.3
298.15	0.1266	1001.01	0.3
298.15	0.1377	1001.33	0.3
303.15	0	995.64	0.31
303.15	0.01287	996.07	0.31
303.15	0.0154	996.08	0.31
303.15	0.0257	996.56	0.32
303.15	0.02702	996.51	0.31
303.15	0.03133	996.64	0.31
303.15	0.03789	996.83	0.31
303.15	0.04282	996.99	0.31
303.15	0.05544	997.38	0.31
303.15	0.06825	997.72	0.31
303.15	0.06989	997.73	0.31
303.15	0.08417	998.28	0.31
303.15	0.09767	998.74	0.3
303.15	0.1088	999.01	0.3
303.15	0.1136	999.1	0.3
303.15	0.1266	999.56	0.3
303.15	0.1377	999.93	0.3
308.15	0	994.04	0.32
308.15	0.01287	994.41	0.32
308.15	0.0154	994.45	0.31
308.15	0.0257	994.79	0.33
308.15	0.02702	994.89	0.31
308.15	0.03133	994.96	0.31
308.15	0.03789	995.17	0.31
308.15	0.04282	995.34	0.31
308.15	0.05544	995.71	0.31
308.15	0.06825	996.07	0.31
308.15	0.06989	996.09	0.31
308.15	0.08417	996.55	0.31
308.15	0.09767	996.95	0.31
308.15	0.1088	997.25	0.31
308.15	0.1136	997.47	0.31
308.15	0.1266	997.79	0.31
308.15	0.1377	998.16	0.31
313.15	0	992.21	0.32
313.15	0.01287	992.54	0.32
313.15	0.0154	992.58	0.32
313.15	0.0257	992.89	0.33
313.15	0.02702	993.01	0.32
313.15	0.03133	993.19	0.32
313.15	0.03789	993.29	0.32
313.15	0.04282	993.45	0.32
313.15	0.05544	993.89	0.32
313.15	0.06825	994.21	0.32
313.15	0.06989	994.21	0.32
313.15	0.08417	994.66	0.32
313.15	0.09767	995.03	0.31
313.15	0.1088	995.33	0.31
313.15	0.1136	995.47	0.31
313.15	0.1266	995.88	0.31
313.15	0.1377	996.19	0.31
