Measured thermophysical data. Experimental Determination and Correlation of Phase Equilibria for the Ethane + 1-Propanol and Propane + 1-Propanol Systems
Source: J. Chem. Eng. Data, 2006, 10.1021/je060112r
Compound 1: propan-1-ol, C3H8O, InChI=1S/C3H8O/c1-2-3-4/h4H,2-3H2,1H3, purity 99.7%
Compound 2: propane, C3H8, InChI=1S/C3H8/c1-3-2/h3H2,1-2H3, purity 99.99%
Compound 3: ethane, C2H6, InChI=1S/C2H6/c1-2/h1-2H3, purity 99.999%

System: propan-1-ol + propane; phases: Liquid, Gas
Property: Vapor or sublimation pressure, kPa (Liquid); method: CCELL:UFactor:4
Mole fraction of propane	Temperature, K	Vapor or sublimation pressure, kPa	uncertainty
0.097	348.93	540	108
0.111	324.31	528	89
0.139	318.3	575	52
0.167	324.31	765	66
0.176	318.3	671	64
0.203	318.3	782	53
0.213	348.93	1166	106
0.247	324.31	980	51
0.255	318.3	883	43
0.284	348.93	1521	88
0.296	318.3	977	40
0.332	324.31	1175	41
0.367	318.3	1097	31
0.412	348.93	2030	66
0.443	318.3	1184	22
0.461	324.31	1391	31
0.527	348.93	2255	43
0.549	324.31	1448	20
0.596	318.3	1287	20
0.664	348.93	2435	35
0.665	318.3	1314	18
0.732	324.31	1520	20
0.864	348.93	2549	35
0.871	324.31	1571	21
0.94	348.93	2641	41

System: propan-1-ol + propane; phases: Gas, Liquid
Property: Mole fraction of propane (Gas); method: Chromatography
Mole fraction of propane	Temperature, K	Mole fraction of propane	uncertainty
0.097	348.93	0.948	0.02
0.111	324.31	0.983	0.017
0.139	318.3	0.988	0.012
0.167	324.31	0.988	0.012
0.176	318.3	0.99	0.01
0.203	318.3	0.991	0.009
0.213	348.93	0.972	0.02
0.247	324.31	0.99	0.01
0.255	318.3	0.992	0.008
0.284	348.93	0.977	0.02
0.296	318.3	0.992	0.008
0.332	324.31	0.992	0.008
0.367	318.3	0.994	0.006
0.412	348.93	0.982	0.018
0.443	318.3	0.994	0.006
0.461	324.31	0.993	0.007
0.527	348.93	0.984	0.016
0.549	324.31	0.993	0.007
0.596	318.3	0.995	0.005
0.664	348.93	0.986	0.014
0.665	318.3	0.995	0.005
0.732	324.31	0.994	0.006
0.864	348.93	0.987	0.013
0.871	324.31	0.994	0.006
0.94	348.93	0.989	0.011

System: propan-1-ol + ethane; phases: Liquid mixture 1, Liquid mixture 2, Gas
Property: Lower consolute temperature, K (Liquid mixture 1); method: VISOBS
Lower consolute temperature, K	uncertainty
313.033	0.387

System: propan-1-ol + ethane; phases: Liquid mixture 1, Liquid mixture 2, Gas
Property: Upper consolute temperature, K (Liquid mixture 1); method: VISOBS
Upper consolute temperature, K	uncertainty
315.261	0.387

System: propan-1-ol + ethane; phases: Liquid mixture 1, Liquid mixture 2, Gas
Property: Vapor or sublimation pressure, kPa (Liquid mixture 1); method: CCELL:UFactor:4
Temperature, K	Vapor or sublimation pressure, kPa	uncertainty
313.033	5348	67
313.324	5379	67
313.432	5391	67
313.523	5399	67
313.604	5408	67
313.661	5415	68
313.711	5421	68
313.774	5427	68
313.836	5434	68
313.883	5441	68
313.928	5445	68
313.992	5450	68
314.062	5459	68
314.101	5464	68
314.149	5469	68
314.225	5478	68
314.3	5486	68
314.386	5496	69
314.458	5504	69
314.487	5508	69
314.512	5510	69
314.658	5527	69
314.888	5556	69
315.261	5597	70

System: propan-1-ol + ethane; phases: Liquid, Gas
Property: Critical pressure, kPa (Liquid); method: Direct measurement
Mole fraction of ethane	Critical pressure, kPa	uncertainty
0.772	9488	121
0.774	6932	87
0.789	5978	75

System: propan-1-ol + ethane; phases: Liquid, Gas
Property: Critical temperature, K (Liquid); method: Visual observation in a stirred cell
Mole fraction of ethane	Critical temperature, K	uncertainty
0.772	348.68	0.09
0.774	324.51	0.09
0.789	317.59	0.09

System: propan-1-ol + ethane; phases: Liquid, Gas
Property: Vapor or sublimation pressure, kPa (Liquid); method: CCELL:UFactor:4
Mole fraction of ethane	Temperature, K	Vapor or sublimation pressure, kPa	uncertainty
0.041	348.68	841	383
0.092	348.68	1817	390
0.142	348.68	2809	374
0.188	348.68	3603	356
0.221	317.59	2817	219
0.229	348.68	4344	367
0.232	324.51	3243	202
0.268	348.68	5057	356
0.298	324.51	3899	222
0.307	348.68	5711	337
0.316	317.59	3844	203
0.345	348.68	6324	313
0.363	324.51	4624	230
0.378	317.59	4349	175
0.397	348.68	7076	261
0.42	324.51	5241	183
0.435	317.59	4836	145
0.455	348.68	7682	214
0.507	324.51	5880	157
0.525	317.59	5336	121
0.548	348.68	8529	203
0.551	324.51	6111	135
0.587	317.59	5595	94
0.59	324.51	6362	121
0.6	348.68	8929	161
0.644	324.51	6546	105
0.65	317.59	5727	89
0.657	317.59	5773	90
0.657	348.68	9170	144
0.675	324.51	6676	110
0.688	317.59	5868	102
0.704	324.51	6782	97
0.706	348.68	9396	128
0.708	317.59	5957	116
0.734	324.51	6824	101
0.772	348.68	9488	121
0.774	324.51	6932	87
0.789	317.59	5978	75

System: propan-1-ol + ethane; phases: Gas, Liquid
Property: Mole fraction of ethane (Gas); method: Chromatography
Mole fraction of ethane	Temperature, K	Mole fraction of ethane	uncertainty
0.041	348.68	0.946	0.022
0.092	348.68	0.968	0.021
0.142	348.68	0.977	0.02
0.188	348.68	0.979	0.02
0.221	317.59	0.993	0.007
0.229	348.68	0.98	0.02
0.232	324.51	0.991	0.009
0.268	348.68	0.979	0.02
0.298	324.51	0.992	0.008
0.307	348.68	0.978	0.02
0.316	317.59	0.994	0.006
0.345	348.68	0.976	0.02
0.363	324.51	0.992	0.008
0.378	317.59	0.994	0.006
0.397	348.68	0.971	0.02
0.42	324.51	0.991	0.009
0.435	317.59	0.993	0.007
0.455	348.68	0.965	0.02
0.507	324.51	0.988	0.012
0.525	317.59	0.992	0.008
0.548	348.68	0.948	0.021
0.551	324.51	0.985	0.015
0.587	317.59	0.977	0.02
0.59	324.51	0.965	0.022
0.6	348.68	0.919	0.023
0.644	324.51	0.944	0.022
0.65	317.59	0.968	0.022
0.657	317.59	0.96	0.022
0.657	348.68	0.887	0.022
0.675	324.51	0.925	0.029
0.688	317.59	0.923	0.039
0.704	324.51	0.88	0.034
0.706	348.68	0.866	0.029
0.708	317.59	0.872	0.055
0.734	324.51	0.845	0.035
0.772	348.68	0.772	0.035
0.774	324.51	0.774	0.032
0.789	317.59	0.789	0.029
