Measured thermophysical data. Experimental Study of the Effect of Temperature, Pressure, and Concentration on the Viscosity of Aqueous SrCl2 Solutions in the Range of (293 to 473) K and (0.1 to 20) MPa
Source: J. Chem. Eng. Data, 2007, 10.1021/je0604481
Compound 1: magnesium sulfate, MgO4S, InChI=1S/Mg.H2O4S/c;1-5(2,3)4/h;(H2,1,2,3,4)/q+2;/p-2, purity 99.5%
Compound 2: water, H2O, InChI=1S/H2O/h1H2

System: magnesium sulfate + water; phases: Liquid
Fixed: Pressure, kPa = 101
Property: Mass density, kg/m3 (Liquid); method: Constant-volume piezometry
Temperature, K	Molality, mol/kg of magnesium sulfate	Mass density, kg/m3	uncertainty
288.57	2.224	1235.34	0.75
288.57	2.535	1263.36	0.77
291.15	0.084	1008.8	0.61
297.7	2.224	1231.87	0.75
297.7	2.535	1259.83	0.77
303.03	0.469	1050.08	0.64
303.15	0.841	1090.98	0.67
308.6	0.261	1024.48	0.63
310.15	2.224	1226.56	0.75
310.15	2.535	1254.38	0.77
323.15	0.084	998.05	0.61
323.15	0.261	1018.3	0.63
323.15	0.469	1041.45	0.64
323.15	0.841	1082.67	0.67
324.35	2.224	1219.96	0.75
324.35	2.535	1247.46	0.77
340.25	2.224	1211.6	0.75
340.25	2.535	1238.93	0.77
348.15	0.084	984.5	0.61
348.15	0.261	1004.83	0.62
348.15	0.469	1028.4	0.64
348.15	0.841	1069.05	0.67
358.95	2.224	1200.88	0.75
358.95	2.535	1228.61	0.77

System: magnesium sulfate + water; phases: Liquid
Property: Viscosity, Pa*s (Liquid); method: Capillary tube (Ostwald; Ubbelohde) method
Temperature, K	Pressure, kPa	Molality, mol/kg of magnesium sulfate	Viscosity, Pa*s	uncertainty
298.15	100	0.085	0.0009407	1.53e-05
298.15	100	0.255	0.0010546	1.71e-05
298.15	100	0.437	0.0011837	1.92e-05
298.15	100	0.722	0.001442	2.33e-05
298.15	100	0.923	0.001651	2.66e-05
298.15	100	1.824	0.003137	5.04e-05
298.15	100	2.291	0.004414	7.08e-05
298.15	100	2.623	0.005789	9.24e-05
298.15	10000	0.085	0.00094	1.53e-05
298.15	10000	0.255	0.001054	1.71e-05
298.15	10000	0.437	0.001184	1.92e-05
298.15	10000	0.722	0.001443	2.33e-05
298.15	10000	0.923	0.001653	2.67e-05
298.15	10000	1.824	0.003138	5.04e-05
298.15	10000	2.291	0.004415	7.08e-05
298.15	10000	2.623	0.00579	9.25e-05
298.15	30000	0.085	0.0009415	1.53e-05
298.15	30000	0.255	0.0010559	1.71e-05
298.15	30000	0.437	0.001185	1.92e-05
298.15	30000	0.722	0.001445	2.33e-05
298.15	30000	0.923	0.001655	2.67e-05
298.15	30000	1.824	0.00314	5.05e-05
298.15	30000	2.291	0.004417	7.09e-05
298.15	30000	2.623	0.005792	9.25e-05
308.15	100	0.085	0.000761	1.24e-05
308.15	100	0.255	0.0008459	1.38e-05
308.15	100	0.437	0.0009437	1.53e-05
308.15	100	0.722	0.001151	1.86e-05
308.15	100	0.923	0.0013048	2.11e-05
308.15	100	1.824	0.002415	3.89e-05
308.15	100	2.291	0.003374	5.42e-05
308.15	100	2.623	0.004352	6.98e-05
308.15	10000	0.085	0.0007618	1.24e-05
308.15	10000	0.255	0.0008466	1.38e-05
308.15	10000	0.437	0.000946	1.54e-05
308.15	10000	0.722	0.001153	1.87e-05
308.15	10000	0.923	0.0013054	2.11e-05
308.15	10000	1.824	0.002418	3.89e-05
308.15	10000	2.291	0.003376	5.42e-05
308.15	10000	2.623	0.004355	6.99e-05
308.15	30000	0.085	0.0007645	1.25e-05
308.15	30000	0.255	0.0008495	1.38e-05
308.15	30000	0.437	0.0009486	1.54e-05
308.15	30000	0.722	0.001156	1.87e-05
308.15	30000	0.923	0.0013092	2.12e-05
308.15	30000	1.824	0.002422	3.9e-05
308.15	30000	2.291	0.003348	5.38e-05
308.15	30000	2.623	0.004364	7e-05
323.15	100	0.085	0.0005785	9.5e-06
323.15	100	0.255	0.0006403	1.05e-05
323.15	100	0.437	0.0007163	1.17e-05
323.15	100	0.722	0.0008612	1.4e-05
323.15	100	0.923	0.0009738	1.58e-05
323.15	100	1.824	0.001744	2.81e-05
323.15	100	2.291	0.002373	3.82e-05
323.15	100	2.623	0.002997	4.82e-05
323.15	10000	0.085	0.0005809	9.5e-06
323.15	10000	0.255	0.0006431	1.05e-05
323.15	10000	0.437	0.0007198	1.18e-05
323.15	10000	0.722	0.0008651	1.41e-05
323.15	10000	0.923	0.0009781	1.59e-05
323.15	10000	1.824	0.001751	2.82e-05
323.15	10000	2.291	0.002382	3.83e-05
323.15	10000	2.623	0.003009	4.83e-05
323.15	30000	0.085	0.0005856	9.6e-06
323.15	30000	0.255	0.000648	1.06e-05
323.15	30000	0.437	0.0007256	1.18e-05
323.15	30000	0.722	0.0008714	1.42e-05
323.15	30000	0.923	0.0009853	1.6e-05
323.15	30000	1.824	0.001764	2.84e-05
323.15	30000	2.291	0.0024	3.86e-05
323.15	30000	2.623	0.003031	4.87e-05
348.15	100	0.437	0.000491	8.1e-06
348.15	100	2.291	0.001503	2.43e-05
348.15	10000	0.437	0.0004948	8.2e-06
348.15	10000	2.291	0.001514	2.44e-05
348.15	30000	0.437	0.0005024	8.3e-06
348.15	30000	2.291	0.001536	2.48e-05
348.2	100	1.824	0.001127	1.83e-05
348.2	10000	1.824	0.001135	1.84e-05
348.2	30000	1.824	0.001151	1.86e-05
348.25	100	0.255	0.0004399	7.3e-06
348.25	10000	0.255	0.0004432	7.3e-06
348.25	30000	0.255	0.0004502	7.5e-06
348.32	100	0.085	0.0003976	6.6e-06
348.32	10000	0.085	0.0004008	6.7e-06
348.32	30000	0.085	0.0004066	6.8e-06
348.35	100	2.623	0.001849	2.98e-05
348.35	10000	2.623	0.001863	3e-05
348.35	30000	2.623	0.001889	3.04e-05
348.36	100	0.722	0.0005831	9.6e-06
348.36	10000	0.722	0.0005875	9.6e-06
348.36	30000	0.722	0.0005961	9.8e-06
348.75	100	0.923	0.0006495	1.06e-05
348.75	10000	0.923	0.0006548	1.07e-05
348.75	30000	0.923	0.0006642	1.09e-05
370.1	100	2.291	0.001068	1.73e-05
370.1	10000	2.291	0.001078	1.75e-05
370.1	30000	2.291	0.001099	1.78e-05
370.4	100	0.923	0.0004894	8.1e-06
370.4	10000	0.923	0.0004945	8.2e-06
370.4	30000	0.923	0.0005035	8.3e-06
370.45	100	0.085	0.0003053	5.1e-06
370.45	100	0.722	0.0004386	7.3e-06
370.45	10000	0.085	0.0003084	5.2e-06
370.45	10000	0.722	0.0004433	7.3e-06
370.45	30000	0.085	0.0003144	5.3e-06
370.45	30000	0.722	0.0004516	7.5e-06
370.75	100	2.623	0.001295	2.1e-05
370.75	10000	2.623	0.001308	2.12e-05
370.75	30000	2.623	0.001333	2.16e-05
371.44	100	1.824	0.000804	1.31e-05
371.44	10000	1.824	0.000811	1.32e-05
371.44	30000	1.824	0.000827	1.35e-05
371.9	100	0.437	0.0003654	6.1e-06
371.9	10000	0.437	0.0003694	6.2e-06
371.9	30000	0.437	0.0003766	6.3e-06
372.4	100	0.255	0.00033	5.5e-06
372.4	10000	0.255	0.0003336	5.6e-06
372.4	30000	0.255	0.00034	5.7e-06
394.16	10000	2.623	0.000963	1.56e-05
394.16	30000	2.623	0.000985	1.6e-05
396.25	10000	0.923	0.000377	6.3e-06
396.25	30000	0.923	0.0003862	6.4e-06
397.1	10000	1.824	0.000605	9.9e-06
397.1	30000	1.824	0.000619	1.01e-05
397.14	10000	0.085	0.0002381	4.1e-06
397.14	30000	0.085	0.0002437	4.2e-06
398.7	10000	2.291	0.000774	1.26e-05
398.7	30000	2.291	0.000792	1.29e-05
398.75	10000	0.437	0.0002834	4.8e-06
398.75	30000	0.437	0.0002901	4.9e-06
399.24	10000	0.722	0.0003306	5.5e-06
399.24	30000	0.722	0.0003384	5.7e-06
399.44	10000	0.255	0.0002566	4.4e-06
399.44	30000	0.255	0.0002625	4.5e-06
422.1	10000	1.824	0.000477	7.9e-06
422.1	30000	1.824	0.00049	8.1e-06
422.35	10000	0.923	0.0003	5.1e-06
422.35	30000	0.923	0.0003081	5.2e-06
422.7	10000	0.085	0.0001945	3.4e-06
422.7	30000	0.085	0.0001999	3.5e-06
423.85	10000	0.255	0.0002113	3.7e-06
423.85	30000	0.255	0.0002169	3.7e-06
424.13	10000	0.437	0.00023	4e-06
424.13	30000	0.437	0.0002366	4.1e-06
428.16	10000	0.722	0.0002597	4.4e-06
428.16	30000	0.722	0.0002673	4.5e-06
447.16	10000	0.255	0.0001798	3.2e-06
447.16	30000	0.255	0.0001855	3.3e-06
447.42	10000	0.437	0.0001966	3.4e-06
447.42	30000	0.437	0.0002019	3.5e-06
448.24	10000	0.085	0.0001643	2.9e-06
448.24	30000	0.085	0.0001694	3e-06

System: magnesium sulfate + water; phases: Liquid
Property: Mass density, kg/m3 (Liquid); method: Constant-volume piezometry
Temperature, K	Pressure, kPa	Molality, mol/kg of magnesium sulfate	Mass density, kg/m3	uncertainty
299.67	2040	2.2242	1231.7	0.8
299.67	7179	2.2242	1233.3	0.8
299.67	16830	2.2242	1236.3	0.8
299.67	22550	2.2242	1238.2	0.8
299.67	29600	2.2242	1240.3	0.9
314.98	2157	2.535	1252.7	0.8
314.98	8159	2.535	1254.5	0.8
314.98	15690	2.535	1256.7	0.8
314.98	25910	2.535	1259.9	0.9
314.98	29800	2.535	1261	0.9
323.05	2197	2.2242	1221.5	0.8
323.05	10120	2.2242	1224	0.8
323.05	19850	2.2242	1227	0.8
323.05	26300	2.2242	1229.1	0.8
323.05	30500	2.2242	1230.3	0.9
348.13	1549	2.535	1235.1	0.8
348.13	9807	2.535	1237.7	0.8
348.13	14220	2.535	1238.9	0.8
348.13	23810	2.535	1241.9	0.9
348.13	30020	2.535	1243.8	0.9
348.23	2118	2.2242	1208.2	0.8
348.23	8002	2.2242	1210.4	0.8
348.23	14710	2.2242	1212.2	0.8
348.23	25300	2.2242	1215.7	0.8
348.23	30020	2.2242	1217.1	0.9
373.22	3020	2.535	1220.3	0.8
373.22	6610	2.535	1221.6	0.8
373.22	14380	2.535	1224.1	0.8
373.22	21080	2.535	1226.1	0.9
373.22	24710	2.535	1227.4	0.9
373.22	29800	2.535	1229	0.9
373.24	2275	2.2242	1192.8	0.8
373.24	7355	2.2242	1194.5	0.8
373.24	12870	2.2242	1196.4	0.8
373.24	20420	2.2242	1198.9	0.8
373.24	29820	2.2242	1201.7	0.9
398.15	5810	2.535	1203.8	0.8
398.15	11100	2.535	1205.6	0.8
398.15	21700	2.535	1209	0.9
398.15	29400	2.535	1211.5	0.9
398.19	2452	2.2242	1175.3	0.8
398.19	7355	2.2242	1177.2	0.8
398.19	12080	2.2242	1178.9	0.8
398.19	19850	2.2242	1181.7	0.8
398.19	26220	2.2242	1183.8	0.9
