Measured thermophysical data. Thermodynamics of 2-(1'-Hydroxycyclohexyl)cyclohexanone: Vaporization, Sublimation, and the Ideal Gas State Thermodynamic Properties
Source: J. Chem. Eng. Data, 2006, 10.1021/je0602768
Compound 1: 1'-hydroxy-[1,1'-bicyclohexyl]-2-one, C12H20O2, InChI=1S/C12H20O2/c13-11-7-3-2-6-10(11)12(14)8-4-1-5-9-12/h10,14H,1-9H2

System: 1'-hydroxy-[1,1'-bicyclohexyl]-2-one; phases: Crystal, Gas
Property: Molar enthalpy of vaporization or sublimation, kJ/mol (Crystal); method: Static calorimetry
Temperature, K	Molar enthalpy of vaporization or sublimation, kJ/mol	uncertainty
303.11	87.74	0.49

System: 1'-hydroxy-[1,1'-bicyclohexyl]-2-one; phases: Crystal, Gas
Property: Molar enthalpy of vaporization or sublimation, kJ/mol (Crystal); method: Static calorimetry
Temperature, K	Molar enthalpy of vaporization or sublimation, kJ/mol	uncertainty
303.14	87.94	0.49

System: 1'-hydroxy-[1,1'-bicyclohexyl]-2-one; phases: Liquid, Gas
Property: Vapor or sublimation pressure, kPa (Liquid); method: Calculated from knudsen effusion weight loss
Temperature, K	Vapor or sublimation pressure, kPa	uncertainty
308.22	0.00123	0.00013
313.05	0.00171	0.00019
317.95	0.00256	0.00031
322.97	0.00373	0.00048
325.33	0.00447	0.0006
327.45	0.00542	0.00075
330.4	0.00664	0.00094

System: 1'-hydroxy-[1,1'-bicyclohexyl]-2-one; phases: Crystal, Gas
Property: Vapor or sublimation pressure, kPa (Crystal); method: KNUDSEN:UFactor:1.5
Temperature, K	Vapor or sublimation pressure, kPa	uncertainty
289.55	0.000129	1.1e-05
290.9	0.000163	1.3e-05
292.45	0.000196	1.5e-05
294.44	0.000241	1.9e-05
295.86	0.000296	2.3e-05
297.42	0.000352	2.7e-05
297.92	0.000369	2.9e-05
299.9	0.000466	3.7e-05
300.83	0.000545	4.4e-05

System: 1'-hydroxy-[1,1'-bicyclohexyl]-2-one; phases: Liquid, Gas
Property: Vapor or sublimation pressure, kPa (Liquid); method: TRANSPIR:UFactor:2
Temperature, K	Vapor or sublimation pressure, kPa	uncertainty
287.9	0.00017	2e-05
293.2	0.00029	3e-05
298	0.00049	5e-05
303	0.00071	7e-05
308	0.00099	0.00024
311.1	0.00134	0.00014
313.1	0.00153	0.00016
316.2	0.00209	0.00021
318.2	0.00234	0.00029
321.2	0.00305	0.00031
323.3	0.00395	0.00042
325.2	0.00403	0.00041
328.2	0.0054	0.00054
330.2	0.00567	0.00057
331.3	0.00605	0.00062
333.3	0.00816	0.00082
336.2	0.00886	0.00089
337.4	0.00949	0.00096
338.4	0.01042	0.00106
340.2	0.01185	0.00119
341.3	0.01249	0.00127
342.6	0.0148	0.0015
344.6	0.01613	0.00163
345.4	0.01832	0.00184
347	0.01808	0.00181
348.4	0.01981	0.00202
348.6	0.02013	0.00205
350.5	0.02499	0.00252
351.5	0.02378	0.00239
