Measured thermophysical data. Densities, Ultrasonic Velocities, Viscosities, and Electrical Conductivities of Aqueous Solutions of Mg(OAc)2 and Mg(NO3)2
Source: J. Chem. Eng. Data, 2006, 10.1021/je060107n
Compound 1: magnesium acetate, C4H6MgO4, InChI=1S/2C2H4O2.Mg/c2*1-2(3)4;/h2*1H3,(H,3,4);/q;;+2/p-2
Compound 2: magnesium nitrate, MgN2O6, InChI=1S/Mg.2NO3/c;2*2-1(3)4/q+2;2*-1
Compound 3: water, H2O, InChI=1S/H2O/h1H2

System: magnesium acetate + water; phases: Liquid
Fixed: Pressure, kPa = 101
Property: Viscosity, Pa*s (Liquid); method: Capillary tube (Ostwald; Ubbelohde) method
Molality, mol/kg of magnesium acetate	Temperature, K	Viscosity, Pa*s	uncertainty
0.0414	273.15	0.001895	2.6e-05
0.0414	278.15	0.001603	2.2e-05
0.0414	283.15	0.001374	1.9e-05
0.0414	288.15	0.001196	1.6e-05
0.0414	293.15	0.001052	1.4e-05
0.0414	298.15	0.0009322	1.25e-05
0.0414	303.15	0.000835	1.11e-05
0.0414	308.15	0.0007529	1e-05
0.0414	313.15	0.0006835	9e-06
0.0414	318.15	0.0006244	8.2e-06
0.0414	323.15	0.0005741	7.6e-06
0.0831	273.15	0.001974	2.7e-05
0.0831	278.15	0.001663	2.3e-05
0.0831	283.15	0.001423	2e-05
0.0831	288.15	0.001238	1.7e-05
0.0831	293.15	0.001089	1.5e-05
0.0831	298.15	0.000964	1.29e-05
0.0831	303.15	0.0008624	1.15e-05
0.0831	308.15	0.0007775	1.03e-05
0.0831	313.15	0.0007037	9.3e-06
0.0831	318.15	0.0006418	8.5e-06
0.0831	323.15	0.0005893	7.8e-06
0.1671	273.15	0.002142	3e-05
0.1671	278.15	0.001805	2.5e-05
0.1671	283.15	0.00154	2.1e-05
0.1671	288.15	0.001335	1.8e-05
0.1671	293.15	0.00117	1.6e-05
0.1671	298.15	0.001034	1.4e-05
0.1671	303.15	0.0009234	1.23e-05
0.1671	308.15	0.0008306	1.1e-05
0.1671	313.15	0.0007523	9.9e-06
0.1671	318.15	0.0006857	9e-06
0.1671	323.15	0.0006282	8.3e-06
0.4247	273.15	0.002763	4e-05
0.4247	278.15	0.002301	3.3e-05
0.4247	283.15	0.001954	2.7e-05
0.4247	288.15	0.001677	2.3e-05
0.4247	293.15	0.001461	2e-05
0.4247	298.15	0.001286	1.7e-05
0.4247	303.15	0.001141	1.5e-05
0.4247	308.15	0.001021	1.4e-05
0.4247	313.15	0.0009195	1.21e-05
0.4247	318.15	0.0008341	1.1e-05
0.4247	323.15	0.0007596	9.9e-06
0.646	273.15	0.00352	5e-05
0.646	278.15	0.002887	4.2e-05
0.646	283.15	0.002444	3.4e-05
0.646	288.15	0.002072	2.9e-05
0.646	293.15	0.001788	2.4e-05
0.646	298.15	0.001566	2.1e-05
0.646	303.15	0.001383	1.8e-05
0.646	308.15	0.001231	1.6e-05
0.646	313.15	0.001105	1.5e-05
0.646	318.15	0.0009967	1.31e-05
0.646	323.15	0.0009059	1.2e-05
0.8751	273.15	0.004302	6.4e-05
0.8751	278.15	0.003533	5.1e-05
0.8751	283.15	0.002956	4.2e-05
0.8751	288.15	0.002499	3.5e-05
0.8751	293.15	0.00215	2.9e-05
0.8751	298.15	0.001873	2.5e-05
0.8751	303.15	0.00164	2.2e-05
0.8751	308.15	0.00145	1.9e-05
0.8751	313.15	0.001294	1.7e-05
0.8751	318.15	0.001163	1.5e-05
0.8751	323.15	0.001052	1.4e-05
1.106	273.15	0.005537	8.1e-05
1.106	278.15	0.004511	6.6e-05
1.106	283.15	0.003725	5.3e-05
1.106	288.15	0.003138	4.4e-05
1.106	293.15	0.002678	3.7e-05
1.106	298.15	0.00231	3.1e-05
1.106	303.15	0.002014	2.7e-05
1.106	308.15	0.001774	2.4e-05
1.106	313.15	0.001573	2.1e-05
1.106	318.15	0.001405	1.8e-05
1.106	323.15	0.001271	1.7e-05
1.354	273.15	0.007125	9.3e-05
1.354	278.15	0.005709	8.5e-05
1.354	283.15	0.004687	6.8e-05
1.354	288.15	0.003895	5.5e-05
1.354	293.15	0.003294	4.6e-05
1.354	298.15	0.002821	3.9e-05
1.354	303.15	0.002446	3.3e-05
1.354	308.15	0.002139	2.9e-05
1.354	313.15	0.001887	2.5e-05
1.354	318.15	0.001679	2.2e-05
1.354	323.15	0.001503	2.1e-05
1.608	273.15	0.007125	0.00015
1.608	278.15	0.005709	8.5e-05
1.608	283.15	0.004687	6.8e-05
1.608	288.15	0.003895	5.5e-05
1.608	293.15	0.003294	4.6e-05
1.608	298.15	0.002821	3.9e-05
1.608	303.15	0.002446	3.3e-05
1.608	308.15	0.002139	2.9e-05
1.608	313.15	0.001887	2.5e-05
1.608	318.15	0.001679	2.2e-05
1.608	323.15	0.001503	1.9e-05
1.866	273.15	0.01212	0.00017
1.866	278.15	0.009522	0.000146
1.866	283.15	0.007615	0.000114
1.866	288.15	0.006192	9e-05
1.866	293.15	0.005143	7.3e-05
1.866	298.15	0.00432	6.1e-05
1.866	303.15	0.003688	5.1e-05
1.866	308.15	0.003181	4.3e-05
1.866	313.15	0.002771	3.7e-05
1.866	318.15	0.002437	3.2e-05
1.866	323.15	0.002166	3e-05
2.134	273.15	0.01635	0.00027
2.134	278.15	0.01257	0.0002
2.134	283.15	0.009905	0.00015
2.134	288.15	0.008005	0.000117
2.134	293.15	0.006573	9.5e-05
2.134	298.15	0.005472	7.7e-05
2.134	303.15	0.004619	6.4e-05
2.134	308.15	0.003943	5.4e-05
2.134	313.15	0.003404	4.6e-05
2.134	318.15	0.002967	4e-05
2.134	323.15	0.00261	3.4e-05
2.411	273.15	0.02336	0.00036
2.411	278.15	0.01759	0.00029
2.411	283.15	0.01367	0.00021
2.411	288.15	0.0108	0.00016
2.411	293.15	0.008745	0.000128
2.411	298.15	0.007183	0.000102
2.411	303.15	0.006056	8.5e-05
2.411	308.15	0.005121	7.1e-05
2.411	313.15	0.004373	6e-05
2.411	318.15	0.003777	5.1e-05
2.411	323.15	0.003295	4.6e-05
2.622	273.15	0.02817	0.00048
2.622	278.15	0.0212	0.00035
2.622	283.15	0.01625	0.00026
2.622	288.15	0.01279	0.0002
2.622	293.15	0.01025	0.00015
2.622	298.15	0.008354	0.000121
2.622	303.15	0.006928	9.8e-05
2.622	308.15	0.005819	8.1e-05
2.622	313.15	0.004948	6.8e-05
2.622	318.15	0.004254	5.8e-05
2.622	323.15	0.003695	4.9e-05
3.043	273.15	0.04546	0.00099
3.043	278.15	0.03322	0.00058
3.043	283.15	0.02492	0.00041
3.043	288.15	0.01907	0.0003
3.043	293.15	0.01498	0.00023
3.043	298.15	0.01202	0.00018
3.043	303.15	0.009798	0.000142
3.043	308.15	0.00811	0.000116
3.043	313.15	0.006797	9.5e-05
3.043	318.15	0.005774	8e-05
3.043	323.15	0.004961	6.4e-05
3.437	273.15	0.08535	0.0018
3.437	278.15	0.05947	0.00111
3.437	283.15	0.04312	0.00076
3.437	288.15	0.03195	0.00054
3.437	293.15	0.0244	0.00039
3.437	298.15	0.01905	0.0003
3.437	303.15	0.0152	0.00023
3.437	308.15	0.0123	0.00018
3.437	313.15	0.01013	0.00015
3.437	318.15	0.008453	0.000119
3.437	323.15	0.007136	0.0001
4.001	273.15	0.1677	0.0054
4.001	278.15	0.1106	0.0026
4.001	283.15	0.07703	0.00152
4.001	288.15	0.05577	0.00097
4.001	293.15	0.04134	0.0007
4.001	298.15	0.03138	0.00051
4.001	303.15	0.02427	0.00038
4.001	308.15	0.01917	0.00029
4.001	313.15	0.01543	0.00023
4.001	318.15	0.01263	0.00018
4.001	323.15	0.01052	0.00014
4.563	273.15	0.3747	0.0141
4.563	278.15	0.2344	0.0078
4.563	283.15	0.1537	0.0041
4.563	288.15	0.1055	0.0023
4.563	293.15	0.07504	0.00142
4.563	298.15	0.055	0.00093
4.563	303.15	0.04102	0.00068
4.563	308.15	0.03143	0.0005
4.563	313.15	0.02453	0.00038
4.563	318.15	0.0196	0.00029
4.563	323.15	0.01597	0.00024
4.929	283.15	0.2084	0.0059
4.929	288.15	0.1403	0.0036
4.929	293.15	0.09776	0.00207
4.929	298.15	0.07036	0.00126
4.929	303.15	0.05177	0.00092
4.929	308.15	0.03925	0.00067
4.929	313.15	0.03041	0.0005
4.929	318.15	0.02403	0.00038
4.929	323.15	0.01929	0.00026
5.41	298.15	0.1412	0.0028
5.41	303.15	0.0994	0.00157
5.41	308.15	0.07256	0.00096
5.41	313.15	0.05406	0.00068
5.41	318.15	0.04138	0.00057
5.41	323.15	0.03216	0.00048
5.732	303.15	0.1358	0.003
5.732	308.15	0.09697	0.00202
5.732	313.15	0.07146	0.00128
5.732	318.15	0.05377	0.00088
5.732	323.15	0.04144	0.0006
6.187	308.15	0.1756	0.0046
6.187	313.15	0.12	0.0028
6.187	318.15	0.08761	0.00171
6.187	323.15	0.06572	0.00121

System: magnesium acetate + water; phases: Liquid
Fixed: Pressure, kPa = 101
Property: Speed of sound, m/s (Liquid); method: Linear variable-path acoustic interferometer
Molality, mol/kg of magnesium acetate	Temperature, K	Speed of sound, m/s	uncertainty
0.0414	273.15	1411.1	1.8
0.0414	278.15	1433.9	1.9
0.0414	283.15	1453.9	1.9
0.0414	288.15	1471.7	1.9
0.0414	293.15	1487.6	1.9
0.0414	298.15	1501.7	1.9
0.0414	303.15	1513.4	1.9
0.0414	308.15	1523.3	1.9
0.0414	313.15	1532.2	1.9
0.0414	318.15	1539.3	1.9
0.0414	323.15	1544.5	1.9
0.0831	273.15	1421.7	1.9
0.0831	278.15	1443.6	1.9
0.0831	283.15	1464.2	1.9
0.0831	288.15	1481.5	1.9
0.0831	293.15	1497.5	1.9
0.0831	298.15	1510.4	1.9
0.0831	303.15	1521.5	1.9
0.0831	308.15	1530.3	1.9
0.0831	313.15	1539	1.9
0.0831	318.15	1546	1.9
0.0831	323.15	1549.2	1.9
0.1671	273.15	1435.8	1.9
0.1671	278.15	1458.6	1.9
0.1671	283.15	1477	1.9
0.1671	288.15	1494.1	1.9
0.1671	293.15	1508.3	1.9
0.1671	298.15	1520.6	1.9
0.1671	303.15	1532.2	1.9
0.1671	308.15	1541.4	1.9
0.1671	313.15	1547.7	1.9
0.1671	318.15	1552.2	1.9
0.1671	323.15	1557.7	1.9
0.4247	273.15	1486.1	1.9
0.4247	278.15	1504.5	1.9
0.4247	283.15	1522.7	1.9
0.4247	288.15	1535.1	1.9
0.4247	293.15	1545.4	1.9
0.4247	298.15	1556.9	1.9
0.4247	303.15	1567.4	1.9
0.4247	308.15	1575.1	1.9
0.4247	313.15	1582.3	1.9
0.4247	318.15	1587.9	1.9
0.4247	323.15	1591.1	1.9
0.646	273.15	1523.6	1.9
0.646	278.15	1539.4	1.9
0.646	283.15	1553.8	1.9
0.646	288.15	1566.5	1.9
0.646	293.15	1577.8	1.9
0.646	298.15	1587.3	1.9
0.646	303.15	1595.7	1.9
0.646	308.15	1601.9	1.9
0.646	313.15	1607.4	1.9
0.646	318.15	1613.4	1.9
0.646	323.15	1615.2	1.9
0.8751	273.15	1563.5	1.9
0.8751	278.15	1571.6	1.9
0.8751	283.15	1584.2	1.9
0.8751	288.15	1601.1	1.9
0.8751	293.15	1609.8	1.9
0.8751	298.15	1616.2	1.9
0.8751	303.15	1625.4	1.9
0.8751	308.15	1631.2	1.9
0.8751	313.15	1635.6	1.9
0.8751	318.15	1638.1	1.9
0.8751	323.15	1637.7	1.9
1.106	273.15	1599.6	1.9
1.106	278.15	1611.8	1.9
1.106	283.15	1622.1	1.9
1.106	288.15	1631.4	1.9
1.106	293.15	1639.8	1.9
1.106	298.15	1645.9	1.9
1.106	303.15	1651.6	1.9
1.106	308.15	1655.9	1.9
1.106	313.15	1659.1	2
1.106	318.15	1661.5	2
1.106	323.15	1662.2	2
1.354	273.15	1633.9	1.9
1.354	278.15	1644.1	1.9
1.354	283.15	1651.4	2
1.354	288.15	1659.4	2
1.354	293.15	1665.7	2
1.354	298.15	1671.1	2
1.354	303.15	1676.1	2
1.354	308.15	1677.9	2
1.354	313.15	1679.3	2
1.354	318.15	1683.6	2
1.354	323.15	1683.9	2
1.608	273.15	1670.3	2
1.608	278.15	1679.6	2
1.608	283.15	1685.9	2
1.608	288.15	1692.8	2
1.608	293.15	1697.3	2
1.608	298.15	1700.3	2
1.608	303.15	1703	2
1.608	308.15	1705	2
1.608	313.15	1704.6	2
1.608	318.15	1705.8	2
1.608	323.15	1703.7	2
1.866	273.15	1705.9	2
1.866	278.15	1713	2
1.866	283.15	1718.2	2
1.866	288.15	1722.3	2
1.866	293.15	1725.6	2
1.866	298.15	1727.7	2
1.866	303.15	1728.9	2
1.866	308.15	1728.9	2
1.866	313.15	1728.4	2
1.866	318.15	1727.8	2
1.866	323.15	1725	2
2.134	273.15	1742.2	2
2.134	278.15	1746.8	2
2.134	283.15	1750.4	2
2.134	288.15	1752.7	2
2.134	293.15	1754.5	2
2.134	298.15	1754.6	2
2.134	303.15	1755.5	2
2.134	308.15	1754.2	2
2.134	313.15	1752.5	2
2.134	318.15	1749.8	2
2.134	323.15	1746.5	2
2.411	273.15	1777.1	2
2.411	278.15	1780.1	2
2.411	283.15	1781.4	2
2.411	288.15	1782.9	2
2.411	293.15	1782.6	2
2.411	298.15	1781.9	2
2.411	303.15	1781.3	2
2.411	308.15	1782.5	2
2.411	313.15	1778.6	2
2.411	318.15	1773.8	2
2.411	323.15	1767.3	2
2.622	273.15	1797.1	2
2.622	278.15	1799.2	2
2.622	283.15	1799.1	2
2.622	288.15	1799.1	2
2.622	293.15	1798.8	2
2.622	298.15	1797.3	2
2.622	303.15	1795.2	2
2.622	308.15	1791.3	2
2.622	313.15	1787.1	2
2.622	318.15	1782.8	2
2.622	323.15	1778.6	2
3.043	273.15	1840.9	2.1
3.043	278.15	1839.8	2.1
3.043	283.15	1838.2	2.1
3.043	288.15	1835.6	2.1
3.043	293.15	1832.8	2.1
3.043	298.15	1829.5	2.1
3.043	303.15	1824.8	2.1
3.043	308.15	1819.5	2.1
3.043	313.15	1815	2.1
3.043	318.15	1808.1	2.1
3.043	323.15	1800.3	2.1
3.437	273.15	1885.2	2.1
3.437	278.15	1881.6	2.1
3.437	283.15	1877.4	2.1
3.437	288.15	1872.2	2.1
3.437	293.15	1866.8	2.1
3.437	298.15	1861.2	2.1
3.437	303.15	1855.5	2.1
3.437	308.15	1847.8	2.1
3.437	313.15	1840.3	2.1
3.437	318.15	1832	2.1
3.437	323.15	1825	2.1
3.819	273.15	1910.1	2.1
3.819	278.15	1903.6	2.1
3.819	283.15	1897.9	2.1
3.819	288.15	1891.9	2.1
3.819	293.15	1884.3	2.1
3.819	298.15	1878	2.1
3.819	303.15	1870.5	2.1
3.819	308.15	1862.6	2.1
3.819	313.15	1854.1	2.1
3.819	318.15	1846.6	2.1
3.819	323.15	1837.4	2.1
4.547	273.15	1953.7	2.2
4.547	278.15	1945.3	2.2
4.547	283.15	1936.1	2.2
4.547	288.15	1927.4	2.1
4.547	293.15	1917.4	2.1
4.547	298.15	1908	2.1
4.547	303.15	1899.1	2.1
4.547	308.15	1888.8	2.1
4.547	313.15	1878.9	2.1
4.547	318.15	1868.1	2.1
4.547	323.15	1857.2	2.1
5.165	283.15	1964.1	2.2
5.165	288.15	1953.3	2.2
5.165	293.15	1940.8	2.2
5.165	298.15	1929.7	2.1
5.165	303.15	1919	2.1
5.165	308.15	1908	2.1
5.165	313.15	1896	2.1
5.165	318.15	1882.7	2.1
5.165	323.15	1871	2.1
5.732	293.15	1954.7	2.2
5.732	298.15	1940.2	2.2
5.732	303.15	1926.8	2.1
5.732	308.15	1914.4	2.1
5.732	318.15	1888.5	2.2
5.732	323.15	1874.6	2.1

System: magnesium acetate + water; phases: Liquid
Fixed: Pressure, kPa = 101
Property: Mass density, kg/m3 (Liquid); method: Pycnometric method
Molality, mol/kg of magnesium acetate	Temperature, K	Mass density, kg/m3	uncertainty
0.0414	300.85	999.3	0.63
0.0414	304.45	998.24	0.63
0.0414	307.65	997.17	0.65
0.0414	310.85	996.1	0.65
0.0414	313.35	995.14	0.68
0.0414	316.25	994.01	0.67
0.0414	318.5	992.99	0.68
0.0414	320.85	991.94	0.7
0.0414	323.15	990.94	0.66
0.0831	298.75	1003.1	0.6
0.0831	302.5	1002	0.6
0.0831	305.95	1001	0.6
0.0831	308.9	1000	0.6
0.0831	311.85	998.98	0.66
0.0831	314.35	997.91	0.67
0.0831	316.95	996.85	0.69
0.0831	319.4	995.82	0.69
0.0831	324.1	993.76	0.64
0.1671	295.4	1010.2	0.6
0.1671	299.6	1009.1	0.6
0.1671	303.3	1008	0.6
0.1671	306.9	1007	0.6
0.1671	309.7	1006	0.7
0.1671	312.55	1004.8	0.7
0.1671	315.2	1003.8	0.7
0.1671	320	1001.7	0.7
0.1671	322.3	1000.8	0.7
0.4247	295.15	1029.4	0.6
0.4247	299.15	1028.4	0.6
0.4247	302.75	1027.2	0.7
0.4247	306.3	1026.1	0.7
0.4247	309.25	1025.2	0.7
0.4247	312.1	1024	0.7
0.4247	314.65	1022.9	0.7
0.4247	317.1	1021.9	0.7
0.4247	322.15	1019.9	0.7
0.4247	324.25	1018.8	0.9
0.646	298.85	1044	0.7
0.646	302.25	1043	0.7
0.646	305.65	1041.8	0.7
0.646	308.65	1040.7	0.7
0.646	311.35	1039.6	0.7
0.646	314.25	1038.6	0.7
0.646	316.7	1037.6	0.7
0.646	319.15	1036.5	0.7
0.646	321.4	1035.4	0.7
0.646	323.75	1034.3	0.7
0.8751	295.15	1059.6	0.6
0.8751	298.95	1058.5	0.7
0.8751	302.55	1057.4	0.7
0.8751	305.95	1056.2	0.7
0.8751	308.75	1055.2	0.7
0.8751	311.65	1054	0.7
0.8751	314.3	1052.9	0.7
0.8751	319.35	1050.8	0.7
0.8751	323.95	1048.7	0.7
1.106	298.05	1074.8	0.6
1.106	301.7	1073.7	0.7
1.106	304.95	1072.5	0.7
1.106	308.1	1071.4	0.7
1.106	310.7	1070.3	0.7
1.106	313.5	1069.1	0.7
1.106	316.05	1068	0.7
1.106	320.95	1065.8	0.8
1.106	323.05	1064.8	0.7
1.327	301.35	1086.4	0.7
1.327	304.7	1085.2	0.7
1.327	307.75	1084	0.7
1.327	310.6	1082.8	0.7
1.327	313.45	1081.7	0.7
1.327	318.6	1079.4	0.8
1.327	323.05	1077.2	0.8
1.354	296	1089.6	0.7
1.354	299.65	1088.4	0.7
1.354	302.7	1087.4	0.7
1.354	305.85	1086.1	0.7
1.354	308.65	1085	0.7
1.354	311.4	1083.9	0.7
1.354	314.05	1082.8	2.5
1.354	319.1	1080.6	1.1
1.354	323.65	1078.3	1
1.608	300.6	1103.6	0.7
1.608	303.65	1102.5	0.7
1.608	306.55	1101.3	0.7
1.608	309.6	1100.1	0.7
1.608	312.15	1099	0.7
1.608	314.7	1097.8	0.7
1.608	317.15	1096.6	0.7
1.608	319.5	1095.5	0.7
1.608	324.05	1093.3	0.8
1.866	296.1	1118.6	0.7
1.866	299.3	1117.5	0.7
1.866	302.4	1116.3	0.7
1.866	305.5	1115.1	0.8
1.866	308.05	1114	0.7
1.866	313.45	1111.6	0.8
1.866	315.85	1110.4	0.8
1.866	318.2	1109.3	0.8
1.866	322.85	1107.1	0.8
2.134	298.7	1132.2	0.7
2.134	301.55	1131.1	0.7
2.134	304.55	1129.8	0.8
2.134	307.25	1128.6	0.8
2.134	309.8	1127.4	0.7
2.134	312.45	1126.3	0.8
2.134	314.75	1125.2	0.8
2.134	317.3	1124.1	0.8
2.134	319.5	1122.8	0.8
2.134	323.95	1120.5	0.9
2.411	294.9	1149	0.7
2.411	297.95	1147.7	0.7
2.411	301	1146.5	0.8
2.411	303.75	1145.4	1.1
2.411	309.1	1142.9	0.8
2.411	314.1	1140.6	0.8
2.411	318.6	1138.3	0.8
2.411	323.05	1135.8	0.9
2.622	299.2	1155.8	0.7
2.622	302.05	1154.6	0.8
2.622	304.8	1153.3	0.8
2.622	307.5	1152.1	0.7
2.622	309.95	1151	0.7
2.622	312.55	1149.7	0.8
2.622	314.85	1148.5	0.8
2.622	317.05	1147.3	0.8
2.622	319.25	1146.1	0.8
2.622	323.5	1143.8	0.7
3.043	298.3	1175	1
3.043	301.05	1173.8	0.8
3.043	303.75	1172.5	0.8
3.043	306.4	1171.3	0.8
3.043	308.75	1170.1	0.8
3.043	311.25	1168.8	0.8
3.043	313.5	1167.6	0.8
3.043	315.65	1166.4	0.8
3.043	319.95	1164.1	0.8
3.043	322.15	1162.9	0.8
3.437	298.8	1195.5	0.8
3.437	301.5	1194.2	0.8
3.437	303.9	1193.1	0.7
3.437	306.4	1191.7	0.8
3.437	308.7	1190.5	0.9
3.437	310.85	1189.2	0.8
3.437	313.15	1188	0.8
3.437	315.25	1186.9	0.8
3.437	319.65	1184.4	0.9
3.437	323.75	1181.9	1.4
3.819	302.05	1205.9	0.8
3.819	304.4	1204.7	0.8
3.819	306.75	1203.4	0.8
3.819	308.95	1202.2	0.8
3.819	311.2	1201	0.8
3.819	313.45	1199.8	0.8
3.819	315.55	1198.5	0.8
3.819	317.7	1197.2	0.8
3.819	321.7	1194.7	0.9
3.819	325.75	1192.2	0.9
4.547	302.95	1229.9	0.8
4.547	305.35	1228.6	0.8
4.547	307.6	1227.3	0.9
4.547	309.7	1225.9	0.9
4.547	311.9	1224.6	0.8
4.547	314	1223.4	0.8
4.547	318	1220.8	0.9
4.547	319.95	1219.5	0.9
4.547	323.75	1217.1	0.9
5.165	302.4	1249.6	0.9
5.165	304.6	1248.3	0.9
5.165	306.65	1247	0.9
5.165	308.85	1245.6	0.9
5.165	310.95	1244.3	0.9
5.165	315	1241.7	0.9
5.165	318.85	1239	0.9
5.165	322.45	1236.5	0.9
5.165	324.25	1235.2	1
5.732	299.55	1267.4	0.9
5.732	301.75	1266	0.9
5.732	303.75	1264.8	0.9
5.732	305.85	1263.4	0.9
5.732	309.7	1260.8	0.9
5.732	313.55	1258.3	0.9
5.732	317.3	1255.6	0.9
5.732	320.85	1253	0.9
5.732	324.55	1250.4	1
6.187	308.45	1274.5	0.9
6.187	310.45	1273.1	0.9
6.187	312.3	1271.8	0.9
6.187	314.25	1270.4	0.9
6.187	316.05	1269	0.9
6.187	317.9	1267.7	0.9
6.187	321.55	1265.1	0.9
6.187	325.15	1262.4	0.9
6.187	328.55	1259.8	0.9
6.545	310.8	1280.7	0.9
6.545	312.7	1279.4	0.9
6.545	314.5	1278.1	0.9
6.545	316.35	1276.6	0.9
6.545	318.25	1275.3	0.9
6.545	319.95	1273.9	1
6.545	321.8	1272.5	0.9
6.545	323.45	1271.3	0.9
6.545	325.25	1269.9	1

System: water + magnesium nitrate; phases: Liquid
Fixed: Pressure, kPa = 101
Property: Viscosity, Pa*s (Liquid); method: Capillary tube (Ostwald; Ubbelohde) method
Molality, mol/kg of magnesium nitrate	Temperature, K	Viscosity, Pa*s	uncertainty
0.0145	273.15	0.001852	2.6e-05
0.0145	278.15	0.001556	2.2e-05
0.0145	283.15	0.001339	1.8e-05
0.0145	288.15	0.001164	1.6e-05
0.0145	293.15	0.001021	1.4e-05
0.0145	298.15	0.0009075	1.21e-05
0.0145	303.15	0.0008115	1.08e-05
0.0145	308.15	0.0007364	9.7e-06
0.0145	313.15	0.0006666	8.8e-06
0.0145	318.15	0.0006082	8e-06
0.0145	323.15	0.0005591	7.4e-06
0.0528	273.15	0.001874	2.6e-05
0.0528	278.15	0.00158	2.2e-05
0.0528	283.15	0.001357	1.9e-05
0.0528	288.15	0.00118	1.6e-05
0.0528	293.15	0.001038	1.4e-05
0.0528	298.15	0.0009227	1.23e-05
0.0528	303.15	0.000825	1.1e-05
0.0528	308.15	0.000745	9.9e-06
0.0528	313.15	0.0006778	8.9e-06
0.0528	318.15	0.00062	8.2e-06
0.0528	323.15	0.0005708	7.6e-06
0.2491	273.15	0.001958	2.7e-05
0.2491	278.15	0.001654	2.3e-05
0.2491	283.15	0.001429	2e-05
0.2491	288.15	0.001244	1.7e-05
0.2491	293.15	0.001092	1.5e-05
0.2491	298.15	0.0009713	1.29e-05
0.2491	303.15	0.0008716	1.16e-05
0.2491	308.15	0.0007877	1.04e-05
0.2491	313.15	0.0007155	9.4e-06
0.2491	318.15	0.000655	8.6e-06
0.2491	323.15	0.0006023	7.9e-06
0.5931	273.15	0.002122	3e-05
0.5931	278.15	0.001805	2.5e-05
0.5931	283.15	0.001564	2.1e-05
0.5931	288.15	0.001367	1.8e-05
0.5931	293.15	0.001209	1.6e-05
0.5931	298.15	0.001079	1.4e-05
0.5931	303.15	0.0009679	1.28e-05
0.5931	308.15	0.0008757	1.15e-05
0.5931	313.15	0.0007972	1.05e-05
0.5931	318.15	0.0007284	9.6e-06
0.5931	323.15	0.0006703	8.8e-06
0.9898	273.15	0.002391	3.3e-05
0.9898	278.15	0.002047	2.8e-05
0.9898	283.15	0.001775	2.4e-05
0.9898	288.15	0.001554	2.1e-05
0.9898	293.15	0.001378	1.8e-05
0.9898	298.15	0.001232	1.6e-05
0.9898	303.15	0.001112	1.5e-05
0.9898	308.15	0.001005	1.3e-05
0.9898	313.15	0.000913	1.19e-05
0.9898	318.15	0.0008367	1.09e-05
0.9898	323.15	0.0007676	1e-05
1.262	273.15	0.002659	3.6e-05
1.262	278.15	0.002268	3.1e-05
1.262	283.15	0.001971	2.7e-05
1.262	288.15	0.001727	2.3e-05
1.262	293.15	0.00153	2e-05
1.262	298.15	0.001366	1.8e-05
1.262	303.15	0.001228	1.6e-05
1.262	308.15	0.00111	1.5e-05
1.262	313.15	0.001008	1.3e-05
1.262	318.15	0.0009225	1.2e-05
1.262	323.15	0.0008482	1.1e-05
1.827	273.15	0.003232	4.4e-05
1.827	278.15	0.002765	3.8e-05
1.827	283.15	0.0024	3.2e-05
1.827	288.15	0.002098	2.8e-05
1.827	293.15	0.001859	2.5e-05
1.827	298.15	0.001662	2.2e-05
1.827	303.15	0.001493	2e-05
1.827	308.15	0.001342	1.7e-05
1.827	313.15	0.001305	1.7e-05
1.827	318.15	0.001117	1.5e-05
1.827	323.15	0.001028	1.3e-05
2.131	273.15	0.003587	5e-05
2.131	278.15	0.003062	4.2e-05
2.131	283.15	0.002663	3.6e-05
2.131	288.15	0.00233	3.1e-05
2.131	293.15	0.002064	2.7e-05
2.131	298.15	0.001842	2.4e-05
2.131	303.15	0.001654	2.2e-05
2.131	308.15	0.001498	1.9e-05
2.131	313.15	0.001364	1.8e-05
2.131	318.15	0.001245	1.6e-05
2.131	323.15	0.001145	1.5e-05
2.584	273.15	0.004348	6e-05
2.584	278.15	0.003696	5.1e-05
2.584	283.15	0.003207	4.3e-05
2.584	288.15	0.002821	3.8e-05
2.584	293.15	0.002471	3.3e-05
2.584	298.15	0.002206	2.9e-05
2.584	303.15	0.001969	2.6e-05
2.584	308.15	0.001777	2.3e-05
2.584	313.15	0.001616	2.1e-05
2.584	318.15	0.001473	1.9e-05
2.584	323.15	0.001353	1.7e-05
3.096	273.15	0.005355	7.4e-05
3.096	278.15	0.004538	6.2e-05
3.096	283.15	0.003946	5.3e-05
3.096	288.15	0.003408	4.6e-05
3.096	293.15	0.003002	4e-05
3.096	298.15	0.002665	3.5e-05
3.096	303.15	0.00238	3.1e-05
3.096	308.15	0.002146	2.8e-05
3.096	313.15	0.001947	2.5e-05
3.096	318.15	0.001772	2.3e-05
3.096	323.15	0.001629	2.1e-05
3.329	273.15	0.005964	8.1e-05
3.329	278.15	0.005056	7e-05
3.329	283.15	0.004336	5.9e-05
3.329	288.15	0.003754	5.1e-05
3.329	293.15	0.003308	4.4e-05
3.329	298.15	0.002921	3.9e-05
3.329	303.15	0.002611	3.4e-05
3.329	308.15	0.002343	3.1e-05
3.329	313.15	0.002128	2.8e-05
3.329	318.15	0.001935	2.5e-05
3.329	323.15	0.001772	2.3e-05
3.704	273.15	0.006966	9.8e-05
3.704	278.15	0.005857	8.1e-05
3.704	283.15	0.00502	6.9e-05
3.704	288.15	0.004345	5.9e-05
3.704	293.15	0.003807	5.1e-05
3.704	298.15	0.003367	4.5e-05
3.704	303.15	0.002998	3.9e-05
3.704	308.15	0.002692	3.5e-05
3.704	313.15	0.002435	3.2e-05
3.704	318.15	0.002216	2.9e-05
3.704	323.15	0.002028	2.6e-05
4.039	273.15	0.00821	0.000117
4.039	278.15	0.006897	9.6e-05
4.039	283.15	0.005864	8.1e-05
4.039	288.15	0.005051	6.9e-05
4.039	293.15	0.004432	5.9e-05
4.039	298.15	0.003889	5.2e-05
4.039	303.15	0.003462	4.6e-05
4.039	308.15	0.003089	4e-05
4.039	313.15	0.002798	3.6e-05
4.039	318.15	0.002545	3.3e-05
4.039	323.15	0.002319	3e-05
4.728	273.15	0.01185	0.00017
4.728	278.15	0.00974	0.000138
4.728	283.15	0.008233	0.000113
4.728	288.15	0.007067	9.6e-05
4.728	293.15	0.006098	8.2e-05
4.728	298.15	0.005349	7.1e-05
4.728	303.15	0.00473	6.2e-05
4.728	308.15	0.004262	5.6e-05
4.728	313.15	0.003817	5e-05
4.728	318.15	0.003456	4.5e-05
4.728	323.15	0.003107	4e-05
4.907	288.15	0.007798	0.000103
4.907	293.15	0.006799	9.2e-05
4.907	298.15	0.005933	7.9e-05
4.907	303.15	0.005225	6.9e-05
4.907	308.15	0.004654	6.1e-05
4.907	313.15	0.004176	5.5e-05
4.907	318.15	0.00376	4.9e-05
4.907	323.15	0.003418	4.5e-05
5.282	298.15	0.007034	9.3e-05
5.282	303.15	0.006141	8.1e-05
5.282	308.15	0.005506	7.2e-05
5.282	313.15	0.004924	6.5e-05
5.282	318.15	0.004426	5.8e-05
5.282	323.15	0.003975	5.2e-05

System: water + magnesium nitrate; phases: Liquid
Fixed: Pressure, kPa = 101
Property: Speed of sound, m/s (Liquid); method: Linear variable-path acoustic interferometer
Molality, mol/kg of magnesium nitrate	Temperature, K	Speed of sound, m/s	uncertainty
0.0145	273.15	1410.5	1.9
0.0145	278.15	1434.8	1.8
0.0145	283.15	1449.2	1.8
0.0145	288.15	1471.7	1.9
0.0145	293.15	1484.3	1.9
0.0145	298.15	1498.3	1.9
0.0145	303.15	1509.5	1.9
0.0145	308.15	1520.8	1.9
0.0145	313.15	1532.2	1.9
0.0145	318.15	1540.2	1.9
0.0145	323.15	1545.7	1.9
0.0528	273.15	1415.6	1.8
0.0528	278.15	1438.7	1.9
0.0528	283.15	1458.5	1.9
0.0528	288.15	1477.1	1.9
0.0528	293.15	1486.7	1.9
0.0528	298.15	1500.5	1.9
0.0528	303.15	1511.9	1.9
0.0528	308.15	1522.6	1.9
0.0528	313.15	1531.9	1.9
0.0528	318.15	1541.4	1.9
0.0528	323.15	1548	1.9
0.2491	273.15	1430.4	1.8
0.2491	278.15	1451.6	1.9
0.2491	283.15	1470.7	1.9
0.2491	288.15	1487.6	1.9
0.2491	293.15	1501.9	1.9
0.2491	298.15	1514.9	1.9
0.2491	303.15	1526.5	1.9
0.2491	308.15	1536.2	1.9
0.2491	313.15	1544.5	1.9
0.2491	318.15	1554.4	1.9
0.2491	323.15	1559.2	1.9
0.3405	273.15	1443	1.8
0.3405	278.15	1456.8	1.8
0.3405	283.15	1475.6	1.9
0.3405	288.15	1491.5	1.9
0.3405	293.15	1507	1.9
0.3405	298.15	1519	1.9
0.3405	303.15	1529.9	1.9
0.3405	308.15	1539.2	1.9
0.3405	313.15	1546	1.9
0.3405	318.15	1552.3	1.9
0.3405	323.15	1563.6	1.9
0.6173	273.15	1469.3	1.9
0.6173	278.15	1486.9	1.9
0.6173	283.15	1503.7	1.9
0.6173	288.15	1517.8	1.9
0.6173	293.15	1530.1	1.9
0.6173	298.15	1540.9	1.9
0.6173	303.15	1550.7	1.9
0.6173	308.15	1559.2	1.9
0.6173	313.15	1566.4	1.9
0.6173	318.15	1572	1.9
0.6173	323.15	1576.6	1.9
0.896	273.15	1498.6	1.9
0.896	278.15	1514.8	1.9
0.896	283.15	1529	1.9
0.896	288.15	1541.2	1.9
0.896	293.15	1553.1	1.9
0.896	298.15	1563	1.9
0.896	303.15	1571.2	1.9
0.896	308.15	1578.7	1.9
0.896	313.15	1584.7	1.9
0.896	318.15	1590	1.9
0.896	323.15	1593.9	1.9
0.9898	273.15	1510.3	1.9
0.9898	278.15	1524.8	1.9
0.9898	283.15	1538.8	1.9
0.9898	288.15	1550.4	1.9
0.9898	293.15	1561.5	1.9
0.9898	298.15	1570.8	1.9
0.9898	303.15	1578.7	1.9
0.9898	308.15	1585.6	1.9
0.9898	313.15	1591.3	1.9
0.9898	318.15	1596.3	1.9
0.9898	323.15	1600.3	1.9
1.262	273.15	1538	1.9
1.262	278.15	1551.3	1.9
1.262	283.15	1563.1	1.9
1.262	288.15	1573.8	1.9
1.262	293.15	1582.5	1.9
1.262	298.15	1590	1.9
1.262	303.15	1596.4	1.9
1.262	308.15	1602.4	1.9
1.262	313.15	1607.1	1.9
1.262	318.15	1612.6	1.9
1.262	323.15	1614.9	1.9
1.525	273.15	1566.3	1.9
1.525	278.15	1577.1	1.9
1.525	283.15	1587.6	1.9
1.525	288.15	1596.3	1.9
1.525	293.15	1604.4	1.9
1.525	298.15	1611.1	1.9
1.525	303.15	1617	1.9
1.525	308.15	1621.7	1.9
1.525	313.15	1625.9	1.9
1.525	318.15	1629.5	1.9
1.525	323.15	1631.4	1.9
1.827	273.15	1600.5	1.9
1.827	278.15	1610.1	1.9
1.827	283.15	1617.9	1.9
1.827	288.15	1625.4	1.9
1.827	293.15	1631.9	1.9
1.827	298.15	1637.3	1.9
1.827	303.15	1641	1.9
1.827	308.15	1644.8	1.9
1.827	313.15	1647.8	1.9
1.827	318.15	1650.5	1.9
1.827	323.15	1651.2	1.9
2.131	273.15	1632	1.9
2.131	278.15	1639.7	1.9
2.131	283.15	1645.2	1.9
2.131	288.15	1650.6	1.9
2.131	293.15	1656.3	2
2.131	298.15	1660.5	2
2.131	303.15	1663.8	2
2.131	308.15	1666.7	2
2.131	313.15	1667.8	2
2.131	318.15	1668.7	2
2.131	323.15	1667.3	2
2.493	273.15	1664.6	2
2.493	278.15	1670.1	2
2.493	283.15	1675.2	2
2.493	288.15	1677.8	2
2.493	293.15	1682.1	2
2.493	298.15	1685.3	2
2.493	303.15	1686.8	2
2.493	308.15	1688	2
2.493	313.15	1688.9	2
2.493	318.15	1689.3	2
2.493	323.15	1689.2	2
2.793	273.15	1693.2	2
2.793	278.15	1696.9	2
2.793	283.15	1700.3	2
2.793	288.15	1703.5	2
2.793	293.15	1705.3	2
2.793	298.15	1706.5	2
2.793	303.15	1708.1	2
2.793	308.15	1708.9	2
2.793	313.15	1709	2
2.793	318.15	1708.7	2
2.793	323.15	1707.5	2
3.118	273.15	1721.2	2
3.118	278.15	1723.7	2
3.118	283.15	1725.7	2
3.118	288.15	1727.3	2
3.118	293.15	1728.1	2
3.118	298.15	1728.8	2
3.118	303.15	1729.1	2
3.118	308.15	1728.7	2
3.118	313.15	1728.1	2
3.118	318.15	1727.2	2
3.118	323.15	1725.2	2
3.17	273.15	1730.6	2
3.17	278.15	1733	2
3.17	283.15	1734.2	2
3.17	288.15	1735.3	2
3.17	293.15	1736.5	2
3.17	298.15	1736.6	2
3.17	303.15	1736.9	2
3.17	308.15	1735.9	2
3.17	313.15	1734.7	2
3.17	318.15	1733.9	2
3.17	323.15	1731.8	2
3.501	273.15	1752.4	2
3.501	278.15	1753.7	2
3.501	283.15	1754.9	2
3.501	288.15	1755.4	2
3.501	293.15	1755.4	2
3.501	298.15	1754.6	2
3.501	303.15	1753.9	2
3.501	308.15	1752.2	2
3.501	313.15	1751.2	2
3.501	318.15	1748.8	2
3.501	323.15	1744	2
3.757	273.15	1771.9	2
3.757	278.15	1772.4	2.1
3.757	283.15	1771.9	2
3.757	288.15	1771.3	2
3.757	293.15	1771.3	2
3.757	298.15	1774.2	2
3.757	303.15	1772.5	2
3.757	308.15	1770.5	2
3.757	313.15	1767.8	2
3.757	318.15	1761.7	2
3.757	323.15	1758.7	2
4.051	273.15	1791.3	2
4.051	278.15	1791.4	2
4.051	283.15	1790.4	2
4.051	288.15	1789.6	2
4.051	293.15	1787.5	2
4.051	298.15	1786.2	2
4.051	303.15	1783.6	2
4.051	308.15	1781.1	2
4.051	313.15	1778.4	2
4.051	318.15	1776	2
4.051	323.15	1770.9	2
4.285	273.15	1808.5	2.1
4.285	278.15	1807.3	2.1
4.285	283.15	1806.3	2.1
4.285	288.15	1804.5	2.1
4.285	293.15	1802.4	2.1
4.285	298.15	1800.3	2.1
4.285	303.15	1797.4	2.1
4.285	308.15	1794.4	2
4.285	313.15	1791.3	2
4.285	318.15	1787.8	2
4.285	323.15	1783.2	2
4.403	273.15	1820.2	2.1
4.403	278.15	1815.4	2.1
4.403	283.15	1813.5	2.1
4.403	288.15	1810.8	2.1
4.403	293.15	1809.3	2.1
4.403	298.15	1806.6	2.1
4.403	303.15	1804.5	2.1
4.403	308.15	1800.6	2.1
4.403	313.15	1797.9	2.1
4.403	318.15	1794.4	2
4.403	323.15	1789.3	2
4.883	283.15	1847.2	2.1
4.883	288.15	1842.3	2.1
4.883	293.15	1838.8	2.1
4.883	298.15	1831.8	2.1
4.883	303.15	1830.6	2.1
4.883	308.15	1826.2	2.1
4.883	313.15	1823.1	2.1
4.883	318.15	1818.4	2.1
4.883	323.15	1811.5	2.1
5.134	298.15	1855.2	2.1
5.134	303.15	1842.9	2.1
5.134	308.15	1838.4	2.1
5.134	313.15	1834.3	2.1
5.134	318.15	1832.8	2.1
5.134	323.15	1828.2	2.1

System: water + magnesium nitrate; phases: Liquid
Fixed: Pressure, kPa = 101
Property: Mass density, kg/m3 (Liquid); method: Pycnometric method
Molality, mol/kg of magnesium nitrate	Temperature, K	Mass density, kg/m3	uncertainty
0.0145	299.15	998.05	0.63
0.0145	303.05	996.95	0.64
0.0145	306.45	995.89	0.66
0.0145	309.5	994.82	0.66
0.0145	312.45	993.76	0.67
0.0145	315	992.8	0.65
0.0145	319.95	990.65	0.67
0.0145	322.1	989.61	0.7
0.0528	299.35	1002.2	0.7
0.0528	303.25	1001.1	0.7
0.0528	309.6	999.02	0.66
0.0528	312.25	997.99	0.67
0.0528	314.7	996.94	0.66
0.0528	317.15	995.93	0.66
0.0528	319.55	994.98	0.7
0.0528	321.95	993.94	0.7
0.2491	301.6	1022.3	0.7
0.2491	305	1021.1	0.7
0.2491	307.95	1020.1	0.7
0.2491	310.8	1019	0.7
0.2491	313.45	1017.9	0.7
0.2491	317.85	1016.9	0.7
0.2491	320.65	1014.7	0.8
0.2491	322.75	1013.6	0.7
0.3405	295.75	1032.9	0.6
0.3405	299.6	1031.8	0.6
0.3405	302.55	1030.8	0.9
0.3405	305.85	1029.6	0.7
0.3405	308.55	1028.5	0.7
0.3405	313.7	1026.4	0.7
0.3405	315.95	1025.4	0.7
0.3405	320.9	1023.3	0.8
0.5931	297.65	1057.4	0.6
0.5931	300.95	1056.2	0.7
0.5931	303.85	1055.1	0.8
0.5931	306.65	1054	0.7
0.5931	309.5	1052.8	0.7
0.5931	314.45	1050.6	0.7
0.5931	318.9	1048.4	0.8
0.5931	321.25	1047.4	0.7
0.6173	304.15	1057.7	0.7
0.6173	307.05	1056.6	0.7
0.6173	309.5	1055.5	0.7
0.6173	312.1	1054.3	0.7
0.6173	314.45	1053.3	0.7
0.6173	316.75	1052.2	0.8
0.6173	319.05	1051.1	0.7
0.6173	323.4	1049	0.7
0.896	300.9	1085.9	0.7
0.896	303.9	1084.7	0.7
0.896	306.5	1083.6	0.7
0.896	309	1082.4	0.7
0.896	311.55	1081.3	0.8
0.896	313.8	1080.2	0.8
0.896	316.1	1079	0.7
0.896	318.4	1077.9	0.7
0.896	318.4	1077.9	0.7
0.9898	300.5	1095.4	0.8
0.9898	305.8	1093	0.8
0.9898	308.35	1091.9	0.7
0.9898	310.7	1090.8	0.7
0.9898	315.25	1088.5	0.8
0.9898	317.5	1087.3	0.8
0.9898	321.75	1085.2	0.7
0.9898	323.95	1084	0.8
1.262	300.95	1119.4	0.7
1.262	303.55	1118.2	0.7
1.262	308.45	1116	0.8
1.262	310.95	1114.7	0.8
1.262	313.1	1113.5	0.8
1.262	315.25	1112.4	0.8
1.262	317.5	1111.2	0.8
1.262	319.55	1110.2	0.8
1.262	323.75	1107.8	0.8
1.525	301.1	1142.4	0.7
1.525	303.5	1141.2	0.8
1.525	305.95	1139.9	0.8
1.525	308.4	1138.7	0.8
1.525	312.95	1136.3	0.7
1.525	315.05	1135.2	0.8
1.525	317.25	1134	0.8
1.525	319.35	1132.8	0.8
1.525	323.5	1130.6	0.8
1.694	303.1	1156.4	0.7
1.694	305.3	1155.3	0.8
1.694	307.9	1154	0.8
1.694	310.1	1152.8	0.8
1.694	312.15	1151.6	0.8
1.694	314.5	1150.4	0.9
1.694	318.7	1148.1	0.9
1.694	320.85	1146.9	0.8
1.694	324.95	1144.5	0.8
1.827	302.6	1169.5	0.8
1.827	305	1168.3	0.8
1.827	307.25	1167	0.8
1.827	309.65	1165.8	0.8
1.827	311.75	1164.7	1.1
1.827	316.15	1162.1	0.8
1.827	318.15	1160.9	0.8
1.827	320.3	1159.7	0.8
1.827	324.25	1157.4	0.9
2.131	299.75	1196.1	0.8
2.131	302.25	1194.8	0.8
2.131	304.55	1193.6	0.8
2.131	309.25	1191	0.8
2.131	311.25	1189.9	0.8
2.131	313.6	1188.5	0.8
2.131	317.75	1186	0.9
2.131	319.9	1184.8	0.8
2.131	323.95	1182.5	0.9
2.493	298.1	1225.2	0.8
2.493	300.35	1223.9	0.8
2.493	302.55	1222.7	0.8
2.493	305.05	1221.3	0.8
2.493	309.3	1218.8	0.9
2.493	313.5	1216.4	0.9
2.493	317.35	1213.8	1
2.493	321.6	1211.3	1
2.584	300.75	1232	0.8
2.584	303.1	1230.7	0.8
2.584	305.35	1229.4	0.8
2.584	307.6	1228.1	0.9
2.584	309.9	1226.7	0.9
2.584	314.25	1224.2	0.9
2.584	318.35	1221.6	0.8
2.584	322.35	1219.2	0.9
2.793	300.95	1247.4	0.8
2.793	303.1	1246.1	0.9
2.793	305.5	1244.7	0.9
2.793	307.8	1243.4	0.8
2.793	312.15	1240.8	0.9
2.793	314.1	1239.5	0.9
2.793	316.1	1238.2	0.9
2.793	320.25	1235.8	0.9
2.793	322.25	1234.5	0.9
3.096	302.1	1269.1	0.9
3.096	304.25	1267.7	0.9
3.096	306.5	1266.4	0.8
3.096	308.85	1265	0.8
3.096	310.9	1263.8	0.8
3.096	313.15	1262.3	0.8
3.096	317.25	1259.7	1.2
3.096	321.35	1257.2	0.9
3.118	304.55	1268.5	0.8
3.118	306.7	1267.2	0.8
3.118	308.95	1265.8	0.8
3.118	311.2	1264.5	0.8
3.118	313.25	1263.3	0.8
3.118	317.55	1260.5	0.8
3.118	319.45	1259.2	0.8
3.118	323.6	1256.7	1.5
3.17	297.9	1281.3	1.2
3.17	300.1	1280	0.9
3.17	302.25	1278.7	1.5
3.17	306.8	1276	0.9
3.17	311.05	1273.3	0.9
3.17	315.3	1270.8	0.8
3.17	319.5	1268.1	0.9
3.17	323.55	1265.4	1.5
3.501	297.5	1299.9	1.1
3.501	299.8	1298.5	0.9
3.501	302.1	1297.2	0.9
3.501	304.35	1295.8	0.9
3.501	306.65	1294.4	0.9
3.501	311	1291.7	0.9
3.501	315.1	1288.9	0.9
3.501	317.15	1287.7	1
3.704	301.05	1311.3	0.9
3.704	303.3	1309.8	0.9
3.704	305.55	1308.4	0.9
3.704	307.7	1307.2	0.8
3.704	309.95	1305.7	0.9
3.704	314.15	1303	0.9
3.704	318.25	1300.4	0.9
3.704	322.45	1297.7	0.9
3.757	304.35	1312.3	0.9
3.757	306.7	1310.9	0.9
3.757	308.75	1309.6	0.9
3.757	311	1308.1	0.9
3.757	315.15	1305.4	0.9
3.757	317.35	1304.1	0.9
3.757	319.35	1302.8	1
3.757	323.5	1300.1	0.8
4.039	300.75	1332.1	0.9
4.039	302.95	1330.8	0.9
4.039	305.25	1329.3	0.9
4.039	307.45	1327.9	1
4.039	311.9	1325	0.9
4.039	316.25	1322.3	0.9
4.039	320.3	1319.5	0.9
4.039	322.45	1318.2	2.3
4.051	298.5	1333.6	0.8
4.051	300.85	1332.2	0.9
4.051	305.2	1329.4	0.9
4.051	309.4	1326.7	0.9
4.051	313.8	1324	0.9
4.051	318.15	1321.2	0.9
4.051	322.75	1318.5	0.9
4.285	297.85	1350.5	0.8
4.285	300.3	1349	0.9
4.285	302.4	1347.6	0.9
4.285	304.55	1346.2	0.9
4.285	308.85	1343.6	0.9
4.285	313.25	1340.7	1.1
4.285	317.55	1337.9	1
4.285	321.8	1335.1	0.9
4.403	301.25	1355.4	0.8
4.403	303.5	1353.9	0.9
4.403	308.1	1351	0.9
4.403	310.15	1349.7	0.9
4.403	312.4	1348.2	0.9
4.403	314.5	1346.8	1
4.403	318.8	1344	0.9
4.403	323.05	1341.3	1.2
4.728	299.95	1377.8	0.8
4.728	302.3	1376.3	1
4.728	304.55	1374.9	1
4.728	306.75	1373.4	1
4.728	309.05	1371.9	1
4.728	311.25	1370.6	0.9
4.728	315.6	1367.6	1.1
4.728	319.9	1364.8	1
4.728	321.9	1363.5	1.3
4.883	300.15	1384.4	0.9
4.883	302.6	1382.9	0.9
4.883	304.8	1381.4	1
4.883	307.05	1379.9	1
4.883	309.35	1378.4	0.9
4.883	311.45	1377.1	1
4.883	313.7	1375.5	0.9
4.883	317.95	1372.7	1
4.883	322.2	1370	1.2
4.97	301	1390.1	1
4.97	303.15	1388.7	0.9
4.97	307.65	1385.7	1
4.97	309.75	1384.3	1
4.97	312	1382.9	0.9
4.97	316.35	1380.1	1
4.97	318.5	1378.6	1
4.97	322.8	1375.7	1
5.134	296	1404.4	1
5.134	298.2	1402.9	1
5.134	300.5	1401.4	1
5.134	302.95	1399.9	1
5.134	306.7	1397	1
5.134	311.35	1394	0.8
5.134	315.8	1391.1	1
5.134	320.2	1388.4	1
5.134	324.45	1385.4	1
5.282	308.7	1404.1	1
5.282	311.95	1402.5	0.9
5.282	314.15	1401.1	1
5.282	316.45	1399.6	1
5.282	318.8	1398.1	1
5.282	320.9	1396.6	1
5.282	323.15	1395.1	1
5.282	325.25	1393.7	1
