Measured thermophysical data. Isobaric Vapor-Liquid Equilibria for Binary and Ternary Mixtures of Dipropyl Ether, 1-Propyl Alcohol, and Butyl Propionate
Source: J. Chem. Eng. Data, 2006, 10.1021/je060314n
Compound 1: dipropyl ether, C6H14O, InChI=1S/C6H14O/c1-3-5-7-6-4-2/h3-6H2,1-2H3, purity 90%
Compound 2: propan-1-ol, C3H8O, InChI=1S/C3H8O/c1-2-3-4/h4H,2-3H2,1H3, purity 99.5%
Compound 3: butyl propanoate, C7H14O2, InChI=1S/C7H14O2/c1-3-5-6-9-7(8)4-2/h3-6H2,1-2H3, purity 99%

System: dipropyl ether; phases: Liquid
Property: Refractive index (Na D-line) (Liquid); method: Standard Abbe refractometry
Temperature, K	Pressure, kPa	Refractive index (Na D-line)	uncertainty
298.15	101.325	1.3784	0.0005

System: dipropyl ether; phases: Liquid
Property: Mass density, kg/m3 (Liquid); method: Vibrating tube method
Temperature, K	Pressure, kPa	Mass density, kg/m3	uncertainty
298.15	101.325	741.81	0.16

System: dipropyl ether; phases: Liquid, Gas
Property: Vapor or sublimation pressure, kPa (Liquid); method: EBULLIO:UFactor:4
Temperature, K	Vapor or sublimation pressure, kPa	uncertainty
363.16	101.3	2

System: propan-1-ol; phases: Liquid
Property: Refractive index (Na D-line) (Liquid); method: Standard Abbe refractometry
Temperature, K	Pressure, kPa	Refractive index (Na D-line)	uncertainty
298.15	101.325	1.3836	0.0005

System: propan-1-ol; phases: Liquid
Property: Mass density, kg/m3 (Liquid); method: Vibrating tube method
Temperature, K	Pressure, kPa	Mass density, kg/m3	uncertainty
298.15	101.325	799.62	0.14

System: propan-1-ol; phases: Liquid, Gas
Property: Vapor or sublimation pressure, kPa (Liquid); method: EBULLIO:UFactor:4
Temperature, K	Vapor or sublimation pressure, kPa	uncertainty
369.75	101.3	2

System: butyl propanoate; phases: Liquid
Property: Refractive index (Na D-line) (Liquid); method: Standard Abbe refractometry
Temperature, K	Pressure, kPa	Refractive index (Na D-line)	uncertainty
298.15	101.325	1.3992	0.0005

System: butyl propanoate; phases: Liquid
Property: Mass density, kg/m3 (Liquid); method: Vibrating tube method
Temperature, K	Pressure, kPa	Mass density, kg/m3	uncertainty
298.15	101.325	870.88	0.23

System: butyl propanoate; phases: Liquid, Gas
Property: Vapor or sublimation pressure, kPa (Liquid); method: EBULLIO:UFactor:4
Temperature, K	Vapor or sublimation pressure, kPa	uncertainty
418.69	101.3	2

System: dipropyl ether + butyl propanoate; phases: Liquid, Gas
Fixed: Pressure, kPa = 101.3
Property: Boiling temperature at pressure P, K (Liquid); method: EBULLIO:UFactor:4
Mole fraction of dipropyl ether	Boiling temperature at pressure P, K	uncertainty
0	418.69	0.34
0.032	414.6	0.41
0.067	411	0.4
0.104	407.34	0.39
0.144	403.83	0.38
0.189	400.63	0.38
0.229	397.01	0.38
0.27	394.02	0.37
0.313	391	0.36
0.372	387.75	0.36
0.419	384.91	0.36
0.47	382.4	0.36
0.524	379.61	0.35
0.577	377.39	0.35
0.635	375.1	0.35
0.695	372.7	0.35
0.752	370.75	0.35
0.808	368.77	0.35
0.871	366.83	0.35
0.935	365	0.35
1	363.16	0.34

System: dipropyl ether + butyl propanoate; phases: Gas, Liquid
Fixed: Pressure, kPa = 101.3
Property: Mole fraction of dipropyl ether (Gas); method: Chromatography
Mole fraction of dipropyl ether	Mole fraction of dipropyl ether	uncertainty
0	0	0.001
0.032	0.132	0.008
0.067	0.252	0.007
0.104	0.362	0.007
0.144	0.46	0.007
0.189	0.545	0.006
0.229	0.61	0.005
0.27	0.666	0.005
0.313	0.715	0.004
0.372	0.766	0.004
0.419	0.805	0.003
0.47	0.837	0.003
0.524	0.865	0.003
0.577	0.889	0.003
0.635	0.909	0.002
0.695	0.93	0.002
0.752	0.946	0.002
0.808	0.961	0.002
0.871	0.976	0.002
0.935	0.988	0.002
1	1	0.001

System: propan-1-ol + butyl propanoate; phases: Liquid, Gas
Fixed: Pressure, kPa = 101.3
Property: Boiling temperature at pressure P, K (Liquid); method: EBULLIO:UFactor:4
Mole fraction of propan-1-ol	Boiling temperature at pressure P, K	uncertainty
0	418.69	0.34
0.046	410.78	0.46
0.093	404.73	0.42
0.158	397.4	0.39
0.206	393.89	0.37
0.257	390.16	0.37
0.309	387.13	0.36
0.361	384.4	0.35
0.415	382.2	0.35
0.473	380.32	0.35
0.525	378.69	0.35
0.579	377.3	0.35
0.633	376.09	0.34
0.684	375.08	0.34
0.74	374.2	0.34
0.789	373.32	0.34
0.835	372.55	0.34
0.881	371.83	0.34
0.924	371.27	0.34
0.966	370.65	0.34
1	369.75	0.34

System: propan-1-ol + butyl propanoate; phases: Gas, Liquid
Fixed: Pressure, kPa = 101.3
Property: Mole fraction of propan-1-ol (Gas); method: Chromatography
Mole fraction of propan-1-ol	Mole fraction of propan-1-ol	uncertainty
0	0	0.001
0.046	0.253	0.009
0.093	0.409	0.007
0.158	0.559	0.006
0.206	0.636	0.005
0.257	0.69	0.004
0.309	0.74	0.004
0.361	0.779	0.003
0.415	0.808	0.003
0.473	0.831	0.003
0.525	0.851	0.003
0.579	0.868	0.003
0.633	0.885	0.002
0.684	0.899	0.002
0.74	0.915	0.002
0.789	0.929	0.002
0.835	0.942	0.002
0.881	0.957	0.002
0.924	0.971	0.002
0.966	0.987	0.002
1	1	0.001

System: propan-1-ol + dipropyl ether + butyl propanoate; phases: Liquid, Gas
Fixed: Pressure, kPa = 101.3
Property: Mole fraction of propan-1-ol (Liquid); method: Chromatography
Property: Mole fraction of propan-1-ol (Gas); method: Chromatography
Property: Mole fraction of dipropyl ether (Gas); method: Chromatography
Temperature, K	Mole fraction of dipropyl ether	Mole fraction of propan-1-ol	uncertainty	Mole fraction of propan-1-ol	uncertainty	Mole fraction of dipropyl ether	uncertainty
359.71	0.676	0.269	0.003	0.313	0.003	0.682	
360.13	0.468	0.478	0.004	0.427	0.004	0.567	
360.86	0.597	0.303	0.003	0.345	0.004	0.643	
361.14	0.492	0.406	0.004	0.407	0.004	0.58	
361.19	0.703	0.199	0.003	0.271	0.003	0.718	
361.9	0.387	0.512	0.004	0.47	0.005	0.515	
362.05	0.277	0.672	0.003	0.549	0.005	0.443	
362.77	0.892	0.053	0.002	0.103	0.002	0.891	
362.77	0.802	0.096	0.002	0.167	0.003	0.82	
363.31	0.277	0.619	0.004	0.547	0.005	0.434	
364.17	0.492	0.3	0.003	0.376	0.004	0.592	
364.32	0.596	0.198	0.003	0.29	0.003	0.679	
364.46	0.387	0.409	0.004	0.451	0.005	0.516	
365.1	0.183	0.713	0.003	0.635	0.004	0.344	
365.28	0.287	0.509	0.004	0.531	0.005	0.431	
365.89	0.696	0.098	0.002	0.177	0.003	0.789	
367.32	0.504	0.193	0.002	0.307	0.003	0.638	
367.51	0.399	0.291	0.003	0.407	0.004	0.536	
367.58	0.091	0.805	0.003	0.754	0.003	0.222	
367.97	0.142	0.655	0.003	0.672	0.004	0.282	
368.22	0.298	0.388	0.004	0.5	0.005	0.441	
368.56	0.032	0.926	0.002	0.87	0.002	0.124	
370.71	0.645	0.044	0.002	0.098	0.002	0.838	
371.04	0.04	0.751	0.003	0.83	0.003	0.114	
371.17	0.396	0.198	0.003	0.344	0.004	0.571	
371.42	0.295	0.296	0.003	0.462	0.005	0.453	
371.53	0.096	0.594	0.004	0.721	0.004	0.202	
372.18	0.197	0.399	0.004	0.574	0.005	0.336	
372.95	0.495	0.092	0.002	0.193	0.003	0.714	
374.62	0.287	0.212	0.003	0.402	0.004	0.477	
375.16	0.052	0.543	0.004	0.772	0.003	0.115	
375.19	0.19	0.312	0.003	0.537	0.005	0.34	
376.6	0.102	0.397	0.004	0.664	0.004	0.203	
377.45	0.443	0.061	0.002	0.148	0.002	0.721	
379.63	0.209	0.194	0.002	0.431	0.004	0.396	
380.78	0.299	0.104	0.002	0.26	0.003	0.563	
383.43	0.052	0.309	0.003	0.679	0.004	0.112	
388.12	0.101	0.175	0.002	0.493	0.005	0.232	
390.27	0.228	0.052	0.002	0.166	0.003	0.533	
394.3	0.107	0.092	0.002	0.332	0.004	0.276	
403.13	0.058	0.051	0.002	0.239	0.003	0.194	
