Measured thermophysical data. Distribution of Butyric Acid between Water and Several Solvents
Source: J. Chem. Eng. Data, 2006, 10.1021/je060025z
Compound 1: water, H2O, InChI=1S/H2O/h1H2
Compound 2: butanoic acid, C4H8O2, InChI=1S/C4H8O2/c1-2-3-4(5)6/h2-3H2,1H3,(H,5,6)
Compound 3: trioctylamine, C24H51N, InChI=1S/C24H51N/c1-4-7-10-13-16-19-22-25(23-20-17-14-11-8-5-2)24-21-18-15-12-9-6-3/h4-24H2,1-3H3
Compound 4: 3-methylbutan-1-ol, C5H12O, InChI=1S/C5H12O/c1-5(2)3-4-6/h5-6H,3-4H2,1-2H3
Compound 5: nonan-1-ol, C9H20O, InChI=1S/C9H20O/c1-2-3-4-5-6-7-8-9-10/h10H,2-9H2,1H3
Compound 6: decan-1-ol, C10H22O, InChI=1S/C10H22O/c1-2-3-4-5-6-7-8-9-10-11/h11H,2-10H2,1H3
Compound 7: dodecan-1-ol, C12H26O, InChI=1S/C12H26O/c1-2-3-4-5-6-7-8-9-10-11-12-13/h13H,2-12H2,1H3
Compound 8: (Z)-9-octadecen-1-ol, C18H36O, InChI=1S/C18H36O/c1-2-3-4-5-6-7-8-9-10-11-12-13-14-15-16-17-18-19/h9-10,19H,2-8,11-18H2,1H3/b10-9-
Compound 9: butanone, C4H8O, InChI=1S/C4H8O/c1-3-4(2)5/h3H2,1-2H3
Compound 10: 3-methyl-2-butanone, C5H10O, InChI=1S/C5H10O/c1-4(2)5(3)6/h4H,1-3H3
Compound 11: 4-methylpentan-2-one, C6H12O, InChI=1S/C6H12O/c1-5(2)4-6(3)7/h5H,4H2,1-3H3
Compound 12: 4-heptanone, C7H14O, InChI=1S/C7H14O/c1-3-5-7(8)6-4-2/h3-6H2,1-2H3
Compound 13: ethyl acetate, C4H8O2, InChI=1S/C4H8O2/c1-3-6-4(2)5/h3H2,1-2H3
Compound 14: cyclohexyl ethanoate, C8H14O2, InChI=1S/C8H14O2/c1-7(9)10-8-5-3-2-4-6-8/h8H,2-6H2,1H3
Compound 15: dimethyl 1,2-benzenedicarboxylate, C10H10O4, InChI=1S/C10H10O4/c1-13-9(11)7-5-3-4-6-8(7)10(12)14-2/h3-6H,1-2H3
Compound 16: dibutyl phthalate, C16H22O4, InChI=1S/C16H22O4/c1-3-5-11-19-15(17)13-9-7-8-10-14(13)16(18)20-12-6-4-2/h7-10H,3-6,11-12H2,1-2H3
Compound 17: 2-methoxy-2-methylpropane, C5H12O, InChI=1S/C5H12O/c1-5(2,3)6-4/h1-4H3
Compound 18: hexane, C6H14, InChI=1S/C6H14/c1-3-5-6-4-2/h3-6H2,1-2H3
Compound 19: toluene, C7H8, InChI=1S/C7H8/c1-7-5-3-2-4-6-7/h2-6H,1H3

System: water; phases: Liquid
Property: Refractive index (Na D-line) (Liquid); method: Standard Abbe refractometry
Temperature, K	Pressure, kPa	Refractive index (Na D-line)	uncertainty
293.15	101.325	1.3324	0.0011

System: water; phases: Liquid
Property: Mass density, kg/m3 (Liquid); method: Vibrating tube method
Temperature, K	Pressure, kPa	Mass density, kg/m3	uncertainty
293.15	101.325	999.9	2.7

System: butanoic acid; phases: Liquid
Property: Refractive index (Na D-line) (Liquid); method: Standard Abbe refractometry
Temperature, K	Pressure, kPa	Refractive index (Na D-line)	uncertainty
293.15	101.325	1.3982	0.0011

System: butanoic acid; phases: Liquid
Property: Mass density, kg/m3 (Liquid); method: Vibrating tube method
Temperature, K	Pressure, kPa	Mass density, kg/m3	uncertainty
298.15	101.325	952.3	2.5

System: trioctylamine; phases: Liquid
Property: Refractive index (Na D-line) (Liquid); method: Standard Abbe refractometry
Temperature, K	Pressure, kPa	Refractive index (Na D-line)	uncertainty
292.15	101.325	1.4505	0.0011

System: trioctylamine; phases: Liquid
Property: Mass density, kg/m3 (Liquid); method: Vibrating tube method
Temperature, K	Pressure, kPa	Mass density, kg/m3	uncertainty
293.15	101.325	810.7	2.2

System: 3-methylbutan-1-ol; phases: Liquid
Property: Refractive index (Na D-line) (Liquid); method: Standard Abbe refractometry
Temperature, K	Pressure, kPa	Refractive index (Na D-line)	uncertainty
293.15	101.325	1.4075	0.0011

System: 3-methylbutan-1-ol; phases: Liquid
Property: Mass density, kg/m3 (Liquid); method: Vibrating tube method
Temperature, K	Pressure, kPa	Mass density, kg/m3	uncertainty
293.15	101.325	808.4	2.1

System: nonan-1-ol; phases: Liquid
Property: Refractive index (Na D-line) (Liquid); method: Standard Abbe refractometry
Temperature, K	Pressure, kPa	Refractive index (Na D-line)	uncertainty
293.15	101.325	1.4327	0.0011

System: nonan-1-ol; phases: Liquid
Property: Mass density, kg/m3 (Liquid); method: Vibrating tube method
Temperature, K	Pressure, kPa	Mass density, kg/m3	uncertainty
293.15	101.325	828.5	2.2

System: decan-1-ol; phases: Liquid
Property: Refractive index (Na D-line) (Liquid); method: Standard Abbe refractometry
Temperature, K	Pressure, kPa	Refractive index (Na D-line)	uncertainty
293.15	101.325	1.4374	0.0011

System: decan-1-ol; phases: Liquid
Property: Mass density, kg/m3 (Liquid); method: Vibrating tube method
Temperature, K	Pressure, kPa	Mass density, kg/m3	uncertainty
293.15	101.325	829.6	2.2

System: dodecan-1-ol; phases: Liquid
Property: Mass density, kg/m3 (Liquid); method: Vibrating tube method
Temperature, K	Pressure, kPa	Mass density, kg/m3	uncertainty
297.15	101.325	831.1	2.2

System: (Z)-9-octadecen-1-ol; phases: Liquid
Property: Refractive index (Na D-line) (Liquid); method: Standard Abbe refractometry
Temperature, K	Pressure, kPa	Refractive index (Na D-line)	uncertainty
293.15	101.325	1.4601	0.0011

System: (Z)-9-octadecen-1-ol; phases: Liquid
Property: Mass density, kg/m3 (Liquid); method: Vibrating tube method
Temperature, K	Pressure, kPa	Mass density, kg/m3	uncertainty
293.15	101.325	849	2.3

System: butanone; phases: Liquid
Property: Refractive index (Na D-line) (Liquid); method: Standard Abbe refractometry
Temperature, K	Pressure, kPa	Refractive index (Na D-line)	uncertainty
293.15	101.325	1.3793	0.0011

System: butanone; phases: Liquid
Property: Mass density, kg/m3 (Liquid); method: Vibrating tube method
Temperature, K	Pressure, kPa	Mass density, kg/m3	uncertainty
298.15	101.325	798.2	2.1

System: 3-methyl-2-butanone; phases: Liquid
Property: Refractive index (Na D-line) (Liquid); method: Standard Abbe refractometry
Temperature, K	Pressure, kPa	Refractive index (Na D-line)	uncertainty
293.15	101.325	1.3884	0.0011

System: 3-methyl-2-butanone; phases: Liquid
Property: Mass density, kg/m3 (Liquid); method: Vibrating tube method
Temperature, K	Pressure, kPa	Mass density, kg/m3	uncertainty
293.15	101.325	804.8	2.1

System: 4-methylpentan-2-one; phases: Liquid
Property: Refractive index (Na D-line) (Liquid); method: Standard Abbe refractometry
Temperature, K	Pressure, kPa	Refractive index (Na D-line)	uncertainty
293.15	101.325	1.3958	0.0011

System: 4-methylpentan-2-one; phases: Liquid
Property: Mass density, kg/m3 (Liquid); method: Vibrating tube method
Temperature, K	Pressure, kPa	Mass density, kg/m3	uncertainty
298.15	101.325	796.1	2.1

System: 4-heptanone; phases: Liquid
Property: Refractive index (Na D-line) (Liquid); method: Standard Abbe refractometry
Temperature, K	Pressure, kPa	Refractive index (Na D-line)	uncertainty
293.15	101.325	1.4068	0.0011

System: 4-heptanone; phases: Liquid
Property: Mass density, kg/m3 (Liquid); method: Vibrating tube method
Temperature, K	Pressure, kPa	Mass density, kg/m3	uncertainty
293.15	101.325	817.6	2.2

System: ethyl acetate; phases: Liquid
Property: Refractive index (Na D-line) (Liquid); method: Standard Abbe refractometry
Temperature, K	Pressure, kPa	Refractive index (Na D-line)	uncertainty
293.15	101.325	1.372	0.0011

System: ethyl acetate; phases: Liquid
Property: Mass density, kg/m3 (Liquid); method: Vibrating tube method
Temperature, K	Pressure, kPa	Mass density, kg/m3	uncertainty
293.15	101.325	900.1	2.4

System: cyclohexyl ethanoate; phases: Liquid
Property: Refractive index (Na D-line) (Liquid); method: Standard Abbe refractometry
Temperature, K	Pressure, kPa	Refractive index (Na D-line)	uncertainty
293.15	101.325	1.4421	0.0011

System: cyclohexyl ethanoate; phases: Liquid
Property: Mass density, kg/m3 (Liquid); method: Vibrating tube method
Temperature, K	Pressure, kPa	Mass density, kg/m3	uncertainty
293.15	101.325	968.4	2.6

System: dimethyl 1,2-benzenedicarboxylate; phases: Liquid
Property: Refractive index (Na D-line) (Liquid); method: Standard Abbe refractometry
Temperature, K	Pressure, kPa	Refractive index (Na D-line)	uncertainty
293.15	101.325	1.5135	0.0011

System: dimethyl 1,2-benzenedicarboxylate; phases: Liquid
Property: Mass density, kg/m3 (Liquid); method: Vibrating tube method
Temperature, K	Pressure, kPa	Mass density, kg/m3	uncertainty
293.15	101.325	1190.4	3.2

System: dibutyl phthalate; phases: Liquid
Property: Refractive index (Na D-line) (Liquid); method: Standard Abbe refractometry
Temperature, K	Pressure, kPa	Refractive index (Na D-line)	uncertainty
293.15	101.325	1.4909	0.0011

System: dibutyl phthalate; phases: Liquid
Property: Mass density, kg/m3 (Liquid); method: Vibrating tube method
Temperature, K	Pressure, kPa	Mass density, kg/m3	uncertainty
293.15	101.325	1047.1	2.8

System: 2-methoxy-2-methylpropane; phases: Liquid
Property: Refractive index (Na D-line) (Liquid); method: Standard Abbe refractometry
Temperature, K	Pressure, kPa	Refractive index (Na D-line)	uncertainty
298.15	101.325	1.3664	0.0011

System: 2-methoxy-2-methylpropane; phases: Liquid
Property: Mass density, kg/m3 (Liquid); method: Vibrating tube method
Temperature, K	Pressure, kPa	Mass density, kg/m3	uncertainty
298.15	101.325	734.7	2

System: hexane; phases: Liquid
Property: Refractive index (Na D-line) (Liquid); method: Standard Abbe refractometry
Temperature, K	Pressure, kPa	Refractive index (Na D-line)	uncertainty
298.15	101.325	1.3729	0.0011

System: hexane; phases: Liquid
Property: Mass density, kg/m3 (Liquid); method: Vibrating tube method
Temperature, K	Pressure, kPa	Mass density, kg/m3	uncertainty
298.15	101.325	660.4	1.8

System: toluene; phases: Liquid
Property: Refractive index (Na D-line) (Liquid); method: Standard Abbe refractometry
Temperature, K	Pressure, kPa	Refractive index (Na D-line)	uncertainty
293.15	101.325	1.496	0.0011

System: toluene; phases: Liquid
Property: Mass density, kg/m3 (Liquid); method: Vibrating tube method
Temperature, K	Pressure, kPa	Mass density, kg/m3	uncertainty
293.15	101.325	866.7	2.3

System: butanoic acid + 3-methylbutan-1-ol + water; phases: Liquid mixture 1, Liquid mixture 2
Property: Amount concentration (molarity), mol/dm3 of butanoic acid (Liquid mixture 1); method: titration
Amount concentration (molarity), mol/dm3 of butanoic acid	Pressure, kPa	Temperature, K	Amount concentration (molarity), mol/dm3 of butanoic acid	uncertainty
0.1	101	298.15	7.81	0.16

System: butanoic acid + nonan-1-ol + water; phases: Liquid mixture 1, Liquid mixture 2
Property: Amount concentration (molarity), mol/dm3 of butanoic acid (Liquid mixture 1); method: titration
Amount concentration (molarity), mol/dm3 of butanoic acid	Pressure, kPa	Temperature, K	Amount concentration (molarity), mol/dm3 of butanoic acid	uncertainty
0.132	101	298.15	5.75	0.12

System: butanoic acid + decan-1-ol + water; phases: Liquid mixture 1, Liquid mixture 2
Property: Amount concentration (molarity), mol/dm3 of butanoic acid (Liquid mixture 1); method: titration
Amount concentration (molarity), mol/dm3 of butanoic acid	Pressure, kPa	Temperature, K	Amount concentration (molarity), mol/dm3 of butanoic acid	uncertainty
0.157	101	298.15	4.81	0.1

System: butanoic acid + dodecan-1-ol + water; phases: Liquid mixture 1, Liquid mixture 2
Property: Amount concentration (molarity), mol/dm3 of butanoic acid (Liquid mixture 1); method: titration
Amount concentration (molarity), mol/dm3 of butanoic acid	Pressure, kPa	Temperature, K	Amount concentration (molarity), mol/dm3 of butanoic acid	uncertainty
0.17	101	298.15	4.37	0.09

System: butanoic acid + (Z)-9-octadecen-1-ol + water; phases: Liquid mixture 1, Liquid mixture 2
Property: Amount concentration (molarity), mol/dm3 of butanoic acid (Liquid mixture 1); method: titration
Amount concentration (molarity), mol/dm3 of butanoic acid	Pressure, kPa	Temperature, K	Amount concentration (molarity), mol/dm3 of butanoic acid	uncertainty
0.225	101	298.15	2.96	0.06

System: butanone + butanoic acid + water; phases: Liquid mixture 1, Liquid mixture 2
Property: Amount concentration (molarity), mol/dm3 of butanoic acid (Liquid mixture 1); method: titration
Amount concentration (molarity), mol/dm3 of butanoic acid	Pressure, kPa	Temperature, K	Amount concentration (molarity), mol/dm3 of butanoic acid	uncertainty
0.185	101	298.15	4.46	0.09

System: butanoic acid + 3-methyl-2-butanone + water; phases: Liquid mixture 1, Liquid mixture 2
Property: Amount concentration (molarity), mol/dm3 of butanoic acid (Liquid mixture 1); method: titration
Amount concentration (molarity), mol/dm3 of butanoic acid	Pressure, kPa	Temperature, K	Amount concentration (molarity), mol/dm3 of butanoic acid	uncertainty
0.108	101	298.15	7.73	0.15

System: butanoic acid + 4-methylpentan-2-one + water; phases: Liquid mixture 1, Liquid mixture 2
Property: Amount concentration (molarity), mol/dm3 of butanoic acid (Liquid mixture 1); method: titration
Amount concentration (molarity), mol/dm3 of butanoic acid	Pressure, kPa	Temperature, K	Amount concentration (molarity), mol/dm3 of butanoic acid	uncertainty
0.126	101	298.15	6.46	0.13

System: butanoic acid + 4-heptanone + water; phases: Liquid mixture 1, Liquid mixture 2
Property: Amount concentration (molarity), mol/dm3 of butanoic acid (Liquid mixture 1); method: titration
Amount concentration (molarity), mol/dm3 of butanoic acid	Pressure, kPa	Temperature, K	Amount concentration (molarity), mol/dm3 of butanoic acid	uncertainty
0.179	101	298.15	4.42	0.09

System: butanoic acid + ethyl acetate + water; phases: Liquid mixture 1, Liquid mixture 2
Property: Amount concentration (molarity), mol/dm3 of butanoic acid (Liquid mixture 1); method: titration
Amount concentration (molarity), mol/dm3 of butanoic acid	Pressure, kPa	Temperature, K	Amount concentration (molarity), mol/dm3 of butanoic acid	uncertainty
0.152	101	298.15	6.07	0.12

System: butanoic acid + cyclohexyl ethanoate + water; phases: Liquid mixture 1, Liquid mixture 2
Property: Amount concentration (molarity), mol/dm3 of butanoic acid (Liquid mixture 1); method: titration
Amount concentration (molarity), mol/dm3 of butanoic acid	Pressure, kPa	Temperature, K	Amount concentration (molarity), mol/dm3 of butanoic acid	uncertainty
5.08	101	298.15	0.156	0.003

System: butanoic acid + dimethyl 1,2-benzenedicarboxylate + water; phases: Liquid mixture 1, Liquid mixture 2
Property: Amount concentration (molarity), mol/dm3 of butanoic acid (Liquid mixture 1); method: titration
Amount concentration (molarity), mol/dm3 of butanoic acid	Pressure, kPa	Temperature, K	Amount concentration (molarity), mol/dm3 of butanoic acid	uncertainty
0.206	101	298.15	3.73	0.07

System: dibutyl phthalate + butanoic acid + water; phases: Liquid mixture 1, Liquid mixture 2
Property: Amount concentration (molarity), mol/dm3 of butanoic acid (Liquid mixture 1); method: titration
Amount concentration (molarity), mol/dm3 of butanoic acid	Pressure, kPa	Temperature, K	Amount concentration (molarity), mol/dm3 of butanoic acid	uncertainty
0.307	101	298.15	2.19	0.04

System: butanoic acid + 2-methoxy-2-methylpropane + water; phases: Liquid mixture 1, Liquid mixture 2
Property: Amount concentration (molarity), mol/dm3 of butanoic acid (Liquid mixture 1); method: titration
Amount concentration (molarity), mol/dm3 of butanoic acid	Pressure, kPa	Temperature, K	Amount concentration (molarity), mol/dm3 of butanoic acid	uncertainty
0.102	101	298.15	9.57	0.19

System: butanoic acid + toluene + water; phases: Liquid mixture 1, Liquid mixture 2
Property: Amount concentration (molarity), mol/dm3 of butanoic acid (Liquid mixture 1); method: titration
Amount concentration (molarity), mol/dm3 of butanoic acid	Pressure, kPa	Temperature, K	Amount concentration (molarity), mol/dm3 of butanoic acid	uncertainty
0.294	101	298.15	2.37	0.05

System: butanoic acid + hexane + water; phases: Liquid mixture 1, Liquid mixture 2
Property: Amount concentration (molarity), mol/dm3 of butanoic acid (Liquid mixture 1); method: titration
Amount concentration (molarity), mol/dm3 of butanoic acid	Pressure, kPa	Temperature, K	Amount concentration (molarity), mol/dm3 of butanoic acid	uncertainty
0.496	101	298.15	1.15	0.02
