Measured thermophysical data. Specific Volumes of Chlorodifluoromethane in the Temperature Range from (298 to 573) K and Pressures up to 500 MPa
Source: J. Chem. Eng. Data, 2007, 10.1021/je060371g
Compound 1: chlorodifluoromethane, CHClF2, InChI=1S/CHClF2/c2-1(3)4/h1H

System: chlorodifluoromethane; phases: Fluid (supercritical or subcritical phases)
Property: Specific volume, m3/kg (Fluid (supercritical or subcritical phases)); method: Buoyancy - hydrostatic balance with magnetic suspension - one sinker
Pressure, kPa	Temperature, K	Specific volume, m3/kg	uncertainty
10000	298.2	0.000815	7e-06
10000	323.2	0.00087	7e-06
10000	348.2	0.000955	8e-06
10000	373.2	0.001091	1.4e-05
10000	423.2	0.002006	4.1e-05
10000	473.2	0.003216	6.8e-05
10000	523.2	0.004117	9.3e-05
10000	573.2	0.004957	0.000108
20000	298.2	0.000787	6e-06
20000	323.2	0.000831	7e-06
20000	348.2	0.000887	7e-06
20000	373.2	0.000967	9e-06
20000	423.2	0.001169	2.2e-05
20000	473.2	0.001531	4.2e-05
20000	523.2	0.001932	5.6e-05
20000	573.2	0.00244	6.7e-05
30000	298.2	0.000771	6e-06
30000	323.2	0.00081	7e-06
30000	348.2	0.000852	7e-06
30000	373.2	0.000907	8e-06
30000	423.2	0.001037	9e-06
30000	473.2	0.00121	1.3e-05
30000	523.2	0.001431	1.8e-05
30000	573.2	0.001751	2.5e-05
40000	298.2	0.000755	6e-06
40000	323.2	0.00079	6e-06
40000	348.2	0.000828	7e-06
40000	373.2	0.000875	7e-06
40000	423.2	0.000973	8e-06
40000	473.2	0.001089	1e-05
40000	523.2	0.001241	1.2e-05
40000	573.2	0.001393	1.5e-05
50000	298.2	0.000743	6e-06
50000	323.2	0.000773	6e-06
50000	348.2	0.000807	7e-06
50000	373.2	0.000842	7e-06
50000	423.2	0.000923	8e-06
50000	473.2	0.001015	8e-06
50000	523.2	0.001126	9e-06
50000	573.2	0.001258	1.1e-05
75000	298.2	0.000717	6e-06
75000	323.2	0.000743	6e-06
75000	348.2	0.000768	6e-06
75000	373.2	0.000797	6e-06
75000	423.2	0.000856	7e-06
75000	473.2	0.000922	7e-06
75000	523.2	0.000987	8e-06
75000	573.2	0.00105	9e-06
100000	298.2	0.000698	6e-06
100000	323.2	0.000715	6e-06
100000	348.2	0.000742	6e-06
100000	373.2	0.000765	6e-06
100000	423.2	0.000814	7e-06
100000	473.2	0.000867	7e-06
100000	523.2	0.00092	7e-06
100000	573.2	0.000968	8e-06
125000	298.2	0.000682	5e-06
125000	323.2	0.000699	6e-06
125000	348.2	0.000719	6e-06
125000	373.2	0.000741	6e-06
125000	423.2	0.000784	6e-06
125000	473.2	0.00083	7e-06
125000	523.2	0.000872	7e-06
125000	573.2	0.000911	7e-06
150000	298.2	0.00067	5e-06
150000	323.2	0.000683	5e-06
150000	348.2	0.000701	6e-06
150000	373.2	0.000722	6e-06
150000	423.2	0.000759	6e-06
150000	473.2	0.000797	6e-06
150000	523.2	0.000835	7e-06
150000	573.2	0.00087	7e-06
175000	298.2	0.000657	5e-06
175000	323.2	0.00067	5e-06
175000	348.2	0.000686	6e-06
175000	373.2	0.000705	6e-06
175000	423.2	0.000738	6e-06
175000	473.2	0.000772	6e-06
175000	523.2	0.000808	7e-06
175000	573.2	0.00084	7e-06
200000	298.2	0.000646	5e-06
200000	323.2	0.00066	5e-06
200000	348.2	0.000674	5e-06
200000	373.2	0.000689	6e-06
200000	423.2	0.000721	6e-06
200000	473.2	0.000754	6e-06
200000	523.2	0.000785	6e-06
200000	573.2	0.000814	7e-06
225000	298.2	0.000638	5e-06
225000	323.2	0.000651	5e-06
225000	348.2	0.000663	5e-06
225000	373.2	0.000677	5e-06
225000	423.2	0.000707	6e-06
225000	473.2	0.000735	6e-06
225000	523.2	0.000764	6e-06
225000	573.2	0.00079	6e-06
250000	298.2	0.00063	5e-06
250000	323.2	0.000643	5e-06
250000	348.2	0.000655	5e-06
250000	373.2	0.000667	5e-06
250000	423.2	0.000695	6e-06
250000	473.2	0.00072	6e-06
250000	523.2	0.000744	6e-06
250000	573.2	0.000767	6e-06
275000	298.2	0.000624	5e-06
275000	323.2	0.000635	5e-06
275000	348.2	0.000646	5e-06
275000	373.2	0.000658	5e-06
275000	423.2	0.000682	5e-06
275000	473.2	0.000705	6e-06
275000	523.2	0.000728	6e-06
275000	573.2	0.000749	6e-06
300000	298.2	0.000617	5e-06
300000	323.2	0.000628	5e-06
300000	348.2	0.000639	5e-06
300000	373.2	0.00065	5e-06
300000	423.2	0.000673	5e-06
300000	473.2	0.000694	6e-06
300000	523.2	0.000714	6e-06
300000	573.2	0.000732	6e-06
325000	298.2	0.000611	5e-06
325000	323.2	0.000621	5e-06
325000	348.2	0.000632	5e-06
325000	373.2	0.000642	5e-06
325000	423.2	0.000661	5e-06
325000	473.2	0.000683	5e-06
325000	523.2	0.000698	6e-06
325000	573.2	0.000717	6e-06
350000	298.2	0.000606	5e-06
350000	323.2	0.000616	5e-06
350000	348.2	0.000625	5e-06
350000	373.2	0.000636	5e-06
350000	423.2	0.000655	5e-06
350000	473.2	0.000671	5e-06
350000	523.2	0.000687	6e-06
350000	573.2	0.000704	6e-06
375000	298.2	0.0006	5e-06
375000	323.2	0.00061	5e-06
375000	348.2	0.000619	5e-06
375000	373.2	0.000629	5e-06
375000	423.2	0.000645	5e-06
375000	473.2	0.000661	5e-06
375000	523.2	0.000676	5e-06
375000	573.2	0.000692	6e-06
400000	298.2	0.000596	5e-06
400000	323.2	0.000605	5e-06
400000	348.2	0.000614	5e-06
400000	373.2	0.000623	5e-06
400000	423.2	0.000638	5e-06
400000	473.2	0.000652	5e-06
400000	523.2	0.000666	5e-06
400000	573.2	0.00068	5e-06
425000	298.2	0.000591	5e-06
425000	323.2	0.0006	5e-06
425000	348.2	0.000608	5e-06
425000	373.2	0.000617	5e-06
425000	423.2	0.000631	5e-06
425000	473.2	0.000644	5e-06
425000	523.2	0.000658	5e-06
425000	573.2	0.000671	5e-06
450000	298.2	0.000587	5e-06
450000	323.2	0.000595	5e-06
450000	348.2	0.000603	5e-06
450000	373.2	0.000612	5e-06
450000	423.2	0.000625	5e-06
450000	473.2	0.000637	5e-06
450000	523.2	0.000649	5e-06
450000	573.2	0.000663	5e-06
475000	298.2	0.000582	5e-06
475000	323.2	0.00059	5e-06
475000	348.2	0.000598	5e-06
475000	373.2	0.000606	5e-06
475000	423.2	0.000619	5e-06
475000	473.2	0.000629	5e-06
475000	523.2	0.00064	5e-06
475000	573.2	0.000651	5e-06
500000	298.2	0.000579	5e-06
500000	323.2	0.000586	5e-06
500000	348.2	0.000594	5e-06
500000	373.2	0.000602	5e-06
500000	423.2	0.000614	5e-06
500000	473.2	0.000623	5e-06
500000	523.2	0.000633	5e-06
500000	573.2	0.000643	5e-06
