Measured thermophysical data. Excess Enthalpy, Density, Speed of Sound, and Viscosity for 2-Methyltetrahydrofuran + 1-Butanol at (283.15, 298.15, and, 313.15) K
Source: J. Chem. Eng. Data, 2006, 10.1021/je060017i
Compound 1: 2-methyltetrahydrofuran, C5H10O, InChI=1S/C5H10O/c1-5-3-2-4-6-5/h5H,2-4H2,1H3
Compound 2: butan-1-ol, C4H10O, InChI=1S/C4H10O/c1-2-3-4-5/h5H,2-4H2,1H3

System: 2-methyltetrahydrofuran; phases: Liquid
Fixed: Pressure, kPa = 101.325
Property: Viscosity, Pa*s (Liquid); method: CAPTUB:UFactor:4
Temperature, K	Viscosity, Pa*s	uncertainty
283.15	0.0005618	1.55e-05
298.15	0.0004776	1.36e-05
313.15	0.0004088	1.21e-05

System: 2-methyltetrahydrofuran; phases: Liquid
Fixed: Pressure, kPa = 101.325
Property: Speed of sound, m/s (Liquid); method: FPINT:UFactor:2
Temperature, K	Speed of sound, m/s	uncertainty
283.15	1276.6	1.6
298.15	1202.2	1.6
313.15	1129.9	1.6

System: 2-methyltetrahydrofuran; phases: Liquid
Fixed: Pressure, kPa = 101.325
Property: Mass density, kg/m3 (Liquid); method: VIBTUB:UFactor:4
Temperature, K	Mass density, kg/m3	uncertainty
283.15	864.17	0.55
298.15	849.04	0.56
313.15	833.76	0.57

System: butan-1-ol; phases: Liquid
Fixed: Pressure, kPa = 101.325
Property: Viscosity, Pa*s (Liquid); method: CAPTUB:UFactor:4
Temperature, K	Viscosity, Pa*s	uncertainty
283.15	0.003869	8.73e-05
298.15	0.0025609	5.92e-05
313.15	0.0017567	4.18e-05

System: butan-1-ol; phases: Liquid
Fixed: Pressure, kPa = 101.325
Property: Speed of sound, m/s (Liquid); method: FPINT:UFactor:2
Temperature, K	Speed of sound, m/s	uncertainty
283.15	1292.1	1.7
298.15	1242.9	1.6
313.15	1186.3	1.6

System: butan-1-ol; phases: Liquid
Fixed: Pressure, kPa = 101.325
Property: Mass density, kg/m3 (Liquid); method: VIBTUB:UFactor:4
Temperature, K	Mass density, kg/m3	uncertainty
283.15	816.92	0.59
298.15	805.73	0.6
313.15	794.38	0.6

System: butan-1-ol + 2-methyltetrahydrofuran; phases: Liquid
Fixed: Pressure, kPa = 101
Property: Excess molar enthalpy (molar enthalpy of mixing), kJ/mol (Liquid); method: Flow calorimetry
Mole fraction of 2-methyltetrahydrofuran	Temperature, K	Excess molar enthalpy (molar enthalpy of mixing), kJ/mol	uncertainty
0.054	283.15	0.099	0.003
0.054	298.15	0.11	0.003
0.054	313.15	0.116	0.003
0.104	283.15	0.206	0.005
0.104	298.15	0.22	0.005
0.104	313.15	0.234	0.005
0.206	283.15	0.385	0.008
0.206	298.15	0.425	0.009
0.206	313.15	0.455	0.01
0.308	283.15	0.548	0.012
0.308	298.15	0.587	0.013
0.308	313.15	0.632	0.014
0.411	283.15	0.646	0.014
0.411	298.15	0.694	0.015
0.411	313.15	0.748	0.016
0.51	283.15	0.695	0.015
0.51	298.15	0.748	0.016
0.51	313.15	0.806	0.017
0.609	283.15	0.693	0.015
0.609	298.15	0.746	0.016
0.609	313.15	0.803	0.017
0.708	283.15	0.631	0.014
0.708	298.15	0.678	0.015
0.708	313.15	0.728	0.016
0.806	283.15	0.505	0.011
0.806	298.15	0.541	0.012
0.806	313.15	0.578	0.013
0.907	283.15	0.291	0.006
0.907	298.15	0.31	0.007
0.907	313.15	0.329	0.007
0.953	283.15	0.159	0.004
0.953	298.15	0.17	0.004
0.953	313.15	0.179	0.004

System: butan-1-ol + 2-methyltetrahydrofuran; phases: Liquid
Fixed: Pressure, kPa = 101
Property: Viscosity, Pa*s (Liquid); method: CAPTUB:UFactor:4
Mole fraction of 2-methyltetrahydrofuran	Temperature, K	Viscosity, Pa*s	uncertainty
0.0518	283.15	0.003231	7.4e-05
0.0518	298.15	0.002212	5.2e-05
0.0518	313.15	0.001555	3.7e-05
0.1048	283.15	0.00267	6.2e-05
0.1048	298.15	0.001914	4.5e-05
0.1048	313.15	0.001361	3.3e-05
0.2123	283.15	0.001958	4.6e-05
0.2123	298.15	0.001446	3.5e-05
0.2123	313.15	0.001085	2.7e-05
0.3159	283.15	0.001507	3.6e-05
0.3159	298.15	0.001145	2.8e-05
0.3159	313.15	0.000896	2.3e-05
0.4197	283.15	0.001218	3e-05
0.4197	298.15	0.000951	2.4e-05
0.4197	313.15	0.000759	2e-05
0.5195	283.15	0.001013	2.5e-05
0.5195	298.15	0.000806	2.1e-05
0.5195	313.15	0.000651	1.7e-05
0.6211	283.15	0.000865	2.2e-05
0.6211	298.15	0.000701	1.9e-05
0.6211	313.15	0.000574	1.6e-05
0.7116	283.15	0.00076	2e-05
0.7116	298.15	0.000626	1.7e-05
0.7116	313.15	0.000518	1.5e-05
0.8103	283.15	0.000675	1.8e-05
0.8103	298.15	0.000563	1.6e-05
0.8103	313.15	0.000473	1.4e-05
0.9246	283.15	0.000607	1.7e-05
0.9246	298.15	0.000507	1.4e-05
0.9246	313.15	0.000432	1.3e-05
0.9585	283.15	0.000584	1.6e-05
0.9585	298.15	0.000502	1.4e-05
0.9585	313.15	0.000425	1.2e-05

System: butan-1-ol + 2-methyltetrahydrofuran; phases: Liquid
Fixed: Pressure, kPa = 101
Property: Speed of sound, m/s (Liquid); method: FPINT:UFactor:2
Mole fraction of 2-methyltetrahydrofuran	Temperature, K	Speed of sound, m/s	uncertainty
0.0341	298.15	1242.6	1.6
0.0447	283.15	1292.4	1.7
0.0519	313.15	1184.6	1.6
0.1054	298.15	1241.6	1.6
0.1154	283.15	1292.6	1.7
0.1237	313.15	1181.8	1.6
0.2085	298.15	1238.8	1.6
0.2143	283.15	1291.5	1.7
0.2168	313.15	1177.7	1.6
0.2451	283.15	1291	1.7
0.2968	298.15	1235.7	1.6
0.3097	313.15	1172.9	1.6
0.3535	298.15	1233.4	1.6
0.4133	313.15	1167.2	1.6
0.4221	283.15	1286.8	1.6
0.4283	298.15	1230.3	1.6
0.5058	298.15	1226.8	1.6
0.511	313.15	1161.3	1.6
0.5204	283.15	1284	1.6
0.6075	298.15	1222.2	1.6
0.6172	283.15	1281.2	1.6
0.6561	313.15	1152.6	1.6
0.7077	298.15	1217.6	1.6
0.7128	283.15	1278.1	1.6
0.7265	313.15	1148.3	1.6
0.8078	283.15	1275.2	1.6
0.8111	298.15	1212.6	1.6
0.8151	313.15	1142.7	1.6
0.8947	298.15	1208.3	1.6
0.8952	283.15	1272.2	1.6
0.8995	313.15	1137.1	1.6
0.9337	298.15	1206.1	1.6
0.9364	283.15	1270.3	1.6
0.9476	313.15	1133.5	1.6

System: butan-1-ol + 2-methyltetrahydrofuran; phases: Liquid
Fixed: Pressure, kPa = 101
Property: Mass density, kg/m3 (Liquid); method: VIBTUB:UFactor:8
Mole fraction of 2-methyltetrahydrofuran	Temperature, K	Mass density, kg/m3	uncertainty
0.0539	283.15	820.03	0.91
0.102	298.15	811.16	0.93
0.1038	313.15	799.46	0.96
0.1047	283.15	822.92	0.9
0.2068	283.15	828.51	0.89
0.2068	298.15	816.38	0.92
0.2098	313.15	804.34	0.95
0.3108	283.15	833.9	0.88
0.3108	298.15	821.37	0.91
0.3139	313.15	808.86	0.94
0.4135	313.15	813	0.93
0.4147	283.15	839.04	0.86
0.4152	298.15	826.08	0.9
0.4848	298.15	829.16	0.89
0.4893	283.15	842.56	0.85
0.4906	313.15	816.02	0.92
0.6175	313.15	820.8	0.91
0.6191	298.15	834.74	0.87
0.6195	283.15	848.41	0.84
0.724	283.15	852.97	0.83
0.7245	298.15	838.88	0.86
0.7256	313.15	824.59	0.9
0.8157	298.15	842.28	0.86
0.8172	313.15	827.71	0.89
0.8909	313.15	830.17	0.89
0.8911	298.15	845.05	0.85
0.8923	283.15	859.92	0.81
