Measured thermophysical data. Low-Pressure Solubility and Thermodynamics of Solvation of Carbon Dioxide, Ethane, and Hydrogen in 1-Hexyl-3-methylimidazolium Bis(trifluoromethylsulfonyl)amide between Temperatures of 283 K and 343 K
Source: J. Chem. Eng. Data, 2007, 10.1021/je0604129
Compound 1: carbon dioxide, CO2, InChI=1S/CO2/c2-1-3, purity 99.995%
Compound 2: ethane, C2H6, InChI=1S/C2H6/c1-2/h1-2H3, purity 99.5%
Compound 3: hydrogen, H2, InChI=1S/H2/h1H, purity 99.9997%
Compound 4: 1-hexyl-3-methylimidazolium bis[(trifluoromethyl)sulfonyl]imide, C12H19F6N3O4S2, InChI=1S/C10H19N2.C2F6NO4S2/c1-3-4-5-6-7-12-9-8-11(2)10-12;3-1(4,5)14(10,11)9-15(12,13)2(6,7)8/h8-10H,3-7H2,1-2H3;/q+1;-1

System: carbon dioxide + 1-hexyl-3-methylimidazolium bis[(trifluoromethyl)sulfonyl]imide; phases: Liquid, Gas
Fixed: Pressure, kPa = 100
Property: Mole fraction of carbon dioxide (Liquid); method: pressure drop on dissolution
Temperature, K	Mole fraction of carbon dioxide	uncertainty
288.48	0.04065	0.00244
293.06	0.03668	0.0022
293.21	0.0371	0.00223
298.06	0.03385	0.00203
298.58	0.03289	0.00197
303.42	0.03013	0.00181
303.44	0.03038	0.00182
308.36	0.0276	0.00166
323.28	0.02198	0.00132
333.22	0.01933	0.00116
343.2	0.0172	0.00103

System: ethane + 1-hexyl-3-methylimidazolium bis[(trifluoromethyl)sulfonyl]imide; phases: Liquid, Gas
Fixed: Pressure, kPa = 100
Property: Mole fraction of ethane (Liquid); method: pressure drop on dissolution
Temperature, K	Mole fraction of ethane	uncertainty
283.32	0.01802	0.00108
293.02	0.01568	0.00094
303.44	0.01367	0.00082
303.47	0.01332	0.0008
313.29	0.01151	0.00069
313.37	0.01184	0.00071
323.23	0.01042	0.00063
323.33	0.01043	0.00063
333.26	0.009427	0.000566
343.21	0.008542	0.000513

System: hydrogen + 1-hexyl-3-methylimidazolium bis[(trifluoromethyl)sulfonyl]imide; phases: Liquid, Gas
Fixed: Pressure, kPa = 100
Property: Mole fraction of hydrogen (Liquid); method: pressure drop on dissolution
Temperature, K	Mole fraction of hydrogen	uncertainty
283.88	0.0008457	5.07e-05
293.56	0.0007921	4.75e-05
293.59	0.0007946	4.77e-05
303.41	0.0007502	4.5e-05
303.43	0.0007691	4.61e-05
313.17	0.0006917	4.15e-05
323.27	0.0006319	3.79e-05
323.3	0.0006328	3.8e-05
333.17	0.0005592	3.36e-05
343.02	0.0005198	3.12e-05
343.02	0.0005041	3.02e-05
