Measured thermophysical data. Vapor-Liquid Equilibrium for Binary System of Thiophene + n-Hexane at (338.15 and 323.15) K and Thiophene + 1-Hexene at (333.15 and 323.15) K
Source: J. Chem. Eng. Data, 2006, 10.1021/je0603022
Compound 1: hexane, C6H14, InChI=1S/C6H14/c1-3-5-6-4-2/h3-6H2,1-2H3
Compound 2: hex-1-ene, C6H12, InChI=1S/C6H12/c1-3-5-6-4-2/h3H,1,4-6H2,2H3
Compound 3: toluene, C7H8, InChI=1S/C7H8/c1-7-5-3-2-4-6-7/h2-6H,1H3
Compound 4: thiophene, C4H4S, InChI=1S/C4H4S/c1-2-4-5-3-1/h1-4H

System: hexane; phases: Liquid
Property: Refractive index (Na D-line) (Liquid); method: Standard Abbe refractometry
Temperature, K	Pressure, kPa	Refractive index (Na D-line)	uncertainty
298.15	101.325	1.3724	0.0007

System: hexane; phases: Liquid, Gas
Property: Vapor or sublimation pressure, kPa (Liquid); method: Ebulliometric method (Recirculating still)
Temperature, K	Vapor or sublimation pressure, kPa	uncertainty
307.31	29.67	0.36
311.36	34.86	0.37
314.93	40.02	0.37
316.81	43.01	0.38
321.97	52.02	0.39
323.15	54.25	0.4
326.94	62.11	0.4
331	71.39	0.42
335.54	83.09	0.43
338.15	90.44	0.45
338.59	91.73	0.45
342	102.27	0.46

System: hexane; phases: Liquid
Property: Refractive index (Na D-line) (Liquid); method: Standard Abbe refractometry
Temperature, K	Pressure, kPa	Refractive index (Na D-line)	uncertainty
293.15	101.325	1.3751	0.0003

System: hex-1-ene; phases: Liquid
Property: Refractive index (Na D-line) (Liquid); method: Standard Abbe refractometry
Temperature, K	Pressure, kPa	Refractive index (Na D-line)	uncertainty
298.15	101.325	1.3851	0.0007

System: hex-1-ene; phases: Liquid, Gas
Property: Vapor or sublimation pressure, kPa (Liquid); method: Ebulliometric method (Recirculating still)
Temperature, K	Vapor or sublimation pressure, kPa	uncertainty
298.99	25.68	0.36
302.85	30.13	0.36
306.73	35.19	0.37
310.9	41.41	0.38
316.17	50.46	0.39
320.92	59.91	0.4
323.15	64.82	0.41
325.41	70.09	0.42
329.11	79.46	0.43
330.99	84.63	0.44
332.94	90.24	0.48
333.15	90.94	0.48
336.04	99.73	0.46

System: hex-1-ene; phases: Liquid
Property: Refractive index (Na D-line) (Liquid); method: Standard Abbe refractometry
Temperature, K	Pressure, kPa	Refractive index (Na D-line)	uncertainty
293.15	101.325	1.3881	0.0003

System: toluene; phases: Liquid
Property: Refractive index (Na D-line) (Liquid); method: Standard Abbe refractometry
Temperature, K	Pressure, kPa	Refractive index (Na D-line)	uncertainty
298.15	101.325	1.4939	0.0007

System: thiophene; phases: Liquid
Property: Refractive index (Na D-line) (Liquid); method: Standard Abbe refractometry
Temperature, K	Pressure, kPa	Refractive index (Na D-line)	uncertainty
298.15	101.325	1.5255	0.0007

System: thiophene; phases: Liquid, Gas
Property: Vapor or sublimation pressure, kPa (Liquid); method: Ebulliometric method (Recirculating still)
Temperature, K	Vapor or sublimation pressure, kPa	uncertainty
323.15	31.21	0.4
333.15	45.44	0.42
338.15	54.27	0.44

System: thiophene; phases: Liquid
Property: Refractive index (Na D-line) (Liquid); method: Standard Abbe refractometry
Temperature, K	Pressure, kPa	Refractive index (Na D-line)	uncertainty
293.15	101.325	1.5287	0.0003

System: thiophene + hex-1-ene; phases: Liquid
Fixed: Temperature, K = 293.15
Fixed: Pressure, kPa = 101.3
Property: Refractive index (Na D-line) (Liquid); method: Standard Abbe refractometry
Mole fraction of thiophene	Refractive index (Na D-line)	uncertainty
0	1.3881	0.0003
0.024	1.3903	0.0004
0.051	1.3926	0.0004
0.076	1.3949	0.0004
0.094	1.3966	0.0004
0.185	1.4055	0.0004
0.288	1.4163	0.0004
0.378	1.4266	0.0004
0.486	1.4402	0.0004
0.579	1.453	0.0004
0.683	1.4688	0.0005
0.788	1.4866	0.0005
0.89	1.5058	0.0005
0.91	1.5097	0.0005
0.948	1.5174	0.0005
0.974	1.523	0.0005
1	1.5287	0.0003

System: thiophene + hex-1-ene; phases: Liquid, Gas
Property: Vapor or sublimation pressure, kPa (Liquid); method: Ebulliometric method (Recirculating still)
Mole fraction of thiophene	Temperature, K	Vapor or sublimation pressure, kPa	uncertainty
0	323.15	64.82	0.5
0	333.15	90.94	0.56
0.056	333.15	89.78	0.56
0.113	323.15	63.11	0.5
0.16	333.15	87.41	0.55
0.221	323.15	61.15	0.49
0.247	333.15	85.17	0.54
0.309	333.15	83.57	0.53
0.311	323.15	59.4	0.49
0.357	333.15	81.96	0.53
0.368	323.15	58.06	0.48
0.411	333.15	80.2	0.52
0.425	323.15	56.8	0.48
0.475	333.15	78.09	0.52
0.536	333.15	75.94	0.51
0.539	323.15	53.7	0.47
0.611	323.15	51.5	0.46
0.615	333.15	72.75	0.51
0.634	333.15	71.51	0.5
0.683	333.15	69.56	0.49
0.691	323.15	49	0.45
0.714	333.15	67.72	0.49
0.753	333.15	65.98	0.49
0.761	323.15	46.28	0.45
0.815	333.15	61.96	0.48
0.817	323.15	43.67	0.44
0.868	323.15	40.9	0.44
0.916	323.15	37.87	0.44
0.924	333.15	53.4	0.47
0.959	333.15	49.96	0.47
0.98	323.15	32.96	0.43
0.985	333.15	47.15	0.48
1	323.15	31.21	0.4
1	333.15	45.44	0.42

System: thiophene + hex-1-ene; phases: Gas, Liquid
Property: Mole fraction of thiophene (Gas); method: CHROM:UFactor:2
Mole fraction of thiophene	Temperature, K	Mole fraction of thiophene	uncertainty
0	323.15	0	0.001
0	333.15	0	0.001
0.056	333.15	0.043	0.003
0.113	323.15	0.085	0.003
0.16	333.15	0.119	0.003
0.221	323.15	0.16	0.004
0.247	333.15	0.181	0.004
0.309	333.15	0.22	0.004
0.311	323.15	0.216	0.004
0.357	333.15	0.254	0.005
0.368	323.15	0.254	0.005
0.411	333.15	0.287	0.006
0.425	323.15	0.289	0.006
0.475	333.15	0.329	0.006
0.536	333.15	0.367	0.007
0.539	323.15	0.365	0.007
0.611	323.15	0.412	0.008
0.615	333.15	0.424	0.008
0.634	333.15	0.446	0.008
0.683	333.15	0.473	0.009
0.691	323.15	0.472	0.009
0.714	333.15	0.511	0.009
0.753	333.15	0.541	0.009
0.761	323.15	0.537	0.009
0.815	333.15	0.617	0.008
0.817	323.15	0.598	0.008
0.868	323.15	0.672	0.007
0.916	323.15	0.757	0.006
0.924	333.15	0.788	0.005
0.959	333.15	0.87	0.006
0.98	323.15	0.925	0.006
0.985	333.15	0.946	0.007
1	323.15	1	0.001
1	333.15	1	0.001

System: thiophene + hexane; phases: Liquid
Fixed: Temperature, K = 293.15
Fixed: Pressure, kPa = 101.3
Property: Refractive index (Na D-line) (Liquid); method: Standard Abbe refractometry
Mole fraction of thiophene	Refractive index (Na D-line)	uncertainty
0	1.3751	0.0003
0.027	1.3774	0.0004
0.05	1.3794	0.0004
0.08	1.3822	0.0004
0.096	1.3836	0.0004
0.194	1.3933	0.0004
0.292	1.4039	0.0004
0.394	1.4161	0.0004
0.494	1.4296	0.0004
0.588	1.4438	0.0005
0.697	1.4624	0.0005
0.797	1.4814	0.0005
0.897	1.5034	0.0006
0.919	1.5084	0.0006
0.949	1.5158	0.0006
0.974	1.5219	0.0006
1	1.5287	0.0003

System: thiophene + hexane; phases: Liquid, Gas
Property: Vapor or sublimation pressure, kPa (Liquid); method: Ebulliometric method (Recirculating still)
Mole fraction of thiophene	Temperature, K	Vapor or sublimation pressure, kPa	uncertainty
0	323.15	54.25	0.47
0	338.15	90.44	0.55
0.039	323.15	54.59	0.47
0.045	338.15	90.58	0.55
0.08	323.15	54.7	0.48
0.098	338.15	90.75	0.55
0.117	323.15	54.75	0.48
0.146	338.15	90.73	0.55
0.159	323.15	54.72	0.48
0.193	338.15	90.55	0.55
0.213	323.15	54.54	0.47
0.241	338.15	90.2	0.55
0.255	323.15	54.33	0.47
0.289	338.15	89.72	0.54
0.303	323.15	54	0.47
0.335	338.15	89.12	0.54
0.355	323.15	53.52	0.47
0.379	338.15	88.39	0.54
0.404	323.15	52.97	0.47
0.42	338.15	87.59	0.54
0.462	323.15	52.22	0.47
0.508	338.15	85.73	0.53
0.511	323.15	51.46	0.46
0.567	338.15	84.09	0.53
0.575	323.15	50.34	0.46
0.616	338.15	82.53	0.52
0.638	323.15	49.03	0.46
0.67	338.15	80.5	0.52
0.708	323.15	47.43	0.45
0.725	338.15	78.07	0.52
0.762	323.15	45.7	0.45
0.785	338.15	74.94	0.51
0.813	323.15	43.78	0.44
0.826	338.15	72.48	0.51
0.858	323.15	41.8	0.44
0.881	338.15	68.77	0.5
0.901	323.15	39.35	0.44
0.902	338.15	66.52	0.52
0.923	338.15	64.38	0.51
0.931	323.15	37.54	0.44
0.939	338.15	62.61	0.51
0.952	323.15	35.8	0.45
0.956	338.15	60.77	0.51
0.97	323.15	34.23	0.44
0.978	338.15	57.93	0.53
0.986	323.15	32.8	0.45
0.987	338.15	56.24	0.55
1	323.15	31.21	0.4
1	338.15	54.27	0.44

System: thiophene + hexane; phases: Gas, Liquid
Property: Mole fraction of thiophene (Gas); method: CHROM:UFactor:2
Mole fraction of thiophene	Temperature, K	Mole fraction of thiophene	uncertainty
0	323.15	0	0.001
0	338.15	0	0.001
0.039	323.15	0.044	0.003
0.045	338.15	0.052	0.003
0.08	323.15	0.083	0.003
0.098	338.15	0.1	0.003
0.117	323.15	0.117	0.003
0.146	338.15	0.142	0.004
0.159	323.15	0.153	0.004
0.193	338.15	0.181	0.004
0.213	323.15	0.197	0.004
0.241	338.15	0.219	0.005
0.255	323.15	0.228	0.005
0.289	338.15	0.253	0.005
0.303	323.15	0.261	0.005
0.335	338.15	0.286	0.006
0.355	323.15	0.295	0.006
0.379	338.15	0.316	0.006
0.404	323.15	0.326	0.006
0.42	338.15	0.343	0.007
0.462	323.15	0.362	0.007
0.508	338.15	0.399	0.008
0.511	323.15	0.393	0.007
0.567	338.15	0.436	0.008
0.575	323.15	0.43	0.008
0.616	338.15	0.469	0.009
0.638	323.15	0.469	0.009
0.67	338.15	0.505	0.009
0.708	323.15	0.516	0.009
0.725	338.15	0.546	0.009
0.762	323.15	0.553	0.008
0.785	338.15	0.594	0.008
0.813	323.15	0.604	0.008
0.826	338.15	0.641	0.007
0.858	323.15	0.66	0.007
0.881	338.15	0.705	0.006
0.901	323.15	0.727	0.006
0.902	338.15	0.748	0.006
0.923	338.15	0.778	0.006
0.931	323.15	0.777	0.006
0.939	338.15	0.814	0.006
0.952	323.15	0.832	0.007
0.956	338.15	0.854	0.006
0.97	323.15	0.886	0.007
0.978	338.15	0.916	0.007
0.986	323.15	0.936	0.008
0.987	338.15	0.953	0.008
1	323.15	1	0.001
1	338.15	1	0.001
