Measured thermophysical data. Critical-Point Measurements for Phenylethanoic to 7-Phenylheptanoic Acids
Source: J. Chem. Eng. Data, 2006, 10.1021/je060078g
Compound 1: phenylacetic acid, C8H8O2, InChI=1S/C8H8O2/c9-8(10)6-7-4-2-1-3-5-7/h1-5H,6H2,(H,9,10)
Compound 2: 3-phenylpropanoic acid, C9H10O2, InChI=1S/C9H10O2/c10-9(11)7-6-8-4-2-1-3-5-8/h1-5H,6-7H2,(H,10,11)
Compound 3: 4-phenylbutanoic acid, C10H12O2, InChI=1S/C10H12O2/c11-10(12)8-4-7-9-5-2-1-3-6-9/h1-3,5-6H,4,7-8H2,(H,11,12)
Compound 4: 5-phenylvaleric acid, C11H14O2, InChI=1S/C11H14O2/c12-11(13)9-5-4-8-10-6-2-1-3-7-10/h1-3,6-7H,4-5,8-9H2,(H,12,13)
Compound 5: 6-phenylhexanoic acid, C12H16O2, InChI=1S/C12H16O2/c13-12(14)10-6-2-5-9-11-7-3-1-4-8-11/h1,3-4,7-8H,2,5-6,9-10H2,(H,13,14)
Compound 6: 7-phenylheptanoic acid, C13H18O2, InChI=1S/C13H18O2/c14-13(15)11-7-2-1-4-8-12-9-5-3-6-10-12/h3,5-6,9-10H,1-2,4,7-8,11H2,(H,14,15)

System: phenylacetic acid; phases: Liquid, Gas
Property: Critical pressure, kPa (Liquid); method: pulse-heating method
Critical pressure, kPa	uncertainty
3950	140

System: phenylacetic acid; phases: Liquid, Gas
Property: Critical temperature, K (Liquid); method: pulse-heating method
Critical temperature, K	uncertainty
766	8

System: 3-phenylpropanoic acid; phases: Liquid, Gas
Property: Critical pressure, kPa (Liquid); method: pulse-heating method
Critical pressure, kPa	uncertainty
3460	120

System: 3-phenylpropanoic acid; phases: Liquid, Gas
Property: Critical temperature, K (Liquid); method: pulse-heating method
Critical temperature, K	uncertainty
776	8

System: 4-phenylbutanoic acid; phases: Liquid, Gas
Property: Critical pressure, kPa (Liquid); method: pulse-heating method
Critical pressure, kPa	uncertainty
3210	110

System: 4-phenylbutanoic acid; phases: Liquid, Gas
Property: Critical temperature, K (Liquid); method: pulse-heating method
Critical temperature, K	uncertainty
783	8

System: 5-phenylvaleric acid; phases: Liquid, Gas
Property: Critical pressure, kPa (Liquid); method: pulse-heating method
Critical pressure, kPa	uncertainty
2950	100

System: 5-phenylvaleric acid; phases: Liquid, Gas
Property: Critical temperature, K (Liquid); method: pulse-heating method
Critical temperature, K	uncertainty
790	8

System: 6-phenylhexanoic acid; phases: Liquid, Gas
Property: Critical pressure, kPa (Liquid); method: pulse-heating method
Critical pressure, kPa	uncertainty
2600	90

System: 6-phenylhexanoic acid; phases: Liquid, Gas
Property: Critical temperature, K (Liquid); method: pulse-heating method
Critical temperature, K	uncertainty
794	8

System: 7-phenylheptanoic acid; phases: Liquid, Gas
Property: Critical pressure, kPa (Liquid); method: pulse-heating method
Critical pressure, kPa	uncertainty
2470	90

System: 7-phenylheptanoic acid; phases: Liquid, Gas
Property: Critical temperature, K (Liquid); method: pulse-heating method
Critical temperature, K	uncertainty
798	8
