Measured thermophysical data. Measurement of Carbon Dioxide Freezing in Mixtures of Methane, Ethane, and Nitrogen in the Solid-Vapor Equilibrium Region
Source: J. Chem. Eng. Data, 2007, 10.1021/je060194j
Compound 1: carbon dioxide, CO2, InChI=1S/CO2/c2-1-3, purity 99.999%
Compound 2: methane, CH4, InChI=1S/CH4/h1H4, purity 99.999%
Compound 3: ethane, C2H6, InChI=1S/C2H6/c1-2/h1-2H3, purity 99.999%
Compound 4: nitrogen, N2, InChI=1S/N2/c1-2, purity 99.999%

System: methane + carbon dioxide; phases: Fluid (supercritical or subcritical phases), Crystal
Property: Solid-liquid equilibrium temperature, K (Fluid (supercritical or subcritical phases)); method: VISOBS:UFactor:8
Mole fraction of carbon dioxide	Pressure, kPa	Solid-liquid equilibrium temperature, K	uncertainty
0.01	962.1	168.6	1.2
0.01	1103.8	171	1.6
0.01	1109.5	170.5	1.6
0.01	1141.3	170.7	1.2
0.01	1149.3	171.1	1.3
0.01	1319	173.4	1.2
0.01	1426	173.7	1.2
0.01	1435.2	173.6	1.2
0.01	1694.1	175.1	1.2
0.01	1708.3	175.2	1.2
0.01	1809.1	175.5	1.2
0.01	1931	176.3	1.3
0.01	1951.5	175.6	1.2
0.01	2009.1	176.2	1.5
0.01	2012.5	175.9	1.5
0.01	2098.5	176.9	1.3
0.01	2129.2	177	1.3
0.01	2193.9	177.6	1.3
0.01	2299.3	177.7	1.3
0.01	2464.2	177.8	1.3
0.0191	1313.5	173.7	1.2
0.0191	1375.9	173.8	1.3
0.0191	1398.6	174.5	1.3
0.0191	1705.1	176.9	1.6
0.0191	1715.5	176.4	1.6
0.0191	1802.5	176.7	1.3
0.0191	1930.2	179	1.3
0.0191	1943.5	178.9	1.3
0.0191	1955.2	178.9	1.3
0.0191	2135.3	181	1.3
0.0191	2207.1	181.1	1.3
0.0191	2235.4	181.9	1.3
0.0191	2345.2	182.2	1.3
0.0191	2496.6	182.3	1.3
0.0191	2651	182.4	1.3
0.0293	1199	176.5	1.3
0.0293	1212.9	176.7	1.3
0.0293	1252.5	176.9	1.3
0.0293	1421.4	179.1	1.3
0.0293	1469.5	179.6	1.4
0.0293	1476.5	179.6	1.4
0.0293	1644.1	181.8	1.4
0.0293	1683.6	181.9	1.4
0.0293	1757.5	182.1	1.4
0.0293	1957.9	182.8	1.3
0.0293	1971.1	182.8	1.3
0.0293	1982.4	183	1.3
0.0293	2274.1	184.6	1.3
0.0293	2292.2	184.6	1.3
0.0293	2428.4	185.3	1.3
0.0293	2576.9	186.5	1.3
0.0293	2651.5	186.3	1.3
0.0293	2998	187.5	1.3
0.0293	2999.5	187.6	1.3
0.0293	3008.2	187.7	1.3

System: methane + ethane + carbon dioxide; phases: Fluid (supercritical or subcritical phases), Crystal
Property: Solid-liquid equilibrium temperature, K (Fluid (supercritical or subcritical phases)); method: VISOBS:UFactor:8
Mole fraction of carbon dioxide	Mole fraction of ethane	Pressure, kPa	Solid-liquid equilibrium temperature, K	uncertainty
0.0195	0.97053	1267.7	173.6	1.2
0.0195	0.97053	1292.5	173.9	1.2
0.0195	0.97053	1344.7	174.2	1.2
0.0195	0.97053	1566.5	176.3	1.2
0.0195	0.97053	1593.1	176.7	1.2
0.0195	0.97053	1603	176.7	1.2
0.0195	0.97053	1778.6	178.9	1.2
0.0195	0.97053	1809.6	178.4	1.2
0.0195	0.97053	1825.4	178.9	1.2
0.0195	0.97053	2179.2	182.9	1.2
0.0195	0.97053	2229.9	182.4	1.2
0.0195	0.97053	2237.2	183	1.2
0.0196	0.9605	1307.3	175.3	1.2
0.0196	0.9605	1314.6	174.8	1.2
0.0196	0.9605	1320.7	175.1	1.2
0.0196	0.9605	1624	177.4	1.2
0.0196	0.9605	1636.4	177	1.2
0.0196	0.9605	1652	177.4	1.2
0.0196	0.9605	1831.6	179.9	1.2
0.0196	0.9605	1838.5	179.6	1.2
0.0196	0.9605	1848.1	180.2	1.2
0.0196	0.9605	2220.2	183.3	1.2
0.0196	0.9605	2222.7	183.6	1.2
0.0196	0.9605	2250.3	183.6	1.2

System: methane + carbon dioxide + nitrogen; phases: Fluid (supercritical or subcritical phases), Crystal
Fixed: Mole fraction of carbon dioxide = 0.0194
Property: Solid-liquid equilibrium temperature, K (Fluid (supercritical or subcritical phases)); method: VISOBS:UFactor:8
Mole fraction of nitrogen	Pressure, kPa	Solid-liquid equilibrium temperature, K	uncertainty
0.9611	1315.4	174.5	1.2
0.9611	1320.7	174.4	1.3
0.9611	1331.1	175	1.2
0.9611	1635.9	178.7	1.2
0.9611	1667	178.4	1.2
0.9611	1690.8	178.3	1.2
0.9611	1837.9	179.4	1.2
0.9611	1852.6	179.6	1.2
0.9611	1874.4	179.7	1.2
0.9611	2236	183.4	1.2
0.9611	2253.2	183.5	1.2
0.9611	2261.5	183.5	1.2
0.9706	1243.7	173.9	1.2
0.9706	1304	174.4	1.2
0.9706	1340.5	174.5	1.2
0.9706	1590.8	176.6	1.2
0.9706	1606.4	176.7	1.2
0.9706	1649	177.2	1.2
0.9706	1841	178.6	1.2
0.9706	1860.5	178	1.2
0.9706	1869.2	178	1.2
0.9706	2210.7	182.4	1.2
0.9706	2212.1	183	1.2
0.9706	2239.1	183.1	1.2
