Measured thermophysical data. Measurement and Modeling of Phase Equilibria for Ethanol + Water + Methanol at Isobaric Condition
Source: J. Chem. Eng. Data, 2006, 10.1021/je0602521
Compound 1: ethanol, C2H6O, InChI=1S/C2H6O/c1-2-3/h3H,2H2,1H3, purity 99.5%
Compound 2: methanol, CH4O, InChI=1S/CH4O/c1-2/h2H,1H3, purity 99.9%
Compound 3: water, H2O, InChI=1S/H2O/h1H2

System: ethanol; phases: Liquid
Property: Refractive index (Na D-line) (Liquid); method: Standard Abbe refractometry
Temperature, K	Pressure, kPa	Refractive index (Na D-line)	uncertainty
298.15	101.325	1.35941	0.00068

System: methanol; phases: Liquid
Property: Mass density, kg/m3 (Liquid); method: VIBTUB:UFactor:2
Temperature, K	Pressure, kPa	Mass density, kg/m3	uncertainty
298.15	101.325	786.46	0.26

System: ethanol + methanol + water; phases: Liquid, Gas
Fixed: Pressure, kPa = 101
Property: Mole fraction of water (Liquid); method: Density calibration data
Property: Mole fraction of water (Gas); method: Density calibration data
Property: Mole fraction of ethanol (Gas); method: Density calibration data
Temperature, K	Mole fraction of ethanol	Mole fraction of water	uncertainty	Mole fraction of water	uncertainty	Mole fraction of ethanol	uncertainty
337.9	0.02	0.003	0.002	0.008	0.002	0.012	
338.9	0.015	0.058	0.002	0.022	0.002	0.012	
339	0.031	0.058	0.002	0.023	0.002	0.021	
339.7	0.028	0.105	0.002	0.04	0.002	0.021	
339.8	0.047	0.106	0.002	0.04	0.002	0.034	
340.8	0.043	0.158	0.002	0.076	0.002	0.035	
341	0.055	0.156	0.002	0.061	0.002	0.042	
342.2	0.051	0.217	0.002	0.094	0.002	0.046	
342.4	0.079	0.217	0.002	0.106	0.002	0.069	
343	0.075	0.269	0.002	0.108	0.002	0.066	
344.4	0.089	0.331	0.002	0.14	0.002	0.089	
344.4	0.106	0.336	0.002	0.138	0.002	0.105	
345.3	0.094	0.404	0.002	0.169	0.002	0.108	
345.8	0.12	0.397	0.002	0.211	0.002	0.147	
346.8	0.106	0.475	0.002	0.197	0.002	0.136	
347.2	0.145	0.472	0.002	0.204	0.002	0.184	
348.5	0.176	0.503	0.002	0.235	0.002	0.24	
349.1	0.216	0.523	0.002	0.258	0.002	0.304	
349.9	0.247	0.546	0.002	0.275	0.002	0.362	
350.6	0.273	0.546	0.002	0.291	0.002	0.406	
351	0.246	0.593	0.002	0.31	0.002	0.406	
351.2	0.924	0.055	0.002	0.055	0.002	0.9	
350.7	0.89	0.052	0.002	0.052	0.002	0.851	
350.8	0.827	0.116	0.002	0.107	0.002	0.804	
350.4	0.802	0.114	0.002	0.103	0.002	0.769	
350.8	0.714	0.228	0.002	0.186	0.002	0.713	
350.5	0.694	0.227	0.002	0.179	0.002	0.69	
350.9	0.556	0.349	0.002	0.223	0.002	0.662	
350.6	0.622	0.298	0.002	0.216	0.002	0.642	
350.9	0.575	0.355	0.002	0.248	0.002	0.623	
350.6	0.635	0.302	0.002	0.241	0.002	0.602	
351.1	0.507	0.407	0.002	0.27	0.002	0.585	
351.4	0.473	0.446	0.002	0.29	0.002	0.574	
359.6	0.027	0.912	0.002	0.723	0.002	0.109	
359.4	0.028	0.907	0.002	0.669	0.002	0.123	
358.7	0.028	0.899	0.002	0.62	0.002	0.122	
358.6	0.036	0.895	0.002	0.665	0.002	0.128	
358.2	0.034	0.887	0.002	0.583	0.002	0.137	
357.4	0.045	0.883	0.002	0.569	0.002	0.171	
356.9	0.05	0.87	0.002	0.52	0.002	0.188	
356.7	0.059	0.868	0.002	0.487	0.002	0.23	
355.8	0.082	0.852	0.002	0.458	0.002	0.293	
340.4	0.051	0.125	0.002	0.064	0.002	0.027	
354	0.033	0.808	0.002	0.433	0.002	0.088	
355.7	0.026	0.843	0.002	0.461	0.002	0.086	
357.3	0.03	0.908	0.002	0.512	0.002	0.078	
358.8	0.013	0.893	0.002	0.572	0.002	0.069	
360.5	0.009	0.912	0.002	0.611	0.002	0.064	
362.3	0.006	0.93	0.002	0.666	0.002	0.056	
363.9	0.005	0.947	0.002	0.762	0.002	0.041	
365.9	0.005	0.964	0.002	0.778	0.002	0.038	
366.8	0.005	0.971	0.002	0.789	0.002	0.035	
367.6	0.006	0.978	0.002	0.829	0.002	0.026	
368.3	0.006	0.985	0.002	0.846	0.002	0.024	
368.8	0.007	0.989	0.002	0.869	0.002	0.018	
352.1	0.514	0.453	0.002	0.31	0.002	0.606	
351.8	0.51	0.445	0.002	0.3	0.002	0.623	
351.5	0.499	0.442	0.002	0.288	0.002	0.605	
351.3	0.487	0.437	0.002	0.283	0.002	0.585	
351	0.475	0.433	0.002	0.279	0.002	0.569	
350.6	0.455	0.421	0.002	0.268	0.002	0.535	
350.3	0.438	0.417	0.002	0.259	0.002	0.511	
350.7	0.405	0.457	0.002	0.277	0.002	0.506	
351.2	0.367	0.498	0.002	0.299	0.002	0.496	
350.9	0.358	0.494	0.002	0.291	0.002	0.474	
353.1	0.208	0.7	0.002	0.371	0.002	0.443	
353	0.204	0.706	0.002	0.371	0.002	0.444	
353.2	0.2	0.713	0.002	0.374	0.002	0.444	
353.2	0.196	0.721	0.002	0.379	0.002	0.44	
353.6	0.174	0.757	0.002	0.388	0.002	0.44	
354	0.161	0.779	0.002	0.4	0.002	0.435	
355.2	0.128	0.831	0.002	0.433	0.002	0.414	
357.2	0.083	0.885	0.002	0.504	0.002	0.362	
359.8	0.048	0.924	0.002	0.602	0.002	0.282	
362	0.034	0.943	0.002	0.723	0.002	0.195	
362.9	0.029	0.95	0.002	0.684	0.002	0.22	
366.2	0.018	0.974	0.002	0.793	0.002	0.149	
354.4	0.24	0.739	0.002	0.41	0.002	0.558	
354.4	0.227	0.754	0.002	0.423	0.002	0.539	
353.8	0.215	0.738	0.002	0.393	0.002	0.505	
353.7	0.204	0.737	0.002	0.389	0.002	0.481	
353.5	0.195	0.735	0.002	0.384	0.002	0.458	
344.7	0.5	0.06	0.002	0.035	0.002	0.367	
344.8	0.494	0.059	0.002	0.036	0.002	0.368	
344.7	0.489	0.059	0.002	0.034	0.002	0.328	
344.9	0.507	0.06	0.002	0.036	0.002	0.38	
341.7	0.288	0.033	0.002	0.013	0.002	0.179	
342.1	0.323	0.033	0.002	0.014	0.002	0.206	
342.1	0.325	0.033	0.002	0.015	0.002	0.209	
343	0.397	0.032	0.002	0.015	0.002	0.265	
343.2	0.392	0.045	0.002	0.022	0.002	0.264	
343.8	0.383	0.082	0.002	0.044	0.002	0.272	
346.5	0.621	0.052	0.002	0.038	0.002	0.502	
346.8	0.629	0.06	0.002	0.044	0.002	0.519	
347	0.624	0.078	0.002	0.058	0.002	0.531	
347.8	0.564	0.182	0.002	0.121	0.002	0.499	
348.4	0.534	0.243	0.002	0.161	0.002	0.503	
348.6	0.545	0.244	0.002	0.163	0.002	0.509	
345.8	0.411	0.182	0.002	0.105	0.002	0.342	
345.7	0.396	0.177	0.002	0.101	0.002	0.322	
345.9	0.39	0.195	0.002	0.112	0.002	0.329	
343.9	0.303	0.153	0.002	0.071	0.002	0.229	
343.8	0.303	0.153	0.002	0.07	0.002	0.221	
347.4	0.007	0.605	0.002	0.267	0.002	0.008	
347.6	0.013	0.607	0.002	0.296	0.002	0.018	
347.9	0.034	0.609	0.002	0.282	0.002	0.052	
348.9	0.122	0.574	0.002	0.278	0.002	0.192	
349.2	0.151	0.565	0.002	0.263	0.002	0.234	
349.4	0.204	0.537	0.002	0.264	0.002	0.3	
349.7	0.222	0.538	0.002	0.268	0.002	0.324	
