Measured thermophysical data. Solubility of 4-(3,4-Dichlorophenyl)-1-tetralone in Some Organic Solvents
Source: J. Chem. Eng. Data, 2007, 10.1021/je060329l
Compound 1: 4-(3,4-dichlorophenyl)-1-tetralone, C16H12Cl2O, InChI=1S/C16H12Cl2O/c17-14-7-5-10(9-15(14)18)11-6-8-16(19)13-4-2-1-3-12(11)13/h1-5,7,9,11H,6,8H2
Compound 2: methanol, CH4O, InChI=1S/CH4O/c1-2/h2H,1H3
Compound 3: ethanol, C2H6O, InChI=1S/C2H6O/c1-2-3/h3H,2H2,1H3
Compound 4: propan-2-ol, C3H8O, InChI=1S/C3H8O/c1-3(2)4/h3-4H,1-2H3
Compound 5: acetone, C3H6O, InChI=1S/C3H6O/c1-3(2)4/h1-2H3
Compound 6: toluene, C7H8, InChI=1S/C7H8/c1-7-5-3-2-4-6-7/h2-6H,1H3
Compound 7: dimethylformamide, C3H7NO, InChI=1S/C3H7NO/c1-4(2)3-5/h3H,1-2H3
Compound 8: tetrahydrofuran, C4H8O, InChI=1S/C4H8O/c1-2-4-5-3-1/h1-4H2

System: methanol + 4-(3,4-dichlorophenyl)-1-tetralone; phases: Liquid, Crystal
Fixed: Pressure, kPa = 101
Property: Mole fraction of 4-(3,4-dichlorophenyl)-1-tetralone (Liquid); method: laser technique
Temperature, K	Mole fraction of 4-(3,4-dichlorophenyl)-1-tetralone	uncertainty
277.93	0.0008696	2.35e-05
283.06	0.00107	2.66e-05
288.28	0.001409	3.25e-05
293.42	0.001859	4.05e-05
298.04	0.002351	5.11e-05
302.77	0.002928	6.34e-05
308.56	0.003721	8.01e-05
313.53	0.004463	9.59e-05
319.04	0.005333	0.0001143

System: ethanol + 4-(3,4-dichlorophenyl)-1-tetralone; phases: Liquid, Crystal
Fixed: Pressure, kPa = 101
Property: Mole fraction of 4-(3,4-dichlorophenyl)-1-tetralone (Liquid); method: laser technique
Temperature, K	Mole fraction of 4-(3,4-dichlorophenyl)-1-tetralone	uncertainty
283.12	0.001715	2.9e-05
288.27	0.002099	3.3e-05
293.38	0.002524	3.9e-05
298.04	0.003028	4.6e-05
302.93	0.003759	5.8e-05
308.32	0.004902	7.7e-05
314.17	0.006669	0.000104
318.74	0.008518	0.000134
323.26	0.01083	0.000169

System: propan-2-ol + 4-(3,4-dichlorophenyl)-1-tetralone; phases: Liquid, Crystal
Fixed: Pressure, kPa = 101
Property: Mole fraction of 4-(3,4-dichlorophenyl)-1-tetralone (Liquid); method: laser technique
Temperature, K	Mole fraction of 4-(3,4-dichlorophenyl)-1-tetralone	uncertainty
278.12	0.0009552	2.07e-05
283.38	0.001275	2.32e-05
288.33	0.001634	2.6e-05
293.07	0.002088	3.03e-05
298.33	0.002784	3.73e-05
303.36	0.003704	4.74e-05
308.46	0.004958	6.28e-05
313.26	0.006492	8.22e-05
318.54	0.008644	0.0001063

System: acetone + 4-(3,4-dichlorophenyl)-1-tetralone; phases: Liquid, Crystal
Fixed: Pressure, kPa = 101
Property: Mole fraction of 4-(3,4-dichlorophenyl)-1-tetralone (Liquid); method: laser technique
Temperature, K	Mole fraction of 4-(3,4-dichlorophenyl)-1-tetralone	uncertainty
282.13	0.01616	0.00021
288.02	0.02168	0.00027
292.83	0.02606	0.00033
298.28	0.03212	0.00041
303.23	0.03974	0.00052
307.94	0.0498	0.00067
313.74	0.06727	0.00091
318.56	0.08713	0.00121
323.57	0.114	0.00159

System: toluene + 4-(3,4-dichlorophenyl)-1-tetralone; phases: Liquid, Crystal
Fixed: Pressure, kPa = 101
Property: Mole fraction of 4-(3,4-dichlorophenyl)-1-tetralone (Liquid); method: laser technique
Temperature, K	Mole fraction of 4-(3,4-dichlorophenyl)-1-tetralone	uncertainty
278.18	0.03915	0.00036
283.13	0.04614	0.00039
288.28	0.05477	0.00046
293.22	0.06485	0.00056
298.12	0.07707	0.00067
303.14	0.09237	0.00082
308.46	0.1122	0.00101
313.43	0.1346	0.00124
318.34	0.161	0.00151

System: dimethylformamide + 4-(3,4-dichlorophenyl)-1-tetralone; phases: Liquid, Crystal
Fixed: Pressure, kPa = 101
Property: Mole fraction of 4-(3,4-dichlorophenyl)-1-tetralone (Liquid); method: laser technique
Temperature, K	Mole fraction of 4-(3,4-dichlorophenyl)-1-tetralone	uncertainty
278.16	0.0335	0.00036
283.37	0.04075	0.00042
288.12	0.04871	0.00051
293.13	0.05896	0.00062
298.17	0.07166	0.00077
303.28	0.08808	0.00096
308.28	0.1062	0.00117
313.32	0.129	0.00146
318.27	0.1555	0.00179

System: tetrahydrofuran + 4-(3,4-dichlorophenyl)-1-tetralone; phases: Liquid, Crystal
Fixed: Pressure, kPa = 101
Property: Mole fraction of 4-(3,4-dichlorophenyl)-1-tetralone (Liquid); method: laser technique
Temperature, K	Mole fraction of 4-(3,4-dichlorophenyl)-1-tetralone	uncertainty
278.04	0.06994	0.00075
282.93	0.08228	0.00088
288.33	0.09597	0.00103
293.28	0.1093	0.00119
298.24	0.1242	0.00137
302.94	0.1402	0.00158
308.34	0.1619	0.00187
313.52	0.1868	0.00221
