Measured thermophysical data. Solubility of CO2 in Aqueous Solutions of KCl and in Aqueous Solutions of K2CO3
Source: J. Chem. Eng. Data, 2007, 10.1021/je060430q
Compound 1: carbon dioxide, CO2, InChI=1S/CO2/c2-1-3, purity 99.995%
Compound 2: water, H2O, InChI=1S/H2O/h1H2
Compound 3: potassium carbonate, CK2O3, InChI=1S/CH2O3.2K/c2-1(3)4;;/h(H2,2,3,4);;/q;2*+1/p-2, purity 85%
Compound 4: potassium chloride, ClK, InChI=1S/ClH.K/h1H;/q;+1/p-1, purity 99.5%

System: carbon dioxide + potassium chloride + water; phases: Liquid, Gas
Property: Vapor or sublimation pressure, kPa (Liquid); method: Closed cell (Static) method
Temperature, K	Molality, mol/kg of potassium chloride	Molality, mol/kg of carbon dioxide	Vapor or sublimation pressure, kPa	uncertainty
313.1	4.05	0.2082	1414	100
313.1	4.05	0.2241	1503	100
313.1	4.05	0.513	3775	100
313.1	4.05	0.6718	5437	100
313.1	4.05	0.8739	8738	100
313.15	4.05	0.2115	1427	100
313.15	4.05	0.2245	1536	100
313.15	4.05	0.7838	6940	100
313.2	4.05	0.0896	587.8	100
313.2	4.05	0.3651	2554	100
313.2	4.05	0.3666	2617	100
313.2	4.05	0.8862	9395	100
313.25	1.994	0.139	769.4	100
313.25	1.994	0.3052	1833	100
313.25	1.994	0.434	2641	100
313.3	4.05	0.8867	9320	100
313.35	1.994	0.621	4003	100
313.6	1.994	0.8213	5854	100
313.6	1.994	1.0197	8567	100
315.8	1.994	0.1235	735.4	100
316.15	1.994	0.2941	1823	100
333.1	1.994	0.2831	2390	100
333.1	4.05	0.2118	2044	100
333.1	4.05	0.4644	4927	100
333.1	4.05	0.5557	6292	100
333.1	4.05	0.6228	7337	100
333.15	1.994	0.2837	2417	100
333.15	1.994	0.4201	3715	100
333.15	1.994	0.5491	5088	100
333.15	1.994	0.6709	6679	100
333.15	1.994	0.8215	9016	100
333.15	4.05	0.3456	3482	100
333.15	4.05	0.7225	9137	100
353	1.942	0.0374	408.4	100
353	1.942	0.1765	1861	100
353.05	1.942	0.1771	1851	100
353.05	1.942	0.3111	3352	100
353.05	1.942	0.4295	4860	100
353.05	1.942	0.5637	6784	100
353.05	1.942	0.6787	8714	100
353.1	4.05	0.1614	2035	100
353.1	4.05	0.2983	3896	100
353.1	4.05	0.3975	5405	100
353.1	4.05	0.4795	6833	100
353.15	4.05	0.5878	8909	100
373.05	1.942	0.0427	601.9	100
373.05	1.942	0.1456	1850	100
373.05	1.942	0.1468	1880	100
373.05	3.998	0.0384	609.2	100
373.05	3.998	0.115	1720	100
373.05	3.998	0.1747	2633	100
373.05	3.998	0.2879	4508	100
373.05	3.998	0.4005	6653	100
373.05	3.998	0.4056	6755	100
373.05	3.998	0.4706	8156	100
373.05	3.998	0.507	9031	100
373.1	1.942	0.2612	3385	100
373.1	1.942	0.3749	4995	100
373.1	1.942	0.5398	7701	100
373.1	1.942	0.5795	8591	100
393.05	1.942	0.5487	9064	100
393.05	3.998	0.0378	766.9	100
393.05	3.998	0.1104	1964	100
393.05	3.998	0.1105	1974	100
393.05	3.998	0.1852	3295	100
393.05	3.998	0.3767	7079	100
393.05	3.998	0.4573	9065	100
393.1	1.942	0.0641	1046	100
393.1	1.942	0.1421	2129	100
393.1	1.942	0.1431	2159	100
393.1	1.942	0.2885	4331	100
393.1	1.942	0.3995	6205	100
393.1	1.942	0.4746	7612	100
393.1	3.998	0.3029	5538	100
413	3.998	0.0372	953.5	100
413	3.998	0.1189	2453	100
413	3.998	0.1958	3932	100
413.05	1.942	0	336.1	100
413.05	1.942	0.0368	863.2	100
413.05	1.942	0.3809	6511	100
413.05	1.942	0.469	8170	100
413.05	3.998	0.1953	3930	100
413.05	3.998	0.3325	6856	100
413.05	3.998	0.4073	8662	100
413.1	1.942	0.1182	2080	100
413.1	1.942	0.1183	2081	100
413.1	1.942	0.1872	3168	100
413.1	1.942	0.3122	5230	100
413.1	3.998	0	307.8	100
413.1	3.998	0.2719	5520	100
433	3.998	0.0526	1509	100
433	3.998	0.1206	2835	100
433.05	1.942	0	572.5	100
433.05	1.942	0.0334	1072	100
433.05	1.942	0.1643	3137	100
433.05	3.998	0	524.8	100
433.05	3.998	0.0538	1529	100
433.05	3.998	0.1866	4209	100
433.05	3.998	0.2627	5846	100
433.05	3.998	0.3412	7653	100
433.05	3.998	0.3787	8597	100
433.1	1.942	0.3033	5488	100

System: carbon dioxide + potassium carbonate + water; phases: Liquid, Gas
Property: Vapor or sublimation pressure, kPa (Liquid); method: Closed cell (Static) method
Temperature, K	Molality, mol/kg of potassium carbonate	Molality, mol/kg of carbon dioxide	Vapor or sublimation pressure, kPa	uncertainty
313.2	0.4272	0.4992	429.9	150
313.2	0.4272	0.6894	1450	150
313.2	0.4272	0.8272	2224	150
313.2	0.4272	0.9993	3373	150
313.2	0.4272	1.2549	5362	150
313.2	0.4272	1.534	8980	150
313.25	0.4272	0.6252	1029	150
313.75	1.7125	1.7371	329	150
313.75	1.7125	2.0071	2043	150
313.75	1.7125	2.5123	7700	150
313.85	1.7125	1.9861	1914	150
313.85	1.7125	2.1441	3330	150
313.9	1.7125	2.3362	5484	150
353	1.7125	1.8276	1667	150
353	1.7125	2.1549	6672	150
353.05	1.7125	1.7233	768.3	150
353.05	1.7125	1.8391	1831	150
353.05	1.7125	1.908	2564	150
353.05	1.7125	2.024	4642	150
353.1	0.4292	0.4637	490	150
353.1	0.4292	0.5233	914.1	150
353.1	0.4292	0.6471	2227	150
353.1	0.4292	0.8926	4936	150
353.1	0.4292	0.9073	5091	150
353.1	0.4292	1.0394	7091	150
353.1	0.4292	1.1086	8193	150
354.15	0.4292	0.6472	2256	150
393	1.7125	1.1683	267.2	150
393	1.7125	1.9024	4174	150
393	1.7125	2.0205	6376	150
393.05	1.7125	1.5977	685.4	150
393.05	1.7125	1.7148	1463	150
393.05	1.7125	1.7174	1317	150
393.15	0.4272	0.365	270.2	150
393.15	0.4272	0.7316	4258	150
393.2	0.4272	0.4304	489.8	150
393.2	0.4272	0.4714	870	150
393.2	0.4272	0.5016	1272	150
393.2	0.4272	0.6076	2622	150
393.2	0.4272	0.7795	4941	150
393.2	0.4272	1.0437	9237	150
