Measured thermophysical data. Densities, Viscosities, and Speed of Sound Studies of Binary Mixtures of Methylbenzene with Heptan-1-ol, Octan-1-ol, and Decan-1-ol at (303.15 and 313.15) K
Source: J. Chem. Eng. Data, 2006, 10.1021/je0602519
Compound 1: toluene, C7H8, InChI=1S/C7H8/c1-7-5-3-2-4-6-7/h2-6H,1H3, purity 99.5%
Compound 2: heptan-1-ol, C7H16O, InChI=1S/C7H16O/c1-2-3-4-5-6-7-8/h8H,2-7H2,1H3, purity 99.5%
Compound 3: octan-1-ol, C8H18O, InChI=1S/C8H18O/c1-2-3-4-5-6-7-8-9/h9H,2-8H2,1H3, purity 99.5%
Compound 4: decan-1-ol, C10H22O, InChI=1S/C10H22O/c1-2-3-4-5-6-7-8-9-10-11/h11H,2-10H2,1H3, purity 99.5%

System: toluene; phases: Liquid
Fixed: Pressure, kPa = 101
Property: Viscosity, Pa*s (Liquid); method: CAPTUB:UFactor:8
Temperature, K	Viscosity, Pa*s	uncertainty
303.15	0.000525	2.9e-05
313.15	0.000471	2.7e-05

System: toluene; phases: Liquid
Fixed: Pressure, kPa = 101.325
Fixed: Frequency, MHz = 2
Property: Speed of sound, m/s (Liquid); method: Linear variable-path acoustic interferometer
Temperature, K	Speed of sound, m/s	uncertainty
303.15	1289	3
313.15	1256	2

System: toluene; phases: Liquid
Fixed: Pressure, kPa = 101
Property: Mass density, kg/m3 (Liquid); method: Pycnometric method
Temperature, K	Mass density, kg/m3	uncertainty
303.15	856.62	0.31
313.15	847.03	0.32

System: heptan-1-ol; phases: Liquid
Fixed: Pressure, kPa = 101
Property: Viscosity, Pa*s (Liquid); method: CAPTUB::UFactor:8
Temperature, K	Viscosity, Pa*s	uncertainty
303.15	0.005048	0.00022
313.15	0.003712	0.000166

System: heptan-1-ol; phases: Liquid
Fixed: Pressure, kPa = 101.325
Fixed: Frequency, MHz = 2
Property: Speed of sound, m/s (Liquid); method: Linear variable-path acoustic interferometer
Temperature, K	Speed of sound, m/s	uncertainty
303.15	1313	3
313.15	1279	3

System: heptan-1-ol; phases: Liquid
Fixed: Pressure, kPa = 101
Property: Mass density, kg/m3 (Liquid); method: Pycnometric method
Temperature, K	Mass density, kg/m3	uncertainty
303.15	814.89	0.29
313.15	807.68	0.3

System: octan-1-ol; phases: Liquid
Fixed: Pressure, kPa = 101
Property: Viscosity, Pa*s (Liquid); method: CAPTUB::UFactor:8
Temperature, K	Viscosity, Pa*s	uncertainty
303.15	0.006433	0.000264
313.15	0.004603	0.000204

System: octan-1-ol; phases: Liquid
Fixed: Pressure, kPa = 101.325
Fixed: Frequency, MHz = 2
Property: Speed of sound, m/s (Liquid); method: Linear variable-path acoustic interferometer
Temperature, K	Speed of sound, m/s	uncertainty
303.15	1334	3
313.15	1304	3

System: octan-1-ol; phases: Liquid
Fixed: Pressure, kPa = 101
Property: Mass density, kg/m3 (Liquid); method: Pycnometric method
Temperature, K	Mass density, kg/m3	uncertainty
303.15	818.38	0.29
313.15	811.05	0.3

System: decan-1-ol; phases: Liquid
Fixed: Pressure, kPa = 101
Property: Viscosity, Pa*s (Liquid); method: CAPTUB::UFactor:8
Temperature, K	Viscosity, Pa*s	uncertainty
303.15	0.009716	0.000368
313.15	0.00682	0.00028

System: decan-1-ol; phases: Liquid
Fixed: Pressure, kPa = 101.325
Fixed: Frequency, MHz = 2
Property: Speed of sound, m/s (Liquid); method: Linear variable-path acoustic interferometer
Temperature, K	Speed of sound, m/s	uncertainty
303.15	1366	3
313.15	1334	3

System: decan-1-ol; phases: Liquid
Fixed: Pressure, kPa = 101
Property: Mass density, kg/m3 (Liquid); method: Pycnometric method
Temperature, K	Mass density, kg/m3	uncertainty
303.15	822.87	0.29
313.15	815.97	0.31

System: toluene + heptan-1-ol; phases: Liquid
Fixed: Pressure, kPa = 101
Property: Viscosity, Pa*s (Liquid); method: CAPTUB:UFactor:8
Temperature, K	Mole fraction of toluene	Viscosity, Pa*s	uncertainty
303.15	0	0.005048	0.00022
303.15	0.0525	0.004404	0.000194
303.15	0.1014	0.003859	0.000171
303.15	0.1518	0.0034	0.000152
303.15	0.1859	0.003154	0.000141
303.15	0.2489	0.002645	0.00012
303.15	0.3011	0.002314	0.000106
303.15	0.3504	0.002042	9.4e-05
303.15	0.4006	0.001796	8.4e-05
303.15	0.4494	0.001594	7.5e-05
303.15	0.5003	0.001399	6.7e-05
303.15	0.5486	0.00125	6e-05
303.15	0.5903	0.001113	5.4e-05
303.15	0.6493	0.000982	4.9e-05
303.15	0.7011	0.000888	4.5e-05
303.15	0.752	0.000776	4e-05
303.15	0.8041	0.000673	3.5e-05
303.15	0.8495	0.000635	3.4e-05
303.15	0.9009	0.000588	3.2e-05
303.15	0.9487	0.000546	3e-05
303.15	1	0.000525	2.9e-05
313.15	0	0.003712	0.000166
313.15	0.0525	0.003362	0.000151
313.15	0.1014	0.003074	0.000138
313.15	0.1518	0.00277	0.000125
313.15	0.1859	0.00255	0.000116
313.15	0.2489	0.002226	0.000102
313.15	0.3011	0.001986	9.2e-05
313.15	0.3504	0.00177	8.2e-05
313.15	0.4006	0.001583	7.4e-05
313.15	0.4494	0.001436	6.8e-05
313.15	0.5003	0.001271	6.1e-05
313.15	0.5486	0.001144	5.6e-05
313.15	0.5903	0.001069	5.2e-05
313.15	0.6493	0.000965	4.8e-05
313.15	0.7011	0.00084	4.3e-05
313.15	0.752	0.000772	4e-05
313.15	0.8041	0.000682	3.6e-05
313.15	0.8495	0.000639	3.4e-05
313.15	0.9009	0.000573	3.1e-05
313.15	0.9487	0.000528	2.9e-05
313.15	1	0.000471	2.7e-05

System: toluene + heptan-1-ol; phases: Liquid
Fixed: Pressure, kPa = 101
Fixed: Frequency, MHz = 2
Property: Speed of sound, m/s (Liquid); method: Linear variable-path acoustic interferometer
Temperature, K	Mole fraction of toluene	Speed of sound, m/s	uncertainty
303.15	0	1313	3
303.15	0.0525	1310	3
303.15	0.1014	1307	3
303.15	0.1518	1304	3
303.15	0.1859	1301	3
303.15	0.2489	1296	3
303.15	0.3011	1291	3
303.15	0.3504	1286	3
303.15	0.4006	1282	3
303.15	0.4494	1278	3
303.15	0.5003	1274	3
303.15	0.5486	1271	3
303.15	0.5903	1269	3
303.15	0.6493	1266	3
303.15	0.7011	1266	3
303.15	0.752	1267	3
303.15	0.8041	1268	3
303.15	0.8495	1272	3
303.15	0.9009	1276	3
303.15	0.9487	1282	3
303.15	1	1289	3
313.15	0	1279	3
313.15	0.0525	1274	3
313.15	0.1014	1271	3
313.15	0.1518	1267	3
313.15	0.1859	1263	2
313.15	0.2489	1258	3
313.15	0.3011	1251	2
313.15	0.3504	1247	2
313.15	0.4006	1242	2
313.15	0.4494	1237	2
313.15	0.5003	1233	2
313.15	0.5486	1230	2
313.15	0.5903	1227	2
313.15	0.6493	1226	2
313.15	0.7011	1225	2
313.15	0.752	1226	2
313.15	0.8041	1228	2
313.15	0.8495	1232	2
313.15	0.9009	1239	2
313.15	0.9487	1245	2
313.15	1	1256	2

System: toluene + heptan-1-ol; phases: Liquid
Fixed: Pressure, kPa = 101
Property: Mass density, kg/m3 (Liquid); method: Pycnometric method
Temperature, K	Mole fraction of toluene	Mass density, kg/m3	uncertainty
303.15	0	814.89	0.29
303.15	0.0525	816.52	0.29
303.15	0.1014	818.06	0.29
303.15	0.1518	819.67	0.29
303.15	0.1859	820.78	0.29
303.15	0.2489	822.84	0.3
303.15	0.3011	824.61	0.3
303.15	0.3504	826.34	0.3
303.15	0.4006	828.07	0.3
303.15	0.4494	829.88	0.3
303.15	0.5003	831.83	0.3
303.15	0.5486	833.72	0.3
303.15	0.5903	835.44	0.3
303.15	0.6493	837.95	0.3
303.15	0.7011	840.28	0.3
303.15	0.752	842.69	0.3
303.15	0.8041	845.27	0.3
303.15	0.8495	847.69	0.3
303.15	0.9009	850.55	0.31
303.15	0.9487	853.39	0.31
303.15	1	856.62	0.31
313.15	0	807.68	0.3
313.15	0.0525	809.17	0.3
313.15	0.1014	810.59	0.3
313.15	0.1518	812.07	0.3
313.15	0.1859	813.13	0.31
313.15	0.2489	815.02	0.31
313.15	0.3011	816.69	0.31
313.15	0.3504	818.24	0.31
313.15	0.4006	819.87	0.31
313.15	0.4494	821.57	0.31
313.15	0.5003	823.35	0.31
313.15	0.5486	825.14	0.31
313.15	0.5903	826.72	0.31
313.15	0.6493	829.09	0.31
313.15	0.7011	831.32	0.31
313.15	0.752	833.57	0.31
313.15	0.8041	836.02	0.31
313.15	0.8495	838.32	0.31
313.15	0.9009	841.07	0.32
313.15	0.9487	843.85	0.32
313.15	1	847.03	0.32

System: toluene + octan-1-ol; phases: Liquid
Fixed: Pressure, kPa = 101
Property: Viscosity, Pa*s (Liquid); method: CAPTUB:UFactor:8
Temperature, K	Mole fraction of toluene	Viscosity, Pa*s	uncertainty
303.15	0	0.006433	0.000264
303.15	0.0495	0.00563	0.000239
303.15	0.1104	0.004775	0.000209
303.15	0.1513	0.004281	0.000189
303.15	0.1999	0.003788	0.000168
303.15	0.2517	0.00328	0.000147
303.15	0.2997	0.002952	0.000133
303.15	0.356	0.002504	0.000114
303.15	0.3998	0.002229	0.000102
303.15	0.4506	0.001974	9.1e-05
303.15	0.5001	0.001758	8.2e-05
303.15	0.5513	0.001541	7.3e-05
303.15	0.6014	0.00135	6.5e-05
303.15	0.6495	0.001214	5.9e-05
303.15	0.6997	0.001065	5.2e-05
303.15	0.7569	0.000931	4.7e-05
303.15	0.8012	0.000819	4.2e-05
303.15	0.8527	0.000733	3.8e-05
303.15	0.9	0.000646	3.4e-05
303.15	0.954	0.000576	3.1e-05
303.15	1	0.000525	2.9e-05
313.15	0	0.004603	0.000204
313.15	0.0495	0.00413	0.000184
313.15	0.1104	0.003645	0.000163
313.15	0.1513	0.003261	0.000147
313.15	0.1999	0.002832	0.000129
313.15	0.2517	0.002545	0.000116
313.15	0.2997	0.002218	0.000102
313.15	0.356	0.001944	9e-05
313.15	0.3998	0.001715	8.1e-05
313.15	0.4506	0.001518	7.2e-05
313.15	0.5001	0.00137	6.6e-05
313.15	0.5513	0.001175	5.7e-05
313.15	0.6014	0.001084	5.3e-05
313.15	0.6495	0.000935	4.7e-05
313.15	0.6997	0.000866	4.4e-05
313.15	0.7569	0.000754	3.9e-05
313.15	0.8012	0.000703	3.7e-05
313.15	0.8527	0.000636	3.4e-05
313.15	0.9	0.000558	3e-05
313.15	0.954	0.000526	2.9e-05
313.15	1	0.000471	2.7e-05

System: toluene + octan-1-ol; phases: Liquid
Fixed: Pressure, kPa = 101
Fixed: Frequency, MHz = 2
Property: Speed of sound, m/s (Liquid); method: Linear variable-path acoustic interferometer
Temperature, K	Mole fraction of toluene	Speed of sound, m/s	uncertainty
303.15	0	1334	3
303.15	0.0495	1329	3
303.15	0.1104	1325	3
303.15	0.1513	1321	3
303.15	0.1999	1316	3
303.15	0.2517	1310	3
303.15	0.2997	1304	3
303.15	0.356	1297	3
303.15	0.3998	1291	3
303.15	0.4506	1286	3
303.15	0.5001	1281	3
303.15	0.5513	1276	3
303.15	0.6014	1272	3
303.15	0.6495	1270	3
303.15	0.6997	1268	3
303.15	0.7569	1267	3
303.15	0.8012	1268	3
303.15	0.8527	1269	3
303.15	0.9	1273	3
303.15	0.954	1280	3
303.15	1	1289	3
313.15	0	1304	3
313.15	0.0495	1300	3
313.15	0.1104	1293	3
313.15	0.1513	1287	3
313.15	0.1999	1282	3
313.15	0.2517	1274	3
313.15	0.2997	1268	2
313.15	0.356	1262	2
313.15	0.3998	1255	2
313.15	0.4506	1250	2
313.15	0.5001	1242	2
313.15	0.5513	1238	2
313.15	0.6014	1234	2
313.15	0.6495	1231	2
313.15	0.6997	1228	2
313.15	0.7569	1228	2
313.15	0.8012	1229	2
313.15	0.8527	1232	2
313.15	0.9	1236	2
313.15	0.954	1245	2
313.15	1	1256	2

System: toluene + octan-1-ol; phases: Liquid
Fixed: Pressure, kPa = 101
Property: Mass density, kg/m3 (Liquid); method: Pycnometric method
Temperature, K	Mole fraction of toluene	Mass density, kg/m3	uncertainty
303.15	0	818.38	0.29
303.15	0.0495	819.62	0.29
303.15	0.1104	821.19	0.29
303.15	0.1513	822.25	0.29
303.15	0.1999	823.55	0.3
303.15	0.2517	824.98	0.3
303.15	0.2997	826.34	0.3
303.15	0.356	828.02	0.3
303.15	0.3998	829.32	0.3
303.15	0.4506	830.99	0.3
303.15	0.5001	832.63	0.3
303.15	0.5513	834.46	0.3
303.15	0.6014	836.31	0.3
303.15	0.6495	838.22	0.3
303.15	0.6997	840.36	0.3
303.15	0.7569	842.9	0.3
303.15	0.8012	845.02	0.3
303.15	0.8527	847.7	0.3
303.15	0.9	850.32	0.31
303.15	0.954	853.6	0.31
303.15	1	856.62	0.31
313.15	0	811.05	0.3
313.15	0.0495	812.14	0.3
313.15	0.1104	813.56	0.31
313.15	0.1513	814.55	0.31
313.15	0.1999	815.73	0.31
313.15	0.2517	817.04	0.31
313.15	0.2997	818.29	0.31
313.15	0.356	819.85	0.31
313.15	0.3998	821.03	0.31
313.15	0.4506	822.56	0.31
313.15	0.5001	824.08	0.31
313.15	0.5513	825.77	0.31
313.15	0.6014	827.51	0.31
313.15	0.6495	829.3	0.31
313.15	0.6997	831.29	0.31
313.15	0.7569	833.69	0.31
313.15	0.8012	835.74	0.31
313.15	0.8527	838.28	0.31
313.15	0.9	840.85	0.32
313.15	0.954	844	0.32
313.15	1	847.03	0.32

System: toluene + decan-1-ol; phases: Liquid
Fixed: Pressure, kPa = 101
Property: Viscosity, Pa*s (Liquid); method: CAPTUB:UFactor:8
Temperature, K	Mole fraction of toluene	Viscosity, Pa*s	uncertainty
303.15	0	0.009716	0.000368
303.15	0.0507	0.008474	0.000329
303.15	0.1015	0.007424	0.000296
303.15	0.1473	0.006635	0.000271
303.15	0.2091	0.005658	0.00024
303.15	0.2577	0.004962	0.000218
303.15	0.3006	0.004458	0.000197
303.15	0.3496	0.003848	0.000171
303.15	0.4028	0.00332	0.000149
303.15	0.4516	0.002843	0.000129
303.15	0.4989	0.002499	0.000114
303.15	0.5497	0.002152	0.0001
303.15	0.6009	0.001883	8.8e-05
303.15	0.6498	0.001594	7.5e-05
303.15	0.7065	0.001414	6.8e-05
303.15	0.7524	0.00115	5.6e-05
303.15	0.8069	0.001021	5e-05
303.15	0.8472	0.000887	4.5e-05
303.15	0.9063	0.00075	3.9e-05
303.15	0.9489	0.000599	3.2e-05
303.15	1	0.000525	2.9e-05
313.15	0	0.00682	0.00028
313.15	0.0507	0.00606	0.000255
313.15	0.1015	0.005343	0.000232
313.15	0.1473	0.004771	0.000211
313.15	0.2091	0.004059	0.000181
313.15	0.2577	0.003552	0.00016
313.15	0.3006	0.003112	0.000141
313.15	0.3496	0.00271	0.000124
313.15	0.4028	0.002263	0.000105
313.15	0.4516	0.001903	9e-05
313.15	0.4989	0.001678	8e-05
313.15	0.5497	0.00147	7.1e-05
313.15	0.6009	0.001305	6.4e-05
313.15	0.6498	0.001162	5.7e-05
313.15	0.7065	0.000994	5e-05
313.15	0.7524	0.000905	4.6e-05
313.15	0.8069	0.00079	4.1e-05
313.15	0.8472	0.000732	3.8e-05
313.15	0.9063	0.00064	3.4e-05
313.15	0.9489	0.000565	3.1e-05
313.15	1	0.000471	2.7e-05

System: toluene + decan-1-ol; phases: Liquid
Fixed: Pressure, kPa = 101
Fixed: Frequency, MHz = 2
Property: Speed of sound, m/s (Liquid); method: Linear variable-path acoustic interferometer
Temperature, K	Mole fraction of toluene	Speed of sound, m/s	uncertainty
303.15	0	1366	3
303.15	0.0507	1361	3
303.15	0.1015	1355	3
303.15	0.1473	1349	3
303.15	0.2091	1340	3
303.15	0.2577	1333	3
303.15	0.3006	1327	3
303.15	0.3496	1318	3
303.15	0.4028	1311	3
303.15	0.4516	1303	3
303.15	0.4989	1295	3
303.15	0.5497	1290	3
303.15	0.6009	1285	3
303.15	0.6498	1280	3
303.15	0.7065	1275	3
303.15	0.7524	1274	2
303.15	0.8069	1273	2
303.15	0.8472	1274	2
303.15	0.9063	1278	3
303.15	0.9489	1282	3
303.15	1	1289	3
313.15	0	1334	3
313.15	0.0507	1327	3
313.15	0.1015	1320	3
313.15	0.1473	1314	3
313.15	0.2091	1305	3
313.15	0.2577	1297	3
313.15	0.3006	1292	3
313.15	0.3496	1283	3
313.15	0.4028	1275	3
313.15	0.4516	1268	2
313.15	0.4989	1261	2
313.15	0.5497	1255	2
313.15	0.6009	1249	2
313.15	0.6498	1245	2
313.15	0.7065	1240	2
313.15	0.7524	1239	2
313.15	0.8069	1239	2
313.15	0.8472	1240	2
313.15	0.9063	1243	2
313.15	0.9489	1248	2
313.15	1	1256	2

System: toluene + decan-1-ol; phases: Liquid
Fixed: Pressure, kPa = 101
Property: Mass density, kg/m3 (Liquid); method: Pycnometric method
Temperature, K	Mole fraction of toluene	Mass density, kg/m3	uncertainty
303.15	0	822.87	0.29
303.15	0.0507	823.76	0.3
303.15	0.1015	824.73	0.3
303.15	0.1473	825.62	0.3
303.15	0.2091	826.88	0.3
303.15	0.2577	827.9	0.3
303.15	0.3006	828.84	0.3
303.15	0.3496	829.95	0.3
303.15	0.4028	831.22	0.3
303.15	0.4516	832.48	0.3
303.15	0.4989	833.77	0.3
303.15	0.5497	835.29	0.3
303.15	0.6009	836.92	0.3
303.15	0.6498	838.61	0.3
303.15	0.7065	840.8	0.3
303.15	0.7524	842.7	0.3
303.15	0.8069	845.15	0.3
303.15	0.8472	847.18	0.3
303.15	0.9063	850.54	0.31
303.15	0.9489	853.12	0.31
303.15	1	856.62	0.31
313.15	0	815.97	0.31
313.15	0.0507	816.74	0.31
313.15	0.1015	817.58	0.31
313.15	0.1473	818.34	0.31
313.15	0.2091	819.45	0.31
313.15	0.2577	820.38	0.31
313.15	0.3006	821.2	0.3
313.15	0.3496	822.24	0.31
313.15	0.4028	823.38	0.31
313.15	0.4516	824.49	0.31
313.15	0.4989	825.69	0.31
313.15	0.5497	827.06	0.31
313.15	0.6009	828.57	0.31
313.15	0.6498	830.11	0.31
313.15	0.7065	832.12	0.31
313.15	0.7524	833.86	0.31
313.15	0.8069	836.21	0.31
313.15	0.8472	838.04	0.31
313.15	0.9063	841.18	0.32
313.15	0.9489	843.58	0.32
313.15	1	847.03	0.32
