Measured thermophysical data. Infinite Dilution Binary Diffusion Coefficients of Several r-Amino Acids in Water over a Temperature Range from (293.2 to 333.2) K with the Taylor Dispersion Technique
Source: J. Chem. Eng. Data, 2006, 10.1021/je060149b
Compound 1: DL-tert-leucine, C6H13NO2, InChI=1S/C6H13NO2/c1-6(2,3)4(7)5(8)9/h4H,7H2,1-3H3,(H,8,9)
Compound 2: water, H2O, InChI=1S/H2O/h1H2
Compound 3: 2-aminoacetic acid, C2H5NO2, InChI=1S/C2H5NO2/c3-1-2(4)5/h1,3H2,(H,4,5)
Compound 4: (S)-2-aminopropanoic acid, C3H7NO2, InChI=1S/C3H7NO2/c1-2(4)3(5)6/h2H,4H2,1H3,(H,5,6)/t2-/m0/s1
Compound 5: (.+-.)-.alpha.-aminobutyric acid, C4H9NO2, InChI=1S/C4H9NO2/c1-2-3(5)4(6)7/h3H,2,5H2,1H3,(H,6,7)
Compound 6: (S)-2-aminopentanoic acid, C5H11NO2, InChI=1S/C5H11NO2/c1-2-3-4(6)5(7)8/h4H,2-3,6H2,1H3,(H,7,8)/t4-/m0/s1
Compound 7: L-valine, C5H11NO2, InChI=1S/C5H11NO2/c1-3(2)4(6)5(7)8/h3-4H,6H2,1-2H3,(H,7,8)/t4-/m0/s1
Compound 8: 2-aminohexanoic acid, C6H13NO2, InChI=1S/C6H13NO2/c1-2-3-4-5(7)6(8)9/h5H,2-4,7H2,1H3,(H,8,9)
Compound 9: L-leucine, C6H13NO2, InChI=1S/C6H13NO2/c1-4(2)3-5(7)6(8)9/h4-5H,3,7H2,1-2H3,(H,8,9)/t5-/m0/s1
Compound 10: 2-amino-3-methylpentanoic acid, C6H13NO2, InChI=1S/C6H13NO2/c1-3-4(2)5(7)6(8)9/h4-5H,3,7H2,1-2H3,(H,8,9)/t4-,5-/m0/s1
Compound 11: allo-L-isoleucine, C6H13NO2, InChI=1S/C6H13NO2/c1-3-4(2)5(7)6(8)9/h4-5H,3,7H2,1-2H3,(H,8,9)/t4-,5+/m1/s1

System: 2-aminoacetic acid + water; phases: Liquid
Fixed: Pressure, kPa = 101
Fixed: Mole fraction of 2-aminoacetic acid = 0
Property: Binary diffusion coefficient, m2/s (Liquid); method: Taylor dispersion method
Temperature, K	Binary diffusion coefficient, m2/s	uncertainty
293.2	9.36e-10	0.024
298.2	1.061e-09	0.025
303.2	1.216e-09	0.03
313.2	1.504e-09	0.05
323.2	1.856e-09	0.044
333.2	2.219e-09	0.053

System: (S)-2-aminopropanoic acid + water; phases: Liquid
Fixed: Pressure, kPa = 101
Fixed: Mole fraction of (S)-2-aminopropanoic acid = 0
Property: Binary diffusion coefficient, m2/s (Liquid); method: Taylor dispersion method
Temperature, K	Binary diffusion coefficient, m2/s	uncertainty
293.2	8.06e-10	0.025
298.2	9.3e-10	0.023
303.2	1.041e-09	0.03
313.2	1.308e-09	0.05
323.2	1.627e-09	0.04
333.2	1.964e-09	0.048

System: (.+-.)-.alpha.-aminobutyric acid + water; phases: Liquid
Fixed: Pressure, kPa = 101
Fixed: Mole fraction of (.+-.)-.alpha.-aminobutyric acid = 0
Property: Binary diffusion coefficient, m2/s (Liquid); method: Taylor dispersion method
Temperature, K	Binary diffusion coefficient, m2/s	uncertainty
293.2	7.29e-10	0.024
298.2	8.39e-10	0.021
303.2	9.48e-10	0.029
313.2	1.2e-09	0.044
323.2	1.492e-09	0.055
333.2	1.796e-09	0.04

System: (S)-2-aminopentanoic acid + water; phases: Liquid
Fixed: Pressure, kPa = 101
Fixed: Mole fraction of (S)-2-aminopentanoic acid = 0
Property: Binary diffusion coefficient, m2/s (Liquid); method: Taylor dispersion method
Temperature, K	Binary diffusion coefficient, m2/s	uncertainty
293.2	6.77e-10	0.019
298.2	7.75e-10	0.02
303.2	8.79e-10	0.028
313.2	1.118e-09	0.04
323.2	1.394e-09	0.044
333.2	1.69e-09	0.035

System: L-valine + water; phases: Liquid
Fixed: Pressure, kPa = 101
Fixed: Mole fraction of L-valine = 0
Property: Binary diffusion coefficient, m2/s (Liquid); method: Taylor dispersion method
Temperature, K	Binary diffusion coefficient, m2/s	uncertainty
293.2	6.76e-10	0.028
298.2	7.77e-10	0.021
303.2	8.91e-10	0.024
313.2	1.124e-09	0.031
323.2	1.402e-09	0.041
333.2	1.703e-09	0.045

System: 2-aminohexanoic acid + water; phases: Liquid
Fixed: Pressure, kPa = 101
Fixed: Mole fraction of 2-aminohexanoic acid = 0
Property: Binary diffusion coefficient, m2/s (Liquid); method: Taylor dispersion method
Temperature, K	Binary diffusion coefficient, m2/s	uncertainty
293.2	6.41e-10	0.023
298.2	7.36e-10	0.021
303.2	8.27e-10	0.029
313.2	1.07e-09	0.025
323.2	1.316e-09	0.046
333.2	1.599e-09	0.043

System: L-leucine + water; phases: Liquid
Fixed: Pressure, kPa = 101
Fixed: Mole fraction of L-leucine = 0
Property: Binary diffusion coefficient, m2/s (Liquid); method: Taylor dispersion method
Temperature, K	Binary diffusion coefficient, m2/s	uncertainty
293.2	6.41e-10	0.021
298.2	7.35e-10	0.023
303.2	8.24e-10	0.021
313.2	1.071e-09	0.026
323.2	1.328e-09	0.04
333.2	1.598e-09	0.043

System: 2-amino-3-methylpentanoic acid + water; phases: Liquid
Fixed: Pressure, kPa = 101
Fixed: Mole fraction of 2-amino-3-methylpentanoic acid = 0
Property: Binary diffusion coefficient, m2/s (Liquid); method: Taylor dispersion method
Temperature, K	Binary diffusion coefficient, m2/s	uncertainty
293.2	6.41e-10	0.021
298.2	7.44e-10	0.029
303.2	8.36e-10	0.027
313.2	1.07e-09	0.032
323.2	1.333e-09	0.042
333.2	1.617e-09	0.04

System: allo-L-isoleucine + water; phases: Liquid
Fixed: Pressure, kPa = 101
Fixed: Mole fraction of allo-L-isoleucine = 0
Property: Binary diffusion coefficient, m2/s (Liquid); method: Taylor dispersion method
Temperature, K	Binary diffusion coefficient, m2/s	uncertainty
293.2	6.42e-10	0.023
298.2	7.38e-10	0.029
303.2	8.44e-10	0.025
313.2	1.07e-09	0.03
323.2	1.326e-09	0.042
333.2	1.608e-09	0.033

System: water + DL-tert-leucine; phases: Liquid
Fixed: Pressure, kPa = 101
Fixed: Mole fraction of DL-tert-leucine = 0
Property: Binary diffusion coefficient, m2/s (Liquid); method: Taylor dispersion method
Temperature, K	Binary diffusion coefficient, m2/s	uncertainty
293.2	6.31e-10	0.023
298.2	7.29e-10	0.021
303.2	8.46e-10	0.024
313.2	1.061e-09	0.035
323.2	1.333e-09	0.035
333.2	1.611e-09	0.04
