Measured thermophysical data. Densities and Viscosities of N-Formylmorpholine + Benzene, + Toluene at Different Temperatures and Atmospheric Pressures
Source: J. Chem. Eng. Data, 2007, 10.1021/je060475r
Compound 1: N-formylmorpholine, C5H9NO2, InChI=1S/C5H9NO2/c7-5-6-1-3-8-4-2-6/h5H,1-4H2
Compound 2: benzene, C6H6, InChI=1S/C6H6/c1-2-4-6-5-3-1/h1-6H
Compound 3: toluene, C7H8, InChI=1S/C7H8/c1-7-5-3-2-4-6-7/h2-6H,1H3

System: N-formylmorpholine; phases: Liquid
Fixed: Pressure, kPa = 101
Property: Viscosity, Pa*s (Liquid); method: CAPTUB:UFactor:8
Temperature, K	Viscosity, Pa*s	uncertainty
298.15	0.007955	0.000309
303.15	0.006877	0.000276
313.15	0.005214	0.000224
323.15	0.00408	0.000179
333.15	0.003284	0.000146
343.15	0.002707	0.000122
353.15	0.002274	0.000104

System: N-formylmorpholine; phases: Liquid
Fixed: Pressure, kPa = 101
Property: Mass density, kg/m3 (Liquid); method: VIBTUB:UFactor:16
Temperature, K	Mass density, kg/m3	uncertainty
298.15	1146.06	1.47
303.15	1141.7	1.45
313.15	1132.96	1.39
323.15	1124.33	1.34
333.15	1115.63	1.28
343.15	1107.96	1.23
353.15	1098.76	1.18

System: benzene; phases: Liquid
Fixed: Pressure, kPa = 101
Property: Viscosity, Pa*s (Liquid); method: CAPTUB:UFactor:8
Temperature, K	Viscosity, Pa*s	uncertainty
298.15	0.000601	3.2e-05
303.15	0.000562	3.1e-05
313.15	0.000493	2.8e-05
323.15	0.000436	2.5e-05
333.15	0.000389	2.3e-05
343.15	0.000354	2.2e-05

System: benzene; phases: Liquid
Fixed: Pressure, kPa = 101
Property: Mass density, kg/m3 (Liquid); method: VIBTUB:UFactor:16
Temperature, K	Mass density, kg/m3	uncertainty
298.15	873.57	1.29
303.15	868.24	1.33
313.15	857.34	1.39
323.15	846.59	1.46
333.15	835.75	1.53
343.15	824.98	1.6

System: toluene; phases: Liquid
Fixed: Pressure, kPa = 101
Property: Viscosity, Pa*s (Liquid); method: CAPTUB:UFactor:8
Temperature, K	Viscosity, Pa*s	uncertainty
298.15	0.000553	3e-05
303.15	0.000522	2.9e-05
313.15	0.000467	2.6e-05
323.15	0.000421	2.4e-05
333.15	0.000381	2.3e-05
343.15	0.000349	2.1e-05
353.15	0.000321	2e-05

System: toluene; phases: Liquid
Fixed: Pressure, kPa = 101
Property: Mass density, kg/m3 (Liquid); method: VIBTUB:UFactor:16
Temperature, K	Mass density, kg/m3	uncertainty
298.15	861.65	1.37
303.15	857.01	1.4
313.15	847.63	1.46
323.15	838.23	1.51
333.15	828.71	1.57
343.15	819.86	1.63
353.15	809.68	1.7

System: benzene + N-formylmorpholine; phases: Liquid
Fixed: Pressure, kPa = 101
Property: Viscosity, Pa*s (Liquid); method: CAPTUB:UFactor:8
Temperature, K	Mole fraction of benzene	Viscosity, Pa*s	uncertainty
298.15	0	0.007955	0.000309
298.15	0.0977	0.006078	0.000251
298.15	0.198	0.004597	0.000201
298.15	0.2987	0.003524	0.000156
298.15	0.4013	0.002656	0.00012
298.15	0.4983	0.002051	9.4e-05
298.15	0.599	0.001602	7.5e-05
298.15	0.6999	0.001234	5.9e-05
298.15	0.802	0.00096	4.8e-05
298.15	0.8967	0.00076	3.9e-05
298.15	1	0.000601	3.2e-05
303.15	0	0.006877	0.000276
303.15	0.0977	0.005251	0.000225
303.15	0.198	0.004028	0.000177
303.15	0.2987	0.003109	0.000139
303.15	0.4013	0.002376	0.000108
303.15	0.4983	0.001858	8.6e-05
303.15	0.599	0.001456	6.9e-05
303.15	0.6999	0.00113	5.5e-05
303.15	0.802	0.000884	4.4e-05
303.15	0.8967	0.000706	3.7e-05
303.15	1	0.000562	3.1e-05
313.15	0	0.005214	0.000224
313.15	0.0977	0.004059	0.000178
313.15	0.198	0.003174	0.000142
313.15	0.2987	0.002492	0.000113
313.15	0.4013	0.001946	9e-05
313.15	0.4983	0.001538	7.2e-05
313.15	0.599	0.001217	5.9e-05
313.15	0.6999	0.000962	4.8e-05
313.15	0.802	0.000759	3.9e-05
313.15	0.8967	0.000613	3.3e-05
313.15	1	0.000493	2.8e-05
323.15	0	0.00408	0.000179
323.15	0.0977	0.00323	0.000144
323.15	0.198	0.002568	0.000116
323.15	0.2987	0.002046	9.4e-05
323.15	0.4013	0.001614	7.6e-05
323.15	0.4983	0.001296	6.2e-05
323.15	0.599	0.001037	5.1e-05
323.15	0.6999	0.000826	4.2e-05
323.15	0.802	0.00066	3.5e-05
323.15	0.8967	0.000538	2.9e-05
323.15	1	0.000436	2.5e-05
333.15	0	0.003284	0.000146
333.15	0.0977	0.002636	0.000119
333.15	0.198	0.002124	9.7e-05
333.15	0.2987	0.001715	8e-05
333.15	0.4013	0.001371	6.5e-05
333.15	0.4983	0.00111	5.4e-05
333.15	0.599	0.000898	4.5e-05
333.15	0.6999	0.000721	3.7e-05
333.15	0.802	0.00054	3e-05
333.15	0.8967	0.000479	2.7e-05
333.15	1	0.000389	2.3e-05
343.15	0	0.002707	0.000122
343.15	0.0977	0.002201	0.000101
343.15	0.198	0.001798	8.3e-05
343.15	0.2987	0.001466	6.9e-05
343.15	0.4013	0.001183	5.7e-05
343.15	0.4983	0.000966	4.8e-05
343.15	0.599	0.000787	4e-05
343.15	0.6999	0.000637	3.4e-05
343.15	0.802	0.000518	2.9e-05
343.15	0.8967	0.000428	2.5e-05
343.15	1	0.000354	2.2e-05

System: benzene + N-formylmorpholine; phases: Liquid
Fixed: Pressure, kPa = 101
Property: Mass density, kg/m3 (Liquid); method: VIBTUB:UFactor:16
Temperature, K	Mole fraction of benzene	Mass density, kg/m3	uncertainty
298.15	0	1146.06	1.47
298.15	0.0977	1124.83	1.33
298.15	0.198	1101.75	1.18
298.15	0.2987	1077.06	1.02
298.15	0.4013	1051.67	0.85
298.15	0.4983	1027.35	0.69
298.15	0.599	1001.36	0.53
298.15	0.6999	970.18	0.7
298.15	0.802	938.33	0.9
298.15	0.8967	908.12	1.08
298.15	1	873.57	1.29
303.15	0	1141.7	1.45
303.15	0.0977	1120.44	1.3
303.15	0.198	1097.28	1.15
303.15	0.2987	1072.53	0.99
303.15	0.4013	1046.95	0.82
303.15	0.4983	1022.6	0.66
303.15	0.599	996.29	0.54
303.15	0.6999	965.22	0.73
303.15	0.802	933.24	0.93
303.15	0.8967	902.85	1.11
303.15	1	868.24	1.33
313.15	0	1132.96	1.39
313.15	0.0977	1111.6	1.25
313.15	0.198	1088.31	1.09
313.15	0.2987	1063.41	0.93
313.15	0.4013	1037.61	0.76
313.15	0.4983	1013.15	0.61
313.15	0.599	986.09	0.61
313.15	0.6999	955.16	0.79
313.15	0.802	922.97	0.99
313.15	0.8967	892.39	1.18
313.15	1	857.34	1.39
323.15	0	1124.33	1.34
323.15	0.0977	1102.85	1.19
323.15	0.198	1079.44	1.04
323.15	0.2987	1054.39	0.87
323.15	0.4013	1028.33	0.71
323.15	0.4983	1003.64	0.55
323.15	0.599	975.97	0.67
323.15	0.6999	945.02	0.86
323.15	0.802	912.7	1.06
323.15	0.8967	881.97	1.24
323.15	1	846.59	1.46
333.15	0	1115.63	1.28
333.15	0.0977	1094.03	1.14
333.15	0.198	1070.44	0.98
333.15	0.2987	1045.28	0.82
333.15	0.4013	1018.97	0.65
333.15	0.4983	993.97	0.56
333.15	0.599	966	0.73
333.15	0.6999	934.99	0.92
333.15	0.802	902.37	1.12
333.15	0.8967	871.42	1.31
333.15	1	835.75	1.53
343.15	0	1107.96	1.23
343.15	0.0977	1086.23	1.09
343.15	0.198	1062.45	0.93
343.15	0.2987	1037.1	0.77
343.15	0.4013	1010.54	0.59
343.15	0.4983	985.32	0.61
343.15	0.599	956.77	0.79
343.15	0.6999	925.78	0.98
343.15	0.802	892.86	1.18
343.15	0.8967	861.54	1.37
343.15	1	824.98	1.6

System: toluene + N-formylmorpholine; phases: Liquid
Fixed: Pressure, kPa = 101
Property: Viscosity, Pa*s (Liquid); method: CAPTUB:UFactor:8
Temperature, K	Mole fraction of toluene	Viscosity, Pa*s	uncertainty
298.15	0	0.007955	0.000309
298.15	0.0997	0.006045	0.00025
298.15	0.1857	0.004343	0.00019
298.15	0.2987	0.003106	0.000139
298.15	0.3979	0.002334	0.000106
298.15	0.4996	0.001769	8.2e-05
298.15	0.5993	0.001376	6.5e-05
298.15	0.701	0.001064	5.2e-05
298.15	0.8004	0.000846	4.3e-05
298.15	0.9	0.000681	3.6e-05
298.15	1	0.000553	3e-05
303.15	0	0.006877	0.000276
303.15	0.0997	0.005223	0.000224
303.15	0.1857	0.003824	0.000169
303.15	0.2987	0.002771	0.000125
303.15	0.3979	0.002116	9.7e-05
303.15	0.4996	0.001614	7.6e-05
303.15	0.5993	0.001261	6.1e-05
303.15	0.701	0.000994	4.9e-05
303.15	0.8004	0.00079	4e-05
303.15	0.9	0.000636	3.4e-05
303.15	1	0.000522	2.9e-05
313.15	0	0.005214	0.000224
313.15	0.0997	0.004037	0.000178
313.15	0.1857	0.003035	0.000136
313.15	0.2987	0.002248	0.000103
313.15	0.3979	0.001754	8.2e-05
313.15	0.4996	0.001323	6.3e-05
313.15	0.5993	0.001076	5.3e-05
313.15	0.701	0.000854	4.3e-05
313.15	0.8004	0.00069	3.6e-05
313.15	0.9	0.000569	3.1e-05
313.15	1	0.000467	2.6e-05
323.15	0	0.00408	0.000179
323.15	0.0997	0.003219	0.000143
323.15	0.1857	0.002475	0.000112
323.15	0.2987	0.001864	8.6e-05
323.15	0.3979	0.001471	7e-05
323.15	0.4996	0.00113	5.5e-05
323.15	0.5993	0.000929	4.6e-05
323.15	0.701	0.000747	3.8e-05
323.15	0.8004	0.000613	3.3e-05
323.15	0.9	0.000508	2.8e-05
323.15	1	0.000421	2.4e-05
333.15	0	0.003284	0.000146
333.15	0.0997	0.002622	0.000118
333.15	0.1857	0.002057	9.4e-05
333.15	0.2987	0.001576	7.4e-05
333.15	0.3979	0.001259	6e-05
333.15	0.4996	0.000979	4.8e-05
333.15	0.5993	0.000813	4.1e-05
333.15	0.701	0.00066	3.5e-05
333.15	0.8004	0.000544	3e-05
333.15	0.9	0.000453	2.6e-05
333.15	1	0.000381	2.3e-05
343.15	0	0.002707	0.000122
343.15	0.0997	0.002189	0.0001
343.15	0.1857	0.001748	8.1e-05
343.15	0.2987	0.001353	6.4e-05
343.15	0.3979	0.001096	5.3e-05
343.15	0.4996	0.000888	4.5e-05
343.15	0.5993	0.00072	3.7e-05
343.15	0.701	0.00059	3.2e-05
343.15	0.8004	0.00049	2.7e-05
343.15	0.9	0.000412	2.4e-05
343.15	1	0.000349	2.1e-05
353.15	0	0.002274	0.000104
353.15	0.0997	0.001804	8.4e-05
353.15	0.1857	0.001505	7.1e-05
353.15	0.2987	0.001179	5.7e-05
353.15	0.3979	0.00096	4.8e-05
353.15	0.4996	0.000791	4e-05
353.15	0.5993	0.000644	3.4e-05
353.15	0.701	0.000531	2.9e-05
353.15	0.8004	0.000444	2.5e-05
353.15	0.9	0.000377	2.3e-05
353.15	1	0.000321	2e-05

System: toluene + N-formylmorpholine; phases: Liquid
Fixed: Pressure, kPa = 101
Property: Mass density, kg/m3 (Liquid); method: VIBTUB:UFactor:16
Temperature, K	Mole fraction of toluene	Mass density, kg/m3	uncertainty
298.15	0	1146.06	1.47
298.15	0.0997	1118.85	1.3
298.15	0.1857	1095.98	1.14
298.15	0.2987	1064.62	0.94
298.15	0.3979	1036.62	0.76
298.15	0.4996	1007.87	0.57
298.15	0.5993	979.41	0.65
298.15	0.701	949.94	0.83
298.15	0.8004	920.72	1.01
298.15	0.9	891.62	1.18
298.15	1	861.65	1.37
303.15	0	1141.7	1.45
303.15	0.0997	1114.45	1.27
303.15	0.1857	1091.57	1.12
303.15	0.2987	1060.17	0.91
303.15	0.3979	1032.11	0.73
303.15	0.4996	1003.25	0.54
303.15	0.5993	974.76	0.68
303.15	0.701	945.23	0.86
303.15	0.8004	916.11	1.03
303.15	0.9	887	1.21
303.15	1	857.01	1.4
313.15	0	1132.96	1.39
313.15	0.0997	1105.62	1.21
313.15	0.1857	1082.68	1.06
313.15	0.2987	1051.22	0.85
313.15	0.3979	1022.87	0.67
313.15	0.4996	993.89	0.56
313.15	0.5993	965.36	0.73
313.15	0.701	935.9	0.91
313.15	0.8004	906.8	1.09
313.15	0.9	877.53	1.27
313.15	1	847.63	1.46
323.15	0	1124.33	1.34
323.15	0.0997	1096.88	1.16
323.15	0.1857	1073.89	1
323.15	0.2987	1042.33	0.8
323.15	0.3979	1013.75	0.61
323.15	0.4996	984.5	0.62
323.15	0.5993	955.91	0.79
323.15	0.701	926.58	0.97
323.15	0.8004	897.51	1.15
323.15	0.9	868.21	1.33
323.15	1	838.23	1.51
333.15	0	1115.63	1.28
333.15	0.0997	1088.08	1.1
333.15	0.1857	1065	0.95
333.15	0.2987	1033.38	0.74
333.15	0.3979	1004.52	0.56
333.15	0.4996	975.06	0.68
333.15	0.5993	946.52	0.85
333.15	0.701	917.23	1.03
333.15	0.8004	888.11	1.21
333.15	0.9	858.77	1.39
333.15	1	828.71	1.57
343.15	0	1107.96	1.23
343.15	0.0997	1080.32	1.05
343.15	0.1857	1057.15	0.9
343.15	0.2987	1025.32	0.69
343.15	0.3979	996.41	0.55
343.15	0.4996	966.84	0.73
343.15	0.5993	938.07	0.9
343.15	0.701	908.7	1.08
343.15	0.8004	879.44	1.26
343.15	0.9	850.05	1.44
343.15	1	819.86	1.63
353.15	0	1098.76	1.18
353.15	0.0997	1070.98	0.99
353.15	0.1857	1047.73	0.84
353.15	0.2987	1015.94	0.64
353.15	0.3979	986.63	0.61
353.15	0.4996	957.13	0.79
353.15	0.5993	928.16	0.97
353.15	0.701	898.81	1.15
353.15	0.8004	869.48	1.33
353.15	0.9	839.94	1.51
353.15	1	809.68	1.7
