Measured thermophysical data. Melting Point and Aqueous Solubility Determination of 2H-Hexadecafluoro-2-decenoic Acid (C10F16H2O2)
Source: J. Chem. Eng. Data, 2007, 10.1021/je0603628
Compound 1: 2H-hexadecafluoro-2-decenoic acid, C10H2F16O2, InChI=1S/C10H2F16O2/c11-2(1-3(27)28)4(12,13)5(14,15)6(16,17)7(18,19)8(20,21)9(22,23)10(24,25)26/h1H,(H,27,28)
Compound 2: water, H2O, InChI=1S/H2O/h1H2

System: 2H-hexadecafluoro-2-decenoic acid; phases: Crystal, Liquid, Air at 1 atmosphere
Property: Normal melting temperature, K (Crystal); method: VISOBS
Normal melting temperature, K	uncertainty
377.15	2

System: 2H-hexadecafluoro-2-decenoic acid; phases: Crystal, Liquid, Air at 1 atmosphere
Property: Normal melting temperature, K (Crystal); method: DTA
Normal melting temperature, K	uncertainty
378.15	2

System: water + 2H-hexadecafluoro-2-decenoic acid; phases: Liquid, Crystal
Property: Mass concentration, kg/m3 (Liquid); method: Chromatography
Temperature, K	Pressure, kPa	Mass concentration, kg/m3	uncertainty
295.15	101	0.064	0.005
