Measured thermophysical data. Thermophysical Properties of Binary Mixtures of 2-Methyl-1-propanol with Hexane, Octane, and Decane at 298.15 K
Source: J. Chem. Eng. Data, 2007, 10.1021/je060389r
Compound 1: 2-methyl-1-propanol, C4H10O, InChI=1S/C4H10O/c1-4(2)3-5/h4-5H,3H2,1-2H3, purity 99.5%
Compound 2: hexane, C6H14, InChI=1S/C6H14/c1-3-5-6-4-2/h3-6H2,1-2H3, purity 99.5%
Compound 3: octane, C8H18, InChI=1S/C8H18/c1-3-5-7-8-6-4-2/h3-8H2,1-2H3, purity 99.5%
Compound 4: decane, C10H22, InChI=1S/C10H22/c1-3-5-7-9-10-8-6-4-2/h3-10H2,1-2H3, purity 99.5%

System: 2-methyl-1-propanol; phases: Liquid
Property: Viscosity, Pa*s (Liquid); method: Capillary tube (Ostwald; Ubbelohde) method
Temperature, K	Pressure, kPa	Viscosity, Pa*s	uncertainty
298.15	101	0.003404	2.9e-05

System: 2-methyl-1-propanol; phases: Liquid
Property: Speed of sound, m/s (Liquid); method: Linear variable-path acoustic interferometer
Temperature, K	Pressure, kPa	Speed of sound, m/s	uncertainty
298.15	101	1191.35	9.63

System: 2-methyl-1-propanol; phases: Liquid
Property: Mass density, kg/m3 (Liquid); method: Pycnometric method
Temperature, K	Pressure, kPa	Mass density, kg/m3	uncertainty
298.15	101	798.2	0.4

System: hexane; phases: Liquid
Property: Viscosity, Pa*s (Liquid); method: Capillary tube (Ostwald; Ubbelohde) method
Temperature, K	Pressure, kPa	Viscosity, Pa*s	uncertainty
298.15	101	0.000313	1.2e-05

System: hexane; phases: Liquid
Property: Speed of sound, m/s (Liquid); method: Linear variable-path acoustic interferometer
Temperature, K	Pressure, kPa	Speed of sound, m/s	uncertainty
298.15	101	1078.5	8.73

System: hexane; phases: Liquid
Property: Mass density, kg/m3 (Liquid); method: Pycnometric method
Temperature, K	Pressure, kPa	Mass density, kg/m3	uncertainty
298.15	101	654.9	0.4

System: octane; phases: Liquid
Property: Viscosity, Pa*s (Liquid); method: Capillary tube (Ostwald; Ubbelohde) method
Temperature, K	Pressure, kPa	Viscosity, Pa*s	uncertainty
298.15	101	0.000518	1.3e-05

System: octane; phases: Liquid
Property: Speed of sound, m/s (Liquid); method: Linear variable-path acoustic interferometer
Temperature, K	Pressure, kPa	Speed of sound, m/s	uncertainty
298.15	101	1170.88	9.47

System: octane; phases: Liquid
Property: Mass density, kg/m3 (Liquid); method: Pycnometric method
Temperature, K	Pressure, kPa	Mass density, kg/m3	uncertainty
298.15	101	698.6	0.4

System: decane; phases: Liquid
Property: Viscosity, Pa*s (Liquid); method: Capillary tube (Ostwald; Ubbelohde) method
Temperature, K	Pressure, kPa	Viscosity, Pa*s	uncertainty
298.15	101	0.000845	1.3e-05

System: decane; phases: Liquid
Property: Speed of sound, m/s (Liquid); method: Linear variable-path acoustic interferometer
Temperature, K	Pressure, kPa	Speed of sound, m/s	uncertainty
298.15	101	1235.44	9.98

System: decane; phases: Liquid
Property: Mass density, kg/m3 (Liquid); method: Pycnometric method
Temperature, K	Pressure, kPa	Mass density, kg/m3	uncertainty
298.15	101	725.9	0.4

System: 2-methyl-1-propanol + hexane; phases: Liquid
Fixed: Temperature, K = 298.15
Fixed: Pressure, kPa = 101
Property: Viscosity, Pa*s (Liquid); method: Capillary tube (Ostwald; Ubbelohde) method
Mole fraction of 2-methyl-1-propanol	Viscosity, Pa*s	uncertainty
0	0.000313	1.2e-05
0.0554	0.000323	1.2e-05
0.104	0.000337	1.2e-05
0.2	0.000373	1.2e-05
0.3274	0.000462	1.2e-05
0.4173	0.000547	1.3e-05
0.4666	0.000606	1.3e-05
0.5057	0.000659	1.3e-05
0.5589	0.000748	1.3e-05
0.609	0.000859	1.3e-05
0.7073	0.001162	1.4e-05
0.8051	0.001627	1.7e-05
0.861	0.002004	1.9e-05
0.9149	0.002454	2.2e-05
0.9376	0.00267	2.3e-05
1	0.003404	2.9e-05

System: 2-methyl-1-propanol + hexane; phases: Liquid
Fixed: Temperature, K = 298.15
Fixed: Pressure, kPa = 101
Property: Speed of sound, m/s (Liquid); method: Linear variable-path acoustic interferometer
Mole fraction of 2-methyl-1-propanol	Speed of sound, m/s	uncertainty
0	1078.5	8.73
0.0554	1077.54	8.72
0.104	1077.48	8.72
0.2	1080.12	8.74
0.3274	1086.69	8.79
0.4173	1094.14	8.85
0.4666	1099.2	8.89
0.5057	1103.48	8.93
0.5589	1110.04	8.98
0.609	1116.92	9.04
0.7073	1132.47	9.16
0.8051	1150.02	9.3
0.861	1161.26	9.39
0.9149	1172.51	9.48
0.9376	1177.52	9.52
1	1191.35	9.63

System: 2-methyl-1-propanol + hexane; phases: Liquid
Fixed: Temperature, K = 298.15
Fixed: Pressure, kPa = 101
Property: Mass density, kg/m3 (Liquid); method: Pycnometric method
Mole fraction of 2-methyl-1-propanol	Mass density, kg/m3	uncertainty
0	654.9	0.4
0.0554	660.1	0.4
0.104	664.9	0.4
0.2	675.1	0.4
0.3274	690.1	0.4
0.4173	701.6	0.4
0.4666	708.3	0.4
0.5057	713.8	0.4
0.5589	721.5	0.4
0.609	729	0.4
0.7073	744.6	0.4
0.8051	761.2	0.4
0.861	771.2	0.4
0.9149	781.3	0.4
0.9376	785.7	0.4
1	798.2	0.4

System: 2-methyl-1-propanol + octane; phases: Liquid
Fixed: Temperature, K = 298.15
Fixed: Pressure, kPa = 101
Property: Viscosity, Pa*s (Liquid); method: Capillary tube (Ostwald; Ubbelohde) method
Mole fraction of 2-methyl-1-propanol	Viscosity, Pa*s	uncertainty
0	0.000518	1.3e-05
0.0589	0.000527	1.3e-05
0.1165	0.000535	1.3e-05
0.205	0.000576	1.3e-05
0.2792	0.000617	1.3e-05
0.3371	0.000663	1.3e-05
0.4081	0.000719	1.3e-05
0.4662	0.000788	1.3e-05
0.5126	0.00085	1.3e-05
0.6126	0.001028	1.4e-05
0.6615	0.001154	1.4e-05
0.7069	0.0013	1.5e-05
0.7855	0.001634	1.7e-05
0.8615	0.002102	1.9e-05
0.9523	0.002875	2.5e-05
1	0.003404	2.9e-05

System: 2-methyl-1-propanol + octane; phases: Liquid
Fixed: Temperature, K = 298.15
Fixed: Pressure, kPa = 101
Property: Speed of sound, m/s (Liquid); method: Linear variable-path acoustic interferometer
Mole fraction of 2-methyl-1-propanol	Speed of sound, m/s	uncertainty
0	1170.88	9.47
0.0589	1168.32	9.45
0.1165	1166.53	9.43
0.205	1164.78	9.42
0.2792	1163.96	9.41
0.3371	1163.07	9.41
0.4081	1162.72	9.4
0.4662	1163.28	9.41
0.5126	1163.72	9.41
0.6126	1166.33	9.43
0.6615	1168.4	9.45
0.7069	1170.05	9.46
0.7855	1173.55	9.49
0.8615	1178.62	9.53
0.9523	1187.04	9.6
1	1191.35	9.63

System: 2-methyl-1-propanol + octane; phases: Liquid
Fixed: Temperature, K = 298.15
Fixed: Pressure, kPa = 101
Property: Mass density, kg/m3 (Liquid); method: Pycnometric method
Mole fraction of 2-methyl-1-propanol	Mass density, kg/m3	uncertainty
0	698.6	0.4
0.0589	701.5	0.4
0.1165	704.5	0.4
0.205	709.8	0.4
0.2792	714.7	0.4
0.3371	718.9	0.4
0.4081	724.6	0.4
0.4662	729.6	0.4
0.5126	733.9	0.4
0.6126	744.1	0.4
0.6615	749.5	0.4
0.7069	754.9	0.4
0.7855	765	0.4
0.8615	775.8	0.4
0.9523	790.1	0.4
1	798.2	0.4

System: 2-methyl-1-propanol + decane; phases: Liquid
Fixed: Temperature, K = 298.15
Fixed: Pressure, kPa = 101
Property: Viscosity, Pa*s (Liquid); method: Capillary tube (Ostwald; Ubbelohde) method
Mole fraction of 2-methyl-1-propanol	Viscosity, Pa*s	uncertainty
0	0.000845	1.3e-05
0.0728	0.000848	1.3e-05
0.1021	0.000859	1.3e-05
0.2032	0.00089	1.3e-05
0.2976	0.000934	1.4e-05
0.3547	0.000976	1.4e-05
0.4171	0.001023	1.4e-05
0.5016	0.001119	1.4e-05
0.6084	0.001297	1.5e-05
0.6575	0.001415	1.6e-05
0.7027	0.001543	1.6e-05
0.8004	0.001942	1.8e-05
0.8952	0.002503	2.2e-05
0.9497	0.002928	2.5e-05
0.9848	0.003249	2.8e-05
1	0.003404	2.9e-05

System: 2-methyl-1-propanol + decane; phases: Liquid
Fixed: Temperature, K = 298.15
Fixed: Pressure, kPa = 101
Property: Speed of sound, m/s (Liquid); method: Linear variable-path acoustic interferometer
Mole fraction of 2-methyl-1-propanol	Speed of sound, m/s	uncertainty
0	1235.44	9.98
0.0728	1228.67	9.93
0.1021	1226.63	9.91
0.2032	1219.92	9.86
0.2976	1215.18	9.82
0.3547	1212.24	9.8
0.4171	1209.44	9.78
0.5016	1206.13	9.75
0.6084	1201.81	9.72
0.6575	1200.16	9.7
0.7027	1198.37	9.69
0.8004	1195.1	9.66
0.8952	1192.92	9.64
0.9497	1191.98	9.64
0.9848	1191.78	9.63
1	1191.35	9.63

System: 2-methyl-1-propanol + decane; phases: Liquid
Fixed: Temperature, K = 298.15
Fixed: Pressure, kPa = 101
Property: Mass density, kg/m3 (Liquid); method: Pycnometric method
Mole fraction of 2-methyl-1-propanol	Mass density, kg/m3	uncertainty
0	725.9	0.4
0.0728	728.1	0.4
0.1021	729	0.4
0.2032	732.6	0.4
0.2976	736.4	0.4
0.3547	739	0.4
0.4171	742.1	0.4
0.5016	747	0.4
0.6084	754.2	0.4
0.6575	758	0.4
0.7027	761.9	0.4
0.8004	771.6	0.4
0.8952	782.9	0.4
0.9497	790.5	0.4
0.9848	795.8	0.4
1	798.2	0.4
