Measured thermophysical data. Vapor Pressure of Solid Bis(2-chloroethyl) Sulfide
Source: J. Chem. Eng. Data, 2006, 10.1021/je060077o
Compound 1: bis(2-chloroethyl) sulfide, C4H8Cl2S, InChI=1S/C4H8Cl2S/c5-1-3-7-4-2-6/h1-4H2, purity 98.5%

System: bis(2-chloroethyl) sulfide; phases: Crystal, Gas
Property: Vapor or sublimation pressure, kPa (Crystal); method: TRANSPIR:UFactor:2
Temperature, K	Vapor or sublimation pressure, kPa	uncertainty
248.15	2.77e-05	3.2e-06
253.15	5.6e-05	6.1e-06
258.15	0.000118	1.3e-05
263.15	0.000241	2.5e-05
268.15	0.00049	5.1e-05
273.15	0.000984	0.000102
278.15	0.00186	0.00019
283.15	0.00334	0.00034
286.15	0.00481	0.00049

System: bis(2-chloroethyl) sulfide; phases: Liquid, Gas
Property: Vapor or sublimation pressure, kPa (Liquid); method: TRANSPIR:UFactor:2
Temperature, K	Vapor or sublimation pressure, kPa	uncertainty
288.15	0.00604	0.00062
293.15	0.00912	0.00092
