Measured thermophysical data. Solubility of Xylitol in Ethanol, Acetone, N,N-Dimethylformamide, 1-Butanol, 1-Pentanol, Toluene, 2-Propanol, and Water
Source: J. Chem. Eng. Data, 2007, 10.1021/je060348v
Compound 1: xylitol, C5H12O5, InChI=1S/C5H12O5/c6-1-3(8)5(10)4(9)2-7/h3-10H,1-2H2/t3-,4+,5+
Compound 2: ethanol, C2H6O, InChI=1S/C2H6O/c1-2-3/h3H,2H2,1H3
Compound 3: acetone, C3H6O, InChI=1S/C3H6O/c1-3(2)4/h1-2H3
Compound 4: dimethylformamide, C3H7NO, InChI=1S/C3H7NO/c1-4(2)3-5/h3H,1-2H3
Compound 5: butan-1-ol, C4H10O, InChI=1S/C4H10O/c1-2-3-4-5/h5H,2-4H2,1H3
Compound 6: pentan-1-ol, C5H12O, InChI=1S/C5H12O/c1-2-3-4-5-6/h6H,2-5H2,1H3
Compound 7: toluene, C7H8, InChI=1S/C7H8/c1-7-5-3-2-4-6-7/h2-6H,1H3
Compound 8: propan-2-ol, C3H8O, InChI=1S/C3H8O/c1-3(2)4/h3-4H,1-2H3
Compound 9: water, H2O, InChI=1S/H2O/h1H2, purity 99.9%

System: xylitol; phases: Crystal, Liquid, Air at 1 atmosphere
Property: Normal melting temperature, K (Crystal); method: VISOBS
Normal melting temperature, K	uncertainty
367.65	1

System: ethanol + xylitol; phases: Liquid, Crystal
Fixed: Pressure, kPa = 101
Property: Mole fraction of xylitol (Liquid); method: laser method
Temperature, K	Mole fraction of xylitol	uncertainty
293.23	0.001728	1.7e-05
298.28	0.002419	2.4e-05
303.17	0.003091	3.1e-05
308.21	0.003974	4e-05
313.19	0.005224	5.2e-05
318.29	0.00709	7.1e-05
323.24	0.009657	9.7e-05
328.19	0.01315	0.000132
333.22	0.01785	0.00018

System: acetone + xylitol; phases: Liquid, Crystal
Fixed: Pressure, kPa = 101
Property: Mole fraction of xylitol (Liquid); method: laser method
Temperature, K	Mole fraction of xylitol	uncertainty
293.29	0.0002026	1.6e-06
298.18	0.0002401	1.9e-06
303.26	0.000304	2.4e-06
308.22	0.0004011	3.2e-06
313.2	0.0005433	4.3e-06
318.23	0.0007428	5.8e-06
323.2	0.0010053	7.9e-06

System: dimethylformamide + xylitol; phases: Liquid, Crystal
Fixed: Pressure, kPa = 101
Property: Mole fraction of xylitol (Liquid); method: laser method
Temperature, K	Mole fraction of xylitol	uncertainty
293.21	0.04111	0.00027
298.29	0.05042	0.00033
303.26	0.06088	0.0004
308.24	0.07359	0.0005
313.22	0.08946	0.00061
318.32	0.1099	0.00077
323.2	0.1344	0.00097
328.24	0.1656	0.00124
333.27	0.2037	0.0016

System: butan-1-ol + xylitol; phases: Liquid, Crystal
Fixed: Pressure, kPa = 101
Property: Mole fraction of xylitol (Liquid); method: laser method
Temperature, K	Mole fraction of xylitol	uncertainty
293.16	0.001128	7e-06
298.21	0.001542	1e-05
303.26	0.002117	1.3e-05
308.27	0.002682	1.7e-05
313.22	0.003422	2.1e-05
318.16	0.004425	2.7e-05
323.23	0.005883	3.6e-05
328.32	0.007983	5e-05
333.24	0.01086	6.8e-05
338.22	0.01456	9.1e-05
343.76	0.01942	0.000122

System: pentan-1-ol + xylitol; phases: Liquid, Crystal
Fixed: Pressure, kPa = 101
Property: Mole fraction of xylitol (Liquid); method: laser method
Temperature, K	Mole fraction of xylitol	uncertainty
293.2	0.000298	1.5e-06
298.18	0.000483	2.5e-06
303.26	0.0007339	3.8e-06
308.29	0.001009	5e-06
313.19	0.001364	7e-06
318.24	0.001885	1e-05
323.29	0.002629	1.4e-05
328.23	0.003636	1.9e-05
333.22	0.004998	2.6e-05
338.33	0.006817	3.6e-05
343.24	0.009034	4.7e-05

System: xylitol + toluene; phases: Liquid, Crystal
Fixed: Pressure, kPa = 101
Property: Mole fraction of xylitol (Liquid); method: laser method
Temperature, K	Mole fraction of xylitol	uncertainty
293.26	3.99e-05	2e-07
298.28	4.18e-05	2e-07
303.19	4.52e-05	2e-07
308.17	5e-05	3e-07
313.23	5.63e-05	3e-07
318.33	6.42e-05	3e-07
323.21	7.31e-05	4e-07
328.22	8.37e-05	4e-07
333.3	9.6e-05	5e-07
338.16	0.0001091	5e-07
343.19	0.0001241	6e-07

System: propan-2-ol + xylitol; phases: Liquid, Crystal
Fixed: Pressure, kPa = 101
Property: Mole fraction of xylitol (Liquid); method: laser method
Temperature, K	Mole fraction of xylitol	uncertainty
293.28	0.001128	9e-06
298.2	0.001542	1.2e-05
303.23	0.002117	1.6e-05
308.19	0.002682	2e-05
313.32	0.003422	2.6e-05
318.21	0.004425	3.4e-05
323.16	0.005883	4.5e-05
328.21	0.007983	6.1e-05
333.27	0.01086	8e-05
338.19	0.01456	0.00011
343.23	0.01942	0.00015

System: xylitol + water; phases: Liquid, Crystal
Fixed: Pressure, kPa = 101
Property: Mole fraction of xylitol (Liquid); method: laser method
Temperature, K	Mole fraction of xylitol	uncertainty
293.28	0.1619	0.0049
298.3	0.1797	0.0056
303.17	0.2031	0.0065
308.21	0.2324	0.0077
313.29	0.2661	0.0092
318.26	0.3017	0.0109
323.25	0.3391	0.013
328.21	0.3766	0.0153
