Measured thermophysical data. Solid-Liquid Equilibrium of Binary Fatty Acid Mixtures
Source: J. Chem. Eng. Data, 2007, 10.1021/je060146z
Compound 1: decanoic acid, C10H20O2, InChI=1S/C10H20O2/c1-2-3-4-5-6-7-8-9-10(11)12/h2-9H2,1H3,(H,11,12)
Compound 2: dodecanoic acid, C12H24O2, InChI=1S/C12H24O2/c1-2-3-4-5-6-7-8-9-10-11-12(13)14/h2-11H2,1H3,(H,13,14)
Compound 3: tetradecanoic acid, C14H28O2, InChI=1S/C14H28O2/c1-2-3-4-5-6-7-8-9-10-11-12-13-14(15)16/h2-13H2,1H3,(H,15,16)
Compound 4: hexadecanoic acid, C16H32O2, InChI=1S/C16H32O2/c1-2-3-4-5-6-7-8-9-10-11-12-13-14-15-16(17)18/h2-15H2,1H3,(H,17,18)
Compound 5: octadecanoic acid, C18H36O2, InChI=1S/C18H36O2/c1-2-3-4-5-6-7-8-9-10-11-12-13-14-15-16-17-18(19)20/h2-17H2,1H3,(H,19,20)

System: decanoic acid; phases: Crystal, Liquid, Air at 1 atmosphere
Property: Normal melting temperature, K (Crystal); method: DTA:UFactor:3
Normal melting temperature, K	uncertainty
304.42	1.16

System: dodecanoic acid; phases: Crystal, Liquid, Air at 1 atmosphere
Property: Normal melting temperature, K (Crystal); method: DTA:UFactor:3
Normal melting temperature, K	uncertainty
316.94	1.16

System: tetradecanoic acid; phases: Crystal, Liquid, Air at 1 atmosphere
Property: Normal melting temperature, K (Crystal); method: DTA:UFactor:3
Normal melting temperature, K	uncertainty
327.48	1.16

System: hexadecanoic acid; phases: Crystal, Liquid, Air at 1 atmosphere
Property: Normal melting temperature, K (Crystal); method: DTA:UFactor:3
Normal melting temperature, K	uncertainty
335.44	1.16

System: octadecanoic acid; phases: Crystal, Liquid, Air at 1 atmosphere
Property: Normal melting temperature, K (Crystal); method: DTA:UFactor:3
Normal melting temperature, K	uncertainty
341.91	1.16

System: dodecanoic acid + decanoic acid; phases: Liquid, Crystal of intercomponent compound 1
Fixed: Pressure, kPa = 101
Property: Solid-liquid equilibrium temperature, K (Liquid); method: DTA:UFactor:3
Mole fraction of decanoic acid	Solid-liquid equilibrium temperature, K	uncertainty
0.553	296.77	1.16
0.5989	296.31	1.16
0.6529	295.33	1.16
0.7001	294.75	1.16

System: dodecanoic acid + decanoic acid; phases: Liquid, Crystal
Fixed: Pressure, kPa = 101
Property: Solid-liquid equilibrium temperature, K (Liquid); method: DTA:UFactor:3
Mole fraction of decanoic acid	Solid-liquid equilibrium temperature, K	uncertainty
0	316.94	1.16
0.101	314.86	1.16
0.1993	311.94	1.16
0.2999	308.8	1.16
0.4001	304.61	1.16
0.4457	302.8	1.16
0.5002	299.06	1.16

System: dodecanoic acid + decanoic acid; phases: Liquid, Crystal
Fixed: Pressure, kPa = 101
Property: Solid-liquid equilibrium temperature, K (Liquid); method: DTA:UFactor:3
Mole fraction of decanoic acid	Solid-liquid equilibrium temperature, K	uncertainty
0.7516	294.35	1.16
0.7998	298.15	1.16
0.9	301.94	1.16
1	304.42	1.16

System: decanoic acid + tetradecanoic acid; phases: Liquid, Crystal of intercomponent compound 1
Fixed: Pressure, kPa = 101
Property: Solid-liquid equilibrium temperature, K (Liquid); method: DTA:UFactor:3
Mole fraction of decanoic acid	Solid-liquid equilibrium temperature, K	uncertainty
0.6996	300.26	1.16
0.7992	296.78	1.16

System: decanoic acid + tetradecanoic acid; phases: Liquid, Crystal
Fixed: Pressure, kPa = 101
Property: Solid-liquid equilibrium temperature, K (Liquid); method: DTA:UFactor:3
Mole fraction of decanoic acid	Solid-liquid equilibrium temperature, K	uncertainty
0	327.48	1.16
0.0986	325.01	1.16
0.1968	322.49	1.16
0.2997	319.72	1.16
0.3985	316.49	1.16
0.4979	312.27	1.16
0.5986	307.94	1.16
0.649	305.12	1.16

System: decanoic acid + tetradecanoic acid; phases: Liquid, Crystal
Fixed: Pressure, kPa = 101
Property: Solid-liquid equilibrium temperature, K (Liquid); method: DTA:UFactor:3
Mole fraction of decanoic acid	Solid-liquid equilibrium temperature, K	uncertainty
0.8475	298.2	1.16
0.9013	301.1	1.16
0.9503	302.31	1.16
1	304.42	1.16

System: hexadecanoic acid + decanoic acid; phases: Liquid, Crystal
Fixed: Pressure, kPa = 101
Property: Solid-liquid equilibrium temperature, K (Liquid); method: DTA:UFactor:3
Mole fraction of decanoic acid	Solid-liquid equilibrium temperature, K	uncertainty
0	335.44	1.16
0.1207	332.87	1.16
0.1981	331.23	1.16
0.2993	328.87	1.16
0.3991	326.06	1.16
0.5032	322.75	1.16
0.5998	320.07	1.16
0.7043	313.38	1.16
0.7496	310.15	1.16
0.7937	304.68	1.16
0.8484	299.28	1.16

System: hexadecanoic acid + decanoic acid; phases: Liquid, Crystal
Fixed: Pressure, kPa = 101
Property: Solid-liquid equilibrium temperature, K (Liquid); method: DTA:UFactor:3
Mole fraction of decanoic acid	Solid-liquid equilibrium temperature, K	uncertainty
0.9009	300.2	1.16
0.9502	303.08	1.16
1	304.42	1.16

System: octadecanoic acid + decanoic acid; phases: Liquid, Crystal
Fixed: Pressure, kPa = 101
Property: Solid-liquid equilibrium temperature, K (Liquid); method: DTA:UFactor:3
Mole fraction of decanoic acid	Solid-liquid equilibrium temperature, K	uncertainty
0	341.91	1.16
0.1013	340.66	1.16
0.1989	338.62	1.16
0.2967	336.62	1.16
0.395	334.28	1.16
0.5032	330.81	1.16
0.5972	327.79	1.16
0.7044	324.43	1.16
0.8012	317.93	1.16
0.9002	305.78	1.16

System: octadecanoic acid + decanoic acid; phases: Liquid, Crystal
Fixed: Pressure, kPa = 101
Property: Solid-liquid equilibrium temperature, K (Liquid); method: DTA:UFactor:3
Mole fraction of decanoic acid	Solid-liquid equilibrium temperature, K	uncertainty
0.95	301.72	1.16
1	304.42	1.16

System: dodecanoic acid + tetradecanoic acid; phases: Liquid, Crystal of intercomponent compound 1
Fixed: Pressure, kPa = 101
Property: Solid-liquid equilibrium temperature, K (Liquid); method: DTA:UFactor:3
Mole fraction of dodecanoic acid	Solid-liquid equilibrium temperature, K	uncertainty
0.6002	310.42	1.16
0.65	309.68	1.16
0.7001	308.85	1.16

System: dodecanoic acid + tetradecanoic acid; phases: Liquid, Crystal
Fixed: Pressure, kPa = 101
Property: Solid-liquid equilibrium temperature, K (Liquid); method: DTA:UFactor:3
Mole fraction of dodecanoic acid	Solid-liquid equilibrium temperature, K	uncertainty
0	327.48	1.16
0.1004	325.72	1.16
0.1997	323.24	1.16
0.3002	319.37	1.16
0.4001	316.37	1.16
0.5002	310.96	1.16

System: dodecanoic acid + tetradecanoic acid; phases: Liquid, Crystal
Fixed: Pressure, kPa = 101
Property: Solid-liquid equilibrium temperature, K (Liquid); method: DTA:UFactor:3
Mole fraction of dodecanoic acid	Solid-liquid equilibrium temperature, K	uncertainty
0.7996	310.61	1.16
0.8996	315.03	1.16
1	316.94	1.16

System: hexadecanoic acid + dodecanoic acid; phases: Liquid, Crystal of intercomponent compound 1
Fixed: Pressure, kPa = 101
Property: Solid-liquid equilibrium temperature, K (Liquid); method: DTA:UFactor:3
Mole fraction of dodecanoic acid	Solid-liquid equilibrium temperature, K	uncertainty
0.6998	313.89	1.16
0.7998	310.44	1.16

System: hexadecanoic acid + dodecanoic acid; phases: Liquid, Crystal
Fixed: Pressure, kPa = 101
Property: Solid-liquid equilibrium temperature, K (Liquid); method: DTA:UFactor:3
Mole fraction of dodecanoic acid	Solid-liquid equilibrium temperature, K	uncertainty
0	335.44	1.16
0.1001	333.95	1.16
0.2	331.76	1.16
0.3	329.19	1.16
0.4	326.06	1.16
0.5	321.88	1.16
0.5999	314.39	1.16

System: hexadecanoic acid + dodecanoic acid; phases: Liquid, Crystal
Fixed: Pressure, kPa = 101
Property: Solid-liquid equilibrium temperature, K (Liquid); method: DTA:UFactor:3
Mole fraction of dodecanoic acid	Solid-liquid equilibrium temperature, K	uncertainty
0.8481	310.64	1.16
0.8968	313.5	1.16
1	316.94	1.16

System: octadecanoic acid + dodecanoic acid; phases: Liquid, Crystal
Fixed: Pressure, kPa = 101
Property: Solid-liquid equilibrium temperature, K (Liquid); method: DTA:UFactor:3
Mole fraction of dodecanoic acid	Solid-liquid equilibrium temperature, K	uncertainty
0	341.91	1.16
0.1003	341.47	1.16
0.1994	339.38	1.16
0.2999	337.16	1.16
0.4005	334.86	1.16
0.4999	331.93	1.16
0.6007	328.53	1.16
0.7002	322.13	1.16
0.7999	316.17	1.16
0.8485	312.31	1.16

System: octadecanoic acid + dodecanoic acid; phases: Liquid, Crystal
Fixed: Pressure, kPa = 101
Property: Solid-liquid equilibrium temperature, K (Liquid); method: DTA:UFactor:3
Mole fraction of dodecanoic acid	Solid-liquid equilibrium temperature, K	uncertainty
0.8999	313.04	1.16
0.9499	316.23	1.16
1	316.94	1.16
