Measured thermophysical data. Densities and Surface Tensions of Trimethylbenzene + Dimethyl Carbonate or + Diethyl Carbonate at 298.15 K and 313.15 K
Source: J. Chem. Eng. Data, 2006, 10.1021/je060137q
Compound 1: dimethyl carbonate, C3H6O3, InChI=1S/C3H6O3/c1-5-3(4)6-2/h1-2H3, purity 99.57%
Compound 2: diethyl carbonate, C5H10O3, InChI=1S/C5H10O3/c1-3-7-5(6)8-4-2/h3-4H2,1-2H3, purity 99.79%
Compound 3: 1,2,4-trimethylbenzene, C9H12, InChI=1S/C9H12/c1-7-4-5-8(2)9(3)6-7/h4-6H,1-3H3, purity 99.2%
Compound 4: 1,3,5-trimethylbenzene, C9H12, InChI=1S/C9H12/c1-7-4-8(2)6-9(3)5-7/h4-6H,1-3H3, purity 99.3%

System: dimethyl carbonate; phases: Liquid
Fixed: Pressure, kPa = 101
Property: Mass density, kg/m3 (Liquid); method: VIBTUB:UFactor:4
Temperature, K	Mass density, kg/m3	uncertainty
298.15	1062.97	0.32
313.15	1044.63	0.3

System: diethyl carbonate; phases: Liquid
Fixed: Pressure, kPa = 101
Property: Mass density, kg/m3 (Liquid); method: VIBTUB:UFactor:4
Temperature, K	Mass density, kg/m3	uncertainty
298.15	969.12	0.21
313.15	952.15	0.23

System: 1,2,4-trimethylbenzene; phases: Liquid, Air at 1 atmosphere
Property: Surface tension liquid-gas, N/m (Liquid); method: Pendant drop shape
Temperature, K	Surface tension liquid-gas, N/m	uncertainty
298.15	0.02929	0.00033
313.15	0.02767	0.00031

System: 1,2,4-trimethylbenzene; phases: Liquid
Fixed: Pressure, kPa = 101
Property: Mass density, kg/m3 (Liquid); method: VIBTUB:UFactor:4
Temperature, K	Mass density, kg/m3	uncertainty
298.15	871.64	0.48
313.15	859.5	0.49

System: 1,3,5-trimethylbenzene; phases: Liquid, Air at 1 atmosphere
Property: Surface tension liquid-gas, N/m (Liquid); method: Pendant drop shape
Temperature, K	Surface tension liquid-gas, N/m	uncertainty
298.15	0.02809	0.00031
313.15	0.02682	0.0003

System: 1,3,5-trimethylbenzene; phases: Liquid
Fixed: Pressure, kPa = 101
Property: Mass density, kg/m3 (Liquid); method: VIBTUB:UFactor:4
Temperature, K	Mass density, kg/m3	uncertainty
298.15	861.04	0.46
313.15	848.73	0.47

System: 1,2,4-trimethylbenzene + dimethyl carbonate; phases: Liquid, Air at 1 atmosphere
Property: Surface tension liquid-gas, N/m (Liquid); method: Pendant drop shape
Temperature, K	Mole fraction of dimethyl carbonate	Surface tension liquid-gas, N/m	uncertainty
298.15	0	0.02929	0.00033
298.15	0.0999	0.02893	0.00032
298.15	0.2	0.02864	0.00032
298.15	0.3001	0.02834	0.00031
298.15	0.4001	0.02821	0.00031
298.15	0.5	0.02808	0.00031
313.15	0	0.02767	0.00031
313.15	0.1008	0.02723	0.00031
313.15	0.1999	0.02682	0.0003
313.15	0.2996	0.02651	0.0003
313.15	0.3991	0.02629	0.00029
313.15	0.5	0.02611	0.00029

System: 1,2,4-trimethylbenzene + dimethyl carbonate; phases: Liquid
Fixed: Pressure, kPa = 101
Property: Mass density, kg/m3 (Liquid); method: VIBTUB:UFactor:4
Mole fraction of dimethyl carbonate	Temperature, K	Mass density, kg/m3	uncertainty
0	298.15	871.64	0.48
0	313.15	859.5	0.49
0.0499	298.15	876.93	0.47
0.0505	313.15	864.72	0.48
0.0999	298.15	882.55	0.46
0.1012	313.15	870.23	0.47
0.15	298.15	888.53	0.45
0.15	313.15	875.75	0.46
0.2	298.15	894.76	0.44
0.2008	313.15	881.92	0.45
0.2491	313.15	887.96	0.44
0.2498	298.15	901.22	0.43
0.2995	298.15	908.07	0.42
0.3003	313.15	894.87	0.43
0.3498	313.15	901.76	0.42
0.3502	298.15	915.53	0.41
0.4001	298.15	923.26	0.39
0.401	313.15	909.43	0.4
0.45	298.15	931.35	0.39
0.4509	313.15	917.26	0.39
0.5	298.15	939.96	0.38
0.5008	313.15	925.59	0.38
0.55	298.15	949.04	0.36
0.5507	313.15	934.32	0.37
0.5998	298.15	958.57	0.35
0.5998	313.15	943.46	0.36
0.65	298.15	968.9	0.34
0.65	313.15	953.33	0.35
0.6995	313.15	963.85	0.33
0.6999	298.15	979.71	0.33
0.7497	298.15	991.22	0.31
0.7505	313.15	975.23	0.32
0.7994	313.15	986.99	0.3
0.7997	298.15	1003.68	0.3
0.8501	298.15	1017.1	0.3
0.8502	313.15	1000	0.29
0.8976	313.15	1013.08	0.29
0.8999	298.15	1031.25	0.31
0.9498	298.15	1046.57	0.31
0.9504	313.15	1028.72	0.3
1	298.15	1062.97	0.32
1	313.15	1044.63	0.3

System: 1,3,5-trimethylbenzene + dimethyl carbonate; phases: Liquid, Air at 1 atmosphere
Property: Surface tension liquid-gas, N/m (Liquid); method: Pendant drop shape
Temperature, K	Mole fraction of dimethyl carbonate	Surface tension liquid-gas, N/m	uncertainty
298.15	0	0.02809	0.00031
298.15	0.1048	0.02791	0.00031
298.15	0.1998	0.0276	0.0003
298.15	0.3001	0.02743	0.0003
298.15	0.3999	0.02732	0.0003
298.15	0.4999	0.02734	0.0003
313.15	0	0.02682	0.0003
313.15	0.1009	0.02642	0.0003
313.15	0.1994	0.02604	0.00029
313.15	0.2996	0.0258	0.00029
313.15	0.4016	0.02563	0.00029
313.15	0.5004	0.02555	0.00028

System: 1,3,5-trimethylbenzene + dimethyl carbonate; phases: Liquid
Fixed: Pressure, kPa = 101
Property: Mass density, kg/m3 (Liquid); method: VIBTUB:UFactor:4
Mole fraction of dimethyl carbonate	Temperature, K	Mass density, kg/m3	uncertainty
0	298.15	861.04	0.46
0	313.15	848.73	0.47
0.0505	313.15	854.19	0.46
0.054	298.15	867.08	0.45
0.1046	313.15	860.31	0.45
0.1048	298.15	872.95	0.44
0.15	313.15	865.69	0.44
0.1518	298.15	878.8	0.43
0.1998	298.15	885.1	0.42
0.2007	313.15	872.13	0.43
0.2489	313.15	878.45	0.42
0.2491	298.15	891.85	0.41
0.2985	313.15	885.42	0.41
0.3001	298.15	899.28	0.4
0.3496	298.15	906.77	0.39
0.35	313.15	892.95	0.4
0.3983	313.15	900.54	0.39
0.4001	298.15	914.84	0.38
0.4498	313.15	908.93	0.38
0.4499	298.15	923.32	0.37
0.4999	298.15	932.32	0.36
0.5001	313.15	917.76	0.37
0.5492	313.15	926.76	0.36
0.5508	298.15	942.03	0.35
0.5977	298.15	951.57	0.34
0.5999	313.15	936.76	0.35
0.6488	298.15	962.47	0.33
0.6488	313.15	946.86	0.34
0.6992	313.15	958.18	0.33
0.7	298.15	974.17	0.32
0.7489	313.15	969.98	0.31
0.7514	298.15	986.83	0.3
0.7995	313.15	982.91	0.3
0.7999	298.15	999.6	0.29
0.8479	313.15	996.11	0.29
0.85	298.15	1013.67	0.3
0.8997	313.15	1011.33	0.29
0.8999	298.15	1028.84	0.3
0.9499	298.15	1045.18	0.31
0.9501	313.15	1027.37	0.29
1	298.15	1062.97	0.32
1	313.15	1044.63	0.3

System: 1,2,4-trimethylbenzene + diethyl carbonate; phases: Liquid, Air at 1 atmosphere
Property: Surface tension liquid-gas, N/m (Liquid); method: Pendant drop shape
Temperature, K	Mole fraction of diethyl carbonate	Surface tension liquid-gas, N/m	uncertainty
298.15	0	0.02929	0.00033
298.15	0.1005	0.02885	0.00032
298.15	0.1994	0.02841	0.00031
298.15	0.2998	0.02798	0.00031
298.15	0.4001	0.02758	0.0003
298.15	0.5	0.02723	0.0003
313.15	0	0.02767	0.00031
313.15	0.1	0.02716	0.0003
313.15	0.2002	0.02669	0.0003
313.15	0.3005	0.02623	0.00029
313.15	0.3997	0.02581	0.00029
313.15	0.5001	0.02549	0.00028

System: 1,2,4-trimethylbenzene + diethyl carbonate; phases: Liquid
Fixed: Pressure, kPa = 101
Property: Mass density, kg/m3 (Liquid); method: VIBTUB:UFactor:4
Mole fraction of diethyl carbonate	Temperature, K	Mass density, kg/m3	uncertainty
0	298.15	871.64	0.48
0	313.15	859.5	0.49
0.0501	298.15	875.81	0.47
0.0508	313.15	863.46	0.48
0.1005	298.15	880.1	0.45
0.1005	313.15	867.43	0.46
0.1486	313.15	871.36	0.45
0.1497	298.15	884.28	0.44
0.1994	298.15	888.62	0.43
0.2012	313.15	875.71	0.44
0.2507	313.15	879.88	0.43
0.2518	298.15	893.23	0.41
0.2998	298.15	897.55	0.4
0.3007	313.15	884.17	0.41
0.3499	298.15	902.17	0.39
0.352	313.15	888.61	0.4
0.4004	298.15	906.89	0.37
0.4006	313.15	892.94	0.39
0.4496	298.15	911.54	0.36
0.4499	313.15	897.37	0.38
0.4981	313.15	901.79	0.36
0.5	298.15	916.38	0.35
0.5494	298.15	921.22	0.33
0.5498	313.15	906.6	0.35
0.597	313.15	911.06	0.34
0.5997	298.15	926.24	0.32
0.6481	313.15	915.93	0.32
0.6497	298.15	931.3	0.31
0.699	313.15	920.93	0.31
0.6998	298.15	936.41	0.29
0.7499	313.15	925.98	0.29
0.7505	298.15	941.72	0.28
0.8001	298.15	947	0.27
0.8002	313.15	931.06	0.28
0.8473	313.15	935.87	0.27
0.8499	298.15	952.36	0.25
0.9	298.15	957.82	0.24
0.9001	313.15	941.45	0.26
0.9499	313.15	946.74	0.24
0.95	298.15	963.45	0.23
1	298.15	969.12	0.21
1	313.15	952.15	0.23

System: diethyl carbonate + 1,3,5-trimethylbenzene; phases: Liquid, Air at 1 atmosphere
Property: Surface tension liquid-gas, N/m (Liquid); method: Pendant drop shape
Temperature, K	Mole fraction of diethyl carbonate	Surface tension liquid-gas, N/m	uncertainty
298.15	0	0.02809	0.00031
298.15	0.1	0.02771	0.00031
298.15	0.1999	0.02737	0.0003
298.15	0.2999	0.02701	0.0003
298.15	0.3999	0.02676	0.00029
298.15	0.5006	0.02656	0.00029
313.15	0	0.02682	0.0003
313.15	0.0997	0.02636	0.00029
313.15	0.1995	0.02595	0.00029
313.15	0.2997	0.02557	0.00028
313.15	0.4001	0.02522	0.00028
313.15	0.5001	0.02493	0.00028

System: diethyl carbonate + 1,3,5-trimethylbenzene; phases: Liquid
Fixed: Pressure, kPa = 101
Property: Mass density, kg/m3 (Liquid); method: VIBTUB:UFactor:4
Mole fraction of diethyl carbonate	Temperature, K	Mass density, kg/m3	uncertainty
0	298.15	861.04	0.46
0	313.15	848.73	0.47
0.05	298.15	865.43	0.45
0.0502	313.15	852.95	0.46
0.1	298.15	869.94	0.43
0.1001	313.15	857.31	0.45
0.1497	313.15	861.7	0.44
0.15	298.15	874.61	0.42
0.1999	298.15	879.3	0.41
0.201	313.15	866.26	0.42
0.248	313.15	870.64	0.41
0.2501	298.15	884.12	0.4
0.2987	313.15	875.33	0.4
0.2999	298.15	889.01	0.39
0.3417	313.15	879.45	0.39
0.3498	298.15	893.96	0.38
0.3999	298.15	899.08	0.37
0.4009	313.15	885.2	0.38
0.4487	313.15	889.94	0.37
0.4499	298.15	904.28	0.35
0.5005	313.15	895.18	0.36
0.5006	298.15	909.64	0.34
0.5497	298.15	914.93	0.33
0.5501	313.15	900.3	0.34
0.5995	313.15	905.52	0.33
0.6001	298.15	920.47	0.32
0.6498	298.15	926.07	0.3
0.651	313.15	911.05	0.32
0.6995	313.15	916.4	0.31
0.7007	298.15	931.9	0.29
0.7495	298.15	937.62	0.28
0.7495	313.15	921.97	0.29
0.8004	298.15	943.71	0.26
0.8004	313.15	927.84	0.28
0.849	298.15	949.64	0.25
0.8501	313.15	933.7	0.27
0.9001	298.15	956.06	0.24
0.9001	313.15	939.69	0.26
0.9501	298.15	962.49	0.23
0.9501	313.15	945.76	0.24
1	298.15	969.12	0.21
1	313.15	952.15	0.23
