Measured thermophysical data. Binary Diffusion Coefficients of Arachidonic Acid Ethyl Esthers, cis-5,8,11,14,17-Eicosapentaenoic Acid Ethyl Esthers, and cis-4,7,10,13,16,19-Docosahexanenoic Acid Ethyl Esthers in Supercritical Carbon Dioxide
Source: J. Chem. Eng. Data, 2007, 10.1021/je060456h
Compound 1: cis-4,7,10,13,16,19-docosahexaenoic acid ethyl ester, C24H36O2, InChI=1S/C24H36O2/c1-3-5-6-7-8-9-10-11-12-13-14-15-16-17-18-19-20-21-22-23-24(25)26-4-2/h5-6,8-9,11-12,14-15,17-18,20-21H,3-4,7,10,13,16,19,22-23H2,1-2H3/b6-5-,9-8-,12-11-,15-14-,18-17-,21-20-, purity 99%
Compound 2: eicosapentaenoic acid, ethyl ester, C22H34O2, InChI=1S/C22H34O2/c1-3-5-6-7-8-9-10-11-12-13-14-15-16-17-18-19-20-21-22(23)24-4-2/h12-21H,3-11H2,1-2H3, purity 99%
Compound 3: 5,8,11,14-eicosatetraenoic acid, ethyl ester, (all-Z)-, C22H36O2, InChI=1S/C22H36O2/c1-3-5-6-7-8-9-10-11-12-13-14-15-16-17-18-19-20-21-22(23)24-4-2/h8-9,11-12,14-15,17-18H,3-7,10,13,16,19-21H2,1-2H3/b9-8-,12-11-,15-14-,18-17-, purity 99%
Compound 4: carbon dioxide, CO2, InChI=1S/CO2/c2-1-3, purity 99%

System: carbon dioxide + 5,8,11,14-eicosatetraenoic acid, ethyl ester, (all-Z)-; phases: Fluid (supercritical or subcritical phases)
Fixed: Mole fraction of 5,8,11,14-eicosatetraenoic acid, ethyl ester, (all-Z)- = 0
Property: Binary diffusion coefficient, m2/s (Fluid (supercritical or subcritical phases)); method: Dispersion
Temperature, K	Pressure, kPa	Binary diffusion coefficient, m2/s	uncertainty
308.15	8420	9.71e-09	0.91
308.15	8590	9.12e-09	0.74
308.15	8840	8.69e-09	0.66
308.15	9180	8.14e-09	0.6
308.15	9650	7.73e-09	0.58
308.15	10300	7.34e-09	0.46
308.15	11170	6.83e-09	0.34
308.15	12320	6.45e-09	0.28
308.15	13810	6.15e-09	0.24
308.15	15710	5.78e-09	0.22
308.15	18110	5.54e-09	0.2
318.15	10010	1.272e-08	0.58
318.15	10390	1.121e-08	0.57
318.15	10940	1.013e-08	0.48
318.15	11320	9.49e-09	0.46
318.15	11800	8.88e-09	0.43
318.15	12400	8.36e-09	0.37
318.15	13170	7.91e-09	0.32
318.15	14140	7.5e-09	0.3
318.15	15360	7.07e-09	0.27
318.15	16890	6.72e-09	0.25
318.15	18800	6.31e-09	0.23
318.15	21140	5.96e-09	0.21
318.15	24100	5.64e-09	0.2
328.15	11930	1.309e-08	0.61
328.15	12610	1.146e-08	0.52
328.15	13530	1.032e-08	0.46
328.15	14130	9.67e-09	0.42
328.15	14840	9.08e-09	0.36
328.15	15710	8.52e-09	0.34
328.15	16770	8.17e-09	0.31
328.15	18060	7.61e-09	0.28
328.15	19630	7.23e-09	0.27
328.15	21530	6.85e-09	0.24
328.15	23840	6.51e-09	0.23
328.15	26620	6.07e-09	0.22
328.15	29950	5.87e-09	0.2
338.15	13880	1.347e-08	0.54
338.15	14860	1.173e-08	0.48
338.15	16170	1.061e-08	0.42
338.15	16990	9.87e-09	0.37
338.15	17950	9.3e-09	0.34
338.15	19080	8.87e-09	0.32
338.15	20430	8.35e-09	0.3
338.15	22030	7.94e-09	0.28
338.15	23940	7.49e-09	0.26
338.15	26220	7.11e-09	0.25
338.15	28920	6.6e-09	0.22

System: carbon dioxide + eicosapentaenoic acid, ethyl ester; phases: Fluid (supercritical or subcritical phases)
Fixed: Mole fraction of eicosapentaenoic acid, ethyl ester = 0
Property: Binary diffusion coefficient, m2/s (Fluid (supercritical or subcritical phases)); method: Dispersion
Temperature, K	Pressure, kPa	Binary diffusion coefficient, m2/s	uncertainty
308.15	8420	9.77e-09	0.81
308.15	8590	9.32e-09	0.75
308.15	8840	8.81e-09	0.67
308.15	9180	8.32e-09	0.63
308.15	9650	7.76e-09	0.6
308.15	10300	7.39e-09	0.48
308.15	11170	6.9e-09	0.35
308.15	12320	6.51e-09	0.28
308.15	13810	6.19e-09	0.24
308.15	15710	5.82e-09	0.22
308.15	18110	5.54e-09	0.2
318.15	10010	1.3e-08	0.61
318.15	10390	1.157e-08	0.59
318.15	10940	1.03e-08	0.49
318.15	11320	9.62e-09	0.47
318.15	11800	8.96e-09	0.44
318.15	12400	8.42e-09	0.38
318.15	13170	7.96e-09	0.33
318.15	14140	7.54e-09	0.3
318.15	15360	7.13e-09	0.27
318.15	16890	6.76e-09	0.26
318.15	18800	6.34e-09	0.23
318.15	21140	6e-09	0.22
318.15	24100	5.66e-09	0.2
328.15	11930	1.333e-08	0.63
328.15	12610	1.164e-08	0.54
328.15	13530	1.045e-08	0.47
328.15	14130	9.76e-09	0.43
328.15	14840	9.19e-09	0.37
328.15	15710	8.55e-09	0.34
328.15	16770	8.26e-09	0.31
328.15	18060	7.69e-09	0.28
328.15	19630	7.25e-09	0.27
328.15	21530	6.91e-09	0.25
328.15	23840	6.51e-09	0.23
328.15	26620	6.11e-09	0.22
328.15	29950	5.89e-09	0.2
338.15	13880	1.38e-08	0.56
338.15	14860	1.19e-08	0.49
338.15	16170	1.069e-08	0.42
338.15	16990	9.92e-09	0.37
338.15	17950	9.34e-09	0.34
338.15	19080	8.97e-09	0.32
338.15	20430	8.44e-09	0.31
338.15	22030	8e-09	0.28
338.15	23940	7.51e-09	0.26
338.15	26220	7.11e-09	0.25
338.15	28920	6.64e-09	0.22

System: carbon dioxide + cis-4,7,10,13,16,19-docosahexaenoic acid ethyl ester; phases: Fluid (supercritical or subcritical phases)
Fixed: Mole fraction of cis-4,7,10,13,16,19-docosahexaenoic acid ethyl ester = 0
Property: Binary diffusion coefficient, m2/s (Fluid (supercritical or subcritical phases)); method: Dispersion
Temperature, K	Pressure, kPa	Binary diffusion coefficient, m2/s	uncertainty
308.15	8420	9.56e-09	0.82
308.15	8590	9.02e-09	0.71
308.15	8840	8.51e-09	0.6
308.15	9180	8.11e-09	0.56
308.15	9650	7.61e-09	0.53
308.15	10300	7.18e-09	0.44
308.15	11170	6.73e-09	0.33
308.15	12320	6.32e-09	0.27
308.15	13810	6.07e-09	0.24
308.15	15710	5.73e-09	0.22
308.15	18110	5.4e-09	0.2
318.15	10010	1.213e-08	0.55
318.15	10390	1.087e-08	0.54
318.15	10940	9.87e-09	0.45
318.15	11320	9.24e-09	0.44
318.15	11800	8.65e-09	0.4
318.15	12400	8.19e-09	0.36
318.15	13170	7.78e-09	0.32
318.15	14140	7.34e-09	0.29
318.15	15360	6.96e-09	0.26
318.15	16890	6.6e-09	0.25
318.15	18800	6.28e-09	0.23
318.15	21140	5.87e-09	0.21
318.15	24100	5.55e-09	0.2
328.15	11930	1.238e-08	0.56
328.15	12610	1.107e-08	0.49
328.15	13530	1.01e-08	0.43
328.15	14130	9.39e-09	0.4
328.15	14840	8.96e-09	0.35
328.15	15710	8.45e-09	0.33
328.15	16770	8.04e-09	0.3
328.15	18060	7.56e-09	0.27
328.15	19630	7.11e-09	0.26
328.15	21530	6.73e-09	0.24
328.15	23840	6.41e-09	0.22
328.15	26620	6.01e-09	0.21
328.15	29950	5.69e-09	0.2
338.15	13880	1.28e-08	0.51
338.15	14860	1.134e-08	0.45
338.15	16170	1.032e-08	0.4
338.15	16990	9.75e-09	0.36
338.15	17950	9.13e-09	0.33
338.15	19080	8.64e-09	0.31
338.15	20430	8.23e-09	0.3
338.15	22030	7.78e-09	0.28
338.15	23940	7.34e-09	0.25
338.15	26220	6.92e-09	0.24
338.15	28920	6.54e-09	0.22
