Measured thermophysical data. Liquid-Liquid Equilibria of Ternary and Six-Component Systems Including Cyclohexane, Benzene, Toluene, Ethylbenzene, Cumene, and Sulfolane at 303.15 K
Source: J. Chem. Eng. Data, 2006, 10.1021/je060153n
Compound 1: cyclohexane, C6H12, InChI=1S/C6H12/c1-2-4-6-5-3-1/h1-6H2, purity 99.5%
Compound 2: sulfolane, C4H8O2S, InChI=1S/C4H8O2S/c5-7(6)3-1-2-4-7/h1-4H2, purity 99%
Compound 3: benzene, C6H6, InChI=1S/C6H6/c1-2-4-6-5-3-1/h1-6H, purity 99%
Compound 4: toluene, C7H8, InChI=1S/C7H8/c1-7-5-3-2-4-6-7/h2-6H,1H3, purity 99.5%
Compound 5: ethylbenzene, C8H10, InChI=1S/C8H10/c1-2-8-6-4-3-5-7-8/h3-7H,2H2,1H3, purity 99%
Compound 6: isopropylbenzene, C9H12, InChI=1S/C9H12/c1-8(2)9-6-4-3-5-7-9/h3-8H,1-2H3, purity 98.1%

System: benzene + cyclohexane + sulfolane; phases: Liquid mixture 2, Liquid mixture 1
Fixed: Temperature, K = 303.15
Fixed: Pressure, kPa = 101
Property: Mole fraction of cyclohexane (Liquid mixture 2); method: Chromatography
Property: Mole fraction of cyclohexane (Liquid mixture 1); method: Chromatography
Property: Mole fraction of benzene (Liquid mixture 1); method: Chromatography
Mole fraction of benzene	Mole fraction of cyclohexane	uncertainty	Mole fraction of cyclohexane	uncertainty	Mole fraction of benzene	uncertainty
0	0.0313	0.02	0.9969	0.0031	0	
0.0407	0.0315	0.0201	0.9312	0.0288	0.0639	
0.0773	0.0397	0.0203	0.8701	0.0292	0.1227	
0.1456	0.049	0.0202	0.7553	0.0293	0.2295	
0.1809	0.0539	0.0202	0.7215	0.0295	0.2627	
0.2009	0.0556	0.0201	0.6747	0.0307	0.3042	
0.2501	0.0618	0.0202	0.5911	0.031	0.3754	

System: toluene + cyclohexane + sulfolane; phases: Liquid mixture 1, Liquid mixture 2
Fixed: Temperature, K = 303.15
Fixed: Pressure, kPa = 101
Property: Mole fraction of toluene (Liquid mixture 1); method: Chromatography
Property: Mole fraction of cyclohexane (Liquid mixture 2); method: Chromatography
Property: Mole fraction of toluene (Liquid mixture 2); method: Chromatography
Mole fraction of cyclohexane	Mole fraction of toluene	uncertainty	Mole fraction of cyclohexane	uncertainty	Mole fraction of toluene	uncertainty
0.9961	0	0.0001	0.0436	0.02	0	
0.9295	0.0652	0.0279	0.0429	0.0201	0.0254	
0.8657	0.1264	0.0275	0.0493	0.0202	0.0524	
0.7636	0.2214	0.0275	0.0535	0.0201	0.0948	
0.7121	0.2715	0.0272	0.0537	0.0202	0.1198	
0.6698	0.3073	0.0262	0.0586	0.0202	0.1382	
0.5995	0.3663	0.0262	0.0632	0.0202	0.1724	

System: ethylbenzene + cyclohexane + sulfolane; phases: Liquid mixture 1, Liquid mixture 2
Fixed: Pressure, kPa = 101
Fixed: Temperature, K = 303.15
Property: Mole fraction of ethylbenzene (Liquid mixture 1); method: Chromatography
Property: Mole fraction of cyclohexane (Liquid mixture 2); method: Chromatography
Property: Mole fraction of ethylbenzene (Liquid mixture 2); method: Chromatography
Mole fraction of cyclohexane	Mole fraction of ethylbenzene	uncertainty	Mole fraction of cyclohexane	uncertainty	Mole fraction of ethylbenzene	uncertainty
0.9984	0	0.0001	0.041	0.02	0	
0.9349	0.061	0.0278	0.0411	0.02	0.0189	
0.8717	0.1221	0.0278	0.0443	0.02	0.0372	
0.7732	0.2165	0.0275	0.0426	0.02	0.0673	
0.6782	0.3044	0.0271	0.0462	0.0202	0.096	
0.6082	0.3655	0.0269	0.0454	0.02	0.1151	
0.5385	0.429	0.0272	0.0318	0.021	0.1012	

System: isopropylbenzene + cyclohexane + sulfolane; phases: Liquid mixture 1, Liquid mixture 2
Fixed: Temperature, K = 303.15
Fixed: Pressure, kPa = 101
Property: Mole fraction of isopropylbenzene (Liquid mixture 1); method: Chromatography
Property: Mole fraction of cyclohexane (Liquid mixture 2); method: Chromatography
Property: Mole fraction of isopropylbenzene (Liquid mixture 2); method: Chromatography
Mole fraction of cyclohexane	Mole fraction of isopropylbenzene	uncertainty	Mole fraction of cyclohexane	uncertainty	Mole fraction of isopropylbenzene	uncertainty
0.9971	0	0.0001	0.0397	0.02	0	
0.9328	0.063	0.0201	0.0366	0.02	0.0144	
0.8645	0.1275	0.0201	0.039	0.02	0.0281	
0.765	0.2231	0.0201	0.0408	0.02	0.0495	
0.7184	0.2699	0.0201	0.0392	0.02	0.0594	
0.6739	0.3099	0.0202	0.0408	0.02	0.0701	
