Measured thermophysical data. Diffusion Coefficients of Aromatic Compounds at Infinite Dilution in Binary Mixtures at 298.15 K
Source: J. Chem. Eng. Data, 2007, 10.1021/je060289l
Compound 1: benzene, C6H6, InChI=1S/C6H6/c1-2-4-6-5-3-1/h1-6H
Compound 2: chlorobenzene, C6H5Cl, InChI=1S/C6H5Cl/c7-6-4-2-1-3-5-6/h1-5H
Compound 3: ethylbenzene, C8H10, InChI=1S/C8H10/c1-2-8-6-4-3-5-7-8/h3-7H,2H2,1H3
Compound 4: toluene, C7H8, InChI=1S/C7H8/c1-7-5-3-2-4-6-7/h2-6H,1H3
Compound 5: 4-chlorotoluene, C7H7Cl, InChI=1S/C7H7Cl/c1-6-2-4-7(8)5-3-6/h2-5H,1H3
Compound 6: naphthalene, C10H8, InChI=1S/C10H8/c1-2-6-10-8-4-3-7-9(10)5-1/h1-8H
Compound 7: pyrene, C16H10, InChI=1S/C16H10/c1-3-11-7-9-13-5-2-6-14-10-8-12(4-1)15(11)16(13)14/h1-10H
Compound 8: perylene, C20H12, InChI=1S/C20H12/c1-5-13-6-2-11-17-18-12-4-8-14-7-3-10-16(20(14)18)15(9-1)19(13)17/h1-12H
Compound 9: hexane, C6H14, InChI=1S/C6H14/c1-3-5-6-4-2/h3-6H2,1-2H3
Compound 10: heptane, C7H16, InChI=1S/C7H16/c1-3-5-7-6-4-2/h3-7H2,1-2H3
Compound 11: ethanol, C2H6O, InChI=1S/C2H6O/c1-2-3/h3H,2H2,1H3
Compound 12: acetone, C3H6O, InChI=1S/C3H6O/c1-3(2)4/h1-2H3

System: benzene + heptane; phases: Liquid
Property: Tracer diffusion coefficient, m2/s of benzene (Liquid); method: OTHER::sMethod:Taylor dispersion
Temperature, K	Pressure, kPa	Mole fraction of benzene	Tracer diffusion coefficient, m2/s of benzene	uncertainty
298.15	101.3	0	3.75	0.23

System: benzene + hexane; phases: Liquid
Property: Tracer diffusion coefficient, m2/s of benzene (Liquid); method: OTHER::sMethod:Taylor dispersion
Temperature, K	Pressure, kPa	Mole fraction of benzene	Tracer diffusion coefficient, m2/s of benzene	uncertainty
298.15	101.3	0	4.7	0.28

System: chlorobenzene + heptane; phases: Liquid
Property: Tracer diffusion coefficient, m2/s of chlorobenzene (Liquid); method: OTHER::sMethod:Taylor dispersion
Temperature, K	Pressure, kPa	Mole fraction of chlorobenzene	Tracer diffusion coefficient, m2/s of chlorobenzene	uncertainty
298.15	101.3	0	3.42	0.21

System: chlorobenzene + hexane; phases: Liquid
Property: Tracer diffusion coefficient, m2/s of chlorobenzene (Liquid); method: OTHER::sMethod:Taylor dispersion
Temperature, K	Pressure, kPa	Mole fraction of chlorobenzene	Tracer diffusion coefficient, m2/s of chlorobenzene	uncertainty
298.15	101.3	0	4.16	0.25

System: ethylbenzene + heptane; phases: Liquid
Property: Tracer diffusion coefficient, m2/s of ethylbenzene (Liquid); method: Taylor dispersion
Temperature, K	Pressure, kPa	Mole fraction of ethylbenzene	Tracer diffusion coefficient, m2/s of ethylbenzene	uncertainty
298.15	101.3	0	3.15	0.19

System: ethylbenzene + hexane; phases: Liquid
Property: Tracer diffusion coefficient, m2/s of ethylbenzene (Liquid); method: OTHER::sMethod:Taylor dispersion
Temperature, K	Pressure, kPa	Mole fraction of ethylbenzene	Tracer diffusion coefficient, m2/s of ethylbenzene	uncertainty
298.15	101.3	0	3.73	0.22

System: toluene + heptane; phases: Liquid
Property: Tracer diffusion coefficient, m2/s of toluene (Liquid); method: Taylor dispersion
Temperature, K	Pressure, kPa	Mole fraction of toluene	Tracer diffusion coefficient, m2/s of toluene	uncertainty
298.15	101.3	0	3.42	0.21

System: toluene + hexane; phases: Liquid
Property: Tracer diffusion coefficient, m2/s of toluene (Liquid); method: OTHER::sMethod:Taylor dispersion
Temperature, K	Pressure, kPa	Mole fraction of toluene	Tracer diffusion coefficient, m2/s of toluene	uncertainty
298.15	101.3	0	4.12	0.25

System: 4-chlorotoluene + heptane; phases: Liquid
Property: Tracer diffusion coefficient, m2/s of 4-chlorotoluene (Liquid); method: OTHER::sMethod:Taylor dispersion
Temperature, K	Pressure, kPa	Mole fraction of 4-chlorotoluene	Tracer diffusion coefficient, m2/s of 4-chlorotoluene	uncertainty
298.15	101.3	0	3.11	0.19

System: 4-chlorotoluene + hexane; phases: Liquid
Property: Tracer diffusion coefficient, m2/s of 4-chlorotoluene (Liquid); method: OTHER::sMethod:Taylor dispersion
Temperature, K	Pressure, kPa	Mole fraction of 4-chlorotoluene	Tracer diffusion coefficient, m2/s of 4-chlorotoluene	uncertainty
298.15	101.3	0	3.74	0.22

System: naphthalene + heptane; phases: Liquid
Property: Tracer diffusion coefficient, m2/s of naphthalene (Liquid); method: OTHER::sMethod:Taylor dispersion
Temperature, K	Pressure, kPa	Mole fraction of naphthalene	Tracer diffusion coefficient, m2/s of naphthalene	uncertainty
298.15	101.3	0	2.81	0.17

System: naphthalene + hexane; phases: Liquid
Property: Tracer diffusion coefficient, m2/s of naphthalene (Liquid); method: OTHER::sMethod:Taylor dispersion
Temperature, K	Pressure, kPa	Mole fraction of naphthalene	Tracer diffusion coefficient, m2/s of naphthalene	uncertainty
298.15	101.3	0	3.55	0.21

System: pyrene + heptane; phases: Liquid
Property: Tracer diffusion coefficient, m2/s of pyrene (Liquid); method: OTHER::sMethod:Taylor dispersion
Temperature, K	Pressure, kPa	Mole fraction of pyrene	Tracer diffusion coefficient, m2/s of pyrene	uncertainty
298.15	101.3	0	2.16	0.13

System: hexane + pyrene; phases: Liquid
Property: Tracer diffusion coefficient, m2/s of pyrene (Liquid); method: OTHER::sMethod:Taylor dispersion
Temperature, K	Pressure, kPa	Mole fraction of pyrene	Tracer diffusion coefficient, m2/s of pyrene	uncertainty
298.15	101.3	0	2.58	0.15

System: heptane + perylene; phases: Liquid
Property: Tracer diffusion coefficient, m2/s of perylene (Liquid); method: OTHER::sMethod:Taylor dispersion
Temperature, K	Pressure, kPa	Mole fraction of perylene	Tracer diffusion coefficient, m2/s of perylene	uncertainty
298.15	101.3	0	1.89	0.11

System: hexane + perylene; phases: Liquid
Property: Tracer diffusion coefficient, m2/s of perylene (Liquid); method: OTHER::sMethod:Taylor dispersion
Temperature, K	Pressure, kPa	Mole fraction of perylene	Tracer diffusion coefficient, m2/s of perylene	uncertainty
298.15	101.3	0	2.3	0.14

System: ethanol + benzene; phases: Liquid
Property: Tracer diffusion coefficient, m2/s of benzene (Liquid); method: OTHER::sMethod:Taylor dispersion
Temperature, K	Pressure, kPa	Mole fraction of benzene	Tracer diffusion coefficient, m2/s of benzene	uncertainty
298.15	101.3	0	1.88	0.11

System: acetone + benzene; phases: Liquid
Property: Tracer diffusion coefficient, m2/s of benzene (Liquid); method: OTHER::sMethod:Taylor dispersion
Temperature, K	Pressure, kPa	Mole fraction of benzene	Tracer diffusion coefficient, m2/s of benzene	uncertainty
298.15	101.3	0	4.25	0.26

System: benzene + hexane + heptane; phases: Liquid
Fixed: Temperature, K = 298.15
Fixed: Pressure, kPa = 101.3
Fixed: Mole fraction of benzene = 0
Property: Tracer diffusion coefficient, m2/s of benzene (Liquid); method: Taylor dispersion
Solvent: Mole fraction of hexane	Tracer diffusion coefficient, m2/s of benzene	uncertainty
0	3.75	0.23
0.133	3.85	0.23
0.2015	3.91	0.23
0.3004	3.99	0.24
0.4004	4.08	0.24
0.499	4.17	0.25
0.5965	4.26	0.26
0.6995	4.39	0.26
0.8002	4.49	0.27
0.9001	4.59	0.28
1	4.7	0.28

System: chlorobenzene + hexane + heptane; phases: Liquid
Fixed: Temperature, K = 298.15
Fixed: Pressure, kPa = 101.3
Fixed: Mole fraction of chlorobenzene = 0
Property: Tracer diffusion coefficient, m2/s of chlorobenzene (Liquid); method: Taylor dispersion
Solvent: Mole fraction of hexane	Tracer diffusion coefficient, m2/s of chlorobenzene	uncertainty
0	3.42	0.21
0.133	3.5	0.21
0.2015	3.54	0.21
0.3004	3.6	0.22
0.4004	3.67	0.22
0.499	3.74	0.22
0.5965	3.82	0.23
0.6995	3.9	0.23
0.8002	3.98	0.24
0.9001	4.07	0.24
1	4.16	0.25

System: ethylbenzene + hexane + heptane; phases: Liquid
Fixed: Temperature, K = 298.15
Fixed: Pressure, kPa = 101.3
Fixed: Mole fraction of ethylbenzene = 0
Property: Tracer diffusion coefficient, m2/s of ethylbenzene (Liquid); method: Taylor dispersion
Solvent: Mole fraction of hexane	Tracer diffusion coefficient, m2/s of ethylbenzene	uncertainty
0	3.15	0.19
0.133	3.22	0.19
0.2015	3.25	0.2
0.3004	3.3	0.2
0.4004	3.35	0.2
0.499	3.41	0.2
0.5965	3.46	0.21
0.6995	3.53	0.21
0.8002	3.59	0.22
0.9001	3.66	0.22
1	3.73	0.22

System: toluene + hexane + heptane; phases: Liquid
Fixed: Temperature, K = 298.15
Fixed: Pressure, kPa = 101.3
Fixed: Mole fraction of toluene = 0
Property: Tracer diffusion coefficient, m2/s of toluene (Liquid); method: Taylor dispersion
Solvent: Mole fraction of hexane	Tracer diffusion coefficient, m2/s of toluene	uncertainty
0	3.42	0.21
0.133	3.5	0.21
0.2015	3.54	0.21
0.3004	3.6	0.22
0.4004	3.66	0.22
0.499	3.73	0.22
0.5965	3.8	0.23
0.6995	3.88	0.23
0.8002	3.95	0.24
0.9001	4.04	0.24
1	4.12	0.25

System: 4-chlorotoluene + hexane + heptane; phases: Liquid
Fixed: Temperature, K = 298.15
Fixed: Pressure, kPa = 101.3
Fixed: Mole fraction of 4-chlorotoluene = 0
Property: Tracer diffusion coefficient, m2/s of 4-chlorotoluene (Liquid); method: Taylor dispersion
Solvent: Mole fraction of hexane	Tracer diffusion coefficient, m2/s of 4-chlorotoluene	uncertainty
0	3.11	0.19
0.133	3.18	0.19
0.2015	3.21	0.19
0.3004	3.27	0.2
0.4004	3.33	0.2
0.499	3.38	0.2
0.5965	3.45	0.21
0.6995	3.52	0.21
0.8002	3.59	0.22
0.9001	3.66	0.22
1	3.74	0.22

System: naphthalene + hexane + heptane; phases: Liquid
Fixed: Temperature, K = 298.15
Fixed: Pressure, kPa = 101.3
Fixed: Mole fraction of naphthalene = 0
Property: Tracer diffusion coefficient, m2/s of naphthalene (Liquid); method: Taylor dispersion
Solvent: Mole fraction of hexane	Tracer diffusion coefficient, m2/s of naphthalene	uncertainty
0	2.81	0.17
0.133	2.89	0.17
0.2015	2.93	0.18
0.3004	2.99	0.18
0.4004	3.07	0.18
0.499	3.14	0.19
0.5965	3.21	0.19
0.6995	3.29	0.2
0.8002	3.38	0.2
0.9001	3.46	0.21
1	3.55	0.21

System: hexane + pyrene + heptane; phases: Liquid
Fixed: Temperature, K = 298.15
Fixed: Pressure, kPa = 101.3
Fixed: Mole fraction of pyrene = 0
Property: Tracer diffusion coefficient, m2/s of pyrene (Liquid); method: Taylor dispersion
Solvent: Mole fraction of hexane	Tracer diffusion coefficient, m2/s of pyrene	uncertainty
0	2.16	0.13
0.133	2.21	0.13
0.2015	2.23	0.13
0.3004	2.26	0.14
0.4004	2.3	0.14
0.499	2.34	0.14
0.5965	2.4	0.14
0.6995	2.43	0.15
0.8002	2.48	0.15
0.9001	2.53	0.15
1	2.58	0.15

System: hexane + heptane + perylene; phases: Liquid
Fixed: Temperature, K = 298.15
Fixed: Pressure, kPa = 101.3
Fixed: Mole fraction of perylene = 0
Property: Tracer diffusion coefficient, m2/s of perylene (Liquid); method: Taylor dispersion
Solvent: Mole fraction of hexane	Tracer diffusion coefficient, m2/s of perylene	uncertainty
0	1.89	0.11
0.133	1.93	0.12
0.2015	1.96	0.12
0.3004	1.99	0.12
0.4004	2.03	0.12
0.499	2.07	0.12
0.5965	2.11	0.13
0.6995	2.15	0.13
0.8002	2.2	0.13
0.9001	2.25	0.14
1	2.3	0.14

System: ethanol + benzene + hexane; phases: Liquid
Fixed: Temperature, K = 298.15
Fixed: Pressure, kPa = 101.3
Fixed: Mole fraction of benzene = 0
Property: Tracer diffusion coefficient, m2/s of benzene (Liquid); method: Taylor dispersion
Solvent: Mole fraction of hexane	Tracer diffusion coefficient, m2/s of benzene	uncertainty
0	1.88	0.11
0.2024	2.13	0.13
0.2864	2.25	0.14
0.3942	2.45	0.15
0.4739	2.65	0.16
0.6082	3.05	0.18
0.7083	3.43	0.21
0.7796	3.82	0.23
0.8913	4.35	0.26
1	4.7	0.28

System: ethanol + acetone + benzene; phases: Liquid
Fixed: Temperature, K = 298.15
Fixed: Pressure, kPa = 101.3
Fixed: Mole fraction of benzene = 0
Property: Tracer diffusion coefficient, m2/s of benzene (Liquid); method: Taylor dispersion
Solvent: Mole fraction of acetone	Tracer diffusion coefficient, m2/s of benzene	uncertainty
0	1.88	0.11
0.1163	2.26	0.14
0.203	2.54	0.15
0.3396	2.93	0.18
0.4016	3.12	0.19
0.5058	3.41	0.2
0.5437	3.5	0.21
0.7084	3.9	0.23
0.8097	4.16	0.25
1	4.25	0.26
