Measured thermophysical data. Heat Capacity and Enthalpy of Formation of Trimethyl Phosphite, 2-Chloromethylbenzonitrile, and 2-Dimethylphosphonomethylbenzonitrile
Source: J. Chem. Eng. Data, 2007, 10.1021/je060445o
Compound 1: trimethyl phosphite, C3H9O3P, InChI=1S/C3H9O3P/c1-4-7(5-2)6-3/h1-3H3
Compound 2: 2-(chloromethyl)benzonitrile, C8H6ClN, InChI=1S/C8H6ClN/c9-5-7-3-1-2-4-8(7)6-10/h1-4H,5H2
Compound 3: 2-dimethylphosphonomethylbenzonitrile, C10H12NO3P, InChI=1S/C10H12NO3P/c1-13-15(12,14-2)8-10-6-4-3-5-9(10)7-11/h3-6H,8H2,1-2H3

System: trimethyl phosphite; phases: Liquid
Fixed: Pressure, kPa = 101.325
Property: Molar heat capacity at constant pressure, J/K/mol (Liquid); method: Vacuum adiabatic calorimetry
Temperature, K	Molar heat capacity at constant pressure, J/K/mol	uncertainty
299.05	176.6463192477	3.5485599006
302.1	179.1402372198	3.598190109
305.1	180.6787736802	3.6230052132
308.15	183.1602841002	3.6726354216
310.95	183.8551070178	3.6850429737
313.75	187.7510783772	3.7594882863
316.73	188.6692372326	3.7843033905
319.69	192.1185367164	3.846341151
322.33	194.2030054692	3.8959713594
325.9	195.3817229187	3.9207864636
329	196.907851827	3.9456015678
331.35	200.3695588629	4.0200468804
335.89	202.367174751	4.0572695367
337.7	204.1910849097	4.094492193
340.75	207.4418635599	4.1565299535
343.73	212.1071031495	4.2557903703
348.05	214.526575809	4.3054205787

System: 2-(chloromethyl)benzonitrile; phases: Liquid
Fixed: Pressure, kPa = 101.325
Property: Molar heat capacity at constant pressure, J/K/mol (Liquid); method: Vacuum adiabatic calorimetry
Temperature, K	Molar heat capacity at constant pressure, J/K/mol	uncertainty
298.15	282.887100148	5.669566232
303.16	284.706212308	5.699884768
308.11	286.5101652	5.745362572
311.36	290.876034384	5.821158912
314.55	294.01400286	5.896955252
317.75	295.924070628	5.927273788
320.36	298.000890344	5.972751592
322.75	301.426884912	6.033388664
326.25	305.898868972	6.124344272
329.25	311.477479596	6.245618416
332.55	316.37392316	6.336574024
336.54	322.119285732	6.457848168
339.02	327.106684904	6.548803776
342.19	332.336632364	6.654918652
345.14	336.76313862	6.74587426
347.69	341.00773366	6.836829868
350.32	343.96379092	6.89746694

System: 2-dimethylphosphonomethylbenzonitrile; phases: Crystal, Liquid, Gas
Property: Molar enthalpy of transition or fusion, kJ/mol (Crystal); method: Adiabatic calorimetry
Molar enthalpy of transition or fusion, kJ/mol	uncertainty
20.53	0.42

System: 2-dimethylphosphonomethylbenzonitrile; phases: Crystal, Liquid, Gas
Property: Molar enthalpy of transition or fusion, kJ/mol (Crystal); method: DSC
Molar enthalpy of transition or fusion, kJ/mol	uncertainty
20.81	0.61

System: 2-dimethylphosphonomethylbenzonitrile; phases: Crystal, Liquid, Air at 1 atmosphere
Property: Normal melting temperature, K (Crystal); method: Adiabatic calorimetry
Normal melting temperature, K	uncertainty
334.15	1

System: 2-dimethylphosphonomethylbenzonitrile; phases: Liquid
Fixed: Pressure, kPa = 101.325
Property: Molar heat capacity at constant pressure, J/K/mol (Liquid); method: Vacuum adiabatic calorimetry
Temperature, K	Molar heat capacity at constant pressure, J/K/mol	uncertainty
337.26	503.6623002027	10.0881079488
340.28	504.5179879305	10.111076408862
344.05	506.9949787215	10.155887424081
346.7	510.6654287118	10.222991356419
349.55	513.6828538572	10.290996012681
352.35	522.2622492333	10.447947156438
355.31	526.8109050495	10.538019548838
357.91	529.4455225272	10.6060242051
360.55	531.5397056505	10.6510604013
362.85	535.6830357009	10.719065057562
365.85	538.5428341596	10.785943808919
367	543.9471777036	10.898984661381
370.1	548.6984964027	10.989057053781
371.2	552.0987292158	11.055935805138
372.45	557.0076746016	11.146008197538

System: 2-dimethylphosphonomethylbenzonitrile; phases: Crystal
Fixed: Pressure, kPa = 101.325
Property: Molar heat capacity at constant pressure, J/K/mol (Crystal); method: Vacuum adiabatic calorimetry
Temperature, K	Molar heat capacity at constant pressure, J/K/mol	uncertainty
300.35	254.9273885901	5.1116082687
303.1	257.5620060678	5.1566444649
305.1	260.3542502322	5.2241987592
308.15	262.6060600422	5.2692349554
310.95	266.1188833458	5.3367892497
313.75	266.4341367192	5.3367892497
316.73	268.1004759786	5.3818254459
319.69	272.1086974404	5.4493797402
322.33	280.3953575412	5.629524525
325.9	282.5345768607	5.6520426231
329	289.807922547	5.8096693098
