Measured thermophysical data. Solubility and Phase Behaviors of AOT Analogue Surfactants in 1,1,1,2-Tetrafluoroethane and Supercritical Carbon Dioxide
Source: J. Chem. Eng. Data, 2006, 10.1021/je060152v
Compound 1: carbon dioxide, CO2, InChI=1S/CO2/c2-1-3
Compound 2: 1,1,1,2-tetrafluoroethane, C2H2F4, InChI=1S/C2H2F4/c3-1-2(4,5)6/h1H2
Compound 3: sodium dibutyl sulfosuccinate, C12H21NaO7S, InChI=1S/C12H22O7S.Na/c1-3-5-7-18-11(13)9-10(20(15,16)17)12(14)19-8-6-4-2;/h10H,3-9H2,1-2H3,(H,15,16,17);/q;+1/p-1
Compound 4: sodium dihexyl sulfosuccinate, C16H29NaO7S, InChI=1S/C16H30O7S.Na/c1-3-5-7-9-11-22-15(17)13-14(24(19,20)21)16(18)23-12-10-8-6-4-2;/h14H,3-13H2,1-2H3,(H,19,20,21);/q;+1/p-1
Compound 5: sodium di-n-octyl sulfosuccinate, C20H37NaO7S, InChI=1S/C20H38O7S.Na/c1-3-5-7-9-11-13-15-26-19(21)17-18(28(23,24)25)20(22)27-16-14-12-10-8-6-4-2;/h18H,3-17H2,1-2H3,(H,23,24,25);/q;+1/p-1
Compound 6: sodium dipentyl sulfosuccinate, C14H25NaO7S, InChI=1S/C14H26O7S.Na/c1-3-5-7-9-20-13(15)11-12(22(17,18)19)14(16)21-10-8-6-4-2;/h12H,3-11H2,1-2H3,(H,17,18,19);/q;+1/p-1

System: carbon dioxide + sodium dipentyl sulfosuccinate; phases: Fluid (supercritical or subcritical phases), Crystal
Property: Mass concentration, kg/m3 (Fluid (supercritical or subcritical phases)); method: static method with gravimetric analysis
Pressure, kPa	Temperature, K	Mass concentration, kg/m3	uncertainty
15000	318	0.9479	0.1896
20000	318	0.9833	0.1973
25000	308	0.3354	0.0802
25000	318	0.775	0.1593
25000	328	1.073	0.215
25000	338	1.144	0.229
25000	318	1.042	0.212
30000	318	1.244	0.249
35000	318	1.338	0.268

System: 1,1,1,2-tetrafluoroethane + sodium dipentyl sulfosuccinate; phases: Liquid, Crystal
Property: Mass concentration, kg/m3 (Liquid); method: static method with gravimetric analysis
Pressure, kPa	Temperature, K	Mass concentration, kg/m3	uncertainty
16500	318	0.9063	0.253
20200	318	1.2583	0.2832
25000	318	1.4625	0.3313
30000	318	1.8708	0.4001
33000	308	0.7104	0.2187
33000	318	2.3729	0.4815
33000	328	2.342	0.488
33000	338	5.14	1.037
33000	318	1.463	0.304

System: 1,1,1,2-tetrafluoroethane + sodium dibutyl sulfosuccinate; phases: Liquid, Crystal
Property: Mass concentration, kg/m3 (Liquid); method: static method with gravimetric analysis
Pressure, kPa	Temperature, K	Mass concentration, kg/m3	uncertainty
25000	318	2.294	0.459

System: 1,1,1,2-tetrafluoroethane + sodium dihexyl sulfosuccinate; phases: Liquid, Crystal
Property: Mass concentration, kg/m3 (Liquid); method: static method with gravimetric analysis
Pressure, kPa	Temperature, K	Mass concentration, kg/m3	uncertainty
25000	318	0.9125	0.1825

System: 1,1,1,2-tetrafluoroethane + sodium di-n-octyl sulfosuccinate; phases: Liquid, Crystal
Property: Mass concentration, kg/m3 (Liquid); method: static method with gravimetric analysis
Pressure, kPa	Temperature, K	Mass concentration, kg/m3	uncertainty
25000	318	0.5625	0.1125
