Measured thermophysical data. Vapor-Liquid Equilibria for the 1,1-Difluoroethane (HFC-152a) + Propane (R-290) System
Source: J. Chem. Eng. Data, 2007, 10.1021/je060501l
Compound 1: 1,1-difluoroethane, C2H4F2, InChI=1S/C2H4F2/c1-2(3)4/h2H,1H3
Compound 2: propane, C3H8, InChI=1S/C3H8/c1-3-2/h3H2,1-2H3

System: 1,1-difluoroethane; phases: Liquid, Gas
Property: Vapor or sublimation pressure, kPa (Liquid); method: EBULLIO:UFactor:8
Temperature, K	Vapor or sublimation pressure, kPa	uncertainty
273.15	265.8	8.6
283.15	372.8	11.9
293.15	513.3	16.2
303.15	689.9	21.7
313.15	909.4	28.5

System: propane; phases: Liquid, Gas
Property: Vapor or sublimation pressure, kPa (Liquid); method: EBULLIO:UFactor:8
Temperature, K	Vapor or sublimation pressure, kPa	uncertainty
273.15	472.5	15
283.15	633.9	20
293.15	832.94	26.13
303.15	1077	34
313.15	1370	43

System: propane + 1,1-difluoroethane; phases: Liquid, Gas
Property: Vapor or sublimation pressure, kPa (Liquid); method: EBULLIO:UFactor:8
Mole fraction of propane	Temperature, K	Vapor or sublimation pressure, kPa	uncertainty
0	273.15	265.8	8.6
0	283.15	372.8	11.9
0	293.15	513.3	16.2
0	303.15	689.9	21.7
0	313.15	909.4	28.5
0.0624	303.15	775.1	24.3
0.0656	313.15	1005.3	31.5
0.0728	273.15	319.1	10.2
0.0829	293.15	587.6	18.5
0.0848	283.15	437.4	13.9
0.2226	313.15	1196.4	37.4
0.2326	303.15	940.7	29.5
0.2331	273.15	412.6	13.1
0.2333	293.15	726.9	22.9
0.2452	283.15	553.3	17.5
0.5473	303.15	1146.5	35.9
0.5542	293.15	876.3	27.5
0.56	283.15	669.9	21.1
0.5771	273.15	504.9	16.5
0.5844	313.15	1467.8	46
0.5851	273.15	514.2	16.8
0.6102	313.15	1501.8	46.9
0.6176	283.15	674.5	21.2
0.6254	293.15	902.7	28.3
0.6436	303.15	1166.7	36.5
0.6979	293.15	901.4	28.3
0.7011	273.15	507.2	16
0.7054	303.15	1161	36.3
0.7061	283.15	677.9	21.3
0.7065	313.15	1479.5	46.2
0.7542	293.15	894.2	28
0.7565	273.15	506.5	16
0.7592	283.15	676.1	21.3
0.7633	313.15	1464.1	45.7
0.7652	303.15	1154.4	36.1
0.8178	273.15	512.9	16.2
0.8282	313.15	1479.4	46.2
0.8297	303.15	1162.3	36.4
0.8312	293.15	904.2	28.4
0.8343	283.15	671.3	21.2
1	273.15	472.5	15
1	283.15	633.9	20
1	293.15	832.94	26.13
1	303.15	1077	34
1	313.15	1370	43

System: propane + 1,1-difluoroethane; phases: Gas, Liquid
Property: Mole fraction of propane (Gas); method: CHROM:UFactor:8
Mole fraction of propane	Temperature, K	Mole fraction of propane	uncertainty
0	273.15	0	0.0001
0	283.15	0	0.0001
0	293.15	0	0.0001
0	303.15	0	0.0001
0	313.15	0	0.0001
0.0624	303.15	0.1449	0.0108
0.0656	313.15	0.1238	0.0092
0.0728	273.15	0.1449	0.0108
0.0829	293.15	0.1629	0.0121
0.0848	283.15	0.1652	0.0123
0.2226	313.15	0.3138	0.0234
0.2326	303.15	0.3489	0.026
0.2331	273.15	0.4219	0.0314
0.2333	293.15	0.3734	0.0278
0.2452	283.15	0.3967	0.0295
0.5473	303.15	0.6135	0.0289
0.5542	293.15	0.6265	0.0278
0.56	283.15	0.6286	0.0276
0.5771	273.15	0.6408	0.0289
0.5844	313.15	0.6008	0.0303
0.5851	273.15	0.6661	0.0272
0.6102	313.15	0.6447	0.0266
0.6176	283.15	0.6479	0.0263
0.6254	293.15	0.6641	0.0251
0.6436	303.15	0.6562	0.0257
0.6979	293.15	0.7129	0.0215
0.7011	273.15	0.7215	0.0208
0.7054	303.15	0.7069	0.022
0.7061	283.15	0.7202	0.0211
0.7065	313.15	0.7041	0.0222
0.7542	293.15	0.7488	0.0189
0.7565	273.15	0.7568	0.0184
0.7592	283.15	0.7547	0.0185
0.7633	313.15	0.7448	0.0193
0.7652	303.15	0.7484	0.019
0.8178	273.15	0.8053	0.0153
0.8282	313.15	0.8035	0.0156
0.8297	303.15	0.7974	0.016
0.8312	293.15	0.7982	0.0159
0.8343	283.15	0.8087	0.0152
1	273.15	1	0.0001
1	283.15	1	0.0001
1	293.15	1	0.0001
1	303.15	1	0.0001
1	313.15	1	0.0001
