Measured thermophysical data. Solubility and Melting Properties of Salicylic Acid
Source: J. Chem. Eng. Data, 2006, 10.1021/je060134d
Compound 1: 2-hydroxybenzoic acid, C7H6O3, InChI=1S/C7H6O3/c8-6-4-2-1-3-5(6)7(9)10/h1-4,8H,(H,9,10)
Compound 2: methanol, CH4O, InChI=1S/CH4O/c1-2/h2H,1H3
Compound 3: acetonitrile, C2H3N, InChI=1S/C2H3N/c1-2-3/h1H3
Compound 4: acetic acid, C2H4O2, InChI=1S/C2H4O2/c1-2(3)4/h1H3,(H,3,4)
Compound 5: acetone, C3H6O, InChI=1S/C3H6O/c1-3(2)4/h1-2H3
Compound 6: ethyl acetate, C4H8O2, InChI=1S/C4H8O2/c1-3-6-4(2)5/h3H2,1-2H3
Compound 7: water, H2O, InChI=1S/H2O/h1H2

System: 2-hydroxybenzoic acid; phases: Crystal, Liquid, Air at 1 atmosphere
Property: Molar enthalpy of transition or fusion, kJ/mol (Crystal); method: DSC
Molar enthalpy of transition or fusion, kJ/mol	uncertainty
27.09	0.68

System: 2-hydroxybenzoic acid; phases: Crystal, Liquid, Air at 1 atmosphere
Property: Normal melting temperature, K (Crystal); method: DTA
Normal melting temperature, K	uncertainty
431.35	1.1

System: methanol + 2-hydroxybenzoic acid; phases: Liquid, Crystal
Fixed: Pressure, kPa = 101
Property: Mole fraction of 2-hydroxybenzoic acid (Liquid); method: gravimetric analysis
Temperature, K	Mole fraction of 2-hydroxybenzoic acid	uncertainty
283.1	0.09935	0.00133
288.15	0.10781	0.00126
293.15	0.11772	0.0014
298.15	0.12802	0.00153
303.15	0.13937	0.00177
308.15	0.15053	0.00184
313.15	0.16359	0.00208
318.15	0.17681	0.00222
323.15	0.19168	0.00245

System: 2-hydroxybenzoic acid + acetonitrile; phases: Liquid, Crystal
Fixed: Pressure, kPa = 101
Property: Mole fraction of 2-hydroxybenzoic acid (Liquid); method: gravimetric analysis
Temperature, K	Mole fraction of 2-hydroxybenzoic acid	uncertainty
283.1	0.01917	0.00048
288.15	0.02229	0.00049
293.15	0.02549	0.00046
298.15	0.02944	0.00068
303.15	0.03443	0.0005
308.15	0.03896	0.00084
313.15	0.0453	0.00046
318.15	0.05242	0.00084
323.15	0.05937	0.00186

System: acetic acid + 2-hydroxybenzoic acid; phases: Liquid, Crystal
Fixed: Pressure, kPa = 101
Property: Mole fraction of 2-hydroxybenzoic acid (Liquid); method: gravimetric analysis
Temperature, K	Mole fraction of 2-hydroxybenzoic acid	uncertainty
283.1	0.03777	0.00068
288.15	0.04293	0.00054
293.15	0.04838	0.00172
298.15	0.05493	0.00127
303.15	0.06254	0.00145
308.15	0.07111	0.00055
313.15	0.08054	0.00145
318.15	0.09182	0.00113
323.15	0.10424	0.00104

System: acetone + 2-hydroxybenzoic acid; phases: Liquid, Crystal
Fixed: Pressure, kPa = 101
Property: Mole fraction of 2-hydroxybenzoic acid (Liquid); method: gravimetric analysis
Temperature, K	Mole fraction of 2-hydroxybenzoic acid	uncertainty
283.1	0.14625	0.00104
288.15	0.15685	0.00112
293.15	0.16804	0.0012
298.15	0.17924	0.0013
303.15	0.19185	0.00139
308.15	0.20238	0.00148
313.15	0.21504	0.00166
318.15	0.22801	0.00171
323.15	0.24128	0.00184

System: 2-hydroxybenzoic acid + ethyl acetate; phases: Liquid, Crystal
Fixed: Pressure, kPa = 101
Property: Mole fraction of 2-hydroxybenzoic acid (Liquid); method: gravimetric analysis
Temperature, K	Mole fraction of 2-hydroxybenzoic acid	uncertainty
283.1	0.10908	0.00125
288.15	0.11647	0.00217
293.15	0.12514	0.00098
298.15	0.13571	0.00162
303.15	0.14517	0.00235
308.15	0.15656	0.00218
313.15	0.16752	0.00311
318.15	0.17988	0.00349
323.15	0.19215	0.00391

System: 2-hydroxybenzoic acid + water; phases: Liquid, Crystal
Fixed: Pressure, kPa = 101
Property: Mole fraction of 2-hydroxybenzoic acid (Liquid); method: gravimetric analysis
Temperature, K	Mole fraction of 2-hydroxybenzoic acid	uncertainty
283.1	0.00016	2e-05
288.15	0.00018	2e-05
293.15	0.00021	2e-05
298.15	0.00025	4e-05
303.15	0.0003	6e-05
308.15	0.00037	4e-05
313.15	0.00045	4e-05
318.15	0.00055	4e-05
323.15	0.00068	4e-05
