Measured thermophysical data. Activity Coefficients at Infinite Dilution of Polar Solutes in 1-Butyl-3-methylimidazolium Tetrafluoroborate Using Gas-Liquid Chromatography
Source: J. Chem. Eng. Data, 2007, 10.1021/je060305e
Compound 1: methanol, CH4O, InChI=1S/CH4O/c1-2/h2H,1H3, purity 99%
Compound 2: 1-butyl-3-methylimidazolium tetrafluoroborate, C8H15BF4N2, InChI=1S/C8H15N2.BF4/c1-3-4-5-10-7-6-9(2)8-10;2-1(3,4)5/h6-8H,3-5H2,1-2H3;/q+1;-1
Compound 3: ethanol, C2H6O, InChI=1S/C2H6O/c1-2-3/h3H,2H2,1H3, purity 99%
Compound 4: propan-1-ol, C3H8O, InChI=1S/C3H8O/c1-2-3-4/h4H,2-3H2,1H3, purity 99%
Compound 5: butan-1-ol, C4H10O, InChI=1S/C4H10O/c1-2-3-4-5/h5H,2-4H2,1H3, purity 99%
Compound 6: pentan-1-ol, C5H12O, InChI=1S/C5H12O/c1-2-3-4-5-6/h6H,2-5H2,1H3, purity 99%
Compound 7: propan-2-ol, C3H8O, InChI=1S/C3H8O/c1-3(2)4/h3-4H,1-2H3, purity 99%
Compound 8: butan-2-ol, C4H10O, InChI=1S/C4H10O/c1-3-4(2)5/h4-5H,3H2,1-2H3, purity 99%
Compound 9: 3-methylbutan-1-ol, C5H12O, InChI=1S/C5H12O/c1-5(2)3-4-6/h5-6H,3-4H2,1-2H3, purity 99%
Compound 10: dichloromethane, CH2Cl2, InChI=1S/CH2Cl2/c2-1-3/h1H2, purity 99%
Compound 11: trichloromethane, CHCl3, InChI=1S/CHCl3/c2-1(3)4/h1H, purity 99%
Compound 12: tetrachloromethane, CCl4, InChI=1S/CCl4/c2-1(3,4)5, purity 99%
Compound 13: acetone, C3H6O, InChI=1S/C3H6O/c1-3(2)4/h1-2H3, purity 99%
Compound 14: acetonitrile, C2H3N, InChI=1S/C2H3N/c1-2-3/h1H3, purity 99%
Compound 15: ethyl acetate, C4H8O2, InChI=1S/C4H8O2/c1-3-6-4(2)5/h3H2,1-2H3, purity 99%
Compound 16: 1,4-dioxane, C4H8O2, InChI=1S/C4H8O2/c1-2-6-4-3-5-1/h1-4H2, purity 99%
Compound 17: 2-methyl-1-propanol, C4H10O, InChI=1S/C4H10O/c1-4(2)3-5/h4-5H,3H2,1-2H3, purity 99%
Compound 18: cyclohexanone, C6H10O, InChI=1S/C6H10O/c7-6-4-2-1-3-5-6/h1-5H2, purity 99%

System: methanol + 1-butyl-3-methylimidazolium tetrafluoroborate; phases: Liquid, Gas
Fixed: Mole fraction of methanol = 0
Property: Activity coefficient of methanol (Liquid); method: Chromatography
Temperature, K	Activity coefficient of methanol	uncertainty
303.15	0.813	0.068
313.15	0.716	0.061
323.15	0.646	0.056
333.15	0.596	0.053
343.15	0.529	0.048

System: ethanol + 1-butyl-3-methylimidazolium tetrafluoroborate; phases: Liquid, Gas
Fixed: Mole fraction of ethanol = 0
Property: Activity coefficient of ethanol (Liquid); method: Chromatography
Temperature, K	Activity coefficient of ethanol	uncertainty
303.15	1.588	0.135
313.15	1.391	0.117
323.15	1.272	0.106
333.15	1.165	0.097
343.15	1.067	0.088

System: propan-1-ol + 1-butyl-3-methylimidazolium tetrafluoroborate; phases: Liquid, Gas
Fixed: Mole fraction of propan-1-ol = 0
Property: Activity coefficient of propan-1-ol (Liquid); method: Chromatography
Temperature, K	Activity coefficient of propan-1-ol	uncertainty
303.15	2.802	0.242
313.15	2.48	0.214
323.15	2.227	0.192
333.15	1.958	0.168
343.15	1.638	0.139

System: butan-1-ol + 1-butyl-3-methylimidazolium tetrafluoroborate; phases: Liquid, Gas
Fixed: Mole fraction of butan-1-ol = 0
Property: Activity coefficient of butan-1-ol (Liquid); method: Chromatography
Temperature, K	Activity coefficient of butan-1-ol	uncertainty
303.15	4.141	0.357
313.15	3.675	0.317
323.15	3.296	0.284
333.15	2.984	0.257
343.15	2.72	0.234

System: pentan-1-ol + 1-butyl-3-methylimidazolium tetrafluoroborate; phases: Liquid, Gas
Fixed: Mole fraction of pentan-1-ol = 0
Property: Activity coefficient of pentan-1-ol (Liquid); method: Chromatography
Temperature, K	Activity coefficient of pentan-1-ol	uncertainty
303.15	6.957	0.601
313.15	5.906	0.51
323.15	5.153	0.445
333.15	4.561	0.393
343.15	4.004	0.345

System: propan-2-ol + 1-butyl-3-methylimidazolium tetrafluoroborate; phases: Liquid, Gas
Fixed: Mole fraction of propan-2-ol = 0
Property: Activity coefficient of propan-2-ol (Liquid); method: Chromatography
Temperature, K	Activity coefficient of propan-2-ol	uncertainty
303.15	2.628	0.227
313.15	2.222	0.192
323.15	1.861	0.16
333.15	1.661	0.141
343.15	1.532	0.13

System: butan-2-ol + 1-butyl-3-methylimidazolium tetrafluoroborate; phases: Liquid, Gas
Fixed: Mole fraction of butan-2-ol = 0
Property: Activity coefficient of butan-2-ol (Liquid); method: Chromatography
Temperature, K	Activity coefficient of butan-2-ol	uncertainty
303.15	3.848	0.332
313.15	3.439	0.297
323.15	3.116	0.269
333.15	2.792	0.241
343.15	2.562	0.221

System: 3-methylbutan-1-ol + 1-butyl-3-methylimidazolium tetrafluoroborate; phases: Liquid, Gas
Fixed: Mole fraction of 3-methylbutan-1-ol = 0
Property: Activity coefficient of 3-methylbutan-1-ol (Liquid); method: Chromatography
Temperature, K	Activity coefficient of 3-methylbutan-1-ol	uncertainty
303.15	6.628	0.572
313.15	5.736	0.495
323.15	5.079	0.438
333.15	4.532	0.391
343.15	4.075	0.351

System: dichloromethane + 1-butyl-3-methylimidazolium tetrafluoroborate; phases: Liquid, Gas
Fixed: Mole fraction of dichloromethane = 0
Property: Activity coefficient of dichloromethane (Liquid); method: Chromatography
Temperature, K	Activity coefficient of dichloromethane	uncertainty
303.15	1.099	0.091
313.15	1.148	0.095
323.15	1.197	0.099
333.15	1.236	0.103
343.15	1.281	0.107

System: trichloromethane + 1-butyl-3-methylimidazolium tetrafluoroborate; phases: Liquid, Gas
Fixed: Mole fraction of trichloromethane = 0
Property: Activity coefficient of trichloromethane (Liquid); method: Chromatography
Temperature, K	Activity coefficient of trichloromethane	uncertainty
303.15	1.114	0.092
313.15	1.207	0.1
323.15	1.285	0.107
333.15	1.36	0.114
343.15	1.432	0.121

System: tetrachloromethane + 1-butyl-3-methylimidazolium tetrafluoroborate; phases: Liquid, Gas
Fixed: Mole fraction of tetrachloromethane = 0
Property: Activity coefficient of tetrachloromethane (Liquid); method: Chromatography
Temperature, K	Activity coefficient of tetrachloromethane	uncertainty
303.15	5.728	0.494
313.15	6.09	0.526
323.15	6.271	0.541
333.15	6.419	0.554
343.15	6.522	0.563

System: acetone + 1-butyl-3-methylimidazolium tetrafluoroborate; phases: Liquid, Gas
Fixed: Mole fraction of acetone = 0
Property: Activity coefficient of acetone (Liquid); method: Chromatography
Temperature, K	Activity coefficient of acetone	uncertainty
303.15	1.157	0.096
313.15	1.186	0.098
323.15	1.209	0.1
333.15	1.232	0.103
343.15	1.254	0.105

System: acetonitrile + 1-butyl-3-methylimidazolium tetrafluoroborate; phases: Liquid, Gas
Fixed: Mole fraction of acetonitrile = 0
Property: Activity coefficient of acetonitrile (Liquid); method: Chromatography
Temperature, K	Activity coefficient of acetonitrile	uncertainty
303.15	0.734	0.062
313.15	0.742	0.063
323.15	0.752	0.063
333.15	0.757	0.064
343.15	0.768	0.065

System: ethyl acetate + 1-butyl-3-methylimidazolium tetrafluoroborate; phases: Liquid, Gas
Fixed: Mole fraction of ethyl acetate = 0
Property: Activity coefficient of ethyl acetate (Liquid); method: Chromatography
Temperature, K	Activity coefficient of ethyl acetate	uncertainty
303.15	3.301	0.285
313.15	3.338	0.288
323.15	3.357	0.289
333.15	3.386	0.292
343.15	3.408	0.294

System: 1,4-dioxane + 1-butyl-3-methylimidazolium tetrafluoroborate; phases: Liquid, Gas
Fixed: Mole fraction of 1,4-dioxane = 0
Property: Activity coefficient of 1,4-dioxane (Liquid); method: Chromatography
Temperature, K	Activity coefficient of 1,4-dioxane	uncertainty
303.15	1.528	0.129
313.15	1.536	0.13
323.15	1.549	0.131
333.15	1.559	0.132
343.15	1.572	0.133

System: 2-methyl-1-propanol + 1-butyl-3-methylimidazolium tetrafluoroborate; phases: Liquid, Gas
Fixed: Mole fraction of 2-methyl-1-propanol = 0
Property: Activity coefficient of 2-methyl-1-propanol (Liquid); method: Chromatography
Temperature, K	Activity coefficient of 2-methyl-1-propanol	uncertainty
303.15	2.628	0.227
313.15	2.222	0.192
323.15	1.861	0.16
333.15	1.661	0.141
343.15	1.532	0.13

System: cyclohexanone + 1-butyl-3-methylimidazolium tetrafluoroborate; phases: Liquid, Gas
Fixed: Mole fraction of cyclohexanone = 0
Property: Activity coefficient of cyclohexanone (Liquid); method: Chromatography
Temperature, K	Activity coefficient of cyclohexanone	uncertainty
323.15	2.638	0.227
333.15	2.625	0.226
343.15	2.607	0.225
353.15	2.583	0.223
363.15	2.568	0.221
