Measured thermophysical data. High-Pressure Vapor-Liquid Equilibria in the Nitrogen + n-Hexane System
Source: J. Chem. Eng. Data, 2007, 10.1021/je060341d
Compound 1: nitrogen, N2, InChI=1S/N2/c1-2, purity 99.999%
Compound 2: hexane, C6H14, InChI=1S/C6H14/c1-3-5-6-4-2/h3-6H2,1-2H3, purity 99%

System: hexane + nitrogen; phases: Liquid, Gas
Property: Vapor or sublimation pressure, kPa (Liquid); method: Closed cell (Static) method
Mole fraction of nitrogen	Temperature, K	Vapor or sublimation pressure, kPa	uncertainty
0.0111	377.9	960	400
0.0141	411	1360	350
0.0146	344.6	1070	420
0.0162	377.9	1300	390
0.0206	344.6	1510	410
0.0206	488.4	2930	200
0.0239	411	1920	350
0.0276	444.9	2350	220
0.0284	488.4	3180	200
0.0286	377.9	2130	390
0.032	344.6	2280	420
0.0383	377.9	2730	400
0.039	411	2800	340
0.0403	444.9	2950	270
0.0417	488.4	3610	190
0.0454	344.6	3230	440
0.0525	377.9	3690	410
0.0553	411	3670	330
0.0555	488.4	4030	190
0.0566	444.9	3650	260
0.0668	344.6	4830	440
0.0681	488.4	4420	180
0.0753	377.9	5210	410
0.0826	411	5200	350
0.0862	488.4	4950	190
0.0917	444.9	5250	280
0.092	344.6	6670	460
0.1023	377.9	7080	420
0.1068	488.4	5600	180
0.1136	411	7020	350
0.1291	444.9	7000	270
0.1315	488.4	6270	160
0.1366	344.6	10140	480
0.1523	377.9	10480	420
0.177	411	10650	350
0.1788	344.6	13610	490
0.1935	488.4	7810	150
0.2018	377.9	14010	430
0.2126	444.9	10630	270
0.221	344.6	16950	490
0.2295	488.4	8580	130
0.2319	411	13780	340
0.2516	377.9	17470	430
0.2517	488.4	8980	120
0.2615	344.6	20310	510
0.292	444.9	14020	260
0.2978	411	17440	330
0.3014	377.9	20970	420
0.3038	344.6	23870	520
0.3344	444.9	15680	230
0.3455	344.6	27480	550
0.3529	377.9	24370	410
0.3665	411	20930	330
0.3799	344.6	30740	560
0.3894	444.9	17510	210
0.403	377.9	27750	420
0.4194	344.6	34270	530
0.4298	411	24330	280
0.435	444.9	18850	150
0.4555	377.9	31310	390
0.4861	344.6	39840	510
0.5155	444.9	20090	150
0.5162	377.9	34730	330
0.5218	411	27750	240
0.5526	344.6	45060	450
0.5777	411	29240	190
0.5846	377.9	37760	290
0.6207	411	29880	170
0.6274	344.6	49460	390
0.6285	377.9	39230	240
0.6703	344.6	51470	350
0.6704	377.9	40260	240

System: hexane + nitrogen; phases: Gas, Liquid
Property: Mole fraction of nitrogen (Gas); method: Chromatography
Mole fraction of nitrogen	Temperature, K	Mole fraction of nitrogen	uncertainty
0.0111	377.9	0.6698	0.0564
0.0141	411	0.5249	0.0676
0.0146	344.6	0.8649	0.0201
0.0162	377.9	0.7484	0.0543
0.0206	344.6	0.8959	0.0143
0.0206	488.4	0.1316	0.0329
0.0239	411	0.6356	0.0501
0.0276	444.9	0.4557	0.0446
0.0284	488.4	0.1735	0.0276
0.0286	377.9	0.8303	0.0321
0.032	344.6	0.9204	0.0118
0.0383	377.9	0.864	0.0192
0.039	411	0.736	0.0298
0.0403	444.9	0.541	0.0323
0.0417	488.4	0.2267	0.0221
0.0454	344.6	0.9377	0.0082
0.0525	377.9	0.8944	0.0115
0.0553	411	0.7881	0.0154
0.0555	488.4	0.2683	0.0184
0.0566	444.9	0.6071	0.0192
0.0668	344.6	0.9529	0.0067
0.0681	488.4	0.3014	0.0153
0.0753	377.9	0.9186	0.0076
0.0826	411	0.8345	0.0097
0.0862	488.4	0.3378	0.0129
0.0917	444.9	0.6871	0.0133
0.092	344.6	0.9601	0.0061
0.1023	377.9	0.9311	0.0064
0.1068	488.4	0.3692	0.0103
0.1136	411	0.8596	0.0069
0.1291	444.9	0.7316	0.0085
0.1315	488.4	0.3907	0.008
0.1366	344.6	0.9651	0.006
0.1523	377.9	0.9402	0.0061
0.177	411	0.8792	0.0067
0.1788	344.6	0.9649	0.006
0.1935	488.4	0.4059	0.0078
0.2018	377.9	0.9413	0.006
0.2126	444.9	0.7657	0.0069
0.221	344.6	0.9625	0.006
0.2295	488.4	0.3934	0.0083
0.2319	411	0.8817	0.0062
0.2516	377.9	0.9384	0.0061
0.2517	488.4	0.378	0.0087
0.2615	344.6	0.9582	0.006
0.292	444.9	0.7652	0.0065
0.2978	411	0.8769	0.0062
0.3014	377.9	0.9335	0.0061
0.3038	344.6	0.9557	0.006
0.3344	444.9	0.7552	0.0068
0.3455	344.6	0.9521	0.0061
0.3529	377.9	0.9257	0.0061
0.3665	411	0.8662	0.0064
0.3799	344.6	0.948	0.0061
0.3894	444.9	0.7346	0.0072
0.403	377.9	0.9166	0.0063
0.4194	344.6	0.9409	0.0061
0.4298	411	0.8476	0.0067
0.435	444.9	0.7077	0.0079
0.4555	377.9	0.9046	0.0063
0.4861	344.6	0.9282	0.0062
0.5155	444.9	0.6491	0.0083
0.5162	377.9	0.8867	0.0066
0.5218	411	0.8098	0.0071
0.5526	344.6	0.9093	0.0064
0.5777	411	0.7731	0.008
0.5846	377.9	0.8556	0.0069
0.6207	411	0.7298	0.009
0.6274	344.6	0.8784	0.0066
0.6285	377.9	0.8322	0.0074
0.6703	344.6	0.8586	0.0068
0.6704	377.9	0.7946	0.0083
