Measured thermophysical data. Vapor Pressures and Enthalpies of Vaporization of a Series of the 1,3-Alkanediols
Source: J. Chem. Eng. Data, 2007, 10.1021/je060419q
Compound 1: propan-1,3-diol, C3H8O2, InChI=1S/C3H8O2/c4-2-1-3-5/h4-5H,1-3H2, purity 99.98%
Compound 2: 1,3-butanediol, C4H10O2, InChI=1S/C4H10O2/c1-4(6)2-3-5/h4-6H,2-3H2,1H3, purity 99.98%
Compound 3: 2,4-pentanediol, C5H12O2, InChI=1S/C5H12O2/c1-4(6)3-5(2)7/h4-7H,3H2,1-2H3, purity 99.98%
Compound 4: 2-methyl-2,4-pentanediol, C6H14O2, InChI=1S/C6H14O2/c1-5(7)4-6(2,3)8/h5,7-8H,4H2,1-3H3, purity 99.98%
Compound 5: 2,2-dimethyl-1,3-propanediol, C5H12O2, InChI=1S/C5H12O2/c1-5(2,3-6)4-7/h6-7H,3-4H2,1-2H3, purity 99.98%
Compound 6: 2-methyl-1,3-propanediol, C4H10O2, InChI=1S/C4H10O2/c1-4(2-5)3-6/h4-6H,2-3H2,1H3, purity 99.98%

System: propan-1,3-diol; phases: Liquid, Gas
Property: Vapor or sublimation pressure, kPa (Liquid); method: Transpiration method
Temperature, K	Vapor or sublimation pressure, kPa	uncertainty
293.5	0.00186	0.00014
303.2	0.00447	0.00032
309.3	0.00788	0.00056
312.2	0.00997	0.00072
315.3	0.01329	0.00095
318.4	0.01659	0.00119
321.3	0.02168	0.00156
324.3	0.02764	0.00198
327.3	0.03558	0.00254
330.3	0.04372	0.00311
333.5	0.05556	0.00395
336.4	0.06842	0.00487
339.4	0.08464	0.00603
342.3	0.1053	0.00747

System: 1,3-butanediol; phases: Liquid, Gas
Property: Vapor or sublimation pressure, kPa (Liquid); method: Transpiration method
Temperature, K	Vapor or sublimation pressure, kPa	uncertainty
288.3	0.00139	0.0001
290.3	0.00168	0.00012
292.9	0.00235	0.00017
303.5	0.00651	0.00046
308.3	0.00994	0.00071
311.3	0.01301	0.00094
314.3	0.01723	0.00124
317.3	0.02182	0.00157
320.3	0.02852	0.00205
323.3	0.03664	0.00262
326.3	0.04618	0.0033
329.3	0.05855	0.00418
332.3	0.07427	0.00528

System: 2,4-pentanediol; phases: Liquid, Gas
Property: Vapor or sublimation pressure, kPa (Liquid); method: Transpiration method
Temperature, K	Vapor or sublimation pressure, kPa	uncertainty
297.2	0.0048	0.00035
300.2	0.00645	0.00047
303.2	0.0085	0.00061
306.2	0.0111	0.0008
309.2	0.01453	0.00104
312.2	0.01892	0.00135
315.3	0.0239	0.00171
318.4	0.03119	0.00224
321.4	0.04095	0.00296
324.4	0.05507	0.00395
327.5	0.07024	0.005
330.5	0.08735	0.00623
333.4	0.1096	0.0078
336.5	0.1376	0.0098
339.2	0.1648	0.0118
344.4	0.2419	0.0171
347.3	0.2929	0.0207

System: 2-methyl-2,4-pentanediol; phases: Liquid, Gas
Property: Vapor or sublimation pressure, kPa (Liquid); method: Transpiration method
Temperature, K	Vapor or sublimation pressure, kPa	uncertainty
285.2	0.0025	0.00018
287.9	0.00333	0.00024
291.2	0.00474	0.00034
294.2	0.00648	0.00047
297.2	0.00858	0.00062
300.2	0.01147	0.00082
303.2	0.01471	0.00106
306.5	0.01997	0.00143
309.4	0.02565	0.00184
312.5	0.03274	0.00234
315.2	0.04092	0.00293
318.2	0.05208	0.00371
321.2	0.06475	0.00462
323.3	0.07752	0.00552
326.3	0.09448	0.00675
329.4	0.1239	0.00883

System: 2,2-dimethyl-1,3-propanediol; phases: Crystal 1, Gas
Property: Vapor or sublimation pressure, kPa (Crystal 1); method: Transpiration method
Temperature, K	Vapor or sublimation pressure, kPa	uncertainty
314.3	0.01057	0.00077
317.3	0.01416	0.00102
320.2	0.01849	0.00133
323.4	0.02447	0.00175
326.4	0.03147	0.00226
329.4	0.04056	0.00291
332.3	0.05153	0.0037
335.3	0.06721	0.00481
338.2	0.08442	0.00602
341.2	0.1056	0.0075
344.2	0.1314	0.0094
347.2	0.1654	0.0117

System: 2,2-dimethyl-1,3-propanediol; phases: Crystal 2, Gas
Property: Vapor or sublimation pressure, kPa (Crystal 2); method: Transpiration method
Temperature, K	Vapor or sublimation pressure, kPa	uncertainty
283.9	0.00029	2e-05
288.5	0.00052	4e-05
291.2	0.00074	6e-05
295.2	0.00119	9e-05
298.4	0.00174	0.00013
301.7	0.00261	0.00019
304.7	0.00367	0.00027
307.9	0.00535	0.00039
309.4	0.00615	0.00044
311.3	0.00735	0.00053

System: 2-methyl-1,3-propanediol; phases: Liquid, Gas
Property: Vapor or sublimation pressure, kPa (Liquid); method: Transpiration method
Temperature, K	Vapor or sublimation pressure, kPa	uncertainty
297.3	0.00204	0.00015
300.4	0.00285	0.00021
303.4	0.00364	0.00026
306.4	0.0049	0.00036
309.4	0.00661	0.00048
312.4	0.00841	0.0006
312.5	0.00861	0.00061
314.5	0.00996	0.00072
316.4	0.01205	0.00086
318.5	0.0141	0.00101
319.5	0.01551	0.00112
321.4	0.01842	0.00132
322.5	0.01984	0.00142
323.5	0.02169	0.00155
323.6	0.02202	0.00157
326.4	0.02689	0.00192
326.6	0.02817	0.00201
328.5	0.03259	0.00233
328.6	0.03396	0.00243
331.4	0.04115	0.00292
333.4	0.0469	0.00335
336.3	0.05931	0.00425
338.6	0.07262	0.00517
341.4	0.08656	0.00612
342.6	0.09448	0.00685
343.5	0.1068	0.00793
347.6	0.1379	0.00976
349.3	0.1589	0.01128
352.5	0.1921	0.01364
355.4	0.2407	0.01701
357.5	0.2643	0.01854
