Measured thermophysical data. Refractive Index, Surface Tension, and Density of Aqueous Mixtures of Carboxylic Acids at 298.15 K
Source: J. Chem. Eng. Data, 2006, 10.1021/je060084c
Compound 1: formic acid, CH2O2, InChI=1S/CH2O2/c2-1-3/h1H,(H,2,3)
Compound 2: acetic acid, C2H4O2, InChI=1S/C2H4O2/c1-2(3)4/h1H3,(H,3,4)
Compound 3: propanoic acid, C3H6O2, InChI=1S/C3H6O2/c1-2-3(4)5/h2H2,1H3,(H,4,5)
Compound 4: butanoic acid, C4H8O2, InChI=1S/C4H8O2/c1-2-3-4(5)6/h2-3H2,1H3,(H,5,6)
Compound 5: water, H2O, InChI=1S/H2O/h1H2

System: formic acid; phases: Liquid
Property: Refractive index (Na D-line) (Liquid); method: Standard Abbe refractometry
Temperature, K	Pressure, kPa	Refractive index (Na D-line)	uncertainty
298.15	101.325	1.37459	0.00078

System: formic acid; phases: Liquid
Property: Mass density, kg/m3 (Liquid); method: VIBTUB:UFactor:8
Temperature, K	Pressure, kPa	Mass density, kg/m3	uncertainty
298.15	101.325	1211.29	1.54

System: formic acid; phases: Liquid, Gas
Property: Surface tension liquid-gas, N/m (Liquid); method: DROPV:UFactor:2
Temperature, K	Surface tension liquid-gas, N/m	uncertainty
298.15	0.03817	0.00053

System: acetic acid; phases: Liquid
Property: Refractive index (Na D-line) (Liquid); method: Standard Abbe refractometry
Temperature, K	Pressure, kPa	Refractive index (Na D-line)	uncertainty
298.15	101.325	1.36969	0.00068

System: acetic acid; phases: Liquid
Property: Mass density, kg/m3 (Liquid); method: VIBTUB:UFactor:8
Temperature, K	Pressure, kPa	Mass density, kg/m3	uncertainty
298.15	101.325	1043.95	0.42

System: acetic acid; phases: Liquid, Gas
Property: Surface tension liquid-gas, N/m (Liquid); method: DROPV:UFactor:2
Temperature, K	Surface tension liquid-gas, N/m	uncertainty
298.15	0.02708	0.0003

System: propanoic acid; phases: Liquid
Property: Refractive index (Na D-line) (Liquid); method: Standard Abbe refractometry
Temperature, K	Pressure, kPa	Refractive index (Na D-line)	uncertainty
298.15	101.325	1.38484	0.00068

System: propanoic acid; phases: Liquid
Property: Mass density, kg/m3 (Liquid); method: VIBTUB:UFactor:8
Temperature, K	Pressure, kPa	Mass density, kg/m3	uncertainty
298.15	101.325	988.33	0.41

System: propanoic acid; phases: Liquid, Gas
Property: Surface tension liquid-gas, N/m (Liquid); method: DROPV:UFactor:2
Temperature, K	Surface tension liquid-gas, N/m	uncertainty
298.15	0.02615	0.0003

System: butanoic acid; phases: Liquid
Property: Refractive index (Na D-line) (Liquid); method: Standard Abbe refractometry
Temperature, K	Pressure, kPa	Refractive index (Na D-line)	uncertainty
298.15	101.325	1.39599	0.00068

System: butanoic acid; phases: Liquid
Property: Mass density, kg/m3 (Liquid); method: VIBTUB:UFactor:8
Temperature, K	Pressure, kPa	Mass density, kg/m3	uncertainty
298.15	101.325	953.17	0.48

System: butanoic acid; phases: Liquid, Gas
Property: Surface tension liquid-gas, N/m (Liquid); method: DROPV:UFactor:2
Temperature, K	Surface tension liquid-gas, N/m	uncertainty
298.15	0.02619	0.0003

System: formic acid + water; phases: Liquid, Gas
Fixed: Temperature, K = 298.15
Property: Surface tension liquid-gas, N/m (Liquid); method: DROPV:UFactor:6
Mole fraction of formic acid	Surface tension liquid-gas, N/m	uncertainty
0.0007	0.07148	0.00163
0.0015	0.07114	0.00162
0.0028	0.07065	0.00162
0.0067	0.06945	0.0016
0.0106	0.06859	0.00158
0.0154	0.06753	0.00156
0.0277	0.06546	0.00153
0.0442	0.06313	0.00149
0.0755	0.05992	0.00144
0.1098	0.05729	0.0014
0.1539	0.05523	0.00137
0.204	0.05274	0.00133
0.3004	0.04918	0.00127
0.4178	0.04725	0.00125
0.5101	0.04573	0.00123
0.6133	0.04341	0.0012
0.7058	0.04142	0.00118
0.8162	0.04012	0.00116
0.8967	0.03913	0.00116

System: formic acid + water; phases: Liquid
Fixed: Temperature, K = 298.15
Fixed: Pressure, kPa = 101
Property: Refractive index (Na D-line) (Liquid); method: Standard Abbe refractometry
Mole fraction of formic acid	Refractive index (Na D-line)	uncertainty
0.0007	1.33265	0.00068
0.0015	1.33269	0.00068
0.0028	1.33271	0.00068
0.0067	1.33343	0.00068
0.0106	1.3344	0.00068
0.0154	1.33496	0.00068
0.0277	1.33633	0.00068
0.0538	1.33912	0.00068
0.1098	1.34454	0.00068
0.1539	1.34829	0.00068
0.204	1.35223	0.00068
0.3004	1.35863	0.00069
0.4178	1.36478	0.0007
0.5101	1.36885	0.00071
0.6133	1.3722	0.00072
0.7058	1.37444	0.00073
0.8162	1.37543	0.00075
0.8967	1.37543	0.00076

System: formic acid + water; phases: Liquid
Fixed: Temperature, K = 298.15
Fixed: Pressure, kPa = 101
Property: Mass density, kg/m3 (Liquid); method: VIBTUB:UFactor:8
Mole fraction of formic acid	Mass density, kg/m3	uncertainty
0.0007	997.52	0.33
0.0015	998.02	0.34
0.0028	998.79	0.33
0.0067	1001.27	0.33
0.0106	1003.6	0.34
0.0154	1006.31	0.34
0.0277	1013.84	0.35
0.0538	1026.93	0.38
0.1098	1052.76	0.46
0.1539	1069.49	0.51
0.204	1086.51	0.57
0.3004	1114.3	0.7
0.4178	1141.55	0.85
0.5101	1158.59	0.96
0.6133	1174.83	1.08
0.7058	1187.06	1.19
0.8162	1198.4	1.32
0.8967	1204.13	1.41

System: acetic acid + water; phases: Liquid, Gas
Fixed: Temperature, K = 298.15
Property: Surface tension liquid-gas, N/m (Liquid); method: DROPV:UFactor:2
Mole fraction of acetic acid	Surface tension liquid-gas, N/m	uncertainty
0.0001	0.07179	0.00055
0.0005	0.07118	0.00057
0.0007	0.07104	0.00057
0.0008	0.07084	0.00057
0.0012	0.07037	0.0006
0.006	0.06617	0.00053
0.0066	0.06576	0.00053
0.0119	0.06257	0.00051
0.0138	0.06157	0.0005
0.0234	0.05826	0.00048
0.0257	0.05745	0.00047
0.0404	0.05314	0.00045
0.0516	0.05064	0.00043
0.0746	0.04725	0.00041
0.1086	0.04343	0.00039
0.1108	0.04339	0.00039
0.1513	0.04012	0.00037
0.1814	0.03924	0.00037
0.2288	0.03817	0.00036
0.3053	0.0365	0.00035
0.4129	0.0348	0.00034
0.516	0.03323	0.00034
0.6068	0.03187	0.00033
0.7035	0.03032	0.00032
0.8067	0.02932	0.00031
0.9076	0.02842	0.00031

System: acetic acid + water; phases: Liquid
Fixed: Temperature, K = 298.15
Fixed: Pressure, kPa = 101
Property: Refractive index (Na D-line) (Liquid); method: Standard Abbe refractometry
Mole fraction of acetic acid	Refractive index (Na D-line)	uncertainty
0.0007	1.33285	0.00068
0.0012	1.33312	0.00068
0.006	1.33422	0.00068
0.0119	1.33576	0.00068
0.0257	1.33874	0.00068
0.0516	1.34364	0.00068
0.1108	1.35281	0.00068
0.1513	1.35708	0.00068
0.1814	1.36009	0.00068
0.2288	1.36386	0.00068
0.3053	1.36818	0.00068
0.4129	1.3723	0.00068
0.516	1.37456	0.00068
0.6068	1.37543	0.00068
0.7035	1.37543	0.00068
0.8067	1.37459	0.00068
0.9076	1.37257	0.00068

System: acetic acid + water; phases: Liquid
Fixed: Temperature, K = 298.15
Fixed: Pressure, kPa = 101
Property: Mass density, kg/m3 (Liquid); method: VIBTUB:UFactor:8
Mole fraction of acetic acid	Mass density, kg/m3	uncertainty
0.0007	997.41	0.32
0.0012	997.88	0.31
0.006	998.92	0.31
0.0119	1000.78	0.31
0.0257	1004.39	0.32
0.0516	1011.91	0.34
0.1108	1031.57	0.38
0.1513	1040.9	0.4
0.1814	1046.55	0.42
0.2288	1052.46	0.43
0.3053	1058.74	0.45
0.4129	1063.49	0.46
0.516	1064.54	0.46
0.6068	1063.64	0.46
0.7035	1061.07	0.46
0.8067	1057	0.45
0.9076	1051.89	0.44

System: propanoic acid + water; phases: Liquid, Gas
Fixed: Temperature, K = 298.15
Property: Surface tension liquid-gas, N/m (Liquid); method: DROPV:UFactor:2
Mole fraction of propanoic acid	Surface tension liquid-gas, N/m	uncertainty
0.0008	0.06852	0.0007
0.0016	0.06647	0.00065
0.0029	0.06366	0.00062
0.0044	0.06098	0.0006
0.0064	0.05791	0.00054
0.0103	0.05354	0.00048
0.0179	0.04816	0.00043
0.0272	0.04412	0.0004
0.047	0.03889	0.00037
0.0618	0.03693	0.00036
0.0989	0.03471	0.00034
0.2016	0.03225	0.00033
0.3008	0.03112	0.00032
0.4003	0.03019	0.00032
0.5009	0.02936	0.00032
0.6039	0.02856	0.00031
0.702	0.02791	0.00031
0.7666	0.02752	0.00031
0.8784	0.02692	0.00031

System: propanoic acid + water; phases: Liquid
Fixed: Temperature, K = 298.15
Fixed: Pressure, kPa = 101
Property: Refractive index (Na D-line) (Liquid); method: Standard Abbe refractometry
Mole fraction of propanoic acid	Refractive index (Na D-line)	uncertainty
0.0008	1.33292	0.00068
0.0016	1.33304	0.00068
0.0029	1.33367	0.00068
0.0044	1.33422	0.00068
0.0064	1.33485	0.00068
0.0103	1.33606	0.00068
0.0179	1.3385	0.00068
0.0272	1.34145	0.00068
0.047	1.34689	0.00068
0.0618	1.35074	0.00068
0.0989	1.35796	0.00068
0.2016	1.37093	0.00068
0.3008	1.3784	0.00068
0.4003	1.38294	0.00068
0.5009	1.38564	0.00068
0.6039	1.3869	0.00068
0.702	1.38721	0.00068
0.7666	1.38709	0.00068
0.8784	1.38599	0.00068

System: propanoic acid + water; phases: Liquid
Fixed: Temperature, K = 298.15
Fixed: Pressure, kPa = 101
Property: Mass density, kg/m3 (Liquid); method: VIBTUB:UFactor:32
Mole fraction of propanoic acid	Mass density, kg/m3	uncertainty
0.0008	997.47	1.03
0.0016	997.64	1.03
0.0029	998.15	1.02
0.0044	998.68	1.01
0.0064	999.29	1
0.0103	1000.6	1
0.0179	1002.71	1.03
0.0272	1005.51	1.06
0.047	1006.86	1.08
0.0618	1008.97	1.11
0.0989	1017.17	1.21
0.2016	1022.07	1.27
0.3008	1021.51	1.26
0.4003	1018.87	1.23
0.5009	1014.33	1.18
0.6039	1010.12	1.13
0.702	1005.03	1.07
0.7666	1002.83	1.05
0.8784	996.68	1.06

System: butanoic acid + water; phases: Liquid, Gas
Fixed: Temperature, K = 298.15
Property: Surface tension liquid-gas, N/m (Liquid); method: DROPV:UFactor:2
Mole fraction of butanoic acid	Surface tension liquid-gas, N/m	uncertainty
4e-05	0.07112	0.00059
0.0001	0.07047	0.00078
0.0006	0.06632	0.00114
0.0016	0.06032	0.00098
0.0028	0.05512	0.001
0.0056	0.04634	0.00069
0.0075	0.04212	0.00046
0.0136	0.03588	0.00038
0.0201	0.03194	0.00034
0.0299	0.02924	0.00031
0.048	0.02848	0.00031
0.0596	0.02835	0.00031
0.0865	0.02823	0.00031
0.1034	0.02815	0.00031
0.2033	0.02792	0.00031
0.2997	0.02773	0.00031
0.381	0.02766	0.00031
0.5038	0.02756	0.00031
0.5763	0.02742	0.00031
0.7036	0.02713	0.00031
0.8019	0.0269	0.00031
0.9189	0.02651	0.0003

System: butanoic acid + water; phases: Liquid
Fixed: Temperature, K = 298.15
Fixed: Pressure, kPa = 101
Property: Refractive index (Na D-line) (Liquid); method: Standard Abbe refractometry
Mole fraction of butanoic acid	Refractive index (Na D-line)	uncertainty
4e-05	1.33256	0.00068
0.0001	1.33259	0.00068
0.0006	1.33282	0.00068
0.0016	1.33325	0.00068
0.0056	1.33514	0.00068
0.0136	1.33877	0.00068
0.0201	1.34064	0.00068
0.0299	1.34506	0.00068
0.048	1.35064	0.00068
0.0596	1.35359	0.00068
0.0865	1.35959	0.00068
0.1034	1.36283	0.00068
0.2033	1.37695	0.00068
0.2997	1.38524	0.00068
0.381	1.38923	0.00068
0.5038	1.3933	0.00068
0.5763	1.39471	0.00068
0.7036	1.39625	0.00068
0.8019	1.39667	0.00068
0.9189	1.39654	0.00068

System: butanoic acid + water; phases: Liquid
Fixed: Temperature, K = 298.15
Fixed: Pressure, kPa = 101
Property: Mass density, kg/m3 (Liquid); method: VIBTUB:UFactor:8
Mole fraction of butanoic acid	Mass density, kg/m3	uncertainty
4e-05	997.14	0.31
0.0001	997.28	0.31
0.0006	997.35	0.31
0.0016	997.39	0.31
0.0056	998.24	0.31
0.0136	999.83	0.31
0.0201	1000.84	0.31
0.0299	1001.79	0.31
0.048	1001.61	0.31
0.0596	1000.55	0.31
0.0865	998.76	0.31
0.1034	997.68	0.31
0.2033	992.5	0.33
0.2997	987.71	0.34
0.381	983.12	0.36
0.5038	977.2	0.38
0.5763	973.62	0.39
0.7036	967.47	0.42
0.8019	962.35	0.44
0.9189	957.18	0.46
