Measured thermophysical data. Liquid-Liquid Equilibria of the Ternary System Water + Acetic Acid + Methyl tert-Butyl Ether
Source: J. Chem. Eng. Data, 2007, 10.1021/je060409p
Compound 1: water, H2O, InChI=1S/H2O/h1H2
Compound 2: acetic acid, C2H4O2, InChI=1S/C2H4O2/c1-2(3)4/h1H3,(H,3,4)
Compound 3: 2-methoxy-2-methylpropane, C5H12O, InChI=1S/C5H12O/c1-5(2,3)6-4/h1-4H3

System: acetic acid + 2-methoxy-2-methylpropane + water; phases: Liquid mixture 1, Liquid mixture 2
Fixed: Pressure, kPa = 101
Property: Mass fraction of acetic acid (Liquid mixture 1); method: CHROM:UFactor:4
Property: Mass fraction of acetic acid (Liquid mixture 2); method: CHROM:UFactor:4
Property: Mass fraction of water (Liquid mixture 2); method: CHROM:UFactor:4
Temperature, K	Mass fraction of water	Mass fraction of acetic acid	uncertainty	Mass fraction of acetic acid	uncertainty	Mass fraction of water	uncertainty
293.15	0.0122	0	0.0001	0	0.0001	0.9509	
293.15	0.0261	0.0502	0.002	0.0496	0.002	0.8998	
293.15	0.0407	0.1102	0.0044	0.1132	0.0045	0.8323	
293.15	0.0744	0.172	0.0069	0.1609	0.0064	0.7796	
293.15	0.1068	0.2381	0.0096	0.2039	0.0082	0.7236	
293.15	0.1604	0.2744	0.011	0.2639	0.0106	0.6386	
293.15	0.2517	0.3282	0.0131	0.3104	0.0124	0.5242	
293.15	0.2939	0.3311	0.0132	0.3184	0.0127	0.4724	
293.15	0.3333	0.3328	0.0133	0.322	0.0129	0.4459	
298.15	0.0116	0	0.0001	0	0.0001	0.9548	
298.15	0.0259	0.0463	0.0019	0.0476	0.0019	0.9062	
298.15	0.0393	0.1123	0.0045	0.1071	0.0043	0.8384	
298.15	0.0721	0.1793	0.0072	0.1524	0.0061	0.7899	
298.15	0.1068	0.2554	0.0102	0.2251	0.009	0.695	
298.15	0.162	0.2937	0.0117	0.2686	0.0107	0.6253	
298.15	0.2357	0.33	0.0132	0.3174	0.0127	0.5302	
298.15	0.3065	0.3343	0.0134	0.3248	0.013	0.4505	
298.15	0.3341	0.3372	0.0135	0.3281	0.0131	0.4247	
303.15	0.0115	0	0.0001	0	0.0001	0.9563	
303.15	0.0309	0.0719	0.0029	0.0841	0.0034	0.8675	
303.15	0.0412	0.1149	0.0046	0.1265	0.0051	0.8229	
303.15	0.0687	0.176	0.007	0.1737	0.0069	0.7666	
303.15	0.1031	0.2316	0.0093	0.2411	0.0096	0.6736	
303.15	0.1554	0.2788	0.0112	0.2739	0.011	0.63	
303.15	0.2427	0.3247	0.013	0.3074	0.0123	0.5449	
303.15	0.3117	0.3297	0.0132	0.3248	0.013	0.4705	
303.15	0.3643	0.3354	0.0134	0.3322	0.0133	0.4133	
308.15	0.0108	0	0.0001	0	0.0001	0.9602	
308.15	0.0242	0.0482	0.0019	0.0457	0.0018	0.9143	
308.15	0.0372	0.1269	0.0051	0.106	0.0042	0.8482	
308.15	0.0682	0.1695	0.0068	0.1654	0.0066	0.7825	
308.15	0.1035	0.2273	0.0091	0.2211	0.0088	0.7127	
308.15	0.1476	0.2854	0.0114	0.2642	0.0106	0.6461	
308.15	0.2162	0.317	0.0127	0.2995	0.012	0.5637	
308.15	0.2793	0.3381	0.0135	0.3237	0.0129	0.4946	
308.15	0.3238	0.3449	0.0138	0.3331	0.0133	0.453	
313.15	0.0097	0	0.0001	0	0.0001	0.9675	
313.15	0.0246	0.049	0.002	0.051	0.002	0.9152	
313.15	0.0414	0.1112	0.0045	0.1109	0.0044	0.8505	
313.15	0.0685	0.1719	0.0069	0.1584	0.0063	0.7926	
313.15	0.1145	0.2537	0.0101	0.236	0.0094	0.6963	
313.15	0.1788	0.3004	0.012	0.2801	0.0112	0.6105	
313.15	0.2752	0.3322	0.0133	0.3199	0.0128	0.505	
313.15	0.3356	0.3371	0.0135	0.3302	0.0132	0.4235	
318.15	0.0087	0	0.0001	0	0.0001	0.97	
318.15	0.023	0.0494	0.002	0.0504	0.002	0.9177	
318.15	0.0384	0.1012	0.0041	0.1055	0.0042	0.8567	
318.15	0.0735	0.1844	0.0074	0.1744	0.007	0.7746	
318.15	0.0984	0.2285	0.0091	0.2075	0.0083	0.7315	
318.15	0.174	0.3028	0.0121	0.2838	0.0114	0.6118	
318.15	0.2682	0.3321	0.0133	0.3266	0.0131	0.496	
318.15	0.3069	0.3366	0.0135	0.3301	0.0132	0.4493	
