Measured thermophysical data. Ethanol + 2-Methyl-1-butanol + Calcium Chloride System: Vapor-Liquid Equilibrium Data and Correlation Using the NRTL Electrolyte Model
Source: J. Chem. Eng. Data, 2007, 10.1021/je060399s
Compound 1: 2-methyl-1-butanol, C5H12O, InChI=1S/C5H12O/c1-3-5(2)4-6/h5-6H,3-4H2,1-2H3, purity 99%
Compound 2: ethanol, C2H6O, InChI=1S/C2H6O/c1-2-3/h3H,2H2,1H3, purity 99.8%
Compound 3: calcium chloride, CaCl2, InChI=1S/Ca.2ClH/h;2*1H/q+2;;/p-2, purity 95%

System: ethanol + 2-methyl-1-butanol + calcium chloride; phases: Liquid, Gas
Property: Boiling temperature at pressure P, K (Liquid); method: Ebulliometric method (Recirculating still)
Pressure, kPa	Mole fraction of ethanol	Mole fraction of 2-methyl-1-butanol	Boiling temperature at pressure P, K	uncertainty
33.3	0.024	0.896	374.35	0.7
33.3	0.058	0.919	367.95	0.7
33.3	0.059	0.933	366.85	0.7
33.3	0.11	0.867	362.15	0.6
33.3	0.116	0.807	363.25	0.5
33.3	0.136	0.857	358.95	0.6
33.3	0.172	0.754	358.05	0.5
33.3	0.217	0.762	353.25	0.6
33.3	0.233	0.76	350.75	0.6
33.3	0.246	0.682	352.45	0.5
33.3	0.306	0.674	347.45	0.4
33.3	0.354	0.579	346.05	0.4
33.3	0.369	0.624	343.15	0.4
33.3	0.398	0.536	343.85	0.4
33.3	0.417	0.564	341.95	0.4
33.3	0.423	0.571	341.35	0.4
33.3	0.498	0.484	338.85	0.5
33.3	0.534	0.46	336.75	0.5
33.3	0.549	0.391	337.55	0.4
33.3	0.568	0.426	335.75	0.4
33.3	0.612	0.371	335.05	0.3
33.3	0.637	0.307	334.65	0.3
33.3	0.686	0.259	333.35	0.3
33.3	0.701	0.283	332.55	0.3
33.3	0.745	0.25	331.25	0.3
33.3	0.838	0.148	328.85	0.6
33.3	0.864	0.131	328.35	0.6
101.3	0.023	0.897	404.45	0.8
101.3	0.023	0.953	402.35	0.9
101.3	0.032	0.96	399.45	1.2
101.3	0.052	0.94	396.55	1
101.3	0.071	0.851	398.05	0.7
101.3	0.075	0.902	395.35	0.8
101.3	0.137	0.787	389.95	0.5
101.3	0.141	0.837	388.15	0.7
101.3	0.174	0.819	383.75	0.7
101.3	0.195	0.731	384.35	0.5
101.3	0.26	0.719	378.55	0.5
101.3	0.298	0.632	377.45	0.4
101.3	0.304	0.689	374.35	0.5
101.3	0.349	0.631	373.25	0.4
101.3	0.378	0.615	370.85	0.4
101.3	0.394	0.54	371.45	0.4
101.3	0.408	0.573	370.15	0.4
101.3	0.483	0.511	366.35	0.4
101.3	0.516	0.478	364.65	0.4
101.3	0.521	0.418	366.15	0.4
101.3	0.613	0.33	362.65	0.3
101.3	0.651	0.344	360.45	0.3
101.3	0.67	0.314	360.25	0.3
101.3	0.715	0.232	359.25	0.3
101.3	0.776	0.209	357.35	0.3
101.3	0.799	0.186	356.65	0.4
101.3	0.835	0.16	355.15	0.4

System: ethanol + 2-methyl-1-butanol + calcium chloride; phases: Gas, Liquid
Property: Mole fraction of ethanol (Gas); method: Chromatography
Pressure, kPa	Mole fraction of ethanol	Mole fraction of 2-methyl-1-butanol	Mole fraction of ethanol	uncertainty
33.3	0.024	0.896	0.178	0.017
33.3	0.058	0.919	0.353	0.028
33.3	0.059	0.933	0.33	0.028
33.3	0.11	0.867	0.536	0.011
33.3	0.116	0.807	0.572	0.011
33.3	0.136	0.857	0.575	0.011
33.3	0.172	0.754	0.691	0.01
33.3	0.217	0.762	0.742	0.008
33.3	0.233	0.76	0.741	0.008
33.3	0.246	0.682	0.788	0.007
33.3	0.306	0.674	0.833	0.007
33.3	0.354	0.579	0.872	0.006
33.3	0.369	0.624	0.857	0.006
33.3	0.398	0.536	0.893	0.005
33.3	0.417	0.564	0.898	0.01
33.3	0.423	0.571	0.882	0.01
33.3	0.498	0.484	0.931	0.005
33.3	0.534	0.46	0.926	0.005
33.3	0.549	0.391	0.939	0.005
33.3	0.568	0.426	0.937	0.004
33.3	0.612	0.371	0.957	0.004
33.3	0.637	0.307	0.961	0.004
33.3	0.686	0.259	0.97	0.004
33.3	0.701	0.283	0.972	0.004
33.3	0.745	0.25	0.969	0.004
33.3	0.838	0.148	0.987	0.005
33.3	0.864	0.131	0.986	0.005
101.3	0.023	0.897	0.171	0.017
101.3	0.023	0.953	0.149	0.018
101.3	0.032	0.96	0.189	0.02
101.3	0.052	0.94	0.277	0.017
101.3	0.071	0.851	0.412	0.011
101.3	0.075	0.902	0.385	0.018
101.3	0.137	0.787	0.602	0.01
101.3	0.141	0.837	0.568	0.013
101.3	0.174	0.819	0.603	0.01
101.3	0.195	0.731	0.709	0.009
101.3	0.26	0.719	0.749	0.008
101.3	0.298	0.632	0.811	0.007
101.3	0.304	0.689	0.772	0.007
101.3	0.349	0.631	0.822	0.006
101.3	0.378	0.615	0.829	0.006
101.3	0.394	0.54	0.876	0.006
101.3	0.408	0.573	0.859	0.006
101.3	0.483	0.511	0.881	0.006
101.3	0.516	0.478	0.894	0.006
101.3	0.521	0.418	0.93	0.005
101.3	0.613	0.33	0.949	0.005
101.3	0.651	0.344	0.939	0.005
101.3	0.67	0.314	0.952	0.005
101.3	0.715	0.232	0.97	0.004
101.3	0.776	0.209	0.972	0.004
101.3	0.799	0.186	0.976	0.005
101.3	0.835	0.16	0.977	0.005

System: ethanol + 2-methyl-1-butanol + calcium chloride; phases: Gas, Liquid
Property: Mole fraction of 2-methyl-1-butanol (Gas); method: Chromatography
Pressure, kPa	Mole fraction of ethanol	Mole fraction of 2-methyl-1-butanol	Mole fraction of 2-methyl-1-butanol	uncertainty
33.3	0.024	0.896	0.822	0.018
33.3	0.058	0.919	0.647	0.029
33.3	0.059	0.933	0.67	0.029
33.3	0.11	0.867	0.464	0.01
33.3	0.116	0.807	0.428	0.01
33.3	0.136	0.857	0.425	0.009
33.3	0.172	0.754	0.309	0.008
33.3	0.217	0.762	0.258	0.006
33.3	0.233	0.76	0.259	0.006
33.3	0.246	0.682	0.212	0.006
33.3	0.306	0.674	0.167	0.005
33.3	0.354	0.579	0.128	0.004
33.3	0.369	0.624	0.143	0.005
33.3	0.398	0.536	0.107	0.004
33.3	0.417	0.564	0.102	0.01
33.3	0.423	0.571	0.118	0.01
33.3	0.498	0.484	0.069	0.004
33.3	0.534	0.46	0.074	0.004
33.3	0.549	0.391	0.061	0.004
33.3	0.568	0.426	0.063	0.004
33.3	0.612	0.371	0.043	0.004
33.3	0.637	0.307	0.039	0.004
33.3	0.686	0.259	0.03	0.004
33.3	0.701	0.283	0.028	0.004
33.3	0.745	0.25	0.031	0.004
33.3	0.838	0.148	0.013	0.005
33.3	0.864	0.131	0.014	0.005
101.3	0.023	0.897	0.829	0.018
101.3	0.023	0.953	0.851	0.018
101.3	0.032	0.96	0.811	0.02
101.3	0.052	0.94	0.723	0.018
101.3	0.071	0.851	0.588	0.013
101.3	0.075	0.902	0.615	0.019
101.3	0.137	0.787	0.398	0.008
101.3	0.141	0.837	0.432	0.012
101.3	0.174	0.819	0.397	0.008
101.3	0.195	0.731	0.291	0.007
101.3	0.26	0.719	0.251	0.006
101.3	0.298	0.632	0.189	0.005
101.3	0.304	0.689	0.228	0.006
101.3	0.349	0.631	0.178	0.005
101.3	0.378	0.615	0.171	0.005
101.3	0.394	0.54	0.124	0.005
101.3	0.408	0.573	0.141	0.005
101.3	0.483	0.511	0.119	0.005
101.3	0.516	0.478	0.106	0.005
101.3	0.521	0.418	0.07	0.005
101.3	0.613	0.33	0.051	0.004
101.3	0.651	0.344	0.061	0.005
101.3	0.67	0.314	0.048	0.005
101.3	0.715	0.232	0.03	0.004
101.3	0.776	0.209	0.028	0.004
101.3	0.799	0.186	0.024	0.005
101.3	0.835	0.16	0.023	0.005
