Measured thermophysical data. Viscosities, Densities, and Speeds of Sound of Binary Mixtures of Benzene, Toluene, o-Xylene, m-Xylene, p-Xylene, and Mesitylene with Anisole at (288.15, 293.15, 298.15, and 303.15) K
Source: J. Chem. Eng. Data, 2006, 10.1021/je060170c
Compound 1: benzene, C6H6, InChI=1S/C6H6/c1-2-4-6-5-3-1/h1-6H
Compound 2: toluene, C7H8, InChI=1S/C7H8/c1-7-5-3-2-4-6-7/h2-6H,1H3
Compound 3: 1,2-dimethylbenzene, C8H10, InChI=1S/C8H10/c1-7-5-3-4-6-8(7)2/h3-6H,1-2H3
Compound 4: 1,3-dimethylbenzene, C8H10, InChI=1S/C8H10/c1-7-4-3-5-8(2)6-7/h3-6H,1-2H3
Compound 5: 1,4-dimethylbenzene, C8H10, InChI=1S/C8H10/c1-7-3-5-8(2)6-4-7/h3-6H,1-2H3
Compound 6: 1,3,5-trimethylbenzene, C9H12, InChI=1S/C9H12/c1-7-4-8(2)6-9(3)5-7/h4-6H,1-3H3
Compound 7: anisole, C7H8O, InChI=1S/C7H8O/c1-8-7-5-3-2-4-6-7/h2-6H,1H3

System: benzene; phases: Liquid
Fixed: Pressure, kPa = 101
Property: Viscosity, Pa*s (Liquid); method: OTHER::sMethod:Anton Paar Stabinger viscometer
Temperature, K	Viscosity, Pa*s	uncertainty
288.15	0.000709	1.5e-05
293.15	0.000648	1.3e-05
298.15	0.000604	1.2e-05
303.15	0.000571	1.2e-05

System: benzene; phases: Liquid
Fixed: Pressure, kPa = 101
Property: Speed of sound, m/s (Liquid); method: FPINT::UFactor:8
Temperature, K	Speed of sound, m/s	uncertainty
288.15	1347.22	5.46
293.15	1323.3	5.38
298.15	1299.73	5.31
303.15	1276.37	5.24

System: benzene; phases: Liquid
Fixed: Pressure, kPa = 101
Property: Mass density, kg/m3 (Liquid); method: VIBTUB::UFactor:4
Temperature, K	Mass density, kg/m3	uncertainty
288.15	884.184	0.348
293.15	877.43	0.356
298.15	873.58	0.361
303.15	868.174	0.37

System: toluene; phases: Liquid
Fixed: Pressure, kPa = 101
Property: Viscosity, Pa*s (Liquid); method: OTHER::sMethod:Anton Paar Stabinger viscometer
Temperature, K	Viscosity, Pa*s	uncertainty
288.15	0.00063	1.3e-05
293.15	0.000588	1.2e-05
298.15	0.000556	1.1e-05
303.15	0.000523	1.1e-05

System: toluene; phases: Liquid
Fixed: Pressure, kPa = 101
Property: Speed of sound, m/s (Liquid); method: FPINT::UFactor:8
Temperature, K	Speed of sound, m/s	uncertainty
288.15	1349.98	5.44
293.15	1327.18	5.37
298.15	1305.38	5.31
303.15	1283.8	5.24

System: toluene; phases: Liquid
Fixed: Pressure, kPa = 101
Property: Mass density, kg/m3 (Liquid); method: VIBTUB::UFactor:4
Temperature, K	Mass density, kg/m3	uncertainty
288.15	871.412	0.333
293.15	866.874	0.34
298.15	862.2	0.348
303.15	857.464	0.355

System: 1,2-dimethylbenzene; phases: Liquid
Fixed: Pressure, kPa = 101
Property: Viscosity, Pa*s (Liquid); method: OTHER::sMethod:Anton Paar Stabinger viscometer
Temperature, K	Viscosity, Pa*s	uncertainty
288.15	0.000871	1.8e-05
293.15	0.00081	1.7e-05
298.15	0.000756	1.6e-05
303.15	0.000708	1.5e-05

System: 1,2-dimethylbenzene; phases: Liquid
Fixed: Pressure, kPa = 101
Property: Speed of sound, m/s (Liquid); method: FPINT::UFactor:8
Temperature, K	Speed of sound, m/s	uncertainty
288.15	1390.35	5.62
293.15	1369.74	5.56
298.15	1349.39	5.49
303.15	1328.3	5.43

System: 1,2-dimethylbenzene; phases: Liquid
Fixed: Pressure, kPa = 101
Property: Mass density, kg/m3 (Liquid); method: VIBTUB::UFactor:4
Temperature, K	Mass density, kg/m3	uncertainty
288.15	883.285	0.406
293.15	879.083	0.412
298.15	875.532	0.417
303.15	870.726	0.424

System: 1,3-dimethylbenzene; phases: Liquid
Fixed: Pressure, kPa = 101
Property: Viscosity, Pa*s (Liquid); method: OTHER::sMethod:Anton Paar Stabinger viscometer
Temperature, K	Viscosity, Pa*s	uncertainty
288.15	0.000666	1.4e-05
293.15	0.000619	1.3e-05
298.15	0.000581	1.2e-05
303.15	0.000552	1.1e-05

System: 1,3-dimethylbenzene; phases: Liquid
Fixed: Pressure, kPa = 101
Property: Speed of sound, m/s (Liquid); method: FPINT::UFactor:8
Temperature, K	Speed of sound, m/s	uncertainty
288.15	1362.61	5.49
293.15	1357.05	25
298.15	1320.97	5.39
303.15	1300.34	5.31

System: 1,3-dimethylbenzene; phases: Liquid
Fixed: Pressure, kPa = 101
Property: Mass density, kg/m3 (Liquid); method: VIBTUB::UFactor:4
Temperature, K	Mass density, kg/m3	uncertainty
288.15	868.317	0.369
293.15	864.049	0.375
298.15	859.767	0.381
303.15	855.469	0.388

System: 1,4-dimethylbenzene; phases: Liquid
Fixed: Pressure, kPa = 101
Property: Viscosity, Pa*s (Liquid); method: OTHER::sMethod:Anton Paar Stabinger viscometer
Temperature, K	Viscosity, Pa*s	uncertainty
288.15	0.000701	2.1e-05
293.15	0.00065	2e-05
298.15	0.000611	1.8e-05
303.15	0.000576	1.7e-05

System: 1,4-dimethylbenzene; phases: Liquid
Fixed: Pressure, kPa = 101
Property: Speed of sound, m/s (Liquid); method: FPINT::UFactor:8
Temperature, K	Speed of sound, m/s	uncertainty
288.15	1351.99	5.47
293.15	1331.11	5.4
298.15	1310	5.34
303.15	1289.68	5.27

System: 1,4-dimethylbenzene; phases: Liquid
Fixed: Pressure, kPa = 101
Property: Mass density, kg/m3 (Liquid); method: VIBTUB::UFactor:4
Temperature, K	Mass density, kg/m3	uncertainty
288.15	865.253	0.373
293.15	860.917	0.38
298.15	856.617	0.386
303.15	852.255	0.393

System: 1,3,5-trimethylbenzene; phases: Liquid
Fixed: Pressure, kPa = 101
Property: Viscosity, Pa*s (Liquid); method: OTHER::sMethod:Anton Paar Stabinger viscometer
Temperature, K	Viscosity, Pa*s	uncertainty
288.15	0.000754	2.3e-05
293.15	0.000705	2.1e-05
298.15	0.000661	2e-05
303.15	0.000621	1.9e-05

System: 1,3,5-trimethylbenzene; phases: Liquid
Fixed: Pressure, kPa = 101
Property: Speed of sound, m/s (Liquid); method: FPINT::UFactor:8
Temperature, K	Speed of sound, m/s	uncertainty
288.15	1377.49	5.58
293.15	1357.05	5.52
298.15	1336.88	5.46
303.15	1316.82	5.39

System: 1,3,5-trimethylbenzene; phases: Liquid
Fixed: Pressure, kPa = 101
Property: Mass density, kg/m3 (Liquid); method: VIBTUB::UFactor:4
Temperature, K	Mass density, kg/m3	uncertainty
288.15	869.169	0.425
293.15	865.072	0.431
298.15	861.062	0.436
303.15	856.95	0.44

System: anisole; phases: Liquid
Fixed: Pressure, kPa = 101
Property: Viscosity, Pa*s (Liquid); method: Anton Paar Stabinger viscometer
Temperature, K	Viscosity, Pa*s	uncertainty
288.15	0.001188	2.4e-05
293.15	0.001084	2.2e-05
298.15	0.001017	2.1e-05
303.15	0.000931	1.9e-05

System: anisole; phases: Liquid
Fixed: Pressure, kPa = 101
Property: Speed of sound, m/s (Liquid); method: FPINT:UFactor:8
Temperature, K	Speed of sound, m/s	uncertainty
288.15	1449.09	5.79
293.15	1428.45	5.72
298.15	1408.02	5.66
303.15	1387.66	5.6
303.15	1386.66	5.6

System: anisole; phases: Liquid
Fixed: Pressure, kPa = 101
Property: Mass density, kg/m3 (Liquid); method: VIBTUB:UFactor:4
Temperature, K	Mass density, kg/m3	uncertainty
288.15	998.441	0.226
288.15	998.44	0.226
293.15	993.649	0.232
293.15	993.653	0.232
293.15	993.651	0.232
298.15	989.15	0.239
298.15	989.104	0.239
298.15	989.105	0.239
298.15	989.106	0.239
303.15	984.374	0.245
303.15	984.372	0.245
303.15	984.37	0.25

System: anisole + toluene; phases: Liquid
Fixed: Pressure, kPa = 101
Property: Viscosity, Pa*s (Liquid); method: Anton Paar Stabinger viscometer
Temperature, K	Mole fraction of anisole	Viscosity, Pa*s	uncertainty
288.15	0	0.00063	1.3e-05
288.15	0.1152	0.000676	1.4e-05
288.15	0.2132	0.000725	1.5e-05
288.15	0.3098	0.00077	1.6e-05
288.15	0.4182	0.000832	1.7e-05
288.15	0.5267	0.000891	1.8e-05
288.15	0.6209	0.00094	1.9e-05
288.15	0.7382	0.001014	2.1e-05
288.15	0.8645	0.001094	2.2e-05
288.15	0.927	0.001138	2.3e-05
288.15	1	0.001188	2.4e-05
293.15	0	0.000588	1.2e-05
293.15	0.1152	0.000628	1.3e-05
293.15	0.2132	0.000671	1.4e-05
293.15	0.3098	0.00071	1.4e-05
293.15	0.4182	0.000765	1.6e-05
293.15	0.5267	0.000818	1.7e-05
293.15	0.6209	0.000861	1.8e-05
293.15	0.7382	0.000927	1.9e-05
293.15	0.8645	0.000999	2e-05
293.15	0.927	0.001039	2.1e-05
293.15	1	0.001084	2.2e-05
298.15	0	0.000556	1.1e-05
298.15	0.1152	0.000594	1.2e-05
298.15	0.2132	0.000634	1.3e-05
298.15	0.3098	0.00067	1.4e-05
298.15	0.4182	0.000721	1.5e-05
298.15	0.5267	0.000769	1.6e-05
298.15	0.6209	0.000809	1.6e-05
298.15	0.7382	0.000871	1.8e-05
298.15	0.8645	0.00094	1.9e-05
298.15	0.927	0.000977	2e-05
298.15	1	0.001017	2.1e-05
303.15	0	0.000523	1.1e-05
303.15	0.1152	0.000557	1.1e-05
303.15	0.2132	0.000592	1.2e-05
303.15	0.3098	0.000623	1.3e-05
303.15	0.4182	0.000667	1.4e-05
303.15	0.5267	0.000709	1.4e-05
303.15	0.6209	0.000745	1.5e-05
303.15	0.7382	0.000802	1.6e-05
303.15	0.8645	0.000862	1.8e-05
303.15	0.927	0.000895	1.8e-05
303.15	1	0.000931	1.9e-05

System: anisole + toluene; phases: Liquid
Fixed: Pressure, kPa = 101
Property: Speed of sound, m/s (Liquid); method: FPINT:UFactor:8
Temperature, K	Mole fraction of anisole	Speed of sound, m/s	uncertainty
288.15	0	1349.98	5.44
288.15	0.1152	1360.7	5.48
288.15	0.2132	1369.87	5.51
288.15	0.3098	1379.13	5.54
288.15	0.4182	1389.57	5.58
288.15	0.5267	1400.44	5.62
288.15	0.6209	1410.05	5.65
288.15	0.7382	1421.87	5.69
288.15	0.8645	1434.93	5.74
288.15	0.927	1441.49	5.76
288.15	1	1449.09	5.79
293.15	0	1327.18	5.37
293.15	0.1152	1339.06	5.41
293.15	0.2132	1347.87	5.44
293.15	0.3098	1357.89	5.48
293.15	0.4182	1367.19	5.51
293.15	0.5267	1377.57	5.54
293.15	0.6209	1387.59	5.58
293.15	0.7382	1398.71	5.62
293.15	0.8645	1412.5	5.67
293.15	0.927	1418.89	5.69
293.15	1	1428.45	5.72
298.15	0	1305.38	5.31
298.15	0.1152	1316.52	5.34
298.15	0.2132	1325.81	5.37
298.15	0.3098	1334.99	5.4
298.15	0.4182	1345.35	5.44
298.15	0.5267	1356.5	5.48
298.15	0.6209	1366.29	5.51
298.15	0.7382	1378.77	5.56
298.15	0.8645	1392.74	5.6
298.15	0.927	1399.6	5.63
298.15	1	1408.02	5.66
303.15	0	1283.8	5.24
303.15	0.1152	1295.11	5.28
303.15	0.2132	1304.8	5.31
303.15	0.3098	1314.38	5.34
303.15	0.4182	1325.31	5.38
303.15	0.5267	1336.48	5.42
303.15	0.6209	1346.39	5.45
303.15	0.7382	1358.84	5.49
303.15	0.8645	1372.49	5.54
303.15	0.927	1379.36	5.57
303.15	1	1387.66	5.6

System: anisole + toluene; phases: Liquid
Fixed: Pressure, kPa = 101
Property: Mass density, kg/m3 (Liquid); method: VIBTUB:UFactor:4
Temperature, K	Mole fraction of anisole	Mass density, kg/m3	uncertainty
288.15	0	871.412	0.333
288.15	0.1152	886.478	0.314
288.15	0.2132	899.203	0.299
288.15	0.3098	911.684	0.285
288.15	0.4182	925.577	0.271
288.15	0.5267	939.392	0.259
288.15	0.6209	951.306	0.25
288.15	0.7382	966.034	0.24
288.15	0.8645	981.766	0.232
288.15	0.927	989.474	0.229
288.15	1	998.441	0.226
293.15	0	866.874	0.34
293.15	0.1152	881.927	0.321
293.15	0.2132	894.629	0.306
293.15	0.3098	907.078	0.293
293.15	0.4182	920.94	0.276
293.15	0.5267	934.732	0.266
293.15	0.6209	946.626	0.257
293.15	0.7382	961.327	0.247
293.15	0.8645	977.029	0.238
293.15	0.927	984.734	0.235
293.15	1	993.653	0.232
298.15	0	862.2	0.348
298.15	0.1152	877.272	0.329
298.15	0.2132	889.988	0.314
298.15	0.3098	902.448	0.3
298.15	0.4182	925.526	15
298.15	0.5267	930.133	0.273
298.15	0.6209	942.044	0.263
298.15	0.7382	956.777	0.253
298.15	0.8645	972.508	0.245
298.15	0.927	980.221	0.242
298.15	1	989.15	0.239
303.15	0	857.464	0.355
303.15	0.1152	872.541	0.336
303.15	0.2132	885.247	0.321
303.15	0.3098	897.698	0.307
303.15	0.4182	911.571	0.316
303.15	0.5267	925.369	0.28
303.15	0.6209	937.281	0.271
303.15	0.7382	952.012	0.26
303.15	0.8645	967.753	0.252
303.15	0.927	975.465	0.248
303.15	1	984.374	0.245

System: 1,2-dimethylbenzene + anisole; phases: Liquid
Fixed: Pressure, kPa = 101
Property: Viscosity, Pa*s (Liquid); method: Anton Paar Stabinger viscometer
Temperature, K	Mole fraction of anisole	Viscosity, Pa*s	uncertainty
288.15	0	0.000871	1.8e-05
288.15	0.0915	0.000885	1.8e-05
288.15	0.198	0.000914	1.9e-05
288.15	0.368	0.000944	1.9e-05
288.15	0.4954	0.000979	2e-05
288.15	0.6554	0.001028	2.1e-05
288.15	0.766	0.001066	2.2e-05
288.15	0.868	0.001133	2.3e-05
288.15	0.916	0.001159	2.4e-05
288.15	0.949	0.001172	2.4e-05
288.15	1	0.001188	2.4e-05
293.15	0	0.00081	1.7e-05
293.15	0.0915	0.000821	1.7e-05
293.15	0.198	0.000844	1.7e-05
293.15	0.368	0.000868	1.8e-05
293.15	0.4954	0.000899	1.9e-05
293.15	0.6554	0.000942	1.9e-05
293.15	0.766	0.000975	2e-05
293.15	0.868	0.001035	2.1e-05
293.15	0.916	0.001058	2.2e-05
293.15	0.949	0.001072	2.2e-05
293.15	1	0.001084	2.2e-05
298.15	0	0.000756	1.6e-05
298.15	0.0915	0.000769	1.6e-05
298.15	0.198	0.00079	1.6e-05
298.15	0.368	0.000813	1.7e-05
298.15	0.4954	0.000841	1.7e-05
298.15	0.6554	0.000881	1.8e-05
298.15	0.766	0.000914	1.9e-05
298.15	0.868	0.000974	2e-05
298.15	0.916	0.000996	2e-05
298.15	0.949	0.001005	2.1e-05
298.15	1	0.001017	2.1e-05
303.15	0	0.000708	1.5e-05
303.15	0.0915	0.000718	1.5e-05
303.15	0.198	0.000735	1.5e-05
303.15	0.368	0.000753	1.6e-05
303.15	0.4954	0.000776	1.6e-05
303.15	0.6554	0.000811	1.7e-05
303.15	0.766	0.00084	1.7e-05
303.15	0.868	0.000893	1.8e-05
303.15	0.916	0.000912	1.9e-05
303.15	0.949	0.000922	1.9e-05
303.15	1	0.000931	1.9e-05

System: 1,2-dimethylbenzene + anisole; phases: Liquid
Fixed: Pressure, kPa = 101
Property: Speed of sound, m/s (Liquid); method: FPINT:UFactor:8
Temperature, K	Mole fraction of anisole	Speed of sound, m/s	uncertainty
288.15	0	1390.35	5.62
288.15	0.0915	1394.98	5.63
288.15	0.198	1402.31	5.65
288.15	0.368	1409.02	5.67
288.15	0.4954	1415.73	5.69
288.15	0.6554	1424.72	5.72
288.15	0.766	1431.25	5.74
288.15	0.868	1439.41	5.76
288.15	0.916	1444.5	5.77
288.15	0.949	1447.09	5.78
288.15	1	1449.09	5.79
293.15	0	1369.74	5.56
293.15	0.0915	1374.42	5.57
293.15	0.198	1381.74	5.59
293.15	0.368	1388.31	5.61
293.15	0.4954	1394.86	5.63
293.15	0.6554	1403.87	5.65
293.15	0.766	1410.43	5.67
293.15	0.868	1418.61	5.69
293.15	0.916	1424.01	5.71
293.15	0.949	1426.64	5.72
293.15	1	1428.45	5.72
298.15	0	1349.39	5.49
298.15	0.0915	1354	5.51
298.15	0.198	1359.5	5.52
298.15	0.368	1368.57	5.55
298.15	0.4954	1375.7	5.57
298.15	0.6554	1385.12	5.59
298.15	0.766	1391.92	5.61
298.15	0.868	1398.63	5.63
298.15	0.916	1402.04	5.64
298.15	0.949	1404.3	5.65
298.15	1	1408.02	5.66
303.15	0	1328.3	5.43
303.15	0.0915	1333.42	5.44
303.15	0.198	1339.34	5.46
303.15	0.368	1348.75	5.49
303.15	0.4954	1355.92	5.51
303.15	0.6554	1365.15	5.53
303.15	0.766	1371.8	5.55
303.15	0.868	1378.13	5.57
303.15	0.916	1381.2	5.58
303.15	0.949	1383.33	5.59
303.15	1	1386.66	5.6

System: 1,2-dimethylbenzene + anisole; phases: Liquid
Fixed: Pressure, kPa = 101
Property: Mass density, kg/m3 (Liquid); method: VIBTUB:UFactor:4
Temperature, K	Mole fraction of anisole	Mass density, kg/m3	uncertainty
288.15	0	883.285	0.406
288.15	0.0915	893.348	0.391
288.15	0.198	905.888	0.372
288.15	0.368	924.439	0.343
288.15	0.4954	938.936	0.32
288.15	0.6554	957.421	0.29
288.15	0.766	970.279	0.27
288.15	0.868	982.607	0.251
288.15	0.916	988.769	0.242
288.15	0.949	992.756	0.236
288.15	1	998.44	0.226
293.15	0	879.083	0.412
293.15	0.0915	889.076	0.396
293.15	0.198	900.83	0.378
293.15	0.368	919.973	0.348
293.15	0.4954	934.513	0.325
293.15	0.6554	953.102	0.296
293.15	0.766	966.072	0.276
293.15	0.868	978.09	0.257
293.15	0.916	983.748	0.248
293.15	0.949	987.635	0.242
293.15	1	993.649	0.232
298.15	0	875.532	0.417
298.15	0.0915	885.509	0.401
298.15	0.198	897.159	0.383
298.15	0.368	916.136	0.353
298.15	0.4954	930.569	0.331
298.15	0.6554	948.998	0.302
298.15	0.766	961.882	0.282
298.15	0.868	973.792	0.263
298.15	0.916	979.418	0.254
298.15	0.949	983.27	0.248
298.15	1	989.104	0.239
303.15	0	870.726	0.424
303.15	0.0915	880.756	0.408
303.15	0.198	892.435	0.39
303.15	0.368	911.407	0.36
303.15	0.4954	925.824	0.338
303.15	0.6554	944.269	0.309
303.15	0.766	957.177	0.288
303.15	0.868	969.125	0.27
303.15	0.916	974.761	0.261
303.15	0.949	978.63	0.255
303.15	1	984.372	0.245

System: anisole + 1,3-dimethylbenzene; phases: Liquid
Fixed: Pressure, kPa = 101
Property: Viscosity, Pa*s (Liquid); method: Anton Paar Stabinger viscometer
Temperature, K	Mole fraction of anisole	Viscosity, Pa*s	uncertainty
288.15	0	0.000666	1.4e-05
288.15	0.1144	0.000696	1.4e-05
288.15	0.2566	0.000745	1.5e-05
288.15	0.3821	0.000799	1.6e-05
288.15	0.5034	0.000856	1.8e-05
288.15	0.6546	0.000933	1.9e-05
288.15	0.7535	0.000995	2e-05
288.15	0.8432	0.001049	2.2e-05
288.15	0.9133	0.001103	2.3e-05
288.15	0.9576	0.001149	2.4e-05
288.15	1	0.001188	2.4e-05
293.15	0	0.000619	1.3e-05
293.15	0.1144	0.000645	1.3e-05
293.15	0.2566	0.000688	1.4e-05
293.15	0.3821	0.000734	1.5e-05
293.15	0.5034	0.000783	1.6e-05
293.15	0.6546	0.000851	1.7e-05
293.15	0.7535	0.000908	1.9e-05
293.15	0.8432	0.000958	2e-05
293.15	0.9133	0.001008	2.1e-05
293.15	0.9576	0.001051	2.2e-05
293.15	1	0.001084	2.2e-05
298.15	0	0.000581	1.2e-05
298.15	0.1144	0.000607	1.2e-05
298.15	0.2566	0.000647	1.3e-05
298.15	0.3821	0.000687	1.4e-05
298.15	0.5034	0.000734	1.5e-05
298.15	0.6546	0.000798	1.6e-05
298.15	0.7535	0.000852	1.7e-05
298.15	0.8432	0.000899	1.8e-05
298.15	0.9133	0.000947	1.9e-05
298.15	0.9576	0.000988	2e-05
298.15	1	0.001017	2.1e-05
303.15	0	0.000552	1.1e-05
303.15	0.1144	0.000574	1.2e-05
303.15	0.2566	0.000604	1.2e-05
303.15	0.3821	0.000639	1.3e-05
303.15	0.5034	0.000677	1.4e-05
303.15	0.6546	0.000733	1.5e-05
303.15	0.7535	0.000782	1.6e-05
303.15	0.8432	0.000824	1.7e-05
303.15	0.9133	0.000868	1.8e-05
303.15	0.9576	0.000905	1.9e-05
303.15	1	0.000931	1.9e-05

System: anisole + 1,3-dimethylbenzene; phases: Liquid
Fixed: Pressure, kPa = 101
Property: Speed of sound, m/s (Liquid); method: FPINT:UFactor:8
Temperature, K	Mole fraction of anisole	Speed of sound, m/s	uncertainty
288.15	0	1362.61	5.5
288.15	0.1144	1369.25	5.52
288.15	0.2566	1380.52	5.56
288.15	0.3821	1390.89	5.59
288.15	0.5034	1401.01	5.63
288.15	0.6546	1414.06	5.67
288.15	0.7535	1424.03	5.7
288.15	0.8432	1431.95	5.73
288.15	0.9133	1439.34	5.76
288.15	0.9576	1445.22	5.77
288.15	1	1449.09	5.79
293.15	0	1343.4	5.44
293.15	0.1144	1351.03	5.47
293.15	0.2566	1362.19	5.5
293.15	0.3821	1372.11	5.54
293.15	0.5034	1381.41	5.57
293.15	0.6546	1393.9	5.61
293.15	0.7535	1402.8	5.64
293.15	0.8432	1411.12	5.67
293.15	0.9133	1418.43	5.69
293.15	0.9576	1423.6	5.71
293.15	1	1428.45	5.72
298.15	0	1320.97	5.37
298.15	0.1144	1328.53	5.4
298.15	0.2566	1339.22	5.43
298.15	0.3821	1349.8	5.47
298.15	0.5034	1360.06	5.5
298.15	0.6546	1373.48	5.55
298.15	0.7535	1382.55	5.58
298.15	0.8432	1390.95	5.6
298.15	0.9133	1398.13	5.63
298.15	0.9576	1403.14	5.64
298.15	1	1408.02	5.66
303.15	0	1300.34	5.31
303.15	0.1144	1308	5.33
303.15	0.2566	1318.65	5.37
303.15	0.3821	1328.78	5.4
303.15	0.5034	1339.08	5.44
303.15	0.6546	1352.59	5.48
303.15	0.7535	1362.03	5.51
303.15	0.8432	1370.97	5.54
303.15	0.9133	1378.31	5.57
303.15	0.9576	1383.07	5.58
303.15	1	1387.66	5.6

System: anisole + 1,3-dimethylbenzene; phases: Liquid
Fixed: Pressure, kPa = 101
Property: Mass density, kg/m3 (Liquid); method: VIBTUB:UFactor:4
Temperature, K	Mole fraction of anisole	Mass density, kg/m3	uncertainty
288.15	0	868.317	0.369
288.15	0.1144	882.011	0.352
288.15	0.2566	899.519	0.332
288.15	0.3821	915.327	0.314
288.15	0.5034	930.924	0.296
288.15	0.6546	950.873	0.275
288.15	0.7535	964.193	0.261
288.15	0.8432	976.464	0.248
288.15	0.9133	986.213	0.238
288.15	0.9576	992.455	0.232
288.15	1	998.44	0.226
293.15	0	864.049	0.375
293.15	0.1144	877.742	0.359
293.15	0.2566	895.185	0.338
293.15	0.3821	910.905	0.32
293.15	0.5034	926.441	0.302
293.15	0.6546	946.321	0.281
293.15	0.7535	959.605	0.267
293.15	0.8432	971.843	0.254
293.15	0.9133	981.575	0.244
293.15	0.9576	987.755	0.238
293.15	1	993.651	0.232
298.15	0	859.767	0.381
298.15	0.1144	873.473	0.365
298.15	0.2566	890.874	0.344
298.15	0.3821	906.561	0.326
298.15	0.5034	922.056	0.309
298.15	0.6546	941.9	0.287
298.15	0.7535	955.192	0.273
298.15	0.8432	967.423	0.26
298.15	0.9133	977.136	0.251
298.15	0.9576	983.283	0.244
298.15	1	989.15	0.239
303.15	0	855.469	0.388
303.15	0.1144	869.172	0.371
303.15	0.2566	886.499	0.351
303.15	0.3821	902.126	0.332
303.15	0.5034	917.578	0.315
303.15	0.6546	937.368	0.293
303.15	0.7535	950.619	0.279
303.15	0.8432	962.844	0.267
303.15	0.9133	972.502	0.257
303.15	0.9576	978.641	0.251
303.15	1	984.372	0.245

System: anisole + 1,4-dimethylbenzene; phases: Liquid
Fixed: Pressure, kPa = 101
Property: Viscosity, Pa*s (Liquid); method: Anton Paar Stabinger viscometer
Temperature, K	Mole fraction of anisole	Viscosity, Pa*s	uncertainty
288.15	0	0.000701	2.1e-05
288.15	0.0822	0.000728	2.2e-05
288.15	0.187	0.000778	2.4e-05
288.15	0.31	0.000829	2.5e-05
288.15	0.47	0.000884	2.7e-05
288.15	0.637	0.000958	2.9e-05
288.15	0.747	0.001013	3.1e-05
288.15	0.822	0.001109	3.4e-05
288.15	0.888	0.001145	3.5e-05
288.15	0.949	0.001167	3.5e-05
288.15	1	0.001188	3.6e-05
293.15	0	0.00065	2e-05
293.15	0.0822	0.000674	2e-05
293.15	0.187	0.000717	2.2e-05
293.15	0.31	0.000761	2.3e-05
293.15	0.47	0.000809	2.5e-05
293.15	0.637	0.000875	2.7e-05
293.15	0.747	0.000925	2.8e-05
293.15	0.822	0.001013	3.1e-05
293.15	0.888	0.001046	3.2e-05
293.15	0.949	0.001066	3.2e-05
293.15	1	0.001084	3.3e-05
298.15	0	0.000611	1.8e-05
298.15	0.0822	0.000635	1.9e-05
298.15	0.187	0.000674	2e-05
298.15	0.31	0.000714	2.2e-05
298.15	0.47	0.000759	2.3e-05
298.15	0.637	0.000821	2.5e-05
298.15	0.747	0.000868	2.6e-05
298.15	0.822	0.000952	2.9e-05
298.15	0.888	0.000985	3e-05
298.15	0.949	0.001003	3e-05
298.15	1	0.001017	3.1e-05
303.15	0	0.000576	1.7e-05
303.15	0.0822	0.000597	1.8e-05
303.15	0.187	0.000628	1.9e-05
303.15	0.31	0.000662	2e-05
303.15	0.47	0.0007	2.1e-05
303.15	0.637	0.000754	2.3e-05
303.15	0.747	0.000798	2.4e-05
303.15	0.822	0.000875	2.7e-05
303.15	0.888	0.000903	2.7e-05
303.15	0.949	0.000918	2.8e-05
303.15	1	0.000931	2.8e-05

System: anisole + 1,4-dimethylbenzene; phases: Liquid
Fixed: Pressure, kPa = 101
Property: Speed of sound, m/s (Liquid); method: FPINT:UFactor:8
Temperature, K	Mole fraction of anisole	Speed of sound, m/s	uncertainty
288.15	0	1351.99	5.47
288.15	0.0822	1360.32	5.5
288.15	0.187	1373.07	5.53
288.15	0.31	1384.4	5.57
288.15	0.47	1395.9	5.61
288.15	0.637	1410.41	5.66
288.15	0.747	1420.62	5.7
288.15	0.822	1437	5.74
288.15	0.888	1443	5.76
288.15	0.949	1446.3	5.78
288.15	1	1449.09	5.79
293.15	0	1331.11	5.4
293.15	0.0822	1339.53	5.43
293.15	0.187	1352.53	5.48
293.15	0.31	1364.03	5.51
293.15	0.47	1375.26	5.55
293.15	0.637	1389.88	5.6
293.15	0.747	1400.31	5.63
293.15	0.822	1416.71	5.69
293.15	0.888	1422.54	5.71
293.15	0.949	1425.78	5.72
293.15	1	1428.45	5.72
298.15	0	1310	5.34
298.15	0.0822	1317.4	5.36
298.15	0.187	1326.46	5.4
298.15	0.31	1337.54	5.43
298.15	0.47	1352.25	5.48
298.15	0.637	1368.24	5.53
298.15	0.747	1379.31	5.57
298.15	0.822	1387.37	5.6
298.15	0.888	1394.84	5.62
298.15	0.949	1401.82	5.64
298.15	1	1408.02	5.66
303.15	0	1289.68	5.27
303.15	0.0822	1296.93	5.3
303.15	0.187	1306.46	5.33
303.15	0.31	1317.59	5.37
303.15	0.47	1332.66	5.42
303.15	0.637	1349.07	5.47
303.15	0.747	1360.53	5.51
303.15	0.822	1368.5	5.53
303.15	0.888	1375.64	5.56
303.15	0.949	1382.26	5.58
303.15	1	1387.66	5.6

System: anisole + 1,4-dimethylbenzene; phases: Liquid
Fixed: Pressure, kPa = 101
Property: Mass density, kg/m3 (Liquid); method: VIBTUB:UFactor:4
Temperature, K	Mole fraction of anisole	Mass density, kg/m3	uncertainty
288.15	0	865.253	0.373
288.15	0.0822	875.328	0.361
288.15	0.187	888.441	0.345
288.15	0.31	904.181	0.327
288.15	0.47	925.057	0.303
288.15	0.637	947.54	0.279
288.15	0.747	962.692	0.262
288.15	0.822	973.119	0.251
288.15	0.888	982.387	0.242
288.15	0.949	991.051	0.234
288.15	1	998.44	0.226
293.15	0	860.917	0.38
293.15	0.0822	871.032	0.367
293.15	0.187	884.105	0.352
293.15	0.31	899.758	0.333
293.15	0.47	920.561	0.309
293.15	0.637	942.968	0.285
293.15	0.747	958.092	0.269
293.15	0.822	968.502	0.258
293.15	0.888	977.769	0.248
293.15	0.949	986.356	0.24
293.15	1	993.651	0.232
298.15	0	856.617	0.386
298.15	0.0822	866.765	0.374
298.15	0.187	879.807	0.358
298.15	0.31	895.413	0.34
298.15	0.47	916.177	0.316
298.15	0.637	938.559	0.291
298.15	0.747	953.665	0.275
298.15	0.822	964.094	0.264
298.15	0.888	973.344	0.254
298.15	0.949	981.943	0.246
298.15	1	989.105	0.239
303.15	0	852.255	0.393
303.15	0.0822	862.434	0.38
303.15	0.187	875.432	0.364
303.15	0.31	890.974	0.346
303.15	0.47	911.659	0.322
303.15	0.637	933.983	0.297
303.15	0.747	949.069	0.281
303.15	0.822	959.511	0.27
303.15	0.888	968.761	0.261
303.15	0.949	977.313	0.252
303.15	1	984.372	0.245

System: anisole + 1,3,5-trimethylbenzene; phases: Liquid
Fixed: Pressure, kPa = 101
Property: Viscosity, Pa*s (Liquid); method: Anton Paar Stabinger viscometer
Temperature, K	Mole fraction of anisole	Viscosity, Pa*s	uncertainty
288.15	0	0.000754	2.3e-05
288.15	0.074	0.000769	2.3e-05
288.15	0.181	0.000802	2.4e-05
288.15	0.334	0.000849	2.6e-05
288.15	0.4982	0.000893	2.7e-05
288.15	0.628	0.000965	2.9e-05
288.15	0.7512	0.001005	3.1e-05
288.15	0.814	0.001061	3.2e-05
288.15	0.875	0.001101	3.3e-05
288.15	0.94	0.001158	3.5e-05
288.15	1	0.001188	3.6e-05
293.15	0	0.000705	2.1e-05
293.15	0.074	0.000716	2.2e-05
293.15	0.181	0.000743	2.3e-05
293.15	0.334	0.000782	2.4e-05
293.15	0.4982	0.000819	2.5e-05
293.15	0.628	0.000883	2.7e-05
293.15	0.7512	0.00092	2.8e-05
293.15	0.814	0.000971	2.9e-05
293.15	0.875	0.001007	3.1e-05
293.15	0.94	0.001058	3.2e-05
293.15	1	0.001084	3.3e-05
298.15	0	0.000661	2e-05
298.15	0.074	0.000674	2e-05
298.15	0.181	0.000697	2.1e-05
298.15	0.334	0.000733	2.2e-05
298.15	0.4982	0.000767	2.3e-05
298.15	0.628	0.000827	2.5e-05
298.15	0.7512	0.000863	2.6e-05
298.15	0.814	0.000912	2.8e-05
298.15	0.875	0.000946	2.9e-05
298.15	0.94	0.000993	3e-05
298.15	1	0.001017	3.1e-05
303.15	0	0.000621	1.9e-05
303.15	0.074	0.000633	1.9e-05
303.15	0.181	0.00065	2e-05
303.15	0.334	0.000677	2.1e-05
303.15	0.4982	0.000706	2.1e-05
303.15	0.628	0.000758	2.3e-05
303.15	0.7512	0.000792	2.4e-05
303.15	0.814	0.000837	2.5e-05
303.15	0.875	0.00087	2.6e-05
303.15	0.94	0.000912	2.8e-05
303.15	1	0.000931	2.8e-05

System: anisole + 1,3,5-trimethylbenzene; phases: Liquid
Fixed: Pressure, kPa = 101
Property: Speed of sound, m/s (Liquid); method: FPINT:UFactor:8
Temperature, K	Mole fraction of anisole	Speed of sound, m/s	uncertainty
288.15	0	1377.49	5.58
288.15	0.074	1383.1	5.6
288.15	0.181	1390.74	5.62
288.15	0.334	1400.32	5.65
288.15	0.4982	1408.05	5.68
288.15	0.628	1420.28	5.71
288.15	0.7512	1426.34	5.73
288.15	0.814	1433.83	5.75
288.15	0.875	1438.58	5.76
288.15	0.94	1445.56	5.78
288.15	1	1449.09	5.79
293.15	0	1357.05	5.52
293.15	0.074	1361.68	5.53
293.15	0.181	1368.11	5.55
293.15	0.334	1376.15	5.57
293.15	0.4982	1383.27	5.59
293.15	0.628	1395.12	5.63
293.15	0.7512	1401.55	5.64
293.15	0.814	1410.01	5.67
293.15	0.875	1415.83	5.69
293.15	0.94	1424.2	5.71
293.15	1	1428.45	5.72
298.15	0	1336.88	5.46
298.15	0.074	1342.58	5.47
298.15	0.181	1350.07	5.49
298.15	0.334	1359.95	5.52
298.15	0.4982	1370.45	5.55
298.15	0.628	1379.42	5.58
298.15	0.7512	1388.14	5.6
298.15	0.814	1392.88	5.62
298.15	0.875	1397.6	5.63
298.15	0.94	1402.79	5.65
298.15	1	1408.02	5.66
303.15	0	1316.82	5.39
303.15	0.074	1320.5	5.41
303.15	0.181	1326.66	5.43
303.15	0.334	1336.13	5.45
303.15	0.4982	1347.06	5.48
303.15	0.628	1356.18	5.51
303.15	0.7512	1365.36	5.54
303.15	0.814	1370.45	5.55
303.15	0.875	1375.58	5.56
303.15	0.94	1382.77	5.58
303.15	1	1386.66	5.6

System: anisole + 1,3,5-trimethylbenzene; phases: Liquid
Fixed: Pressure, kPa = 101
Property: Mass density, kg/m3 (Liquid); method: VIBTUB:UFactor:4
Temperature, K	Mole fraction of anisole	Mass density, kg/m3	uncertainty
288.15	0	869.169	0.425
288.15	0.074	876.661	0.414
288.15	0.181	887.986	0.396
288.15	0.334	905.232	0.369
288.15	0.4982	925.26	0.338
288.15	0.628	942.318	0.312
288.15	0.7512	959.611	0.285
288.15	0.814	968.893	0.271
288.15	0.875	978.238	0.257
288.15	0.94	988.554	0.241
288.15	1	998.44	0.226
293.15	0	865.072	0.431
293.15	0.074	872.553	0.419
293.15	0.181	883.818	0.401
293.15	0.334	900.968	0.375
293.15	0.4982	920.888	0.344
293.15	0.628	937.858	0.318
293.15	0.7512	955.065	0.291
293.15	0.814	964.301	0.277
293.15	0.875	973.59	0.263
293.15	0.94	983.844	0.248
293.15	1	993.651	0.232
298.15	0	861.062	0.436
298.15	0.074	868.529	0.425
298.15	0.181	879.758	0.407
298.15	0.334	896.835	0.38
298.15	0.4982	916.671	0.35
298.15	0.628	933.575	0.323
298.15	0.7512	950.712	0.297
298.15	0.814	959.91	0.283
298.15	0.875	969.162	0.269
298.15	0.94	979.363	0.254
298.15	1	989.106	0.239
303.15	0	856.95	0.44
303.15	0.074	864.41	0.43
303.15	0.181	875.58	0.41
303.15	0.334	892.57	0.39
303.15	0.4982	912.31	0.36
303.15	0.628	929.13	0.33
303.15	0.7512	946.19	0.3
303.15	0.814	955.34	0.29
303.15	0.875	964.55	0.28
303.15	0.94	974.7	0.26
303.15	1	984.37	0.25

System: benzene + anisole; phases: Liquid
Fixed: Pressure, kPa = 101
Property: Viscosity, Pa*s (Liquid); method: Anton Paar Stabinger viscometer
Temperature, K	Mole fraction of anisole	Viscosity, Pa*s	uncertainty
288.15	0	0.000709	1.5e-05
288.15	0.097	0.000747	1.5e-05
288.15	0.175	0.000777	1.6e-05
288.15	0.274	0.000817	1.7e-05
288.15	0.368	0.000856	1.8e-05
288.15	0.4971	0.000915	1.9e-05
288.15	0.623	0.000976	2e-05
288.15	0.72	0.001027	2.1e-05
288.15	0.8003	0.001072	2.2e-05
288.15	0.8895	0.001126	2.3e-05
288.15	1	0.001188	2.4e-05
293.15	0	0.000648	1.3e-05
293.15	0.097	0.000683	1.4e-05
293.15	0.175	0.00071	1.5e-05
293.15	0.274	0.000746	1.5e-05
293.15	0.368	0.000781	1.6e-05
293.15	0.4971	0.000833	1.7e-05
293.15	0.623	0.000889	1.8e-05
293.15	0.72	0.000936	1.9e-05
293.15	0.8003	0.000978	2e-05
293.15	0.8895	0.001027	2.1e-05
293.15	1	0.001084	2.2e-05
298.15	0	0.000604	1.2e-05
298.15	0.097	0.000638	1.3e-05
298.15	0.175	0.000664	1.4e-05
298.15	0.274	0.000697	1.4e-05
298.15	0.368	0.00073	1.5e-05
298.15	0.4971	0.000779	1.6e-05
298.15	0.623	0.000831	1.7e-05
298.15	0.72	0.000877	1.8e-05
298.15	0.8003	0.000918	1.9e-05
298.15	0.8895	0.000963	2e-05
298.15	1	0.001017	2.1e-05
303.15	0	0.000571	1.2e-05
303.15	0.097	0.000601	1.2e-05
303.15	0.175	0.000623	1.3e-05
303.15	0.274	0.000651	1.3e-05
303.15	0.368	0.000679	1.4e-05
303.15	0.4971	0.00072	1.5e-05
303.15	0.623	0.000767	1.6e-05
303.15	0.72	0.000808	1.7e-05
303.15	0.8003	0.000844	1.7e-05
303.15	0.8895	0.000883	1.8e-05
303.15	1	0.000931	1.9e-05

System: benzene + anisole; phases: Liquid
Fixed: Pressure, kPa = 101
Property: Speed of sound, m/s (Liquid); method: FPINT:UFactor:8
Temperature, K	Mole fraction of anisole	Speed of sound, m/s	uncertainty
288.15	0	1347.22	5.46
288.15	0.097	1356.78	5.49
288.15	0.175	1364.51	5.51
288.15	0.274	1374.36	5.55
288.15	0.368	1383.76	5.58
288.15	0.4971	1395.2	5.61
288.15	0.623	1406.8	5.65
288.15	0.72	1418.4	5.68
288.15	0.8003	1425.2	5.71
288.15	0.8895	1437.45	5.75
288.15	1	1449.09	5.79
293.15	0	1323.3	5.38
293.15	0.097	1332.99	5.42
293.15	0.175	1340.74	5.44
293.15	0.274	1350.79	5.47
293.15	0.368	1360.47	5.5
293.15	0.4971	1373.87	5.55
293.15	0.623	1387.16	5.59
293.15	0.72	1397.46	5.62
293.15	0.8003	1406.11	5.65
293.15	0.8895	1415.92	5.68
293.15	1	1428.45	5.72
298.15	0	1299.73	5.31
298.15	0.097	1309.26	5.34
298.15	0.175	1316.99	5.37
298.15	0.274	1327.13	5.4
298.15	0.368	1336.98	5.43
298.15	0.4971	1350.76	5.47
298.15	0.623	1364.61	5.52
298.15	0.72	1375.47	5.55
298.15	0.8003	1384.61	5.58
298.15	0.8895	1394.84	5.62
298.15	1	1408.02	5.66
303.15	0	1276.37	5.24
303.15	0.097	1286.9	5.27
303.15	0.175	1295.43	5.3
303.15	0.274	1306.26	5.33
303.15	0.368	1316.61	5.37
303.15	0.4971	1330.92	5.41
303.15	0.623	1344.97	5.46
303.15	0.72	1355.85	5.49
303.15	0.8003	1364.91	5.52
303.15	0.8895	1375.07	5.56
303.15	1	1387.66	5.6

System: benzene + anisole; phases: Liquid
Fixed: Pressure, kPa = 101
Property: Mass density, kg/m3 (Liquid); method: VIBTUB:UFactor:4
Temperature, K	Mole fraction of anisole	Mass density, kg/m3	uncertainty
288.15	0	884.184	0.348
288.15	0.097	897.546	0.332
288.15	0.175	907.884	0.319
288.15	0.274	920.511	0.304
288.15	0.368	932.009	0.291
288.15	0.4971	947.045	0.274
288.15	0.623	960.925	0.26
288.15	0.72	971.118	0.25
288.15	0.8003	979.257	0.242
288.15	0.8895	988.004	0.235
288.15	1	998.441	0.226
293.15	0	877.43	0.356
293.15	0.097	890.999	0.34
293.15	0.175	901.497	0.327
293.15	0.274	914.322	0.312
293.15	0.368	926.005	0.298
293.15	0.4971	941.295	0.282
293.15	0.623	955.425	0.267
293.15	0.72	965.807	0.257
293.15	0.8003	974.102	0.249
293.15	0.8895	983.017	0.241
293.15	1	993.649	0.232
298.15	0	873.58	0.361
298.15	0.097	887.083	0.345
298.15	0.175	897.532	0.332
298.15	0.274	910.286	0.317
298.15	0.368	921.904	0.304
298.15	0.4971	937.104	0.287
298.15	0.623	951.156	0.273
298.15	0.72	961.483	0.263
298.15	0.8003	969.734	0.255
298.15	0.8895	978.597	0.247
298.15	1	989.15	0.239
303.15	0	868.174	0.37
303.15	0.097	881.745	0.354
303.15	0.175	892.244	0.341
303.15	0.274	905.059	0.326
303.15	0.368	916.731	0.312
303.15	0.4971	932.013	0.296
303.15	0.623	946.146	0.281
303.15	0.72	956.542	0.27
303.15	0.8003	964.845	0.263
303.15	0.8895	973.764	0.255
303.15	1	984.374	0.245
