Measured thermophysical data. Vapor-Liquid Critical Properties of Phenol and (C8 to C10) Phenylalkanols
Source: J. Chem. Eng. Data, 2007, 10.1021/je0604380
Compound 1: phenol, C6H6O, InChI=1S/C6H6O/c7-6-4-2-1-3-5-6/h1-5,7H
Compound 2: 2-phenylethanol, C8H10O, InChI=1S/C8H10O/c9-7-6-8-4-2-1-3-5-8/h1-5,9H,6-7H2
Compound 3: 3-phenyl-1-propanol, C9H12O, InChI=1S/C9H12O/c10-8-4-7-9-5-2-1-3-6-9/h1-3,5-6,10H,4,7-8H2
Compound 4: 4-phenyl-1-butanol, C10H14O, InChI=1S/C10H14O/c11-9-5-4-8-10-6-2-1-3-7-10/h1-3,6-7,11H,4-5,8-9H2

System: phenol; phases: Liquid, Gas
Property: Critical pressure, kPa (Liquid); method: pulse heating
Critical pressure, kPa	uncertainty
5670	340

System: phenol; phases: Liquid, Gas
Property: Critical temperature, K (Liquid); method: pulse-heating method
Critical temperature, K	uncertainty
695	14

System: 2-phenylethanol; phases: Liquid, Gas
Property: Critical pressure, kPa (Liquid); method: pulse heating
Critical pressure, kPa	uncertainty
3850	240

System: 2-phenylethanol; phases: Liquid, Gas
Property: Critical temperature, K (Liquid); method: pulse-heating method
Critical temperature, K	uncertainty
720	14

System: 3-phenyl-1-propanol; phases: Liquid, Gas
Property: Critical pressure, kPa (Liquid); method: pulse heating
Critical pressure, kPa	uncertainty
3460	200

System: 3-phenyl-1-propanol; phases: Liquid, Gas
Property: Critical temperature, K (Liquid); method: pulse-heating method
Critical temperature, K	uncertainty
732	14

System: 4-phenyl-1-butanol; phases: Liquid, Gas
Property: Critical pressure, kPa (Liquid); method: pulse heating
Critical pressure, kPa	uncertainty
3070	180

System: 4-phenyl-1-butanol; phases: Liquid, Gas
Property: Critical temperature, K (Liquid); method: pulse-heating method
Critical temperature, K	uncertainty
746	14
