Measured thermophysical data. Solubility of the Natural Antioxidant Gallic Acid in Supercritical CO2 + Ethanol as a Cosolvent
Source: J. Chem. Eng. Data, 2007, 10.1021/je060273v
Compound 1: 3,4,5-trihydroxybenzoic acid, C7H6O5, InChI=1S/C7H6O5/c8-4-1-3(7(11)12)2-5(9)6(4)10/h1-2,8-10H,(H,11,12), purity 98%
Compound 2: ethanol, C2H6O, InChI=1S/C2H6O/c1-2-3/h3H,2H2,1H3, purity 99.8%
Compound 3: carbon dioxide, CO2, InChI=1S/CO2/c2-1-3

System: ethanol + carbon dioxide + 3,4,5-trihydroxybenzoic acid; phases: Fluid (supercritical or subcritical phases), Crystal
Property: Mole fraction of 3,4,5-trihydroxybenzoic acid (Fluid (supercritical or subcritical phases)); method: UV spectrometry
Temperature, K	Pressure, kPa	Solvent: Mole fraction of ethanol	Mole fraction of 3,4,5-trihydroxybenzoic acid	uncertainty
313.15	10000	0.007	2.36e-07	6.6e-08
313.15	10000	0.02	2.69e-07	7e-08
313.15	10000	0.06	4.22e-07	8.8e-08
313.15	20000	0.007	3.53e-07	8e-08
313.15	20000	0.02	4.19e-07	8.6e-08
313.15	20000	0.06	5.59e-07	1.03e-07
313.15	30000	0.007	4.55e-07	9e-08
313.15	30000	0.02	5.61e-07	1.02e-07
313.15	30000	0.06	9.27e-07	1.49e-07
313.15	40000	0.007	5.85e-07	1.06e-07
313.15	40000	0.02	7.34e-07	1.22e-07
313.15	40000	0.06	1.972e-06	2.67e-07
323.15	10000	0.06	1.85e-07	6e-08
323.15	20000	0.06	3.47e-07	7.9e-08
323.15	30000	0.06	6.02e-07	1.09e-07
323.15	40000	0.06	9.19e-07	1.43e-07
333.15	10000	0.06	1.06e-07	5.2e-08
333.15	20000	0.06	1.98e-07	6.2e-08
333.15	30000	0.06	3.54e-07	8.1e-08
333.15	40000	0.06	6.14e-07	1.09e-07
