Measured thermophysical data. Volumetric Properties, Viscosities, and Refractive Indices for Aqueous 2-((2-Aminoethyl)amino)ethanol Solutions from (298.15 to 343.15) K
Source: J. Chem. Eng. Data, 2006, 10.1021/je060032n
Compound 1: N-(2-aminoethyl)ethanolamine, C4H12N2O, InChI=1S/C4H12N2O/c5-1-2-6-3-4-7/h6-7H,1-5H2, purity 99%
Compound 2: water, H2O, InChI=1S/H2O/h1H2

System: N-(2-aminoethyl)ethanolamine; phases: Liquid
Fixed: Pressure, kPa = 101.325
Property: Refractive index (Na D-line) (Liquid); method: Standard Abbe refractometry
Temperature, K	Refractive index (Na D-line)	uncertainty
298.15	1.48454	0.00052
303.15	1.48269	0.00053
313.15	1.47884	0.00053
323.15	1.47516	0.00053
333.15	1.47128	0.00054

System: N-(2-aminoethyl)ethanolamine; phases: Liquid
Fixed: Pressure, kPa = 101
Property: Viscosity, Pa*s (Liquid); method: Capillary tube (Ostwald; Ubbelohde) method
Temperature, K	Viscosity, Pa*s	uncertainty
298.15	0.0986	0.0032
303.15	0.0705	0.0022
313.15	0.0394	0.0012
323.15	0.0234	0.0007
333.15	0.0148	0.0005
343.15	0.0101	0.0003

System: N-(2-aminoethyl)ethanolamine; phases: Liquid
Fixed: Pressure, kPa = 101
Property: Mass density, kg/m3 (Liquid); method: VIBTUB:UFactor:4
Temperature, K	Mass density, kg/m3	uncertainty
298.15	1025.28	0.55
303.15	1021.53	0.55
313.15	1014.02	0.54
323.15	1006.44	0.53
333.15	998.83	0.53
343.15	991.15	0.53

System: N-(2-aminoethyl)ethanolamine + water; phases: Liquid
Fixed: Pressure, kPa = 101
Property: Viscosity, Pa*s (Liquid); method: Capillary tube (Ostwald; Ubbelohde) method
Temperature, K	Mole fraction of N-(2-aminoethyl)ethanolamine	Viscosity, Pa*s	uncertainty
298.15	0	0.000882	2.7e-05
298.15	0.05	0.00245	8e-05
298.15	0.07	0.00387	0.00012
298.15	0.0999	0.00676	0.00022
298.15	0.1992	0.03	0.0009
298.15	0.3	0.0709	0.0022
298.15	0.3997	0.104	0.003
298.15	0.4991	0.121	0.004
298.15	0.599	0.124	0.004
298.15	0.6991	0.121	0.004
298.15	0.7997	0.116	0.004
298.15	0.9002	0.109	0.004
298.15	1	0.0986	0.0032
303.15	0	0.000804	2.5e-05
303.15	0.05	0.00216	7e-05
303.15	0.07	0.00324	0.0001
303.15	0.0999	0.0055	0.00018
303.15	0.1992	0.0226	0.0007
303.15	0.3	0.0504	0.0015
303.15	0.3997	0.0728	0.0022
303.15	0.4991	0.0839	0.0026
303.15	0.599	0.087	0.0027
303.15	0.6991	0.0848	0.0027
303.15	0.7997	0.0825	0.0026
303.15	0.9002	0.0781	0.0024
303.15	1	0.0705	0.0022
313.15	0	0.000659	2e-05
313.15	0.05	0.00163	5e-05
313.15	0.07	0.00229	7e-05
313.15	0.0999	0.00383	0.00012
313.15	0.1992	0.0135	0.0004
313.15	0.3	0.0278	0.0008
313.15	0.3997	0.0389	0.0012
313.15	0.4991	0.0448	0.0014
313.15	0.599	0.0465	0.0014
313.15	0.6991	0.0457	0.0014
313.15	0.7997	0.0448	0.0014
313.15	0.9002	0.0444	0.0014
313.15	1	0.0394	0.0012
323.15	0	0.000551	1.7e-05
323.15	0.05	0.00126	4e-05
323.15	0.07	0.00175	6e-05
323.15	0.0999	0.0028	9e-05
323.15	0.1992	0.0087	0.0003
323.15	0.3	0.0165	0.0005
323.15	0.3997	0.0225	0.0007
323.15	0.4991	0.0256	0.0008
323.15	0.599	0.0267	0.0008
323.15	0.6991	0.0264	0.0008
323.15	0.7997	0.026	0.0008
323.15	0.9002	0.026	0.0008
323.15	1	0.0234	0.0007
333.15	0	0.00047	1.4e-05
333.15	0.05	0.00101	3e-05
333.15	0.07	0.00138	4e-05
333.15	0.0999	0.00205	6e-05
333.15	0.1992	0.0059	0.0002
333.15	0.3	0.0105	0.0003
333.15	0.3997	0.0138	0.0004
333.15	0.4991	0.0158	0.0005
333.15	0.599	0.0165	0.0005
333.15	0.6991	0.0165	0.0005
333.15	0.7997	0.0164	0.0005
333.15	0.9002	0.0165	0.0005
333.15	1	0.0148	0.0005
343.15	0	0.000407	1.3e-05
343.15	0.05	0.000839	2.6e-05
343.15	0.07	0.00111	3e-05
343.15	0.0999	0.0016	5e-05
343.15	0.1992	0.0042	0.0001
343.15	0.3	0.007	0.0002
343.15	0.3997	0.0091	0.0003
343.15	0.4991	0.0103	0.0003
343.15	0.599	0.0108	0.0003
343.15	0.6991	0.0108	0.0003
343.15	0.7997	0.0108	0.0003
343.15	0.9002	0.0107	0.0003
343.15	1	0.0101	0.0003

System: N-(2-aminoethyl)ethanolamine + water; phases: Liquid
Fixed: Pressure, kPa = 101
Property: Refractive index (Na D-line) (Liquid); method: Standard Abbe refractometry
Temperature, K	Mole fraction of N-(2-aminoethyl)ethanolamine	Refractive index (Na D-line)	uncertainty
298.15	0	1.33258	0.00033
298.15	0.05	1.37012	0.00044
298.15	0.07	1.38204	0.00039
298.15	0.1	1.39796	0.00044
298.15	0.2	1.43314	0.00085
298.15	0.3	1.45253	0.00041
298.15	0.4	1.46321	0.00034
298.15	0.5	1.4703	0.00038
298.15	0.5996	1.47498	0.00043
298.15	0.7011	1.47851	0.00046
298.15	0.8002	1.48101	0.00048
298.15	0.8979	1.48289	0.0005
298.15	1	1.48454	0.00052
303.15	0	1.33202	0.00034
303.15	0.05	1.36931	0.00045
303.15	0.07	1.3811	0.00043
303.15	0.1	1.39682	0.00039
303.15	0.2	1.4318	0.00037
303.15	0.3	1.45087	0.00042
303.15	0.4	1.46158	0.00045
303.15	0.5	1.46857	0.00047
303.15	0.5996	1.47321	0.00049
303.15	0.7011	1.47671	0.00049
303.15	0.8002	1.47918	0.0005
303.15	0.8979	1.48103	0.00051
303.15	1	1.48269	0.00053
313.15	0	1.33067	0.00035
313.15	0.05	1.36749	0.00046
313.15	0.07	1.37909	0.00043
313.15	0.1	1.39453	0.00042
313.15	0.2	1.4289	0.00045
313.15	0.3	1.44762	0.00047
313.15	0.4	1.45811	0.00048
313.15	0.5	1.46502	0.00049
313.15	0.5996	1.46961	0.00049
313.15	0.7011	1.47308	0.0005
313.15	0.8002	1.47552	0.00051
313.15	0.8979	1.47734	0.00052
313.15	1	1.47884	0.00053
323.15	0	1.32909	0.00035
323.15	0.05	1.36542	0.00046
323.15	0.07	1.37696	0.00043
323.15	0.1	1.39214	0.00042
323.15	0.2	1.42583	0.00046
323.15	0.3	1.44425	0.00047
323.15	0.4	1.45463	0.00048
323.15	0.5	1.46146	0.00049
323.15	0.5996	1.46604	0.0005
323.15	0.7011	1.46938	0.00051
323.15	0.8002	1.47177	0.00051
323.15	0.8979	1.47359	0.00052
323.15	1	1.47516	0.00053
333.15	0	1.3273	0.00036
333.15	0.05	1.36367	0.00052
333.15	0.07	1.37507	0.00045
333.15	0.1	1.38992	0.00057
333.15	0.2	1.42264	0.00087
333.15	0.3	1.44087	0.00069
333.15	0.4	1.45107	0.00058
333.15	0.5	1.45777	0.00055
333.15	0.5996	1.46223	0.00054
333.15	0.7011	1.4656	0.00053
333.15	0.8002	1.46805	0.00053
333.15	0.8979	1.46977	0.00053
333.15	1	1.47128	0.00054

System: N-(2-aminoethyl)ethanolamine + water; phases: Liquid
Fixed: Pressure, kPa = 101
Property: Mass density, kg/m3 (Liquid); method: VIBTUB:UFactor:4
Temperature, K	Mole fraction of N-(2-aminoethyl)ethanolamine	Mass density, kg/m3	uncertainty
298.15	0	997.04	0.18
298.15	0.05	1015.65	0.25
298.15	0.07	1022.28	0.25
298.15	0.0999	1030.85	0.25
298.15	0.1992	1047.37	0.28
298.15	0.3	1050.66	0.31
298.15	0.3997	1048.18	0.35
298.15	0.4991	1044.05	0.38
298.15	0.599	1039.62	0.41
298.15	0.6991	1035.48	0.44
298.15	0.7997	1031.83	0.48
298.15	0.9002	1028.28	0.51
298.15	1	1025.28	0.55
303.15	0	995.64	0.19
303.15	0.05	1013.65	0.25
303.15	0.07	1020.01	0.25
303.15	0.0999	1028.24	0.24
303.15	0.1992	1044.02	0.28
303.15	0.3	1047.05	0.31
303.15	0.3997	1044.5	0.34
303.15	0.4991	1040.33	0.37
303.15	0.599	1035.89	0.4
303.15	0.6991	1031.74	0.44
303.15	0.7997	1028.11	0.47
303.15	0.9002	1024.57	0.51
303.15	1	1021.53	0.55
313.15	0	992.21	0.19
313.15	0.05	1009.22	0.24
313.15	0.07	1015.13	0.24
313.15	0.0999	1022.7	0.24
313.15	0.1992	1037.13	0.27
313.15	0.3	1039.7	0.3
313.15	0.3997	1037.01	0.34
313.15	0.4991	1032.79	0.37
313.15	0.599	1028.36	0.4
313.15	0.6991	1024.21	0.43
313.15	0.7997	1020.57	0.47
313.15	0.9002	1017.06	0.5
313.15	1	1014.02	0.54
323.15	0	988.03	0.19
323.15	0.05	1004.24	0.23
323.15	0.07	1009.76	0.23
323.15	0.0999	1016.8	0.23
323.15	0.1992	1030.03	0.27
323.15	0.3	1032.15	0.3
323.15	0.3997	1029.37	0.33
323.15	0.4991	1025.13	0.36
323.15	0.599	1020.71	0.39
323.15	0.6991	1016.59	0.43
323.15	0.7997	1012.96	0.46
323.15	0.9002	1009.48	0.5
323.15	1	1006.44	0.53
333.15	0	983.19	0.2
333.15	0.05	998.75	0.23
333.15	0.07	1003.89	0.22
333.15	0.0999	1010.53	0.22
333.15	0.1992	1022.69	0.26
333.15	0.3	1024.44	0.29
333.15	0.3997	1021.57	0.32
333.15	0.4991	1017.35	0.35
333.15	0.599	1012.96	0.39
333.15	0.6991	1008.88	0.42
333.15	0.7997	1005.3	0.46
333.15	0.9002	1001.84	0.49
333.15	1	998.83	0.53
343.15	0	977.75	0.2
343.15	0.05	992.77	0.23
343.15	0.07	997.34	0.22
343.15	0.0999	1003.89	0.22
343.15	0.1992	1015.09	0.26
343.15	0.3	1016.53	0.29
343.15	0.3997	1013.6	0.32
343.15	0.4991	1009.42	0.35
343.15	0.599	1005.1	0.38
343.15	0.6991	1001.06	0.41
343.15	0.7997	997.54	0.45
343.15	0.9002	994.11	0.49
343.15	1	991.15	0.53
