Measured thermophysical data. Solubility of Chiral Threonine Species in Water/Ethanol Mixtures
Source: J. Chem. Eng. Data, 2006, 10.1021/je060053h
Compound 1: L-threonine, C4H9NO3, InChI=1S/C4H9NO3/c1-2(6)3(5)4(7)8/h2-3,6H,5H2,1H3,(H,7,8)/t2-,3+/m1/s1
Compound 2: water, H2O, InChI=1S/H2O/h1H2
Compound 3: ethanol, C2H6O, InChI=1S/C2H6O/c1-2-3/h3H,2H2,1H3
Compound 4: DL-threonine, C4H9NO3, InChI=1S/C4H9NO3/c1-2(6)3(5)4(7)8/h2-3,6H,5H2,1H3,(H,7,8)/t2-,3+/m1/s1

System: L-threonine + water; phases: Liquid, Crystal
Fixed: Pressure, kPa = 101
Property: Mass fraction of L-threonine (Liquid); method: gravimetry
Temperature, K	Mass fraction of L-threonine	uncertainty
283.1	0.0734	0.0073
293.15	0.0831	0.0083
303.15	0.0949	0.0095
307.15	0.1012	0.0101
310.15	0.1038	0.0104
313.15	0.1078	0.0108
316.15	0.1129	0.0113
319.15	0.1179	0.0118

System: L-threonine + water; phases: Liquid, Crystal
Fixed: Pressure, kPa = 101
Property: Mass fraction of L-threonine (Liquid); method: HPLC
Temperature, K	Mass fraction of L-threonine	uncertainty
283.1	0.0774	0.0077
293.15	0.0903	0.009
303.15	0.107	0.0107
313.15	0.1218	0.0122

System: DL-threonine + water; phases: Liquid, Crystal
Fixed: Pressure, kPa = 101
Property: Mass fraction of DL-threonine (Liquid); method: gravimetry
Temperature, K	Mass fraction of DL-threonine	uncertainty
283.1	0.1434	0.0143
293.15	0.1569	0.0157
298.15	0.1662	0.0166
303.15	0.177	0.0177
307.15	0.1874	0.0187
310.15	0.197	0.0197
313.15	0.1984	0.0198
316.15	0.2079	0.0208
319.15	0.2138	0.0214

System: DL-threonine + water; phases: Liquid, Crystal
Fixed: Pressure, kPa = 101
Property: Mass fraction of DL-threonine (Liquid); method: HPLC
Temperature, K	Mass fraction of DL-threonine	uncertainty
283.1	0.1445	0.0145
293.15	0.1632	0.0163
303.15	0.1824	0.0182
313.15	0.2188	0.0219

System: ethanol + L-threonine + water; phases: Liquid, Crystal
Fixed: Pressure, kPa = 101
Property: Mass fraction of L-threonine (Liquid); method: gravimetry
Temperature, K	Solvent: Volume ratio of component to other component of binary solvent of water	Mass fraction of L-threonine	uncertainty
283.1	0.667	0.0037	0.0006
283.1	1.5	0.0101	0.0016
283.1	4	0.029	0.0046
293.15	0.667	0.0051	0.0008
293.15	1.5	0.0146	0.0023
293.15	4	0.037	0.0059
303.15	0.667	0.0067	0.0011
303.15	1.5	0.0192	0.0031
303.15	4	0.0457	0.0073
313.15	0.667	0.0073	0.0012
313.15	1.5	0.0255	0.0041
313.15	4	0.056	0.009

System: ethanol + L-threonine + water; phases: Liquid, Crystal
Fixed: Pressure, kPa = 101
Property: Mass fraction of L-threonine (Liquid); method: HPLC
Temperature, K	Solvent: Volume ratio of component to other component of binary solvent of water	Mass fraction of L-threonine	uncertainty
283.1	0.667	0.0059	0.0009
283.1	1.5	0.0118	0.0019
283.1	4	0.0307	0.0049
293.15	0.667	0.0079	0.0013
293.15	1.5	0.0163	0.0026
293.15	4	0.0393	0.0063
303.15	0.667	0.0091	0.0015
303.15	1.5	0.0206	0.0033
303.15	4	0.051	0.0082
313.15	0.667	0.0123	0.002
313.15	1.5	0.026	0.0042
313.15	4	0.0629	0.0101

System: ethanol + DL-threonine + water; phases: Liquid, Crystal
Fixed: Pressure, kPa = 101
Property: Mass fraction of DL-threonine (Liquid); method: gravimetry
Temperature, K	Solvent: Volume ratio of component to other component of binary solvent of water	Mass fraction of DL-threonine	uncertainty
283.1	0.667	0.0076	0.0012
283.1	4	0.0618	0.0099
288.15	1.5	0.0282	0.0045
293.15	0.25	0.0028	0.0005
293.15	0.667	0.0113	0.0018
293.15	1.5	0.0318	0.0051
293.15	4	0.078	0.0125
298.15	1.5	0.0354	0.0057
303.15	0.667	0.0151	0.0024
303.15	1.5	0.0418	0.0067
303.15	4	0.096	0.0154
313.15	0.25	0.0035	0.0006
313.15	0.667	0.0201	0.0032
313.15	1.5	0.0555	0.0089
313.15	4	0.1156	0.0185

System: ethanol + DL-threonine + water; phases: Liquid, Crystal
Fixed: Pressure, kPa = 101
Property: Mass fraction of DL-threonine (Liquid); method: HPLC
Temperature, K	Solvent: Volume ratio of component to other component of binary solvent of water	Mass fraction of DL-threonine	uncertainty
283.1	0.667	0.01	0.0016
283.1	4	0.0616	0.0099
293.15	1.5	0.0297	0.0048
293.15	4	0.0788	0.0126
303.15	0.667	0.0168	0.0027
303.15	1.5	0.042	0.0067
303.15	4	0.0976	0.0156
313.15	0.667	0.0213	0.0034
313.15	1.5	0.0586	0.0094
313.15	4	0.1233	0.0197
