Measured thermophysical data. Solubility of D-p-Hydroxyphenylglycine in Water, Methanol, Ethanol, Carbon Tetrachloride, Toluene, and N,N-Dimethylformamide between 278 K and 323 K
Source: J. Chem. Eng. Data, 2006, 10.1021/je060300h
Compound 1: (2R)-amino(4-hydroxyphenyl)ethanoic acid, C8H9NO3, InChI=1S/C8H9NO3/c9-7(8(11)12)5-1-3-6(10)4-2-5/h1-4,7,10H,9H2,(H,11,12)/t7-/m1/s1, purity 99.5%
Compound 2: water, H2O, InChI=1S/H2O/h1H2
Compound 3: methanol, CH4O, InChI=1S/CH4O/c1-2/h2H,1H3
Compound 4: ethanol, C2H6O, InChI=1S/C2H6O/c1-2-3/h3H,2H2,1H3
Compound 5: tetrachloromethane, CCl4, InChI=1S/CCl4/c2-1(3,4)5
Compound 6: toluene, C7H8, InChI=1S/C7H8/c1-7-5-3-2-4-6-7/h2-6H,1H3
Compound 7: dimethylformamide, C3H7NO, InChI=1S/C3H7NO/c1-4(2)3-5/h3H,1-2H3

System: water + (2R)-amino(4-hydroxyphenyl)ethanoic acid; phases: Liquid, Crystal
Fixed: Pressure, kPa = 101
Property: Mole fraction of (2R)-amino(4-hydroxyphenyl)ethanoic acid (Liquid); method: laser intensity
Temperature, K	Mole fraction of (2R)-amino(4-hydroxyphenyl)ethanoic acid	uncertainty
278.27	0.001798	5.1e-05
283.25	0.001859	5.2e-05
288.37	0.001941	5.5e-05
293.17	0.002034	5.7e-05
298.26	0.002151	6e-05
303.29	0.002285	6.4e-05
308.26	0.002435	6.8e-05
313.28	0.002605	7.3e-05
318.17	0.002788	7.8e-05
323.21	0.002994	8.4e-05

System: methanol + (2R)-amino(4-hydroxyphenyl)ethanoic acid; phases: Liquid, Crystal
Fixed: Pressure, kPa = 101
Property: Mole fraction of (2R)-amino(4-hydroxyphenyl)ethanoic acid (Liquid); method: laser intensity
Temperature, K	Mole fraction of (2R)-amino(4-hydroxyphenyl)ethanoic acid	uncertainty
278.17	0.0004199	9.6e-06
283.22	0.0004207	9.6e-06
288.21	0.0004215	9.6e-06
293.28	0.0004225	9.7e-06
298.24	0.0004236	9.7e-06
303.32	0.0004247	9.7e-06
308.2	0.000426	9.7e-06
313.26	0.0004273	9.8e-06
318.27	0.0004288	9.8e-06
323.25	0.0004303	9.8e-06

System: ethanol + (2R)-amino(4-hydroxyphenyl)ethanoic acid; phases: Liquid, Crystal
Fixed: Pressure, kPa = 101
Property: Mole fraction of (2R)-amino(4-hydroxyphenyl)ethanoic acid (Liquid); method: laser intensity
Temperature, K	Mole fraction of (2R)-amino(4-hydroxyphenyl)ethanoic acid	uncertainty
278.28	9.261e-05	1.98e-06
283.42	9.304e-05	1.99e-06
288.18	9.339e-05	2e-06
293.24	9.37e-05	2.01e-06
298.38	9.397e-05	2.01e-06
303.17	9.417e-05	2.02e-06
308.39	9.433e-05	2.02e-06
313.19	9.444e-05	2.02e-06
318.37	9.449e-05	2.02e-06
323.26	9.449e-05	2.02e-06

System: tetrachloromethane + (2R)-amino(4-hydroxyphenyl)ethanoic acid; phases: Liquid, Crystal
Fixed: Pressure, kPa = 101
Property: Mole fraction of (2R)-amino(4-hydroxyphenyl)ethanoic acid (Liquid); method: laser intensity
Temperature, K	Mole fraction of (2R)-amino(4-hydroxyphenyl)ethanoic acid	uncertainty
278.28	0.0001566	3.2e-06
283.33	0.0001641	3.3e-06
288.38	0.0001652	3.3e-06
293.32	0.0001719	3.5e-06
298.23	0.0001749	3.5e-06
303.32	0.0001796	3.6e-06
308.39	0.0001885	3.8e-06
313.37	0.0001951	3.9e-06
318.17	0.000205	4.1e-06
323.27	0.0002161	4.4e-06

System: toluene + (2R)-amino(4-hydroxyphenyl)ethanoic acid; phases: Liquid, Crystal
Fixed: Pressure, kPa = 101
Property: Mole fraction of (2R)-amino(4-hydroxyphenyl)ethanoic acid (Liquid); method: laser intensity
Temperature, K	Mole fraction of (2R)-amino(4-hydroxyphenyl)ethanoic acid	uncertainty
278.38	0.0002249	4.6e-06
283.23	0.0002273	4.6e-06
288.38	0.0002306	4.7e-06
293.36	0.000234	4.8e-06
298.29	0.000239	4.9e-06
303.21	0.0002436	5e-06
308.36	0.0002503	5.1e-06
313.3	0.000258	5.3e-06
318.24	0.0002641	5.4e-06
323.19	0.0002723	5.5e-06

System: dimethylformamide + (2R)-amino(4-hydroxyphenyl)ethanoic acid; phases: Liquid, Crystal
Fixed: Pressure, kPa = 101
Property: Mole fraction of (2R)-amino(4-hydroxyphenyl)ethanoic acid (Liquid); method: laser intensity
Temperature, K	Mole fraction of (2R)-amino(4-hydroxyphenyl)ethanoic acid	uncertainty
278.27	1.993e-05	1.2e-06
283.23	2.393e-05	1.44e-06
288.18	2.665e-05	1.61e-06
293.2	3.378e-05	2.04e-06
298.39	4.029e-05	2.43e-06
303.18	4.926e-05	2.97e-06
308.26	5.996e-05	3.62e-06
313.2	7.038e-05	4.24e-06
318.39	8.679e-05	5.23e-06
323.15	0.0001017	6.13e-06
