Measured thermophysical data. Vapor-Liquid Equilibrium for Binary System of Diethyl Sulfide + n-Heptane and Diethyl Sulfide + 2,2,4-Trimethylpentane at (363.15 and 353.15) K
Source: J. Chem. Eng. Data, 2007, 10.1021/je060351e
Compound 1: 3-thiapentane, C4H10S, InChI=1S/C4H10S/c1-3-5-4-2/h3-4H2,1-2H3
Compound 2: heptane, C7H16, InChI=1S/C7H16/c1-3-5-7-6-4-2/h3-7H2,1-2H3
Compound 3: 2,2,4-trimethylpentane, C8H18, InChI=1S/C8H18/c1-7(2)6-8(3,4)5/h7H,6H2,1-5H3
Compound 4: toluene, C7H8, InChI=1S/C7H8/c1-7-5-3-2-4-6-7/h2-6H,1H3

System: 3-thiapentane; phases: Liquid
Property: Refractive index (Na D-line) (Liquid); method: Standard Abbe refractometry
Temperature, K	Pressure, kPa	Refractive index (Na D-line)	uncertainty
298.15	101.325	1.44	0.0007

System: 3-thiapentane; phases: Liquid, Gas
Property: Vapor or sublimation pressure, kPa (Liquid); method: Ebulliometric method (Recirculating still)
Temperature, K	Vapor or sublimation pressure, kPa	uncertainty
353.15	70.2	0.51
353.15	70.23	0.51
353.15	70.11	0.51
363.15	95.99	0.57
363.15	95.89	0.57

System: 3-thiapentane; phases: Liquid
Property: Refractive index (Na D-line) (Liquid); method: Standard Abbe refractometry
Temperature, K	Pressure, kPa	Refractive index (Na D-line)	uncertainty
293.15	101.325	1.4429	0.0003

System: heptane; phases: Liquid
Property: Refractive index (Na D-line) (Liquid); method: Standard Abbe refractometry
Temperature, K	Pressure, kPa	Refractive index (Na D-line)	uncertainty
298.15	101.325	1.3853	0.0007

System: heptane; phases: Liquid, Gas
Property: Vapor or sublimation pressure, kPa (Liquid); method: Ebulliometric method (Recirculating still)
Temperature, K	Vapor or sublimation pressure, kPa	uncertainty
338.47	34.34	0.37
342.9	40.26	0.37
349.4	50.45	0.38
353.15	57.34	0.48
355.44	61.71	0.4
360.77	73.29	0.41
363.15	79.09	0.52
364.91	83.48	0.43
367.39	90.13	0.44
369.49	96.1	0.45
371.75	102.91	0.46

System: heptane; phases: Liquid
Property: Refractive index (Na D-line) (Liquid); method: Standard Abbe refractometry
Temperature, K	Pressure, kPa	Refractive index (Na D-line)	uncertainty
293.15	101.325	1.3879	0.0004

System: 2,2,4-trimethylpentane; phases: Liquid
Property: Refractive index (Na D-line) (Liquid); method: Standard Abbe refractometry
Temperature, K	Pressure, kPa	Refractive index (Na D-line)	uncertainty
298.15	101.325	1.389	0.0007

System: 2,2,4-trimethylpentane; phases: Liquid, Gas
Property: Vapor or sublimation pressure, kPa (Liquid); method: Ebulliometric method (Recirculating still)
Temperature, K	Vapor or sublimation pressure, kPa	uncertainty
338.06	34.27	0.37
345.38	44.13	0.37
350.06	51.53	0.38
353.15	57.11	0.46
355.56	61.51	0.39
360.21	71.15	0.4
363.15	77.77	0.51
364.6	81.27	0.42
368.06	90.13	0.43
369.85	95.03	0.44
372.05	101.32	0.45

System: 2,2,4-trimethylpentane; phases: Liquid
Property: Refractive index (Na D-line) (Liquid); method: Standard Abbe refractometry
Temperature, K	Pressure, kPa	Refractive index (Na D-line)	uncertainty
293.15	101.325	1.3915	0.0003

System: toluene; phases: Liquid
Property: Refractive index (Na D-line) (Liquid); method: Standard Abbe refractometry
Temperature, K	Pressure, kPa	Refractive index (Na D-line)	uncertainty
298.15	101.325	1.4939	0.0007

System: heptane + 3-thiapentane; phases: Liquid
Fixed: Pressure, kPa = 101
Fixed: Temperature, K = 293.15
Property: Refractive index (Na D-line) (Liquid); method: Standard Abbe refractometry
Mole fraction of 3-thiapentane	Refractive index (Na D-line)	uncertainty
0	1.3879	0.0004
0.026	1.3889	0.0004
0.05	1.3896	0.0004
0.082	1.3908	0.0004
0.102	1.3916	0.0004
0.2	1.3955	0.0004
0.304	1.4001	0.0004
0.401	1.4046	0.0004
0.504	1.4099	0.0004
0.602	1.4154	0.0004
0.703	1.4215	0.0004
0.8	1.4279	0.0004
0.899	1.435	0.0004
0.922	1.4367	0.0004
0.948	1.4387	0.0004
0.975	1.4408	0.0004
1	1.4429	0.0003

System: heptane + 3-thiapentane; phases: Liquid, Gas
Property: Vapor or sublimation pressure, kPa (Liquid); method: Ebulliometric method (Recirculating still)
Mole fraction of 3-thiapentane	Temperature, K	Vapor or sublimation pressure, kPa	uncertainty
0	353.15	57.34	0.35
0	363.15	79.09	0.46
0.029	363.15	80.56	0.47
0.036	353.15	58.75	0.36
0.066	363.15	82.24	0.48
0.086	353.15	60.44	0.37
0.109	363.15	84	0.49
0.147	353.15	62.3	0.38
0.158	363.15	85.8	0.5
0.202	363.15	87.38	0.51
0.213	353.15	64.04	0.38
0.252	363.15	88.98	0.51
0.279	353.15	65.61	0.39
0.298	363.15	90.31	0.52
0.344	353.15	66.96	0.4
0.353	363.15	91.74	0.53
0.409	353.15	68.11	0.4
0.418	363.15	92.99	0.53
0.473	353.15	69.06	0.41
0.477	363.15	94.23	0.54
0.53	353.15	69.79	0.41
0.569	363.15	95.64	0.54
0.595	353.15	70.2	0.41
0.653	363.15	96.56	0.55
0.667	353.15	70.41	0.41
0.722	363.15	97.06	0.55
0.737	353.15	70.68	0.41
0.78	363.15	97.4	0.55
0.8	353.15	70.94	0.41
0.827	363.15	97.4	0.55
0.857	353.15	71.16	0.41
0.867	363.15	97.3	0.55
0.903	363.15	97.1	0.55
0.906	353.15	71.21	0.41
0.934	363.15	96.91	0.55
0.947	353.15	71.09	0.41
0.961	363.15	96.59	0.54
0.978	353.15	70.78	0.41
0.983	363.15	96.35	0.54
1	353.15	70.23	0.41
1	363.15	95.99	0.54

System: heptane + 3-thiapentane; phases: Liquid, Gas
Property: Vapor or sublimation pressure, kPa (Liquid); method: Ebulliometric method (Recirculating still)
Mole fraction of 3-thiapentane	Temperature, K	Vapor or sublimation pressure, kPa	uncertainty
0	353.15	57.34	0.48
0	363.15	79.09	0.52
0.032	363.15	80.56	0.54
0.038	353.15	58.75	0.48
0.069	363.15	82.24	0.54
0.088	353.15	60.44	0.49
0.111	363.15	84	0.54
0.149	353.15	62.3	0.5
0.159	363.15	85.8	0.55
0.204	363.15	87.38	0.55
0.214	353.15	64.04	0.5
0.254	363.15	88.98	0.56
0.28	353.15	65.61	0.5
0.299	363.15	90.31	0.56
0.345	353.15	66.96	0.51
0.354	363.15	91.74	0.56
0.41	353.15	68.11	0.51
0.417	363.15	92.99	0.57
0.473	353.15	69.06	0.51
0.477	363.15	94.23	0.57
0.53	353.15	69.79	0.52
0.568	363.15	95.64	0.57
0.595	353.15	70.23	0.52
0.652	363.15	96.56	0.58
0.667	353.15	70.78	0.52
0.721	363.15	97.06	0.58
0.735	353.15	71.09	0.52
0.779	363.15	97.4	0.58
0.798	353.15	71.21	0.52
0.826	363.15	97.4	0.58
0.855	353.15	71.16	0.52
0.865	363.15	97.3	0.58
0.901	363.15	97.1	0.58
0.905	353.15	70.94	0.52
0.932	363.15	96.91	0.57
0.945	353.15	70.68	0.52
0.959	363.15	96.59	0.57
0.976	353.15	70.41	0.52
0.981	363.15	96.35	0.57
1	353.15	70.2	0.51
1	363.15	95.99	0.57

System: heptane + 3-thiapentane; phases: Gas, Liquid
Property: Mole fraction of 3-thiapentane (Gas); method: Index of refraction calibration data
Mole fraction of 3-thiapentane	Temperature, K	Mole fraction of 3-thiapentane	uncertainty
0	353.15	0	0.1
0	363.15	0	0.1
0.032	363.15	0.049	0.001
0.038	353.15	0.059	0.001
0.069	363.15	0.102	0.001
0.088	353.15	0.131	0.001
0.111	363.15	0.157	0.001
0.149	353.15	0.208	0.001
0.159	363.15	0.217	0.001
0.204	363.15	0.268	0.001
0.214	353.15	0.284	0.001
0.254	363.15	0.32	0.001
0.28	353.15	0.352	0.002
0.299	363.15	0.366	0.002
0.345	353.15	0.415	0.002
0.354	363.15	0.419	0.002
0.41	353.15	0.474	0.002
0.417	363.15	0.477	0.002
0.473	353.15	0.527	0.002
0.477	363.15	0.531	0.002
0.53	353.15	0.576	0.002
0.568	363.15	0.605	0.002
0.595	353.15	0.628	0.002
0.652	363.15	0.674	0.002
0.667	353.15	0.687	0.002
0.721	363.15	0.732	0.002
0.735	353.15	0.744	0.002
0.779	363.15	0.781	0.001
0.798	353.15	0.797	0.001
0.826	363.15	0.823	0.001
0.855	353.15	0.849	0.001
0.865	363.15	0.859	0.001
0.901	363.15	0.894	0.001
0.905	353.15	0.897	0.001
0.932	363.15	0.925	0.001
0.945	353.15	0.938	0.001
0.959	363.15	0.954	0.001
0.976	353.15	0.973	0.001
0.981	363.15	0.979	0.001
1	353.15	1	0.001
1	363.15	1	0.001

System: heptane + 3-thiapentane; phases: Gas, Liquid
Property: Mole fraction of 3-thiapentane (Gas); method: Index of refraction calibration data
Mole fraction of 3-thiapentane	Temperature, K	Mole fraction of 3-thiapentane	uncertainty
0	353.15	0	0.001
0	363.15	0	0.001
0.029	363.15	0.046	0.004
0.036	353.15	0.057	0.004
0.066	363.15	0.1	0.003
0.086	353.15	0.13	0.003
0.109	363.15	0.156	0.003
0.147	353.15	0.207	0.003
0.158	363.15	0.215	0.003
0.202	363.15	0.266	0.003
0.213	353.15	0.282	0.003
0.252	363.15	0.319	0.003
0.279	353.15	0.351	0.003
0.298	363.15	0.365	0.003
0.344	353.15	0.415	0.003
0.353	363.15	0.419	0.003
0.409	353.15	0.474	0.003
0.418	363.15	0.477	0.003
0.473	353.15	0.527	0.003
0.477	363.15	0.531	0.003
0.53	353.15	0.576	0.003
0.569	363.15	0.605	0.003
0.595	353.15	0.628	0.003
0.653	363.15	0.674	0.003
0.667	353.15	0.687	0.003
0.722	363.15	0.732	0.003
0.737	353.15	0.744	0.003
0.78	363.15	0.781	0.003
0.8	353.15	0.798	0.003
0.827	363.15	0.823	0.003
0.857	353.15	0.85	0.003
0.867	363.15	0.86	0.003
0.903	363.15	0.894	0.003
0.906	353.15	0.897	0.003
0.934	363.15	0.926	0.003
0.947	353.15	0.938	0.003
0.961	363.15	0.954	0.003
0.978	353.15	0.973	0.003
0.983	363.15	0.979	0.003
1	353.15	1	0.001
1	363.15	1	0.001

System: 3-thiapentane + 2,2,4-trimethylpentane; phases: Liquid
Fixed: Pressure, kPa = 101
Fixed: Temperature, K = 293.15
Property: Refractive index (Na D-line) (Liquid); method: Standard Abbe refractometry
Mole fraction of 3-thiapentane	Refractive index (Na D-line)	uncertainty
0	1.3915	0.0003
0.028	1.3924	0.0003
0.052	1.3931	0.0003
0.083	1.3941	0.0003
0.102	1.3948	0.0003
0.204	1.3984	0.0003
0.305	1.4023	0.0003
0.403	1.4065	0.0003
0.505	1.4112	0.0003
0.603	1.4163	0.0003
0.703	1.422	0.0003
0.802	1.4282	0.0004
0.901	1.4351	0.0004
0.921	1.4367	0.0004
0.951	1.4389	0.0004
0.975	1.4409	0.0004
1	1.4429	0.0003

System: 3-thiapentane + 2,2,4-trimethylpentane; phases: Liquid, Gas
Property: Vapor or sublimation pressure, kPa (Liquid); method: Ebulliometric method (Recirculating still)
Mole fraction of 3-thiapentane	Temperature, K	Vapor or sublimation pressure, kPa	uncertainty
0	353.15	57.11	0.46
0	363.15	77.77	0.51
0.044	353.15	58.71	0.48
0.044	363.15	79.98	0.52
0.098	353.15	60.61	0.48
0.1	363.15	82.49	0.53
0.165	353.15	62.63	0.49
0.178	363.15	85.67	0.54
0.242	353.15	64.7	0.49
0.26	363.15	88.58	0.54
0.316	353.15	66.32	0.5
0.361	363.15	91.53	0.56
0.398	353.15	67.96	0.5
0.45	353.15	68.75	0.51
0.459	363.15	93.89	0.56
0.54	353.15	69.93	0.51
0.55	363.15	95.56	0.57
0.622	353.15	70.75	0.52
0.644	363.15	96.62	0.57
0.703	353.15	71.25	0.52
0.711	363.15	97.2	0.57
0.775	363.15	97.47	0.57
0.776	353.15	71.49	0.52
0.83	363.15	97.49	0.57
0.839	353.15	71.49	0.52
0.877	363.15	97.37	0.57
0.895	353.15	71.23	0.52
0.919	363.15	97.12	0.57
0.94	353.15	70.91	0.52
0.953	363.15	96.75	0.57
0.976	353.15	70.5	0.52
0.981	363.15	96.41	0.57
1	353.15	70.11	0.51
1	363.15	95.89	0.57

System: 3-thiapentane + 2,2,4-trimethylpentane; phases: Liquid, Gas
Property: Vapor or sublimation pressure, kPa (Liquid); method: Ebulliometric method (Recirculating still)
Mole fraction of 3-thiapentane	Temperature, K	Vapor or sublimation pressure, kPa	uncertainty
0	353.15	57.11	0.46
0	363.15	77.77	0.51
0.042	363.15	79.98	0.52
0.043	353.15	58.71	0.48
0.097	353.15	60.61	0.48
0.097	363.15	82.49	0.53
0.162	353.15	62.63	0.49
0.175	363.15	85.67	0.54
0.241	353.15	64.7	0.49
0.258	363.15	88.58	0.54
0.313	353.15	66.32	0.5
0.359	363.15	91.53	0.56
0.398	353.15	67.96	0.5
0.453	353.15	68.75	0.51
0.458	363.15	93.89	0.56
0.541	353.15	69.93	0.51
0.55	363.15	95.56	0.57
0.625	353.15	70.75	0.52
0.644	363.15	96.62	0.57
0.705	353.15	71.25	0.52
0.711	363.15	97.2	0.57
0.774	363.15	97.47	0.57
0.777	353.15	71.49	0.52
0.831	363.15	97.49	0.57
0.841	353.15	71.49	0.52
0.877	363.15	97.37	0.57
0.897	353.15	71.23	0.52
0.92	363.15	97.12	0.57
0.942	353.15	70.91	0.52
0.955	363.15	96.75	0.57
0.979	353.15	70.5	0.52
0.983	363.15	96.41	0.57
1	353.15	70.11	0.51
1	363.15	95.89	0.57

System: 3-thiapentane + 2,2,4-trimethylpentane; phases: Gas, Liquid
Property: Mole fraction of 3-thiapentane (Gas); method: Chromatography
Mole fraction of 3-thiapentane	Temperature, K	Mole fraction of 3-thiapentane	uncertainty
0	353.15	0	0.1
0	363.15	0	0.1
0.042	363.15	0.065	0.001
0.043	353.15	0.067	0.001
0.097	353.15	0.146	0.002
0.097	363.15	0.143	0.002
0.162	353.15	0.23	0.003
0.175	363.15	0.241	0.003
0.241	353.15	0.316	0.004
0.258	363.15	0.333	0.004
0.313	353.15	0.39	0.005
0.359	363.15	0.429	0.005
0.398	353.15	0.467	0.006
0.453	353.15	0.514	0.006
0.458	363.15	0.518	0.006
0.541	353.15	0.586	0.005
0.55	363.15	0.594	0.005
0.625	353.15	0.653	0.004
0.644	363.15	0.67	0.004
0.705	353.15	0.717	0.004
0.711	363.15	0.725	0.004
0.774	363.15	0.778	0.003
0.777	353.15	0.778	0.003
0.831	363.15	0.827	0.002
0.841	353.15	0.833	0.002
0.877	363.15	0.87	0.002
0.897	353.15	0.886	0.002
0.92	363.15	0.911	0.001
0.942	353.15	0.932	0.001
0.955	363.15	0.947	0.001
0.979	353.15	0.973	0.001
0.983	363.15	0.977	0.001
1	353.15	1	0.001
1	363.15	1	0.001

System: 3-thiapentane + 2,2,4-trimethylpentane; phases: Gas, Liquid
Property: Mole fraction of 3-thiapentane (Gas); method: Chromatography
Mole fraction of 3-thiapentane	Temperature, K	Mole fraction of 3-thiapentane	uncertainty
0	353.15	0	0.1
0	363.15	0	0.1
0.044	353.15	0.069	0.001
0.044	363.15	0.068	0.001
0.098	353.15	0.148	0.002
0.1	363.15	0.146	0.002
0.165	353.15	0.232	0.003
0.178	363.15	0.245	0.003
0.242	353.15	0.318	0.004
0.26	363.15	0.337	0.004
0.316	353.15	0.391	0.005
0.361	363.15	0.431	0.005
0.398	353.15	0.469	0.006
0.45	353.15	0.513	0.006
0.459	363.15	0.519	0.006
0.54	353.15	0.587	0.005
0.55	363.15	0.595	0.005
0.622	353.15	0.653	0.004
0.644	363.15	0.671	0.004
0.703	353.15	0.717	0.004
0.711	363.15	0.725	0.004
0.775	363.15	0.778	0.003
0.776	353.15	0.777	0.003
0.83	363.15	0.826	0.002
0.839	353.15	0.833	0.002
0.877	363.15	0.87	0.002
0.895	353.15	0.886	0.002
0.919	363.15	0.911	0.001
0.94	353.15	0.932	0.001
0.953	363.15	0.947	0.001
0.976	353.15	0.972	0.001
0.981	363.15	0.978	0.001
1	353.15	1	0.001
1	363.15	1	0.001
