Measured thermophysical data. Solubility and Melting Properties of Salicylamide
Source: J. Chem. Eng. Data, 2006, 10.1021/je060178m
Compound 1: 2-hydroxybenzamide, C7H7NO2, InChI=1S/C7H7NO2/c8-7(10)5-3-1-2-4-6(5)9/h1-4,9H,(H2,8,10)
Compound 2: methanol, CH4O, InChI=1S/CH4O/c1-2/h2H,1H3
Compound 3: acetonitrile, C2H3N, InChI=1S/C2H3N/c1-2-3/h1H3
Compound 4: acetic acid, C2H4O2, InChI=1S/C2H4O2/c1-2(3)4/h1H3,(H,3,4)
Compound 5: acetone, C3H6O, InChI=1S/C3H6O/c1-3(2)4/h1-2H3
Compound 6: water, H2O, InChI=1S/H2O/h1H2
Compound 7: ethyl acetate, C4H8O2, InChI=1S/C4H8O2/c1-3-6-4(2)5/h3H2,1-2H3

System: 2-hydroxybenzamide; phases: Crystal, Liquid, Air at 1 atmosphere
Property: Molar enthalpy of transition or fusion, kJ/mol (Crystal); method: DSC
Molar enthalpy of transition or fusion, kJ/mol	uncertainty
29	0.8

System: 2-hydroxybenzamide; phases: Crystal, Liquid, Air at 1 atmosphere
Property: Normal melting temperature, K (Crystal); method: DTA
Normal melting temperature, K	uncertainty
411.85	1.1

System: 2-hydroxybenzamide + methanol; phases: Liquid, Crystal
Fixed: Pressure, kPa = 101
Property: Mole fraction of 2-hydroxybenzamide (Liquid); method: gravimetric analysis
Temperature, K	Mole fraction of 2-hydroxybenzamide	uncertainty
283.1	0.02672	0.00052
288.15	0.03069	0.00034
293.15	0.03512	0.00046
298.15	0.0406	0.00054
303.15	0.04666	0.00072
308.15	0.05358	0.0009
313.15	0.06251	0.0008
318.15	0.07191	0.00079
323.15	0.08359	0.00091

System: 2-hydroxybenzamide + acetonitrile; phases: Liquid, Crystal
Fixed: Pressure, kPa = 101
Property: Mole fraction of 2-hydroxybenzamide (Liquid); method: gravimetric analysis
Temperature, K	Mole fraction of 2-hydroxybenzamide	uncertainty
283.1	0.0201	0.00025
288.15	0.02404	0.00031
293.15	0.02818	0.00032
298.15	0.03328	0.0004
303.15	0.03958	0.00053
308.15	0.04764	0.00099
313.15	0.05579	0.00103
318.15	0.06515	0.00152
323.15	0.07732	0.00197

System: acetic acid + 2-hydroxybenzamide; phases: Liquid, Crystal
Fixed: Pressure, kPa = 101
Property: Mole fraction of 2-hydroxybenzamide (Liquid); method: gravimetric analysis
Temperature, K	Mole fraction of 2-hydroxybenzamide	uncertainty
283.1	0.05854	0.00034
288.15	0.06525	0.00042
293.15	0.07295	0.00058
298.15	0.08239	0.00069
303.15	0.09278	0.00093
308.15	0.10359	0.00081
313.15	0.11715	0.00101
318.15	0.13138	0.00104
323.15	0.14516	0.00091

System: 2-hydroxybenzamide + acetone; phases: Liquid, Crystal
Fixed: Pressure, kPa = 101
Property: Mole fraction of 2-hydroxybenzamide (Liquid); method: gravimetric analysis
Temperature, K	Mole fraction of 2-hydroxybenzamide	uncertainty
283.1	0.0993	0.00099
288.15	0.10785	0.00076
293.15	0.11783	0.00082
298.15	0.12943	0.00097
303.15	0.14062	0.00105
308.15	0.15352	0.00119
313.15	0.16819	0.00133
318.15	0.18161	0.00147
323.15	0.19842	0.00193

System: 2-hydroxybenzamide + water; phases: Liquid, Crystal
Fixed: Pressure, kPa = 101
Property: Mole fraction of 2-hydroxybenzamide (Liquid); method: gravimetric analysis
Temperature, K	Mole fraction of 2-hydroxybenzamide	uncertainty
283.1	0.00016	7e-06
288.15	0.000205	1.1e-05
293.15	0.000261	6e-06
298.15	0.000317	1.3e-05
303.15	0.000391	2.1e-05
308.15	0.000485	8.2e-05
313.15	0.000594	1.1e-05
318.15	0.000757	5.5e-05
323.15	0.000974	2.2e-05

System: 2-hydroxybenzamide + ethyl acetate; phases: Liquid, Crystal
Fixed: Pressure, kPa = 101
Property: Mole fraction of 2-hydroxybenzamide (Liquid); method: gravimetric analysis
Temperature, K	Mole fraction of 2-hydroxybenzamide	uncertainty
283.1	0.05528	0.0008
288.15	0.0607	0.00042
293.15	0.06703	0.00093
298.15	0.07549	0.0021
303.15	0.08345	0.00087
308.15	0.09281	0.00127
313.15	0.10276	0.00085
318.15	0.11432	0.00105
323.15	0.12716	0.00117
