Measured thermophysical data. Refractive Indices and Surface Tensions of Binary Mixtures of Isoamyl Acetate, Ethyl Caproate, Ethyl Benzoate, Isoamyl Butyrate, Ethyl Phenylacetate, and Ethyl Caprylate with Ethanol at (288.15, 298.15, 308.15, and 318.15) K
Source: J. Chem. Eng. Data, 2006, 10.1021/je0601208
Compound 1: ethyl hexanoate, C8H16O2, InChI=1S/C8H16O2/c1-3-5-6-7-8(9)10-4-2/h3-7H2,1-2H3
Compound 2: ethyl benzoate, C9H10O2, InChI=1S/C9H10O2/c1-2-11-9(10)8-6-4-3-5-7-8/h3-7H,2H2,1H3
Compound 3: 3-methylbutyl butanoate, C9H18O2, InChI=1S/C9H18O2/c1-4-5-9(10)11-7-6-8(2)3/h8H,4-7H2,1-3H3
Compound 4: ethyl phenylacetate, C10H12O2, InChI=1S/C10H12O2/c1-2-12-10(11)8-9-6-4-3-5-7-9/h3-7H,2,8H2,1H3
Compound 5: ethyl octanoate, C10H20O2, InChI=1S/C10H20O2/c1-3-5-6-7-8-9-10(11)12-4-2/h3-9H2,1-2H3
Compound 6: 3-methylbutyl ethanoate, C7H14O2, InChI=1S/C7H14O2/c1-6(2)4-5-9-7(3)8/h6H,4-5H2,1-3H3
Compound 7: ethanol, C2H6O, InChI=1S/C2H6O/c1-2-3/h3H,2H2,1H3

System: ethyl hexanoate; phases: Liquid
Property: Mass density, kg/m3 (Liquid); method: VIBTUB:UFactor:2
Temperature, K	Pressure, kPa	Mass density, kg/m3	uncertainty
298.15	101.325	866.29	0.21

System: ethyl hexanoate; phases: Liquid, Gas
Property: Surface tension liquid-gas, N/m (Liquid); method: RINGTE:UFactor:0.5
Temperature, K	Surface tension liquid-gas, N/m	uncertainty
288.15	0.0264	0.0006
298.15	0.0254	0.0006
308.15	0.0245	0.0006
318.15	0.0236	0.0006

System: ethyl hexanoate; phases: Liquid
Fixed: Pressure, kPa = 101.325
Property: Refractive index (Na D-line) (Liquid); method: Standard Abbe refractometry
Temperature, K	Refractive index (Na D-line)	uncertainty
288.15	1.4095	0.00032
298.15	1.40504	0.00032
308.15	1.40055	0.00032
318.15	1.39597	0.00032

System: ethyl benzoate; phases: Liquid
Property: Mass density, kg/m3 (Liquid); method: VIBTUB:UFactor:2
Temperature, K	Pressure, kPa	Mass density, kg/m3	uncertainty
298.15	101.325	1041.42	0.14

System: ethyl benzoate; phases: Liquid, Gas
Property: Surface tension liquid-gas, N/m (Liquid); method: RINGTE::UFactor:0.5
Temperature, K	Surface tension liquid-gas, N/m	uncertainty
288.15	0.0357	0.0007
298.15	0.0346	0.0007
308.15	0.0333	0.0007
318.15	0.0325	0.0007

System: ethyl benzoate; phases: Liquid
Fixed: Pressure, kPa = 101.325
Property: Refractive index (Na D-line) (Liquid); method: Standard Abbe refractometry
Temperature, K	Refractive index (Na D-line)	uncertainty
288.15	1.5076	0.00032
298.15	1.50328	0.00032
308.15	1.49863	0.00032
318.15	1.49391	0.00032

System: 3-methylbutyl butanoate; phases: Liquid
Property: Mass density, kg/m3 (Liquid); method: VIBTUB:UFactor:4
Temperature, K	Pressure, kPa	Mass density, kg/m3	uncertainty
298.15	101.325	858.69	0.44

System: 3-methylbutyl butanoate; phases: Liquid, Gas
Property: Surface tension liquid-gas, N/m (Liquid); method: RINGTE::UFactor:0.5
Temperature, K	Surface tension liquid-gas, N/m	uncertainty
288.15	0.0257	0.0006
298.15	0.0247	0.0006
308.15	0.024	0.0006
318.15	0.0231	0.0006

System: 3-methylbutyl butanoate; phases: Liquid
Fixed: Pressure, kPa = 101.325
Property: Refractive index (Na D-line) (Liquid); method: Standard Abbe refractometry
Temperature, K	Refractive index (Na D-line)	uncertainty
288.15	1.41259	0.00034
298.15	1.40815	0.00034
308.15	1.40374	0.00034
318.15	1.39927	0.00034

System: ethyl phenylacetate; phases: Liquid
Property: Mass density, kg/m3 (Liquid); method: VIBTUB:UFactor:4
Temperature, K	Pressure, kPa	Mass density, kg/m3	uncertainty
298.15	101.325	1026.96	0.35

System: ethyl phenylacetate; phases: Liquid, Gas
Property: Surface tension liquid-gas, N/m (Liquid); method: RINGTE::UFactor:0.5
Temperature, K	Surface tension liquid-gas, N/m	uncertainty
288.15	0.0359	0.0007
298.15	0.0346	0.0007
308.15	0.0335	0.0007
318.15	0.0328	0.0007

System: ethyl phenylacetate; phases: Liquid
Fixed: Pressure, kPa = 101.325
Property: Refractive index (Na D-line) (Liquid); method: Standard Abbe refractometry
Temperature, K	Refractive index (Na D-line)	uncertainty
288.15	1.49971	0.00034
298.15	1.49513	0.00034
308.15	1.49063	0.00034
318.15	1.48583	0.00034

System: ethyl octanoate; phases: Liquid
Property: Mass density, kg/m3 (Liquid); method: VIBTUB:UFactor:4
Temperature, K	Pressure, kPa	Mass density, kg/m3	uncertainty
298.15	101.325	862.15	0.41

System: ethyl octanoate; phases: Liquid, Gas
Property: Surface tension liquid-gas, N/m (Liquid); method: RINGTE::UFactor:0.5
Temperature, K	Surface tension liquid-gas, N/m	uncertainty
288.15	0.0272	0.0006
298.15	0.0264	0.0006
308.15	0.0255	0.0006
318.15	0.0247	0.0006

System: ethyl octanoate; phases: Liquid
Fixed: Pressure, kPa = 101.325
Property: Refractive index (Na D-line) (Liquid); method: Standard Abbe refractometry
Temperature, K	Refractive index (Na D-line)	uncertainty
288.15	1.41991	0.00033
298.15	1.4156	0.00033
308.15	1.41137	0.00033
318.15	1.40702	0.00033

System: 3-methylbutyl ethanoate; phases: Liquid
Property: Mass density, kg/m3 (Liquid); method: VIBTUB:UFactor:4
Temperature, K	Pressure, kPa	Mass density, kg/m3	uncertainty
298.15	101.325	867.91	0.45

System: 3-methylbutyl ethanoate; phases: Liquid, Gas
Property: Surface tension liquid-gas, N/m (Liquid); method: RINGTE::UFactor:0.5
Temperature, K	Surface tension liquid-gas, N/m	uncertainty
288.15	0.0254	0.0004
298.15	0.0243	0.0004
308.15	0.0234	0.0004
318.15	0.0224	0.0004

System: 3-methylbutyl ethanoate; phases: Liquid
Fixed: Pressure, kPa = 101.325
Property: Refractive index (Na D-line) (Liquid); method: Standard Abbe refractometry
Temperature, K	Refractive index (Na D-line)	uncertainty
288.15	1.40288	0.00034
298.15	1.39836	0.00034
308.15	1.39365	0.00034
318.15	1.38895	0.00034

System: ethanol; phases: Liquid
Property: Mass density, kg/m3 (Liquid); method: VIBTUB:UFactor:2
Temperature, K	Pressure, kPa	Mass density, kg/m3	uncertainty
298.15	101.325	785	0.24

System: ethanol; phases: Liquid, Gas
Property: Surface tension liquid-gas, N/m (Liquid); method: RINGTE::UFactor:0.5
Temperature, K	Surface tension liquid-gas, N/m	uncertainty
288.15	0.023	0.0004
298.15	0.0223	0.0004
308.15	0.0215	0.0004
318.15	0.0206	0.0004

System: ethanol; phases: Liquid
Fixed: Pressure, kPa = 101.325
Property: Refractive index (Na D-line) (Liquid); method: Standard Abbe refractometry
Temperature, K	Refractive index (Na D-line)	uncertainty
288.15	1.36333	0.00031
298.15	1.35941	0.00031
308.15	1.35531	0.00031
318.15	1.35148	0.00031

System: ethanol + 3-methylbutyl ethanoate; phases: Liquid, Gas
Property: Surface tension liquid-gas, N/m (Liquid); method: RINGTE:UFactor:0.5
Temperature, K	Mole fraction of 3-methylbutyl ethanoate	Surface tension liquid-gas, N/m	uncertainty
288.15	0	0.023	0.0004
288.15	0.05	0.0232	0.0004
288.15	0.1	0.0234	0.0004
288.15	0.15	0.0236	0.0004
288.15	0.2	0.0237	0.0004
288.15	0.25	0.0238	0.0004
288.15	0.3	0.024	0.0004
288.15	0.35	0.0241	0.0004
288.15	0.4	0.0242	0.0004
288.15	0.45	0.0243	0.0004
288.15	0.5	0.0244	0.0004
288.15	0.55	0.0245	0.0004
288.15	0.6	0.0246	0.0004
288.15	0.65	0.0247	0.0004
288.15	0.7	0.0248	0.0004
288.15	0.75	0.0249	0.0004
288.15	0.8	0.025	0.0004
288.15	0.85	0.0251	0.0004
288.15	0.9	0.0252	0.0004
288.15	0.95	0.0253	0.0004
288.15	1	0.0254	0.0004
298.15	0	0.0223	0.0004
298.15	0.05	0.0224	0.0004
298.15	0.1	0.0225	0.0004
298.15	0.15	0.0227	0.0004
298.15	0.2	0.0228	0.0004
298.15	0.25	0.0229	0.0004
298.15	0.35	0.023	0.0004
298.15	0.4	0.0231	0.0004
298.15	0.45	0.0232	0.0004
298.15	0.5	0.0233	0.0004
298.15	0.55	0.0234	0.0004
298.15	0.6	0.0235	0.0004
298.15	0.65	0.0236	0.0004
298.15	0.7	0.0237	0.0004
298.15	0.75	0.0238	0.0004
298.15	0.8	0.0239	0.0004
298.15	0.85	0.024	0.0004
298.15	0.9	0.0241	0.0004
298.15	0.95	0.0242	0.0004
298.15	1	0.0243	0.0004
308.15	0	0.0215	0.0004
308.15	0.05	0.0216	0.0004
308.15	0.1	0.0216	0.0004
308.15	0.15	0.0217	0.0004
308.15	0.2	0.0218	0.0004
308.15	0.25	0.0219	0.0004
308.15	0.3	0.022	0.0004
308.15	0.35	0.0221	0.0004
308.15	0.4	0.0222	0.0004
308.15	0.45	0.0223	0.0004
308.15	0.5	0.0224	0.0004
308.15	0.55	0.0225	0.0004
308.15	0.6	0.0226	0.0004
308.15	0.65	0.0227	0.0004
308.15	0.7	0.0228	0.0004
308.15	0.75	0.0229	0.0004
308.15	0.8	0.023	0.0004
308.15	0.85	0.0231	0.0004
308.15	0.9	0.0232	0.0004
308.15	0.95	0.0233	0.0004
308.15	1	0.0234	0.0004
318.15	0	0.0206	0.0004
318.15	0.05	0.0206	0.0004
318.15	0.1	0.0206	0.0004
318.15	0.15	0.0207	0.0004
318.15	0.2	0.0208	0.0004
318.15	0.25	0.0209	0.0004
318.15	0.3	0.021	0.0004
318.15	0.35	0.0211	0.0004
318.15	0.4	0.0212	0.0004
318.15	0.45	0.0213	0.0004
318.15	0.5	0.0214	0.0004
318.15	0.55	0.0215	0.0004
318.15	0.6	0.0216	0.0004
318.15	0.65	0.0217	0.0004
318.15	0.7	0.0218	0.0004
318.15	0.75	0.0219	0.0004
318.15	0.8	0.022	0.0004
318.15	0.85	0.0221	0.0004
318.15	0.9	0.0222	0.0004
318.15	0.95	0.0223	0.0004
318.15	1	0.0224	0.0004

System: ethanol + 3-methylbutyl ethanoate; phases: Liquid
Fixed: Pressure, kPa = 100.5
Property: Refractive index (Na D-line) (Liquid); method: Standard Abbe refractometry
Temperature, K	Mole fraction of 3-methylbutyl ethanoate	Refractive index (Na D-line)	uncertainty
288.15	0	1.36333	0.00031
288.15	0.05	1.36803	0.00031
288.15	0.1	1.37207	0.00031
288.15	0.15	1.37559	0.00032
288.15	0.2	1.3787	0.00032
288.15	0.25	1.38146	0.00032
288.15	0.3	1.38393	0.00032
288.15	0.35	1.38614	0.00032
288.15	0.4	1.38814	0.00032
288.15	0.45	1.38996	0.00032
288.15	0.5	1.39164	0.00032
288.15	0.55	1.39319	0.00032
288.15	0.6	1.39462	0.00033
288.15	0.65	1.39595	0.00033
288.15	0.7	1.39717	0.00033
288.15	0.75	1.39829	0.00033
288.15	0.8	1.39933	0.00033
288.15	0.85	1.40031	0.00034
288.15	0.9	1.40122	0.00034
288.15	0.95	1.40207	0.00034
288.15	1	1.40288	0.00034
298.15	0	1.35941	0.00031
298.15	0.05	1.36393	0.00031
298.15	0.1	1.36787	0.00031
298.15	0.15	1.37133	0.00032
298.15	0.2	1.3744	0.00032
298.15	0.25	1.37712	0.00032
298.15	0.3	1.37954	0.00032
298.15	0.35	1.38172	0.00032
298.15	0.4	1.3837	0.00032
298.15	0.45	1.3855	0.00032
298.15	0.5	1.38717	0.00032
298.15	0.55	1.38871	0.00032
298.15	0.6	1.39013	0.00033
298.15	0.65	1.39144	0.00033
298.15	0.7	1.39265	0.00033
298.15	0.75	1.39378	0.00033
298.15	0.8	1.39482	0.00033
298.15	0.85	1.3958	0.00034
298.15	0.9	1.3967	0.00034
298.15	0.95	1.39755	0.00034
298.15	1	1.39836	0.00034
308.15	0	1.35531	0.00031
308.15	0.05	1.35964	0.00031
308.15	0.1	1.36349	0.00031
308.15	0.15	1.3669	0.00032
308.15	0.2	1.36992	0.00032
308.15	0.25	1.3726	0.00032
308.15	0.3	1.37499	0.00032
308.15	0.35	1.37714	0.00032
308.15	0.4	1.37909	0.00032
308.15	0.45	1.38087	0.00032
308.15	0.5	1.38251	0.00032
308.15	0.55	1.38404	0.00032
308.15	0.6	1.38545	0.00033
308.15	0.65	1.38675	0.00033
308.15	0.7	1.38795	0.00033
308.15	0.75	1.38907	0.00033
308.15	0.8	1.39011	0.00033
308.15	0.85	1.39109	0.00034
308.15	0.9	1.39199	0.00034
308.15	0.95	1.39284	0.00034
308.15	1	1.39365	0.00034
318.15	0	1.35148	0.00031
318.15	0.05	1.35556	0.00031
318.15	0.1	1.3593	0.00031
318.15	0.15	1.36263	0.00032
318.15	0.2	1.36558	0.00032
318.15	0.25	1.36821	0.00032
318.15	0.3	1.37056	0.00032
318.15	0.35	1.37268	0.00032
318.15	0.4	1.3746	0.00032
318.15	0.45	1.37634	0.00032
318.15	0.5	1.37795	0.00032
318.15	0.55	1.37944	0.00032
318.15	0.6	1.38082	0.00033
318.15	0.65	1.38211	0.00033
318.15	0.7	1.3833	0.00033
318.15	0.75	1.3844	0.00033
318.15	0.8	1.38543	0.00033
318.15	0.85	1.3864	0.00034
318.15	0.9	1.3873	0.00034
318.15	0.95	1.38814	0.00034
318.15	1	1.38895	0.00034

System: ethanol + ethyl hexanoate; phases: Liquid, Gas
Property: Surface tension liquid-gas, N/m (Liquid); method: RINGTE:UFactor:0.5
Temperature, K	Mole fraction of ethyl hexanoate	Surface tension liquid-gas, N/m	uncertainty
288.15	0	0.023	0.0006
288.15	0.05	0.0234	0.0006
288.15	0.1	0.0238	0.0006
288.15	0.15	0.0241	0.0006
288.15	0.2	0.0243	0.0006
288.15	0.25	0.0245	0.0006
288.15	0.3	0.0247	0.0006
288.15	0.35	0.0249	0.0006
288.15	0.4	0.0251	0.0006
288.15	0.45	0.0252	0.0006
288.15	0.5	0.0254	0.0006
288.15	0.55	0.0255	0.0006
288.15	0.6	0.0256	0.0006
288.15	0.65	0.0257	0.0006
288.15	0.7	0.0258	0.0006
288.15	0.75	0.0259	0.0006
288.15	0.8	0.026	0.0006
288.15	0.85	0.0261	0.0006
288.15	0.9	0.0262	0.0006
288.15	0.95	0.0263	0.0006
288.15	1	0.0264	0.0006
298.15	0	0.0223	0.0006
298.15	0.05	0.0227	0.0006
298.15	0.1	0.023	0.0006
298.15	0.15	0.0232	0.0006
298.15	0.2	0.0235	0.0006
298.15	0.25	0.0237	0.0006
298.15	0.3	0.0239	0.0006
298.15	0.35	0.024	0.0006
298.15	0.4	0.0242	0.0006
298.15	0.45	0.0243	0.0006
298.15	0.5	0.0244	0.0006
298.15	0.55	0.0245	0.0006
298.15	0.6	0.0246	0.0006
298.15	0.65	0.0247	0.0006
298.15	0.7	0.0249	0.0006
298.15	0.75	0.025	0.0006
298.15	0.8	0.0251	0.0006
298.15	0.85	0.0251	0.0006
298.15	0.9	0.0252	0.0006
298.15	0.95	0.0253	0.0006
298.15	1	0.0254	0.0006
308.15	0	0.0215	0.0006
308.15	0.05	0.0218	0.0006
308.15	0.1	0.0221	0.0006
308.15	0.15	0.0224	0.0006
308.15	0.2	0.0226	0.0006
308.15	0.25	0.0228	0.0006
308.15	0.3	0.023	0.0006
308.15	0.35	0.0231	0.0006
308.15	0.4	0.0233	0.0006
308.15	0.45	0.0234	0.0006
308.15	0.5	0.0235	0.0006
308.15	0.55	0.0236	0.0006
308.15	0.6	0.0237	0.0006
308.15	0.65	0.0238	0.0006
308.15	0.7	0.0239	0.0006
308.15	0.75	0.024	0.0006
308.15	0.8	0.0241	0.0006
308.15	0.85	0.0242	0.0006
308.15	0.9	0.0243	0.0006
308.15	0.95	0.0244	0.0006
308.15	1	0.0245	0.0006
318.15	0	0.0206	0.0006
318.15	0.05	0.0209	0.0006
318.15	0.1	0.0212	0.0006
318.15	0.15	0.0215	0.0006
318.15	0.2	0.0217	0.0006
318.15	0.25	0.0219	0.0006
318.15	0.3	0.022	0.0006
318.15	0.35	0.0222	0.0006
318.15	0.4	0.0223	0.0006
318.15	0.45	0.0225	0.0006
318.15	0.5	0.0226	0.0006
318.15	0.55	0.0227	0.0006
318.15	0.6	0.0228	0.0006
318.15	0.65	0.0229	0.0006
318.15	0.7	0.023	0.0006
318.15	0.75	0.0231	0.0006
318.15	0.8	0.0232	0.0006
318.15	0.85	0.0233	0.0006
318.15	0.9	0.0234	0.0006
318.15	0.95	0.0235	0.0006
318.15	1	0.0236	0.0006

System: ethanol + ethyl hexanoate; phases: Liquid
Fixed: Pressure, kPa = 100.5
Property: Refractive index (Na D-line) (Liquid); method: Standard Abbe refractometry
Temperature, K	Mole fraction of ethyl hexanoate	Refractive index (Na D-line)	uncertainty
288.15	0	1.36333	0.00031
288.15	0.05	1.36942	0.00031
288.15	0.1	1.37451	0.00031
288.15	0.15	1.37883	0.00031
288.15	0.2	1.38253	0.00031
288.15	0.25	1.38577	0.00031
288.15	0.3	1.38864	0.00031
288.15	0.35	1.39119	0.00031
288.15	0.4	1.39347	0.00032
288.15	0.45	1.39553	0.00032
288.15	0.5	1.3974	0.00032
288.15	0.55	1.3991	0.00032
288.15	0.6	1.40066	0.00032
288.15	0.65	1.4021	0.00032
288.15	0.7	1.40343	0.00032
288.15	0.75	1.40466	0.00032
288.15	0.8	1.40579	0.00032
288.15	0.85	1.40684	0.00032
288.15	0.9	1.4078	0.00032
288.15	0.95	1.40868	0.00032
288.15	1	1.4095	0.00032
298.15	0	1.35941	0.00031
298.15	0.05	1.36535	0.00031
298.15	0.1	1.37034	0.00031
298.15	0.15	1.37461	0.00031
298.15	0.2	1.37826	0.00031
298.15	0.25	1.38146	0.00031
298.15	0.3	1.38429	0.00031
298.15	0.35	1.38681	0.00032
298.15	0.4	1.38907	0.00032
298.15	0.45	1.39111	0.00032
298.15	0.5	1.39296	0.00032
298.15	0.55	1.39465	0.00032
298.15	0.6	1.3962	0.00032
298.15	0.65	1.39763	0.00032
298.15	0.7	1.39895	0.00032
298.15	0.75	1.40019	0.00032
298.15	0.8	1.40133	0.00032
298.15	0.85	1.40238	0.00032
298.15	0.9	1.40334	0.00032
298.15	0.95	1.40422	0.00032
298.15	1	1.40504	0.00032
308.15	0	1.35531	0.00031
308.15	0.05	1.36109	0.00031
308.15	0.1	1.36602	0.00031
308.15	0.15	1.37024	0.00031
308.15	0.2	1.37388	0.00031
308.15	0.25	1.37706	0.00031
308.15	0.3	1.37986	0.00031
308.15	0.35	1.38236	0.00032
308.15	0.4	1.3846	0.00032
308.15	0.45	1.38663	0.00032
308.15	0.5	1.38847	0.00032
308.15	0.55	1.39016	0.00032
308.15	0.6	1.3917	0.00032
308.15	0.65	1.39312	0.00032
308.15	0.7	1.39444	0.00032
308.15	0.75	1.39568	0.00032
308.15	0.8	1.39682	0.00032
308.15	0.85	1.39787	0.00032
308.15	0.9	1.39882	0.00032
308.15	0.95	1.39972	0.00032
308.15	1	1.40055	0.00032
318.15	0	1.35148	0.00031
318.15	0.05	1.35703	0.00031
318.15	0.1	1.36185	0.00031
318.15	0.15	1.36601	0.00031
318.15	0.2	1.3696	0.00031
318.15	0.25	1.37274	0.00031
318.15	0.3	1.3755	0.00031
318.15	0.35	1.37795	0.00032
318.15	0.4	1.38016	0.00032
318.15	0.45	1.38216	0.00032
318.15	0.5	1.38398	0.00032
318.15	0.55	1.38564	0.00032
318.15	0.6	1.38716	0.00032
318.15	0.65	1.38857	0.00032
318.15	0.7	1.38988	0.00032
318.15	0.75	1.39111	0.00032
318.15	0.8	1.39225	0.00032
318.15	0.85	1.3933	0.00032
318.15	0.9	1.39426	0.00032
318.15	0.95	1.39515	0.00032
318.15	1	1.39597	0.00032

System: ethanol + ethyl benzoate; phases: Liquid, Gas
Property: Surface tension liquid-gas, N/m (Liquid); method: RINGTE:UFactor:0.5
Temperature, K	Mole fraction of ethyl benzoate	Surface tension liquid-gas, N/m	uncertainty
288.15	0	0.023	0.0006
288.15	0.05	0.0239	0.0006
288.15	0.1	0.0247	0.0006
288.15	0.15	0.0255	0.0006
288.15	0.2	0.0262	0.0006
288.15	0.25	0.0269	0.0006
288.15	0.3	0.0275	0.0006
288.15	0.35	0.0281	0.0006
288.15	0.4	0.0287	0.0006
288.15	0.45	0.0292	0.0006
288.15	0.5	0.0297	0.0007
288.15	0.55	0.0302	0.0007
288.15	0.6	0.0307	0.0007
288.15	0.65	0.0312	0.0007
288.15	0.7	0.0318	0.0007
288.15	0.75	0.0323	0.0007
288.15	0.8	0.0329	0.0007
288.15	0.85	0.0336	0.0007
288.15	0.9	0.0343	0.0007
288.15	0.95	0.035	0.0007
288.15	1	0.0357	0.0007
298.15	0	0.0223	0.0006
298.15	0.05	0.0231	0.0006
298.15	0.1	0.0239	0.0006
298.15	0.15	0.0246	0.0006
298.15	0.2	0.0253	0.0006
298.15	0.25	0.026	0.0006
298.15	0.3	0.0266	0.0006
298.15	0.35	0.0272	0.0006
298.15	0.4	0.0277	0.0006
298.15	0.45	0.0283	0.0006
298.15	0.5	0.0287	0.0006
298.15	0.55	0.0292	0.0006
298.15	0.6	0.0297	0.0007
298.15	0.65	0.0302	0.0007
298.15	0.7	0.0308	0.0007
298.15	0.75	0.0313	0.0007
298.15	0.8	0.0319	0.0007
298.15	0.85	0.0325	0.0007
298.15	0.9	0.0332	0.0007
298.15	0.95	0.0339	0.0007
298.15	1	0.0346	0.0007
308.15	0	0.0215	0.0006
308.15	0.05	0.0222	0.0006
308.15	0.1	0.023	0.0006
308.15	0.15	0.0237	0.0006
308.15	0.2	0.0244	0.0006
308.15	0.25	0.025	0.0006
308.15	0.3	0.0256	0.0006
308.15	0.35	0.0261	0.0006
308.15	0.4	0.0267	0.0006
308.15	0.45	0.0272	0.0006
308.15	0.5	0.0277	0.0006
308.15	0.55	0.0281	0.0006
308.15	0.6	0.0286	0.0006
308.15	0.65	0.0291	0.0006
308.15	0.7	0.0296	0.0007
308.15	0.75	0.0301	0.0007
308.15	0.8	0.0306	0.0007
308.15	0.85	0.0312	0.0007
308.15	0.9	0.0319	0.0007
308.15	0.95	0.0326	0.0007
308.15	1	0.0333	0.0007
318.15	0	0.0206	0.0006
318.15	0.05	0.0213	0.0006
318.15	0.1	0.0221	0.0006
318.15	0.15	0.0228	0.0006
318.15	0.2	0.0235	0.0006
318.15	0.25	0.0241	0.0006
318.15	0.3	0.0247	0.0006
318.15	0.35	0.0253	0.0006
318.15	0.4	0.0258	0.0006
318.15	0.45	0.0263	0.0006
318.15	0.5	0.0268	0.0006
318.15	0.55	0.0273	0.0006
318.15	0.6	0.0278	0.0006
318.15	0.65	0.0283	0.0006
318.15	0.7	0.0288	0.0006
318.15	0.75	0.0293	0.0007
318.15	0.8	0.0298	0.0007
318.15	0.85	0.0304	0.0007
318.15	0.9	0.031	0.0007
318.15	0.95	0.0318	0.0007
318.15	1	0.0325	0.0007

System: ethanol + ethyl benzoate; phases: Liquid
Fixed: Pressure, kPa = 100.5
Property: Refractive index (Na D-line) (Liquid); method: Standard Abbe refractometry
Temperature, K	Mole fraction of ethyl benzoate	Refractive index (Na D-line)	uncertainty
288.15	0	1.36333	0.00031
288.15	0.05	1.38111	0.00032
288.15	0.1	1.39597	0.00032
288.15	0.15	1.40895	0.00032
288.15	0.2	1.42035	0.00032
288.15	0.25	1.43037	0.00032
288.15	0.3	1.43936	0.00032
288.15	0.35	1.44743	0.00032
288.15	0.4	1.45479	0.00032
288.15	0.45	1.46145	0.00032
288.15	0.5	1.4675	0.00032
288.15	0.55	1.47305	0.00032
288.15	0.6	1.47816	0.00032
288.15	0.65	1.48283	0.00032
288.15	0.7	1.48715	0.00032
288.15	0.75	1.49115	0.00032
288.15	0.8	1.49488	0.00032
288.15	0.85	1.4984	0.00032
288.15	0.9	1.5017	0.00032
288.15	0.95	1.50477	0.00032
288.15	1	1.5076	0.00032
298.15	0	1.35941	0.00031
298.15	0.05	1.37682	0.00032
298.15	0.1	1.39165	0.00032
298.15	0.15	1.40452	0.00032
298.15	0.2	1.41593	0.00032
298.15	0.25	1.42598	0.00032
298.15	0.3	1.43498	0.00032
298.15	0.35	1.44303	0.00032
298.15	0.4	1.45038	0.00032
298.15	0.45	1.45702	0.00032
298.15	0.5	1.46309	0.00032
298.15	0.55	1.46865	0.00032
298.15	0.6	1.47372	0.00032
298.15	0.65	1.4784	0.00032
298.15	0.7	1.48273	0.00032
298.15	0.75	1.48675	0.00032
298.15	0.8	1.49047	0.00032
298.15	0.85	1.49401	0.00032
298.15	0.9	1.49731	0.00032
298.15	0.95	1.50037	0.00032
298.15	1	1.50328	0.00032
308.15	0	1.35531	0.00031
308.15	0.05	1.37237	0.00032
308.15	0.1	1.38717	0.00032
308.15	0.15	1.39997	0.00032
308.15	0.2	1.41131	0.00032
308.15	0.25	1.42135	0.00032
308.15	0.3	1.43033	0.00032
308.15	0.35	1.4384	0.00032
308.15	0.4	1.44571	0.00032
308.15	0.45	1.45236	0.00032
308.15	0.5	1.45841	0.00032
308.15	0.55	1.46393	0.00032
308.15	0.6	1.46901	0.00032
308.15	0.65	1.47368	0.00032
308.15	0.7	1.47801	0.00032
308.15	0.75	1.48203	0.00032
308.15	0.8	1.48578	0.00032
308.15	0.85	1.48929	0.00032
308.15	0.9	1.49257	0.00032
308.15	0.95	1.49565	0.00032
308.15	1	1.49863	0.00032
318.15	0	1.35148	0.00031
318.15	0.05	1.36815	0.00032
318.15	0.1	1.38279	0.00032
318.15	0.15	1.39551	0.00032
318.15	0.2	1.40679	0.00032
318.15	0.25	1.41678	0.00032
318.15	0.3	1.42576	0.00032
318.15	0.35	1.43378	0.00032
318.15	0.4	1.44105	0.00032
318.15	0.45	1.44765	0.00032
318.15	0.5	1.45369	0.00032
318.15	0.55	1.45918	0.00032
318.15	0.6	1.46424	0.00032
318.15	0.65	1.4689	0.00032
318.15	0.7	1.47321	0.00032
318.15	0.75	1.47724	0.00032
318.15	0.8	1.48098	0.00032
318.15	0.85	1.48449	0.00032
318.15	0.9	1.48776	0.00032
318.15	0.95	1.49086	0.00032
318.15	1	1.49391	0.00032

System: ethanol + 3-methylbutyl butanoate; phases: Liquid, Gas
Property: Surface tension liquid-gas, N/m (Liquid); method: RINGTE:UFactor:0.5
Temperature, K	Mole fraction of 3-methylbutyl butanoate	Surface tension liquid-gas, N/m	uncertainty
288.15	0	0.023	0.0006
288.15	0.05	0.0233	0.0006
288.15	0.1	0.0236	0.0006
288.15	0.15	0.0238	0.0006
288.15	0.2	0.024	0.0006
288.15	0.25	0.0241	0.0006
288.15	0.3	0.0243	0.0006
288.15	0.35	0.0244	0.0006
288.15	0.4	0.0245	0.0006
288.15	0.45	0.0246	0.0006
288.15	0.5	0.0247	0.0006
288.15	0.55	0.0248	0.0006
288.15	0.6	0.0249	0.0006
288.15	0.65	0.025	0.0006
288.15	0.7	0.0251	0.0006
288.15	0.75	0.0252	0.0006
288.15	0.8	0.0253	0.0006
288.15	0.85	0.0254	0.0006
288.15	0.9	0.0255	0.0006
288.15	0.95	0.0256	0.0006
288.15	1	0.0257	0.0006
298.15	0	0.0223	0.0006
298.15	0.05	0.0226	0.0006
298.15	0.1	0.0228	0.0006
298.15	0.15	0.023	0.0006
298.15	0.2	0.0231	0.0006
298.15	0.25	0.0233	0.0006
298.15	0.3	0.0234	0.0006
298.15	0.35	0.0235	0.0006
298.15	0.4	0.0236	0.0006
298.15	0.45	0.0237	0.0006
298.15	0.5	0.0238	0.0006
298.15	0.55	0.0239	0.0006
298.15	0.6	0.0239	0.0006
298.15	0.65	0.024	0.0006
298.15	0.7	0.0241	0.0006
298.15	0.75	0.0242	0.0006
298.15	0.8	0.0243	0.0006
298.15	0.85	0.0244	0.0006
298.15	0.9	0.0245	0.0006
298.15	0.95	0.0246	0.0006
298.15	1	0.0247	0.0006
308.15	0	0.0215	0.0006
308.15	0.05	0.0218	0.0006
308.15	0.1	0.022	0.0006
308.15	0.15	0.0222	0.0006
308.15	0.2	0.0224	0.0006
308.15	0.25	0.0225	0.0006
308.15	0.3	0.0226	0.0006
308.15	0.35	0.0227	0.0006
308.15	0.4	0.0228	0.0006
308.15	0.45	0.0229	0.0006
308.15	0.5	0.023	0.0006
308.15	0.55	0.0231	0.0006
308.15	0.6	0.0232	0.0006
308.15	0.65	0.0233	0.0006
308.15	0.7	0.0234	0.0006
308.15	0.75	0.0235	0.0006
308.15	0.8	0.0236	0.0006
308.15	0.85	0.0237	0.0006
308.15	0.9	0.0238	0.0006
308.15	0.95	0.0239	0.0006
308.15	1	0.024	0.0006
318.15	0	0.0206	0.0006
318.15	0.05	0.0209	0.0006
318.15	0.1	0.0211	0.0006
318.15	0.15	0.0213	0.0006
318.15	0.2	0.0215	0.0006
318.15	0.25	0.0216	0.0006
318.15	0.3	0.0217	0.0006
318.15	0.35	0.0218	0.0006
318.15	0.4	0.0219	0.0006
318.15	0.45	0.022	0.0006
318.15	0.5	0.0221	0.0006
318.15	0.55	0.0222	0.0006
318.15	0.6	0.0223	0.0006
318.15	0.65	0.0224	0.0006
318.15	0.7	0.0225	0.0006
318.15	0.75	0.0226	0.0006
318.15	0.8	0.0227	0.0006
318.15	0.85	0.0228	0.0006
318.15	0.9	0.0229	0.0006
318.15	0.95	0.023	0.0006
318.15	1	0.0231	0.0006

System: ethanol + 3-methylbutyl butanoate; phases: Liquid
Fixed: Pressure, kPa = 100.5
Property: Refractive index (Na D-line) (Liquid); method: Standard Abbe refractometry
Temperature, K	Mole fraction of 3-methylbutyl butanoate	Refractive index (Na D-line)	uncertainty
288.15	0	1.36333	0.00031
288.15	0.05	1.3703	0.00031
288.15	0.1	1.37602	0.00031
288.15	0.15	1.3808	0.00031
288.15	0.2	1.38488	0.00032
288.15	0.25	1.38839	0.00032
288.15	0.3	1.39145	0.00032
288.15	0.35	1.39415	0.00032
288.15	0.4	1.39656	0.00032
288.15	0.45	1.39871	0.00032
288.15	0.5	1.40065	0.00032
288.15	0.55	1.4024	0.00032
288.15	0.6	1.40399	0.00032
288.15	0.65	1.40543	0.00032
288.15	0.7	1.40673	0.00033
288.15	0.75	1.40793	0.00033
288.15	0.8	1.40902	0.00033
288.15	0.85	1.41003	0.00033
288.15	0.9	1.41096	0.00033
288.15	0.95	1.41181	0.00033
288.15	1	1.41259	0.00034
298.15	0	1.35941	0.00031
298.15	0.05	1.36624	0.00031
298.15	0.1	1.37182	0.00031
298.15	0.15	1.37656	0.00032
298.15	0.2	1.38059	0.00032
298.15	0.25	1.38406	0.00032
298.15	0.3	1.38709	0.00032
298.15	0.35	1.38977	0.00032
298.15	0.4	1.39216	0.00032
298.15	0.45	1.39431	0.00032
298.15	0.5	1.39624	0.00032
298.15	0.55	1.39798	0.00032
298.15	0.6	1.39956	0.00032
298.15	0.65	1.401	0.00032
298.15	0.7	1.4023	0.00033
298.15	0.75	1.40349	0.00033
298.15	0.8	1.40458	0.00033
298.15	0.85	1.40559	0.00033
298.15	0.9	1.40652	0.00033
298.15	0.95	1.40737	0.00033
298.15	1	1.40815	0.00034
308.15	0	1.35531	0.00031
308.15	0.05	1.36195	0.00031
308.15	0.1	1.36747	0.00031
308.15	0.15	1.37218	0.00032
308.15	0.2	1.3762	0.00032
308.15	0.25	1.37967	0.00032
308.15	0.3	1.38268	0.00032
308.15	0.35	1.38535	0.00032
308.15	0.4	1.38773	0.00032
308.15	0.45	1.38987	0.00032
308.15	0.5	1.3918	0.00032
308.15	0.55	1.39354	0.00032
308.15	0.6	1.39513	0.00032
308.15	0.65	1.39656	0.00032
308.15	0.7	1.39786	0.00033
308.15	0.75	1.39905	0.00033
308.15	0.8	1.40015	0.00033
308.15	0.85	1.40116	0.00033
308.15	0.9	1.4021	0.00033
308.15	0.95	1.40296	0.00033
308.15	1	1.40374	0.00034
318.15	0	1.35148	0.00031
318.15	0.05	1.3578	0.00031
318.15	0.1	1.36327	0.00032
318.15	0.15	1.36792	0.00032
318.15	0.2	1.3719	0.00032
318.15	0.25	1.37533	0.00032
318.15	0.3	1.37832	0.00032
318.15	0.35	1.38096	0.00032
318.15	0.4	1.38332	0.00032
318.15	0.45	1.38544	0.00032
318.15	0.5	1.38736	0.00032
318.15	0.55	1.3891	0.00032
318.15	0.6	1.39067	0.00032
318.15	0.65	1.3921	0.00032
318.15	0.7	1.3934	0.00033
318.15	0.75	1.39459	0.00033
318.15	0.8	1.39569	0.00033
318.15	0.85	1.3967	0.00033
318.15	0.9	1.39763	0.00033
318.15	0.95	1.39849	0.00033
318.15	1	1.39927	0.00034

System: ethanol + ethyl phenylacetate; phases: Liquid, Gas
Property: Surface tension liquid-gas, N/m (Liquid); method: RINGTE:UFactor:0.5
Temperature, K	Mole fraction of ethyl phenylacetate	Surface tension liquid-gas, N/m	uncertainty
288.15	0	0.023	0.0006
288.15	0.05	0.0239	0.0006
288.15	0.1	0.0246	0.0006
288.15	0.15	0.0252	0.0006
288.15	0.2	0.0259	0.0006
288.15	0.25	0.0265	0.0006
288.15	0.3	0.0272	0.0006
288.15	0.35	0.0278	0.0006
288.15	0.4	0.0284	0.0006
288.15	0.45	0.0291	0.0007
288.15	0.5	0.0297	0.0007
288.15	0.55	0.0303	0.0007
288.15	0.6	0.031	0.0007
288.15	0.65	0.0316	0.0007
288.15	0.7	0.0322	0.0007
288.15	0.75	0.0328	0.0007
288.15	0.8	0.0335	0.0007
288.15	0.85	0.0341	0.0007
288.15	0.9	0.0347	0.0007
288.15	0.95	0.0353	0.0007
288.15	1	0.0359	0.0007
298.15	0	0.0223	0.0006
298.15	0.05	0.0231	0.0006
298.15	0.1	0.0237	0.0006
298.15	0.15	0.0243	0.0006
298.15	0.2	0.0249	0.0006
298.15	0.25	0.0255	0.0006
298.15	0.3	0.0261	0.0006
298.15	0.35	0.0267	0.0006
298.15	0.4	0.0273	0.0006
298.15	0.45	0.0279	0.0006
298.15	0.5	0.0285	0.0006
298.15	0.55	0.0291	0.0007
298.15	0.6	0.0297	0.0007
298.15	0.65	0.0303	0.0007
298.15	0.7	0.0309	0.0007
298.15	0.75	0.0316	0.0007
298.15	0.8	0.0321	0.0007
298.15	0.85	0.0328	0.0007
298.15	0.9	0.0334	0.0007
298.15	0.95	0.0339	0.0007
298.15	1	0.0346	0.0007
308.15	0	0.0215	0.0006
308.15	0.05	0.0222	0.0006
308.15	0.1	0.0228	0.0006
308.15	0.15	0.0234	0.0006
308.15	0.2	0.0239	0.0006
308.15	0.25	0.0245	0.0006
308.15	0.3	0.0251	0.0006
308.15	0.35	0.0257	0.0006
308.15	0.4	0.0262	0.0006
308.15	0.45	0.0268	0.0006
308.15	0.5	0.0274	0.0006
308.15	0.55	0.028	0.0006
308.15	0.6	0.0286	0.0006
308.15	0.65	0.0292	0.0007
308.15	0.7	0.0298	0.0007
308.15	0.75	0.0304	0.0007
308.15	0.8	0.031	0.0007
308.15	0.85	0.0316	0.0007
308.15	0.9	0.0322	0.0007
308.15	0.95	0.0328	0.0007
308.15	1	0.0335	0.0007
318.15	0	0.0206	0.0006
318.15	0.05	0.0212	0.0006
318.15	0.1	0.0218	0.0006
318.15	0.15	0.0224	0.0006
318.15	0.2	0.0229	0.0006
318.15	0.25	0.0235	0.0006
318.15	0.3	0.0241	0.0006
318.15	0.35	0.0247	0.0006
318.15	0.4	0.0254	0.0006
318.15	0.45	0.026	0.0006
318.15	0.5	0.0266	0.0006
318.15	0.55	0.0272	0.0006
318.15	0.6	0.0278	0.0006
318.15	0.65	0.0284	0.0006
318.15	0.7	0.029	0.0007
318.15	0.75	0.0295	0.0007
318.15	0.8	0.0301	0.0007
318.15	0.85	0.0307	0.0007
318.15	0.9	0.0314	0.0007
318.15	0.95	0.032	0.0007
318.15	1	0.0328	0.0007

System: ethanol + ethyl phenylacetate; phases: Liquid
Fixed: Pressure, kPa = 100.5
Property: Refractive index (Na D-line) (Liquid); method: Standard Abbe refractometry
Temperature, K	Mole fraction of ethyl phenylacetate	Refractive index (Na D-line)	uncertainty
288.15	0	1.36333	0.00031
288.15	0.05	1.38109	0.00032
288.15	0.1	1.39604	0.00032
288.15	0.15	1.4087	0.00032
288.15	0.2	1.41969	0.00032
288.15	0.25	1.42932	0.00032
288.15	0.3	1.4379	0.00032
288.15	0.35	1.44556	0.00032
288.15	0.4	1.45242	0.00032
288.15	0.45	1.45856	0.00032
288.15	0.5	1.46406	0.00032
288.15	0.55	1.46909	0.00032
288.15	0.6	1.47365	0.00032
288.15	0.65	1.47785	0.00032
288.15	0.7	1.48174	0.00033
288.15	0.75	1.48536	0.00033
288.15	0.8	1.48865	0.00033
288.15	0.85	1.4917	0.00033
288.15	0.9	1.49461	0.00033
288.15	0.95	1.4973	0.00033
288.15	1	1.49971	0.00034
298.15	0	1.35941	0.00031
298.15	0.05	1.37693	0.00032
298.15	0.1	1.3918	0.00032
298.15	0.15	1.40441	0.00032
298.15	0.2	1.41536	0.00032
298.15	0.25	1.42491	0.00032
298.15	0.3	1.43347	0.00032
298.15	0.35	1.44111	0.00032
298.15	0.4	1.44792	0.00032
298.15	0.45	1.45402	0.00032
298.15	0.5	1.45953	0.00032
298.15	0.55	1.46454	0.00032
298.15	0.6	1.46908	0.00032
298.15	0.65	1.47324	0.00032
298.15	0.7	1.47713	0.00033
298.15	0.75	1.48072	0.00033
298.15	0.8	1.48403	0.00033
298.15	0.85	1.48707	0.00033
298.15	0.9	1.48996	0.00033
298.15	0.95	1.49266	0.00033
298.15	1	1.49513	0.00034
308.15	0	1.35531	0.00031
308.15	0.05	1.37265	0.00032
308.15	0.1	1.38745	0.00032
308.15	0.15	1.40003	0.00032
308.15	0.2	1.41093	0.00032
308.15	0.25	1.42047	0.00032
308.15	0.3	1.42899	0.00032
308.15	0.35	1.43661	0.00032
308.15	0.4	1.44342	0.00032
308.15	0.45	1.44951	0.00032
308.15	0.5	1.455	0.00032
308.15	0.55	1.45999	0.00032
308.15	0.6	1.46451	0.00032
308.15	0.65	1.46869	0.00033
308.15	0.7	1.47255	0.00033
308.15	0.75	1.47613	0.00033
308.15	0.8	1.47943	0.00033
308.15	0.85	1.48248	0.00033
308.15	0.9	1.48539	0.00033
308.15	0.95	1.4881	0.00033
308.15	1	1.49063	0.00034
318.15	0	1.35148	0.00031
318.15	0.05	1.36852	0.00032
318.15	0.1	1.38323	0.00032
318.15	0.15	1.39573	0.00032
318.15	0.2	1.40653	0.00032
318.15	0.25	1.41597	0.00032
318.15	0.3	1.42447	0.00032
318.15	0.35	1.43203	0.00032
318.15	0.4	1.43878	0.00032
318.15	0.45	1.44484	0.00032
318.15	0.5	1.4503	0.00032
318.15	0.55	1.45524	0.00032
318.15	0.6	1.45975	0.00032
318.15	0.65	1.46391	0.00033
318.15	0.7	1.46775	0.00033
318.15	0.75	1.47132	0.00033
318.15	0.8	1.47458	0.00033
318.15	0.85	1.47763	0.00033
318.15	0.9	1.48053	0.00033
318.15	0.95	1.48323	0.00033
318.15	1	1.48583	0.00034

System: ethanol + ethyl octanoate; phases: Liquid, Gas
Property: Surface tension liquid-gas, N/m (Liquid); method: RINGTE:UFactor:0.5
Temperature, K	Mole fraction of ethyl octanoate	Surface tension liquid-gas, N/m	uncertainty
288.15	0	0.023	0.0006
288.15	0.05	0.0236	0.0006
288.15	0.1	0.024	0.0006
288.15	0.15	0.0244	0.0006
288.15	0.2	0.0248	0.0006
288.15	0.25	0.0251	0.0006
288.15	0.3	0.0253	0.0006
288.15	0.35	0.0255	0.0006
288.15	0.4	0.0257	0.0006
288.15	0.45	0.0259	0.0006
288.15	0.5	0.0261	0.0006
288.15	0.55	0.0262	0.0006
288.15	0.6	0.0263	0.0006
288.15	0.65	0.0265	0.0006
288.15	0.7	0.0266	0.0006
288.15	0.75	0.0267	0.0006
288.15	0.8	0.0268	0.0006
288.15	0.85	0.0269	0.0006
288.15	0.9	0.027	0.0006
288.15	0.95	0.0271	0.0006
288.15	1	0.0272	0.0006
298.15	0	0.0223	0.0006
298.15	0.05	0.0229	0.0006
298.15	0.1	0.0233	0.0006
298.15	0.15	0.0237	0.0006
298.15	0.2	0.024	0.0006
298.15	0.25	0.0243	0.0006
298.15	0.3	0.0245	0.0006
298.15	0.35	0.0248	0.0006
298.15	0.4	0.0249	0.0006
298.15	0.45	0.0251	0.0006
298.15	0.5	0.0253	0.0006
298.15	0.55	0.0254	0.0006
298.15	0.6	0.0256	0.0006
298.15	0.65	0.0257	0.0006
298.15	0.7	0.0258	0.0006
298.15	0.75	0.0259	0.0006
298.15	0.8	0.026	0.0006
298.15	0.85	0.0261	0.0006
298.15	0.9	0.0262	0.0006
298.15	0.95	0.0263	0.0006
298.15	1	0.0264	0.0006
308.15	0	0.0215	0.0006
308.15	0.05	0.022	0.0006
308.15	0.1	0.0225	0.0006
308.15	0.15	0.0228	0.0006
308.15	0.2	0.0232	0.0006
308.15	0.25	0.0234	0.0006
308.15	0.3	0.0237	0.0006
308.15	0.35	0.0239	0.0006
308.15	0.4	0.0241	0.0006
308.15	0.45	0.0242	0.0006
308.15	0.5	0.0244	0.0006
308.15	0.55	0.0245	0.0006
308.15	0.6	0.0247	0.0006
308.15	0.65	0.0248	0.0006
308.15	0.7	0.0249	0.0006
308.15	0.75	0.025	0.0006
308.15	0.8	0.0251	0.0006
308.15	0.85	0.0252	0.0006
308.15	0.9	0.0253	0.0006
308.15	0.95	0.0254	0.0006
308.15	1	0.0255	0.0006
318.15	0	0.0206	0.0006
318.15	0.05	0.0211	0.0006
318.15	0.1	0.0216	0.0006
318.15	0.15	0.0219	0.0006
318.15	0.2	0.0223	0.0006
318.15	0.25	0.0226	0.0006
318.15	0.3	0.0228	0.0006
318.15	0.35	0.023	0.0006
318.15	0.4	0.0232	0.0006
318.15	0.45	0.0234	0.0006
318.15	0.5	0.0235	0.0006
318.15	0.55	0.0237	0.0006
318.15	0.6	0.0238	0.0006
318.15	0.65	0.024	0.0006
318.15	0.7	0.0241	0.0006
318.15	0.75	0.0242	0.0006
318.15	0.8	0.0243	0.0006
318.15	0.85	0.0244	0.0006
318.15	0.9	0.0245	0.0006
318.15	0.95	0.0246	0.0006
318.15	1	0.0247	0.0006

System: ethanol + ethyl octanoate; phases: Liquid
Fixed: Pressure, kPa = 100.5
Property: Refractive index (Na D-line) (Liquid); method: Standard Abbe refractometry
Temperature, K	Mole fraction of ethyl octanoate	Refractive index (Na D-line)	uncertainty
288.15	0	1.36333	0.00031
288.15	0.05	1.37185	0.00031
288.15	0.1	1.37876	0.00031
288.15	0.15	1.38444	0.00031
288.15	0.2	1.38922	0.00031
288.15	0.25	1.39327	0.00032
288.15	0.3	1.39676	0.00032
288.15	0.35	1.39979	0.00032
288.15	0.4	1.40245	0.00032
288.15	0.45	1.40481	0.00032
288.15	0.5	1.40692	0.00032
288.15	0.55	1.40882	0.00032
288.15	0.6	1.41053	0.00032
288.15	0.65	1.41208	0.00032
288.15	0.7	1.4135	0.00032
288.15	0.75	1.4148	0.00032
288.15	0.8	1.41599	0.00032
288.15	0.85	1.41709	0.00033
288.15	0.9	1.4181	0.00033
288.15	0.95	1.41904	0.00033
288.15	1	1.41991	0.00033
298.15	0	1.35941	0.00031
298.15	0.05	1.36779	0.00032
298.15	0.1	1.37462	0.00031
298.15	0.15	1.38028	0.00032
298.15	0.2	1.38502	0.00032
298.15	0.25	1.38905	0.00032
298.15	0.3	1.39252	0.00032
298.15	0.35	1.39553	0.00032
298.15	0.4	1.39818	0.00032
298.15	0.45	1.40053	0.00032
298.15	0.5	1.40263	0.00032
298.15	0.55	1.40451	0.00032
298.15	0.6	1.40621	0.00032
298.15	0.65	1.40776	0.00032
298.15	0.7	1.40917	0.00032
298.15	0.75	1.41047	0.00032
298.15	0.8	1.41166	0.00032
298.15	0.85	1.41276	0.00033
298.15	0.9	1.41378	0.00033
298.15	0.95	1.41472	0.00033
298.15	1	1.4156	0.00033
308.15	0	1.35531	0.00031
308.15	0.05	1.36356	0.00031
308.15	0.1	1.37036	0.00031
308.15	0.15	1.37601	0.00032
308.15	0.2	1.38074	0.00032
308.15	0.25	1.38477	0.00032
308.15	0.3	1.38823	0.00032
308.15	0.35	1.39125	0.00032
308.15	0.4	1.39389	0.00032
308.15	0.45	1.39624	0.00032
308.15	0.5	1.39835	0.00032
308.15	0.55	1.40023	0.00032
308.15	0.6	1.40193	0.00032
308.15	0.65	1.40348	0.00032
308.15	0.7	1.40489	0.00032
308.15	0.75	1.40619	0.00032
308.15	0.8	1.40739	0.00032
308.15	0.85	1.4085	0.00033
308.15	0.9	1.40952	0.00033
308.15	0.95	1.41047	0.00033
308.15	1	1.41137	0.00033
318.15	0	1.35148	0.00031
318.15	0.05	1.35953	0.00032
318.15	0.1	1.36625	0.00032
318.15	0.15	1.37184	0.00032
318.15	0.2	1.37654	0.00032
318.15	0.25	1.38054	0.00032
318.15	0.3	1.38398	0.00032
318.15	0.35	1.38698	0.00032
318.15	0.4	1.38961	0.00032
318.15	0.45	1.39195	0.00032
318.15	0.5	1.39403	0.00032
318.15	0.55	1.39591	0.00032
318.15	0.6	1.3976	0.00032
318.15	0.65	1.39914	0.00032
318.15	0.7	1.40054	0.00032
318.15	0.75	1.40183	0.00032
318.15	0.8	1.40302	0.00032
318.15	0.85	1.40412	0.00033
318.15	0.9	1.40515	0.00033
318.15	0.95	1.40611	0.00033
318.15	1	1.40702	0.00033
