Measured thermophysical data. Infinite Dilution Activity Coefficients for Trihexyltetradecyl Phosphonium Ionic Liquids: Measurements and COSMO-RS Prediction
Source: J. Chem. Eng. Data, 2006, 10.1021/je0602925
Compound 1: trihexyl(tetradecyl)phosphonium chloride, C32H68ClP, InChI=1S/C32H68P.ClH/c1-5-9-13-17-18-19-20-21-22-23-24-28-32-33(29-25-14-10-6-2,30-26-15-11-7-3)31-27-16-12-8-4;/h5-32H2,1-4H3;1H/q+1;/p-1
Compound 2: trihexyl(tetradecyl)-phosphonium tetrafluoroborate, C32H68BF4P, InChI=1S/C32H68P.BF4/c1-5-9-13-17-18-19-20-21-22-23-24-28-32-33(29-25-14-10-6-2,30-26-15-11-7-3)31-27-16-12-8-4;2-1(3,4)5/h5-32H2,1-4H3;/q+1;-1
Compound 3: trihexyl(tetradecyl)phosphonium bis[(trifluoromethyl)sulfonyl]imide, C34H68F6NO4PS2, InChI=1S/C32H68P.C2F6NO4S2/c1-5-9-13-17-18-19-20-21-22-23-24-28-32-33(29-25-14-10-6-2,30-26-15-11-7-3)31-27-16-12-8-4;3-1(4,5)14(10,11)9-15(12,13)2(6,7)8/h5-32H2,1-4H3;/q+1;-1
Compound 4: pentane, C5H12, InChI=1S/C5H12/c1-3-5-4-2/h3-5H2,1-2H3
Compound 5: hexane, C6H14, InChI=1S/C6H14/c1-3-5-6-4-2/h3-6H2,1-2H3
Compound 6: heptane, C7H16, InChI=1S/C7H16/c1-3-5-7-6-4-2/h3-7H2,1-2H3
Compound 7: octane, C8H18, InChI=1S/C8H18/c1-3-5-7-8-6-4-2/h3-8H2,1-2H3
Compound 8: cyclopentane, C5H10, InChI=1S/C5H10/c1-2-4-5-3-1/h1-5H2
Compound 9: cyclohexane, C6H12, InChI=1S/C6H12/c1-2-4-6-5-3-1/h1-6H2
Compound 10: cycloheptane, C7H14, InChI=1S/C7H14/c1-2-4-6-7-5-3-1/h1-7H2
Compound 11: hex-1-ene, C6H12, InChI=1S/C6H12/c1-3-5-6-4-2/h3H,1,4-6H2,2H3
Compound 12: 1-heptene, C7H14, InChI=1S/C7H14/c1-3-5-7-6-4-2/h3H,1,4-7H2,2H3
Compound 13: oct-1-ene, C8H16, InChI=1S/C8H16/c1-3-5-7-8-6-4-2/h3H,1,4-8H2,2H3
Compound 14: 1-hexyne, C6H10, InChI=1S/C6H10/c1-3-5-6-4-2/h1H,4-6H2,2H3
Compound 15: 1-heptyne, C7H12, InChI=1S/C7H12/c1-3-5-7-6-4-2/h1H,4-7H2,2H3
Compound 16: 1-octyne, C8H14, InChI=1S/C8H14/c1-3-5-7-8-6-4-2/h1H,4-8H2,2H3
Compound 17: methanol, CH4O, InChI=1S/CH4O/c1-2/h2H,1H3
Compound 18: ethanol, C2H6O, InChI=1S/C2H6O/c1-2-3/h3H,2H2,1H3
Compound 19: benzene, C6H6, InChI=1S/C6H6/c1-2-4-6-5-3-1/h1-6H

System: pentane + trihexyl(tetradecyl)phosphonium chloride; phases: Liquid, Gas
Fixed: Mole fraction of pentane = 0
Property: Activity coefficient of pentane (Liquid); method: Chromatography
Temperature, K	Activity coefficient of pentane	uncertainty
308.15	0.607	0.042
318.15	0.599	0.042
328.15	0.594	0.042

System: hexane + trihexyl(tetradecyl)phosphonium chloride; phases: Liquid, Gas
Fixed: Mole fraction of hexane = 0
Property: Activity coefficient of hexane (Liquid); method: Chromatography
Temperature, K	Activity coefficient of hexane	uncertainty
308.15	0.766	0.05
318.15	0.753	0.05
328.15	0.746	0.049

System: heptane + trihexyl(tetradecyl)phosphonium chloride; phases: Liquid, Gas
Fixed: Mole fraction of heptane = 0
Property: Activity coefficient of heptane (Liquid); method: Chromatography
Temperature, K	Activity coefficient of heptane	uncertainty
308.15	0.816	0.053
318.15	0.803	0.052
328.15	0.795	0.052

System: octane + trihexyl(tetradecyl)phosphonium chloride; phases: Liquid, Gas
Fixed: Mole fraction of octane = 0
Property: Activity coefficient of octane (Liquid); method: Chromatography
Temperature, K	Activity coefficient of octane	uncertainty
308.15	0.847	0.054
318.15	0.831	0.054
328.15	0.821	0.053

System: cyclopentane + trihexyl(tetradecyl)phosphonium chloride; phases: Liquid, Gas
Fixed: Mole fraction of cyclopentane = 0
Property: Activity coefficient of cyclopentane (Liquid); method: Chromatography
Temperature, K	Activity coefficient of cyclopentane	uncertainty
308.15	0.579	0.041
318.15	0.576	0.041
328.15	0.574	0.041

System: cyclohexane + trihexyl(tetradecyl)phosphonium chloride; phases: Liquid, Gas
Fixed: Mole fraction of cyclohexane = 0
Property: Activity coefficient of cyclohexane (Liquid); method: Chromatography
Temperature, K	Activity coefficient of cyclohexane	uncertainty
308.15	0.631	0.044
318.15	0.627	0.043
328.15	0.625	0.043

System: cycloheptane + trihexyl(tetradecyl)phosphonium chloride; phases: Liquid, Gas
Fixed: Mole fraction of cycloheptane = 0
Property: Activity coefficient of cycloheptane (Liquid); method: Chromatography
Temperature, K	Activity coefficient of cycloheptane	uncertainty
308.15	0.861	0.055
318.15	0.753	0.05
328.15	0.763	0.05

System: hex-1-ene + trihexyl(tetradecyl)phosphonium chloride; phases: Liquid, Gas
Fixed: Mole fraction of hex-1-ene = 0
Property: Activity coefficient of hex-1-ene (Liquid); method: Chromatography
Temperature, K	Activity coefficient of hex-1-ene	uncertainty
308.15	0.477	0.037
318.15	0.471	0.037
328.15	0.468	0.037

System: 1-heptene + trihexyl(tetradecyl)phosphonium chloride; phases: Liquid, Gas
Fixed: Mole fraction of 1-heptene = 0
Property: Activity coefficient of 1-heptene (Liquid); method: Chromatography
Temperature, K	Activity coefficient of 1-heptene	uncertainty
308.15	0.523	0.039
318.15	0.515	0.038
328.15	0.511	0.038

System: oct-1-ene + trihexyl(tetradecyl)phosphonium chloride; phases: Liquid, Gas
Fixed: Mole fraction of oct-1-ene = 0
Property: Activity coefficient of oct-1-ene (Liquid); method: Chromatography
Temperature, K	Activity coefficient of oct-1-ene	uncertainty
308.15	0.567	0.041
318.15	0.557	0.04
328.15	0.552	0.04

System: 1-hexyne + trihexyl(tetradecyl)phosphonium chloride; phases: Liquid, Gas
Fixed: Mole fraction of 1-hexyne = 0
Property: Activity coefficient of 1-hexyne (Liquid); method: Chromatography
Temperature, K	Activity coefficient of 1-hexyne	uncertainty
308.15	0.449	0.036
318.15	0.461	0.036
328.15	0.468	0.037

System: 1-heptyne + trihexyl(tetradecyl)phosphonium chloride; phases: Liquid, Gas
Fixed: Mole fraction of 1-heptyne = 0
Property: Activity coefficient of 1-heptyne (Liquid); method: Chromatography
Temperature, K	Activity coefficient of 1-heptyne	uncertainty
308.15	0.479	0.037
318.15	0.494	0.038
328.15	0.504	0.038

System: 1-octyne + trihexyl(tetradecyl)phosphonium chloride; phases: Liquid, Gas
Fixed: Mole fraction of 1-octyne = 0
Property: Activity coefficient of 1-octyne (Liquid); method: Chromatography
Temperature, K	Activity coefficient of 1-octyne	uncertainty
308.15	0.494	0.038
318.15	0.514	0.038
328.15	0.526	0.039

System: methanol + trihexyl(tetradecyl)phosphonium chloride; phases: Liquid, Gas
Fixed: Mole fraction of methanol = 0
Property: Activity coefficient of methanol (Liquid); method: Chromatography
Temperature, K	Activity coefficient of methanol	uncertainty
308.15	0.887	0.056
318.15	0.879	0.056
328.15	0.873	0.056

System: ethanol + trihexyl(tetradecyl)phosphonium chloride; phases: Liquid, Gas
Fixed: Mole fraction of ethanol = 0
Property: Activity coefficient of ethanol (Liquid); method: Chromatography
Temperature, K	Activity coefficient of ethanol	uncertainty
308.15	0.74	0.049
318.15	0.737	0.049
328.15	0.735	0.049

System: benzene + trihexyl(tetradecyl)phosphonium chloride; phases: Liquid, Gas
Fixed: Mole fraction of benzene = 0
Property: Activity coefficient of benzene (Liquid); method: Chromatography
Temperature, K	Activity coefficient of benzene	uncertainty
308.15	0.408	0.034
318.15	0.403	0.034
328.15	0.4	0.034

System: pentane + trihexyl(tetradecyl)-phosphonium tetrafluoroborate; phases: Liquid, Gas
Fixed: Mole fraction of pentane = 0
Property: Activity coefficient of pentane (Liquid); method: Chromatography
Temperature, K	Activity coefficient of pentane	uncertainty
308.15	0.722	0.048
318.15	0.706	0.047
328.15	0.695	0.047

System: hexane + trihexyl(tetradecyl)-phosphonium tetrafluoroborate; phases: Liquid, Gas
Fixed: Mole fraction of hexane = 0
Property: Activity coefficient of hexane (Liquid); method: Chromatography
Temperature, K	Activity coefficient of hexane	uncertainty
308.15	0.968	0.061
318.15	0.942	0.059
328.15	0.925	0.058

System: heptane + trihexyl(tetradecyl)-phosphonium tetrafluoroborate; phases: Liquid, Gas
Fixed: Mole fraction of heptane = 0
Property: Activity coefficient of heptane (Liquid); method: Chromatography
Temperature, K	Activity coefficient of heptane	uncertainty
308.15	1	0.063
318.15	0.97	0.061
328.15	0.952	0.06

System: octane + trihexyl(tetradecyl)-phosphonium tetrafluoroborate; phases: Liquid, Gas
Fixed: Mole fraction of octane = 0
Property: Activity coefficient of octane (Liquid); method: Chromatography
Temperature, K	Activity coefficient of octane	uncertainty
308.15	1.153	0.073
318.15	1.115	0.071
328.15	1.092	0.069

System: cyclopentane + trihexyl(tetradecyl)-phosphonium tetrafluoroborate; phases: Liquid, Gas
Fixed: Mole fraction of cyclopentane = 0
Property: Activity coefficient of cyclopentane (Liquid); method: Chromatography
Temperature, K	Activity coefficient of cyclopentane	uncertainty
308.15	0.638	0.044
318.15	0.63	0.044
328.15	0.625	0.043

System: cyclohexane + trihexyl(tetradecyl)-phosphonium tetrafluoroborate; phases: Liquid, Gas
Fixed: Mole fraction of cyclohexane = 0
Property: Activity coefficient of cyclohexane (Liquid); method: Chromatography
Temperature, K	Activity coefficient of cyclohexane	uncertainty
308.15	0.73	0.048
318.15	0.719	0.048
328.15	0.712	0.047

System: cycloheptane + trihexyl(tetradecyl)-phosphonium tetrafluoroborate; phases: Liquid, Gas
Fixed: Mole fraction of cycloheptane = 0
Property: Activity coefficient of cycloheptane (Liquid); method: Chromatography
Temperature, K	Activity coefficient of cycloheptane	uncertainty
308.15	1	0.063
318.15	0.979	0.061
328.15	0.965	0.061

System: hex-1-ene + trihexyl(tetradecyl)-phosphonium tetrafluoroborate; phases: Liquid, Gas
Fixed: Mole fraction of hex-1-ene = 0
Property: Activity coefficient of hex-1-ene (Liquid); method: Chromatography
Temperature, K	Activity coefficient of hex-1-ene	uncertainty
308.15	0.57	0.041
318.15	0.558	0.04
328.15	0.551	0.04

System: 1-heptene + trihexyl(tetradecyl)-phosphonium tetrafluoroborate; phases: Liquid, Gas
Fixed: Mole fraction of 1-heptene = 0
Property: Activity coefficient of 1-heptene (Liquid); method: Chromatography
Temperature, K	Activity coefficient of 1-heptene	uncertainty
308.15	0.663	0.045
318.15	0.647	0.044
328.15	0.637	0.044

System: oct-1-ene + trihexyl(tetradecyl)-phosphonium tetrafluoroborate; phases: Liquid, Gas
Fixed: Mole fraction of oct-1-ene = 0
Property: Activity coefficient of oct-1-ene (Liquid); method: Chromatography
Temperature, K	Activity coefficient of oct-1-ene	uncertainty
308.15	0.769	0.05
318.15	0.748	0.049
328.15	0.734	0.049

System: 1-hexyne + trihexyl(tetradecyl)-phosphonium tetrafluoroborate; phases: Liquid, Gas
Fixed: Mole fraction of 1-hexyne = 0
Property: Activity coefficient of 1-hexyne (Liquid); method: Chromatography
Temperature, K	Activity coefficient of 1-hexyne	uncertainty
308.15	0.345	0.032
318.15	0.358	0.033
328.15	0.366	0.033

System: 1-heptyne + trihexyl(tetradecyl)-phosphonium tetrafluoroborate; phases: Liquid, Gas
Fixed: Mole fraction of 1-heptyne = 0
Property: Activity coefficient of 1-heptyne (Liquid); method: Chromatography
Temperature, K	Activity coefficient of 1-heptyne	uncertainty
308.15	0.374	0.033
318.15	0.389	0.034
328.15	0.399	0.034

System: 1-octyne + trihexyl(tetradecyl)-phosphonium tetrafluoroborate; phases: Liquid, Gas
Fixed: Mole fraction of 1-octyne = 0
Property: Activity coefficient of 1-octyne (Liquid); method: Chromatography
Temperature, K	Activity coefficient of 1-octyne	uncertainty
308.15	0.387	0.034
318.15	0.406	0.034
328.15	0.417	0.035

System: methanol + trihexyl(tetradecyl)-phosphonium tetrafluoroborate; phases: Liquid, Gas
Fixed: Mole fraction of methanol = 0
Property: Activity coefficient of methanol (Liquid); method: Chromatography
Temperature, K	Activity coefficient of methanol	uncertainty
308.15	6.682	0.456
318.15	6.383	0.435
328.15	6.097	0.416

System: ethanol + trihexyl(tetradecyl)-phosphonium tetrafluoroborate; phases: Liquid, Gas
Fixed: Mole fraction of ethanol = 0
Property: Activity coefficient of ethanol (Liquid); method: Chromatography
Temperature, K	Activity coefficient of ethanol	uncertainty
308.15	5.593	0.381
318.15	5.361	0.365
328.15	5.138	0.35

System: benzene + trihexyl(tetradecyl)-phosphonium tetrafluoroborate; phases: Liquid, Gas
Fixed: Mole fraction of benzene = 0
Property: Activity coefficient of benzene (Liquid); method: Chromatography
Temperature, K	Activity coefficient of benzene	uncertainty
308.15	0.37	0.033
318.15	0.367	0.033
328.15	0.366	0.033

System: pentane + trihexyl(tetradecyl)phosphonium bis[(trifluoromethyl)sulfonyl]imide; phases: Liquid, Gas
Fixed: Mole fraction of pentane = 0
Property: Activity coefficient of pentane (Liquid); method: Chromatography
Temperature, K	Activity coefficient of pentane	uncertainty
308.15	0.611	0.043
318.15	0.602	0.042
328.15	0.597	0.042

System: hexane + trihexyl(tetradecyl)phosphonium bis[(trifluoromethyl)sulfonyl]imide; phases: Liquid, Gas
Fixed: Mole fraction of hexane = 0
Property: Activity coefficient of hexane (Liquid); method: Chromatography
Temperature, K	Activity coefficient of hexane	uncertainty
308.15	0.766	0.05
318.15	0.751	0.049
328.15	0.742	0.049

System: heptane + trihexyl(tetradecyl)phosphonium bis[(trifluoromethyl)sulfonyl]imide; phases: Liquid, Gas
Fixed: Mole fraction of heptane = 0
Property: Activity coefficient of heptane (Liquid); method: Chromatography
Temperature, K	Activity coefficient of heptane	uncertainty
308.15	0.783	0.051
318.15	0.769	0.05
328.15	0.761	0.05

System: octane + trihexyl(tetradecyl)phosphonium bis[(trifluoromethyl)sulfonyl]imide; phases: Liquid, Gas
Fixed: Mole fraction of octane = 0
Property: Activity coefficient of octane (Liquid); method: Chromatography
Temperature, K	Activity coefficient of octane	uncertainty
308.15	0.843	0.054
318.15	0.825	0.053
328.15	0.814	0.053

System: cyclopentane + trihexyl(tetradecyl)phosphonium bis[(trifluoromethyl)sulfonyl]imide; phases: Liquid, Gas
Fixed: Mole fraction of cyclopentane = 0
Property: Activity coefficient of cyclopentane (Liquid); method: Chromatography
Temperature, K	Activity coefficient of cyclopentane	uncertainty
308.15	0.562	0.04
318.15	0.559	0.04
328.15	0.558	0.04

System: cyclohexane + trihexyl(tetradecyl)phosphonium bis[(trifluoromethyl)sulfonyl]imide; phases: Liquid, Gas
Fixed: Mole fraction of cyclohexane = 0
Property: Activity coefficient of cyclohexane (Liquid); method: Chromatography
Temperature, K	Activity coefficient of cyclohexane	uncertainty
308.15	0.612	0.043
318.15	0.609	0.043
328.15	0.607	0.042

System: cycloheptane + trihexyl(tetradecyl)phosphonium bis[(trifluoromethyl)sulfonyl]imide; phases: Liquid, Gas
Fixed: Mole fraction of cycloheptane = 0
Property: Activity coefficient of cycloheptane (Liquid); method: Chromatography
Temperature, K	Activity coefficient of cycloheptane	uncertainty
308.15	0.787	0.051
318.15	0.779	0.051
328.15	0.774	0.051

System: hex-1-ene + trihexyl(tetradecyl)phosphonium bis[(trifluoromethyl)sulfonyl]imide; phases: Liquid, Gas
Fixed: Mole fraction of hex-1-ene = 0
Property: Activity coefficient of hex-1-ene (Liquid); method: Chromatography
Temperature, K	Activity coefficient of hex-1-ene	uncertainty
308.15	0.501	0.038
318.15	0.494	0.038
328.15	0.49	0.037

System: 1-heptene + trihexyl(tetradecyl)phosphonium bis[(trifluoromethyl)sulfonyl]imide; phases: Liquid, Gas
Fixed: Mole fraction of 1-heptene = 0
Property: Activity coefficient of 1-heptene (Liquid); method: Chromatography
Temperature, K	Activity coefficient of 1-heptene	uncertainty
308.15	0.558	0.04
318.15	0.549	0.04
328.15	0.543	0.04

System: oct-1-ene + trihexyl(tetradecyl)phosphonium bis[(trifluoromethyl)sulfonyl]imide; phases: Liquid, Gas
Fixed: Mole fraction of oct-1-ene = 0
Property: Activity coefficient of oct-1-ene (Liquid); method: Chromatography
Temperature, K	Activity coefficient of oct-1-ene	uncertainty
308.15	0.617	0.043
318.15	0.605	0.042
328.15	0.598	0.042

System: 1-hexyne + trihexyl(tetradecyl)phosphonium bis[(trifluoromethyl)sulfonyl]imide; phases: Liquid, Gas
Fixed: Mole fraction of 1-hexyne = 0
Property: Activity coefficient of 1-hexyne (Liquid); method: Chromatography
Temperature, K	Activity coefficient of 1-hexyne	uncertainty
308.15	0.454	0.036
318.15	0.463	0.036
328.15	0.468	0.037

System: 1-heptyne + trihexyl(tetradecyl)phosphonium bis[(trifluoromethyl)sulfonyl]imide; phases: Liquid, Gas
Fixed: Mole fraction of 1-heptyne = 0
Property: Activity coefficient of 1-heptyne (Liquid); method: Chromatography
Temperature, K	Activity coefficient of 1-heptyne	uncertainty
308.15	0.485	0.037
318.15	0.496	0.038
328.15	0.502	0.038

System: 1-octyne + trihexyl(tetradecyl)phosphonium bis[(trifluoromethyl)sulfonyl]imide; phases: Liquid, Gas
Fixed: Mole fraction of 1-octyne = 0
Property: Activity coefficient of 1-octyne (Liquid); method: Chromatography
Temperature, K	Activity coefficient of 1-octyne	uncertainty
308.15	0.511	0.038
318.15	0.524	0.039
328.15	0.532	0.039

System: methanol + trihexyl(tetradecyl)phosphonium bis[(trifluoromethyl)sulfonyl]imide; phases: Liquid, Gas
Fixed: Mole fraction of methanol = 0
Property: Activity coefficient of methanol (Liquid); method: Chromatography
Temperature, K	Activity coefficient of methanol	uncertainty
308.15	0.942	0.059
318.15	0.958	0.06
328.15	0.989	0.062

System: ethanol + trihexyl(tetradecyl)phosphonium bis[(trifluoromethyl)sulfonyl]imide; phases: Liquid, Gas
Fixed: Mole fraction of ethanol = 0
Property: Activity coefficient of ethanol (Liquid); method: Chromatography
Temperature, K	Activity coefficient of ethanol	uncertainty
308.15	0.884	0.056
318.15	0.894	0.057
328.15	0.902	0.057

System: benzene + trihexyl(tetradecyl)phosphonium bis[(trifluoromethyl)sulfonyl]imide; phases: Liquid, Gas
Fixed: Mole fraction of benzene = 0
Property: Activity coefficient of benzene (Liquid); method: Chromatography
Temperature, K	Activity coefficient of benzene	uncertainty
308.15	0.406	0.034
318.15	0.403	0.034
328.15	0.402	0.034
