Measured thermophysical data. Acoustical and Excess Properties of {Chlorobenzene + 1-Hexanol, or 1-Heptanol, or 1-Octanol, or 1-Nonanol, or 1-Decanol} at (298.15, 303.15, 308.15, and 313.15) K
Source: J. Chem. Eng. Data, 2007, 10.1021/je060353z
Compound 1: chlorobenzene, C6H5Cl, InChI=1S/C6H5Cl/c7-6-4-2-1-3-5-6/h1-5H, purity 99.5%
Compound 2: hexan-1-ol, C6H14O, InChI=1S/C6H14O/c1-2-3-4-5-6-7/h7H,2-6H2,1H3, purity 99.5%
Compound 3: heptan-1-ol, C7H16O, InChI=1S/C7H16O/c1-2-3-4-5-6-7-8/h8H,2-7H2,1H3, purity 99.5%
Compound 4: octan-1-ol, C8H18O, InChI=1S/C8H18O/c1-2-3-4-5-6-7-8-9/h9H,2-8H2,1H3, purity 99.5%
Compound 5: nonan-1-ol, C9H20O, InChI=1S/C9H20O/c1-2-3-4-5-6-7-8-9-10/h10H,2-9H2,1H3
Compound 6: decan-1-ol, C10H22O, InChI=1S/C10H22O/c1-2-3-4-5-6-7-8-9-10-11/h11H,2-10H2,1H3, purity 99.5%

System: chlorobenzene; phases: Liquid
Fixed: Pressure, kPa = 101
Property: Viscosity, Pa*s (Liquid); method: VIBWIR:UFactor:2
Temperature, K	Viscosity, Pa*s	uncertainty
298.15	0.000757	1.4e-05
303.15	0.000714	1.4e-05
308.15	0.000677	1.4e-05
313.15	0.000617	1.3e-05

System: chlorobenzene; phases: Liquid
Fixed: Pressure, kPa = 101
Property: Speed of sound, m/s (Liquid); method: PULSEH:UFactor:2
Temperature, K	Speed of sound, m/s	uncertainty
298.15	1267.96	1.39
303.15	1249.41	1.37
308.15	1230.87	1.36
313.15	1212.63	1.35

System: chlorobenzene; phases: Liquid
Fixed: Pressure, kPa = 101
Property: Mass density, kg/m3 (Liquid); method: VIBTUB::UFactor:4
Temperature, K	Mass density, kg/m3	uncertainty
298.15	1100.975	0.342
298.15	1100.675	0.341
303.15	1095.104	0.332
308.15	1089.081	0.322
313.15	1083.665	0.313

System: hexan-1-ol; phases: Liquid
Fixed: Pressure, kPa = 101
Property: Viscosity, Pa*s (Liquid); method: VIBWIR:UFactor:2
Temperature, K	Viscosity, Pa*s	uncertainty
298.15	0.004594	4.5e-05
303.15	0.003887	3.9e-05
308.15	0.003359	3.5e-05
313.15	0.002914	3.1e-05

System: hexan-1-ol; phases: Liquid
Fixed: Pressure, kPa = 101
Property: Speed of sound, m/s (Liquid); method: PULSEH::UFactor:2
Temperature, K	Speed of sound, m/s	uncertainty
298.15	1304.72	1.41
303.15	1287.9	1.4
308.15	1271.14	1.39
313.15	1254.45	1.38

System: hexan-1-ol; phases: Liquid
Fixed: Pressure, kPa = 101
Property: Mass density, kg/m3 (Liquid); method: VIBTUB::UFactor:4
Temperature, K	Mass density, kg/m3	uncertainty
298.15	815.23	0.446
303.15	812.118	0.45
308.15	808.482	0.456
313.15	804.811	0.461

System: heptan-1-ol; phases: Liquid
Fixed: Pressure, kPa = 101
Property: Viscosity, Pa*s (Liquid); method: VIBWIR::UFactor:2
Temperature, K	Viscosity, Pa*s	uncertainty
298.15	0.005944	5.6e-05
303.15	0.005069	4.9e-05
308.15	0.004333	4.3e-05
313.15	0.003726	3.8e-05

System: heptan-1-ol; phases: Liquid
Fixed: Pressure, kPa = 101
Property: Speed of sound, m/s (Liquid); method: PULSEH::UFactor:2
Temperature, K	Speed of sound, m/s	uncertainty
298.15	1327.32	1.43
303.15	1313.58	1.42
308.15	1293.86	1.41
313.15	1277.15	1.39

System: heptan-1-ol; phases: Liquid
Fixed: Pressure, kPa = 101
Property: Mass density, kg/m3 (Liquid); method: VIBTUB::UFactor:4
Temperature, K	Mass density, kg/m3	uncertainty
298.15	818.732	0.441
303.15	815.287	0.446
308.15	811.737	0.451
313.15	808.162	0.456

System: octan-1-ol; phases: Liquid
Fixed: Pressure, kPa = 101
Property: Viscosity, Pa*s (Liquid); method: VIBWIR::UFactor:2
Temperature, K	Viscosity, Pa*s	uncertainty
298.15	0.007661	7e-05
303.15	0.006402	6e-05
308.15	0.005425	5.2e-05
313.15	0.004628	4.5e-05

System: octan-1-ol; phases: Liquid
Fixed: Pressure, kPa = 101
Property: Speed of sound, m/s (Liquid); method: PULSEH::UFactor:2
Temperature, K	Speed of sound, m/s	uncertainty
298.15	1347.82	1.44
303.15	1338.02	10
308.15	1314.27	1.42
313.15	1297.6	1.41

System: octan-1-ol; phases: Liquid
Fixed: Pressure, kPa = 101
Property: Mass density, kg/m3 (Liquid); method: VIBTUB::UFactor:4
Temperature, K	Mass density, kg/m3	uncertainty
298.15	821.826	0.436
303.15	818.23	0.441
308.15	814.737	0.447
313.15	810.098	0.454

System: nonan-1-ol; phases: Liquid
Fixed: Pressure, kPa = 101
Property: Viscosity, Pa*s (Liquid); method: VIBWIR::UFactor:2
Temperature, K	Viscosity, Pa*s	uncertainty
298.15	0.009715	0.000257
303.15	0.007927	0.00021
308.15	0.006664	0.000177
313.15	0.005645	0.00015

System: nonan-1-ol; phases: Liquid
Fixed: Pressure, kPa = 101
Property: Speed of sound, m/s (Liquid); method: PULSEH::UFactor:2
Temperature, K	Speed of sound, m/s	uncertainty
298.15	1365.48	5.18
303.15	1353.6	5.18
308.15	1331.78	5.18
313.15	1315	5.17

System: nonan-1-ol; phases: Liquid
Fixed: Pressure, kPa = 101
Property: Mass density, kg/m3 (Liquid); method: VIBTUB::UFactor:4
Temperature, K	Mass density, kg/m3	uncertainty
298.15	824.478	4.045
303.15	821.044	4.02
308.15	817.582	3.995
313.15	814.098	3.97

System: decan-1-ol; phases: Liquid
Fixed: Pressure, kPa = 101
Property: Viscosity, Pa*s (Liquid); method: VIBWIR::UFactor:2
Temperature, K	Viscosity, Pa*s	uncertainty
298.15	0.011825	0.000104
303.15	0.009754	8.7e-05
308.15	0.008135	7.4e-05
313.15	0.006842	6.3e-05

System: decan-1-ol; phases: Liquid
Fixed: Pressure, kPa = 101
Property: Speed of sound, m/s (Liquid); method: PULSEH::UFactor:2
Temperature, K	Speed of sound, m/s	uncertainty
298.15	1380.01	1.47
303.15	1364.99	1.46
308.15	1346.1	1.44
313.15	1329.31	1.43

System: decan-1-ol; phases: Liquid
Fixed: Pressure, kPa = 101
Property: Mass density, kg/m3 (Liquid); method: VIBTUB::UFactor:4
Temperature, K	Mass density, kg/m3	uncertainty
298.15	826.762	0.429
303.15	822.853	0.434
308.15	819.427	0.44
313.15	815.983	0.445

System: chlorobenzene + hexan-1-ol; phases: Liquid
Fixed: Pressure, kPa = 101
Property: Viscosity, Pa*s (Liquid); method: VIBWIR:UFactor:2
Temperature, K	Mole fraction of chlorobenzene	Viscosity, Pa*s	uncertainty
298.15	0	0.004594	4.5e-05
298.15	0.1144	0.003576	3.7e-05
298.15	0.2338	0.002746	3e-05
298.15	0.3573	0.002107	2.5e-05
298.15	0.4628	0.001699	2.1e-05
298.15	0.5568	0.001417	1.9e-05
298.15	0.6542	0.001184	1.7e-05
298.15	0.7457	0.001008	1.6e-05
298.15	0.8353	0.000873	1.5e-05
298.15	0.9171	0.000788	1.5e-05
298.15	1	0.000757	1.4e-05
303.15	0	0.003887	3.9e-05
303.15	0.1144	0.003096	3.3e-05
303.15	0.2338	0.002414	2.7e-05
303.15	0.3573	0.00187	2.3e-05
303.15	0.4628	0.001515	2e-05
303.15	0.5568	0.001274	1.8e-05
303.15	0.6542	0.001079	1.6e-05
303.15	0.7457	0.000935	1.5e-05
303.15	0.8353	0.000824	1.5e-05
303.15	0.9171	0.000752	1.4e-05
303.15	1	0.000714	1.4e-05
308.15	0	0.003359	3.5e-05
308.15	0.1144	0.002695	2.9e-05
308.15	0.2338	0.002123	2.5e-05
308.15	0.3573	0.001665	2.1e-05
308.15	0.4628	0.001369	1.9e-05
308.15	0.5568	0.001165	1.7e-05
308.15	0.6542	0.000997	1.6e-05
308.15	0.7457	0.00087	1.5e-05
308.15	0.8353	0.000772	1.4e-05
308.15	0.9171	0.000711	1.4e-05
308.15	1	0.000677	1.4e-05
313.15	0	0.002914	3.1e-05
313.15	0.1144	0.00235	2.7e-05
313.15	0.2338	0.001865	2.3e-05
313.15	0.3573	0.001478	2e-05
313.15	0.4628	0.001223	1.8e-05
313.15	0.5568	0.001044	1.6e-05
313.15	0.6542	0.000896	1.5e-05
313.15	0.7457	0.00078	1.4e-05
313.15	0.8353	0.000692	1.4e-05
313.15	0.9171	0.000637	1.4e-05
313.15	1	0.000617	1.3e-05

System: chlorobenzene + hexan-1-ol; phases: Liquid
Fixed: Pressure, kPa = 101
Property: Speed of sound, m/s (Liquid); method: PULSEH:UFactor:2
Temperature, K	Mole fraction of chlorobenzene	Speed of sound, m/s	uncertainty
298.15	0	1304.72	1.41
298.15	0.1144	1297.7	1.41
298.15	0.2338	1289.83	1.4
298.15	0.3573	1281.57	1.4
298.15	0.4628	1274.79	1.39
298.15	0.5568	1269.25	1.39
298.15	0.6542	1264.34	1.38
298.15	0.7457	1260.86	1.38
298.15	0.8353	1259.29	1.38
298.15	0.9171	1260.91	1.38
298.15	1	1267.96	1.39
303.15	0	1287.9	1.4
303.15	0.1144	1280.61	1.4
303.15	0.2338	1272.45	1.39
303.15	0.3573	1264.01	1.38
303.15	0.4628	1257.1	1.38
303.15	0.5568	1251.57	1.38
303.15	0.6542	1246.56	1.37
303.15	0.7457	1243.07	1.37
303.15	0.8353	1241.54	1.37
303.15	0.9171	1243.23	1.37
303.15	1	1249.41	1.37
308.15	0	1271.14	1.39
308.15	0.1144	1263.57	1.38
308.15	0.2338	1255.39	1.38
308.15	0.3573	1246.68	1.37
308.15	0.4628	1239.73	1.37
308.15	0.5568	1233.94	1.36
308.15	0.6542	1228.92	1.36
308.15	0.7457	1225.4	1.36
308.15	0.8353	1224.3	1.36
308.15	0.9171	1225.8	1.36
308.15	1	1230.87	1.36
313.15	0	1254.45	1.38
313.15	0.1144	1246.54	1.37
313.15	0.2338	1238.45	1.37
313.15	0.3573	1229.79	1.36
313.15	0.4628	1222.88	1.35
313.15	0.5568	1216.68	1.35
313.15	0.6542	1211.62	1.35
313.15	0.7457	1207.89	1.34
313.15	0.8353	1206.56	1.34
313.15	0.9171	1208.18	1.34
313.15	1	1212.63	1.35

System: chlorobenzene + hexan-1-ol; phases: Liquid
Fixed: Pressure, kPa = 101
Property: Mass density, kg/m3 (Liquid); method: VIBTUB:UFactor:4
Temperature, K	Mole fraction of chlorobenzene	Mass density, kg/m3	uncertainty
298.15	0	815.23	0.446
298.15	0.1144	842.629	0.406
298.15	0.2338	872.274	0.363
298.15	0.3573	904.193	0.316
298.15	0.4628	932.67	0.274
298.15	0.5568	959.077	0.236
298.15	0.6542	987.534	0.195
298.15	0.7457	1015.514	0.203
298.15	0.8353	1044.185	0.25
298.15	0.9171	1071.621	0.296
298.15	1	1100.975	0.342
303.15	0	812.118	0.45
303.15	0.1144	839.289	0.411
303.15	0.2338	868.705	0.368
303.15	0.3573	900.355	0.321
303.15	0.4628	928.591	0.28
303.15	0.5568	954.767	0.242
303.15	0.6542	982.986	0.202
303.15	0.7457	1010.711	0.195
303.15	0.8353	1039.122	0.242
303.15	0.9171	1066.267	0.287
303.15	1	1095.104	0.332
308.15	0	808.482	0.456
308.15	0.1144	835.421	0.417
308.15	0.2338	864.604	0.374
308.15	0.3573	895.988	0.328
308.15	0.4628	923.985	0.287
308.15	0.5568	949.942	0.249
308.15	0.6542	977.948	0.209
308.15	0.7457	1005.424	0.187
308.15	0.8353	1033.552	0.233
308.15	0.9171	1060.412	0.277
308.15	1	1089.081	0.322
313.15	0	804.811	0.461
313.15	0.1144	831.574	0.423
313.15	0.2338	860.561	0.38
313.15	0.3573	891.747	0.334
313.15	0.4628	919.571	0.293
313.15	0.5568	945.388	0.256
313.15	0.6542	973.227	0.216
313.15	0.7457	1000.531	0.178
313.15	0.8353	1028.463	0.224
313.15	0.9171	1055.093	0.268
313.15	1	1083.665	0.313

System: chlorobenzene + heptan-1-ol; phases: Liquid
Fixed: Pressure, kPa = 101
Property: Viscosity, Pa*s (Liquid); method: VIBWIR:UFactor:2
Temperature, K	Mole fraction of chlorobenzene	Viscosity, Pa*s	uncertainty
298.15	0	0.005944	5.6e-05
298.15	0.1306	0.004469	4.4e-05
298.15	0.2566	0.003335	3.5e-05
298.15	0.3866	0.002453	2.7e-05
298.15	0.4947	0.001911	2.3e-05
298.15	0.5878	0.001557	2e-05
298.15	0.6827	0.001273	1.8e-05
298.15	0.7682	0.001073	1.6e-05
298.15	0.8521	0.000918	1.5e-05
298.15	0.9255	0.000817	1.5e-05
298.15	1	0.000757	1.4e-05
303.15	0	0.005069	4.9e-05
303.15	0.1306	0.003832	3.9e-05
303.15	0.2566	0.002896	3.1e-05
303.15	0.3866	0.002164	2.5e-05
303.15	0.4947	0.001709	2.1e-05
303.15	0.5878	0.001406	1.9e-05
303.15	0.6827	0.00116	1.7e-05
303.15	0.7682	0.000984	1.6e-05
303.15	0.8521	0.00085	1.5e-05
303.15	0.9255	0.000764	1.4e-05
303.15	1	0.000714	1.4e-05
308.15	0	0.004333	4.3e-05
308.15	0.1306	0.003311	3.4e-05
308.15	0.2566	0.002532	2.8e-05
308.15	0.3866	0.001922	2.3e-05
308.15	0.4947	0.001543	2e-05
308.15	0.5878	0.001283	1.8e-05
308.15	0.6827	0.001059	1.6e-05
308.15	0.7682	0.000915	1.5e-05
308.15	0.8521	0.000816	1.5e-05
308.15	0.9255	0.000733	1.4e-05
308.15	1	0.000677	1.4e-05
313.15	0	0.003726	3.8e-05
313.15	0.1306	0.002872	3.1e-05
313.15	0.2566	0.002219	2.6e-05
313.15	0.3866	0.001705	2.1e-05
313.15	0.4947	0.001378	1.9e-05
313.15	0.5878	0.001135	1.7e-05
313.15	0.6827	0.000953	1.6e-05
313.15	0.7682	0.000822	1.5e-05
313.15	0.8521	0.000723	1.4e-05
313.15	0.9255	0.000662	1.4e-05
313.15	1	0.000617	1.3e-05

System: chlorobenzene + heptan-1-ol; phases: Liquid
Fixed: Pressure, kPa = 101
Property: Speed of sound, m/s (Liquid); method: PULSEH:UFactor:2
Temperature, K	Mole fraction of chlorobenzene	Speed of sound, m/s	uncertainty
298.15	0	1327.32	1.43
298.15	0.1306	1316.71	1.42
298.15	0.2566	1305.54	1.41
298.15	0.3866	1293.83	1.41
298.15	0.4947	1283.99	1.4
298.15	0.5878	1275.95	1.39
298.15	0.6827	1269.1	1.39
298.15	0.7682	1264.6	1.38
298.15	0.8521	1262.71	1.38
298.15	0.9255	1263.81	1.38
298.15	1	1267.96	1.39
303.15	0	1313.58	1.42
303.15	0.1306	1299.95	1.41
303.15	0.2566	1289.02	1.4
303.15	0.3866	1277.56	1.39
303.15	0.4947	1268.16	1.39
303.15	0.5878	1260.67	1.38
303.15	0.6827	1253.8	1.38
303.15	0.7682	1248.72	1.37
303.15	0.8521	1245.44	1.37
303.15	0.9255	1245.55	1.37
303.15	1	1249.41	1.37
308.15	0	1293.86	1.41
308.15	0.1306	1283.28	1.4
308.15	0.2566	1272.12	1.39
308.15	0.3866	1260.38	1.38
308.15	0.4947	1250.19	1.37
308.15	0.5878	1242.05	1.37
308.15	0.6827	1234.96	1.36
308.15	0.7682	1230.09	1.36
308.15	0.8521	1227.58	1.36
308.15	0.9255	1227.98	1.36
308.15	1	1230.87	1.36
313.15	0	1277.15	1.39
313.15	0.1306	1266.52	1.39
313.15	0.2566	1255.62	1.38
313.15	0.3866	1243.84	1.37
313.15	0.4947	1233.59	1.36
313.15	0.5878	1225.34	1.36
313.15	0.6827	1217.92	1.35
313.15	0.7682	1212.94	1.35
313.15	0.8521	1209.9	1.35
313.15	0.9255	1209.66	1.35
313.15	1	1212.63	1.35

System: chlorobenzene + heptan-1-ol; phases: Liquid
Fixed: Pressure, kPa = 101
Property: Mass density, kg/m3 (Liquid); method: VIBTUB:UFactor:4
Temperature, K	Mole fraction of chlorobenzene	Mass density, kg/m3	uncertainty
298.15	0	818.732	0.441
298.15	0.1306	846.348	0.401
298.15	0.2566	874.819	0.359
298.15	0.3866	906.448	0.313
298.15	0.4947	934.739	0.271
298.15	0.5878	960.727	0.234
298.15	0.6827	988.992	0.194
298.15	0.7682	1016.226	0.205
298.15	0.8521	1044.88	0.252
298.15	0.9255	1071.666	0.297
298.15	1	1100.975	0.342
303.15	0	815.287	0.446
303.15	0.1306	842.689	0.406
303.15	0.2566	870.964	0.364
303.15	0.3866	902.362	0.318
303.15	0.4947	930.425	0.278
303.15	0.5878	956.224	0.24
303.15	0.6827	984.268	0.2
303.15	0.7682	1011.304	0.197
303.15	0.8521	1039.687	0.243
303.15	0.9255	1066.234	0.288
303.15	1	1095.104	0.332
308.15	0	811.737	0.451
308.15	0.1306	838.9	0.412
308.15	0.2566	866.926	0.37
308.15	0.3866	898.052	0.325
308.15	0.4947	925.892	0.284
308.15	0.5878	951.47	0.247
308.15	0.6827	979.252	0.207
308.15	0.7682	1006.02	0.188
308.15	0.8521	1034.115	0.234
308.15	0.9255	1060.416	0.278
308.15	1	1089.081	0.322
313.15	0	808.162	0.456
313.15	0.1306	835.146	0.417
313.15	0.2566	862.967	0.376
313.15	0.3866	893.905	0.331
313.15	0.4947	921.55	0.29
313.15	0.5878	946.95	0.254
313.15	0.6827	974.575	0.214
313.15	0.7682	1001.128	0.18
313.15	0.8521	1029.023	0.226
313.15	0.9255	1055.079	0.269
313.15	1	1083.665	0.313

System: chlorobenzene + octan-1-ol; phases: Liquid
Fixed: Pressure, kPa = 101
Property: Viscosity, Pa*s (Liquid); method: VIBWIR:UFactor:2
Temperature, K	Mole fraction of chlorobenzene	Viscosity, Pa*s	uncertainty
298.15	0	0.007661	7e-05
298.15	0.1423	0.005448	5.2e-05
298.15	0.2807	0.00387	3.9e-05
298.15	0.4121	0.002788	3e-05
298.15	0.5237	0.002116	2.5e-05
298.15	0.6158	0.001692	2.1e-05
298.15	0.7073	0.001363	1.9e-05
298.15	0.7885	0.001132	1.7e-05
298.15	0.8662	0.000956	1.6e-05
298.15	0.9331	0.000841	1.5e-05
298.15	1	0.000757	1.4e-05
303.15	0	0.006402	6e-05
303.15	0.1423	0.00464	4.5e-05
303.15	0.2807	0.003352	3.5e-05
303.15	0.4121	0.002455	2.7e-05
303.15	0.5237	0.00189	2.3e-05
303.15	0.6158	0.001528	2e-05
303.15	0.7073	0.001243	1.8e-05
303.15	0.7885	0.00104	1.6e-05
303.15	0.8662	0.000885	1.5e-05
303.15	0.9331	0.000782	1.4e-05
303.15	1	0.000714	1.4e-05
308.15	0	0.005425	5.2e-05
308.15	0.1423	0.003981	4e-05
308.15	0.2807	0.002919	3.1e-05
308.15	0.4121	0.002174	2.5e-05
308.15	0.5237	0.001678	2.1e-05
308.15	0.6158	0.001366	1.9e-05
308.15	0.7073	0.001119	1.7e-05
308.15	0.7885	0.000956	1.6e-05
308.15	0.8662	0.000833	1.5e-05
308.15	0.9331	0.000752	1.4e-05
308.15	1	0.000677	1.4e-05
313.15	0	0.004628	4.5e-05
313.15	0.1423	0.003436	3.5e-05
313.15	0.2807	0.002562	2.8e-05
313.15	0.4121	0.001934	2.3e-05
313.15	0.5237	0.001528	2e-05
313.15	0.6158	0.001267	1.8e-05
313.15	0.7073	0.001037	1.6e-05
313.15	0.7885	0.000891	1.5e-05
313.15	0.8662	0.00076	1.4e-05
313.15	0.9331	0.000681	1.4e-05
313.15	1	0.000617	1.3e-05

System: chlorobenzene + octan-1-ol; phases: Liquid
Fixed: Pressure, kPa = 101
Property: Speed of sound, m/s (Liquid); method: PULSEH:UFactor:2
Temperature, K	Mole fraction of chlorobenzene	Speed of sound, m/s	uncertainty
298.15	0	1347.82	1.44
298.15	0.1423	1334.07	1.43
298.15	0.2807	1319.12	1.42
298.15	0.4121	1303.67	1.41
298.15	0.5237	1291.06	1.4
298.15	0.6158	1281.24	1.4
298.15	0.7073	1272.7	1.39
298.15	0.7885	1266.98	1.39
298.15	0.8662	1264	1.38
298.15	0.9331	1264.03	1.38
298.15	1	1267.96	1.39
303.15	0	1338.02	10
303.15	0.1423	1317.49	1.42
303.15	0.2807	1303.37	1.41
303.15	0.4121	1289.57	1.4
303.15	0.5237	1277.85	1.39
303.15	0.6158	1268.56	1.39
303.15	0.7073	1260	1.38
303.15	0.7885	1253.37	1.38
303.15	0.8662	1248.7	1.37
303.15	0.9331	1247.49	1.37
303.15	1	1249.41	1.37
308.15	0	1314.27	1.42
308.15	0.1423	1302.61	1.41
308.15	0.2807	1289.52	1.4
308.15	0.4121	1275.95	1.39
308.15	0.5237	1263.83	1.38
308.15	0.6158	1254.63	1.38
308.15	0.7073	1245.73	1.37
308.15	0.7885	1238.65	1.37
308.15	0.8662	1233.39	1.36
308.15	0.9331	1230.9	1.36
308.15	1	1230.87	1.36
313.15	0	1297.6	1.41
313.15	0.1423	1285.8	1.4
313.15	0.2807	1273.24	1.39
313.15	0.4121	1260.35	1.38
313.15	0.5237	1248.92	1.37
313.15	0.6158	1239.56	1.37
313.15	0.7073	1230.69	1.36
313.15	0.7885	1223.45	1.35
313.15	0.8662	1217.84	1.35
313.15	0.9331	1214.32	1.35
313.15	1	1212.63	1.35

System: chlorobenzene + octan-1-ol; phases: Liquid
Fixed: Pressure, kPa = 101
Property: Mass density, kg/m3 (Liquid); method: VIBTUB:UFactor:4
Temperature, K	Mole fraction of chlorobenzene	Mass density, kg/m3	uncertainty
298.15	0	821.826	0.436
298.15	0.1423	848.715	0.397
298.15	0.2807	877.644	0.355
298.15	0.4121	908.104	0.31
298.15	0.5237	936.698	0.269
298.15	0.6158	962.489	0.232
298.15	0.7073	990.466	0.192
298.15	0.7885	1017.455	0.207
298.15	0.8662	1045.681	0.254
298.15	0.9331	1072.016	0.298
298.15	1	1100.975	0.342
303.15	0	818.23	0.441
303.15	0.1423	844.912	0.403
303.15	0.2807	873.625	0.36
303.15	0.4121	903.886	0.316
303.15	0.5237	932.283	0.275
303.15	0.6158	957.91	0.238
303.15	0.7073	985.68	0.198
303.15	0.7885	1012.469	0.199
303.15	0.8662	1040.472	0.245
303.15	0.9331	1066.598	0.289
303.15	1	1095.104	0.332
308.15	0	814.737	0.447
308.15	0.1423	841.161	0.408
308.15	0.2807	869.616	0.366
308.15	0.4121	899.625	0.322
308.15	0.5237	927.793	0.281
308.15	0.6158	953.186	0.245
308.15	0.7073	980.694	0.206
308.15	0.7885	1007.212	0.19
308.15	0.8662	1034.919	0.236
308.15	0.9331	1060.818	0.279
308.15	1	1089.081	0.322
313.15	0	810.098	0.454
313.15	0.1423	836.375	0.415
313.15	0.2807	864.727	0.373
313.15	0.4121	894.659	0.33
313.15	0.5237	922.757	0.289
313.15	0.6158	948.078	0.252
313.15	0.7073	975.5	0.213
313.15	0.7885	1001.95	0.182
313.15	0.8662	1029.566	0.227
313.15	0.9331	1055.421	0.27
313.15	1	1083.665	0.313

System: chlorobenzene + nonan-1-ol; phases: Liquid
Fixed: Pressure, kPa = 101
Property: Viscosity, Pa*s (Liquid); method: VIBWIR:UFactor:2
Temperature, K	Mole fraction of chlorobenzene	Viscosity, Pa*s	uncertainty
298.15	0	0.009715	0.000257
298.15	0.1529	0.006576	0.000154
298.15	0.3008	0.004488	9.2e-05
298.15	0.4379	0.003135	5.7e-05
298.15	0.5505	0.002329	3.9e-05
298.15	0.6413	0.001828	2.9e-05
298.15	0.7273	0.001455	2.3e-05
298.15	0.8031	0.001192	1.9e-05
298.15	0.8744	0.000999	1.7e-05
298.15	0.937	0.000864	1.5e-05
298.15	1	0.000757	1.4e-05
303.15	0	0.007927	0.00021
303.15	0.1529	0.00556	0.00013
303.15	0.3008	0.003876	8e-05
303.15	0.4379	0.002752	5.1e-05
303.15	0.5505	0.00207	3.5e-05
303.15	0.6413	0.001646	2.7e-05
303.15	0.7273	0.001325	2.1e-05
303.15	0.8031	0.001097	1.8e-05
303.15	0.8744	0.000924	1.6e-05
303.15	0.937	0.000802	1.5e-05
303.15	1	0.000714	1.4e-05
308.15	0	0.006664	0.000177
308.15	0.1529	0.004745	0.000112
308.15	0.3008	0.003365	7e-05
308.15	0.4379	0.002433	4.5e-05
308.15	0.5505	0.001858	3.2e-05
308.15	0.6413	0.001493	2.5e-05
308.15	0.7273	0.001205	2e-05
308.15	0.8031	0.001014	1.7e-05
308.15	0.8744	0.000869	1.6e-05
308.15	0.937	0.000764	1.5e-05
308.15	1	0.000677	1.4e-05
313.15	0	0.005645	0.00015
313.15	0.1529	0.004074	9.6e-05
313.15	0.3008	0.002935	6.2e-05
313.15	0.4379	0.002152	4.1e-05
313.15	0.5505	0.001658	2.9e-05
313.15	0.6413	0.001346	2.3e-05
313.15	0.7273	0.001094	1.9e-05
313.15	0.8031	0.000919	1.6e-05
313.15	0.8744	0.000775	1.5e-05
313.15	0.937	0.000676	1.4e-05
313.15	1	0.000617	1.3e-05

System: chlorobenzene + nonan-1-ol; phases: Liquid
Fixed: Pressure, kPa = 101
Property: Speed of sound, m/s (Liquid); method: PULSEH:UFactor:2
Temperature, K	Mole fraction of chlorobenzene	Speed of sound, m/s	uncertainty
298.15	0	1365.48	5.18
298.15	0.1529	1350.52	4.52
298.15	0.3008	1333.3	3.89
298.15	0.4379	1316.18	3.31
298.15	0.5505	1302.22	2.85
298.15	0.6413	1291.12	2.49
298.15	0.7273	1281.16	2.16
298.15	0.8031	1273.96	1.9
298.15	0.8744	1268.98	1.68
298.15	0.937	1267.06	1.51
298.15	1	1267.96	1.39
303.15	0	1353.6	5.18
303.15	0.1529	1332.63	4.52
303.15	0.3008	1315.77	3.88
303.15	0.4379	1299.52	3.3
303.15	0.5505	1286.02	2.84
303.15	0.6413	1275.1	2.48
303.15	0.7273	1265.39	2.16
303.15	0.8031	1257.72	1.89
303.15	0.8744	1252	1.67
303.15	0.937	1249.06	1.5
303.15	1	1249.41	1.37
308.15	0	1331.78	5.18
308.15	0.1529	1315.54	4.51
308.15	0.3008	1298.5	3.88
308.15	0.4379	1281.73	3.3
308.15	0.5505	1267.66	2.84
308.15	0.6413	1256.35	2.47
308.15	0.7273	1246.29	2.15
308.15	0.8031	1238.45	1.88
308.15	0.8744	1232.97	1.66
308.15	0.937	1231.47	1.49
308.15	1	1230.87	1.36
313.15	0	1315	5.17
313.15	0.1529	1299.38	4.51
313.15	0.3008	1282.02	3.87
313.15	0.4379	1264.94	3.29
313.15	0.5505	1250.99	2.83
313.15	0.6413	1239.81	2.47
313.15	0.7273	1229.77	2.14
313.15	0.8031	1221.83	1.87
313.15	0.8744	1215.64	1.64
313.15	0.937	1213.28	1.48
313.15	1	1212.63	1.35

System: chlorobenzene + nonan-1-ol; phases: Liquid
Fixed: Pressure, kPa = 101
Property: Mass density, kg/m3 (Liquid); method: VIBTUB:UFactor:4
Temperature, K	Mole fraction of chlorobenzene	Mass density, kg/m3	uncertainty
298.15	0	824.478	4.045
298.15	0.1529	850.648	3.203
298.15	0.3008	879.504	2.458
298.15	0.4379	910.112	1.83
298.15	0.5505	938.617	1.363
298.15	0.6413	964.273	1.021
298.15	0.7273	991.186	0.727
298.15	0.8031	1017.422	0.549
298.15	0.8744	1044.709	0.442
298.15	0.937	1071.143	0.378
298.15	1	1100.675	0.341
303.15	0	821.044	4.02
303.15	0.1529	846.995	3.185
303.15	0.3008	875.625	2.445
303.15	0.4379	906.014	1.823
303.15	0.5505	934.309	1.359
303.15	0.6413	959.757	1.02
303.15	0.7273	986.433	0.729
303.15	0.8031	1012.442	0.538
303.15	0.8744	1039.485	0.431
303.15	0.937	1065.724	0.368
303.15	1	1095.104	0.332
308.15	0	817.582	3.995
308.15	0.1529	843.265	3.166
308.15	0.3008	871.65	2.432
308.15	0.4379	901.759	1.815
308.15	0.5505	929.764	1.356
308.15	0.6413	954.969	1.019
308.15	0.7273	981.393	0.73
308.15	0.8031	1007.142	0.525
308.15	0.8744	1033.954	0.42
308.15	0.937	1059.964	0.358
308.15	1	1089.081	0.322
313.15	0	814.098	3.97
313.15	0.1529	839.584	3.147
313.15	0.3008	867.761	2.419
313.15	0.4379	897.663	1.807
313.15	0.5505	925.493	1.352
313.15	0.6413	950.508	1.018
313.15	0.7273	976.738	0.732
313.15	0.8031	1002.28	0.514
313.15	0.8744	1028.877	0.41
313.15	0.937	1054.697	0.348
313.15	1	1083.665	0.313

System: chlorobenzene + decan-1-ol; phases: Liquid
Fixed: Pressure, kPa = 101
Property: Viscosity, Pa*s (Liquid); method: VIBWIR:UFactor:2
Temperature, K	Mole fraction of chlorobenzene	Viscosity, Pa*s	uncertainty
298.15	0	0.011825	0.000104
298.15	0.1664	0.007762	7.1e-05
298.15	0.322	0.005123	4.9e-05
298.15	0.4609	0.003484	3.6e-05
298.15	0.5731	0.002539	2.8e-05
298.15	0.6619	0.001967	2.4e-05
298.15	0.7456	0.001517	2e-05
298.15	0.8174	0.001243	1.8e-05
298.15	0.8857	0.001017	1.6e-05
298.15	0.9426	0.000865	1.5e-05
298.15	1	0.000757	1.4e-05
303.15	0	0.009754	8.7e-05
303.15	0.1664	0.006542	6.1e-05
303.15	0.322	0.004407	4.3e-05
303.15	0.4609	0.003058	3.2e-05
303.15	0.5731	0.002262	2.6e-05
303.15	0.6619	0.001771	2.2e-05
303.15	0.7456	0.001388	1.9e-05
303.15	0.8174	0.001147	1.7e-05
303.15	0.8857	0.000949	1.6e-05
303.15	0.9426	0.000808	1.5e-05
303.15	1	0.000714	1.4e-05
308.15	0	0.008135	7.4e-05
308.15	0.1664	0.005554	5.3e-05
308.15	0.322	0.003814	3.9e-05
308.15	0.4609	0.002695	2.9e-05
308.15	0.5731	0.002021	2.4e-05
308.15	0.6619	0.001597	2.1e-05
308.15	0.7456	0.001273	1.8e-05
308.15	0.8174	0.001045	1.6e-05
308.15	0.8857	0.000868	1.5e-05
308.15	0.9426	0.000756	1.4e-05
308.15	1	0.000677	1.4e-05
313.15	0	0.006842	6.3e-05
313.15	0.1664	0.004751	4.6e-05
313.15	0.322	0.003323	3.5e-05
313.15	0.4609	0.002388	2.7e-05
313.15	0.5731	0.001816	2.2e-05
313.15	0.6619	0.001454	1.9e-05
313.15	0.7456	0.001156	1.7e-05
313.15	0.8174	0.000968	1.6e-05
313.15	0.8857	0.000809	1.5e-05
313.15	0.9426	0.000702	1.4e-05
313.15	1	0.000617	1.3e-05

System: chlorobenzene + decan-1-ol; phases: Liquid
Fixed: Pressure, kPa = 101
Property: Speed of sound, m/s (Liquid); method: PULSEH:UFactor:2
Temperature, K	Mole fraction of chlorobenzene	Speed of sound, m/s	uncertainty
298.15	0	1380.01	1.47
298.15	0.1664	1362.6	1.46
298.15	0.322	1344.36	1.44
298.15	0.4609	1326.97	1.43
298.15	0.5731	1311.74	1.42
298.15	0.6619	1299.54	1.41
298.15	0.7456	1288.54	1.4
298.15	0.8174	1280.1	1.4
298.15	0.8857	1273.34	1.39
298.15	0.9426	1269.48	1.39
298.15	1	1267.96	1.39
303.15	0	1364.99	1.46
303.15	0.1664	1343.91	1.44
303.15	0.322	1325.02	1.43
303.15	0.4609	1307.21	1.42
303.15	0.5731	1292.44	1.41
303.15	0.6619	1280.9	1.4
303.15	0.7456	1270.53	1.39
303.15	0.8174	1262.6	1.38
303.15	0.8857	1256.08	1.38
303.15	0.9426	1252.2	1.38
303.15	1	1249.41	1.37
308.15	0	1346.1	1.44
308.15	0.1664	1326	1.43
308.15	0.322	1306.37	1.42
308.15	0.4609	1288.07	1.4
308.15	0.5731	1272.93	1.39
308.15	0.6619	1260.79	1.38
308.15	0.7456	1249.54	1.37
308.15	0.8174	1240.84	1.37
308.15	0.8857	1234.63	1.36
308.15	0.9426	1231.03	1.36
308.15	1	1230.87	1.36
313.15	0	1329.31	1.43
313.15	0.1664	1308.57	1.42
313.15	0.322	1288.14	1.4
313.15	0.4609	1269.12	1.39
313.15	0.5731	1253.35	1.38
313.15	0.6619	1241.08	1.37
313.15	0.7456	1230.12	1.36
313.15	0.8174	1222.07	1.35
313.15	0.8857	1216.52	1.35
313.15	0.9426	1213.4	1.35
313.15	1	1212.63	1.35

System: chlorobenzene + decan-1-ol; phases: Liquid
Fixed: Pressure, kPa = 101
Property: Mass density, kg/m3 (Liquid); method: VIBTUB:UFactor:4
Temperature, K	Mole fraction of chlorobenzene	Mass density, kg/m3	uncertainty
298.15	0	826.762	0.429
298.15	0.1664	852.913	0.391
298.15	0.322	881.587	0.349
298.15	0.4609	911.692	0.305
298.15	0.5731	939.879	0.264
298.15	0.6619	965.236	0.228
298.15	0.7456	992.108	0.19
298.15	0.8174	1017.953	0.209
298.15	0.8857	1045.673	0.255
298.15	0.9426	1071.478	0.299
298.15	1	1100.675	0.341
303.15	0	822.853	0.434
303.15	0.1664	848.821	0.397
303.15	0.322	877.329	0.355
303.15	0.4609	907.247	0.311
303.15	0.5731	935.236	0.271
303.15	0.6619	960.447	0.235
303.15	0.7456	987.138	0.197
303.15	0.8174	1012.826	0.201
303.15	0.8857	1040.317	0.246
303.15	0.9426	1065.894	0.289
303.15	1	1095.104	0.332
308.15	0	819.427	0.44
308.15	0.1664	845.166	0.402
308.15	0.322	873.388	0.36
308.15	0.4609	903.044	0.317
308.15	0.5731	930.8	0.277
308.15	0.6619	955.749	0.241
308.15	0.7456	982.146	0.204
308.15	0.8174	1007.558	0.192
308.15	0.8857	1034.748	0.237
308.15	0.9426	1060.077	0.28
308.15	1	1089.081	0.322
313.15	0	815.983	0.445
313.15	0.1664	841.509	0.407
313.15	0.322	869.536	0.366
313.15	0.4609	898.972	0.323
313.15	0.5731	926.509	0.283
313.15	0.6619	951.271	0.247
313.15	0.7456	977.488	0.21
313.15	0.8174	1002.683	0.183
313.15	0.8857	1029.639	0.228
313.15	0.9426	1054.838	0.271
313.15	1	1083.665	0.313
