Measured thermophysical data. Densities of Univalent Cation Sulfates in Ethanol + Water Solutions
Source: J. Chem. Eng. Data, 2007, 10.1021/je060335h
Compound 1: sodium sulfate, Na2O4S, InChI=1S/2Na.H2O4S/c;;1-5(2,3)4/h;;(H2,1,2,3,4)/q2*+1;/p-2, purity 99%
Compound 2: ethanol, C2H6O, InChI=1S/C2H6O/c1-2-3/h3H,2H2,1H3
Compound 3: water, H2O, InChI=1S/H2O/h1H2
Compound 4: potassium sulfate, K2O4S, InChI=1S/2K.H2O4S/c;;1-5(2,3)4/h;;(H2,1,2,3,4)/q2*+1;/p-2, purity 99%
Compound 5: ammonium sulfate, H8N2O4S, InChI=1S/2H3N.H2O4S/c;;1-5(2,3)4/h2*1H3;(H2,1,2,3,4), purity 99.5%

System: ethanol + water; phases: Liquid
Fixed: Pressure, kPa = 101
Property: Mass density, kg/m3 (Liquid); method: VIBTUB:UFactor:4
Temperature, K	Mole fraction of ethanol	Mass density, kg/m3	uncertainty
283.15	0	999.7	0.23
283.15	0.01059	994.82	0.23
283.15	0.02062	990.75	0.24
283.15	0.03009	987.45	0.24
283.15	0.04	984.42	0.24
283.15	0.0513	981.3	0.24
283.15	0.06295	978.39	0.25
283.15	0.07372	975.9	0.25
283.15	0.0903	972.21	0.25
283.15	0.09876	970.36	0.25
283.15	0.11184	967.43	0.26
283.15	0.12741	963.79	0.26
283.15	0.14118	960.35	0.27
283.15	0.15456	956.87	0.27
283.15	0.17124	952.38	0.28
283.15	0.18828	947.66	0.28
283.15	0.20269	943.56	0.29
283.15	0.22455	937.39	0.29
283.15	0.24131	932.58	0.3
283.15	0.2602	927.36	0.31
283.15	0.28096	921.7	0.31
283.15	0.30082	916.48	0.32
283.15	0.32138	911.12	0.33
283.15	0.34218	905.93	0.33
283.15	0.37077	899.06	0.34
283.15	0.38984	894.64	0.35
283.15	0.4225	887.34	0.36
283.15	0.44193	883.22	0.36
283.15	0.47749	875.94	0.37
283.15	0.49976	871.65	0.38
283.15	0.54464	863.32	0.39
283.15	0.56305	860.06	0.39
283.15	0.61337	851.45	0.4
283.15	0.63851	847.44	0.4
283.15	0.68895	839.59	0.41
283.15	0.71817	835.36	0.42
283.15	0.7797	826.69	0.43
283.15	0.82518	820.4	0.44
283.15	0.87398	813.94	0.45
283.15	0.93885	805.69	0.46
283.15	1	797.93	0.47
288.15	0	999.1	0.23
288.15	0.01059	994.16	0.23
288.15	0.02062	990.1	0.24
288.15	0.03009	986.69	0.24
288.15	0.04	983.51	0.24
288.15	0.0513	980.2	0.25
288.15	0.06295	977.08	0.25
288.15	0.07372	974.36	0.25
288.15	0.0903	970.32	0.25
288.15	0.09876	968.26	0.26
288.15	0.11184	965.05	0.26
288.15	0.12741	961.09	0.26
288.15	0.14118	957.42	0.27
288.15	0.15456	953.75	0.27
288.15	0.17124	949.03	0.28
288.15	0.18828	944.18	0.28
288.15	0.20269	939.92	0.29
288.15	0.22455	933.59	0.3
288.15	0.24131	928.78	0.3
288.15	0.2602	923.46	0.31
288.15	0.28096	917.78	0.32
288.15	0.30082	912.42	0.32
288.15	0.32138	907.08	0.33
288.15	0.34218	901.83	0.34
288.15	0.37077	894.93	0.35
288.15	0.38984	890.41	0.35
288.15	0.4225	883.12	0.36
288.15	0.44193	879.04	0.37
288.15	0.47749	871.68	0.38
288.15	0.49976	867.4	0.38
288.15	0.54464	859.02	0.39
288.15	0.56305	855.68	0.39
288.15	0.61337	847.1	0.4
288.15	0.63851	843.05	0.41
288.15	0.68895	835.22	0.42
288.15	0.71817	830.94	0.42
288.15	0.7797	822.24	0.44
288.15	0.82518	815.98	0.44
288.15	0.87398	809.54	0.45
288.15	0.93885	801.31	0.47
288.15	1	793.64	0.48
293.15	0	998.2	0.23
293.15	0.01059	993.29	0.23
293.15	0.02062	989.19	0.24
293.15	0.03009	985.7	0.24
293.15	0.04	982.4	0.24
293.15	0.0513	978.92	0.25
293.15	0.06295	975.59	0.25
293.15	0.07372	972.67	0.25
293.15	0.0903	968.29	0.26
293.15	0.09876	966.06	0.26
293.15	0.11184	962.58	0.26
293.15	0.12741	958.36	0.27
293.15	0.14118	954.46	0.27
293.15	0.15456	950.63	0.28
293.15	0.17124	945.74	0.28
293.15	0.18828	940.71	0.29
293.15	0.20269	936.37	0.29
293.15	0.22455	929.93	0.3
293.15	0.24131	925.03	0.31
293.15	0.2602	919.65	0.31
293.15	0.28096	913.9	0.32
293.15	0.30082	908.52	0.33
293.15	0.32138	903.14	0.34
293.15	0.34218	897.88	0.34
293.15	0.37077	890.89	0.35
293.15	0.38984	886.45	0.36
293.15	0.4225	879.04	0.37
293.15	0.44193	874.93	0.37
293.15	0.47749	867.54	0.38
293.15	0.49976	863.22	0.39
293.15	0.54464	854.84	0.4
293.15	0.56305	851.52	0.4
293.15	0.61337	842.88	0.41
293.15	0.63851	838.78	0.41
293.15	0.68895	830.97	0.42
293.15	0.71817	826.69	0.43
293.15	0.7797	818.01	0.44
293.15	0.82518	811.73	0.45
293.15	0.87398	805.3	0.46
293.15	0.93885	797.05	0.47
293.15	1	789.33	0.49
298.15	0	997.04	0.23
298.15	0.01059	992.13	0.24
298.15	0.02062	987.96	0.24
298.15	0.03009	984.4	0.24
298.15	0.04	981.01	0.24
298.15	0.0513	977.36	0.25
298.15	0.06295	973.84	0.25
298.15	0.07372	970.72	0.25
298.15	0.0903	966.02	0.26
298.15	0.09876	963.64	0.26
298.15	0.11184	959.93	0.27
298.15	0.12741	955.44	0.27
298.15	0.14118	951.35	0.28
298.15	0.15456	947.34	0.28
298.15	0.17124	942.26	0.29
298.15	0.18828	937.13	0.29
298.15	0.20269	932.69	0.3
298.15	0.22455	926.16	0.31
298.15	0.24131	921.17	0.31
298.15	0.2602	915.75	0.32
298.15	0.28096	909.9	0.33
298.15	0.30082	904.53	0.33
298.15	0.32138	899.05	0.34
298.15	0.34218	893.76	0.35
298.15	0.37077	886.75	0.36
298.15	0.38984	882.24	0.36
298.15	0.4225	874.82	0.37
298.15	0.44193	870.68	0.38
298.15	0.47749	863.28	0.39
298.15	0.49976	858.98	0.39
298.15	0.54464	850.55	0.4
298.15	0.56305	847.23	0.4
298.15	0.61337	838.56	0.41
298.15	0.63851	834.45	0.42
298.15	0.68895	826.63	0.43
298.15	0.71817	822.35	0.43
298.15	0.7797	813.64	0.45
298.15	0.82518	807.39	0.46
298.15	0.87398	800.98	0.47
298.15	0.93885	792.82	0.48
298.15	1	785.22	0.49

System: water + sodium sulfate; phases: Liquid
Fixed: Pressure, kPa = 101
Property: Mass density, kg/m3 (Liquid); method: VIBTUB:UFactor:6
Temperature, K	Molality, mol/kg of sodium sulfate	Mass density, kg/m3	uncertainty
283.15	0.1002	1012.81	0.31
283.15	0.2329	1029.63	0.33
283.15	0.47	1058.3	0.38
283.15	0.6914	1084.01	0.42
288.15	0.1002	1012.05	0.31
288.15	0.2329	1028.62	0.33
288.15	0.47	1057.02	0.37
288.15	0.6914	1082.48	0.42
288.15	0.9264	1108.56	0.47
293.15	0.1002	1011.04	0.3
293.15	0.2329	1027.37	0.33
293.15	0.47	1055.51	0.37
293.15	0.6914	1080.75	0.41
293.15	0.9264	1106.62	0.46
293.15	1.1554	1130.86	0.51
298.15	0.1002	1009.75	0.3
298.15	0.2329	1025.93	0.32
298.15	0.47	1053.83	0.37
298.15	0.6914	1078.9	0.41
298.15	0.9264	1104.52	0.46
298.15	1.1554	1128.71	0.5
298.15	1.4004	1153.69	0.56
298.15	1.6147	1174.82	0.61
298.15	1.8476	1197.1	0.67

System: water + ammonium sulfate; phases: Liquid
Fixed: Pressure, kPa = 101
Property: Mass density, kg/m3 (Liquid); method: VIBTUB:UFactor:4
Temperature, K	Molality, mol/kg of ammonium sulfate	Mass density, kg/m3	uncertainty
283.15	0.3027	1023.03	0.26
283.15	0.6334	1045.95	0.28
283.15	1.2913	1086.01	0.32
283.15	1.9176	1118.86	0.35
283.15	2.6017	1150	0.39
283.15	3.229	1174.83	0.42
283.15	3.8967	1198.13	0.45
283.15	4.5345	1217.84	0.48
283.15	5.1716	1235.25	0.51
288.15	0.3027	1022.14	0.26
288.15	0.6334	1044.87	0.27
288.15	1.2913	1084.61	0.31
288.15	1.9176	1117.26	0.35
288.15	2.6017	1148.26	0.39
288.15	3.229	1173.04	0.42
288.15	3.8967	1196.29	0.45
288.15	4.5345	1215.96	0.48
288.15	5.1716	1233.44	0.5
293.15	0.3027	1021.04	0.26
293.15	0.6334	1043.51	0.27
293.15	1.2913	1083.03	0.31
293.15	1.9176	1115.56	0.35
293.15	2.6017	1146.37	0.39
293.15	3.229	1171.11	0.42
293.15	3.8967	1194.34	0.45
293.15	4.5345	1213.98	0.47
293.15	5.1716	1231.52	0.5
298.15	0.3027	1019.68	0.25
298.15	0.6334	1042	0.27
298.15	1.2913	1081.31	0.31
298.15	1.9176	1113.7	0.35
298.15	2.6017	1144.48	0.38
298.15	3.229	1169.22	0.41
298.15	3.8967	1192.44	0.44
298.15	4.5345	1212.12	0.47
298.15	5.1716	1229.67	0.5
298.15	5.8906	1247.4	0.53

System: water + potassium sulfate; phases: Liquid
Fixed: Pressure, kPa = 101
Property: Mass density, kg/m3 (Liquid); method: VIBTUB:UFactor:6
Temperature, K	Molality, mol/kg of potassium sulfate	Mass density, kg/m3	uncertainty
283.15	0.0427	1005.83	0.3
283.15	0.0943	1013.04	0.31
283.15	0.174	1023.99	0.33
283.15	0.2657	1036.31	0.35
283.15	0.3482	1047.12	0.36
283.15	0.4416	1059.19	0.38
283.15	0.5235	1069.52	0.4
288.15	0.0427	1005.16	0.3
288.15	0.0943	1012.31	0.31
288.15	0.174	1023.14	0.33
288.15	0.2657	1035.36	0.34
288.15	0.3482	1046.08	0.36
288.15	0.4416	1058.06	0.38
288.15	0.5235	1068.33	0.4
288.15	0.6093	1078.91	0.41
293.15	0.0427	1004.23	0.3
293.15	0.0943	1011.29	0.31
293.15	0.174	1022.03	0.32
293.15	0.2657	1034.13	0.34
293.15	0.3482	1044.77	0.36
293.15	0.4416	1056.66	0.38
293.15	0.5235	1066.88	0.39
293.15	0.6093	1077.38	0.41
298.15	0.0427	1003	0.3
298.15	0.0943	1010.02	0.31
298.15	0.174	1020.65	0.32
298.15	0.2657	1032.69	0.34
298.15	0.3482	1043.27	0.35
298.15	0.4416	1055.07	0.37
298.15	0.5235	1065.2	0.39
298.15	0.6093	1075.68	0.41
298.15	0.711	1087.9	0.43

System: ethanol + water + ammonium sulfate; phases: Liquid
Fixed: Pressure, kPa = 101
Property: Mass density, kg/m3 (Liquid); method: VIBTUB:UFactor:6
Temperature, K	Solvent: Mass fraction of ethanol	Molality, mol/kg of ammonium sulfate	Mass density, kg/m3	uncertainty
283.15	0.0246	3.1918	1168.43	0.61
283.15	0.02672	4.4512	1210.29	0.71
283.15	0.02712	3.7967	1189.47	0.66
283.15	0.02724	1.2789	1079.88	0.42
283.15	0.02733	0.6345	1040.74	0.35
283.15	0.02869	2.5697	1142.71	0.55
283.15	0.02978	1.9048	1112.33	0.48
283.15	0.03125	5.0531	1226.43	0.75
283.15	0.05104	3.296	1167.44	0.61
283.15	0.05322	3.9449	1189.66	0.66
283.15	0.05404	2.6303	1140.56	0.55
283.15	0.05407	0.6542	1037.35	0.34
283.15	0.05445	1.9977	1112.06	0.48
283.15	0.05716	4.5892	1208.93	0.71
283.15	0.05851	1.3077	1075.77	0.41
283.15	0.07699	1.156	1064.15	0.39
283.15	0.07731	0.5779	1028.65	0.33
283.15	0.07828	1.7269	1094.58	0.45
283.15	0.07995	2.3068	1121.72	0.5
283.15	0.08045	2.8672	1145.46	0.56
283.15	0.08079	3.9689	1185.45	0.65
283.15	0.08285	3.4279	1166.41	0.61
283.15	0.10291	1.1936	1062.08	0.39
283.15	0.1031	1.7823	1093.17	0.44
283.15	0.10431	0.5885	1025.34	0.32
283.15	0.10712	2.38	1120.36	0.5
283.15	0.10762	3.5509	1166.2	0.61
283.15	0.10811	2.9591	1144.1	0.55
283.15	0.1294	0.7214	1030.24	0.33
283.15	0.12965	1.4508	1071.87	0.4
283.15	0.13296	2.167	1106.28	0.47
283.15	0.1344	2.6738	1127.87	0.52
283.15	0.15317	1.7968	1085.53	0.43
283.15	0.15356	1.3535	1062.98	0.39
283.15	0.15595	2.244	1105.69	0.47
283.15	0.1563	2.6905	1124.41	0.51
283.15	0.15728	0.8987	1037.03	0.34
283.15	0.15946	0.4472	1008.68	0.3
283.15	0.17997	2.1993	1099.21	0.46
283.15	0.18018	0.7306	1023.78	0.32
283.15	0.18156	1.4655	1064.36	0.39
283.15	0.20472	0.4422	1002.45	0.29
283.15	0.20523	1.315	1052.69	0.37
283.15	0.20585	1.7562	1074.39	0.41
283.15	0.20649	0.8895	1029.28	0.33
283.15	0.20674	2.1961	1093.96	0.45
283.15	0.22991	1.2698	1046.08	0.36
283.15	0.23105	0.6074	1008.94	0.3
283.15	0.23161	1.7958	1071.21	0.4
283.15	0.25171	0.6956	1011.05	0.3
283.15	0.25219	1.7189	1063.51	0.39
283.15	0.25438	1.3797	1047.1	0.36
283.15	0.25487	0.347	989.41	0.3
283.15	0.25489	1.0404	1029.64	0.33
283.15	0.27688	1.3172	1039.61	0.35
283.15	0.2773	0.4368	991.54	0.29
283.15	0.28127	0.8738	1015.92	0.31
283.15	0.30069	0.6535	1000.13	0.28
283.15	0.30079	0.33	981.14	0.31
283.15	0.30229	0.9691	1016.96	0.31
283.15	0.3027	1.2865	1032.71	0.33
283.15	0.32729	0.3957	980.38	0.31
283.15	0.33052	0.8013	1002.49	0.29
283.15	0.3525	0.6309	988.84	0.3
283.15	0.35276	0.8466	1000.22	0.28
283.15	0.35411	0.2149	964.54	0.34
283.15	0.35842	0.4184	975.76	0.32
283.15	0.3742	0.3988	971.5	0.33
283.15	0.37529	0.5851	981.71	0.31
283.15	0.37575	0.2878	964.71	0.34
283.15	0.39756	0.1576	952.7	0.36
283.15	0.40058	0.325	961.94	0.34
283.15	0.40202	0.4934	971.01	0.33
283.15	0.42485	0.3693	959.39	0.35
283.15	0.42911	0.1826	947.62	0.37
283.15	0.44962	0.2973	949.85	0.36
283.15	0.44971	0.0982	938.37	0.38
283.15	0.45212	0.2002	943.82	0.37
288.15	0.0246	3.1918	1166.73	0.61
288.15	0.02672	4.4512	1208.54	0.71
288.15	0.02712	3.7967	1187.73	0.66
288.15	0.02724	1.2789	1078.48	0.42
288.15	0.02733	0.6345	1039.66	0.35
288.15	0.02869	2.5697	1141.06	0.55
288.15	0.02978	1.9048	1110.78	0.48
288.15	0.03125	5.0531	1224.7	0.75
288.15	0.05104	3.296	1165.67	0.61
288.15	0.05322	3.9449	1187.86	0.66
288.15	0.05404	2.6303	1138.87	0.54
288.15	0.05407	0.6542	1036.13	0.34
288.15	0.05445	1.9977	1110.47	0.48
288.15	0.05716	4.5892	1207.17	0.71
288.15	0.05851	1.3077	1074.31	0.41
288.15	0.07699	1.156	1062.71	0.39
288.15	0.07731	0.5779	1027.43	0.33
288.15	0.07828	1.7269	1092.94	0.44
288.15	0.07995	2.3068	1120.03	0.5
288.15	0.08045	2.8672	1143.62	0.55
288.15	0.08079	3.9689	1183.54	0.65
288.15	0.08285	3.4279	1164.58	0.6
288.15	0.10291	1.1936	1060.51	0.38
288.15	0.1031	1.7823	1091.52	0.44
288.15	0.10431	0.5885	1024	0.32
288.15	0.10712	2.38	1118.53	0.49
288.15	0.10762	3.5509	1164.35	0.6
288.15	0.10811	2.9591	1142.27	0.55
288.15	0.1294	0.7214	1028.76	0.33
288.15	0.12965	1.4508	1070.21	0.4
288.15	0.13296	2.167	1104.54	0.47
288.15	0.1344	2.6738	1126.06	0.51
288.15	0.15317	1.7968	1083.68	0.43
288.15	0.15356	1.3535	1061.2	0.38
288.15	0.15595	2.244	1103.78	0.46
288.15	0.1563	2.6905	1122.47	0.5
288.15	0.15728	0.8987	1035.31	0.34
288.15	0.15946	0.4472	1007.07	0.29
288.15	0.17997	2.1993	1097.21	0.45
288.15	0.18018	0.7306	1021.91	0.32
288.15	0.18156	1.4655	1062.36	0.39
288.15	0.20472	0.4422	1000.41	0.28
288.15	0.20523	1.315	1050.54	0.36
288.15	0.20585	1.7562	1072.12	0.4
288.15	0.20649	0.8895	1027.16	0.32
288.15	0.20674	2.1961	1091.74	0.44
288.15	0.22991	1.2698	1043.72	0.35
288.15	0.23105	0.6074	1006.61	0.29
288.15	0.23161	1.7958	1068.83	0.4
288.15	0.25171	0.6956	1008.57	0.29
288.15	0.25219	1.7189	1061.06	0.38
288.15	0.25438	1.3797	1044.55	0.35
288.15	0.25487	0.347	986.89	0.3
288.15	0.25489	1.0404	1027.06	0.32
288.15	0.27688	1.3172	1036.92	0.34
288.15	0.2773	0.4368	988.81	0.3
288.15	0.28127	0.8738	1013.19	0.3
288.15	0.30069	0.6535	997.25	0.29
288.15	0.30079	0.33	978.24	0.31
288.15	0.30229	0.9691	1014.1	0.3
288.15	0.3027	1.2865	1029.89	0.33
288.15	0.32729	0.3957	977.28	0.32
288.15	0.33052	0.8013	999.45	0.28
288.15	0.3525	0.6309	985.68	0.3
288.15	0.35276	0.8466	997.07	0.29
288.15	0.35411	0.2149	961.27	0.34
288.15	0.35842	0.4184	972.5	0.32
288.15	0.3742	0.3988	968.2	0.33
288.15	0.37529	0.5851	978.43	0.31
288.15	0.37575	0.2878	961.34	0.34
288.15	0.39756	0.1576	949.2	0.36
288.15	0.40058	0.325	958.49	0.35
288.15	0.40202	0.4934	967.58	0.33
288.15	0.42485	0.3693	955.83	0.35
288.15	0.42911	0.1826	944	0.37
288.15	0.44962	0.2973	946.23	0.37
288.15	0.44971	0.0982	934.65	0.39
288.15	0.45212	0.2002	940.13	0.38
293.15	0.0246	3.1918	1164.94	0.6
293.15	0.02672	4.4512	1206.67	0.7
293.15	0.02712	3.7967	1185.95	0.65
293.15	0.02724	1.2789	1077.02	0.41
293.15	0.02733	0.6345	1038.4	0.34
293.15	0.02869	2.5697	1139.36	0.54
293.15	0.02978	1.9048	1109.08	0.48
293.15	0.03125	5.0531	1222.91	0.74
293.15	0.05104	3.296	1163.93	0.6
293.15	0.05322	3.9449	1186.11	0.65
293.15	0.05404	2.6303	1137.19	0.54
293.15	0.05407	0.6542	1034.85	0.34
293.15	0.05445	1.9977	1108.8	0.47
293.15	0.05716	4.5892	1205.41	0.7
293.15	0.05851	1.3077	1072.85	0.41
293.15	0.07699	1.156	1061.19	0.38
293.15	0.07731	0.5779	1026.09	0.32
293.15	0.07828	1.7269	1091.34	0.44
293.15	0.07995	2.3068	1118.32	0.49
293.15	0.08045	2.8672	1141.98	0.55
293.15	0.08079	3.9689	1181.79	0.64
293.15	0.08285	3.4279	1162.83	0.6
293.15	0.10291	1.1936	1058.89	0.38
293.15	0.1031	1.7823	1089.75	0.44
293.15	0.10431	0.5885	1022.51	0.32
293.15	0.10712	2.38	1116.75	0.49
293.15	0.10762	3.5509	1162.47	0.6
293.15	0.10811	2.9591	1140.44	0.55
293.15	0.1294	0.7214	1027.11	0.32
293.15	0.12965	1.4508	1068.38	0.4
293.15	0.13296	2.167	1102.59	0.46
293.15	0.1344	2.6738	1124.09	0.51
293.15	0.15317	1.7968	1081.66	0.42
293.15	0.15356	1.3535	1059.22	0.38
293.15	0.15595	2.244	1101.77	0.46
293.15	0.1563	2.6905	1120.48	0.5
293.15	0.15728	0.8987	1033.42	0.34
293.15	0.15946	0.4472	1005.27	0.29
293.15	0.17997	2.1993	1095.14	0.45
293.15	0.18018	0.7306	1019.88	0.31
293.15	0.18156	1.4655	1060.25	0.38
293.15	0.20472	0.4422	998.25	0.29
293.15	0.20523	1.315	1048.27	0.36
293.15	0.20585	1.7562	1069.86	0.4
293.15	0.20649	0.8895	1024.91	0.32
293.15	0.20674	2.1961	1089.49	0.44
293.15	0.22991	1.2698	1041.27	0.35
293.15	0.23105	0.6074	1004.2	0.29
293.15	0.23161	1.7958	1066.38	0.39
293.15	0.25171	0.6956	1005.95	0.29
293.15	0.25219	1.7189	1058.45	0.38
293.15	0.25438	1.3797	1041.94	0.35
293.15	0.25487	0.347	984.28	0.31
293.15	0.25489	1.0404	1024.44	0.32
293.15	0.27688	1.3172	1034.14	0.34
293.15	0.2773	0.4368	986.03	0.3
293.15	0.28127	0.8738	1010.4	0.3
293.15	0.30069	0.6535	994.3	0.29
293.15	0.30079	0.33	975.28	0.32
293.15	0.30229	0.9691	1011.18	0.3
293.15	0.3027	1.2865	1027	0.32
293.15	0.32729	0.3957	974.15	0.32
293.15	0.33052	0.8013	996.4	0.29
293.15	0.3525	0.6309	982.51	0.31
293.15	0.35276	0.8466	993.92	0.29
293.15	0.35411	0.2149	957.95	0.35
293.15	0.35842	0.4184	969.28	0.33
293.15	0.3742	0.3988	964.88	0.34
293.15	0.37529	0.5851	975.15	0.32
293.15	0.37575	0.2878	957.95	0.35
293.15	0.39756	0.1576	945.68	0.37
293.15	0.40058	0.325	955	0.35
293.15	0.40202	0.4934	964.14	0.34
293.15	0.42485	0.3693	952.27	0.36
293.15	0.42911	0.1826	940.4	0.38
293.15	0.44962	0.2973	942.59	0.37
293.15	0.44971	0.0982	930.96	0.4
293.15	0.45212	0.2002	936.46	0.39
298.15	0.0246	3.1918	1163.16	0.6
298.15	0.02672	4.4512	1205	0.7
298.15	0.02712	3.7967	1184.15	0.65
298.15	0.02724	1.2789	1075.35	0.41
298.15	0.02733	0.6345	1036.88	0.34
298.15	0.02869	2.5697	1137.56	0.54
298.15	0.02978	1.9048	1107.24	0.47
298.15	0.03125	5.0531	1221.19	0.74
298.15	0.05104	3.296	1162.13	0.6
298.15	0.05322	3.9449	1184.31	0.65
298.15	0.05404	2.6303	1135.41	0.53
298.15	0.05407	0.6542	1033.36	0.34
298.15	0.05445	1.9977	1107.08	0.47
298.15	0.05716	4.5892	1203.66	0.7
298.15	0.05851	1.3077	1071.13	0.4
298.15	0.07699	1.156	1059.49	0.38
298.15	0.07731	0.5779	1024.53	0.32
298.15	0.07828	1.7269	1089.58	0.44
298.15	0.07995	2.3068	1116.49	0.49
298.15	0.08045	2.8672	1140.14	0.55
298.15	0.08079	3.9689	1179.98	0.64
298.15	0.08285	3.4279	1160.95	0.59
298.15	0.10291	1.1936	1057.11	0.38
298.15	0.1031	1.7823	1087.89	0.43
298.15	0.10431	0.5885	1020.85	0.31
298.15	0.10712	2.38	1114.84	0.49
298.15	0.10762	3.5509	1160.54	0.59
298.15	0.10811	2.9591	1138.54	0.54
298.15	0.1294	0.7214	1025.28	0.32
298.15	0.12965	1.4508	1066.47	0.39
298.15	0.13296	2.167	1100.62	0.46
298.15	0.1344	2.6738	1122.1	0.5
298.15	0.15317	1.7968	1079.57	0.42
298.15	0.15356	1.3535	1057.17	0.38
298.15	0.15595	2.244	1099.61	0.46
298.15	0.1563	2.6905	1118.37	0.49
298.15	0.15728	0.8987	1031.37	0.33
298.15	0.15946	0.4472	1003.29	0.29
298.15	0.17997	2.1993	1092.88	0.44
298.15	0.18018	0.7306	1017.74	0.31
298.15	0.18156	1.4655	1058.06	0.38
298.15	0.20472	0.4422	995.94	0.29
298.15	0.20523	1.315	1045.89	0.36
298.15	0.20585	1.7562	1067.49	0.4
298.15	0.20649	0.8895	1022.55	0.32
298.15	0.20674	2.1961	1087.01	0.43
298.15	0.22991	1.2698	1038.78	0.34
298.15	0.23105	0.6074	1001.71	0.28
298.15	0.23161	1.7958	1063.84	0.39
298.15	0.25171	0.6956	1003.28	0.29
298.15	0.25219	1.7189	1055.83	0.37
298.15	0.25438	1.3797	1039.26	0.34
298.15	0.25487	0.347	981.55	0.31
298.15	0.25489	1.0404	1021.75	0.32
298.15	0.27688	1.3172	1031.32	0.33
298.15	0.2773	0.4368	983.13	0.31
298.15	0.28127	0.8738	1007.53	0.29
298.15	0.30069	0.6535	991.3	0.29
298.15	0.30079	0.33	972.19	0.32
298.15	0.30229	0.9691	1008.22	0.29
298.15	0.3027	1.2865	1024.12	0.32
298.15	0.32729	0.3957	970.94	0.33
298.15	0.33052	0.8013	993.31	0.29
298.15	0.3525	0.6309	979.24	0.31
298.15	0.35276	0.8466	990.75	0.29
298.15	0.35411	0.2149	954.6	0.35
298.15	0.35842	0.4184	965.96	0.33
298.15	0.3742	0.3988	961.5	0.34
298.15	0.37529	0.5851	971.78	0.32
298.15	0.37575	0.2878	954.48	0.35
298.15	0.39756	0.1576	942.15	0.38
298.15	0.40058	0.325	951.48	0.36
298.15	0.40202	0.4934	960.66	0.34
298.15	0.42485	0.3693	948.72	0.36
298.15	0.42911	0.1826	936.74	0.38
298.15	0.44962	0.2973	938.91	0.38
298.15	0.44971	0.0982	927.19	0.4
298.15	0.45212	0.2002	932.72	0.39

System: ethanol + water + potassium sulfate; phases: Liquid
Fixed: Pressure, kPa = 101
Property: Mass density, kg/m3 (Liquid); method: VIBTUB:UFactor:6
Temperature, K	Solvent: Mass fraction of ethanol	Molality, mol/kg of potassium sulfate	Mass density, kg/m3	uncertainty
283.15	0.02505	0.1728	1019.04	0.35
283.15	0.02551	0.3489	1042.07	0.39
283.15	0.02565	0.2663	1031.35	0.37
283.15	0.02598	0.0887	1007.44	0.33
283.15	0.03168	0.4328	1051.76	0.41
283.15	0.0494	0.2778	1028.77	0.37
283.15	0.04956	0.1396	1010.41	0.34
283.15	0.05076	0.3464	1037.38	0.38
283.15	0.05178	0.0715	1000.76	0.33
283.15	0.05183	0.2111	1019.58	0.35
283.15	0.07173	0.1936	1014.19	0.34
283.15	0.07248	0.0649	996.81	0.33
283.15	0.07285	0.1289	1005.38	0.33
283.15	0.07422	0.2611	1022.76	0.36
283.15	0.10244	0.2003	1010.74	0.34
283.15	0.1043	0.0995	997.09	0.33
283.15	0.10493	0.0516	990.55	0.34
283.15	0.10577	0.152	1003.96	0.33
283.15	0.12887	0.1515	1000.95	0.32
283.15	0.12949	0.1008	994.12	0.33
283.15	0.13046	0.0477	986.9	0.34
283.15	0.14489	0.0423	984.4	0.35
283.15	0.14714	0.079	989.13	0.34
283.15	0.14723	0.1138	993.71	0.33
283.15	0.17224	0.0795	986.28	0.34
283.15	0.17343	0.0421	981.18	0.35
283.15	0.19407	0.067	982.19	0.35
283.15	0.19875	0.0322	977.07	0.36
283.15	0.22287	0.0494	976.5	0.37
283.15	0.24572	0.0294	971.04	0.34
288.15	0.02505	0.1728	1018.19	0.35
288.15	0.02551	0.3489	1041.02	0.39
288.15	0.02565	0.2663	1030.38	0.37
288.15	0.02598	0.0887	1006.7	0.33
288.15	0.03168	0.4328	1050.64	0.41
288.15	0.0494	0.2778	1027.74	0.37
288.15	0.04956	0.1396	1009.54	0.34
288.15	0.05076	0.3464	1036.29	0.38
288.15	0.05178	0.0715	999.93	0.32
288.15	0.05183	0.2111	1018.65	0.35
288.15	0.07173	0.1936	1013.18	0.34
288.15	0.07248	0.0649	995.89	0.33
288.15	0.07285	0.1289	1004.41	0.33
288.15	0.07422	0.2611	1021.66	0.36
288.15	0.10244	0.2003	1009.55	0.34
288.15	0.1043	0.0995	996.06	0.33
288.15	0.10493	0.0516	989.5	0.34
288.15	0.10577	0.152	1002.8	0.33
288.15	0.12887	0.1515	999.62	0.32
288.15	0.12949	0.1008	992.83	0.33
288.15	0.13046	0.0477	985.67	0.34
288.15	0.14489	0.0423	983.05	0.35
288.15	0.14714	0.079	987.7	0.34
288.15	0.14723	0.1138	992.26	0.33
288.15	0.17224	0.0795	984.62	0.34
288.15	0.17296	0.1203	989.86	0.34
288.15	0.17343	0.0421	979.55	0.35
288.15	0.19407	0.067	980.29	0.35
288.15	0.19875	0.0322	975.16	0.36
288.15	0.22287	0.0494	974.3	0.36
288.15	0.24572	0.0294	968.62	0.34
293.15	0.02505	0.1728	1017.13	0.35
293.15	0.02551	0.3489	1039.79	0.39
293.15	0.02565	0.2663	1029.24	0.37
293.15	0.02598	0.0887	1005.7	0.33
293.15	0.02785	0.5226	1061.11	0.42
293.15	0.03168	0.4328	1049.33	0.4
293.15	0.0494	0.2778	1026.57	0.36
293.15	0.04956	0.1396	1008.48	0.34
293.15	0.05076	0.3464	1035.04	0.38
293.15	0.05178	0.0715	998.93	0.33
293.15	0.05183	0.2111	1017.51	0.35
293.15	0.0521	0.4263	1044.78	0.39
293.15	0.07173	0.1936	1011.99	0.34
293.15	0.07248	0.0649	994.83	0.33
293.15	0.07285	0.1289	1003.31	0.33
293.15	0.07422	0.2611	1020.41	0.35
293.15	0.08031	0.323	1027.2	0.36
293.15	0.10244	0.2003	1008.18	0.33
293.15	0.1043	0.0995	994.83	0.33
293.15	0.10493	0.0516	988.31	0.34
293.15	0.10577	0.152	1001.48	0.32
293.15	0.10757	0.2563	1014.61	0.34
293.15	0.12887	0.1515	998.15	0.32
293.15	0.12949	0.1008	991.4	0.33
293.15	0.13046	0.0477	984.27	0.34
293.15	0.13398	0.1962	1003.14	0.32
293.15	0.14489	0.0423	981.56	0.35
293.15	0.14714	0.079	986.16	0.34
293.15	0.14723	0.1138	990.69	0.33
293.15	0.14742	0.1557	996.07	0.32
293.15	0.17224	0.0795	982.84	0.35
293.15	0.17296	0.1203	988.05	0.34
293.15	0.17343	0.0421	977.81	0.35
293.15	0.19407	0.067	978.34	0.35
293.15	0.19762	0.0942	981.32	0.35
293.15	0.19875	0.0322	973.17	0.36
293.15	0.22287	0.0494	972.05	0.36
293.15	0.24572	0.0294	966.15	0.37
293.15	0.24996	0.058	969.22	0.37
298.15	0.02505	0.1728	1015.75	0.35
298.15	0.02551	0.3489	1038.26	0.38
298.15	0.02565	0.2663	1027.78	0.37
298.15	0.02598	0.0887	1004.39	0.33
298.15	0.02785	0.5226	1059.48	0.42
298.15	0.03168	0.4328	1047.67	0.4
298.15	0.0494	0.2778	1025.01	0.36
298.15	0.04956	0.1396	1007.11	0.33
298.15	0.05076	0.3464	1033.45	0.37
298.15	0.05178	0.0715	997.62	0.33
298.15	0.05183	0.2111	1016.04	0.35
298.15	0.0521	0.4263	1043.17	0.39
298.15	0.07173	0.1936	1010.48	0.34
298.15	0.07248	0.0649	993.41	0.33
298.15	0.07285	0.1289	1001.85	0.32
298.15	0.07422	0.2611	1018.81	0.35
298.15	0.08031	0.323	1025.57	0.36
298.15	0.10244	0.2003	1006.53	0.33
298.15	0.1043	0.0995	993.2	0.33
298.15	0.10493	0.0516	986.75	0.34
298.15	0.10577	0.152	999.82	0.32
298.15	0.10757	0.2563	1012.87	0.34
298.15	0.12887	0.1515	996.33	0.33
298.15	0.12949	0.1008	989.63	0.34
298.15	0.13046	0.0477	982.56	0.35
298.15	0.13398	0.1962	1001.29	0.32
298.15	0.14489	0.0423	979.73	0.35
298.15	0.14714	0.079	984.26	0.34
298.15	0.14723	0.1138	988.73	0.34
298.15	0.14742	0.1557	994.14	0.33
298.15	0.17224	0.0795	980.75	0.35
298.15	0.17296	0.1203	985.89	0.34
298.15	0.17343	0.0421	975.72	0.36
298.15	0.19407	0.067	976.01	0.36
298.15	0.19762	0.0942	979.05	0.35
298.15	0.19875	0.0322	970.85	0.36
298.15	0.22287	0.0494	969.5	0.37
298.15	0.24572	0.0294	963.37	0.38
298.15	0.24996	0.058	966.5	0.37

System: ethanol + water + sodium sulfate; phases: Liquid
Fixed: Pressure, kPa = 101
Property: Mass density, kg/m3 (Liquid); method: VIBTUB:UFactor:6
Temperature, K	Solvent: Mass fraction of ethanol	Molality, mol/kg of sodium sulfate	Mass density, kg/m3	uncertainty
288.15	0.02555	0.2493	1025.7	0.36
288.15	0.02703	0.5028	1055.47	0.41
288.15	0.02705	0.7564	1084.1	0.46
288.15	0.04767	0.4108	1041.06	0.38
288.15	0.0485	0.6149	1064.24	0.43
288.15	0.05236	0.2045	1015.62	0.34
288.15	0.05378	0.8174	1085.71	0.47
288.15	0.07508	0.4216	1037.66	0.38
288.15	0.07786	0.6329	1061.13	0.42
288.15	0.07798	0.2109	1012.36	0.34
288.15	0.10339	0.5403	1046.65	0.39
288.15	0.10359	0.3298	1022.65	0.35
288.15	0.10377	0.1646	1003.06	0.32
288.15	0.12691	0.3319	1019.54	0.35
288.15	0.12713	0.1665	1000.06	0.32
288.15	0.15049	0.2428	1005.97	0.33
288.15	0.15327	0.1224	991.37	0.33
288.15	0.17898	0.1245	988.32	0.33
288.15	0.17982	0.243	1002.02	0.32
288.15	0.20441	0.1018	982.37	0.34
288.15	0.2081	0.2033	993.6	0.32
288.15	0.22939	0.102	979.03	0.35
288.15	0.23033	0.2031	990.38	0.33
288.15	0.25375	0.0831	973.42	0.35
288.15	0.27174	0.0672	968.85	0.36
288.15	0.27647	0.1262	974.77	0.35
288.15	0.27835	0.0621	967.35	0.36
288.15	0.30093	0.0555	962.87	0.37
288.15	0.30281	0.1061	968.21	0.36
293.15	0.02555	0.2493	1024.47	0.36
293.15	0.02695	1.2438	1134.11	0.57
293.15	0.02703	0.5028	1053.97	0.41
293.15	0.02705	0.7564	1082.4	0.46
293.15	0.0283	1.0114	1109.6	0.52
293.15	0.04767	0.4108	1039.63	0.38
293.15	0.0485	0.6149	1062.64	0.42
293.15	0.05024	1.0219	1106.33	0.51
293.15	0.05236	0.2045	1014.41	0.34
293.15	0.05378	0.8174	1083.91	0.46
293.15	0.07508	0.4216	1036.14	0.37
293.15	0.07739	0.8459	1082.65	0.46
293.15	0.07786	0.6329	1059.41	0.42
293.15	0.07798	0.2109	1011.03	0.33
293.15	0.1026	0.6616	1058.4	0.41
293.15	0.10339	0.5403	1044.97	0.39
293.15	0.10359	0.3298	1021.08	0.35
293.15	0.10377	0.1646	1001.66	0.32
293.15	0.12591	0.5016	1037.06	0.38
293.15	0.12691	0.3319	1017.83	0.34
293.15	0.12713	0.1665	998.51	0.32
293.15	0.15049	0.2428	1004.14	0.32
293.15	0.15327	0.1224	989.67	0.33
293.15	0.15435	0.3672	1017.69	0.34
293.15	0.16732	0.3405	1012.73	0.34
293.15	0.17384	0.3651	1014.5	0.34
293.15	0.17898	0.1245	986.32	0.34
293.15	0.17982	0.243	999.89	0.32
293.15	0.20267	0.3049	1003.36	0.32
293.15	0.20441	0.1018	980.11	0.34
293.15	0.2081	0.2033	991.28	0.33
293.15	0.22939	0.102	976.55	0.35
293.15	0.23033	0.2031	987.83	0.33
293.15	0.25291	0.1594	979.43	0.34
293.15	0.25375	0.0831	970.75	0.36
293.15	0.27174	0.0672	966.12	0.37
293.15	0.27647	0.1262	971.84	0.36
293.15	0.27835	0.0621	964.42	0.37
293.15	0.30093	0.0555	959.77	0.38
293.15	0.30281	0.1061	965.08	0.37
298.15	0.02554	1.5062	1158.47	0.63
298.15	0.02555	0.2493	1023.05	0.35
298.15	0.02632	1.7515	1181.9	0.69
298.15	0.02695	1.2438	1132	0.57
298.15	0.02703	0.5028	1052.34	0.4
298.15	0.02705	0.7564	1080.55	0.46
298.15	0.0283	1.0114	1107.64	0.51
298.15	0.04767	0.4108	1037.96	0.38
298.15	0.0485	0.6149	1060.86	0.42
298.15	0.05024	1.0219	1104.33	0.5
298.15	0.05194	1.2239	1124.74	0.55
298.15	0.05236	0.2045	1012.93	0.34
298.15	0.05281	1.5582	1157.67	0.63
298.15	0.05378	0.8174	1082.04	0.46
298.15	0.07508	0.4216	1034.43	0.37
298.15	0.07649	1.3006	1127.46	0.56
298.15	0.07739	0.8459	1080.63	0.46
298.15	0.07786	0.6329	1057.55	0.41
298.15	0.07798	0.2109	1009.5	0.33
298.15	0.08006	1.053	1101.75	0.5
298.15	0.1026	0.6616	1056.38	0.41
298.15	0.10322	0.8258	1073.79	0.44
298.15	0.10326	1.0632	1098.3	0.49
298.15	0.10339	0.5403	1043.02	0.39
298.15	0.10359	0.3298	1019.3	0.35
298.15	0.10377	0.1646	1000	0.32
298.15	0.12519	0.8711	1074.6	0.44
298.15	0.12591	0.5016	1035.02	0.37
298.15	0.12691	0.3319	1015.84	0.34
298.15	0.12713	0.1665	996.6	0.32
298.15	0.12905	0.6626	1051.97	0.4
298.15	0.15049	0.2428	1002.09	0.32
298.15	0.1508	0.7002	1052.14	0.4
298.15	0.15209	0.5157	1032.2	0.37
298.15	0.15327	0.1224	987.71	0.33
298.15	0.15435	0.3672	1015.51	0.34
298.15	0.16732	0.3405	1010.5	0.33
298.15	0.17384	0.3651	1012.24	0.33
298.15	0.17898	0.1245	984.17	0.34
298.15	0.17982	0.243	997.6	0.32
298.15	0.18029	0.4872	1024.29	0.35
298.15	0.20007	0.5049	1022.8	0.35
298.15	0.20267	0.3049	1000.84	0.31
298.15	0.20345	0.4008	1011.13	0.33
298.15	0.20441	0.1018	977.77	0.35
298.15	0.2081	0.2033	988.75	0.33
298.15	0.2272	0.3002	996.2	0.32
298.15	0.22939	0.102	973.97	0.35
298.15	0.23033	0.2031	985.13	0.34
298.15	0.24891	0.3163	994.23	0.32
298.15	0.25291	0.1594	976.56	0.35
298.15	0.25349	0.2321	984.32	0.34
298.15	0.25375	0.0831	967.9	0.36
298.15	0.27174	0.0672	963.17	0.37
298.15	0.27647	0.1262	968.8	0.36
298.15	0.27835	0.0621	961.4	0.37
298.15	0.27934	0.1923	975.45	0.35
298.15	0.29802	0.2236	975.26	0.35
298.15	0.30093	0.0555	956.59	0.38
298.15	0.30281	0.1061	961.86	0.37
298.15	0.30316	0.1587	967.43	0.36
