Measured thermophysical data. Solubility of Carbon Dioxide in Aqueous Solutions of Piperazine in the Low Gas Loading Region
Source: J. Chem. Eng. Data, 2006, 10.1021/je0601917
Compound 1: piperazine, C4H10N2, InChI=1S/C4H10N2/c1-2-6-4-3-5-1/h5-6H,1-4H2, purity 99%
Compound 2: carbon dioxide, CO2, InChI=1S/CO2/c2-1-3, purity 99.995%
Compound 3: water, H2O, InChI=1S/H2O/h1H2, purity 99%

System: piperazine + carbon dioxide + water; phases: Liquid, Gas
Property: Molality, mol/kg of carbon dioxide (Liquid); method: headspace gas chromatograph
Temperature, K	Molality, mol/kg of piperazine	Pressure, kPa of carbon dioxide	Molality, mol/kg of carbon dioxide	uncertainty
313.1	0.989	1.67	0.7324	0.0029
313.1	0.989	3.3	0.7902	0.0024
313.1	0.989	6.55	0.8481	0.0033
313.1	0.989	12.62	0.889	0.003
313.1	0.989	17.5	0.911	0.004
313.1	1.167	0.57	0.7424	0.0069
313.1	1.167	0.85	0.785	0.0045
313.1	1.167	1.49	0.8414	0.004
313.1	1.167	30.09	1.103	0.007
313.1	1.167	30.17	1.105	0.007
313.1	2.044	20.41	1.801	0.009
313.1	2.044	24.22	1.87	0.009
313.1	2.044	48.42	1.932	0.014
313.1	2.091	1.14	1.4551	0.0064
313.1	2.091	3.6	1.6426	0.007
313.1	2.091	20.56	1.887	0.009
313.1	2.75	0.115	1.3198	0.0058
313.1	2.75	0.72	1.7929	0.0077
313.1	2.75	8.67	2.301	0.009
353.15	1.969	25.62	1.425	0.008
353.15	1.969	28.42	1.45	0.008
353.15	1.969	37.95	1.504	0.01
353.15	2.156	5.6	1.1696	0.0054
353.15	2.156	10.82	1.347	0.006
353.15	2.156	18.36	1.466	0.007
353.15	2.281	0.111	0.3063	0.0035
353.15	2.281	0.87	0.7022	0.0037
353.15	2.281	3.85	1.146	0.005
353.15	3.95	0.154	0.6117	0.0051
353.15	3.95	0.48	1.0901	0.0066
353.15	3.95	1.53	1.5869	0.0081
353.15	4.168	4.47	2.1976	0.0106
353.15	4.168	6.86	2.4	0.011
353.15	4.168	10.15	2.571	0.012
353.15	4.199	19.85	2.874	0.012
353.15	4.199	31.4	3.039	0.014
353.15	4.199	77.63	3.391	0.023
393.15	2.013	4.81	0.4122	0.004
393.15	2.013	8.93	0.5505	0.0041
393.15	2.013	41.23	0.973	0.005
393.15	2.046	1.15	0.1936	0.0037
393.15	2.046	13.94	0.6745	0.0043
393.15	2.046	29.14	0.89	0.005
393.15	3.837	0.534	0.1994	0.0048
393.15	3.837	10.94	1.1308	0.0097
393.15	3.837	42.93	1.841	0.01
393.15	3.972	2.18	0.5038	0.0065
393.15	3.972	5.99	0.8841	0.0063
393.15	3.972	95.3	2.337	0.015
393.15	4.443	0.9	0.3247	0.0082
393.15	4.443	25.32	1.787	0.011
393.15	4.443	46.93	2.177	0.011
