Measured thermophysical data. Physical Properties (Density, Viscosity, Surface Tension, Interfacial Tension, and Contact Angle) of the System Isopropyl Alcohol + Cyclohexene + Water
Source: J. Chem. Eng. Data, 2007, 10.1021/je060442b
Compound 1: propan-2-ol, C3H8O, InChI=1S/C3H8O/c1-3(2)4/h3-4H,1-2H3
Compound 2: cyclohexene, C6H10, InChI=1S/C6H10/c1-2-4-6-5-3-1/h1-2H,3-6H2
Compound 3: water, H2O, InChI=1S/H2O/h1H2

System: propan-2-ol + cyclohexene + water; phases: Liquid mixture 1, Liquid mixture 2
Fixed: Pressure, kPa = 101
Fixed: Temperature, K = 294
Property: Interfacial tension, N/m (Liquid mixture 1); method: Ring tensiometer
Volume fraction of propan-2-ol	Interfacial tension, N/m	uncertainty
0	0.0242	0.0011
0.0104	0.0069	0.001
0.2107	0.0015	0.001
0.3349	0.0006	0.001
0.4445	0.0001	0.001
0.5006	3e-05	0.001

System: propan-2-ol + cyclohexene + water; phases: Liquid mixture 2, Air at 1 atmosphere
Fixed: Pressure, kPa = 101
Fixed: Temperature, K = 294
Property: Surface tension liquid-gas, N/m (Liquid mixture 2); method: Ring tensiometer
Volume fraction of propan-2-ol	Surface tension liquid-gas, N/m	uncertainty
0	0.0272	0.0011
0.005	0.0267	0.0011
0.0172	0.0254	0.0011
0.0251	0.0252	0.0011
0.0687	0.0251	0.0011
0.1151	0.0249	0.0011

System: propan-2-ol + cyclohexene + water; phases: Liquid mixture 1, Liquid mixture 2
Fixed: Pressure, kPa = 101
Fixed: Temperature, K = 294
Property: Viscosity, Pa*s (Liquid mixture 1); method: Capillary tube (Ostwald; Ubbelohde) method
Volume fraction of propan-2-ol	Viscosity, Pa*s	uncertainty
0	0.00067	0.0001
0.0104	0.00068	0.0001
0.2107	0.00076	0.0001
0.3349	0.00098	0.0001
0.4445	0.00155	0.0001
0.5006	0.00184	0.0001
0.556	0.0031	0.0001

System: propan-2-ol + cyclohexene + water; phases: Liquid mixture 2, Liquid mixture 1
Fixed: Pressure, kPa = 101
Fixed: Temperature, K = 294
Property: Viscosity, Pa*s (Liquid mixture 2); method: Capillary tube (Ostwald; Ubbelohde) method
Volume fraction of propan-2-ol	Viscosity, Pa*s	uncertainty
0	0.00103	0.0001
0.0104	0.00258	0.0001
0.2107	0.0033	0.0001
0.3349	0.0036	0.0001
0.4445	0.00362	0.0001
0.5006	0.0037	0.0001

System: propan-2-ol + cyclohexene + water; phases: Liquid mixture 1, Liquid mixture 2
Fixed: Pressure, kPa = 101
Fixed: Temperature, K = 294
Property: Refractive index (Na D-line) (Liquid mixture 1); method: Standard Abbe refractometry
Volume fraction of propan-2-ol	Refractive index (Na D-line)	uncertainty
0.0104	1.44517	0.00078
0.2107	1.42927	0.00078
0.3349	1.41783	0.00078
0.4445	1.40614	0.00078
0.5006	1.3993	0.00079
0.556	1.385	0.00079

System: propan-2-ol + cyclohexene + water; phases: Liquid mixture 2, Liquid mixture 1
Fixed: Pressure, kPa = 101
Fixed: Temperature, K = 294
Property: Refractive index (Na D-line) (Liquid mixture 2); method: Standard Abbe refractometry
Volume fraction of propan-2-ol	Refractive index (Na D-line)	uncertainty
0.0104	1.35204	0.00078
0.2107	1.36101	0.00078
0.3349	1.36408	0.00078
0.4445	1.36951	0.00078
0.5006	1.372	0.00078

System: propan-2-ol + cyclohexene + water; phases: Liquid mixture 2, Liquid mixture 1
Fixed: Pressure, kPa = 101
Fixed: Temperature, K = 294
Property: Volume fraction of propan-2-ol (Liquid mixture 2); method: refractive index
Volume fraction of propan-2-ol	Volume fraction of propan-2-ol	uncertainty
0	0	0.0111
0.0104	0.005	0.0111
0.2107	0.0172	0.01
0.3349	0.0251	0.0102
0.4445	0.0687	0.0113
0.5006	0.1151	0.017
0.556	0.222	0.0217

System: propan-2-ol + cyclohexene + water; phases: Liquid mixture 1, Liquid mixture 2
Fixed: Pressure, kPa = 101
Fixed: Temperature, K = 294
Property: Volume fraction of water (Liquid mixture 1); method: refractive index
Volume fraction of propan-2-ol	Volume fraction of water	uncertainty
0	0	0.2602
0.0104	0.2704	0.2602
0.2107	0.3905	0.0112
0.3349	0.4308	0.0106
0.4445	0.47	0.0108
0.5006	0.5007	0.0114

System: propan-2-ol + cyclohexene + water; phases: Liquid mixture 2, Liquid mixture 1
Fixed: Pressure, kPa = 101
Fixed: Temperature, K = 294
Property: Volume fraction of water (Liquid mixture 2); method: refractive index
Volume fraction of propan-2-ol	Volume fraction of water	uncertainty
0	1	0.2627
0.0104	0.727	0.2627
0.2107	0.5923	0.0117
0.3349	0.5354	0.0112
0.4445	0.4721	0.0122
0.5006	0.4159	0.0142

System: propan-2-ol + cyclohexene + water; phases: Liquid mixture 1, Liquid mixture 2
Fixed: Pressure, kPa = 101
Fixed: Temperature, K = 294
Property: Mass density, kg/m3 (Liquid mixture 1); method: Vibrating tube method
Volume fraction of propan-2-ol	Mass density, kg/m3	uncertainty
0	0.81	0.2
0.0104	0.81	0.2
0.2107	0.81	0.2
0.3349	0.81	0.2
0.4445	0.81	0.2
0.5006	0.82	0.2
0.556	0.85	0.2

System: propan-2-ol + cyclohexene + water; phases: Liquid mixture 2, Liquid mixture 1
Fixed: Pressure, kPa = 101
Fixed: Temperature, K = 294
Property: Mass density, kg/m3 (Liquid mixture 2); method: Vibrating tube method
Volume fraction of propan-2-ol	Mass density, kg/m3	uncertainty
0	0.99	0.2
0.0104	0.97	0.2
0.2107	0.94	0.2
0.3349	0.93	0.2
0.4445	0.91	0.2
0.5006	0.89	0.2
