Measured thermophysical data. Ternary and Quaternary Liquid + Liquid Equilibria for Systems of (Water + Toluene + m-Xylene + Phenol)
Source: J. Chem. Eng. Data, 2007, 10.1021/je060345i
Compound 1: toluene, C7H8, InChI=1S/C7H8/c1-7-5-3-2-4-6-7/h2-6H,1H3
Compound 2: phenol, C6H6O, InChI=1S/C6H6O/c7-6-4-2-1-3-5-6/h1-5,7H
Compound 3: water, H2O, InChI=1S/H2O/h1H2
Compound 4: 1,3-dimethylbenzene, C8H10, InChI=1S/C8H10/c1-7-4-3-5-8(2)6-7/h3-6H,1-2H3

System: toluene + phenol + water; phases: Liquid mixture 2, Liquid mixture 1
Fixed: Pressure, kPa = 101
Property: Mass fraction of toluene (Liquid mixture 2); method: CHROM:UFactor:16
Property: Mass fraction of toluene (Liquid mixture 1); method: CHROM:UFactor:16
Property: Mass fraction of phenol (Liquid mixture 1); method: CHROM:UFactor:16
Temperature, K	Mass fraction of phenol	Mass fraction of toluene	uncertainty	Mass fraction of toluene	uncertainty	Mass fraction of phenol	uncertainty
298.15	0.012	0.002	0.002	0.611	0.048	0.08	
303.15	0.016	0.002	0.002	0.532	0.058	0.206	
303.15	0.022	0.001	0.001	0.477	0.059	0.295	
298.15	0.012	0.001	0.001	0.584	0.052	0.092	
298.15	0.029	0.001	0.001	0.5	0.062	0.263	
298.15	0.035	0.001	0.001	0.434	0.056	0.362	
298.15	0.033	0.002	0.002	0.47	0.06	0.357	
303.15	0.023	0.007	0.003	0.411	0.051	0.367	
303.15	0.001	0.001	0.001	0.573	0.053	0.009	
303.15	0.012	0.001	0.001	0.571	0.053	0.112	

System: 1,3-dimethylbenzene + phenol + water; phases: Liquid mixture 1, Liquid mixture 2
Fixed: Pressure, kPa = 101
Property: Mass fraction of 1,3-dimethylbenzene (Liquid mixture 1); method: CHROM:UFactor:32
Property: Mass fraction of 1,3-dimethylbenzene (Liquid mixture 2); method: CHROM:UFactor:32
Property: Mass fraction of phenol (Liquid mixture 2); method: CHROM:UFactor:32
Temperature, K	Mass fraction of phenol	Mass fraction of 1,3-dimethylbenzene	uncertainty	Mass fraction of 1,3-dimethylbenzene	uncertainty	Mass fraction of phenol	uncertainty
298.15	0.017	0.83	0.042	0		0.01	
298.15	0.084	0.743	0.064	0		0.021	
298.15	0.2	0.724	0.068	0		0.028	
298.15	0.254	0.672	0.081	0.001	0.001	0.029	
298.15	0.453	0.524	0.118	0		0.034	
303.15	0.451	0.5	0.124	0.002	0.002	0.036	
303.15	0.049	0.779	0.055	0		0.007	
303.15	0.189	0.689	0.077	0		0.025	
303.15	0.323	0.607	0.097	0		0.031	
303.15	0.441	0.499	0.124	0		0.035	
