Measured thermophysical data. Viscosity of Compressed Liquid 1,1,1-Trifluoroethane (HFC-143a) and Pentafluoroethane (HFC-125)
Source: J. Chem. Eng. Data, 2006, 10.1021/je0601356
Compound 1: 1,1,1-trifluoroethane, C2H3F3, InChI=1S/C2H3F3/c1-2(3,4)5/h1H3, purity 99.5%
Compound 2: pentafluoroethane, C2HF5, InChI=1S/C2HF5/c3-1(4)2(5,6)7/h1H, purity 99.5%

System: 1,1,1-trifluoroethane; phases: Liquid
Property: Viscosity, Pa*s (Liquid); method: Vibrating wire viscometry
Temperature, K	Pressure, kPa	Viscosity, Pa*s	uncertainty
254.35	1340	0.0002054	6e-06
254.35	1350	0.0002063	6e-06
254.35	1360	0.0002065	6e-06
254.35	1410	0.000206	6e-06
254.35	1450	0.0002063	6e-06
254.35	1960	0.0002082	6e-06
254.35	1970	0.0002078	6e-06
254.35	2010	0.000208	6e-06
254.35	2040	0.0002083	6e-06
254.35	2070	0.0002088	6e-06
254.35	3110	0.0002114	6.1e-06
254.35	3160	0.0002116	6.1e-06
254.35	3170	0.0002115	6.1e-06
254.35	3210	0.0002122	6.1e-06
254.35	3280	0.000212	6.1e-06
254.35	3320	0.0002119	6.1e-06
254.35	4170	0.0002145	6.1e-06
254.35	4190	0.0002147	6.1e-06
254.35	4210	0.0002147	6.1e-06
254.35	4940	0.0002173	6.1e-06
254.35	4970	0.0002167	6.2e-06
254.35	5000	0.0002176	6.2e-06
254.35	5020	0.0002172	6.1e-06
254.35	5050	0.0002171	6.1e-06
254.35	5100	0.0002176	6.2e-06
254.35	1350	0.0002059	6e-06
254.35	1360	0.0002057	6e-06
254.35	1960	0.000208	6e-06
254.35	2010	0.0002081	6e-06
254.35	4210	0.0002147	6.1e-06
254.35	1350	0.0002062	6e-06
263.02	1300	0.0001828	5.6e-06
263.02	1320	0.0001828	5.6e-06
263.02	1330	0.0001827	5.6e-06
263.02	1970	0.0001855	5.6e-06
263.02	1980	0.0001857	5.6e-06
263.02	1990	0.0001855	5.6e-06
263.02	2010	0.0001851	5.6e-06
263.02	2020	0.0001857	5.6e-06
263.02	3420	0.0001899	5.8e-06
263.02	3430	0.0001898	5.8e-06
263.02	3450	0.0001898	5.8e-06
263.02	3520	0.0001903	5.7e-06
263.02	3560	0.0001901	5.7e-06
263.02	3590	0.0001898	5.8e-06
263.02	3640	0.0001906	5.7e-06
263.02	3670	0.0001905	5.7e-06
263.02	4800	0.0001943	5.9e-06
263.02	4840	0.000194	5.8e-06
263.02	4870	0.000194	5.8e-06
263.02	4910	0.0001942	5.9e-06
263.02	4950	0.0001939	5.9e-06
263.02	6990	0.0002018	5.9e-06
263.02	7090	0.000201	5.9e-06
263.02	7160	0.0002015	5.9e-06
263.02	7200	0.0002011	5.9e-06
263.02	7230	0.0002016	5.9e-06
263.02	7310	0.0002013	5.9e-06
263.02	7380	0.0002024	5.9e-06
263.02	7390	0.0002015	5.9e-06
263.02	7420	0.0002011	5.9e-06
263.02	7460	0.0002024	5.9e-06
263.02	7520	0.0002017	5.9e-06
263.02	1320	0.0001829	5.6e-06
263.02	1330	0.0001826	5.6e-06
263.02	2020	0.0001859	5.6e-06
263.02	3670	0.0001908	5.7e-06
263.02	7310	0.0002019	5.9e-06
263.02	7460	0.0002022	5.9e-06
263.02	1330	0.0001826	5.6e-06
273.21	1420	0.0001617	5.2e-06
273.21	1430	0.0001619	5.3e-06
273.21	1440	0.0001619	5.3e-06
273.21	1450	0.0001619	5.3e-06
273.21	1810	0.0001629	5.3e-06
273.21	1820	0.0001627	5.3e-06
273.21	1860	0.0001629	5.3e-06
273.21	1890	0.0001626	5.3e-06
273.21	3450	0.0001682	5.4e-06
273.21	3460	0.0001677	5.3e-06
273.21	3490	0.0001678	5.3e-06
273.21	3500	0.000168	5.4e-06
273.21	4850	0.0001724	5.5e-06
273.21	4860	0.0001722	5.4e-06
273.21	4880	0.0001719	5.5e-06
273.21	4910	0.0001722	5.4e-06
273.21	4960	0.0001724	5.5e-06
273.21	5010	0.000172	5.5e-06
273.21	5030	0.0001723	5.5e-06
273.21	7780	0.0001804	5.5e-06
273.21	7800	0.0001805	5.5e-06
273.21	7810	0.0001806	5.5e-06
273.21	7900	0.0001803	5.5e-06
273.21	7960	0.0001805	5.5e-06
273.21	9530	0.0001854	5.6e-06
273.21	9540	0.0001852	5.6e-06
273.21	9580	0.0001856	5.6e-06
273.21	9610	0.0001851	5.6e-06
273.21	9770	0.000185	5.6e-06
273.21	9880	0.0001853	5.6e-06
273.21	1440	0.0001619	5.3e-06
273.21	3450	0.0001681	5.4e-06
273.21	3490	0.0001682	5.4e-06
273.21	4880	0.0001724	5.4e-06
273.21	3450	0.0001679	5.3e-06
283.22	1240	0.0001416	5e-06
283.22	1260	0.0001418	4.9e-06
283.22	1470	0.0001416	4.9e-06
283.22	1510	0.0001424	5e-06
283.22	1530	0.0001424	5e-06
283.22	1570	0.0001429	5e-06
283.22	1900	0.0001433	5e-06
283.22	1930	0.0001433	5e-06
283.22	1950	0.0001432	5e-06
283.22	1970	0.000144	5e-06
283.22	2000	0.0001435	5e-06
283.22	2050	0.0001442	5e-06
283.22	3700	0.0001495	5.1e-06
283.22	3720	0.0001496	5.1e-06
283.22	3850	0.0001497	5.1e-06
283.22	5130	0.0001537	5.2e-06
283.22	5220	0.0001543	5.1e-06
283.22	5260	0.0001536	5.2e-06
283.22	7400	0.0001615	5.3e-06
283.22	7500	0.000161	5.2e-06
283.22	7540	0.0001607	5.2e-06
283.22	9720	0.0001679	5.3e-06
283.22	9780	0.0001678	5.3e-06
283.22	9940	0.000168	5.3e-06
283.22	10050	0.0001678	5.3e-06
283.22	1240	0.0001416	5e-06
283.22	3700	0.0001495	5.1e-06
283.22	5260	0.000154	5.2e-06
293.17	1370	0.0001253	4.7e-06
293.17	1390	0.0001255	4.7e-06
293.17	1400	0.0001252	4.7e-06
293.17	1420	0.0001256	4.7e-06
293.17	1430	0.0001258	4.7e-06
293.17	1440	0.0001258	4.7e-06
293.17	1850	0.0001268	4.7e-06
293.17	1860	0.0001266	4.7e-06
293.17	1890	0.0001271	4.7e-06
293.17	1920	0.0001267	4.7e-06
293.17	1940	0.000127	4.7e-06
293.17	3820	0.0001333	4.8e-06
293.17	3830	0.0001336	4.8e-06
293.17	3850	0.0001337	4.8e-06
293.17	3860	0.0001335	4.8e-06
293.17	3870	0.0001333	4.8e-06
293.17	3890	0.0001335	4.8e-06
293.17	4900	0.0001378	4.9e-06
293.17	4920	0.0001377	4.9e-06
293.17	4960	0.000138	4.9e-06
293.17	4970	0.000138	4.9e-06
293.17	5010	0.0001381	4.9e-06
293.17	7450	0.0001448	5e-06
293.17	7490	0.0001446	5e-06
293.17	7520	0.000145	5e-06
293.17	7550	0.0001449	5e-06
293.17	7560	0.0001449	5e-06
293.17	7590	0.0001451	5e-06
293.17	7620	0.0001453	5e-06
293.17	9740	0.0001507	5.1e-06
293.17	9770	0.0001506	5.1e-06
293.17	9820	0.0001507	5.1e-06
293.17	9880	0.000151	5.1e-06
293.17	9970	0.0001511	5.1e-06
293.17	10070	0.0001517	5.1e-06
293.17	1390	0.0001255	4.7e-06
293.17	1430	0.0001256	4.7e-06
293.17	3890	0.0001335	4.8e-06
293.17	3890	0.0001336	4.8e-06

System: pentafluoroethane; phases: Liquid
Property: Viscosity, Pa*s (Liquid); method: Vibrating wire viscometry
Temperature, K	Pressure, kPa	Viscosity, Pa*s	uncertainty
253.99	1440	0.0002707	7.1e-06
253.99	1450	0.000271	7.1e-06
253.99	1460	0.000271	7.1e-06
253.99	1470	0.0002711	7.1e-06
253.99	1480	0.0002707	7.1e-06
253.99	3250	0.0002794	7.2e-06
253.99	3280	0.0002789	7.2e-06
253.99	5050	0.0002876	7.4e-06
253.99	5060	0.0002874	7.4e-06
253.99	5100	0.0002875	7.4e-06
253.99	5140	0.0002875	7.4e-06
253.99	7350	0.0002984	7.6e-06
253.99	7360	0.0002984	7.6e-06
253.99	7380	0.0002982	7.6e-06
253.99	1450	0.000271	7.1e-06
253.99	1460	0.000271	7.1e-06
253.99	3280	0.0002794	7.2e-06
253.99	3280	0.000279	7.2e-06
263.23	1430	0.0002381	6.5e-06
263.23	1440	0.0002373	6.5e-06
263.23	1460	0.0002382	6.5e-06
263.23	1480	0.0002377	6.5e-06
263.23	3050	0.0002452	6.6e-06
263.23	3060	0.0002453	6.6e-06
263.23	3070	0.0002456	6.6e-06
263.23	5030	0.0002531	6.8e-06
263.23	5050	0.0002529	6.8e-06
263.23	5060	0.0002535	6.8e-06
263.23	5070	0.0002538	6.8e-06
263.23	5080	0.0002538	6.8e-06
263.23	5110	0.0002534	6.8e-06
263.23	7530	0.0002643	7e-06
263.23	7560	0.0002645	7e-06
263.23	7610	0.0002645	7e-06
263.23	7640	0.0002646	7e-06
263.23	9770	0.0002743	7.1e-06
263.23	9800	0.000274	7.1e-06
263.23	9820	0.0002745	7.2e-06
263.23	1440	0.0002375	6.5e-06
273.08	1460	0.0002076	6e-06
273.08	1480	0.0002075	6e-06
273.08	1490	0.0002074	6e-06
273.08	1500	0.0002074	6e-06
273.08	2940	0.0002147	6.1e-06
273.08	2950	0.0002145	6.1e-06
273.08	2990	0.0002145	6.1e-06
273.08	5020	0.0002234	6.3e-06
273.08	5030	0.0002229	6.2e-06
273.08	5040	0.0002224	6.2e-06
273.08	7480	0.0002324	6.4e-06
273.08	7490	0.0002327	6.4e-06
273.08	7510	0.0002324	6.4e-06
273.08	7520	0.0002326	6.4e-06
273.08	7530	0.0002324	6.4e-06
273.08	9680	0.0002416	6.6e-06
273.08	9690	0.0002419	6.6e-06
273.08	9710	0.0002416	6.6e-06
273.08	1500	0.0002073	6e-06
273.08	5030	0.0002233	6.3e-06
273.08	5040	0.0002224	6.2e-06
273.08	7490	0.0002324	6.4e-06
273.08	9690	0.0002421	6.6e-06
273.08	5040	0.0002226	6.2e-06
273.08	7490	0.0002324	6.4e-06
273.08	7490	0.0002327	6.4e-06
283.29	1550	0.0001781	5.5e-06
283.29	1580	0.0001789	5.5e-06
283.29	1590	0.0001788	5.5e-06
283.29	1600	0.0001785	5.5e-06
283.29	1620	0.0001783	5.5e-06
283.29	3000	0.0001852	5.6e-06
283.29	3010	0.000185	5.6e-06
283.29	3030	0.0001852	5.6e-06
283.29	3060	0.000185	5.6e-06
283.29	5190	0.0001957	5.8e-06
283.29	5220	0.0001954	5.8e-06
283.29	5230	0.0001953	5.8e-06
283.29	5270	0.0001956	5.8e-06
283.29	7590	0.0002059	6e-06
283.29	7600	0.0002064	6e-06
283.29	10040	0.0002155	6.1e-06
283.29	10050	0.0002155	6.1e-06
283.29	10070	0.0002155	6.1e-06
283.29	10080	0.0002157	6.1e-06
283.29	3010	0.000185	5.6e-06
283.29	3030	0.0001852	5.6e-06
283.29	5220	0.000196	5.8e-06
283.29	7600	0.0002057	6e-06
283.29	10040	0.0002159	6.1e-06
283.29	5220	0.0001953	5.8e-06
283.29	7600	0.0002055	6e-06
283.29	5220	0.0001955	5.8e-06
283.29	7600	0.0002059	6e-06
283.29	7600	0.0002056	6e-06
293.13	2020	0.0001577	5.2e-06
293.13	2030	0.0001581	5.2e-06
293.13	2070	0.0001583	5.2e-06
293.13	2100	0.0001584	5.2e-06
293.13	2110	0.0001583	5.2e-06
293.13	2140	0.0001583	5.2e-06
293.13	5080	0.000172	5.4e-06
293.13	5100	0.0001716	5.4e-06
293.13	5130	0.0001719	5.4e-06
293.13	7530	0.0001818	5.6e-06
293.13	9990	0.0001918	5.7e-06
293.13	10030	0.0001915	5.7e-06
293.13	10040	0.0001918	5.7e-06
293.13	10050	0.0001914	5.7e-06
293.13	5130	0.0001715	5.4e-06
293.13	7530	0.0001813	5.6e-06
293.13	10030	0.0001915	5.7e-06
293.13	10040	0.0001917	5.7e-06
293.13	7530	0.0001813	5.6e-06
293.13	10040	0.0001916	5.7e-06
293.13	7530	0.0001811	5.6e-06
293.13	10040	0.0001914	5.7e-06
