Measured thermophysical data. Acoustic Determination of Thermophysical Properties and Critical Parameters for the Mixture (51 wt % R143a + 49 wt % R125) and Critical Line of xCO2 + (1 - x)(51 wt % R143a + 49 wt % R125)
Source: J. Chem. Eng. Data, 2006, 10.1021/je060291c
Compound 1: pentafluoroethane, C2HF5, InChI=1S/C2HF5/c3-1(4)2(5,6)7/h1H, purity 99%
Compound 2: 1,1,1-trifluoroethane, C2H3F3, InChI=1S/C2H3F3/c1-2(3,4)5/h1H3, purity 99%

System: pentafluoroethane + 1,1,1-trifluoroethane; phases: Liquid, Gas
Fixed: Mass fraction of pentafluoroethane = 0.49
Property: Speed of sound, m/s (Liquid); method: Pulse-echo method
Temperature, K	Speed of sound, m/s	uncertainty
298.19	375.4	1.3
308.19	324.2	1.3
318.2	270.3	1.3
328.17	211.8	1.3

System: pentafluoroethane + 1,1,1-trifluoroethane; phases: Liquid
Fixed: Mass fraction of pentafluoroethane = 0.49
Property: Speed of sound, m/s (Liquid); method: Pulse-echo method
Pressure, kPa	Temperature, K	Speed of sound, m/s	uncertainty
940	273.14	500.1	1.3
1010	273.14	500.9	1.3
1130	273.14	502.3	1.3
1130	288.18	427.1	1.3
1130	288.18	427.1	1.3
1140	280.7	465.9	1.3
1150	258.15	574.9	1.3
1160	253.22	598.8	1.3
1160	280.7	466.2	1.3
1170	258.15	575.3	1.3
1170	265.62	539.5	1.3
1190	258.15	575.7	1.3
1190	288.18	428.3	1.3
1210	265.62	540.1	1.3
1210	280.7	466.5	1.3
1260	253.22	599.7	1.3
1260	258.15	576.3	1.3
1260	265.62	540.5	1.3
1260	273.14	503.8	1.3
1260	280.7	467.5	1.3
1260	288.18	429.1	1.3
1260	288.18	429.1	1.3
1290	298.19	375.4	1.3
1300	298.19	375.4	1.3
1300	298.19	375.5	1.3
1300	298.19	375.5	1.3
1360	298.19	376.9	1.3
1380	253.22	600.9	1.3
1380	258.15	577.6	1.3
1380	265.62	541.7	1.3
1380	273.14	505.3	1.3
1380	280.7	469.1	1.3
1500	253.22	602	1.3
1500	258.15	578.8	1.3
1500	265.62	543	1.3
1500	273.14	506.6	1.3
1500	280.7	471	1.3
1500	288.18	432.9	1.3
1510	298.19	379.6	1.3
1630	253.22	603.1	1.3
1630	258.15	580	1.3
1630	265.62	544.3	1.3
1630	273.14	508.1	1.3
1630	280.7	472.4	1.3
1630	288.18	434.9	1.3
1630	298.19	381.8	1.3
1670	308.19	324.1	1.3
1670	308.19	324.1	1.3
1670	308.19	324.2	1.3
1670	308.19	324.2	1.3
1740	308.19	326	1.3
1750	253.22	604.2	1.3
1750	258.15	581.2	1.3
1750	265.62	545.7	1.3
1750	273.14	509.5	1.3
1750	280.7	473.9	1.3
1750	288.18	436.7	1.3
1750	298.19	384.2	1.3
1750	288.18	436.6	1.3
1840	308.19	328.4	1.3
2010	253.22	606.4	1.3
2010	258.15	583.4	1.3
2010	265.62	548.3	1.3
2010	273.14	512.5	1.3
2010	280.7	477.2	1.3
2010	288.18	440.2	1.3
2010	298.19	388.7	1.3
2010	308.19	332.4	1.3
2120	318.2	270.3	1.4
2120	318.2	270.3	1.4
2120	318.2	270.3	1.4
2180	318.2	272.6	1.4
2250	253.22	608.7	1.3
2250	258.15	585.8	1.3
2250	265.62	550.8	1.3
2250	273.14	515.3	1.3
2250	280.7	480.2	1.3
2250	288.18	444	1.3
2250	298.19	393	1.3
2250	308.19	338	1.3
2250	318.2	274.9	1.4
2360	318.2	278.2	1.4
2510	253.22	610.9	1.3
2510	258.15	588.1	1.3
2510	265.62	553.3	1.3
2510	273.14	518.1	1.3
2510	280.7	483.5	1.3
2510	288.18	447.4	1.3
2510	298.19	397.3	1.3
2510	308.19	343.6	1.3
2510	318.2	282.9	1.4
2660	328.17	211.8	1.4
2660	328.17	211.9	1.4
2660	328.17	211.8	1.4
2660	328.17	211.8	1.4
2660	328.17	211.8	1.4
2750	253.22	613.1	1.3
2750	258.15	590.3	1.3
2750	265.62	555.9	1.3
2750	273.14	520.9	1.3
2750	280.7	486.6	1.3
2750	288.18	450.9	1.3
2750	298.19	401.5	1.3
2750	308.19	348.9	1.3
2750	318.2	290.4	1.4
2750	328.17	216.9	1.4
2880	328.17	223.4	1.4
3010	253.22	615.1	1.3
3010	258.15	592.6	1.3
3010	265.62	558.4	1.3
3010	273.14	523.7	1.3
3010	280.7	489.8	1.3
3010	288.18	454.3	1.3
3010	298.19	405.6	1.3
3010	308.19	354	1.3
3010	318.2	297.5	1.3
3010	328.17	229.4	1.4
3380	338.18	154.6	1.5
3440	338.18	160.1	1.5
3500	253.22	619.3	1.3
3500	258.15	597.1	1.3
3500	265.62	563.3	1.3
3500	273.14	529.2	1.3
3500	280.7	495.6	1.3
3500	288.18	460.9	1.3
3500	298.19	413.4	1.3
3500	308.19	363.8	1.3
3500	318.2	310.3	1.3
3500	328.17	249.7	1.4
3500	338.18	165.9	1.5
3660	338.18	178.1	1.5
3830	338.18	189	1.4
4000	253.22	623.7	1.3
4000	258.15	601.5	1.3
4000	265.62	568.3	1.3
4000	273.14	534.4	1.3
4000	280.7	501.4	1.3
4000	288.18	467.5	1.3
4000	298.19	421.1	1.3
4000	308.19	373.1	1.3
4000	318.2	322.1	1.3
4000	328.17	266.3	1.3
4000	338.18	199.1	1.4
4250	338.18	211.1	1.4
4500	253.22	627.9	1.3
4500	258.15	606.1	1.3
4500	265.62	572.9	1.3
4500	273.14	539.5	1.3
4500	280.7	507.2	1.3
4500	288.18	473.5	1.3
4500	298.19	428.4	1.3
4500	308.19	381.8	1.3
4500	318.2	333	1.3
4500	328.17	280.9	1.3
4500	338.18	221.8	1.3
5000	253.22	631.9	1.3
5000	258.15	610.4	1.3
5000	265.62	577.7	1.3
5000	273.14	544.6	1.3
5000	280.7	512.8	1.3
5000	288.18	479.7	1.3
5000	298.19	435.4	1.3
5000	308.19	390.1	1.3
5000	318.2	343.1	1.3
5000	328.17	294	1.3
5000	338.18	240.3	1.3
6010	253.22	639.9	1.3
6010	258.15	618.6	1.3
6010	265.62	586.7	1.3
6010	273.14	554.2	1.3
6010	280.7	523.3	1.3
6010	288.18	491.5	1.3
6010	298.19	448.7	1.3
6010	308.19	405.6	1.3
6010	318.2	361.7	1.3
6010	328.17	316.6	1.3
6010	338.18	269.8	1.3
7010	253.22	647.5	1.3
7010	258.15	626.7	1.3
7010	265.62	595.3	1.3
7010	273.14	563.6	1.3
7010	280.7	533.5	1.3
7010	288.18	502.5	1.3
7010	298.19	461.1	1.3
7010	308.19	419.8	1.3
7010	318.2	378.2	1.3
7010	328.17	336.3	1.3
7010	338.18	293.8	1.3
7010	308.19	419.8	1.3
8000	253.22	655.1	1.3
8000	258.15	634.7	1.3
8000	265.62	603.7	1.3
8000	273.14	572.9	1.3
8000	280.7	543.1	1.3
8000	288.18	513.1	1.3
8000	298.19	473	1.3
8000	308.19	433.3	1.3
8000	318.2	393.4	1.3
8000	328.17	353.7	1.3
8000	338.18	314.4	1.3
8000	328.17	354	1.3
8000	328.17	353.9	1.3
9000	253.22	662.6	1.3
9000	258.15	642.2	1.3
9000	265.62	612.1	1.3
9000	273.14	581.6	1.3
9000	280.7	552.7	1.3
9000	288.18	523.2	1.3
9000	298.19	484.3	1.3
9000	308.19	445.6	1.3
9000	318.2	407.7	1.3
9000	328.17	370	1.3
9000	338.18	333	1.3
10000	253.22	669.8	1.3
10000	258.15	649.7	1.3
10000	265.62	620.3	1.3
10000	273.14	590.2	1.3
10000	280.7	561.9	1.3
10000	288.18	532.9	1.3
10000	298.19	494.9	1.3
10000	308.19	457.5	1.3
10000	318.2	420.9	1.3
10000	328.17	384.7	1.3
10000	338.18	349.3	1.3
12000	253.22	683.6	1.3
12000	258.15	664	1.3
12000	265.62	635.3	1.3
12000	273.14	606.5	1.3
12000	280.7	579.4	1.3
12000	288.18	551.3	1.3
12000	298.19	515.1	1.3
12000	308.19	479.6	1.3
12000	318.2	445	1.3
12000	328.17	411.3	1.3
12000	338.18	378.7	1.3
14000	253.22	697	1.3
14000	258.15	677.9	1.3
14000	265.62	649.8	1.3
14000	273.14	622	1.3
14000	280.7	595.5	1.3
14000	288.18	568.6	1.3
14000	298.19	533.7	1.3
14000	308.19	499.8	1.3
14000	318.2	466.9	1.3
14000	328.17	435.1	1.3
14000	338.18	404.3	1.3
16010	253.22	709.7	1.3
16010	258.15	691.3	1.3
16010	265.62	663.9	1.3
16010	273.14	636.6	1.3
16010	280.7	611	1.3
16010	288.18	585	1.3
16010	298.19	551.1	1.3
16010	308.19	518.5	1.3
16010	318.2	487	1.3
16010	328.17	456.6	1.3
16010	338.18	427.4	1.3
18000	253.22	722.2	1.3
18000	258.15	704.1	1.3
18000	265.62	677.1	1.3
18000	273.14	650.5	1.3
18000	280.7	625.4	1.3
18000	288.18	600.2	1.3
18000	298.19	567.6	1.3
18000	308.19	536.1	1.3
18000	318.2	505.5	1.3
18000	328.17	476.5	1.3
18000	338.18	448.3	1.3
18000	298.19	567.6	1.3
20000	253.22	734.3	1.3
20000	258.15	716.5	1.3
20000	265.62	690.1	1.3
20000	273.14	663.8	1.3
20000	280.7	639.5	1.3
20000	288.18	614.9	1.3
20000	298.19	583.2	1.3
20000	308.19	552.6	1.3
20000	318.2	523	1.3
20000	328.17	494.7	1.3
20000	338.18	467.8	1.3
23000	253.22	751.6	1.3
23000	258.15	734.2	1.3
23000	265.62	708.2	1.3
23000	273.14	683.2	1.3
23000	280.7	659.6	1.3
23000	288.18	635.8	1.3
23000	298.19	605.1	1.3
23000	308.19	575.7	1.3
23000	318.2	547.4	1.3
23000	328.17	520.4	1.3
23000	338.18	494.6	1.3
26000	253.22	768.1	1.3
26000	258.15	751.1	1.3
26000	265.62	725.7	1.3
26000	273.14	701.6	1.3
26000	280.7	678.2	1.3
26000	288.18	655.3	1.3
26000	298.19	625.5	1.3
26000	308.19	597.3	1.3
26000	318.2	569.9	1.3
26000	328.17	543.8	1.3
26000	338.18	519	1.3
29010	253.22	783.7	1.3
29010	258.15	767.3	1.3
29010	265.62	742.6	1.3
29010	273.14	718.9	1.3
29010	280.7	696.3	1.3
29010	288.18	673.8	1.3
29010	298.19	645.1	1.3
29010	308.19	617.4	1.3
29010	318.2	591	1.3
29010	328.17	565.9	1.3
29010	338.18	541.7	1.3
32000	253.22	798.4	1.3
32000	258.15	782.5	1.3
32000	265.62	758.5	1.3
32000	273.14	735.3	1.3
32000	280.7	713.7	1.3
32000	288.18	691.2	1.3
32000	298.19	663.2	1.3
32000	308.19	636.3	1.3
32000	318.2	610.7	1.3
32000	328.17	586.4	1.3
32000	338.18	563	1.3
32000	308.19	636.3	1.3
35000	253.22	812.8	1.3
35000	258.15	797.1	1.3
35000	265.62	773.9	1.3
35000	273.14	751.1	1.3
35000	280.7	729.9	1.3
35000	288.18	708.3	1.3
35000	298.19	680.8	1.3
35000	308.19	654.6	1.3
35000	318.2	629.4	1.3
35000	328.17	605.5	1.3
35000	338.18	583	1.3
35000	308.19	654.3	1.3
35000	328.17	605.8	1.3
40000	253.22	835.8	1.3
40000	258.15	820.8	1.3
40000	265.62	798.3	1.3
40000	273.14	775.8	1.3
40000	280.7	755.3	1.3
40000	288.18	734.9	1.3
40000	298.19	708.2	1.3
40000	308.19	682.9	1.3
40000	318.2	658.7	1.3
40000	328.17	635.7	1.3
40000	338.18	613.8	1.3
45000	253.22	857.8	1.3
45000	258.15	843.3	1.3
45000	265.62	821.3	1.3
45000	273.14	799.7	1.3
45000	280.7	779.7	1.3
45000	288.18	759.7	1.3
45000	298.19	734	1.3
45000	308.19	709.3	1.3
45000	318.2	685.8	1.3
45000	328.17	663.5	1.3
45000	338.18	642.4	1.3
50000	253.22	878.9	1.3
50000	258.15	864.3	1.3
50000	265.62	843.1	1.3
50000	273.14	822	1.3
50000	280.7	802.7	1.3
50000	288.18	783.2	1.3
50000	298.19	758	1.3
50000	308.19	734	1.3
50000	318.2	711.3	1.3
50000	328.17	689.5	1.3
50000	338.18	669	1.3
55000	253.22	899	1.3
55000	258.15	884.5	1.3
55000	265.62	863.8	1.3
55000	273.14	843.4	1.3
55000	280.7	824.2	1.3
55000	288.18	805.1	1.3
55000	298.19	780.7	1.3
55000	308.19	757.3	1.3
55000	318.2	734.9	1.3
55000	328.17	714.1	1.3
55000	338.18	693.9	1.3
55000	298.19	780.9	1.3
55000	308.19	757.1	1.3
60000	253.22	918.8	1.3
60000	258.15	904.1	1.3
60000	265.62	883.7	1.3
60000	273.14	863.4	1.3
60000	280.7	845.1	1.3
60000	288.18	826.3	1.3
60000	298.19	802.3	1.3
60000	308.19	779.5	1.3
60000	318.2	757.7	1.3
60000	328.17	737.1	1.3
60000	338.18	717.2	1.3
60000	298.19	802.4	1.3
60000	308.19	779.5	1.3
65000	253.22	937.2	1.3
65000	258.15	923.1	1.3
65000	265.62	902.8	1.3
65000	273.14	882.8	1.3
65000	280.7	864.9	1.3
65000	288.18	846.7	1.3
65000	298.19	823.1	1.3
65000	308.19	800.7	1.3
65000	318.2	779.3	1.3
65000	328.17	759	1.3
65000	338.18	739.8	1.3
65000	298.19	823.1	1.3
