Measured thermophysical data. Ternary Liquid-Liquid Equilibria for Mixtures of an Aromatic + an Aliphatic Hydrocarbon + 4-Methyl-N-butylpyridinium Tetrafluoroborate
Source: J. Chem. Eng. Data, 2006, 10.1021/je060198o
Compound 1: benzene, C6H6, InChI=1S/C6H6/c1-2-4-6-5-3-1/h1-6H, purity 99.7%
Compound 2: hexane, C6H14, InChI=1S/C6H14/c1-3-5-6-4-2/h3-6H2,1-2H3, purity 99%
Compound 3: 1-butyl-4-methylpyridinium tetrafluoroborate, C10H16BF4N, InChI=1S/C10H16N.BF4/c1-3-4-7-11-8-5-10(2)6-9-11;2-1(3,4)5/h5-6,8-9H,3-4,7H2,1-2H3;/q+1;-1, purity 97%
Compound 4: ethylbenzene, C8H10, InChI=1S/C8H10/c1-2-8-6-4-3-5-7-8/h3-7H,2H2,1H3, purity 99.7%
Compound 5: octane, C8H18, InChI=1S/C8H18/c1-3-5-7-8-6-4-2/h3-8H2,1-2H3, purity 99%
Compound 6: 1,3-dimethylbenzene, C8H10, InChI=1S/C8H10/c1-7-4-3-5-8(2)6-7/h3-6H,1-2H3, purity 99%

System: benzene + hexane + 1-butyl-4-methylpyridinium tetrafluoroborate; phases: Liquid mixture 1, Liquid mixture 2
Fixed: Pressure, kPa = 100
Property: Mole fraction of hexane (Liquid mixture 1); method: Chromatography
Property: Mole fraction of hexane (Liquid mixture 2); method: Chromatography
Property: Mole fraction of benzene (Liquid mixture 2); method: Chromatography
Temperature, K	Mole fraction of benzene	Mole fraction of hexane	uncertainty	Mole fraction of hexane	uncertainty	Mole fraction of benzene	uncertainty
313.2	0	0.99	0.01	0.02	0.002	0	
313.2	0.044	0.925	0.046	0.012	0.002	0.06	
313.2	0.075	0.895	0.045	0.014	0.002	0.08	
313.2	0.106	0.866	0.044	0.015	0.002	0.101	
313.2	0.197	0.789	0.041	0.014	0.002	0.163	
313.2	0.299	0.686	0.038	0.015	0.002	0.229	
313.2	0.414	0.57	0.035	0.015	0.002	0.294	
313.2	0.972	0	0.001	0	0.001	0.644	
333.2	0	0.978	0.022	0.017	0.002	0	
333.2	0.049	0.944	0.047	0.017	0.002	0.061	
333.2	0.084	0.906	0.046	0.016	0.002	0.088	
333.2	0.115	0.874	0.044	0.017	0.002	0.106	
333.2	0.21	0.785	0.041	0.017	0.002	0.166	
333.2	0.313	0.679	0.037	0.017	0.002	0.229	
333.2	0.43	0.564	0.035	0.017	0.002	0.295	
333.2	0.979	0	0.001	0	0.001	0.622	

System: ethylbenzene + octane + 1-butyl-4-methylpyridinium tetrafluoroborate; phases: Liquid mixture 1, Liquid mixture 2
Fixed: Pressure, kPa = 100
Property: Mole fraction of octane (Liquid mixture 1); method: Chromatography
Property: Mole fraction of octane (Liquid mixture 2); method: Chromatography
Property: Mole fraction of ethylbenzene (Liquid mixture 2); method: Chromatography
Temperature, K	Mole fraction of ethylbenzene	Mole fraction of octane	uncertainty	Mole fraction of octane	uncertainty	Mole fraction of ethylbenzene	uncertainty
313.2	0	0.992	0.008	0.009	0.002	0	
313.2	0.045	0.935	0.047	0.007	0.002	0.023	
313.2	0.101	0.87	0.044	0.006	0.002	0.042	
313.2	0.143	0.827	0.042	0.006	0.002	0.051	
313.2	0.268	0.714	0.038	0.007	0.002	0.074	
313.2	0.416	0.554	0.035	0.005	0.002	0.109	
313.2	0.56	0.422	0.034	0.004	0.002	0.14	
313.2	0.996	0	0.001	0	0.001	0.294	
348.2	0	0.982	0.018	0.008	0.002	0	
348.2	0.079	0.914	0.046	0.008	0.002	0.035	
348.2	0.121	0.866	0.044	0.008	0.002	0.045	
348.2	0.164	0.825	0.042	0.008	0.002	0.055	
348.2	0.294	0.69	0.038	0.007	0.002	0.081	
348.2	0.437	0.55	0.035	0.006	0.002	0.11	
348.2	0.572	0.413	0.035	0.005	0.002	0.139	
348.2	0.987	0	0.001	0	0.001	0.25	

System: 1,3-dimethylbenzene + octane + 1-butyl-4-methylpyridinium tetrafluoroborate; phases: Liquid mixture 1, Liquid mixture 2
Fixed: Pressure, kPa = 100
Property: Mole fraction of octane (Liquid mixture 1); method: Chromatography
Property: Mole fraction of octane (Liquid mixture 2); method: Chromatography
Property: Mole fraction of 1,3-dimethylbenzene (Liquid mixture 2); method: Chromatography
Temperature, K	Mole fraction of 1,3-dimethylbenzene	Mole fraction of octane	uncertainty	Mole fraction of octane	uncertainty	Mole fraction of 1,3-dimethylbenzene	uncertainty
313.2	0	0.992	0.008	0.009	0.002	0	
313.2	0.081	0.911	0.046	0.008	0.002	0.029	
313.2	0.146	0.832	0.042	0.007	0.002	0.047	
313.2	0.189	0.789	0.041	0.007	0.002	0.055	
313.2	0.23	0.747	0.039	0.007	0.002	0.064	
313.2	0.251	0.731	0.038	0.006	0.002	0.07	
313.2	0.287	0.694	0.038	0.007	0.002	0.077	
313.2	0.38	0.6	0.036	0.005	0.002	0.097	
313.2	0.468	0.512	0.036	0.005	0.002	0.117	
313.2	0.554	0.414	0.038	0.004	0.002	0.138	
313.2	0.983	0	0.001	0	0.001	0.265	
348.2	0	0.982	0.018	0.008	0.002	0	
348.2	0.082	0.896	0.045	0.007	0.002	0.027	
348.2	0.124	0.861	0.043	0.007	0.002	0.037	
348.2	0.17	0.81	0.041	0.007	0.002	0.046	
348.2	0.212	0.772	0.04	0.007	0.002	0.057	
348.2	0.257	0.729	0.039	0.007	0.002	0.065	
348.2	0.297	0.685	0.038	0.007	0.002	0.075	
348.2	0.375	0.599	0.035	0.006	0.002	0.091	
348.2	0.473	0.514	0.035	0.006	0.002	0.112	
348.2	0.573	0.405	0.037	0.005	0.002	0.141	
348.2	0.979	0	0.001	0	0.001	0.261	

System: hexane + 1-butyl-4-methylpyridinium tetrafluoroborate; phases: Liquid mixture 1, Liquid mixture 2
Fixed: Pressure, kPa = 100
Property: Mole fraction of hexane (Liquid mixture 1); method: Chromatography
Temperature, K	Mole fraction of hexane	uncertainty
313.2	0.99	0.01
333.2	0.978	0.022

System: hexane + 1-butyl-4-methylpyridinium tetrafluoroborate; phases: Liquid mixture 2, Liquid mixture 1
Fixed: Pressure, kPa = 100
Property: Mole fraction of hexane (Liquid mixture 2); method: Chromatography
Temperature, K	Mole fraction of hexane	uncertainty
313.2	0.02	0.002
333.2	0.017	0.002

System: benzene + 1-butyl-4-methylpyridinium tetrafluoroborate; phases: Liquid mixture 1, Liquid mixture 2
Fixed: Pressure, kPa = 100
Property: Mole fraction of benzene (Liquid mixture 1); method: Chromatography
Temperature, K	Mole fraction of benzene	uncertainty
333.2	0.979	
313.2	0.972	

System: benzene + 1-butyl-4-methylpyridinium tetrafluoroborate; phases: Liquid mixture 2, Liquid mixture 1
Fixed: Pressure, kPa = 100
Property: Mole fraction of benzene (Liquid mixture 2); method: Chromatography
Temperature, K	Mole fraction of benzene	uncertainty
333.2	0.622	
313.2	0.644	

System: octane + 1-butyl-4-methylpyridinium tetrafluoroborate; phases: Liquid mixture 1, Liquid mixture 2
Fixed: Pressure, kPa = 100
Property: Mole fraction of octane (Liquid mixture 1); method: Chromatography
Temperature, K	Mole fraction of octane	uncertainty
313.2	0.992	0.008
348.2	0.982	0.018

System: octane + 1-butyl-4-methylpyridinium tetrafluoroborate; phases: Liquid mixture 2, Liquid mixture 1
Fixed: Pressure, kPa = 100
Property: Mole fraction of octane (Liquid mixture 2); method: Chromatography
Temperature, K	Mole fraction of octane	uncertainty
313.2	0.009	0.002
348.2	0.008	0.002

System: ethylbenzene + 1-butyl-4-methylpyridinium tetrafluoroborate; phases: Liquid mixture 1, Liquid mixture 2
Fixed: Pressure, kPa = 100
Property: Mole fraction of ethylbenzene (Liquid mixture 1); method: Chromatography
Temperature, K	Mole fraction of ethylbenzene	uncertainty
348.2	0.987	
313.2	0.996	

System: ethylbenzene + 1-butyl-4-methylpyridinium tetrafluoroborate; phases: Liquid mixture 2, Liquid mixture 1
Fixed: Pressure, kPa = 100
Property: Mole fraction of ethylbenzene (Liquid mixture 2); method: Chromatography
Temperature, K	Mole fraction of ethylbenzene	uncertainty
348.2	0.25	
313.2	0.294	

System: 1,3-dimethylbenzene + 1-butyl-4-methylpyridinium tetrafluoroborate; phases: Liquid mixture 1, Liquid mixture 2
Fixed: Pressure, kPa = 100
Property: Mole fraction of 1,3-dimethylbenzene (Liquid mixture 1); method: Chromatography
Temperature, K	Mole fraction of 1,3-dimethylbenzene	uncertainty
313.2	0.983	
348.2	0.979	

System: 1,3-dimethylbenzene + 1-butyl-4-methylpyridinium tetrafluoroborate; phases: Liquid mixture 2, Liquid mixture 1
Fixed: Pressure, kPa = 100
Property: Mole fraction of 1,3-dimethylbenzene (Liquid mixture 2); method: Chromatography
Temperature, K	Mole fraction of 1,3-dimethylbenzene	uncertainty
313.2	0.265	
348.2	0.261	
