Measured thermophysical data. Vapor-Liquid Equilibria of the Difluoromethane + Dimethyl Ether and 1,1,1,2-Tetrafluoroethane + Dimethyl Ether Systems
Source: J. Chem. Eng. Data, 2006, 10.1021/je060028b
Compound 1: dimethyl ether, C2H6O, InChI=1S/C2H6O/c1-3-2/h1-2H3, purity 99.9%
Compound 2: difluoromethane, CH2F2, InChI=1S/CH2F2/c2-1-3/h1H2, purity 99.8%
Compound 3: 1,1,1,2-tetrafluoroethane, C2H2F4, InChI=1S/C2H2F4/c3-1-2(4,5)6/h1H2, purity 99.8%

System: difluoromethane; phases: Liquid, Gas
Property: Vapor or sublimation pressure, kPa (Liquid); method: EBULLIO:UFactor:16
Temperature, K	Vapor or sublimation pressure, kPa	uncertainty
313.15	2469	33
323.15	3138	41
333.15	3934	51
343.15	4884	63

System: 1,1,1,2-tetrafluoroethane; phases: Liquid, Gas
Property: Vapor or sublimation pressure, kPa (Liquid); method: EBULLIO:UFactor:16
Temperature, K	Vapor or sublimation pressure, kPa	uncertainty
313.15	1008	14
323.15	1308	18
333.15	1673	22
343.15	2106	28

System: difluoromethane + dimethyl ether; phases: Gas, Liquid
Property: Vapor or sublimation pressure, kPa (Gas); method: EBULLIO:UFactor:16
Mole fraction of difluoromethane	Temperature, K	Vapor or sublimation pressure, kPa	uncertainty
0.0849	323.15	1228	17
0.0879	333.15	1541	21
0.1864	323.15	1323	18
0.193	343.15	2078	27
0.1954	333.15	1675	22
0.2145	313.15	1040	14
0.285	323.15	1424	19
0.2877	343.15	2239	29
0.3256	313.15	1136	16
0.3264	333.15	1857	25
0.3654	343.15	2397	31
0.3671	323.15	1526	21
0.4187	313.15	1234	17
0.4549	333.15	2085	28
0.4624	323.15	1665	22
0.4774	343.15	2665	35
0.5371	323.15	1783	24
0.5686	343.15	2938	38
0.5893	313.15	1473	20
0.6251	343.15	3124	41
0.6476	323.15	2016	27
0.6519	343.15	3219	42
0.6559	333.15	2581	34
0.6561	313.15	1587	21
0.6851	333.15	2672	35
0.6966	313.15	1682	23
0.7017	323.15	2146	28
0.7028	343.15	3423	44
0.731	343.15	3529	46
0.748	333.15	2878	38
0.7569	323.15	2300	30
0.7687	313.15	1850	25
0.7703	333.15	2954	39
0.8018	323.15	2435	32
0.8028	333.15	3088	40
0.8036	313.15	1917	26
0.8193	343.15	3936	51
0.8367	323.15	2540	33
0.8668	333.15	3341	44
0.8738	343.15	4211	54
0.8828	313.15	2115	28
0.8923	323.15	2732	36
0.9096	343.15	4412	57
0.9119	313.15	2200	29
0.9175	333.15	3563	46
0.9326	323.15	2887	38
0.9377	343.15	4560	59
0.9395	313.15	2286	30
0.9641	343.15	4686	60
0.9659	333.15	3774	49
0.9701	323.15	3028	40
1	313.15	2469	33
1	323.15	3138	41
1	333.15	3934	51
1	343.15	4884	63

System: difluoromethane + dimethyl ether; phases: Liquid, Gas
Property: Mole fraction of difluoromethane (Liquid); method: CHROM:UFactor:8
Mole fraction of difluoromethane	Temperature, K	Mole fraction of difluoromethane	uncertainty
0.0849	323.15	0.051	0.0032
0.0879	333.15	0.0475	0.003
0.1864	323.15	0.1106	0.0069
0.193	343.15	0.112	0.007
0.1954	333.15	0.1139	0.0071
0.2145	313.15	0.1186	0.0074
0.285	323.15	0.1693	0.0105
0.2877	343.15	0.1765	0.011
0.3256	313.15	0.1881	0.0117
0.3264	333.15	0.2013	0.0125
0.3654	343.15	0.2362	0.0147
0.3671	323.15	0.2265	0.0141
0.4187	313.15	0.2555	0.0159
0.4549	333.15	0.3037	0.0188
0.4624	323.15	0.3012	0.0187
0.4774	343.15	0.3339	0.0207
0.5371	323.15	0.3662	0.0227
0.5686	343.15	0.4281	0.0266
0.5893	313.15	0.4108	0.0255
0.6251	343.15	0.4919	0.0305
0.6476	323.15	0.4832	0.03
0.6519	343.15	0.523	0.0296
0.6559	333.15	0.51	0.0304
0.6561	313.15	0.4815	0.0299
0.6851	333.15	0.5434	0.0283
0.6966	313.15	0.5381	0.0287
0.7017	323.15	0.5459	0.0282
0.7028	343.15	0.587	0.0256
0.731	343.15	0.6235	0.0234
0.748	333.15	0.6243	0.0233
0.7569	323.15	0.62	0.0236
0.7687	313.15	0.637	0.0225
0.7703	333.15	0.6546	0.0215
0.8018	323.15	0.6838	0.0197
0.8028	333.15	0.7018	0.0185
0.8036	313.15	0.6811	0.0198
0.8193	343.15	0.747	0.0157
0.8367	323.15	0.7353	0.0165
0.8668	333.15	0.7984	0.0126
0.8738	343.15	0.825	0.0109
0.8828	313.15	0.7964	0.0127
0.8923	323.15	0.8239	0.011
0.9096	343.15	0.8777	0.0077
0.9119	313.15	0.8454	0.0097
0.9175	333.15	0.8767	0.0078
0.9326	323.15	0.8903	0.007
0.9377	343.15	0.9175	0.0053
0.9395	313.15	0.8936	0.0068
0.9641	343.15	0.9548	0.0031
0.9659	333.15	0.9501	0.0034
0.9701	323.15	0.9516	0.0034
1	313.15	1	0.0001
1	323.15	1	0.0001
1	333.15	1	0.0001
1	343.15	1	0.0001

System: dimethyl ether + 1,1,1,2-tetrafluoroethane; phases: Gas, Liquid
Property: Vapor or sublimation pressure, kPa (Gas); method: EBULLIO:UFactor:16
Mole fraction of 1,1,1,2-tetrafluoroethane	Temperature, K	Vapor or sublimation pressure, kPa	uncertainty
0.0101	343.15	1816	24
0.0245	313.15	884	12
0.0361	323.15	1141	16
0.0453	333.15	1448	19
0.0682	313.15	880	12
0.0744	323.15	1138	16
0.0835	313.15	878	12
0.0841	343.15	1815	24
0.087	333.15	1446	19
0.1115	313.15	876	12
0.142	333.15	1445	19
0.1539	323.15	1133	16
0.1662	343.15	1816	24
0.221	313.15	869	12
0.2592	323.15	1128	16
0.2774	333.15	1447	20
0.297	343.15	1830	24
0.3072	313.15	872	12
0.3792	323.15	1139	16
0.4063	333.15	1466	20
0.4228	343.15	1854	25
0.43	313.15	878	12
0.473	323.15	1154	16
0.5511	313.15	897	13
0.5639	343.15	1898	25
0.5788	333.15	1506	20
0.6658	323.15	1195	16
0.6746	313.15	920	13
0.7023	343.15	1957	26
0.7251	333.15	1555	21
0.7524	323.15	1223	17
0.8026	313.15	953	13
0.8125	343.15	2015	27
0.8194	333.15	1595	21
0.8389	323.15	1256	17
0.8769	343.15	2050	27
0.8853	333.15	1627	22
0.9101	313.15	985	14
0.9129	323.15	1283	17
0.9217	333.15	1646	22
1	313.15	1008	14
1	323.15	1308	18
1	333.15	1673	22
1	343.15	2106	28

System: dimethyl ether + 1,1,1,2-tetrafluoroethane; phases: Liquid, Gas
Property: Mole fraction of 1,1,1,2-tetrafluoroethane (Liquid); method: CHROM:UFactor:8
Mole fraction of 1,1,1,2-tetrafluoroethane	Temperature, K	Mole fraction of 1,1,1,2-tetrafluoroethane	uncertainty
0.0101	343.15	0.0102	0.0015
0.0245	313.15	0.0309	0.0023
0.0361	323.15	0.04	0.0027
0.0453	333.15	0.0489	0.0032
0.0682	313.15	0.0806	0.0051
0.0744	323.15	0.0808	0.0051
0.0835	313.15	0.098	0.0062
0.0841	343.15	0.0858	0.0054
0.087	333.15	0.0919	0.0058
0.1115	313.15	0.1282	0.008
0.142	333.15	0.1473	0.0092
0.1539	323.15	0.1605	0.01
0.1662	343.15	0.1667	0.0104
0.221	313.15	0.2368	0.0147
0.2592	323.15	0.2609	0.0162
0.2774	333.15	0.276	0.0171
0.297	343.15	0.2903	0.018
0.3072	313.15	0.3154	0.0196
0.3792	323.15	0.3685	0.0229
0.4063	333.15	0.3934	0.0244
0.4228	343.15	0.4054	0.0251
0.43	313.15	0.4258	0.0264
0.473	323.15	0.453	0.0281
0.5511	313.15	0.5344	0.0289
0.5639	343.15	0.5386	0.0286
0.5788	333.15	0.5547	0.0276
0.6658	323.15	0.6338	0.0227
0.6746	313.15	0.6492	0.0218
0.7023	343.15	0.677	0.02
0.7251	333.15	0.6971	0.0188
0.7524	323.15	0.7217	0.0173
0.8026	313.15	0.7779	0.0138
0.8125	343.15	0.7892	0.0131
0.8194	333.15	0.7964	0.0127
0.8389	323.15	0.8139	0.0116
0.8769	343.15	0.8588	0.0088
0.8853	333.15	0.8689	0.0082
0.9101	313.15	0.8952	0.0066
0.9129	323.15	0.8979	0.0064
0.9217	333.15	0.9101	0.0057
1	313.15	1	0.0001
1	323.15	1	0.0001
1	333.15	1	0.0001
1	343.15	1	0.0001
