Measured thermophysical data. Kinematic Viscosity of 1-Iodohexane, 1-Iodoheptane, and 1-Chlorononane at Temperatures from (293.15 to 423.15) K
Source: J. Chem. Eng. Data, 2006, 10.1021/je060158k
Compound 1: 1-iodohexane, C6H13I, InChI=1S/C6H13I/c1-2-3-4-5-6-7/h2-6H2,1H3, purity 0.99%
Compound 2: 1-iodoheptane, C7H15I, InChI=1S/C7H15I/c1-2-3-4-5-6-7-8/h2-7H2,1H3, purity 0.98%
Compound 3: 1-chlorononane, C9H19Cl, InChI=1S/C9H19Cl/c1-2-3-4-5-6-7-8-9-10/h2-9H2,1H3, purity 0.99%

System: 1-iodohexane; phases: Liquid
Fixed: Pressure, kPa = 100
Property: Kinematic viscosity, m2/s (Liquid); method: Capillary tube (Ostwald; Ubbelohde) method
Temperature, K	Kinematic viscosity, m2/s	uncertainty
297.25	9.099e-07	1.92e-08
298.15	9.026e-07	1.91e-08
298.25	8.999e-07	1.91e-08
300.25	8.743e-07	1.86e-08
318.15	7.007e-07	1.5e-08
319.15	6.89e-07	1.46e-08
323.15	6.625e-07	1.4e-08
328.15	6.261e-07	1.33e-08
333.15	5.971e-07	1.27e-08
338.15	5.679e-07	1.21e-08
343.15	5.394e-07	1.15e-08
348.15	5.179e-07	1.1e-08
358.15	4.741e-07	1.01e-08
368.15	4.366e-07	9.3e-09
383.15	3.913e-07	8.4e-09
393.15	3.643e-07	7.8e-09
413.15	3.189e-07	6.9e-09
423.15	3.01e-07	6.5e-09

System: 1-iodoheptane; phases: Liquid
Fixed: Pressure, kPa = 100
Property: Kinematic viscosity, m2/s (Liquid); method: Capillary tube (Ostwald; Ubbelohde) method
Temperature, K	Kinematic viscosity, m2/s	uncertainty
296.35	1.1796e-06	2.64e-08
297.2	1.1683e-06	2.61e-08
303.5	1.056e-06	2.37e-08
313.2	9.239e-07	2.07e-08
318.15	8.666e-07	1.94e-08
323.15	8.122e-07	1.82e-08
328.15	7.664e-07	1.72e-08
333.15	7.247e-07	1.63e-08
338.15	6.869e-07	1.54e-08
343.15	6.533e-07	1.47e-08
348.15	6.204e-07	1.39e-08
353.15	5.905e-07	1.33e-08
363.15	5.411e-07	1.22e-08
368.15	5.169e-07	1.16e-08
373.15	4.976e-07	1.12e-08
378.15	4.759e-07	1.07e-08
383.15	4.578e-07	1.03e-08
393.15	4.238e-07	9.6e-09
403.15	3.955e-07	8.9e-09
413.15	3.695e-07	8.4e-09
423.15	3.458e-07	7.8e-09

System: 1-chlorononane; phases: Liquid
Fixed: Pressure, kPa = 100
Property: Kinematic viscosity, m2/s (Liquid); method: Capillary tube (Ostwald; Ubbelohde) method
Temperature, K	Kinematic viscosity, m2/s	uncertainty
296.21	1.6827e-06	3.57e-08
300.65	1.5672e-06	3.32e-08
313.15	1.2975e-06	2.76e-08
318.15	1.2103e-06	2.57e-08
323.15	1.1345e-06	2.41e-08
328.15	1.0661e-06	2.26e-08
333.15	1.0038e-06	2.13e-08
338.15	9.479e-07	2.01e-08
343.15	8.971e-07	1.9e-08
348.15	8.515e-07	1.81e-08
353.15	8.09e-07	1.72e-08
358.15	7.72e-07	1.64e-08
363.15	7.371e-07	1.56e-08
368.15	7.044e-07	1.5e-08
373.15	6.73e-07	1.43e-08
383.15	6.194e-07	1.32e-08
393.15	5.719e-07	1.22e-08
403.15	5.305e-07	1.13e-08
413.15	4.937e-07	1.05e-08
