Measured thermophysical data. Henry s Constants of 1-Alkanols and 2-Ketones in Salt Solutions
Source: J. Chem. Eng. Data, 2006, 10.1021/je0600956
Compound 1: acetone, C3H6O, InChI=1S/C3H6O/c1-3(2)4/h1-2H3
Compound 2: butanone, C4H8O, InChI=1S/C4H8O/c1-3-4(2)5/h3H2,1-2H3
Compound 3: pentan-2-one, C5H10O, InChI=1S/C5H10O/c1-3-4-5(2)6/h3-4H2,1-2H3
Compound 4: 2-hexanone, C6H12O, InChI=1S/C6H12O/c1-3-4-5-6(2)7/h3-5H2,1-2H3
Compound 5: 2-heptanone, C7H14O, InChI=1S/C7H14O/c1-3-4-5-6-7(2)8/h3-6H2,1-2H3
Compound 6: ethanol, C2H6O, InChI=1S/C2H6O/c1-2-3/h3H,2H2,1H3
Compound 7: propan-1-ol, C3H8O, InChI=1S/C3H8O/c1-2-3-4/h4H,2-3H2,1H3
Compound 8: butan-1-ol, C4H10O, InChI=1S/C4H10O/c1-2-3-4-5/h5H,2-4H2,1H3
Compound 9: pentan-1-ol, C5H12O, InChI=1S/C5H12O/c1-2-3-4-5-6/h6H,2-5H2,1H3
Compound 10: hexan-1-ol, C6H14O, InChI=1S/C6H14O/c1-2-3-4-5-6-7/h7H,2-6H2,1H3
Compound 11: sodium chloride, ClNa, InChI=1S/ClH.Na/h1H;/q;+1/p-1
Compound 12: sodium sulfate, Na2O4S, InChI=1S/2Na.H2O4S/c;;1-5(2,3)4/h;;(H2,1,2,3,4)/q2*+1;/p-2
Compound 13: water, H2O, InChI=1S/H2O/h1H2

System: acetone + sodium chloride + water; phases: Liquid, Gas
Fixed: Mole fraction of acetone = 0
Property: Henry's Law constant (mole fraction scale), kPa of acetone (Liquid); method: Chromatography
Temperature, K	Solvent: Molality, mol/kg of sodium chloride	Henry's Law constant (mole fraction scale), kPa of acetone	uncertainty
313	0	454	36
313	0.2	629	124
313	0.4	497	58
313	0.6	523	90
313	0.8	542	68
313	1	569	108
313	1.2	600	106
323	0	686	32
323	0.2	892	194
323	0.4	718	76
323	0.6	763	72
323	0.8	789	92
323	1	824	66
323	1.2	866	82
333	0	1016	44
333	0.2	1310	260
333	0.4	1089	172
333	0.6	1090	48
333	0.8	1150	80
333	1	1250	62
333	1.2	1301	74
343	0	1489	80
343	0.2	1500	240
343	0.4	1570	260
343	0.6	1600	260
343	0.8	1680	240
343	1	1830	260
343	1.2	1880	260
353	0	2086	47
353	0.2	2207	108
353	0.4	2295	142
353	0.6	2420	240
353	0.8	2496	192
353	1	2660	260
353	1.2	2790	280
363	0	2910	320
363	0.2	3180	520
363	0.4	3320	580
363	0.6	3500	540
363	0.8	3560	480
363	1	3900	560
363	1.2	4090	680

System: butanone + sodium chloride + water; phases: Liquid, Gas
Fixed: Mole fraction of butanone = 0
Property: Henry's Law constant (mole fraction scale), kPa of butanone (Liquid); method: Chromatography
Temperature, K	Solvent: Molality, mol/kg of sodium chloride	Henry's Law constant (mole fraction scale), kPa of butanone	uncertainty
313	0	721	7
313	0.2	767	8
313	0.4	794	82
313	0.6	842	144
313	0.8	883	104
313	1	940	140
313	1.2	1006	146
323	0	1167	52
323	0.2	1301	104
323	0.4	1252	92
323	0.6	1362	88
323	0.8	1436	122
323	1	1520	82
323	1.2	1614	106
333	0	1775	60
333	0.2	1982	68
333	0.4	1906	72
333	0.6	1965	98
333	0.8	2114	96
333	1	2359	88
333	1.2	2480	84
343	0	2670	200
343	0.2	2740	460
343	0.4	2920	480
343	0.6	3010	500
343	0.8	3170	480
343	1	3510	520
343	1.2	3660	540
353	0	3733	147
353	0.2	3906	290
353	0.4	4120	400
353	0.6	4400	580
353	0.8	4590	480
353	1	4910	520
353	1.2	5250	620
363	0	4960	960
363	0.2	5030	1160
363	0.4	5300	1260
363	0.6	5640	1280
363	0.8	5820	1240
363	1	6410	1400
363	1.2	6800	1580

System: pentan-2-one + sodium chloride + water; phases: Liquid, Gas
Fixed: Mole fraction of pentan-2-one = 0
Property: Henry's Law constant (mole fraction scale), kPa of pentan-2-one (Liquid); method: Chromatography
Temperature, K	Solvent: Molality, mol/kg of sodium chloride	Henry's Law constant (mole fraction scale), kPa of pentan-2-one	uncertainty
313	0	1149	64
313	0.2	1243	74
313	0.4	1321	130
313	0.6	1420	196
313	0.8	1508	150
313	1	1619	172
313	1.2	1759	172
323	0	1819	84
323	0.2	1950	120
323	0.4	1991	108
323	0.6	2214	112
323	0.8	2371	154
323	1	2538	120
323	1.2	2721	142
333	0	2826	85
333	0.2	3063	134
333	0.4	3124	142
333	0.6	3207	216
333	0.8	3510	117
333	1	4013	197
333	1.2	4251	161
343	0	4300	260
343	0.2	4630	360
343	0.4	5020	360
343	0.6	5228	388
343	0.8	5556	393
343	1	6217	397
343	1.2	6580	441
353	0	6290	361
353	0.2	6640	640
353	0.4	7090	880
353	0.6	7636	1142
353	0.8	8050	1000
353	1	6640	1500
353	1.2	7170	1500
363	0	8690	881
363	0.2	9440	1600
363	0.4	10070	1760
363	0.6	10780	1760
363	0.8	11240	1581
363	1	12490	1881
363	1.2	13410	2281

System: 2-hexanone + sodium chloride + water; phases: Liquid, Gas
Fixed: Mole fraction of 2-hexanone = 0
Property: Henry's Law constant (mole fraction scale), kPa of 2-hexanone (Liquid); method: Chromatography
Temperature, K	Solvent: Molality, mol/kg of sodium chloride	Henry's Law constant (mole fraction scale), kPa of 2-hexanone	uncertainty
313	0	1497	180
313	0.2	1630	216
313	0.4	1773	240
313	0.6	1930	320
313	0.8	2070	280
313	1	2240	300
313	1.2	2460	320
323	0	2429	33
323	0.2	2602	59
323	0.4	2704	51
323	0.6	3056	43
323	0.8	3322	115
323	1	3589	56
323	1.2	3874	64
333	0	3822	234
333	0.2	4160	440
333	0.4	4320	360
333	0.6	4440	420
333	0.8	4930	307
333	1	5740	440
333	1.2	6130	421
343	0	5740	1140
343	0.2	6280	1260
343	0.4	6900	1360
343	0.6	7260	1440
343	0.8	7780	1560
343	1	8790	1740
343	1.2	9420	1860
353	0	9370	1720
353	0.2	10020	2140
353	0.4	10840	2500
353	0.6	11800	2880
353	0.8	12590	2900
353	1	10440	2300
353	1.2	11390	2580
363	0	11900	2660
363	0.2	12930	3320
363	0.4	13830	3700
363	0.6	14910	3900
363	0.8	15800	3880
363	1	17760	4480
363	1.2	19170	5060

System: 2-heptanone + sodium chloride + water; phases: Liquid, Gas
Fixed: Mole fraction of 2-heptanone = 0
Property: Henry's Law constant (mole fraction scale), kPa of 2-heptanone (Liquid); method: Chromatography
Temperature, K	Solvent: Molality, mol/kg of sodium chloride	Henry's Law constant (mole fraction scale), kPa of 2-heptanone	uncertainty
313	0	2220	90
313	0.2	2340	260
313	0.4	2583	192
313	0.6	2845	162
313	0.8	3080	222
313	1	3340	300
313	1.2	3690	340
323	0	3630	300
323	0.2	3910	340
323	0.4	3960	360
323	0.6	4635	398
323	0.8	5120	480
323	1	5610	480
323	1.2	6010	520
333	0	5680	1020
333	0.2	6330	1180
333	0.4	6500	1140
333	0.6	6417	1170
333	0.8	7270	1300
333	1	8910	1560
333	1.2	9430	1640
343	0	9510	2080
343	0.2	10510	2400
343	0.4	11670	2760
343	0.6	12385	2832
343	0.8	13370	2980
343	1	15250	3500
343	1.2	16470	3760
353	0	15830	3340
353	0.2	16660	3680
353	0.4	18240	3961
353	0.6	20019	4379
353	0.8	21660	4701
353	1	17950	3921
353	1.2	19720	4281
363	0	21730	3061
363	0.2	23310	4241
363	0.4	25270	4621
363	0.6	27396	4963
363	0.8	29360	5341
363	1	33250	6021
363	1.2	36140	6561

System: ethanol + water + sodium sulfate; phases: Liquid, Gas
Fixed: Mole fraction of ethanol = 0
Property: Henry's Law constant (mole fraction scale), kPa of ethanol (Liquid); method: Chromatography
Temperature, K	Solvent: Molality, mol/kg of sodium sulfate	Henry's Law constant (mole fraction scale), kPa of ethanol	uncertainty
313	0	68	8
313	0.2	81	18
313	0.4	91	22
313	0.6	110	20
313	0.8	120	20
313	1	140	20
313	1.2	160	20
323	0	144	34
323	0.2	167	40
323	0.4	180	40
323	0.6	210	60
323	0.8	240	60
323	1	260	60
323	1.2	300	80
333	0	251	46
333	0.2	280	60
333	0.4	320	60
333	0.6	360	60
333	0.8	400	80
333	1	430	80
333	1.2	490	100
343	0	382	48
343	0.2	430	60
343	0.4	460	60
343	0.6	520	80
343	0.8	570	80
343	1	620	100
343	1.2	700	100
353	0	613	194
353	0.2	690	220
353	0.4	760	240
353	0.6	800	260
353	0.8	850	280
353	1	950	300
353	1.2	1020	340
363	0	950	260
363	0.2	1020	300
363	0.4	1120	320
363	0.6	1170	340
363	0.8	1230	340
363	1	1300	360
363	1.2	1400	380

System: propan-1-ol + water + sodium sulfate; phases: Liquid, Gas
Fixed: Mole fraction of propan-1-ol = 0
Property: Henry's Law constant (mole fraction scale), kPa of propan-1-ol (Liquid); method: Chromatography
Temperature, K	Solvent: Molality, mol/kg of sodium sulfate	Henry's Law constant (mole fraction scale), kPa of propan-1-ol	uncertainty
313	0	126	16
313	0.4	180	40
313	0.6	220	60
313	0.8	250	60
313	1	310	60
313	1.2	360	6
323	0	220	40
323	0.2	270	52
323	0.4	310	60
323	0.6	360	80
323	0.8	420	80
323	1	480	100
323	1.2	560	120
333	0	382	32
333	0.2	440	40
333	0.4	515	46
333	0.6	599	50
333	0.8	690	60
333	1	770	60
333	1.2	910	80
343	0	626	32
343	0.2	739	42
343	0.4	835	54
343	0.6	950	100
343	0.8	1090	100
343	1	1230	100
343	1.2	1410	140
353	0	1070	200
353	0.2	1270	260
353	0.4	1430	280
353	0.6	1570	320
353	0.8	1720	360
353	1	1980	420
353	1.2	2180	480
363	0	2030	440
363	0.2	2300	500
363	0.6	2760	640
363	0.8	2990	700
363	1	3250	720
363	1.2	3580	800

System: butan-1-ol + water + sodium sulfate; phases: Liquid, Gas
Fixed: Mole fraction of butan-1-ol = 0
Property: Henry's Law constant (mole fraction scale), kPa of butan-1-ol (Liquid); method: Chromatography
Temperature, K	Solvent: Molality, mol/kg of sodium sulfate	Henry's Law constant (mole fraction scale), kPa of butan-1-ol	uncertainty
313	0	184	12
313	0.2	230	40
313	0.4	280	40
313	0.6	350	60
313	0.8	420	80
313	1	520	60
313	1.2	631	72
323	0	310	60
323	0.2	380	80
323	0.4	450	80
323	0.6	550	100
323	0.8	660	120
323	1	780	160
323	1.2	920	200
333	0	624	44
333	0.2	742	58
333	0.4	888	66
333	0.6	1064	76
333	0.8	1275	94
333	1	1460	100
333	1.2	1760	120
343	0	1000	60
343	0.2	1221	74
343	0.4	1428	96
343	0.6	1665	160
343	0.8	1960	180
343	1	2284	200
343	1.2	2690	260
353	0	1730	280
353	0.2	2100	360
353	0.4	2430	400
353	0.6	2760	520
353	0.8	3110	580
353	1	3680	700
353	1.2	4160	800
363	0	2680	560
363	0.2	3120	660
363	0.4	3570	760
363	0.6	3910	880
363	0.8	4400	960
363	1	4900	1020
363	1.2	5560	1160

System: pentan-1-ol + water + sodium sulfate; phases: Liquid, Gas
Fixed: Mole fraction of pentan-1-ol = 0
Property: Henry's Law constant (mole fraction scale), kPa of pentan-1-ol (Liquid); method: Chromatography
Temperature, K	Solvent: Molality, mol/kg of sodium sulfate	Henry's Law constant (mole fraction scale), kPa of pentan-1-ol	uncertainty
313	0	160	20
313	0.2	210	40
313	0.4	260	40
313	0.6	330	60
313	0.8	410	80
313	1	523	78
313	1.2	650	100
323	0	369	196
323	0.2	455	64
323	0.4	550	80
323	0.6	690	100
323	0.8	850	120
323	1	1030	180
323	1.2	1270	220
333	0	683	126
333	0.2	830	46
333	0.4	1017	52
333	0.6	1250	60
333	0.8	1549	78
333	1	1820	90
333	1.2	2256	106
343	0	1180	260
343	0.2	1479	88
343	0.4	1784	124
343	0.6	2130	218
343	0.8	2570	254
343	1	3072	314
343	1.2	3700	400
353	0	2000	800
353	0.2	2510	360
353	0.4	2970	400
353	0.6	3480	560
353	0.8	4030	660
353	1	4890	780
353	1.2	5700	920
363	0	3410	1160
363	0.2	4080	800
363	0.4	4780	960
363	0.6	5360	1140
363	0.8	6250	1246
363	1	7140	1380
363	1.2	8380	1620

System: hexan-1-ol + water + sodium sulfate; phases: Liquid, Gas
Fixed: Mole fraction of hexan-1-ol = 0
Property: Henry's Law constant (mole fraction scale), kPa of hexan-1-ol (Liquid); method: Chromatography
Temperature, K	Solvent: Molality, mol/kg of sodium sulfate	Henry's Law constant (mole fraction scale), kPa of hexan-1-ol	uncertainty
313	0	360	40
313	0.2	520	100
313	0.4	675	114
313	0.6	890	160
313	0.8	1130	180
313	1	1486	188
313	1.2	1910	240
323	0	620	100
323	0.2	768	116
323	0.4	945	142
323	0.6	1210	200
323	0.8	1520	240
323	1	1905	334
323	1.2	2400	460
333	0	1137	44
333	0.2	1374	56
333	0.4	1721	86
333	0.6	2162	86
333	0.8	2760	120
333	1	3340	141
333	1.2	4230	181
343	0	1840	64
343	0.2	2336	148
343	0.4	2905	220
343	0.6	3553	392
343	0.8	4291	442
343	1	5460	640
343	1.2	6740	780
353	0	3140	360
353	0.2	4010	530
353	0.4	4850	580
353	0.6	5890	900
353	0.8	7010	1052
353	1	8740	1260
353	1.2	10490	1560
363	0	4510	800
363	0.2	5520	1020
363	0.4	6660	1240
363	0.6	7680	1580
363	0.8	9290	1720
363	1	10900	1980
363	1.2	13210	2360
