Measured thermophysical data. Solubility of o-Phthalic Acid in Methanol + Water and Methanol + Butyl Acetate from (295.87 to 359.75) K
Source: J. Chem. Eng. Data, 2006, 10.1021/je0600505
Compound 1: methanol, CH4O, InChI=1S/CH4O/c1-2/h2H,1H3
Compound 2: butyl ethanoate, C6H12O2, InChI=1S/C6H12O2/c1-3-4-5-8-6(2)7/h3-5H2,1-2H3
Compound 3: 1,2-benzenedicarboxylic acid, C8H6O4, InChI=1S/C8H6O4/c9-7(10)5-3-1-2-4-6(5)8(11)12/h1-4H,(H,9,10)(H,11,12)
Compound 4: water, H2O, InChI=1S/H2O/h1H2

System: 1,2-benzenedicarboxylic acid + water; phases: Liquid, Crystal
Fixed: Pressure, kPa = 101
Property: Mole fraction of 1,2-benzenedicarboxylic acid (Liquid); method: laser intensity
Temperature, K	Mole fraction of 1,2-benzenedicarboxylic acid	uncertainty
295.87	0.0005788	2.32e-05
298.65	0.0006513	2.62e-05
301.17	0.0007433	2.99e-05
303.79	0.0008477	3.4e-05
306.55	0.0009426	3.79e-05
308.97	0.00106	4.3e-05
311.96	0.00119	4.8e-05
315.53	0.001383	5.6e-05
319.27	0.001621	6.5e-05
322.78	0.001844	7.4e-05
325.43	0.002078	8.3e-05
328.2	0.002332	9.4e-05
332.07	0.00266	0.000107
335.95	0.003099	0.000124
339.21	0.003543	0.000142
342.1	0.003991	0.00016
344.37	0.004471	0.00018
347.35	0.005151	0.000207
350.23	0.005808	0.000233
352.45	0.006435	0.000258

System: methanol + 1,2-benzenedicarboxylic acid; phases: Liquid, Crystal
Fixed: Pressure, kPa = 101
Property: Mole fraction of 1,2-benzenedicarboxylic acid (Liquid); method: laser intensity
Temperature, K	Mole fraction of 1,2-benzenedicarboxylic acid	uncertainty
302.67	0.05591	0.00225
305.75	0.05902	0.00237
308.63	0.06209	0.0025
311.55	0.06513	0.00262
314.35	0.06817	0.00274
317.03	0.07121	0.00286
319.71	0.07427	0.00299
322.29	0.0773	0.00311
324.85	0.08034	0.00323
327.35	0.08342	0.00336
329.83	0.0865	0.00348
332.25	0.08953	0.0036

System: 1,2-benzenedicarboxylic acid + butyl ethanoate; phases: Liquid, Crystal
Fixed: Pressure, kPa = 101
Property: Mole fraction of 1,2-benzenedicarboxylic acid (Liquid); method: laser intensity
Temperature, K	Mole fraction of 1,2-benzenedicarboxylic acid	uncertainty
304.89	0.002573	0.000103
310.12	0.002958	0.000119
315.87	0.003294	0.000132
320.35	0.00364	0.000146
325.33	0.00408	0.000164
330.25	0.004587	0.000184
334.75	0.00506	0.000203
338.99	0.005583	0.000224
341.55	0.006117	0.000246
345.83	0.006724	0.00027
352.01	0.007751	0.000311
356.07	0.008515	0.000342
359.75	0.009362	0.000376

System: methanol + 1,2-benzenedicarboxylic acid + water; phases: Liquid, Crystal
Fixed: Pressure, kPa = 101
Property: Mole fraction of 1,2-benzenedicarboxylic acid (Liquid); method: laser intensity
Temperature, K	Solvent: Mass fraction of methanol	Mole fraction of 1,2-benzenedicarboxylic acid	uncertainty
295.87	0	0.0005788	2.32e-05
298.65	0	0.0006513	2.62e-05
300.77	0.3998	0.005883	0.000265
301.17	0	0.0007433	2.99e-05
301.38	0.5998	0.01819	0.00074
302.01	0.7997	0.03155	0.00128
302.67	1	0.05591	0.00225
302.96	0.3998	0.006818	0.000288
303.36	0.1995	0.001923	8.3e-05
303.79	0	0.0008477	3.4e-05
304.35	0.5998	0.02009	0.00082
304.94	0.7997	0.0337	0.00137
305.75	1	0.05902	0.00237
306.1	0.3998	0.007916	0.000331
306.55	0	0.0009426	3.79e-05
307.21	0.1995	0.002327	0.0001
308	0.5998	0.02263	0.00092
308.16	0.7997	0.03591	0.00146
308.63	1	0.06209	0.0025
308.97	0	0.00106	4.3e-05
309.16	0.3998	0.009162	0.000383
310.48	0.1995	0.002738	0.000118
310.7	0.7997	0.03826	0.00155
311.55	1	0.06513	0.00262
311.64	0.5998	0.02545	0.00103
311.96	0	0.00119	4.8e-05
312.13	0.3998	0.01054	0.00044
313.07	0.7997	0.04088	0.00166
313.43	0.1995	0.003151	0.000135
314.35	1	0.06817	0.00274
315.27	0.5998	0.02874	0.00117
315.41	0.3998	0.01214	0.0005
315.53	0	0.001383	5.6e-05
315.77	0.7997	0.04392	0.00178
317.03	1	0.07121	0.00286
317.56	0.1995	0.003879	0.000168
318.42	0.7997	0.04743	0.00192
318.75	0.3998	0.01401	0.00058
319.27	0	0.001621	6.5e-05
319.43	0.5998	0.03223	0.00131
319.71	1	0.07427	0.00299
321.87	0.3998	0.01595	0.00066
322.08	0.1995	0.004915	0.00021
322.29	1	0.0773	0.00311
322.66	0.7997	0.05179	0.00209
322.78	0	0.001844	7.4e-05
323.16	0.5998	0.03611	0.00146
324.5	0.3998	0.018	0.00074
324.85	1	0.08034	0.00323
325.43	0	0.002078	8.3e-05
326.02	0.1995	0.00609	0.00026
326.28	0.3998	0.02014	0.00083
326.37	0.7997	0.05604	0.00226
327.35	1	0.08342	0.00336
327.59	0.5998	0.04178	0.00169
328.2	0	0.002332	9.4e-05
329.11	0.1995	0.007101	0.000303
329.67	0.3998	0.02301	0.00094
329.83	1	0.0865	0.00348
330.64	0.7997	0.06119	0.00247
331.36	0.1995	0.007806	0.00033
332.07	0	0.00266	0.000107
332.25	1	0.08953	0.0036
332.7	0.5998	0.04826	0.00195
333.14	0.3998	0.02624	0.00107
334.21	0.1995	0.009058	0.000385
335.65	0.3998	0.0299	0.00122
335.95	0	0.003099	0.000124
336.04	0.7997	0.06763	0.00272
336.44	0.1995	0.0101	0.00043
337.98	0.5998	0.05552	0.00224
338.78	0.3998	0.03429	0.0014
339.17	0.1995	0.01208	0.00051
339.21	0	0.003543	0.000142
340.53	0.7997	0.07386	0.00297
341.99	0.1995	0.01397	0.00059
342.1	0	0.003991	0.00016
342.91	0.3998	0.03997	0.00162
343.23	0.5998	0.0633	0.00256
344.37	0	0.004471	0.00018
345.17	0.1995	0.01655	0.0007
347.35	0	0.005151	0.000207
347.66	0.3998	0.04661	0.0019
348.74	0.1995	0.01959	0.00081
350.23	0	0.005808	0.000233
351.56	0.1995	0.02275	0.00095
351.7	0.3998	0.05309	0.00216
352.45	0	0.006435	0.000258
354.37	0.1995	0.02637	0.00107
357.26	0.1995	0.03072	0.00125

System: methanol + 1,2-benzenedicarboxylic acid + butyl ethanoate; phases: Liquid, Crystal
Fixed: Pressure, kPa = 101
Property: Mole fraction of 1,2-benzenedicarboxylic acid (Liquid); method: laser intensity
Solvent: Mass fraction of methanol	Temperature, K	Mole fraction of 1,2-benzenedicarboxylic acid	uncertainty
0	304.89	0.002573	0.000103
0	310.12	0.002958	0.000119
0	315.87	0.003294	0.000132
0	320.35	0.00364	0.000146
0	325.33	0.00408	0.000164
0	330.25	0.004587	0.000184
0	334.75	0.00506	0.000203
0	338.99	0.005583	0.000224
0	341.55	0.006117	0.000246
0	345.83	0.006724	0.00027
0	352.01	0.007751	0.000311
0	356.07	0.008515	0.000342
0	359.75	0.009362	0.000376
0.1997	303.1	0.01863	0.00077
0.1997	305.82	0.01953	0.0008
0.1997	309.65	0.02082	0.00086
0.1997	313.56	0.02182	0.0009
0.1997	316.52	0.02276	0.00093
0.1997	320.44	0.02377	0.00098
0.1997	324.07	0.02478	0.00102
0.1997	327.66	0.02586	0.00106
0.1997	332.67	0.02704	0.00111
0.1997	334.3	0.02792	0.00115
0.3992	304.57	0.03555	0.00144
0.3992	307.2	0.03711	0.0015
0.3992	310.62	0.03879	0.00157
0.3992	314.04	0.04053	0.00164
0.3992	317.66	0.0423	0.00171
0.3992	320.77	0.04409	0.00178
0.3992	324.25	0.04592	0.00185
0.3992	327.82	0.04783	0.00193
0.3992	330.86	0.04981	0.00201
0.3992	334.26	0.05187	0.00209
0.6001	300.46	0.04255	0.00171
0.6001	303.37	0.04471	0.0018
0.6001	306.5	0.04687	0.00189
0.6001	309.74	0.04906	0.00197
0.6001	312.88	0.05125	0.00206
0.6001	315.77	0.05344	0.00215
0.6001	318.86	0.05573	0.00224
0.6001	321.7	0.05792	0.00233
0.6001	324.82	0.0602	0.00242
0.6001	327.74	0.06248	0.00252
0.6001	330.77	0.0648	0.00261
0.6001	333.94	0.06717	0.00271
0.8	303.62	0.05167	0.00208
0.8	306.24	0.05412	0.00218
0.8	309.46	0.05662	0.00228
0.8	312.13	0.0591	0.00238
0.8	315.22	0.06168	0.00248
0.8	317.91	0.06429	0.00259
0.8	320.96	0.06696	0.00269
0.8	324.22	0.06975	0.00281
0.8	326.24	0.07268	0.00293
0.8	328.99	0.07576	0.00305
0.8	332.06	0.07901	0.00318
0.8	335.2	0.08247	0.00332
1	302.67	0.05591	0.00225
1	305.75	0.05902	0.00237
1	308.63	0.06209	0.0025
1	311.55	0.06513	0.00262
1	314.35	0.06817	0.00274
1	317.03	0.07121	0.00286
1	319.71	0.07427	0.00299
1	322.29	0.0773	0.00311
1	324.85	0.08034	0.00323
1	327.35	0.08342	0.00336
1	329.83	0.0865	0.00348
1	332.25	0.08953	0.0036
