Measured thermophysical data. Vapor-Liquid Equilibria and HE for Binary Systems of Dimethyl Ether (DME) with C1-C4 Alkan-1-ols at 323.15 K and Liquid-Liquid Equilibria for Ternary System of DME + Methanol + Water at 313.15 K
Source: J. Chem. Eng. Data, 2007, 10.1021/je0603574
Compound 1: water, H2O, InChI=1S/H2O/h1H2
Compound 2: dimethyl ether, C2H6O, InChI=1S/C2H6O/c1-3-2/h1-2H3, purity 99.5%
Compound 3: methanol, CH4O, InChI=1S/CH4O/c1-2/h2H,1H3, purity 99.8%
Compound 4: ethanol, C2H6O, InChI=1S/C2H6O/c1-2-3/h3H,2H2,1H3, purity 99.8%
Compound 5: propan-1-ol, C3H8O, InChI=1S/C3H8O/c1-2-3-4/h4H,2-3H2,1H3, purity 99.5%
Compound 6: butan-1-ol, C4H10O, InChI=1S/C4H10O/c1-2-3-4-5/h5H,2-4H2,1H3, purity 99.5%

System: dimethyl ether; phases: Liquid, Gas
Fixed: Temperature, K = 323.15
Property: Vapor or sublimation pressure, kPa (Liquid); method: Closed cell (Static) method
Vapor or sublimation pressure, kPa	uncertainty
1143	5.07
1142.9	5.07
1143.2	5.07

System: methanol; phases: Liquid, Gas
Property: Vapor or sublimation pressure, kPa (Liquid); method: Closed cell (Static) method
Temperature, K	Vapor or sublimation pressure, kPa	uncertainty
323.15	55.3	0.25

System: ethanol; phases: Liquid, Gas
Property: Vapor or sublimation pressure, kPa (Liquid); method: Closed cell (Static) method
Temperature, K	Vapor or sublimation pressure, kPa	uncertainty
323.15	29.37	0.14

System: propan-1-ol; phases: Liquid, Gas
Property: Vapor or sublimation pressure, kPa (Liquid); method: Closed cell (Static) method
Temperature, K	Vapor or sublimation pressure, kPa	uncertainty
323.15	12.32	0.07

System: butan-1-ol; phases: Liquid, Gas
Property: Vapor or sublimation pressure, kPa (Liquid); method: Closed cell (Static) method
Temperature, K	Vapor or sublimation pressure, kPa	uncertainty
323.15	4.61	0.05

System: methanol + dimethyl ether; phases: Liquid, Gas
Fixed: Temperature, K = 323.15
Property: Excess molar enthalpy (molar enthalpy of mixing), kJ/mol (Liquid); method: Flow calorimetry
Mole fraction of dimethyl ether	Excess molar enthalpy (molar enthalpy of mixing), kJ/mol	uncertainty
0.03	0.0244	0.001
0.0614	0.0534	0.0015
0.0941	0.0848	0.0022
0.1282	0.121	0.0029
0.164	0.157	0.0036
0.2014	0.195	0.0044
0.2406	0.236	0.0053
0.2818	0.278	0.0062
0.325	0.32	0.0071
0.3704	0.361	0.0079
0.4183	0.397	0.0087
0.4688	0.434	0.0095
0.5222	0.467	0.0102
0.5786	0.491	0.0107
0.6384	0.504	0.0109
0.7018	0.502	0.0109
0.7693	0.471	0.0103
0.8412	0.398	0.0087
0.9179	0.253	0.0057

System: methanol + dimethyl ether; phases: Liquid, Gas
Fixed: Temperature, K = 323.15
Property: Vapor or sublimation pressure, kPa (Liquid); method: Closed cell (Static) method
Mole fraction of dimethyl ether	Vapor or sublimation pressure, kPa	uncertainty
0	55.3	0.25
0.0077	71.99	0.53
0.0237	104.9	0.6
0.0323	122	0.7
0.0567	169.7	0.8
0.0725	199.9	1
0.0859	224.9	1.1
0.093	237.9	1.1
0.1321	306.3	1.4
0.1727	371.9	1.7
0.2135	433.2	1.9
0.2526	487.3	2.1
0.2881	532.8	2.3
0.3074	556.4	2.4
0.3267	578.9	2.5
0.3468	601.5	2.6
0.3589	614.2	2.7
0.3992	654.3	2.9
0.4434	695.2	3.1
0.4909	736	3.2
0.5413	776.4	3.4
0.594	816.2	3.6
0.6486	855.7	3.8
0.7029	894.1	3.9
0.7563	931.9	4.1
0.8023	965.4	4.3
0.8443	997.4	4.4
0.881	1027.1	4.5
0.9115	1053.6	4.7
0.9367	1076.8	4.8
0.9542	1094	4.9
0.967	1106.8	4.9
0.9763	1116.7	5
0.9857	1127	5
0.9904	1132.3	5
0.9952	1137.7	5.1
1	1143	5.1

System: ethanol + dimethyl ether; phases: Liquid, Gas
Fixed: Temperature, K = 323.15
Property: Excess molar enthalpy (molar enthalpy of mixing), kJ/mol (Liquid); method: Flow calorimetry
Mole fraction of dimethyl ether	Excess molar enthalpy (molar enthalpy of mixing), kJ/mol	uncertainty
0.0428	0.0874	0.0022
0.0862	0.177	0.0041
0.1303	0.261	0.0058
0.175	0.341	0.0075
0.2205	0.416	0.0091
0.2667	0.486	0.0106
0.3137	0.549	0.0119
0.3614	0.606	0.0131
0.4098	0.653	0.0141
0.4591	0.693	0.015
0.5092	0.716	0.0154
0.5601	0.733	0.0158
0.6118	0.739	0.0159
0.6645	0.725	0.0156
0.718	0.693	0.015
0.7725	0.639	0.0138
0.8279	0.551	0.0119
0.8842	0.426	0.0093
0.9416	0.244	0.0055

System: ethanol + dimethyl ether; phases: Liquid, Gas
Fixed: Temperature, K = 323.15
Property: Vapor or sublimation pressure, kPa (Liquid); method: Closed cell (Static) method
Mole fraction of dimethyl ether	Vapor or sublimation pressure, kPa	uncertainty
0	29.37	0.14
0.03	81.99	0.5
0.0556	125.4	0.7
0.0676	145.8	0.7
0.0871	177.9	0.9
0.1	198.8	0.9
0.1379	258	1.2
0.148	273.3	1.2
0.1999	348.7	1.6
0.2496	416.2	1.8
0.2976	477.3	2.1
0.3418	529.9	2.3
0.3837	576.9	2.5
0.4078	603.4	2.7
0.4174	612.8	2.7
0.4364	632.5	2.8
0.4479	642.5	2.8
0.4905	682	3
0.5359	722.1	3.2
0.583	762	3.4
0.6313	801.4	3.5
0.68	840.3	3.7
0.7284	878.9	3.9
0.7748	916.2	4
0.8188	952.9	4.2
0.8554	985	4.4
0.8879	1015.2	4.5
0.9156	1042.7	4.6
0.9382	1066.7	4.7
0.9564	1087.3	4.8
0.9689	1102.2	4.9
0.9779	1113.5	4.9
0.9842	1121.6	5
0.9906	1130	5
0.9938	1134.2	5
0.9969	1138.6	5.1
1	1142.9	5.1

System: propan-1-ol + dimethyl ether; phases: Liquid, Gas
Fixed: Temperature, K = 323.15
Property: Excess molar enthalpy (molar enthalpy of mixing), kJ/mol (Liquid); method: Flow calorimetry
Mole fraction of dimethyl ether	Excess molar enthalpy (molar enthalpy of mixing), kJ/mol	uncertainty
0.0541	0.144	0.0034
0.1078	0.274	0.0061
0.161	0.392	0.0086
0.2138	0.495	0.0108
0.2661	0.583	0.0126
0.3179	0.661	0.0143
0.3693	0.722	0.0156
0.4203	0.769	0.0166
0.4708	0.804	0.0173
0.521	0.826	0.0178
0.5707	0.824	0.0177
0.62	0.815	0.0175
0.6688	0.789	0.017
0.7173	0.745	0.0161
0.7654	0.685	0.0148
0.8131	0.604	0.0131
0.8604	0.496	0.0108
0.9073	0.362	0.008
0.9538	0.195	0.0045

System: propan-1-ol + dimethyl ether; phases: Liquid, Gas
Fixed: Temperature, K = 323.15
Property: Vapor or sublimation pressure, kPa (Liquid); method: Closed cell (Static) method
Mole fraction of dimethyl ether	Vapor or sublimation pressure, kPa	uncertainty
0	12.32	0.07
0.0183	39.85	0.35
0.0553	93.57	0.51
0.0766	124.3	0.63
0.0904	144	0.71
0.1018	160.6	0.78
0.1173	182.5	0.87
0.1356	208.4	0.97
0.1959	290.2	1.32
0.2526	364	1.64
0.3097	434.7	1.95
0.361	495	2.21
0.4082	548.1	2.45
0.4357	577.8	2.58
0.4605	604.1	2.69
0.4851	629	2.8
0.5101	654.5	2.91
0.5529	694.7	3.09
0.5974	735	3.27
0.6427	776.1	3.45
0.688	816.2	3.63
0.7327	855.8	3.8
0.776	894.8	3.98
0.8167	932	4.14
0.8544	968.9	4.3
0.8852	1000.3	4.44
0.912	1029.5	4.57
0.9344	1055.4	4.69
0.9524	1077.4	4.79
0.9668	1095.8	4.87
0.9764	1108.8	4.93
0.9832	1118.2	4.97
0.9874	1124.3	5
0.9915	1130.4	5.02
0.9958	1136.7	5.05
0.9979	1139.9	5.07
1	1143.2	5.07

System: butan-1-ol + dimethyl ether; phases: Liquid, Gas
Fixed: Temperature, K = 323.15
Property: Excess molar enthalpy (molar enthalpy of mixing), kJ/mol (Liquid); method: Flow calorimetry
Mole fraction of dimethyl ether	Excess molar enthalpy (molar enthalpy of mixing), kJ/mol	uncertainty
0.0655	0.182	0.0042
0.129	0.337	0.0074
0.1904	0.476	0.0104
0.2499	0.59	0.0128
0.3076	0.675	0.0146
0.3635	0.749	0.0161
0.4178	0.8	0.0172
0.4705	0.832	0.0179
0.5216	0.85	0.0183
0.5713	0.852	0.0183
0.6196	0.832	0.0179
0.6666	0.802	0.0173
0.7122	0.76	0.0164
0.7567	0.7	0.0151
0.7999	0.626	0.0135
0.842	0.538	0.0117
0.8831	0.431	0.0094
0.923	0.305	0.0068
0.962	0.162	0.0038

System: butan-1-ol + dimethyl ether; phases: Liquid, Gas
Fixed: Temperature, K = 323.15
Property: Vapor or sublimation pressure, kPa (Liquid); method: Closed cell (Static) method
Mole fraction of dimethyl ether	Vapor or sublimation pressure, kPa	uncertainty
0	4.61	0.05
0.0472	68.28	0.41
0.0751	105.8	0.55
0.1035	143.8	0.7
0.1323	181.7	0.86
0.149	204	0.95
0.1707	231.9	1.07
0.1892	256.1	1.17
0.2588	344	1.55
0.3186	416.8	1.87
0.3744	482.4	2.16
0.4036	515.8	2.31
0.4501	567.9	2.53
0.4775	597.7	2.67
0.5021	624	2.78
0.5182	642.1	2.86
0.5251	648.3	2.89
0.5489	673	3
0.559	682	3.04
0.6006	722.1	3.21
0.6433	762.3	3.39
0.6859	802	3.57
0.7279	841.1	3.74
0.7685	879.2	3.91
0.8074	916.4	4.07
0.8433	951.8	4.23
0.8761	985.9	4.38
0.9026	1014.9	4.51
0.9255	1041.2	4.63
0.9445	1064.5	4.73
0.9596	1084	4.82
0.9716	1100.2	4.89
0.9797	1111.7	4.94
0.9853	1119.9	4.98
0.989	1125.3	5
0.9926	1130.9	5.03
0.9963	1136.7	5.05
0.9982	1139.8	5.07
1	1143.2	5.07

System: dimethyl ether + water; phases: Liquid mixture 1, Liquid mixture 2
Property: Mole fraction of dimethyl ether (Liquid mixture 1); method: CHROM:UFactor:6
Temperature, K	Pressure, kPa	Mole fraction of dimethyl ether	uncertainty
313.15	101	0.8453	

System: dimethyl ether + water; phases: Liquid mixture 2, Liquid mixture 1
Property: Mole fraction of dimethyl ether (Liquid mixture 2); method: CHROM:UFactor:6
Temperature, K	Pressure, kPa	Mole fraction of dimethyl ether	uncertainty
313.15	101	0.1606	

System: methanol + dimethyl ether + water; phases: Liquid mixture 1, Liquid mixture 2
Fixed: Temperature, K = 313.15
Fixed: Pressure, kPa = 101
Property: Mole fraction of methanol (Liquid mixture 1); method: CHROM:UFactor:6
Property: Mole fraction of methanol (Liquid mixture 2); method: CHROM:UFactor:6
Property: Mole fraction of dimethyl ether (Liquid mixture 2); method: CHROM:UFactor:6
Mole fraction of dimethyl ether	Mole fraction of methanol	uncertainty	Mole fraction of methanol	uncertainty	Mole fraction of dimethyl ether	uncertainty
0.8453	0	0.0001	0	0.0001	0.1606	
0.8157	0.0092	0.0006	0.0113	0.0007	0.1866	
0.7977	0.0142	0.0009	0.0178	0.0011	0.1986	
0.7375	0.0258	0.0015	0.0302	0.0018	0.2361	
0.711	0.0289	0.0017	0.0334	0.002	0.2488	
0.6904	0.0318	0.0019	0.0354	0.0021	0.2501	
0.6874	0.033	0.002	0.0374	0.0022	0.2636	
0.6411	0.0379	0.0023	0.0415	0.0025	0.2878	
0.6032	0.0414	0.0025	0.0452	0.0027	0.3205	
0.5171	0.0459	0.0028	0.0467	0.0028	0.3639	
