Measured thermophysical data. Liquid-Liquid Phase Equilibria of (1-Propanol or 2-Propanol + Water) Containing Dipotassium Hydrogen Phosphate
Source: J. Chem. Eng. Data, 2006, 10.1021/je060232z
Compound 1: propan-2-ol, C3H8O, InChI=1S/C3H8O/c1-3(2)4/h3-4H,1-2H3, purity 99.9%
Compound 2: dipotassium hydrogen phosphate, HK2O4P, InChI=1S/2K.H3O4P/c;;1-5(2,3)4/h;;(H3,1,2,3,4)/q2*+1;/p-2, purity 99%
Compound 3: propan-1-ol, C3H8O, InChI=1S/C3H8O/c1-2-3-4/h4H,2-3H2,1H3, purity 99.5%
Compound 4: water, H2O, InChI=1S/H2O/h1H2, purity 99%

System: propan-1-ol + water + dipotassium hydrogen phosphate; phases: Liquid mixture 2, Liquid mixture 1
Fixed: Pressure, kPa = 101
Property: Mass fraction of propan-1-ol (Liquid mixture 2); method: CHROM:UFactor:4
Property: Mass fraction of dipotassium hydrogen phosphate (Liquid mixture 1); method: CHROM:UFactor:4
Property: Mass fraction of propan-1-ol (Liquid mixture 1); method: CHROM:UFactor:4
Temperature, K	Mass fraction of dipotassium hydrogen phosphate	Mass fraction of propan-1-ol	uncertainty	Mass fraction of dipotassium hydrogen phosphate	uncertainty	Mass fraction of propan-1-ol	uncertainty
288.15	0.248	0.0147	0.004	0.0013	0.001	0.648	
288.15	0.243	0.0155	0.004	0.0015	0.001	0.641	
288.15	0.224	0.0358	0.0041	0.0018	0.001	0.628	
288.15	0.19	0.0514	0.0043	0.0031	0.001	0.609	
288.15	0.153	0.078	0.0046	0.0054	0.001	0.573	
288.15	0.119	0.1085	0.005	0.0085	0.001	0.516	
298.15	0.242	0.0151	0.004	0.0011	0.001	0.699	
298.15	0.225	0.0287	0.0041	0.0011	0.001	0.666	
298.15	0.187	0.0488	0.0042	0.0026	0.001	0.636	
298.15	0.148	0.0755	0.0045	0.0046	0.001	0.575	
298.15	0.116	0.1055	0.005	0.0073	0.001	0.533	
308.15	0.285	0.0144	0.004	0.0001	0.0001	0.742	
308.15	0.256	0.0212	0.004	0.0005	0.0005	0.692	
308.15	0.236	0.0268	0.0041	0.0008	0.0008	0.68	
308.15	0.226	0.0291	0.0041	0.0008	0.0008	0.669	
308.15	0.189	0.046	0.0042	0.0028	0.001	0.644	
308.15	0.154	0.0666	0.0044	0.0043	0.001	0.601	
308.15	0.115	0.1	0.0049	0.0072	0.001	0.54	

System: propan-2-ol + water + dipotassium hydrogen phosphate; phases: Liquid mixture 2, Liquid mixture 1
Fixed: Pressure, kPa = 101
Property: Mass fraction of propan-2-ol (Liquid mixture 2); method: Chromatography
Property: Mass fraction of dipotassium hydrogen phosphate (Liquid mixture 1); method: Chromatography
Property: Mass fraction of propan-2-ol (Liquid mixture 1); method: Chromatography
Temperature, K	Mass fraction of dipotassium hydrogen phosphate	Mass fraction of propan-2-ol	uncertainty	Mass fraction of dipotassium hydrogen phosphate	uncertainty	Mass fraction of propan-2-ol	uncertainty
288.15	0.323	0.0156	0.002	0.0051	0.002	0.612	
288.15	0.306	0.0213	0.002	0.0098	0.002	0.555	
288.15	0.295	0.0261	0.002	0.0137	0.002	0.481	
288.15	0.282	0.0301	0.002	0.0193	0.002	0.453	
288.15	0.272	0.0347	0.002	0.0262	0.002	0.412	
288.15	0.233	0.0577	0.002	0.0563	0.002	0.312	
298.15	0.325	0.0137	0.002	0.0016	0.0016	0.694	
298.15	0.3	0.0199	0.002	0.0041	0.002	0.612	
298.15	0.272	0.0309	0.002	0.0093	0.002	0.551	
298.15	0.26	0.0349	0.002	0.0131	0.002	0.492	
298.15	0.234	0.0509	0.002	0.0209	0.002	0.447	
298.15	0.207	0.0699	0.0021	0.0362	0.002	0.37	
298.15	0.194	0.0798	0.0021	0.0453	0.002	0.34	
308.15	0.315	0.015	0.002	0.0005	0.0005	0.695	
308.15	0.297	0.0198	0.002	0.0023	0.002	0.666	
308.15	0.263	0.03	0.002	0.0054	0.002	0.592	
308.15	0.254	0.0354	0.002	0.0066	0.002	0.573	
308.15	0.238	0.0416	0.002	0.0104	0.002	0.512	
308.15	0.203	0.0645	0.0021	0.0187	0.002	0.445	
