Measured thermophysical data. Vapor-Liquid Equilibrium of Binary Mixtures. 1. Ethanol + 1-Butanol, Ethanol + Octane, 1-Butanol + Octane
Source: J. Chem. Eng. Data, 2006, 10.1021/je0600045
Compound 1: butan-1-ol, C4H10O, InChI=1S/C4H10O/c1-2-3-4-5/h5H,2-4H2,1H3
Compound 2: octane, C8H18, InChI=1S/C8H18/c1-3-5-7-8-6-4-2/h3-8H2,1-2H3
Compound 3: ethanol, C2H6O, InChI=1S/C2H6O/c1-2-3/h3H,2H2,1H3

System: ethanol + butan-1-ol; phases: Gas, Liquid
Property: Mole fraction of ethanol (Gas); method: Chromatography
Temperature, K	Mole fraction of ethanol	Mole fraction of ethanol	uncertainty
308.15	0.0307	0.1936	0.005
308.15	0.0607	0.3289	0.0084
308.15	0.0912	0.4323	0.0111
308.15	0.1076	0.4779	0.0122
308.15	0.1502	0.5732	0.0143
308.15	0.1769	0.6204	0.0153
308.15	0.2063	0.6642	0.0162
308.15	0.2327	0.6978	0.017
308.15	0.2858	0.7531	0.0182
308.15	0.3315	0.791	0.0191
308.15	0.3838	0.8264	0.0199
308.15	0.4283	0.8514	0.0205
308.15	0.4691	0.8712	0.0209
308.15	0.5134	0.89	0.0214
308.15	0.5568	0.906	0.0218
308.15	0.5937	0.9182	0.0221
308.15	0.6344	0.9303	0.0223
308.15	0.6691	0.9396	0.0226
308.15	0.7067	0.9489	0.0228
308.15	0.7397	0.9563	0.023
308.15	0.7701	0.9627	0.0231
308.15	0.7971	0.9681	0.0232
308.15	0.8319	0.9745	0.0234
308.15	0.8629	0.9799	0.0201
308.15	0.8925	0.9847	0.0153
308.15	0.9204	0.9889	0.0111
308.15	0.9296	0.9903	0.0097
308.15	0.9464	0.9927	0.0073
308.15	0.9584	0.9944	0.0056
308.15	0.969	0.9959	0.0041
308.15	0.9843	0.9979	0.0021
313.15	0.0307	0.1774	0.0045
313.15	0.0607	0.3062	0.0078
313.15	0.0912	0.4075	0.0104
313.15	0.1076	0.4529	0.0116
313.15	0.1502	0.5494	0.0138
313.15	0.1769	0.5979	0.0148
313.15	0.2063	0.6434	0.0158
313.15	0.2327	0.6786	0.0165
313.15	0.2858	0.737	0.0179
313.15	0.3315	0.7773	0.0188
313.15	0.3838	0.8152	0.0196
313.15	0.4283	0.8421	0.0203
313.15	0.4691	0.8633	0.0208
313.15	0.5134	0.8835	0.0212
313.15	0.5568	0.9007	0.0216
313.15	0.5937	0.9137	0.0219
313.15	0.6344	0.9267	0.0223
313.15	0.6691	0.9366	0.0225
313.15	0.7067	0.9465	0.0227
313.15	0.7397	0.9544	0.0229
313.15	0.7701	0.9612	0.0231
313.15	0.7971	0.9668	0.0232
313.15	0.8319	0.9736	0.0234
313.15	0.8629	0.9792	0.0208
313.15	0.8925	0.9842	0.0158
313.15	0.9204	0.9886	0.0114
313.15	0.9296	0.99	0.01
313.15	0.9464	0.9925	0.0075
313.15	0.9584	0.9943	0.0057
313.15	0.969	0.9958	0.0042
313.15	0.9843	0.9979	0.0021
318.15	0.0307	0.1724	0.0044
318.15	0.0607	0.2986	0.0076
318.15	0.0912	0.3984	0.0102
318.15	0.1076	0.4434	0.0113
318.15	0.1502	0.5392	0.0136
318.15	0.1769	0.5876	0.0146
318.15	0.2063	0.6332	0.0155
318.15	0.2327	0.6686	0.0163
318.15	0.2858	0.7275	0.0176
318.15	0.3315	0.7683	0.0186
318.15	0.3838	0.8068	0.0194
318.15	0.4283	0.8343	0.0201
318.15	0.4691	0.8562	0.0206
318.15	0.5134	0.8769	0.0211
318.15	0.5568	0.8948	0.0215
318.15	0.5937	0.9084	0.0218
318.15	0.6344	0.9219	0.0221
318.15	0.6691	0.9323	0.0224
318.15	0.7067	0.9427	0.0226
318.15	0.7397	0.9511	0.0228
318.15	0.7701	0.9582	0.023
318.15	0.7971	0.9642	0.0231
318.15	0.8319	0.9714	0.0233
318.15	0.8629	0.9774	0.0226
318.15	0.8925	0.9828	0.0172
318.15	0.9204	0.9876	0.0124
318.15	0.9296	0.9892	0.0108
318.15	0.9464	0.9919	0.0081
318.15	0.9584	0.9938	0.0062
318.15	0.969	0.9954	0.0046
318.15	0.9843	0.9977	0.0023
318.15	0.9952	0.9993	0.0007

System: ethanol + octane; phases: Gas, Liquid
Property: Mole fraction of ethanol (Gas); method: Chromatography
Temperature, K	Mole fraction of ethanol	Mole fraction of ethanol	uncertainty
308.15	0.055	0.713	0.017
308.15	0.106	0.755	0.018
308.15	0.153	0.771	0.019
308.15	0.197	0.777	0.019
308.15	0.238	0.78	0.019
308.15	0.309	0.791	0.019
308.15	0.348	0.814	0.02
308.15	0.411	0.816	0.02
308.15	0.471	0.82	0.02
308.15	0.523	0.806	0.019
308.15	0.569	0.811	0.02
308.15	0.611	0.814	0.02
308.15	0.656	0.806	0.019
308.15	0.687	0.812	0.02
308.15	0.722	0.822	0.02
308.15	0.75	0.821	0.02
308.15	0.778	0.828	0.02
308.15	0.816	0.836	0.02
308.15	0.853	0.839	0.02
308.15	0.879	0.849	0.02
308.15	0.91	0.868	0.021
308.15	0.955	0.908	0.022
308.15	0.969	0.928	0.022
308.15	0.988	0.967	0.023
313.15	0.055	0.693	0.017
313.15	0.106	0.763	0.018
313.15	0.153	0.774	0.019
313.15	0.197	0.781	0.019
313.15	0.238	0.802	0.019
313.15	0.309	0.783	0.019
313.15	0.348	0.786	0.019
313.15	0.441	0.798	0.019
313.15	0.523	0.81	0.02
313.15	0.569	0.811	0.02
313.15	0.611	0.808	0.019
313.15	0.656	0.821	0.02
313.15	0.687	0.819	0.02
313.15	0.722	0.821	0.02
313.15	0.777	0.828	0.02
313.15	0.853	0.848	0.02
313.15	0.901	0.866	0.021
313.15	0.919	0.879	0.021
313.15	0.959	0.918	0.022
313.15	0.969	0.933	0.022
313.15	0.98	0.952	0.023
313.15	0.996	0.988	0.012
318.15	0.055	0.683	0.017
318.15	0.106	0.754	0.018
318.15	0.153	0.774	0.019
318.15	0.197	0.784	0.019
318.15	0.238	0.789	0.019
318.15	0.309	0.796	0.019
318.15	0.348	0.799	0.019
318.15	0.411	0.8	0.019
318.15	0.471	0.8	0.019
318.15	0.523	0.803	0.019
318.15	0.569	0.805	0.019
318.15	0.611	0.812	0.02
318.15	0.656	0.817	0.02
318.15	0.687	0.818	0.02
318.15	0.722	0.822	0.02
318.15	0.75	0.826	0.02
318.15	0.778	0.829	0.02
318.15	0.816	0.839	0.02
318.15	0.866	0.854	0.021
318.15	0.901	0.867	0.021
318.15	0.943	0.901	0.022
318.15	0.969	0.935	0.022
318.15	0.971	0.938	0.023
318.15	0.979	0.951	0.023
318.15	0.996	0.988	0.012

System: butan-1-ol + octane; phases: Gas, Liquid
Property: Mole fraction of butan-1-ol (Gas); method: Chromatography
Temperature, K	Mole fraction of butan-1-ol	Mole fraction of butan-1-ol	uncertainty
308.15	0.038	0.165	0.004
308.15	0.07	0.21	0.006
308.15	0.104	0.226	0.006
308.15	0.133	0.259	0.007
308.15	0.168	0.252	0.007
308.15	0.217	0.271	0.007
308.15	0.265	0.284	0.007
308.15	0.311	0.293	0.008
308.15	0.366	0.299	0.008
308.15	0.416	0.306	0.008
308.15	0.464	0.316	0.008
308.15	0.508	0.329	0.009
308.15	0.552	0.324	0.008
308.15	0.601	0.356	0.009
308.15	0.663	0.378	0.01
308.15	0.701	0.385	0.01
308.15	0.733	0.387	0.01
308.15	0.769	0.413	0.011
308.15	0.824	0.463	0.012
308.15	0.876	0.506	0.013
308.15	0.917	0.594	0.015
308.15	0.97	0.773	0.019
308.15	0.991	0.917	0.022
313.15	0.07	0.241	0.006
313.15	0.104	0.249	0.006
313.15	0.133	0.262	0.007
313.15	0.168	0.289	0.007
313.15	0.208	0.301	0.008
313.15	0.226	0.301	0.008
313.15	0.265	0.311	0.008
313.15	0.311	0.317	0.008
313.15	0.366	0.325	0.008
313.15	0.416	0.334	0.009
313.15	0.464	0.347	0.009
313.15	0.508	0.359	0.009
313.15	0.552	0.354	0.009
313.15	0.601	0.37	0.009
313.15	0.663	0.395	0.01
313.15	0.701	0.406	0.01
313.15	0.753	0.439	0.011
313.15	0.796	0.477	0.012
313.15	0.824	0.501	0.013
313.15	0.876	0.54	0.014
313.15	0.91	0.617	0.015
313.15	0.958	0.748	0.018
313.15	0.991	0.93	0.022
318.15	0.038	0.184	0.005
318.15	0.104	0.269	0.007
318.15	0.133	0.286	0.007
318.15	0.168	0.291	0.007
318.15	0.208	0.3	0.008
318.15	0.226	0.307	0.008
318.15	0.265	0.322	0.008
318.15	0.311	0.331	0.008
318.15	0.366	0.345	0.009
318.15	0.416	0.347	0.009
318.15	0.464	0.364	0.009
318.15	0.508	0.377	0.01
318.15	0.552	0.379	0.01
318.15	0.601	0.395	0.01
318.15	0.663	0.423	0.011
318.15	0.701	0.434	0.011
318.15	0.733	0.454	0.012
318.15	0.783	0.481	0.012
318.15	0.876	0.56	0.014
318.15	0.91	0.636	0.016
318.15	0.946	0.718	0.017
318.15	0.98	0.86	0.021
