Measured thermophysical data. Azeotropic and Heats of Mixing Data for Several Binary Organic Systems Containing 1-Methoxy-2-propanol and 2-Butoxy Ethanol
Source: J. Chem. Eng. Data, 2006, 10.1021/je060026r
Compound 1: 1-methoxy-2-propanol, C4H10O2, InChI=1S/C4H10O2/c1-4(5)3-6-2/h4-5H,3H2,1-2H3
Compound 2: benzene, C6H6, InChI=1S/C6H6/c1-2-4-6-5-3-1/h1-6H
Compound 3: decane, C10H22, InChI=1S/C10H22/c1-3-5-7-9-10-8-6-4-2/h3-10H2,1-2H3
Compound 4: toluene, C7H8, InChI=1S/C7H8/c1-7-5-3-2-4-6-7/h2-6H,1H3
Compound 5: 2-butoxyethan-1-ol, C6H14O2, InChI=1S/C6H14O2/c1-2-3-5-8-6-4-7/h7H,2-6H2,1H3
Compound 6: cyclohexane, C6H12, InChI=1S/C6H12/c1-2-4-6-5-3-1/h1-6H2, purity 99.9%

System: 1-methoxy-2-propanol + toluene; phases: Liquid, Gas
Property: Azeotropic temperature, K (Liquid); method: spinning band column
Pressure, kPa	Azeotropic temperature, K	uncertainty
10.03	317.2	0.32
29.98	343.06	0.3
98.26	379.88	0.3

System: 1-methoxy-2-propanol + toluene; phases: Liquid, Gas
Property: Azeotropic composition: mole fraction of 1-methoxy-2-propanol (Liquid); method: chromatography
Pressure, kPa	Azeotropic composition: mole fraction of 1-methoxy-2-propanol	uncertainty
10.03	0.1532	0.0045
29.98	0.2081	0.0047
98.26	0.278	0.005

System: 1-methoxy-2-propanol + cyclohexane; phases: Liquid
Fixed: Temperature, K = 313.15
Fixed: Pressure, kPa = 101
Property: Excess molar enthalpy (molar enthalpy of mixing), kJ/mol (Liquid); method: Flow calorimetry
Mole fraction of 1-methoxy-2-propanol	Excess molar enthalpy (molar enthalpy of mixing), kJ/mol	uncertainty
0.0547	0.5849	0.0127
0.109	0.8917	0.0192
0.1626	1.093	0.0234
0.2158	1.235	0.0264
0.2684	1.333	0.0285
0.3205	1.395	0.0298
0.3721	1.426	0.0305
0.4232	1.438	0.0307
0.4738	1.427	0.0305
0.5239	1.402	0.03
0.5736	1.345	0.0288
0.6227	1.277	0.0273
0.6715	1.186	0.0254
0.7197	1.079	0.0231
0.7675	0.9494	0.0204
0.8149	0.7998	0.0172
0.8618	0.627	0.0136
0.9083	0.439	0.0096
0.9544	0.2266	0.0051

System: 1-methoxy-2-propanol + cyclohexane; phases: Liquid, Gas
Property: Azeotropic temperature, K (Liquid); method: spinning band column
Pressure, kPa	Azeotropic temperature, K	uncertainty
20.04	307.4	0.3
60.05	336.76	0.3
99.71	352.66	0.29

System: 1-methoxy-2-propanol + cyclohexane; phases: Liquid, Gas
Property: Azeotropic composition: mole fraction of 1-methoxy-2-propanol (Liquid); method: chromatography
Pressure, kPa	Azeotropic composition: mole fraction of 1-methoxy-2-propanol	uncertainty
20.04	0.0568	0.0042
60.05	0.0768	0.0042
99.71	0.0892	0.0043

System: 2-butoxyethan-1-ol + decane; phases: Liquid, Gas
Property: Azeotropic temperature, K (Liquid); method: spinning band column
Pressure, kPa	Azeotropic temperature, K	uncertainty
0.99	320.88	0.47
17.48	380.89	0.47
101.59	435.7	0.3

System: 2-butoxyethan-1-ol + decane; phases: Liquid, Gas
Property: Azeotropic composition: mole fraction of 2-butoxyethan-1-ol (Liquid); method: chromatography
Pressure, kPa	Azeotropic composition: mole fraction of 2-butoxyethan-1-ol	uncertainty
0.99	0.3669	0.0056
17.48	0.4609	0.0061
101.59	0.5275	0.0062

System: benzene + 1-methoxy-2-propanol; phases: Liquid
Fixed: Temperature, K = 313.15
Fixed: Pressure, kPa = 101
Property: Excess molar enthalpy (molar enthalpy of mixing), kJ/mol (Liquid); method: Flow calorimetry
Mole fraction of 1-methoxy-2-propanol	Excess molar enthalpy (molar enthalpy of mixing), kJ/mol	uncertainty
0.0455	0.3209	0.0071
0.0914	0.5188	0.0113
0.1377	0.6506	0.0141
0.1845	0.7361	0.0159
0.2317	0.7849	0.0169
0.2794	0.8112	0.0175
0.3276	0.8152	0.0175
0.3763	0.8082	0.0174
0.4254	0.779	0.0168
0.475	0.7485	0.0161
0.5251	0.699	0.0151
0.5758	0.6419	0.0139
0.6269	0.5831	0.0126
0.6786	0.5086	0.011
0.7308	0.4326	0.0094
0.7835	0.3514	0.0077
0.8368	0.269	0.006
0.8906	0.1817	0.0045
0.945	0.0903	0.0042

System: benzene + 2-butoxyethan-1-ol; phases: Liquid
Fixed: Temperature, K = 313.15
Fixed: Pressure, kPa = 101
Property: Excess molar enthalpy (molar enthalpy of mixing), kJ/mol (Liquid); method: Flow calorimetry
Mole fraction of benzene	Excess molar enthalpy (molar enthalpy of mixing), kJ/mol	uncertainty
0.0343	0.256	0.0057
0.0698	0.4198	0.0092
0.1064	0.5278	0.0115
0.1444	0.6084	0.0132
0.1836	0.6522	0.0141
0.2243	0.6769	0.0146
0.2665	0.6895	0.0149
0.3103	0.682	0.0147
0.3557	0.6662	0.0144
0.4029	0.6392	0.0138
0.452	0.6017	0.013
0.503	0.5563	0.0121
0.5562	0.4993	0.0108
0.6116	0.4409	0.0096
0.6694	0.3726	0.0082
0.7297	0.3037	0.0067
0.7927	0.2275	0.0051
0.8586	0.1504	0.0044
0.9277	0.0731	0.0042

System: cyclohexane + 2-butoxyethan-1-ol; phases: Liquid
Fixed: Temperature, K = 313.15
Fixed: Pressure, kPa = 101
Property: Excess molar enthalpy (molar enthalpy of mixing), kJ/mol (Liquid); method: Flow calorimetry
Mole fraction of cyclohexane	Excess molar enthalpy (molar enthalpy of mixing), kJ/mol	uncertainty
0.0414	0.4171	0.0091
0.0836	0.6245	0.0135
0.1265	0.7657	0.0165
0.1702	0.8662	0.0186
0.2148	0.9297	0.02
0.2602	0.9757	0.0209
0.3065	1.005	0.0216
0.3536	1.016	0.0218
0.4017	1.011	0.0217
0.4507	0.9968	0.0214
0.5007	0.9593	0.0206
0.5518	0.9153	0.0197
0.6038	0.8531	0.0183
0.6569	0.78	0.0168
0.7111	0.6887	0.0149
0.7665	0.5819	0.0126
0.823	0.4599	0.01
0.8807	0.3223	0.0071
0.9397	0.1681	0.0044
