Measured thermophysical data. High-Pressure Phase Behavior for Pentyl Acrylate and Pentyl Methacrylate in Supercritical Carbon Dioxide
Source: J. Chem. Eng. Data, 2006, 10.1021/je060122s
Compound 1: pentyl 2-propenoate, C8H14O2, InChI=1S/C8H14O2/c1-3-5-6-7-10-8(9)4-2/h4H,2-3,5-7H2,1H3
Compound 2: 2-propenoic acid, 2-methyl-, pentyl ester, C9H16O2, InChI=1S/C9H16O2/c1-4-5-6-7-11-9(10)8(2)3/h2,4-7H2,1,3H3
Compound 3: carbon dioxide, CO2, InChI=1S/CO2/c2-1-3

System: carbon dioxide + pentyl 2-propenoate; phases: Liquid, Gas
Property: Critical pressure, kPa (Liquid); method: Direct measurement
Mole fraction of pentyl 2-propenoate	Critical pressure, kPa	uncertainty
0.086	13340	700
0.109	15240	700
0.152	16800	700

System: carbon dioxide + pentyl 2-propenoate; phases: Liquid, Gas
Property: Critical temperature, K (Liquid); method: Visual observation in a stirred cell
Mole fraction of pentyl 2-propenoate	Critical temperature, K	uncertainty
0.086	353.15	0.41
0.109	373.15	0.41
0.152	393.15	0.41

System: carbon dioxide + pentyl 2-propenoate; phases: Liquid, Gas
Property: Vapor or sublimation pressure, kPa (Liquid); method: CCELL:UFactor:16
Temperature, K	Mole fraction of pentyl 2-propenoate	Vapor or sublimation pressure, kPa	uncertainty
313.15	0.086	7530	380
313.15	0.109	7380	370
313.15	0.152	7180	360
313.15	0.184	6930	350
313.15	0.22	6790	340
313.15	0.272	6260	310
313.15	0.338	5700	290
313.15	0.373	5350	270
313.15	0.395	5240	260
313.15	0.432	5000	250
313.15	0.506	4390	220
313.15	0.605	3530	180
313.15	0.621	3430	170
313.15	0.77	2270	120
333.15	0.086	10550	530
333.15	0.109	10370	520
333.15	0.152	9960	500
333.15	0.184	9540	480
333.15	0.22	9090	450
333.15	0.272	8520	430
333.15	0.338	7580	380
333.15	0.373	7140	360
333.15	0.395	6990	350
333.15	0.432	6570	330
333.15	0.506	5650	280
333.15	0.605	4670	230
333.15	0.621	4450	220
333.15	0.77	2910	150
353.15	0.109	13250	660
353.15	0.152	12590	630
353.15	0.184	12090	600
353.15	0.22	11350	570
353.15	0.272	10790	540
353.15	0.338	9550	480
353.15	0.373	8960	450
353.15	0.395	8720	430
353.15	0.432	8070	400
353.15	0.506	7060	350
353.15	0.605	5610	280
353.15	0.621	5410	270
353.15	0.77	3560	180
373.15	0.152	14800	740
373.15	0.184	14350	710
373.15	0.22	13830	690
373.15	0.272	12930	640
373.15	0.338	11200	560
373.15	0.373	10580	530
373.15	0.395	10270	510
373.15	0.432	9510	470
373.15	0.506	8160	410
373.15	0.605	6470	320
373.15	0.621	6270	310
373.15	0.77	4000	200
393.15	0.184	16410	820
393.15	0.22	15590	770
393.15	0.272	14620	730
393.15	0.338	12890	640
393.15	0.373	12030	600
393.15	0.395	11610	580
393.15	0.432	10680	530
393.15	0.506	9260	460
393.15	0.605	7190	360
393.15	0.621	6950	350
393.15	0.77	4340	220

System: carbon dioxide + pentyl 2-propenoate; phases: Gas, Liquid
Property: Vapor or sublimation pressure, kPa (Gas); method: CCELL:UFactor:16
Temperature, K	Mole fraction of pentyl 2-propenoate	Vapor or sublimation pressure, kPa	uncertainty
373.15	0.086	15170	750
393.15	0.086	16550	820
393.15	0.109	16790	830

System: carbon dioxide + 2-propenoic acid, 2-methyl-, pentyl ester; phases: Liquid, Gas
Property: Critical pressure, kPa (Liquid); method: Direct measurement
Mole fraction of 2-propenoic acid, 2-methyl-, pentyl ester	Critical pressure, kPa	uncertainty
0.043	13280	800
0.115	17480	800

System: carbon dioxide + 2-propenoic acid, 2-methyl-, pentyl ester; phases: Liquid, Gas
Property: Critical temperature, K (Liquid); method: Visual observation in a stirred cell
Mole fraction of 2-propenoic acid, 2-methyl-, pentyl ester	Critical temperature, K	uncertainty
0.043	353.15	0.41
0.115	393.15	0.41

System: carbon dioxide + 2-propenoic acid, 2-methyl-, pentyl ester; phases: Gas, Liquid
Fixed: Mole fraction of 2-propenoic acid, 2-methyl-, pentyl ester = 0.043
Property: Vapor or sublimation pressure, kPa (Gas); method: CCELL:UFactor:16
Temperature, K	Vapor or sublimation pressure, kPa	uncertainty
373.15	15140	750
393.15	16280	810

System: carbon dioxide + 2-propenoic acid, 2-methyl-, pentyl ester; phases: Liquid, Gas
Property: Vapor or sublimation pressure, kPa (Liquid); method: CCELL:UFactor:16
Temperature, K	Mole fraction of 2-propenoic acid, 2-methyl-, pentyl ester	Vapor or sublimation pressure, kPa	uncertainty
313.15	0.043	8280	410
313.15	0.115	7630	380
313.15	0.15	7260	360
313.15	0.206	6850	340
313.15	0.245	6280	310
313.15	0.281	5930	300
313.15	0.369	5460	270
313.15	0.461	4880	240
313.15	0.565	3990	200
313.15	0.639	3470	170
313.15	0.74	2540	130
333.15	0.043	11000	550
333.15	0.115	10590	530
333.15	0.15	10080	500
333.15	0.206	9320	470
333.15	0.245	8590	430
333.15	0.281	8240	410
333.15	0.369	7280	360
333.15	0.461	6200	310
333.15	0.565	5080	250
333.15	0.639	4390	220
333.15	0.74	3320	170
353.15	0.115	13260	660
353.15	0.15	12730	630
353.15	0.206	11890	590
353.15	0.245	10790	540
353.15	0.281	10350	520
353.15	0.369	9170	460
353.15	0.461	7590	380
353.15	0.565	6230	310
353.15	0.639	5350	270
353.15	0.74	4000	200
373.15	0.115	15670	780
373.15	0.15	15020	750
373.15	0.206	14020	700
373.15	0.245	13070	650
373.15	0.281	12450	620
373.15	0.369	10660	530
373.15	0.461	8930	440
373.15	0.565	7190	360
373.15	0.639	6130	310
373.15	0.74	4410	220
393.15	0.15	17050	850
393.15	0.206	16010	800
393.15	0.245	14970	740
393.15	0.281	14280	710
393.15	0.369	12100	600
393.15	0.461	10130	500
393.15	0.565	8030	400
393.15	0.639	6880	340
393.15	0.74	4920	240
