Measured thermophysical data. Experimental Vapor Pressure Data and a Vapor Pressure Equation for N,N-Dimethylformamide
Source: J. Chem. Eng. Data, 2006, 10.1021/je060224i
Compound 1: dimethylformamide, C3H7NO, InChI=1S/C3H7NO/c1-4(2)3-5/h3H,1-2H3, purity 99.99%

System: dimethylformamide; phases: Liquid, Gas
Property: Vapor or sublimation pressure, kPa (Liquid); method: CCELL:UFactor:8
Temperature, K	Vapor or sublimation pressure, kPa	uncertainty
307.15	0.922	0.214
309.15	1.056	0.217
311.15	1.204	0.219
313.15	1.356	0.218
315.15	1.533	0.219
317.15	1.736	0.22
319.15	1.948	0.221
321.15	2.178	0.221
323.15	2.429	0.223
325.15	2.702	0.224
327.15	2.998	0.225
329.15	3.319	0.227
331.15	3.667	0.228
333.15	4.044	0.23
335.15	4.451	0.232
337.15	4.892	0.234
339.15	5.367	0.237
341.15	5.88	0.24
343.15	6.433	0.243
345.15	7.029	0.247
347.15	7.67	0.251
349.15	8.36	0.256
351.15	9.101	0.261
353.15	9.898	0.266
355.15	10.755	0.273
357.15	11.674	0.279
359.15	12.66	0.287
361.15	13.718	0.296
363.15	14.853	0.305
365.15	16.068	0.315
367.15	17.371	0.327
369.15	18.806	0.339
