Measured thermophysical data. Activity Coefficients at Infinite Dilution of Alkanes, Alkenes, and Alkyl Benzenes in 1-Butyl-3-methylimidazolium Tetrafluoroborate Using Gas-Liquid Chromatography
Source: J. Chem. Eng. Data, 2006, 10.1021/je060142u
Compound 1: 1-butyl-3-methylimidazolium tetrafluoroborate, C8H15BF4N2, InChI=1S/C8H15N2.BF4/c1-3-4-5-10-7-6-9(2)8-10;2-1(3,4)5/h6-8H,3-5H2,1-2H3;/q+1;-1
Compound 2: pentane, C5H12, InChI=1S/C5H12/c1-3-5-4-2/h3-5H2,1-2H3
Compound 3: hexane, C6H14, InChI=1S/C6H14/c1-3-5-6-4-2/h3-6H2,1-2H3
Compound 4: heptane, C7H16, InChI=1S/C7H16/c1-3-5-7-6-4-2/h3-7H2,1-2H3
Compound 5: octane, C8H18, InChI=1S/C8H18/c1-3-5-7-8-6-4-2/h3-8H2,1-2H3
Compound 6: nonane, C9H20, InChI=1S/C9H20/c1-3-5-7-9-8-6-4-2/h3-9H2,1-2H3
Compound 7: decane, C10H22, InChI=1S/C10H22/c1-3-5-7-9-10-8-6-4-2/h3-10H2,1-2H3
Compound 8: cyclohexane, C6H12, InChI=1S/C6H12/c1-2-4-6-5-3-1/h1-6H2
Compound 9: methylcyclohexane, C7H14, InChI=1S/C7H14/c1-7-5-3-2-4-6-7/h7H,2-6H2,1H3
Compound 10: 2,2,4-trimethylpentane, C8H18, InChI=1S/C8H18/c1-7(2)6-8(3,4)5/h7H,6H2,1-5H3
Compound 11: cyclohexene, C6H10, InChI=1S/C6H10/c1-2-4-6-5-3-1/h1-2H,3-6H2
Compound 12: styrene, C8H8, InChI=1S/C8H8/c1-2-8-6-4-3-5-7-8/h2-7H,1H2
Compound 13: benzene, C6H6, InChI=1S/C6H6/c1-2-4-6-5-3-1/h1-6H
Compound 14: toluene, C7H8, InChI=1S/C7H8/c1-7-5-3-2-4-6-7/h2-6H,1H3
Compound 15: ethylbenzene, C8H10, InChI=1S/C8H10/c1-2-8-6-4-3-5-7-8/h3-7H,2H2,1H3
Compound 16: 1,2-dimethylbenzene, C8H10, InChI=1S/C8H10/c1-7-5-3-4-6-8(7)2/h3-6H,1-2H3
Compound 17: 1,3-dimethylbenzene, C8H10, InChI=1S/C8H10/c1-7-4-3-5-8(2)6-7/h3-6H,1-2H3
Compound 18: 1,4-dimethylbenzene, C8H10, InChI=1S/C8H10/c1-7-3-5-8(2)6-4-7/h3-6H,1-2H3

System: pentane + 1-butyl-3-methylimidazolium tetrafluoroborate; phases: Liquid
Fixed: Pressure, kPa = 101
Fixed: Mole fraction of pentane = 0
Property: Activity coefficient of pentane (Liquid); method: Chromatography
Temperature, K	Activity coefficient of pentane	uncertainty
303.15	40.66	3.52
313.15	39.72	3.44
323.15	38.07	3.29
333.15	36.29	3.14
343.15	35.83	3.1

System: hexane + 1-butyl-3-methylimidazolium tetrafluoroborate; phases: Liquid
Fixed: Pressure, kPa = 101
Fixed: Mole fraction of hexane = 0
Property: Activity coefficient of hexane (Liquid); method: Chromatography
Temperature, K	Activity coefficient of hexane	uncertainty
303.15	60.8	5.26
313.15	57.47	4.97
323.15	54.22	4.69
333.15	50.55	4.37
343.15	47.03	4.07

System: heptane + 1-butyl-3-methylimidazolium tetrafluoroborate; phases: Liquid
Fixed: Pressure, kPa = 101
Fixed: Mole fraction of heptane = 0
Property: Activity coefficient of heptane (Liquid); method: Chromatography
Temperature, K	Activity coefficient of heptane	uncertainty
303.15	92.45	8.01
313.15	86.71	7.51
323.15	81.65	7.07
333.15	78.9	6.83
343.15	71.52	6.19

System: octane + 1-butyl-3-methylimidazolium tetrafluoroborate; phases: Liquid
Fixed: Pressure, kPa = 101
Fixed: Mole fraction of octane = 0
Property: Activity coefficient of octane (Liquid); method: Chromatography
Temperature, K	Activity coefficient of octane	uncertainty
303.15	139.1	12.1
313.15	136	11.8
323.15	127	11
333.15	118.7	10.3
343.15	111.1	9.6

System: nonane + 1-butyl-3-methylimidazolium tetrafluoroborate; phases: Liquid
Fixed: Pressure, kPa = 101
Fixed: Mole fraction of nonane = 0
Property: Activity coefficient of nonane (Liquid); method: Chromatography
Temperature, K	Activity coefficient of nonane	uncertainty
303.15	224.3	19.5
313.15	193.3	16.8
323.15	187	16.2
333.15	178.8	15.5
343.15	169.8	14.7

System: decane + 1-butyl-3-methylimidazolium tetrafluoroborate; phases: Liquid
Fixed: Pressure, kPa = 101
Fixed: Mole fraction of decane = 0
Property: Activity coefficient of decane (Liquid); method: Chromatography
Temperature, K	Activity coefficient of decane	uncertainty
303.15	413.5	35.9
313.15	335.4	29.1
323.15	319.9	27.8
333.15	296.4	25.7
343.15	278.7	24.2

System: cyclohexane + 1-butyl-3-methylimidazolium tetrafluoroborate; phases: Liquid
Fixed: Pressure, kPa = 101
Fixed: Mole fraction of cyclohexane = 0
Property: Activity coefficient of cyclohexane (Liquid); method: Chromatography
Temperature, K	Activity coefficient of cyclohexane	uncertainty
303.15	32.41	2.8
313.15	30.21	2.61
323.15	28.3	2.45
333.15	26.88	2.32
343.15	24.55	2.12

System: methylcyclohexane + 1-butyl-3-methylimidazolium tetrafluoroborate; phases: Liquid
Fixed: Pressure, kPa = 101
Fixed: Mole fraction of methylcyclohexane = 0
Property: Activity coefficient of methylcyclohexane (Liquid); method: Chromatography
Temperature, K	Activity coefficient of methylcyclohexane	uncertainty
303.15	48.71	4.21
313.15	45.59	3.94
323.15	42.42	3.67
333.15	39.84	3.45
343.15	37.33	3.23

System: 2,2,4-trimethylpentane + 1-butyl-3-methylimidazolium tetrafluoroborate; phases: Liquid
Fixed: Pressure, kPa = 101
Fixed: Mole fraction of 2,2,4-trimethylpentane = 0
Property: Activity coefficient of 2,2,4-trimethylpentane (Liquid); method: Chromatography
Temperature, K	Activity coefficient of 2,2,4-trimethylpentane	uncertainty
303.15	92.69	8.03
313.15	88.61	7.67
323.15	83.82	7.26
333.15	79.48	6.88
343.15	75.49	6.54

System: cyclohexene + 1-butyl-3-methylimidazolium tetrafluoroborate; phases: Liquid
Fixed: Pressure, kPa = 101
Fixed: Mole fraction of cyclohexene = 0
Property: Activity coefficient of cyclohexene (Liquid); method: Chromatography
Temperature, K	Activity coefficient of cyclohexene	uncertainty
303.15	14.13	1.22
313.15	13.54	1.17
323.15	12.89	1.11
333.15	12.42	1.07
343.15	11.89	1.03

System: styrene + 1-butyl-3-methylimidazolium tetrafluoroborate; phases: Liquid
Fixed: Pressure, kPa = 101
Fixed: Mole fraction of styrene = 0
Property: Activity coefficient of styrene (Liquid); method: Chromatography
Temperature, K	Activity coefficient of styrene	uncertainty
303.15	2.287	0.197
313.15	2.293	0.198
323.15	2.339	0.202
333.15	2.411	0.208
343.15	2.475	0.213

System: benzene + 1-butyl-3-methylimidazolium tetrafluoroborate; phases: Liquid
Fixed: Pressure, kPa = 101
Fixed: Mole fraction of benzene = 0
Property: Activity coefficient of benzene (Liquid); method: Chromatography
Temperature, K	Activity coefficient of benzene	uncertainty
303.15	1.739	0.148
313.15	1.758	0.15
323.15	1.77	0.151
333.15	1.798	0.154
343.15	1.83	0.157

System: toluene + 1-butyl-3-methylimidazolium tetrafluoroborate; phases: Liquid
Fixed: Pressure, kPa = 101
Fixed: Mole fraction of toluene = 0
Property: Activity coefficient of toluene (Liquid); method: Chromatography
Temperature, K	Activity coefficient of toluene	uncertainty
303.15	2.913	0.251
313.15	2.935	0.253
323.15	2.949	0.254
333.15	2.99	0.258
343.15	3.03	0.261

System: ethylbenzene + 1-butyl-3-methylimidazolium tetrafluoroborate; phases: Liquid
Fixed: Pressure, kPa = 101
Fixed: Mole fraction of ethylbenzene = 0
Property: Activity coefficient of ethylbenzene (Liquid); method: Chromatography
Temperature, K	Activity coefficient of ethylbenzene	uncertainty
303.15	5.612	0.484
313.15	5.537	0.478
323.15	5.485	0.473
333.15	5.416	0.467
343.15	5.366	0.463

System: 1,2-dimethylbenzene + 1-butyl-3-methylimidazolium tetrafluoroborate; phases: Liquid
Fixed: Pressure, kPa = 101
Fixed: Mole fraction of 1,2-dimethylbenzene = 0
Property: Activity coefficient of 1,2-dimethylbenzene (Liquid); method: Chromatography
Temperature, K	Activity coefficient of 1,2-dimethylbenzene	uncertainty
303.15	4.198	0.362
313.15	4.18	0.361
323.15	4.161	0.359
333.15	4.16	0.359
343.15	4.141	0.357

System: 1,3-dimethylbenzene + 1-butyl-3-methylimidazolium tetrafluoroborate; phases: Liquid
Fixed: Pressure, kPa = 101
Fixed: Mole fraction of 1,3-dimethylbenzene = 0
Property: Activity coefficient of 1,3-dimethylbenzene (Liquid); method: Chromatography
Temperature, K	Activity coefficient of 1,3-dimethylbenzene	uncertainty
303.15	5.248	0.453
313.15	5.241	0.452
323.15	5.232	0.451
333.15	5.227	0.451
343.15	5.217	0.45

System: 1,4-dimethylbenzene + 1-butyl-3-methylimidazolium tetrafluoroborate; phases: Liquid
Fixed: Pressure, kPa = 101
Fixed: Mole fraction of 1,4-dimethylbenzene = 0
Property: Activity coefficient of 1,4-dimethylbenzene (Liquid); method: Chromatography
Temperature, K	Activity coefficient of 1,4-dimethylbenzene	uncertainty
303.15	4.968	0.429
313.15	5.15	0.444
323.15	5.277	0.455
333.15	5.326	0.46
343.15	5.474	0.472
