Measured thermophysical data. Viscosity of 1-Hexyl-3-methylimidazolium Hexafluorophosphate and 1-Octyl-3-methylimidazolium Hexafluorophosphate at High Pressure
Source: J. Chem. Eng. Data, 2007, 10.1021/je060464y
Compound 1: 1-hexyl-3-methylimidazolium hexafluorophosphate, C10H19F6N2P, InChI=1S/C10H19N2.F6P/c1-3-4-5-6-7-12-9-8-11(2)10-12;1-7(2,3,4,5)6/h8-10H,3-7H2,1-2H3;/q+1;-1
Compound 2: 1-octyl-3-methylimidazolium hexafluorophosphate, C12H23F6N2P, InChI=1S/C12H23N2.F6P/c1-3-4-5-6-7-8-9-14-11-10-13(2)12-14;1-7(2,3,4,5)6/h10-12H,3-9H2,1-2H3;/q+1;-1

System: 1-hexyl-3-methylimidazolium hexafluorophosphate; phases: Liquid
Property: Viscosity, Pa*s (Liquid); method: Falling or rolling sphere viscometry
Temperature, K	Pressure, kPa	Viscosity, Pa*s	uncertainty
293.15	100	0.707	0.063
293.15	5000	0.753	0.069
293.15	10000	0.799	0.075
293.15	15000	0.869	0.084
293.15	20000	0.953	0.095
313.15	100	0.197	0.011
313.15	5000	0.21	0.011
313.15	10000	0.224	0.013
313.15	15000	0.239	0.014
313.15	20000	0.253	0.017
333.15	100	0.0738	0.0027
333.15	5000	0.0794	0.0028
333.15	10000	0.0838	0.003
333.15	15000	0.0876	0.0032
333.15	20000	0.0937	0.0039
353.15	100	0.0347	0.0011
353.15	5000	0.036	0.0012
353.15	10000	0.0379	0.0013
353.15	15000	0.0398	0.0013
353.15	20000	0.0419	0.0014

System: 1-hexyl-3-methylimidazolium hexafluorophosphate; phases: Liquid
Property: Mass density, kg/m3 (Liquid); method: Constant-volume piezometry
Temperature, K	Pressure, kPa	Mass density, kg/m3	uncertainty
293.15	100	1295	5
293.15	5000	1298	5
293.15	10000	1301	5
293.15	15000	1304	5
293.15	20000	1307	5
313.15	100	1279	5
313.15	5000	1282	5
313.15	10000	1285	5
313.15	15000	1288	5
313.15	20000	1291	5
333.15	100	1264	5
333.15	5000	1267	5
333.15	10000	1270	5
333.15	15000	1273	5
333.15	20000	1275	5
353.15	100	1248	5
353.15	5000	1251	5
353.15	10000	1254	5
353.15	15000	1257	5
353.15	20000	1260	5

System: 1-octyl-3-methylimidazolium hexafluorophosphate; phases: Liquid
Property: Viscosity, Pa*s (Liquid); method: Falling or rolling sphere viscometry
Temperature, K	Pressure, kPa	Viscosity, Pa*s	uncertainty
293.15	100	1.052	0.108
293.15	5000	1.128	0.118
293.15	10000	1.218	0.131
293.15	15000	1.305	0.143
293.15	20000	1.427	0.161
313.15	100	0.273	0.018
313.15	5000	0.29	0.018
313.15	10000	0.308	0.02
313.15	15000	0.329	0.022
313.15	20000	0.354	0.027
333.15	100	0.0957	0.0039
333.15	5000	0.102	0.004
333.15	10000	0.107	0.004
333.15	15000	0.115	0.005
333.15	20000	0.121	0.006
353.15	100	0.0422	0.0014
353.15	5000	0.0443	0.0015
353.15	10000	0.0472	0.0016
353.15	15000	0.0499	0.0016
353.15	20000	0.053	0.0017

System: 1-octyl-3-methylimidazolium hexafluorophosphate; phases: Liquid
Property: Mass density, kg/m3 (Liquid); method: Constant-volume piezometry
Temperature, K	Pressure, kPa	Mass density, kg/m3	uncertainty
293.15	100	1238	5
293.15	5000	1242	5
293.15	10000	1245	5
293.15	15000	1248	5
293.15	20000	1251	5
313.15	100	1223	5
313.15	5000	1226	5
313.15	10000	1229	5
313.15	15000	1232	5
313.15	20000	1235	5
333.15	100	1209	5
333.15	5000	1213	5
333.15	10000	1216	5
333.15	15000	1219	5
333.15	20000	1221	5
353.15	100	1194	5
353.15	5000	1196	5
353.15	10000	1199	5
353.15	15000	1202	5
353.15	20000	1205	5
