Measured thermophysical data. Vapor-Liquid Equilibrium Data for the Binary Methyl Esters (Butyrate, Pentanoate, and Hexanoate) (1) + Propanenitrile (2) Systems at 93.32 kPa
Source: J. Chem. Eng. Data, 2007, 10.1021/je060469v
Compound 1: methyl butanoate, C5H10O2, InChI=1S/C5H10O2/c1-3-4-5(6)7-2/h3-4H2,1-2H3, purity 99.5%
Compound 2: methyl pentanoate, C6H12O2, InChI=1S/C6H12O2/c1-3-4-5-6(7)8-2/h3-5H2,1-2H3, purity 99.5%
Compound 3: methyl hexanoate, C7H14O2, InChI=1S/C7H14O2/c1-3-4-5-6-7(8)9-2/h3-6H2,1-2H3, purity 99.5%
Compound 4: propanenitrile, C3H5N, InChI=1S/C3H5N/c1-2-3-4/h2H2,1H3, purity 99.5%

System: methyl butanoate; phases: Liquid
Property: Refractive index (Na D-line) (Liquid); method: Standard Abbe refractometry
Temperature, K	Pressure, kPa	Refractive index (Na D-line)	uncertainty
298.15	101.325	1.3847	0.0007

System: methyl butanoate; phases: Liquid
Property: Mass density, kg/m3 (Liquid); method: VIBTUB:UFactor:4
Temperature, K	Pressure, kPa	Mass density, kg/m3	uncertainty
298.15	101.325	892.16	0.34

System: methyl butanoate; phases: Liquid, Gas
Property: Vapor or sublimation pressure, kPa (Liquid); method: EBULLIO:UFactor:4
Temperature, K	Vapor or sublimation pressure, kPa	uncertainty
372.31	93.32	1.91

System: methyl pentanoate; phases: Liquid
Property: Refractive index (Na D-line) (Liquid); method: Standard Abbe refractometry
Temperature, K	Pressure, kPa	Refractive index (Na D-line)	uncertainty
298.15	101.325	1.3971	0.0007

System: methyl pentanoate; phases: Liquid
Property: Mass density, kg/m3 (Liquid); method: VIBTUB:UFactor:4
Temperature, K	Pressure, kPa	Mass density, kg/m3	uncertainty
298.15	101.325	884.8	0.35

System: methyl pentanoate; phases: Liquid, Gas
Property: Vapor or sublimation pressure, kPa (Liquid); method: EBULLIO:UFactor:6
Temperature, K	Vapor or sublimation pressure, kPa	uncertainty
396.65	93.32	2.37

System: methyl hexanoate; phases: Liquid
Property: Refractive index (Na D-line) (Liquid); method: Standard Abbe refractometry
Temperature, K	Pressure, kPa	Refractive index (Na D-line)	uncertainty
298.15	101.325	1.4048	0.0007

System: methyl hexanoate; phases: Liquid
Property: Mass density, kg/m3 (Liquid); method: VIBTUB:UFactor:4
Temperature, K	Pressure, kPa	Mass density, kg/m3	uncertainty
298.15	101.325	879.47	0.36

System: methyl hexanoate; phases: Liquid, Gas
Property: Vapor or sublimation pressure, kPa (Liquid); method: EBULLIO:UFactor:6
Temperature, K	Vapor or sublimation pressure, kPa	uncertainty
419.67	93.32	2.37

System: propanenitrile; phases: Liquid
Property: Refractive index (Na D-line) (Liquid); method: Standard Abbe refractometry
Temperature, K	Pressure, kPa	Refractive index (Na D-line)	uncertainty
298.15	101.325	1.36368	0.00073

System: propanenitrile; phases: Liquid
Property: Mass density, kg/m3 (Liquid); method: VIBTUB:UFactor:4
Temperature, K	Pressure, kPa	Mass density, kg/m3	uncertainty
298.15	101.325	776.85	0.51

System: propanenitrile; phases: Liquid, Gas
Property: Vapor or sublimation pressure, kPa (Liquid); method: EBULLIO:UFactor:4
Temperature, K	Vapor or sublimation pressure, kPa	uncertainty
367.78	93.32	1.91

System: propanenitrile + methyl butanoate; phases: Liquid, Gas
Fixed: Pressure, kPa = 93.32
Property: Boiling temperature at pressure P, K (Liquid); method: EBULLIO:UFactor:4
Mole fraction of methyl butanoate	Boiling temperature at pressure P, K	uncertainty
0	367.78	0.34
0.0381	367.25	0.34
0.0719	366.9	0.34
0.1189	366.53	0.34
0.1471	366.38	0.34
0.2009	366.11	0.34
0.225	365.94	0.34
0.2794	365.86	0.34
0.333	365.9	0.34
0.38	366.01	0.34
0.449	366.23	0.34
0.4749	366.33	0.34
0.5124	366.64	0.34
0.5662	367.02	0.34
0.6006	367.34	0.34
0.6502	367.86	0.34
0.6885	368.21	0.34
0.7426	368.72	0.34
0.7795	369	0.34
0.8512	369.94	0.35
0.9124	371.08	0.35
0.9628	372.22	0.34
1	372.31	0.34

System: propanenitrile + methyl butanoate; phases: Gas, Liquid
Fixed: Pressure, kPa = 93.32
Property: Mole fraction of methyl butanoate (Gas); method: Density calibration data
Mole fraction of methyl butanoate	Mole fraction of methyl butanoate	uncertainty
0	0	0.0001
0.0381	0.0487	0.0103
0.0719	0.0888	0.0102
0.1189	0.1387	0.0102
0.1471	0.1612	0.0102
0.2009	0.2125	0.0102
0.225	0.2344	0.0101
0.2794	0.2713	0.0101
0.333	0.318	0.0102
0.38	0.3614	0.0102
0.449	0.408	0.0102
0.4749	0.4269	0.0102
0.5124	0.4639	0.0103
0.5662	0.5091	0.0103
0.6006	0.5313	0.0103
0.6502	0.5751	0.0103
0.6885	0.6039	0.0103
0.7426	0.6594	0.0103
0.7795	0.6845	0.0103
0.8512	0.7685	0.0104
0.9124	0.8461	0.0104
0.9628	0.9276	0.0106
1	1	0.0001

System: propanenitrile + methyl pentanoate; phases: Liquid, Gas
Fixed: Pressure, kPa = 93.32
Property: Boiling temperature at pressure P, K (Liquid); method: EBULLIO:UFactor:6
Mole fraction of methyl pentanoate	Boiling temperature at pressure P, K	uncertainty
0	367.78	0.51
0.0461	368.04	0.52
0.0878	368.45	0.52
0.1349	369.08	0.52
0.1689	369.39	0.52
0.2359	370.08	0.52
0.2825	370.74	0.52
0.3402	371.66	0.52
0.3866	372.36	0.52
0.4571	374.17	0.52
0.5039	374.96	0.52
0.5568	376.27	0.52
0.6138	377.83	0.52
0.6643	379.04	0.52
0.7267	380.99	0.52
0.762	382.46	0.52
0.8096	384.86	0.52
0.8548	386.7	0.52
0.9002	389.11	0.53
0.9426	391.91	0.53
0.9712	393.73	0.54
1	396.65	0.51

System: propanenitrile + methyl pentanoate; phases: Gas, Liquid
Fixed: Pressure, kPa = 93.32
Property: Mole fraction of methyl pentanoate (Gas); method: Density calibration data
Mole fraction of methyl pentanoate	Mole fraction of methyl pentanoate	uncertainty
0	0	0.0001
0.0461	0.0283	0.015
0.0878	0.051	0.015
0.1349	0.0775	0.015
0.1689	0.0994	0.015
0.2359	0.1294	0.015
0.2825	0.1543	0.015
0.3402	0.1836	0.015
0.3866	0.2061	0.0151
0.4571	0.2598	0.0151
0.5039	0.2836	0.0151
0.5568	0.3191	0.0151
0.6138	0.3627	0.0151
0.6643	0.3993	0.0151
0.7267	0.4589	0.0152
0.762	0.5026	0.0154
0.8096	0.5728	0.0154
0.8548	0.6328	0.0154
0.9002	0.7159	0.0157
0.9426	0.8195	0.0158
0.9712	0.8917	0.0163
1	1	0.0001

System: methyl hexanoate + propanenitrile; phases: Liquid, Gas
Fixed: Pressure, kPa = 93.32
Property: Boiling temperature at pressure P, K (Liquid); method: EBULLIO:UFactor:6
Mole fraction of methyl hexanoate	Boiling temperature at pressure P, K	uncertainty
0	367.78	0.51
0.0461	368.83	0.52
0.062	369.14	0.52
0.1112	370.31	0.52
0.1689	371.8	0.52
0.1835	372.1	0.52
0.2359	373.73	0.52
0.2871	374.77	0.52
0.3402	376.47	0.52
0.4152	379.03	0.52
0.4571	380.26	0.52
0.508	382.32	0.52
0.5446	383.43	0.52
0.624	387.57	0.53
0.6764	390.41	0.53
0.729	393.95	0.53
0.768	396.58	0.54
0.845	402.8	0.54
0.9002	408.3	0.55
0.9426	412.6	0.56
0.9712	416.12	0.57
1	419.67	0.51

System: methyl hexanoate + propanenitrile; phases: Gas, Liquid
Fixed: Pressure, kPa = 93.32
Property: Mole fraction of methyl hexanoate (Gas); method: Density calibration data
Mole fraction of methyl hexanoate	Mole fraction of methyl hexanoate	uncertainty
0	0	0.0001
0.0461	0.0154	0.01
0.062	0.0191	0.01
0.1112	0.0325	0.01
0.1689	0.0489	0.01
0.1835	0.0519	0.01
0.2359	0.07	0.01
0.2871	0.0801	0.01
0.3402	0.0989	0.01
0.4152	0.1274	0.01
0.4571	0.1416	0.01
0.508	0.1658	0.01
0.5446	0.1797	0.0101
0.624	0.235	0.0101
0.6764	0.2775	0.0102
0.729	0.3353	0.0103
0.768	0.3831	0.0105
0.845	0.5109	0.0109
0.9002	0.6451	0.0114
0.9426	0.765	0.012
0.9712	0.8765	0.0129
1	1	0.0001
