Measured thermophysical data. Solubility of Methane in Methyldiethanolamine
Source: J. Chem. Eng. Data, 2006, 10.1021/je060118g
Compound 1: methane, CH4, InChI=1S/CH4/h1H4
Compound 2: N-methyldiethanolamine, C5H13NO2, InChI=1S/C5H13NO2/c1-6(2-4-7)3-5-8/h7-8H,2-5H2,1H3

System: methane + N-methyldiethanolamine; phases: Liquid, Gas
Fixed: Mole fraction of methane = 0
Property: Henry's Law constant (mole fraction scale), kPa of methane (Liquid); method: derived from PVT phase equilibration data
Temperature, K	Henry's Law constant (mole fraction scale), kPa of methane	uncertainty
298.15	158700	3200
313.15	161300	3200
343.15	168700	3400
373.15	166500	3300
403.15	160900	3200

System: methane + N-methyldiethanolamine; phases: Liquid, Gas
Property: Mole fraction of methane (Liquid); method: Chromatography
Temperature, K	Pressure, kPa	Mole fraction of methane	uncertainty
298.15	118	0.0007348	0.000132
298.15	175	0.001089	0.000141
298.15	631	0.003879	0.000263
298.15	1720	0.01039	0.00064
298.15	3260	0.01869	0.00113
298.15	5250	0.02785	0.00169
298.15	7190	0.0364	0.0022
298.15	12000	0.05426	0.00329
298.15	16060	0.06528	0.00395
298.15	20300	0.07435	0.00449
313.15	126	0.0007674	0.0001327
313.15	484	0.002997	0.000215
313.15	1574	0.00921	0.000568
313.15	3500	0.01999	0.00121
313.15	5100	0.02764	0.00167
313.15	7080	0.03559	0.00215
313.15	11720	0.05474	0.00332
313.15	16000	0.06754	0.00408
313.15	19460	0.07477	0.00452
343.15	100	0.0005882	0.0001218
343.15	246	0.001446	0.000147
343.15	800	0.004716	0.000306
343.15	1610	0.009197	0.000566
343.15	3410	0.01901	0.00115
343.15	5390	0.02798	0.00169
343.15	6750	0.0349	0.00211
343.15	9440	0.04673	0.00282
343.15	13820	0.06309	0.00382
343.15	19040	0.07971	0.00482
373.15	147	0.0008719	0.0001245
373.15	230	0.001356	0.000146
373.15	770	0.004623	0.000303
373.15	940	0.005497	0.00035
373.15	2640	0.01535	0.00093
373.15	4390	0.02456	0.00149
373.15	7400	0.03968	0.0024
373.15	10490	0.05351	0.00325
373.15	14930	0.07181	0.00435
373.15	18600	0.08377	0.00507
403.15	190	0.001179	0.000141
403.15	534	0.003275	0.000232
403.15	2780	0.01662	0.00101
403.15	4710	0.02771	0.00168
403.15	6350	0.03528	0.00213
403.15	10250	0.05416	0.00329
403.15	14290	0.07385	0.00447
403.15	17650	0.08592	0.0052
