Measured thermophysical data. Solubility of Acephate in Different Solvents from (292.90 to 327.60) K
Source: J. Chem. Eng. Data, 2007, 10.1021/je0603630
Compound 1: O,S-dimethyl N-acetylphosphoramidothioate, C4H10NO3PS, InChI=1S/C4H10NO3PS/c1-4(6)5-9(7,8-2)10-3/h1-3H3,(H,5,6,7), purity 91%
Compound 2: ethyl acetate, C4H8O2, InChI=1S/C4H8O2/c1-3-6-4(2)5/h3H2,1-2H3
Compound 3: acetone, C3H6O, InChI=1S/C3H6O/c1-3(2)4/h1-2H3
Compound 4: propan-2-ol, C3H8O, InChI=1S/C3H8O/c1-3(2)4/h3-4H,1-2H3
Compound 5: dichloromethane, CH2Cl2, InChI=1S/CH2Cl2/c2-1-3/h1H2

System: ethyl acetate + O,S-dimethyl N-acetylphosphoramidothioate; phases: Liquid, Crystal
Fixed: Pressure, kPa = 101
Property: Mole fraction of O,S-dimethyl N-acetylphosphoramidothioate (Liquid); method: laser intensity
Temperature, K	Mole fraction of O,S-dimethyl N-acetylphosphoramidothioate	uncertainty
307.9	0.03496	0.00075
310.75	0.04082	0.00087
314.2	0.04901	0.00105
318.4	0.06475	0.00139
321.55	0.07792	0.00167
324.95	0.09648	0.00209
327.6	0.1185	0.00258

System: acetone + O,S-dimethyl N-acetylphosphoramidothioate; phases: Liquid, Crystal
Fixed: Pressure, kPa = 101
Property: Mole fraction of O,S-dimethyl N-acetylphosphoramidothioate (Liquid); method: laser intensity
Temperature, K	Mole fraction of O,S-dimethyl N-acetylphosphoramidothioate	uncertainty
299.45	0.06796	0.0015
302.6	0.08109	0.00178
305.2	0.09226	0.00202
306.4	0.09861	0.00219
309.8	0.11931	0.00263
311.4	0.13105	0.00291
313.75	0.14924	0.00331
315.8	0.16717	0.00371

System: propan-2-ol + O,S-dimethyl N-acetylphosphoramidothioate; phases: Liquid, Crystal
Fixed: Pressure, kPa = 101
Property: Mole fraction of O,S-dimethyl N-acetylphosphoramidothioate (Liquid); method: laser intensity
Temperature, K	Mole fraction of O,S-dimethyl N-acetylphosphoramidothioate	uncertainty
299.3	0.06062	0.00133
303.95	0.0773	0.00169
306.7	0.09255	0.00206
310.75	0.11816	0.0026
313.35	0.13717	0.00303
316.45	0.16263	0.0036
319.45	0.19257	0.00429
322	0.2241	0.00501

System: dichloromethane + O,S-dimethyl N-acetylphosphoramidothioate; phases: Liquid, Crystal
Fixed: Pressure, kPa = 101
Property: Mole fraction of O,S-dimethyl N-acetylphosphoramidothioate (Liquid); method: laser intensity
Temperature, K	Mole fraction of O,S-dimethyl N-acetylphosphoramidothioate	uncertainty
292.9	0.1758	0.0037
295.2	0.19002	0.004
297.3	0.20333	0.00428
298.45	0.21045	0.00442
299.6	0.21741	0.00457
301.05	0.22608	0.00475
302.3	0.23333	0.00491
303.25	0.24053	0.00508
