Measured thermophysical data. Vapor-Liquid Equilibrium for Binary System of Diethyl Sulfide + n-Hexane at (338.15 and 323.15) K and Diethyl Sulfide + 1-Hexene at (333.15 and 323.15) K
Source: J. Chem. Eng. Data, 2007, 10.1021/je060460t
Compound 1: hexane, C6H14, InChI=1S/C6H14/c1-3-5-6-4-2/h3-6H2,1-2H3
Compound 2: hex-1-ene, C6H12, InChI=1S/C6H12/c1-3-5-6-4-2/h3H,1,4-6H2,2H3
Compound 3: toluene, C7H8, InChI=1S/C7H8/c1-7-5-3-2-4-6-7/h2-6H,1H3
Compound 4: 3-thiapentane, C4H10S, InChI=1S/C4H10S/c1-3-5-4-2/h3-4H2,1-2H3

System: hexane; phases: Liquid
Property: Refractive index (Na D-line) (Liquid); method: Standard Abbe refractometry
Temperature, K	Pressure, kPa	Refractive index (Na D-line)	uncertainty
298.15	101.325	1.3723	0.0007

System: hexane; phases: Liquid, Gas
Property: Vapor or sublimation pressure, kPa (Liquid); method: Ebulliometric method (Recirculating still)
Temperature, K	Vapor or sublimation pressure, kPa	uncertainty
323.15	54.26	0.47
338.15	90.46	0.55

System: hex-1-ene; phases: Liquid
Property: Refractive index (Na D-line) (Liquid); method: Standard Abbe refractometry
Temperature, K	Pressure, kPa	Refractive index (Na D-line)	uncertainty
298.15	101.325	1.3852	0.0007

System: hex-1-ene; phases: Liquid, Gas
Property: Vapor or sublimation pressure, kPa (Liquid); method: Ebulliometric method (Recirculating still)
Temperature, K	Vapor or sublimation pressure, kPa	uncertainty
323.15	64.83	0.5
333.15	90.85	0.56

System: toluene; phases: Liquid
Property: Refractive index (Na D-line) (Liquid); method: Standard Abbe refractometry
Temperature, K	Pressure, kPa	Refractive index (Na D-line)	uncertainty
298.15	101.325	1.4939	0.0007

System: 3-thiapentane; phases: Liquid
Property: Refractive index (Na D-line) (Liquid); method: Standard Abbe refractometry
Temperature, K	Pressure, kPa	Refractive index (Na D-line)	uncertainty
298.15	101.325	1.44	0.0007

System: 3-thiapentane; phases: Liquid, Gas
Property: Vapor or sublimation pressure, kPa (Liquid); method: Ebulliometric method (Recirculating still)
Temperature, K	Vapor or sublimation pressure, kPa	uncertainty
323.15	23.76	0.38
333.15	34.98	0.39
338.15	42.02	0.41

System: hexane + 3-thiapentane; phases: Liquid, Gas
Property: Vapor or sublimation pressure, kPa (Liquid); method: Ebulliometric method (Recirculating still)
Mole fraction of 3-thiapentane	Temperature, K	Vapor or sublimation pressure, kPa	uncertainty
0	323.15	54.26	0.47
0	338.15	90.46	0.55
0.025	323.15	53.74	0.47
0.038	338.15	89.29	0.55
0.077	323.15	52.76	0.47
0.099	338.15	87.43	0.54
0.14	323.15	51.58	0.47
0.166	338.15	85.26	0.54
0.212	323.15	50.09	0.46
0.229	338.15	83.12	0.53
0.291	323.15	48.34	0.46
0.301	338.15	80.55	0.52
0.369	338.15	78	0.51
0.377	323.15	46.38	0.45
0.428	338.15	75.62	0.5
0.46	323.15	44.23	0.44
0.494	338.15	72.87	0.5
0.544	323.15	42.01	0.43
0.559	338.15	69.9	0.49
0.637	323.15	39.29	0.43
0.658	338.15	65.55	0.48
0.708	323.15	37.1	0.42
0.719	338.15	62.01	0.47
0.75	323.15	35.37	0.42
0.81	323.15	33.01	0.41
0.832	338.15	55.02	0.46
0.865	323.15	30.66	0.41
0.878	338.15	51.65	0.45
0.914	323.15	28.31	0.4
0.919	338.15	48.62	0.45
0.951	323.15	26.45	0.4
0.952	338.15	46.05	0.45
0.979	323.15	24.91	0.4
0.98	338.15	43.73	0.44
1	323.15	23.76	0.38
1	338.15	42.02	0.41

System: hexane + 3-thiapentane; phases: Gas, Liquid
Property: Mole fraction of 3-thiapentane (Gas); method: Chromatography
Mole fraction of 3-thiapentane	Temperature, K	Mole fraction of 3-thiapentane	uncertainty
0	323.15	0	0.001
0	338.15	0	0.001
0.025	323.15	0.017	0.002
0.038	338.15	0.026	0.002
0.077	323.15	0.05	0.002
0.099	338.15	0.066	0.003
0.14	323.15	0.089	0.003
0.166	338.15	0.109	0.003
0.212	323.15	0.132	0.003
0.229	338.15	0.149	0.003
0.291	323.15	0.179	0.003
0.301	338.15	0.193	0.003
0.369	338.15	0.238	0.003
0.377	323.15	0.231	0.003
0.428	338.15	0.276	0.003
0.46	323.15	0.285	0.003
0.494	338.15	0.319	0.004
0.544	323.15	0.341	0.004
0.559	338.15	0.367	0.004
0.637	323.15	0.409	0.004
0.658	338.15	0.44	0.005
0.708	323.15	0.469	0.005
0.719	338.15	0.502	0.005
0.75	323.15	0.52	0.005
0.81	323.15	0.592	0.005
0.832	338.15	0.642	0.005
0.865	323.15	0.675	0.005
0.878	338.15	0.719	0.005
0.914	323.15	0.767	0.005
0.919	338.15	0.799	0.005
0.951	323.15	0.853	0.006
0.952	338.15	0.867	0.005
0.979	323.15	0.933	0.006
0.98	338.15	0.94	0.006
1	323.15	1	0.001
1	338.15	1	0.001

System: 3-thiapentane + hex-1-ene; phases: Liquid, Gas
Property: Vapor or sublimation pressure, kPa (Liquid); method: Ebulliometric method (Recirculating still)
Mole fraction of 3-thiapentane	Temperature, K	Vapor or sublimation pressure, kPa	uncertainty
0	323.15	64.83	0.5
0	333.15	90.85	0.56
0.038	323.15	63.44	0.5
0.04	333.15	88.89	0.56
0.093	323.15	61.59	0.5
0.093	333.15	86.35	0.55
0.155	323.15	59.43	0.49
0.163	333.15	83.1	0.54
0.231	323.15	56.86	0.48
0.236	333.15	79.42	0.53
0.311	323.15	54.12	0.47
0.317	333.15	75.45	0.51
0.396	323.15	51.02	0.46
0.482	323.15	47.84	0.45
0.493	333.15	66.42	0.49
0.577	333.15	61.87	0.47
0.629	323.15	41.42	0.43
0.647	333.15	58.01	0.47
0.697	323.15	38.63	0.42
0.719	333.15	53.81	0.46
0.743	323.15	37.08	0.42
0.766	323.15	35.66	0.42
0.783	333.15	49.85	0.45
0.828	323.15	32.68	0.41
0.841	333.15	46.1	0.44
0.859	323.15	31.37	0.41
0.886	323.15	29.83	0.4
0.893	333.15	42.62	0.43
0.911	323.15	28.76	0.4
0.935	323.15	27.38	0.4
0.936	333.15	39.64	0.43
0.973	333.15	37.04	0.42
1	323.15	23.76	0.38
1	333.15	34.98	0.39

System: 3-thiapentane + hex-1-ene; phases: Gas, Liquid
Property: Mole fraction of 3-thiapentane (Gas); method: Chromatography
Mole fraction of 3-thiapentane	Temperature, K	Mole fraction of 3-thiapentane	uncertainty
0	323.15	0	0.001
0	333.15	0	0.001
0.038	323.15	0.018	0.002
0.04	333.15	0.02	0.002
0.093	323.15	0.045	0.002
0.093	333.15	0.046	0.002
0.155	323.15	0.076	0.002
0.163	333.15	0.081	0.002
0.231	323.15	0.114	0.003
0.236	333.15	0.122	0.003
0.311	323.15	0.157	0.003
0.317	333.15	0.168	0.003
0.396	323.15	0.207	0.003
0.482	323.15	0.263	0.003
0.493	333.15	0.281	0.003
0.577	333.15	0.343	0.004
0.629	323.15	0.377	0.004
0.647	333.15	0.405	0.004
0.697	323.15	0.442	0.005
0.719	333.15	0.478	0.005
0.743	323.15	0.489	0.005
0.766	323.15	0.521	0.005
0.783	333.15	0.555	0.005
0.828	323.15	0.612	0.005
0.841	333.15	0.64	0.005
0.859	323.15	0.66	0.005
0.886	323.15	0.711	0.005
0.893	333.15	0.734	0.005
0.911	323.15	0.761	0.005
0.935	323.15	0.813	0.006
0.936	333.15	0.826	0.005
0.973	333.15	0.919	0.006
1	323.15	1	0.001
1	333.15	1	0.001
