Measured thermophysical data. Solubility of CO2 in the Ionic Liquids [bmim][CH3SO4] and [bmim][PF6]
Source: J. Chem. Eng. Data, 2006, 10.1021/je060190e
Compound 1: 1-butyl-3-methylimidazolium methyl sulfate, C9H18N2O4S, InChI=1S/C8H15N2.CH4O4S/c1-3-4-5-10-7-6-9(2)8-10;1-5-6(2,3)4/h6-8H,3-5H2,1-2H3;1H3,(H,2,3,4)/q+1;/p-1, purity 98%
Compound 2: carbon dioxide, CO2, InChI=1S/CO2/c2-1-3, purity 99.995%

System: 1-butyl-3-methylimidazolium methyl sulfate; phases: Liquid
Fixed: Pressure, kPa = 101.325
Property: Mass density, kg/m3 (Liquid); method: VIBTUB:UFactor:16
Temperature, K	Mass density, kg/m3	uncertainty
290.95	1214.9	2.2
292.95	1213.5	2.2
294.95	1212.1	2.2
297	1210.7	2.2
299	1209.4	2.2
301	1208	2.2
303	1206.7	2.2
305	1205.3	2.2
307.05	1204	2.2

System: carbon dioxide + 1-butyl-3-methylimidazolium methyl sulfate; phases: Liquid, Gas
Property: Molality, mol/kg (Liquid); method: volumetrically or by knowing small ammounts of mass
Temperature, K	Pressure, kPa	Molality, mol/kg	uncertainty
293.2	908	0.4927	0.0394
293.2	1457	0.7996	0.0395
293.2	2139	1.1827	0.0428
293.2	3031	1.7123	0.0467
293.2	4120	2.3837	0.0513
313.25	933	0.3512	0.0176
313.25	2359	0.8968	0.0236
313.25	3428	1.3614	0.0286
313.25	4368	1.7429	0.0205
313.25	4583	1.8459	0.0442
313.25	5670	2.2724	0.0405
313.25	6643	2.6464	0.0398
313.25	7962	3.0728	0.0351
313.25	9357	3.3042	0.0324
333.1	1756	0.4928	0.0297
333.1	2506	0.7157	0.0282
333.1	4008	1.1303	0.0327
333.1	5029	1.4214	0.0314
333.1	6230	1.7426	0.0305
333.1	7284	1.9743	0.0311
333.1	8177	2.2077	0.027
333.1	8944	2.3597	0.0489
353.1	1780	0.3787	0.0227
353.1	2393	0.5064	0.0256
353.1	3262	0.6901	0.0262
353.1	4467	0.9486	0.0265
353.1	5169	1.0896	0.0262
353.1	5879	1.2207	0.026
353.1	7495	1.5194	0.0268
353.1	9428	1.8775	0.0329
373.1	1114	0.1871	0.0087
373.1	2232	0.3764	0.0102
373.1	3286	0.5553	0.0243
373.1	4387	0.7274	0.0249
373.1	5336	0.8853	0.0242
373.1	6652	1.0931	0.0255
373.1	7170	1.1729	0.0241
373.1	8942	1.42	0.0252
393.1	973	0.1351	0.0073
393.1	1960	0.2728	0.008
393.1	3041	0.4188	0.009
393.1	4076	0.5606	0.0102
393.1	5226	0.7124	0.0108
393.1	6412	0.8661	0.0118
393.1	7729	1.0307	0.0142
393.1	9246	1.2148	0.0159
413.1	1113	0.1316	0.0062
413.1	2258	0.264	0.0071
413.1	3431	0.402	0.008
413.1	4655	0.5412	0.0091
413.1	5993	0.689	0.0099
413.1	7380	0.843	0.0108
413.1	8585	0.9649	0.0111
413.1	9805	1.0927	0.0142
