Measured thermophysical data. Solid-Liquid Equilibria for the CO2 + R125 and N2O + R125 Systems: A New Apparatus
Source: J. Chem. Eng. Data, 2006, 10.1021/je0603067
Compound 1: carbon dioxide, CO2, InChI=1S/CO2/c2-1-3
Compound 2: nitrous oxide, N2O, InChI=1S/N2O/c1-2-3
Compound 3: pentafluoroethane, C2HF5, InChI=1S/C2HF5/c3-1(4)2(5,6)7/h1H

System: carbon dioxide; phases: Crystal, Liquid, Gas
Property: Vapor or sublimation pressure, kPa (Crystal); method: heating/cooling curve
Vapor or sublimation pressure, kPa	uncertainty
514	12

System: carbon dioxide; phases: Crystal, Liquid, Air at 1 atmosphere
Property: Triple point temperature, K (Crystal); method: Heating/Cooling curves
Triple point temperature, K	uncertainty
216.56	0.2

System: nitrous oxide; phases: Crystal, Liquid, Gas
Property: Vapor or sublimation pressure, kPa (Crystal); method: heating/cooling curve
Vapor or sublimation pressure, kPa	uncertainty
92	12

System: nitrous oxide; phases: Crystal, Liquid, Air at 1 atmosphere
Property: Triple point temperature, K (Crystal); method: Heating/Cooling curves
Triple point temperature, K	uncertainty
181.99	0.2

System: pentafluoroethane; phases: Crystal, Liquid, Gas
Property: Vapor or sublimation pressure, kPa (Crystal); method: heating/cooling curve
Vapor or sublimation pressure, kPa	uncertainty
5	12

System: pentafluoroethane; phases: Crystal, Liquid, Air at 1 atmosphere
Property: Triple point temperature, K (Crystal); method: Heating/Cooling curves
Triple point temperature, K	uncertainty
173.05	0.2

System: carbon dioxide + pentafluoroethane; phases: Liquid, Crystal, Gas
Property: Vapor or sublimation pressure, kPa (Liquid); method: time/temp cooling curve
Mole fraction of carbon dioxide	Vapor or sublimation pressure, kPa	uncertainty
0	5	12
0.027	7	12
0.05	11	12
0.088	14	12
0.108	23	12
0.134	20	12

System: carbon dioxide + pentafluoroethane; phases: Liquid, Crystal, Gas
Property: Vapor or sublimation pressure, kPa (Liquid); method: time/temp cooling curve
Mole fraction of carbon dioxide	Vapor or sublimation pressure, kPa	uncertainty
0.184	18	20
0.229	38	20
0.271	42	20
0.349	46	20
0.421	69	20
0.527	100	20
0.617	150	21
0.665	193	22
0.699	220	20
0.773	225	22
0.78	257	22
0.847	340	24
0.897	420	23
1	514	20

System: carbon dioxide + pentafluoroethane; phases: Liquid, Crystal, Gas
Property: Triple point temperature, K (Liquid); method: time/temp cooling curves
Mole fraction of carbon dioxide	Triple point temperature, K	uncertainty
0	173.05	0.6
0.027	170.64	1.34
0.05	167	1.12
0.088	164.67	1.06
0.108	161.67	1.48
0.134	158.43	1.38

System: carbon dioxide + pentafluoroethane; phases: Liquid, Crystal, Gas
Property: Triple point temperature, K (Liquid); method: time/temp cooling curves
Mole fraction of carbon dioxide	Triple point temperature, K	uncertainty
0.184	162.99	1.44
0.229	167.68	1.55
0.271	173.3	1.37
0.349	179.25	1.27
0.421	184.95	1.23
0.527	192	1.24
0.617	199.23	1.18
0.665	200.25	1.1
0.699	203.08	1.07
0.773	204.59	1.07
0.78	205.22	1.07
0.847	208.75	1.15
0.897	212	1.12
1	216.56	1

System: pentafluoroethane + nitrous oxide; phases: Liquid, Crystal, Gas
Property: Vapor or sublimation pressure, kPa (Liquid); method: time/temp cooling curve
Mole fraction of nitrous oxide	Vapor or sublimation pressure, kPa	uncertainty
0	5	12
0.044	8	12
0.08	9	12
0.119	11	12
0.129	16	12
0.169	14	12
0.241	21	12
0.3	25	12

System: pentafluoroethane + nitrous oxide; phases: Liquid, Crystal, Gas
Property: Vapor or sublimation pressure, kPa (Liquid); method: time/temp cooling curve
Mole fraction of nitrous oxide	Vapor or sublimation pressure, kPa	uncertainty
0.375	23	12
0.492	32	12
0.503	33	12
0.582	34	12
0.65	40	12
0.736	52	12
0.791	55	12
0.821	69	12
0.851	75	12
1	92	12

System: pentafluoroethane + nitrous oxide; phases: Liquid, Crystal, Gas
Property: Triple point temperature, K (Liquid); method: time/temp cooling curves
Mole fraction of nitrous oxide	Triple point temperature, K	uncertainty
0	173.05	2
0.044	169.28	2.32
0.08	163.6	2.19
0.119	162.57	2
0.129	163.75	2.25
0.169	158.12	2.46
0.241	147.75	2.3
0.3	143.5	2.13

System: pentafluoroethane + nitrous oxide; phases: Liquid, Crystal, Gas
Property: Triple point temperature, K (Liquid); method: time/temp cooling curves
Mole fraction of nitrous oxide	Triple point temperature, K	uncertainty
0.375	149.47	2.15
0.492	158.62	2
0.503	158.58	2
0.582	161.3	2.06
0.65	166	2.08
0.736	170.1	2.06
0.791	173.13	2.1
0.821	175.61	2.06
0.851	176	2
1	181.99	2
