Measured thermophysical data. Binary Mutual Diffusion Coefficients of Aqueous Solutions of r-Cyclodextrin, 2-Hydroxypropyl-r-cyclodextrin, and 2-Hydroxypropyl-a-cyclodextrin at Temperatures from (298.15 to 312.15) K
Source: J. Chem. Eng. Data, 2007, 10.1021/je060474z
Compound 1: water, H2O, InChI=1S/H2O/h1H2, purity 99%
Compound 2: .alpha.-cyclodextrin, C36H60O30, InChI=1S/C36H60O30/c37-1-7-25-13(43)19(49)31(55-7)62-26-8(2-38)57-33(21(51)15(26)45)64-28-10(4-40)59-35(23(53)17(28)47)66-30-12(6-42)60-36(24(54)18(30)48)65-29-11(5-41)58-34(22(52)16(29)46)63-27-9(3-39)56-32(61-25)20(50)14(27)44/h7-54H,1-6H2/t7-,8-,9-,10-,11-,12-,13-,14-,15-,16-,17-,18-,19-,20-,21-,22-,23-,24-,25-,26-,27-,28-,29-,30-,31-,32-,33-,34-,35-,36-/m1/s1

System: water + .alpha.-cyclodextrin; phases: Liquid
Fixed: Pressure, kPa = 101.3
Property: Binary diffusion coefficient, m2/s (Liquid); method: Taylor dispersion method
Amount concentration (molarity), mol/dm3 of .alpha.-cyclodextrin	Temperature, K	Binary diffusion coefficient, m2/s	uncertainty
0.002	298.15	3.52e-10	0.02
0.004	298.15	3.5e-10	0.02
0.006	298.15	3.49e-10	0.02
0.008	298.15	3.47e-10	0.02
0.01	298.15	3.46e-10	0.02
0.002	303.15	4.07e-10	0.02
0.004	303.15	4.04e-10	0.02
0.006	303.15	4.03e-10	0.02
0.008	303.15	4.01e-10	0.02
0.01	303.15	3.98e-10	0.02
0.002	308.15	4.38e-10	0.021
0.004	308.15	4.36e-10	0.021
0.006	308.15	4.35e-10	0.021
0.008	308.15	4.34e-10	0.02
0.01	308.15	4.31e-10	0.02
0.002	312.15	5.02e-10	0.026
0.004	312.15	4.98e-10	0.025
0.006	312.15	4.88e-10	0.024
0.008	312.15	4.78e-10	0.023
0.01	312.15	4.72e-10	0.022
