Measured thermophysical data. Solubility Measurements of 1,1,1,2-Tetrafluoroethane (R134a) and of Propane in Squalane at Temperatures from (325 to 400) K and Pressures from (0.1 to 1) MPa
Source: J. Chem. Eng. Data, 2006, 10.1021/je060330k
Compound 1: 2,6,10,15,19,23-hexamethyltetracosane, C30H62, InChI=1S/C30H62/c1-25(2)15-11-19-29(7)23-13-21-27(5)17-9-10-18-28(6)22-14-24-30(8)20-12-16-26(3)4/h25-30H,9-24H2,1-8H3, purity 98%
Compound 2: 1,1,1,2-tetrafluoroethane, C2H2F4, InChI=1S/C2H2F4/c3-1-2(4,5)6/h1H2, purity 99.9%
Compound 3: propane, C3H8, InChI=1S/C3H8/c1-3-2/h3H2,1-2H3, purity 99.9%

System: 1,1,1,2-tetrafluoroethane; phases: Liquid, Gas
Property: Vapor or sublimation pressure, kPa (Liquid); method: Closed cell (Static) method
Temperature, K	Vapor or sublimation pressure, kPa	uncertainty
295.4	612	1.3
300	704.4	1.5
304	788.5	1.6

System: 2,6,10,15,19,23-hexamethyltetracosane + 1,1,1,2-tetrafluoroethane; phases: Liquid, Gas
Property: Mole fraction of 1,1,1,2-tetrafluoroethane (Liquid); method: derived from pressure change on dissolution
Temperature, K	Pressure, kPa	Mole fraction of 1,1,1,2-tetrafluoroethane	uncertainty
324.9	94.4	0.0268	0.0011
325	172.9	0.0487	0.002
325	336.5	0.0957	0.0038
325	430.9	0.1213	0.0049
325.1	45.5	0.0133	0.0005
325.1	291.2	0.081	0.0032
349.9	208.8	0.0462	0.0019
349.9	412.4	0.0906	0.0036
350	114.2	0.0255	0.001
350	356.6	0.0767	0.0031
350.1	55.2	0.0126	0.0005
350.1	530.3	0.1144	0.0046
374.9	413.7	0.0737	0.003
375	245.3	0.0442	0.0018
375	482.9	0.0866	0.0035
375.1	65.4	0.012	0.0005
375.1	132.4	0.0245	0.001
375.1	617.6	0.1093	0.0044
400	277	0.0427	0.0017
400	463.9	0.0714	0.0029
400	542.4	0.0837	0.0034
400.1	74.5	0.0115	0.0005
400.1	150.9	0.0236	0.0009
400.1	675.2	0.103	0.0041

System: propane + 2,6,10,15,19,23-hexamethyltetracosane; phases: Liquid, Gas
Property: Mole fraction of propane (Liquid); method: derived from pressure change on dissolution
Temperature, K	Pressure, kPa	Mole fraction of propane	uncertainty
324.9	65	0.0702	0.0028
324.9	127.8	0.1354	0.0054
325	38.9	0.0425	0.0017
325	337.8	0.2978	0.012
325	477	0.3953	0.0159
325.1	50.2	0.0546	0.0022
325.1	202.7	0.1959	0.0079
325.1	261.3	0.2471	0.0099
349.9	93.1	0.0673	0.0027
349.9	184.2	0.1304	0.0052
349.9	290.9	0.1893	0.0076
350	71.7	0.0523	0.0021
350	699.2	0.3868	0.0156
350.1	55.9	0.0406	0.0016
350.1	380.1	0.2392	0.0096
350.1	490.7	0.2893	0.0116
353.1	508.7	0.2883	0.0116
353.2	304.7	0.1882	0.0076
353.2	395.1	0.2383	0.0096
353.2	735.9	0.3852	0.0155
374.9	73.8	0.0388	0.0016
374.9	95.4	0.0499	0.002
375	941.5	0.3735	0.015
375.1	123.8	0.0643	0.0026
375.1	244.1	0.1252	0.005
375.1	389.3	0.1813	0.0073
375.1	506.4	0.2302	0.0092
375.1	653.7	0.2784	0.0112
399.9	307.4	0.1203	0.0048
399.9	490.3	0.1743	0.007
400	155.3	0.0616	0.0025
400	823.9	0.2683	0.0108
400.1	92.9	0.0371	0.0015
400.1	119.2	0.0478	0.0019
400.1	639.1	0.2217	0.0089
400.1	1260.1	0.3728	0.015
