Measured thermophysical data. Thermodynamics of Mixing Tetrahydropyran with 1-Alkanols and Excess Enthalpies of Homomorphy-Related Systems
Source: J. Chem. Eng. Data, 2007, 10.1021/je060368x
Compound 1: tetrahydropyran, C5H10O, InChI=1S/C5H10O/c1-2-4-6-5-3-1/h1-5H2
Compound 2: decane, C10H22, InChI=1S/C10H22/c1-3-5-7-9-10-8-6-4-2/h3-10H2,1-2H3
Compound 3: propan-1-ol, C3H8O, InChI=1S/C3H8O/c1-2-3-4/h4H,2-3H2,1H3
Compound 4: butan-1-ol, C4H10O, InChI=1S/C4H10O/c1-2-3-4-5/h5H,2-4H2,1H3
Compound 5: pentan-1-ol, C5H12O, InChI=1S/C5H12O/c1-2-3-4-5-6/h6H,2-5H2,1H3
Compound 6: hexan-1-ol, C6H14O, InChI=1S/C6H14O/c1-2-3-4-5-6-7/h7H,2-6H2,1H3
Compound 7: heptan-1-ol, C7H16O, InChI=1S/C7H16O/c1-2-3-4-5-6-7-8/h8H,2-7H2,1H3
Compound 8: octan-1-ol, C8H18O, InChI=1S/C8H18O/c1-2-3-4-5-6-7-8-9/h9H,2-8H2,1H3
Compound 9: nonan-1-ol, C9H20O, InChI=1S/C9H20O/c1-2-3-4-5-6-7-8-9-10/h10H,2-9H2,1H3
Compound 10: decan-1-ol, C10H22O, InChI=1S/C10H22O/c1-2-3-4-5-6-7-8-9-10-11/h11H,2-10H2,1H3
Compound 11: cyclohexane, C6H12, InChI=1S/C6H12/c1-2-4-6-5-3-1/h1-6H2

System: tetrahydropyran; phases: Liquid
Property: Heat capacity at constant pressure per volume, J/K/m3 (Liquid); method: FLOW:UFactor:2
Temperature, K	Pressure, kPa	Heat capacity at constant pressure per volume, J/K/m3	uncertainty
298.15	101.325	1519000	6000

System: decane + tetrahydropyran; phases: Liquid
Fixed: Temperature, K = 298.15
Fixed: Pressure, kPa = 101
Property: Excess molar enthalpy (molar enthalpy of mixing), kJ/mol (Liquid); method: Flow calorimetry
Mole fraction of tetrahydropyran	Excess molar enthalpy (molar enthalpy of mixing), kJ/mol	uncertainty
0.182	0.3798	0.0057
0.333	0.5965	0.0086
0.461	0.6909	0.0092
0.571	0.7093	0.0091
0.666	0.6677	0.0097
0.75	0.5906	0.0118
0.823	0.4793	0.0159
0.889	0.3436	0.022
0.947	0.179	0.027

System: pentan-1-ol + tetrahydropyran; phases: Liquid
Fixed: Temperature, K = 298.15
Fixed: Pressure, kPa = 101
Property: Heat capacity at constant pressure per volume, J/K/m3 (Liquid); method: FLOW:UFactor:2
Mole fraction of tetrahydropyran	Heat capacity at constant pressure per volume, J/K/m3	uncertainty
0.0486	1898000	8000
0.0968	1881000	8000
0.2002	1846000	7000
0.2987	1811000	7000
0.3966	1776000	7000
0.4994	1738000	7000
0.5993	1698000	7000
0.6972	1657000	7000
0.8	1610000	6000
0.8983	1564000	6000
0.9495	1540000	6000

System: pentan-1-ol + tetrahydropyran; phases: Liquid
Fixed: Temperature, K = 298.15
Fixed: Pressure, kPa = 101
Property: Excess molar enthalpy (molar enthalpy of mixing), kJ/mol (Liquid); method: Flow calorimetry
Mole fraction of tetrahydropyran	Excess molar enthalpy (molar enthalpy of mixing), kJ/mol	uncertainty
0.11	0.3282	0.0053
0.217	0.6006	0.0091
0.323	0.7933	0.0113
0.426	0.9164	0.0122
0.526	0.97	0.0123
0.625	0.955	0.0126
0.722	0.8628	0.0149
0.816	0.6885	0.0217
0.909	0.409	0.0279

System: pentan-1-ol + tetrahydropyran; phases: Liquid
Fixed: Pressure, kPa = 101
Fixed: Temperature, K = 298.15
Property: Mass density, kg/m3 (Liquid); method: VIBTUB:UFactor:4
Mole fraction of tetrahydropyran	Mass density, kg/m3	uncertainty
0.0486	813.55	0.71
0.0968	816.55	0.7
0.2002	823.07	0.69
0.2987	829.33	0.68
0.3966	835.71	0.67
0.4994	842.54	0.66
0.5993	849.33	0.65
0.6972	856.2	0.64
0.8	863.59	0.63
0.8983	870.89	0.62
0.9495	874.85	0.61

System: tetrahydropyran + nonan-1-ol; phases: Liquid
Fixed: Temperature, K = 298.15
Fixed: Pressure, kPa = 101
Property: Heat capacity at constant pressure per volume, J/K/m3 (Liquid); method: FLOW:UFactor:2
Mole fraction of tetrahydropyran	Heat capacity at constant pressure per volume, J/K/m3	uncertainty
0.0965	1899000	8000
0.1998	1866000	7000
0.2989	1834000	7000
0.3822	1806000	7000
0.497	1764000	7000
0.5969	1724000	7000
0.6983	1677000	7000
0.8	1626000	7000
0.9002	1572000	6000

System: tetrahydropyran + nonan-1-ol; phases: Liquid
Fixed: Temperature, K = 298.15
Fixed: Pressure, kPa = 101
Property: Excess molar enthalpy (molar enthalpy of mixing), kJ/mol (Liquid); method: Flow calorimetry
Mole fraction of tetrahydropyran	Excess molar enthalpy (molar enthalpy of mixing), kJ/mol	uncertainty
0.166	0.5432	0.0081
0.309	0.8836	0.0128
0.434	1.0639	0.0142
0.544	1.1276	0.0143
0.641	1.0983	0.0146
0.729	0.9953	0.0174
0.807	0.8246	0.024
0.877	0.5982	0.0336
0.942	0.321	0.0404

System: tetrahydropyran + nonan-1-ol; phases: Liquid
Fixed: Pressure, kPa = 101
Fixed: Temperature, K = 298.15
Property: Mass density, kg/m3 (Liquid); method: VIBTUB:UFactor:4
Mole fraction of tetrahydropyran	Mass density, kg/m3	uncertainty
0.0965	826.81	1.15
0.1998	830.22	1.08
0.2989	833.75	1.02
0.3822	837.11	0.96
0.497	842.35	0.89
0.5969	847.63	0.83
0.6983	853.74	0.77
0.8	860.8	0.72
0.9002	869.06	0.66

System: decan-1-ol + tetrahydropyran; phases: Liquid
Fixed: Temperature, K = 298.15
Fixed: Pressure, kPa = 101
Property: Heat capacity at constant pressure per volume, J/K/m3 (Liquid); method: FLOW:UFactor:2
Mole fraction of tetrahydropyran	Heat capacity at constant pressure per volume, J/K/m3	uncertainty
0.1017	1904000	8000
0.2006	1872000	8000
0.2971	1841000	7000
0.3995	1806000	7000
0.4943	1772000	7000
0.5984	1730000	7000
0.6979	1683000	7000
0.8001	1631000	7000
0.9009	1574000	6000

System: decan-1-ol + tetrahydropyran; phases: Liquid
Fixed: Temperature, K = 298.15
Fixed: Pressure, kPa = 101
Property: Excess molar enthalpy (molar enthalpy of mixing), kJ/mol (Liquid); method: Flow calorimetry
Mole fraction of tetrahydropyran	Excess molar enthalpy (molar enthalpy of mixing), kJ/mol	uncertainty
0.179	0.5862	0.0088
0.329	0.9593	0.0138
0.456	1.1294	0.0149
0.566	1.1789	0.0149
0.662	1.1335	0.0155
0.746	1.0162	0.0192
0.82	0.8302	0.0267
0.887	0.5934	0.037
0.946	0.314	0.045

System: decan-1-ol + tetrahydropyran; phases: Liquid
Fixed: Pressure, kPa = 101
Fixed: Temperature, K = 298.15
Property: Mass density, kg/m3 (Liquid); method: VIBTUB:UFactor:4
Mole fraction of tetrahydropyran	Mass density, kg/m3	uncertainty
0.1017	828.6	0.68
0.2006	831.38	0.68
0.2971	834.48	0.67
0.3995	838.2	0.67
0.4943	842.21	0.66
0.5984	847.35	0.65
0.6979	853.12	0.64
0.8001	860.13	0.63
0.9009	868.56	0.62

System: pentan-1-ol + cyclohexane; phases: Liquid
Fixed: Temperature, K = 298.15
Fixed: Pressure, kPa = 101
Property: Excess molar enthalpy (molar enthalpy of mixing), kJ/mol (Liquid); method: Flow calorimetry
Mole fraction of cyclohexane	Excess molar enthalpy (molar enthalpy of mixing), kJ/mol	uncertainty
0.1	0.1492	0.0027
0.2	0.2896	0.0048
0.3	0.4086	0.0065
0.4	0.5211	0.0078
0.5	0.5985	0.0083
0.6	0.6379	0.0083
0.7	0.6229	0.0086
0.8	0.5556	0.0106
0.9	0.4276	0.0128

System: cyclohexane + heptan-1-ol; phases: Liquid
Fixed: Temperature, K = 298.15
Fixed: Pressure, kPa = 101
Property: Excess molar enthalpy (molar enthalpy of mixing), kJ/mol (Liquid); method: Flow calorimetry
Mole fraction of cyclohexane	Excess molar enthalpy (molar enthalpy of mixing), kJ/mol	uncertainty
0.127	0.1908	0.0034
0.246	0.3626	0.0059
0.359	0.497	0.0075
0.466	0.594	0.0084
0.466	0.5937	0.0084
0.567	0.6447	0.0085
0.662	0.6491	0.0085
0.753	0.6067	0.0094
0.839	0.5272	0.0124
0.922	0.3998	0.0151

System: cyclohexane + nonan-1-ol; phases: Liquid
Fixed: Temperature, K = 298.15
Fixed: Pressure, kPa = 101
Property: Excess molar enthalpy (molar enthalpy of mixing), kJ/mol (Liquid); method: Flow calorimetry
Mole fraction of cyclohexane	Excess molar enthalpy (molar enthalpy of mixing), kJ/mol	uncertainty
0.152	0.2542	0.0042
0.287	0.447	0.0069
0.409	0.5772	0.0083
0.518	0.6517	0.0088
0.617	0.6743	0.0087
0.707	0.6556	0.009
0.79	0.5983	0.0109
0.866	0.5011	0.0149
0.936	0.3722	0.0179

System: cyclohexane + decan-1-ol; phases: Liquid
Fixed: Temperature, K = 298.15
Fixed: Pressure, kPa = 101
Property: Excess molar enthalpy (molar enthalpy of mixing), kJ/mol (Liquid); method: Flow calorimetry
Mole fraction of cyclohexane	Excess molar enthalpy (molar enthalpy of mixing), kJ/mol	uncertainty
0.164	0.2903	0.0046
0.306	0.4931	0.0075
0.431	0.6192	0.0087
0.541	0.6834	0.009
0.638	0.6947	0.009
0.726	0.6668	0.0094
0.805	0.6037	0.0114
0.876	0.5107	0.016
0.941	0.3775	0.0199

System: propan-1-ol + tetrahydropyran; phases: Liquid
Fixed: Temperature, K = 298.15
Fixed: Pressure, kPa = 101
Property: Heat capacity at constant pressure per volume, J/K/m3 (Liquid); method: FLOW:UFactor:2
Mole fraction of tetrahydropyran	Heat capacity at constant pressure per volume, J/K/m3	uncertainty
0.0996	1875000	8000
0.1994	1838000	7000
0.2873	1807000	7000
0.3993	1766000	7000
0.4981	1728000	7000
0.6011	1687000	7000
0.7007	1646000	7000
0.7981	1604000	6000
0.9007	1560000	6000

System: propan-1-ol + tetrahydropyran; phases: Liquid
Fixed: Pressure, kPa = 101
Fixed: Temperature, K = 298.15
Property: Mass density, kg/m3 (Liquid); method: VIBTUB:UFactor:4
Mole fraction of tetrahydropyran	Mass density, kg/m3	uncertainty
0.0996	809.78	0.6
0.1994	819.29	0.59
0.2873	827.18	0.58
0.3993	836.57	0.58
0.4981	844.4	0.58
0.6011	852.07	0.58
0.7007	859.15	0.58
0.7981	865.77	0.59
0.9007	872.46	0.59

System: butan-1-ol + tetrahydropyran; phases: Liquid
Fixed: Temperature, K = 298.15
Fixed: Pressure, kPa = 101
Property: Heat capacity at constant pressure per volume, J/K/m3 (Liquid); method: FLOW:UFactor:2
Mole fraction of tetrahydropyran	Heat capacity at constant pressure per volume, J/K/m3	uncertainty
0.0511	1899000	8000
0.0976	1882000	8000
0.1996	1847000	7000
0.301	1811000	7000
0.3987	1778000	7000
0.499	1739000	7000
0.598	1699000	7000
0.6994	1655000	7000
0.7998	1610000	6000
0.8998	1563000	6000
0.9501	1541000	6000

System: butan-1-ol + tetrahydropyran; phases: Liquid
Fixed: Pressure, kPa = 101
Fixed: Temperature, K = 298.15
Property: Mass density, kg/m3 (Liquid); method: VIBTUB:UFactor:4
Mole fraction of tetrahydropyran	Mass density, kg/m3	uncertainty
0.0511	809.59	0.56
0.0976	813.23	0.55
0.1996	821.04	0.55
0.301	828.64	0.54
0.3987	835.87	0.54
0.499	843.12	0.54
0.598	850.26	0.55
0.6994	857.46	0.56
0.7998	864.53	0.57
0.8998	871.67	0.58
0.9501	875.22	0.59

System: heptan-1-ol + tetrahydropyran; phases: Liquid
Fixed: Temperature, K = 298.15
Fixed: Pressure, kPa = 101
Property: Heat capacity at constant pressure per volume, J/K/m3 (Liquid); method: FLOW:UFactor:2
Mole fraction of tetrahydropyran	Heat capacity at constant pressure per volume, J/K/m3	uncertainty
0.0514	1904000	8000
0.1047	1887000	8000
0.1988	1857000	7000
0.2987	1824000	7000
0.4018	1790000	7000
0.4976	1755000	7000
0.6005	1715000	7000
0.6985	1673000	7000
0.8002	1625000	7000
0.8989	1576000	6000
0.9487	1551000	6000

System: heptan-1-ol + tetrahydropyran; phases: Liquid
Fixed: Pressure, kPa = 101
Fixed: Temperature, K = 298.15
Property: Mass density, kg/m3 (Liquid); method: VIBTUB:UFactor:4
Mole fraction of tetrahydropyran	Mass density, kg/m3	uncertainty
0.0514	820.57	1.19
0.1047	822.8	1.15
0.1988	826.97	1.09
0.2987	831.67	1.02
0.4018	836.94	0.95
0.4976	842.18	0.89
0.6005	848.37	0.83
0.6985	854.74	0.77
0.8002	861.99	0.71
0.8989	869.83	0.66
0.9487	874.13	0.63

System: hexan-1-ol + tetrahydropyran; phases: Liquid
Fixed: Temperature, K = 298.15
Fixed: Pressure, kPa = 101
Property: Heat capacity at constant pressure per volume, J/K/m3 (Liquid); method: FLOW:UFactor:2
Mole fraction of tetrahydropyran	Heat capacity at constant pressure per volume, J/K/m3	uncertainty
0.0523	1899000	8000
0.1033	1883000	8000
0.2029	1851000	7000
0.3021	1818000	7000
0.4033	1782000	7000
0.5007	1745000	7000
0.6013	1705000	7000
0.7015	1662000	7000
0.799	1616000	6000
0.8994	1567000	6000
0.9482	1543000	6000

System: hexan-1-ol + tetrahydropyran; phases: Liquid
Fixed: Pressure, kPa = 101
Fixed: Temperature, K = 298.15
Property: Mass density, kg/m3 (Liquid); method: VIBTUB:UFactor:4
Mole fraction of tetrahydropyran	Mass density, kg/m3	uncertainty
0.0523	817.49	0.7
0.1033	820.05	0.7
0.2029	825.28	0.69
0.3021	830.74	0.68
0.4033	836.58	0.67
0.5007	842.45	0.66
0.6013	848.93	0.65
0.7015	855.69	0.64
0.799	862.7	0.63
0.8994	870.44	0.62
0.9482	874.45	0.61

System: octan-1-ol + tetrahydropyran; phases: Liquid
Fixed: Temperature, K = 298.15
Fixed: Pressure, kPa = 101
Property: Heat capacity at constant pressure per volume, J/K/m3 (Liquid); method: FLOW:UFactor:2
Mole fraction of tetrahydropyran	Heat capacity at constant pressure per volume, J/K/m3	uncertainty
0.0533	1908000	8000
0.0961	1894000	8000
0.198	1861000	7000
0.2967	1829000	7000
0.4014	1794000	7000
0.5	1758000	7000
0.599	1716000	7000
0.7005	1670000	7000
0.7999	1622000	7000
0.8989	1569000	6000
0.9504	1541000	6000

System: octan-1-ol + tetrahydropyran; phases: Liquid
Fixed: Pressure, kPa = 101
Fixed: Temperature, K = 298.15
Property: Mass density, kg/m3 (Liquid); method: VIBTUB:UFactor:4
Mole fraction of tetrahydropyran	Mass density, kg/m3	uncertainty
0.0533	823.35	0.69
0.0961	824.78	0.69
0.198	828.58	0.68
0.2967	832.64	0.68
0.4014	837.39	0.67
0.5	842.3	0.66
0.599	847.86	0.65
0.7005	854.23	0.64
0.7999	861.27	0.63
0.8989	869.3	0.62
0.9504	873.97	0.61
