Measured thermophysical data. Measurement and Correlation of Solubilities of Luteolin in Organic Solvents at Different Temperatures
Source: J. Chem. Eng. Data, 2006, 10.1021/je060133l
Compound 1: methanol, CH4O, InChI=1S/CH4O/c1-2/h2H,1H3
Compound 2: ethanol, C2H6O, InChI=1S/C2H6O/c1-2-3/h3H,2H2,1H3
Compound 3: propan-1-ol, C3H8O, InChI=1S/C3H8O/c1-2-3-4/h4H,2-3H2,1H3
Compound 4: propan-2-ol, C3H8O, InChI=1S/C3H8O/c1-3(2)4/h3-4H,1-2H3
Compound 5: butan-1-ol, C4H10O, InChI=1S/C4H10O/c1-2-3-4-5/h5H,2-4H2,1H3
Compound 6: acetone, C3H6O, InChI=1S/C3H6O/c1-3(2)4/h1-2H3
Compound 7: hexane, C6H14, InChI=1S/C6H14/c1-3-5-6-4-2/h3-6H2,1-2H3
Compound 8: dimethyl sulfoxide, C2H6OS, InChI=1S/C2H6OS/c1-4(2)3/h1-2H3
Compound 9: 5,7,3',4'-tetrahydroxyflavone, C15H10O6, InChI=1S/C15H10O6/c16-8-4-11(19)15-12(20)6-13(21-14(15)5-8)7-1-2-9(17)10(18)3-7/h1-6,16-19H, purity 98%

System: 5,7,3',4'-tetrahydroxyflavone; phases: Crystal, Liquid, Air at 1 atmosphere
Property: Normal melting temperature, K (Crystal); method: DTA
Normal melting temperature, K	uncertainty
601	1

System: methanol + 5,7,3',4'-tetrahydroxyflavone; phases: Liquid, Crystal
Fixed: Pressure, kPa = 101
Property: Mole fraction of 5,7,3',4'-tetrahydroxyflavone (Liquid); method: Chromatography
Temperature, K	Mole fraction of 5,7,3',4'-tetrahydroxyflavone	uncertainty
273.15	0.00046	5e-05
283.15	0.00048	5e-05
298.15	0.00054	8e-05
313.15	0.00071	7e-05
333.15	0.00086	9e-05

System: ethanol + 5,7,3',4'-tetrahydroxyflavone; phases: Liquid, Crystal
Fixed: Pressure, kPa = 101
Property: Mole fraction of 5,7,3',4'-tetrahydroxyflavone (Liquid); method: Chromatography
Temperature, K	Mole fraction of 5,7,3',4'-tetrahydroxyflavone	uncertainty
273.15	0.00076	0.0001
283.15	0.00114	0.00012
298.15	0.00185	0.00019
313.15	0.00268	0.00056
333.15	0.00378	0.0004

System: propan-1-ol + 5,7,3',4'-tetrahydroxyflavone; phases: Liquid, Crystal
Fixed: Pressure, kPa = 101
Property: Mole fraction of 5,7,3',4'-tetrahydroxyflavone (Liquid); method: Chromatography
Temperature, K	Mole fraction of 5,7,3',4'-tetrahydroxyflavone	uncertainty
273.15	0.00157	0.0005
283.15	0.00203	0.0002
298.15	0.00245	0.00025
313.15	0.00271	0.00027
333.15	0.00322	0.00034

System: propan-2-ol + 5,7,3',4'-tetrahydroxyflavone; phases: Liquid, Crystal
Fixed: Pressure, kPa = 101
Property: Mole fraction of 5,7,3',4'-tetrahydroxyflavone (Liquid); method: Chromatography
Temperature, K	Mole fraction of 5,7,3',4'-tetrahydroxyflavone	uncertainty
273.15	0.00107	0.00018
283.15	0.0013	0.00013
298.15	0.00194	0.00028
313.15	0.00217	0.00022
333.15	0.00267	0.00027

System: butan-1-ol + 5,7,3',4'-tetrahydroxyflavone; phases: Liquid, Crystal
Fixed: Pressure, kPa = 101
Property: Mole fraction of 5,7,3',4'-tetrahydroxyflavone (Liquid); method: Chromatography
Temperature, K	Mole fraction of 5,7,3',4'-tetrahydroxyflavone	uncertainty
273.15	0.00138	0.00014
283.15	0.00145	0.00032
298.15	0.00179	0.0004
313.15	0.00219	0.00022
333.15	0.0029	0.00029

System: acetone + 5,7,3',4'-tetrahydroxyflavone; phases: Liquid, Crystal
Fixed: Pressure, kPa = 101
Property: Mole fraction of 5,7,3',4'-tetrahydroxyflavone (Liquid); method: Chromatography
Temperature, K	Mole fraction of 5,7,3',4'-tetrahydroxyflavone	uncertainty
273.15	0.00053	5e-05
283.15	0.00091	0.00012
298.15	0.00156	0.00016
313.15	0.00234	0.00024
333.15	0.00316	0.00032

System: hexane + 5,7,3',4'-tetrahydroxyflavone; phases: Liquid, Crystal
Fixed: Pressure, kPa = 101
Property: Mole fraction of 5,7,3',4'-tetrahydroxyflavone (Liquid); method: Chromatography
Temperature, K	Mole fraction of 5,7,3',4'-tetrahydroxyflavone	uncertainty
273.15	0.0011	0.00022
283.15	0.00123	0.00012
298.15	0.00154	0.00015
313.15	0.00173	0.00017
333.15	0.00201	0.00026

System: dimethyl sulfoxide + 5,7,3',4'-tetrahydroxyflavone; phases: Liquid, Crystal
Fixed: Pressure, kPa = 101
Property: Mole fraction of 5,7,3',4'-tetrahydroxyflavone (Liquid); method: Chromatography
Temperature, K	Mole fraction of 5,7,3',4'-tetrahydroxyflavone	uncertainty
298.15	0.0513	0.0051
313.15	0.06625	0.00665
333.15	0.08498	0.00853
