Measured thermophysical data. Density and Speed of Sound of Binary Mixtures of N-Methylacetamide with Ethyl Acetate, Ethyl Chloroacetate, and Ethyl Cyanoacetate in the Temperature Interval (303.15 to 318.15) K
Source: J. Chem. Eng. Data, 2007, 10.1021/je060343y
Compound 1: ethyl acetate, C4H8O2, InChI=1S/C4H8O2/c1-3-6-4(2)5/h3H2,1-2H3
Compound 2: ethyl chloroethanoate, C4H7ClO2, InChI=1S/C4H7ClO2/c1-2-7-4(6)3-5/h2-3H2,1H3
Compound 3: ethyl cyanoacetate, C5H7NO2, InChI=1S/C5H7NO2/c1-2-8-5(7)3-4-6/h2-3H2,1H3
Compound 4: N-methylacetamide, C3H7NO, InChI=1S/C3H7NO/c1-3(5)4-2/h1-2H3,(H,4,5)

System: ethyl acetate; phases: Liquid
Fixed: Pressure, kPa = 101
Property: Speed of sound, m/s (Liquid); method: LVPAI::UFactor:8
Temperature, K	Speed of sound, m/s	uncertainty
303.15	1119	10
308.15	1098	10
313.15	1081	10
318.15	1058	10

System: ethyl acetate; phases: Liquid
Fixed: Pressure, kPa = 101
Property: Mass density, kg/m3 (Liquid); method: PYCNOM::UFactor:8
Temperature, K	Mass density, kg/m3	uncertainty
303.15	888.9	1.8
308.15	882.6	1.9
313.15	875.9	2
318.15	869.6	2

System: ethyl chloroethanoate; phases: Liquid
Fixed: Pressure, kPa = 101
Property: Speed of sound, m/s (Liquid); method: LVPAI::UFactor:8
Temperature, K	Speed of sound, m/s	uncertainty
303.15	1229	11
308.15	1212	11
313.15	1198	11
318.15	1177	11

System: ethyl chloroethanoate; phases: Liquid
Fixed: Pressure, kPa = 101
Property: Mass density, kg/m3 (Liquid); method: PYCNOM::UFactor:8
Temperature, K	Mass density, kg/m3	uncertainty
303.15	1139.29	2.65
308.15	1132.5	2.7
313.15	1125.9	2.8
318.15	1119.9	2.9

System: ethyl cyanoacetate; phases: Liquid
Fixed: Pressure, kPa = 101
Property: Speed of sound, m/s (Liquid); method: LVPAI::UFactor:12
Temperature, K	Speed of sound, m/s	uncertainty
303.15	1397	18
308.15	1385	18
313.15	1368	17
318.15	1359	17

System: ethyl cyanoacetate; phases: Liquid
Fixed: Pressure, kPa = 101
Property: Mass density, kg/m3 (Liquid); method: PYCNOM::UFactor:8
Temperature, K	Mass density, kg/m3	uncertainty
303.15	1051.4	3.1
308.15	1046.5	3.1
313.15	1040.8	3.2
318.15	1034.7	3.3

System: N-methylacetamide; phases: Liquid
Fixed: Pressure, kPa = 101
Property: Speed of sound, m/s (Liquid); method: LVPAI:UFactor:8
Temperature, K	Speed of sound, m/s	uncertainty
303.15	1367	12
308.15	1362	12
313.15	1334	12
318.15	1319	12

System: N-methylacetamide; phases: Liquid
Fixed: Pressure, kPa = 101
Property: Mass density, kg/m3 (Liquid); method: PYCNOM:UFactor:8
Temperature, K	Mass density, kg/m3	uncertainty
303.15	951.3	2.1
308.15	945.9	2.2
313.15	943.6	2.3
318.15	939.9	2.4

System: N-methylacetamide + ethyl acetate; phases: Liquid
Fixed: Pressure, kPa = 101
Property: Speed of sound, m/s (Liquid); method: LVPAI:UFactor:8
Temperature, K	Volume fraction of N-methylacetamide	Speed of sound, m/s	uncertainty
303.15	0	1119	10
303.15	0.0538	1132	10
303.15	0.1843	1167	11
303.15	0.2972	1197	11
303.15	0.3991	1223	11
303.15	0.4982	1248	11
303.15	0.594	1271	11
303.15	0.6955	1295	11
303.15	0.7437	1306	12
303.15	0.9463	1354	12
303.15	1	1367	12
308.15	0	1098	10
308.15	0.0537	1114	10
308.15	0.1841	1149	10
308.15	0.2969	1180	11
308.15	0.3988	1208	11
308.15	0.4979	1234	11
308.15	0.5937	1259	11
308.15	0.6952	1284	11
308.15	0.7434	1296	11
308.15	0.9488	1348	12
308.15	1	1362	12
313.15	0	1081	10
313.15	0.0534	1097	10
313.15	0.1833	1132	10
313.15	0.2958	1161	11
313.15	0.3976	1188	11
313.15	0.4966	1214	11
313.15	0.5924	1238	11
313.15	0.6941	1263	11
313.15	0.7431	1274	11
313.15	0.946	1322	12
313.15	1	1334	12
318.15	0	1058	10
318.15	0.0533	1074	10
318.15	0.1828	1113	10
318.15	0.2951	1144	10
318.15	0.3968	1172	11
318.15	0.4958	1198	11
318.15	0.5916	1223	11
318.15	0.6934	1249	11
318.15	0.7418	1261	11
318.15	0.9458	1309	12
318.15	1	1319	12

System: N-methylacetamide + ethyl acetate; phases: Liquid
Fixed: Pressure, kPa = 101
Property: Mass density, kg/m3 (Liquid); method: PYCNOM:UFactor:8
Temperature, K	Volume fraction of N-methylacetamide	Mass density, kg/m3	uncertainty
303.15	0	888.9	1.8
303.15	0.0538	893.87	1.83
303.15	0.1843	903.06	1.86
303.15	0.2972	910.76	1.9
303.15	0.3991	917.49	1.92
303.15	0.4982	923.67	1.95
303.15	0.594	929.3	2
303.15	0.6955	935.03	2.01
303.15	0.7437	937.68	2.03
303.15	0.9463	948.19	2.09
303.15	1	951.3	2.1
308.15	0	882.6	1.9
308.15	0.0537	887.58	1.91
308.15	0.1841	896.86	1.94
308.15	0.2969	904.58	1.97
308.15	0.3988	911.43	2
308.15	0.4979	917.94	2.03
308.15	0.5937	923.93	2.06
308.15	0.6952	930.02	2.09
308.15	0.7434	932.86	2.1
308.15	0.9488	943.96	2.17
308.15	1	945.9	2.2
313.15	0	875.9	2
313.15	0.0534	880.97	1.98
313.15	0.1833	891.3	2
313.15	0.2958	899.84	2.05
313.15	0.3976	907.15	2.08
313.15	0.4966	913.79	2.11
313.15	0.5924	920.09	2.14
313.15	0.6941	926.71	2.17
313.15	0.7431	929.67	2.19
313.15	0.946	941.22	2.25
313.15	1	943.6	2.3
318.15	0	869.6	2
318.15	0.0533	875.13	2.06
318.15	0.1828	886.1	2.1
318.15	0.2951	894.79	2.13
318.15	0.3968	902.46	2.16
318.15	0.4958	909.37	2.19
318.15	0.5916	915.67	2.22
318.15	0.6934	922.12	2.25
318.15	0.7418	925.21	2.27
318.15	0.9458	937.26	2.34
318.15	1	939.9	2.4

System: N-methylacetamide + ethyl chloroethanoate; phases: Liquid
Fixed: Pressure, kPa = 101
Property: Speed of sound, m/s (Liquid); method: LVPAI:UFactor:8
Temperature, K	Volume fraction of N-methylacetamide	Speed of sound, m/s	uncertainty
303.15	0	1229	11
303.15	0.0547	1238	11
303.15	0.154	1252	11
303.15	0.2473	1265	11
303.15	0.2903	1272	11
303.15	0.4356	1293	11
303.15	0.5321	1305	12
303.15	0.6203	1317	12
303.15	0.7118	1329	12
303.15	0.8656	1350	12
303.15	1	1367	12
308.15	0	1212	11
308.15	0.0547	1221	11
308.15	0.154	1235	11
308.15	0.2473	1249	11
308.15	0.2902	1256	11
308.15	0.4356	1277	11
308.15	0.532	1291	11
308.15	0.6202	1304	12
308.15	0.7118	1318	12
308.15	0.8656	1342	12
308.15	1	1362	12
313.15	0	1198	11
313.15	0.0545	1207	11
313.15	0.1535	1220	11
313.15	0.2466	1233	11
313.15	0.2895	1239	11
313.15	0.4347	1259	11
313.15	0.5312	1271	11
313.15	0.6194	1283	11
313.15	0.7111	1296	11
313.15	0.8652	1317	12
313.15	1	1334	12
318.15	0	1177	11
318.15	0.0544	1187	11
318.15	0.1533	1202	11
318.15	0.2464	1207	11
318.15	0.2892	1212	11
318.15	0.4344	1231	11
318.15	0.5308	1244	11
318.15	0.6191	1257	11
318.15	0.7108	1272	11
318.15	0.865	1296	11
318.15	1	1319	12

System: N-methylacetamide + ethyl chloroethanoate; phases: Liquid
Fixed: Pressure, kPa = 101
Property: Mass density, kg/m3 (Liquid); method: PYCNOM:UFactor:8
Temperature, K	Volume fraction of N-methylacetamide	Mass density, kg/m3	uncertainty
303.15	0	1139.29	2.65
303.15	0.0547	1128.33	2.62
303.15	0.154	1110.27	2.56
303.15	0.2473	1093.79	2.52
303.15	0.2903	1085.92	2.49
303.15	0.4356	1059.31	2.42
303.15	0.5321	1041.12	2.36
303.15	0.6203	1024.32	2.32
303.15	0.7118	1006.88	2.27
303.15	0.8656	977.31	2.18
303.15	1	951.3	2.1
308.15	0	1132.5	2.7
308.15	0.0547	1123.26	2.7
308.15	0.154	1105.23	2.64
308.15	0.2473	1088.2	2.6
308.15	0.2902	1080.37	2.57
308.15	0.4356	1053.83	2.49
308.15	0.532	1036.02	2.44
308.15	0.6202	1019.38	2.39
308.15	0.7118	1002.05	2.34
308.15	0.8656	972.28	2.26
308.15	1	945.9	2.2
313.15	0	1125.9	2.8
313.15	0.0545	1115.23	2.77
313.15	0.1535	1098.23	2.72
313.15	0.2466	1082.14	2.67
313.15	0.2895	1074.53	2.65
313.15	0.4347	1048.13	2.57
313.15	0.5312	1030.46	2.52
313.15	0.6194	1014.19	2.47
313.15	0.7111	997.15	2.42
313.15	0.8652	968.5	2.3
313.15	1	943.6	2.3
318.15	0	1119.9	2.9
318.15	0.0544	1109.19	2.84
318.15	0.1533	1090.85	2.79
318.15	0.2464	1073.98	2.74
318.15	0.2892	1066.23	2.72
318.15	0.4344	1040.02	2.64
318.15	0.5308	1022.75	2.59
318.15	0.6191	1007.06	2.54
318.15	0.7108	990.68	2.5
318.15	0.865	963.31	2.42
318.15	1	939.9	2.4

System: N-methylacetamide + ethyl cyanoacetate; phases: Liquid
Fixed: Pressure, kPa = 101
Property: Speed of sound, m/s (Liquid); method: LVPAI:UFactor:12
Temperature, K	Volume fraction of N-methylacetamide	Speed of sound, m/s	uncertainty
303.15	0	1397	18
303.15	0.0529	1396	18
303.15	0.186	1391	18
303.15	0.2745	1389	18
303.15	0.3672	1386	18
303.15	0.4502	1384	18
303.15	0.5435	1380	18
303.15	0.5664	1379	18
303.15	0.7307	1375	17
303.15	0.8795	1370	17
303.15	1	1367	17
308.15	0	1385	18
308.15	0.0529	1384	18
308.15	0.1862	1380	18
308.15	0.2747	1378	18
308.15	0.3675	1375	18
308.15	0.4504	1373	17
308.15	0.5438	1371	17
308.15	0.5666	1370	17
308.15	0.7309	1367	17
308.15	0.8796	1365	17
308.15	1	1362	17
313.15	0	1368	17
313.15	0.0528	1366	17
313.15	0.1857	1362	17
313.15	0.2741	1359	17
313.15	0.3667	1356	17
313.15	0.4497	1353	17
313.15	0.543	1349	17
313.15	0.5659	1348	17
313.15	0.7303	1343	17
313.15	0.8793	1337	17
313.15	1	1334	17
318.15	0	1359	17
318.15	0.0527	1358	17
318.15	0.1854	1356	17
318.15	0.2737	1352	17
318.15	0.3663	1348	17
318.15	0.4492	1345	17
318.15	0.5425	1341	17
318.15	0.5654	1340	17
318.15	0.7299	1332	17
318.15	0.8791	1324	17
318.15	1	1319	17

System: N-methylacetamide + ethyl cyanoacetate; phases: Liquid
Fixed: Pressure, kPa = 101
Property: Mass density, kg/m3 (Liquid); method: PYCNOM:UFactor:8
Temperature, K	Volume fraction of N-methylacetamide	Mass density, kg/m3	uncertainty
303.15	0	1051.4	3.1
303.15	0.0529	1048.11	3.01
303.15	0.186	1036.06	2.85
303.15	0.2745	1027.82	2.75
303.15	0.3672	1018.95	2.65
303.15	0.4502	1010.93	2.57
303.15	0.5435	1001.23	2.48
303.15	0.5664	998.75	2.45
303.15	0.7307	980.97	2.31
303.15	0.8795	964.97	2.19
303.15	1	951.3	2.1
308.15	0	1046.5	3.1
308.15	0.0529	1041.91	3.07
308.15	0.1862	1029.63	2.91
308.15	0.2747	1021.42	2.82
308.15	0.3675	1012.63	2.72
308.15	0.4504	1004.44	2.64
308.15	0.5438	994.68	2.55
308.15	0.5666	992.26	2.52
308.15	0.7309	974.66	2.38
308.15	0.8796	958.76	2.27
308.15	1	945.9	2.2
313.15	0	1040.8	3.2
313.15	0.0528	1036.3	3.1
313.15	0.1857	1024.28	2.99
313.15	0.2741	1015.97	2.89
313.15	0.3667	1007.36	2.79
313.15	0.4497	999.41	2.71
313.15	0.543	990.26	2.62
313.15	0.5659	987.92	2.6
313.15	0.7303	971.38	2.46
313.15	0.8793	956.39	2.35
313.15	1	943.6	2.3
318.15	0	1034.7	3.3
318.15	0.0527	1030.52	3.21
318.15	0.1854	1018.59	3.06
318.15	0.2737	1010.48	2.96
318.15	0.3663	1001.85	2.87
318.15	0.4492	994.13	2.79
318.15	0.5425	985.18	2.7
318.15	0.5654	982.97	2.68
318.15	0.7299	966.83	2.54
318.15	0.8791	952.07	2.43
318.15	1	939.9	2.4
