Measured thermophysical data. Volumetric and Viscosity Study for the Mixtures of 2-Ethoxy-2-methylpropane, Ethanol, and 1-Ethyl-3-methylimidazolium Ethyl Sulfate Ionic Liquid
Source: J. Chem. Eng. Data, 2006, 10.1021/je060126x
Compound 1: ethanol, C2H6O, InChI=1S/C2H6O/c1-2-3/h3H,2H2,1H3
Compound 2: 1-ethyl-3-methylimidazolium ethyl sulfate, C8H16N2O4S, InChI=1S/C6H11N2.C2H6O4S/c1-3-8-5-4-7(2)6-8;1-2-6-7(3,4)5/h4-6H,3H2,1-2H3;2H2,1H3,(H,3,4,5)/q+1;/p-1
Compound 3: 2-ethoxy-2-methylpropane, C6H14O, InChI=1S/C6H14O/c1-5-7-6(2,3)4/h5H2,1-4H3

System: ethanol; phases: Liquid
Property: Refractive index (Na D-line) (Liquid); method: ABBE:UFactor:2
Temperature, K	Pressure, kPa	Refractive index (Na D-line)	uncertainty
298.15	101.325	1.35923	0.00062

System: ethanol; phases: Liquid
Property: Viscosity, Pa*s (Liquid); method: CAPTUB:UFactor:4
Pressure, kPa	Temperature, K	Viscosity, Pa*s	uncertainty
101	298.15	0.001077	2.6e-05

System: ethanol; phases: Liquid
Property: Speed of sound, m/s (Liquid); method: FPINT:UFactor:8
Temperature, K	Pressure, kPa	Speed of sound, m/s	uncertainty
298.15	101	1144	5

System: ethanol; phases: Liquid
Property: Mass density, kg/m3 (Liquid); method: VIBTUB:UFactor:4
Pressure, kPa	Temperature, K	Mass density, kg/m3	uncertainty
101	298.15	785.22	0.6

System: 1-ethyl-3-methylimidazolium ethyl sulfate; phases: Liquid
Property: Refractive index (Na D-line) (Liquid); method: ABBE:UFactor:2
Temperature, K	Pressure, kPa	Refractive index (Na D-line)	uncertainty
298.15	101.325	1.47889	0.00118

System: 1-ethyl-3-methylimidazolium ethyl sulfate; phases: Liquid
Property: Viscosity, Pa*s (Liquid); method: CAPTUB:UFactor:4
Pressure, kPa	Temperature, K	Viscosity, Pa*s	uncertainty
101	298.15	0.1004	0.0055

System: 1-ethyl-3-methylimidazolium ethyl sulfate; phases: Liquid
Property: Speed of sound, m/s (Liquid); method: FPINT:UFactor:8
Temperature, K	Pressure, kPa	Speed of sound, m/s	uncertainty
298.15	101	1683	8

System: 1-ethyl-3-methylimidazolium ethyl sulfate; phases: Liquid
Property: Mass density, kg/m3 (Liquid); method: VIBTUB:UFactor:4
Pressure, kPa	Temperature, K	Mass density, kg/m3	uncertainty
101	298.15	1238.82	3.32

System: ethanol + 1-ethyl-3-methylimidazolium ethyl sulfate; phases: Liquid
Fixed: Pressure, kPa = 101
Fixed: Temperature, K = 298.15
Property: Viscosity, Pa*s (Liquid); method: CAPTUB:UFactor:4
Mole fraction of ethanol	Viscosity, Pa*s	uncertainty
0.1271	0.06547	0.00196
0.1281	0.06609	0.002
0.2039	0.04977	0.00135
0.2187	0.04769	0.00128
0.3088	0.03469	0.00088
0.3256	0.03221	0.00081
0.3598	0.02875	0.00071
0.4147	0.02288	0.00055
0.4336	0.02139	0.0005
0.4604	0.01898	0.00044
0.5103	0.0154	0.00035
0.5223	0.01478	0.00034
0.5724	0.01174	0.00026
0.5926	0.01083	0.00024
0.5951	0.01065	0.00024
0.712	0.006132	0.000139
0.7174	0.005975	0.000136
0.7508	0.005078	0.000118
0.7676	0.004678	0.000108
0.7866	0.004312	0.0001
0.806	0.00386	8.9e-05
0.8666	0.002709	6.3e-05
0.9026	0.002189	5.1e-05
0.9062	0.002138	5e-05
0.9504	0.001628	3.9e-05
0.9522	0.001589	3.8e-05

System: ethanol + 1-ethyl-3-methylimidazolium ethyl sulfate; phases: Liquid
Fixed: Temperature, K = 298.15
Fixed: Pressure, kPa = 101
Property: Refractive index (Na D-line) (Liquid); method: ABBE:UFactor:2
Mole fraction of ethanol	Refractive index (Na D-line)	uncertainty
0.1271	1.47457	0.00107
0.1281	1.47476	0.00107
0.2039	1.47144	0.00101
0.2187	1.47092	0.001
0.3088	1.46642	0.00093
0.3256	1.46557	0.00092
0.3598	1.46366	0.0009
0.4147	1.46005	0.00086
0.4336	1.45888	0.00085
0.4604	1.4568	0.00083
0.5103	1.45298	0.0008
0.5223	1.45198	0.00079
0.5724	1.44727	0.00076
0.5926	1.44549	0.00075
0.5951	1.44516	0.00075
0.712	1.43097	0.00069
0.7174	1.43017	0.00069
0.7508	1.42508	0.00068
0.7676	1.42246	0.00067
0.7866	1.419	0.00066
0.806	1.41553	0.00066
0.8666	1.40265	0.00064
0.9026	1.393	0.00063
0.9062	1.39213	0.00063
0.9504	1.37833	0.00062
0.9522	1.37769	0.00062

System: ethanol + 1-ethyl-3-methylimidazolium ethyl sulfate; phases: Liquid
Fixed: Temperature, K = 298.15
Fixed: Pressure, kPa = 101
Property: Speed of sound, m/s (Liquid); method: FPINT:UFactor:8
Mole fraction of ethanol	Speed of sound, m/s	uncertainty
0.1271	1657	8
0.1281	1655	8
0.2039	1636	7
0.2187	1631	7
0.3088	1603	7
0.3256	1598	7
0.3598	1586	7
0.4147	1566	7
0.4336	1558	7
0.4604	1545	7
0.5103	1525	7
0.5223	1516	6
0.5724	1490	6
0.5926	1480	7
0.5951	1467	7
0.712	1407	6
0.7174	1406	6
0.7508	1382	6
0.7676	1369	6
0.7866	1352	6
0.806	1339	6
0.8666	1286	5
0.9026	1253	5
0.9062	1248	5
0.9504	1202	5
0.9522	1200	5

System: ethanol + 1-ethyl-3-methylimidazolium ethyl sulfate; phases: Liquid
Fixed: Pressure, kPa = 101
Fixed: Temperature, K = 298.15
Property: Mass density, kg/m3 (Liquid); method: VIBTUB:UFactor:4
Mole fraction of ethanol	Mass density, kg/m3	uncertainty
0.1271	1220.67	2.86
0.1281	1220.61	2.86
0.2039	1208.05	2.58
0.2187	1205.33	2.53
0.3088	1187.7	2.21
0.3256	1184.1	2.16
0.3598	1176.32	2.04
0.4147	1162.59	1.85
0.4336	1157.67	1.78
0.4604	1150.07	1.69
0.5103	1134.81	1.53
0.5223	1130.96	1.49
0.5724	1113.25	1.32
0.5926	1105.55	1.25
0.5951	1104.5	1.25
0.712	1050.5	0.86
0.7174	1047.66	0.84
0.7508	1028.42	0.74
0.7676	1017.99	0.69
0.7866	1005.44	0.63
0.806	992	0.58
0.8666	943.32	0.47
0.9026	908.92	0.45
0.9062	905.03	0.45
0.9504	854.74	0.48
0.9522	852.34	0.49

System: ethanol + 2-ethoxy-2-methylpropane + 1-ethyl-3-methylimidazolium ethyl sulfate; phases: Liquid
Fixed: Pressure, kPa = 101
Fixed: Temperature, K = 298.15
Property: Viscosity, Pa*s (Liquid); method: CAPTUB:UFactor:4
Mole fraction of 2-ethoxy-2-methylpropane	Mole fraction of ethanol	Viscosity, Pa*s	uncertainty
0	0	0.1004	0.0055
0	0.1271	0.06547	0.00196
0	0.1281	0.06609	0.002
0	0.2039	0.04977	0.00135
0	0.2187	0.04769	0.00128
0	0.3088	0.03469	0.00088
0	0.3256	0.03221	0.00081
0	0.3598	0.02875	0.00071
0	0.4147	0.02288	0.00055
0	0.4336	0.02139	0.0005
0	0.4604	0.01898	0.00044
0	0.5103	0.0154	0.00035
0	0.5223	0.01478	0.00034
0	0.5724	0.01174	0.00026
0	0.5926	0.01083	0.00024
0	0.5951	0.01065	0.00024
0	0.712	0.006132	0.000139
0	0.7174	0.005975	0.000136
0	0.7508	0.005078	0.000118
0	0.7676	0.004678	0.000108
0	0.7866	0.004312	0.0001
0	0.806	0.00386	8.9e-05
0	0.8666	0.002709	6.3e-05
0	0.9026	0.002189	5.1e-05
0	0.9062	0.002138	5e-05
0	0.9504	0.001628	3.9e-05
0	0.9522	0.001589	3.8e-05
0	1	0.001077	2.6e-05
0.0174	0.1248	0.06301	0.00178
0.029	0.3162	0.03074	0.00076
0.0324	0.1973	0.0463	0.00124
0.0338	0.7254	0.004792	0.000111
0.035	0.6923	0.005651	0.000129
0.0465	0.4866	0.0142	0.00032
0.0475	0.395	0.02109	0.0005
0.0501	0.5653	0.009768	0.000218
0.0527	0.902	0.001428	3.4e-05
0.0564	0.7605	0.003565	8.3e-05
0.072	0.841	0.00186	4.4e-05
0.077	0.7999	0.002401	5.6e-05
0.0845	0.6567	0.005135	0.000119
0.0848	0.6872	0.004386	0.000102
0.1236	0.7064	0.003102	7.2e-05
0.1407	0.8182	0.001208	2.9e-05
0.1589	0.7622	0.001568	3.8e-05
0.1736	0.7162	0.001937	4.6e-05
0.2368	0.6916	0.001352	3.3e-05
0.2556	0.7089	0.000974	2.5e-05
0.3132	0.6539	0.000878	2.5e-05

System: ethanol + 2-ethoxy-2-methylpropane + 1-ethyl-3-methylimidazolium ethyl sulfate; phases: Liquid
Fixed: Temperature, K = 298.15
Fixed: Pressure, kPa = 101
Property: Refractive index (Na D-line) (Liquid); method: ABBE:UFactor:2
Mole fraction of 2-ethoxy-2-methylpropane	Mole fraction of ethanol	Refractive index (Na D-line)	uncertainty
0	0	1.47889	0.00118
0	0.1271	1.47457	0.00107
0	0.1281	1.47476	0.00107
0	0.2039	1.47144	0.00101
0	0.2187	1.47092	0.001
0	0.3088	1.46642	0.00093
0	0.3256	1.46557	0.00092
0	0.3598	1.46366	0.0009
0	0.4147	1.46005	0.00086
0	0.4336	1.45888	0.00085
0	0.4604	1.4568	0.00083
0	0.5103	1.45298	0.0008
0	0.5223	1.45198	0.00079
0	0.5724	1.44727	0.00076
0	0.5926	1.44549	0.00075
0	0.5951	1.44516	0.00075
0	0.712	1.43097	0.00069
0	0.7174	1.43017	0.00069
0	0.7508	1.42508	0.00068
0	0.7676	1.42246	0.00067
0	0.7866	1.419	0.00066
0	0.806	1.41553	0.00066
0	0.8666	1.40265	0.00064
0	0.9026	1.393	0.00063
0	0.9062	1.39213	0.00063
0	0.9504	1.37833	0.00062
0	0.9522	1.37769	0.00062
0	1	1.35923	0.00062
0.0174	0.1248	1.47383	0.00106
0.029	0.3162	1.46442	0.00091
0.0324	0.1973	1.46984	0.001
0.0338	0.7254	1.4231	0.00067
0.035	0.6923	1.42838	0.00069
0.0465	0.4866	1.44977	0.00079
0.0475	0.395	1.45757	0.00084
0.0501	0.5653	1.44179	0.00074
0.0527	0.902	1.37823	0.00062
0.0564	0.7605	1.41298	0.00065
0.072	0.841	1.3907	0.00063
0.077	0.7999	1.39974	0.00064
0.0845	0.6567	1.42536	0.00068
0.0848	0.6872	1.42047	0.00067
0.1236	0.7064	1.40981	0.00066
0.1407	0.8182	1.37835	0.00063
0.1589	0.7622	1.38882	0.00063
0.1736	0.7162	1.39636	0.00064
0.2368	0.6916	1.38711	0.00064
0.2556	0.7089	1.37854	0.00063
0.3132	0.6539	1.37889	0.00063

System: ethanol + 2-ethoxy-2-methylpropane + 1-ethyl-3-methylimidazolium ethyl sulfate; phases: Liquid
Fixed: Temperature, K = 298.15
Fixed: Pressure, kPa = 101
Property: Speed of sound, m/s (Liquid); method: FPINT:UFactor:8
Mole fraction of 2-ethoxy-2-methylpropane	Mole fraction of ethanol	Speed of sound, m/s	uncertainty
0	0	1683	8
0	0.1271	1657	8
0	0.1281	1655	8
0	0.2039	1636	7
0	0.2187	1631	7
0	0.3088	1603	7
0	0.3256	1598	7
0	0.3598	1586	7
0	0.4147	1566	7
0	0.4336	1558	7
0	0.4604	1545	7
0	0.5103	1525	7
0	0.5223	1516	6
0	0.5724	1490	6
0	0.5926	1480	7
0	0.5951	1467	7
0	0.712	1407	6
0	0.7174	1406	6
0	0.7508	1382	6
0	0.7676	1369	6
0	0.7866	1352	6
0	0.806	1339	6
0	0.8666	1286	5
0	0.9026	1253	5
0	0.9062	1248	5
0	0.9504	1202	5
0	0.9522	1200	5
0	1	1144	5
0.0174	0.1248	1648	8
0.029	0.3162	1580	7
0.0324	0.1973	1617	7
0.0338	0.7254	1357	6
0.035	0.6923	1379	6
0.0465	0.4866	1488	6
0.0475	0.395	1532	7
0.0501	0.5653	1441	6
0.0527	0.902	1183	5
0.0564	0.7605	1302	5
0.072	0.841	1216	5
0.077	0.7999	1244	5
0.0845	0.6567	1341	6
0.0848	0.6872	1320	6
0.1236	0.7064	1260	5
0.1407	0.8182	1163	5
0.1589	0.7622	1181	5
0.1736	0.7162	1198	5
0.2368	0.6916	1154	5
0.2556	0.7089	1141	5
0.3132	0.6539	1116	5

System: ethanol + 2-ethoxy-2-methylpropane + 1-ethyl-3-methylimidazolium ethyl sulfate; phases: Liquid
Fixed: Pressure, kPa = 101
Fixed: Temperature, K = 298.15
Property: Mass density, kg/m3 (Liquid); method: VIBTUB:UFactor:4
Mole fraction of 2-ethoxy-2-methylpropane	Mole fraction of ethanol	Mass density, kg/m3	uncertainty
0	0	1238.82	3.32
0	0.1271	1220.67	2.86
0	0.1281	1220.61	2.86
0	0.2039	1208.05	2.58
0	0.2187	1205.33	2.53
0	0.3088	1187.7	2.21
0	0.3256	1184.1	2.16
0	0.3598	1176.32	2.04
0	0.4147	1162.59	1.85
0	0.4336	1157.67	1.78
0	0.4604	1150.07	1.69
0	0.5103	1134.81	1.53
0	0.5223	1130.96	1.49
0	0.5724	1113.25	1.32
0	0.5926	1105.55	1.25
0	0.5951	1104.5	1.25
0	0.712	1050.5	0.86
0	0.7174	1047.66	0.84
0	0.7508	1028.42	0.74
0	0.7676	1017.99	0.69
0	0.7866	1005.44	0.63
0	0.806	992	0.58
0	0.8666	943.32	0.47
0	0.9026	908.92	0.45
0	0.9062	905.03	0.45
0	0.9504	854.74	0.48
0	0.9522	852.34	0.49
0	1	785.22	0.6
0.0174	0.1248	1215.69	2.8
0.029	0.3162	1173.9	2.08
0.0324	0.1973	1197.84	2.49
0.0338	0.7254	1015.18	0.71
0.035	0.6923	1033.75	0.82
0.0465	0.4866	1116.99	1.45
0.0475	0.395	1145.89	1.75
0.0501	0.5653	1084.83	1.18
0.0527	0.902	841.87	0.52
0.0564	0.7605	971.35	0.58
0.072	0.841	885.24	0.5
0.077	0.7999	918.73	0.51
0.0845	0.6567	1014.34	0.78
0.0848	0.6872	995.72	0.69
0.1236	0.7064	947.64	0.62
0.1407	0.8182	826.09	0.58
0.1589	0.7622	863.65	0.57
0.1736	0.7162	889.91	0.59
0.2368	0.6916	846.3	0.66
0.2556	0.7089	808.27	0.7
0.3132	0.6539	800.17	0.69
