Measured thermophysical data. Thermodynamic Properties of [C6mim][NTf2] in the Condensed State
Source: J. Chem. Eng. Data, 2006, 10.1021/je060094d
Compound 1: aluminum oxide (Al2O3), Al2O3, InChI=1S/2Al.3O/q2*+3;3*-2
Compound 2: 1-hexyl-3-methylimidazolium bis[(trifluoromethyl)sulfonyl]imide, C12H19F6N3O4S2, InChI=1S/C10H19N2.C2F6NO4S2/c1-3-4-5-6-7-12-9-8-11(2)10-12;3-1(4,5)14(10,11)9-15(12,13)2(6,7)8/h8-10H,3-7H2,1-2H3;/q+1;-1
Compound 3: copper, Cu, InChI=1S/Cu, purity 99.995%
Compound 4: benzoic acid, C7H6O2, InChI=1S/C7H6O2/c8-7(9)6-4-2-1-3-5-6/h1-5H,(H,8,9), purity 99.995%

System: aluminum oxide (Al2O3); phases: Crystal
Fixed: Pressure, kPa = 101.325
Property: Molar heat capacity at constant pressure, J/K/mol (Crystal); method: Small (less than 1 g) adiabatic calorimetry
Temperature, K	Molar heat capacity at constant pressure, J/K/mol	uncertainty
80.25	6.962	0.135
82.44	7.533	0.138
84.23	8.013	0.141
86.02	8.514	0.141
87.81	9.021	0.141
89.61	9.553	0.15
91.41	10.09	0.24
93.22	10.65	0.24
95.02	11.22	0.24
96.84	11.81	0.25
98.65	12.41	0.25
100.47	13.01	0.25
102.29	13.64	0.26
104.22	14.29	0.26
106.16	14.97	0.26
107.99	15.62	0.27
109.82	16.29	0.27
111.65	16.94	0.27
113.49	17.64	0.27
115.33	18.32	0.27
117.17	19	0.27
119.01	19.71	0.28
120.86	20.4	0.28
122.71	21.13	0.28
124.56	21.83	0.29
126.41	22.55	0.29
128.27	23.28	0.29
130.13	24	0.3
131.99	24.74	0.3
133.85	25.48	0.3
135.72	26.23	0.31
137.59	26.98	0.31
139.46	27.74	0.31
141.33	28.48	0.32
143.2	29.23	0.32
145.07	29.99	0.32
146.95	30.74	0.32
148.82	31.5	0.32
150.7	32.25	0.33
152.58	33	0.33
154.46	33.76	0.33
156.34	34.51	0.34
158.23	35.26	0.34
160.11	36.02	0.34
162	36.77	0.35
163.89	37.5	0.35
165.79	38.25	0.35
167.68	39.01	0.36
169.57	39.75	0.36
171.46	40.49	0.37
173.36	41.22	0.37
175.26	41.95	0.37
177.15	42.69	0.37
179.05	43.43	0.37
180.95	44.15	0.37
182.85	44.88	0.38
184.76	45.59	0.38
186.66	46.3	0.38
188.56	47.01	0.39
190.47	47.7	0.39
192.37	48.4	0.39
194.28	49.11	0.4
196.19	49.8	0.4
198.1	50.47	0.4
200	51.17	0.41
201.91	51.85	0.41
203.82	52.51	0.41
205.74	53.18	0.42
207.65	53.83	0.42
209.57	54.49	0.42
211.48	55.15	0.42
213.4	55.8	0.42
215.32	56.43	0.42
217.2	57.05	0.43
217.24	57.08	0.43
218.89	57.62	0.43
219.15	57.7	0.43
220.81	58.24	0.43
221.08	58.33	0.43
222.74	58.87	0.43
223	58.96	0.43
224.66	59.47	0.44
224.93	59.57	0.44
226.59	60.11	0.44
226.85	60.2	0.44
228.52	60.71	0.44
228.78	60.83	0.44
230.44	61.32	0.45
230.71	61.42	0.45
232.37	61.93	0.45
232.64	62.02	0.45
234.3	62.52	0.45
234.57	62.63	0.45
236.23	63.11	0.45
236.5	63.21	0.45
238.16	63.68	0.46
238.43	63.78	0.46
240.09	64.25	0.46
240.36	64.36	0.46
242.02	64.83	0.46
242.29	64.93	0.46
243.95	65.38	0.47
244.23	65.48	0.47
245.88	65.93	0.47
246.16	66.02	0.47
247.81	66.5	0.47
248.09	66.57	0.47
249.75	67.05	0.47
250.03	67.11	0.47
251.68	67.61	0.47
251.96	67.65	0.47
253.61	68.14	0.47
253.89	68.2	0.47
255.55	68.66	0.47
255.83	68.71	0.47
257.48	69.2	0.47
259.42	69.7	0.48
261.35	70.21	0.48
263.29	70.71	0.48
265.22	71.23	0.48
267.16	71.75	0.49
269.1	72.28	0.49
271.04	72.74	0.49
272.97	73.21	0.49
274.91	73.68	0.5
276.85	74.15	0.5
278.79	74.62	0.5
280.73	75.06	0.5
282.66	75.53	0.5
284.6	75.99	0.51
286.54	76.43	0.51
288.48	76.88	0.51
290.42	77.33	0.51
292.36	77.77	0.51
294.3	78.19	0.52
296.24	78.58	0.52
298.18	78.99	0.52
300.12	79.4	0.52
302.06	79.83	0.52
304	80.26	0.52
305.94	80.67	0.52
307.88	81.03	0.52
309.82	81.42	0.52
311.77	81.81	0.52
313.71	82.15	0.53
315.65	82.55	0.53
317.59	82.91	0.53
319.54	83.31	0.5
321.48	83.73	0.5
323.42	84.06	0.5
325.37	84.39	0.5
327.31	84.72	0.58
329.26	85.14	0.58
331.21	85.47	0.58
333.15	85.81	0.58
335.1	86.22	0.58
337.05	86.47	0.58
339	86.8	0.58
340.94	87.14	0.58
342.89	87.55	0.58
344.84	87.88	0.58
346.79	88.22	0.58
348.74	88.55	0.58
350.69	88.88	0.58
352.64	89.13	0.58
354.59	89.46	0.58
356.54	89.71	0.58
358.49	90.05	0.58
360.44	90.38	0.58
362.39	90.63	0.58
364.34	90.96	0.58
366.29	91.29	0.58
368.24	91.54	0.58

System: 1-hexyl-3-methylimidazolium bis[(trifluoromethyl)sulfonyl]imide; phases: Glass, Liquid, Gas
Property: Triple point temperature, K (Glass); method: Adiabatic calorimetry
Triple point temperature, K	uncertainty
184.3	2

System: 1-hexyl-3-methylimidazolium bis[(trifluoromethyl)sulfonyl]imide; phases: Liquid
Fixed: Pressure, kPa = 101.325
Property: Molar heat capacity at constant pressure, J/K/mol (Liquid); method: Small (less than 1 g) adiabatic calorimetry
Temperature, K	Molar heat capacity at constant pressure, J/K/mol	uncertainty
190	572.9	2.5
200	576.9	2.5
210	581	2.5
220	585.5	2.6
230	590.2	2.6
240	595.2	2.6
250	600.5	2.6
260	606	2.7
270	611.7	2.7
272.03	612.9	2.7

System: 1-hexyl-3-methylimidazolium bis[(trifluoromethyl)sulfonyl]imide; phases: Liquid
Fixed: Pressure, kPa = 101.325
Property: Molar heat capacity at constant pressure, J/K/mol (Liquid); method: Small (less than 1 g) adiabatic calorimetry
Temperature, K	Molar heat capacity at constant pressure, J/K/mol	uncertainty
188.06	572	2.5
189.67	572.6	2.5
191.28	573.1	2.5
192.89	573.8	2.5
194.51	574.6	2.5
196.13	575.2	2.5
197.75	575.9	2.5
199.37	576.4	2.5
201.12	577.3	2.5
203	578.3	2.5
214.71	583	2.5
216.63	583.9	2.5
218.45	584.8	2.5
220.28	585.8	2.5
223.68	587.1	2.5
225.6	588.1	2.6
232.78	591.4	2.6
234.71	592.3	2.6
236.56	593.3	2.6
238.4	594.2	2.6
239.34	594.5	2.6
240.25	595.3	2.6
241.35	595.6	2.6
242.09	596.1	2.6
243.26	596.7	2.6
245.18	597.7	2.6
247.09	599	2.6
249.01	599.9	2.6
250.85	600.8	2.6
250.93	600.9	2.6
252.87	602	2.6
254.79	603.2	2.6
256.71	604.1	2.6
258.63	605.1	2.6
260.55	606.2	2.6
262.48	607.4	2.6
264.4	608.5	2.6
266.32	609.4	2.6
268.25	610.7	2.6
270.17	611.8	2.6
272.1	612.8	2.7
274.24	614.2	2.7
274.84	614.7	2.7
274.91	614.8	2.7
276.78	615.9	2.7
276.85	616	2.7
277.08	616.2	2.7
278.78	617.2	2.7
279.01	617.6	2.7
280.71	618.2	2.7
280.94	618.6	2.7
282.65	619.4	2.7
282.88	619.7	2.7
284.58	620.6	2.7
284.82	620.8	2.7
286.52	621.8	2.7
286.75	621.8	2.7
286.75	621.8	2.7
288.45	623.2	2.7
288.69	623.3	2.7
288.69	623.3	2.7
290.39	624.3	2.7
290.62	624.3	2.7
290.62	624.3	2.7
292.32	625.5	2.7
292.56	625.6	2.7
292.56	625.6	2.7
294.26	626.7	2.7
294.5	626.8	2.7
294.5	626.8	2.7
296.2	628.1	2.7
296.43	628.3	2.7
296.43	628.3	2.7
298.14	629.1	2.7
298.37	629.6	2.7
298.37	629.6	2.7
300.08	630.2	2.7
302.02	631.9	2.7
303.96	633	2.7
305.9	633.8	2.7
307.84	635.3	2.7
309.78	636.5	2.7
311.72	637.8	2.8
313.66	639.1	2.8
315.61	640.7	2.8
317.56	641.6	2.8
319.5	643	2.8
321.45	644	2.8
323.39	645.5	2.8
325.33	646.5	2.8
327.28	647.9	2.8
329.22	649.4	2.8
331.17	650.5	2.8
333.11	651.5	2.8
335.06	652.9	2.8
337.01	654.3	2.8
338.96	655.7	2.8
340.91	656.9	2.8
342.86	658.2	2.8
344.81	659.3	2.8
346.77	660.8	2.8
348.73	662	2.8
350.69	663.5	2.9
352.64	664.8	2.9
354.6	666.1	2.9
356.56	667.5	2.9
358.51	668.8	2.9
360.47	670.1	2.9
362.43	671.6	2.9
364.38	672.7	2.9
366.34	674.1	2.9
368.29	675.4	2.9

System: 1-hexyl-3-methylimidazolium bis[(trifluoromethyl)sulfonyl]imide; phases: Glass
Fixed: Pressure, kPa = 101.325
Property: Molar heat capacity at constant pressure, J/K/mol (Glass); method: Small (less than 1 g) adiabatic calorimetry
Temperature, K	Molar heat capacity at constant pressure, J/K/mol	uncertainty
5	3.32	0.1
10	17.23	0.3
15	35.93	0.53
20	55.29	0.69
25	73.83	0.77
30	90.71	0.58
35	106.2	0.67
40	119.9	0.67
45	132.9	0.75
50	145.4	0.83
60	168.5	0.92
70	189.3	1.1
80	209.5	1.2
90	228.4	1.1
100	247.2	1.2
110	265.5	1.2
120	283.2	1.3
130	300.4	1.4
140	317.4	1.5
150	334.6	1.6
160	352	1.6
170	370.8	1.7
180	399.3	1.8
184.3	458.6	2.1

System: 1-hexyl-3-methylimidazolium bis[(trifluoromethyl)sulfonyl]imide; phases: Glass, Gas
Property: Molar heat capacity at saturation pressure, J/K/mol (Glass); method: Small (less than 1 g) adiabatic calorimetry
Temperature, K	Molar heat capacity at saturation pressure, J/K/mol	uncertainty
5.165	3.623	0.095
5.397	4.112	0.103
5.712	4.791	0.114
6.034	5.523	0.126
6.399	6.356	0.139
6.801	7.374	0.155
7.204	8.489	0.175
7.609	9.603	0.191
8.018	10.8	0.21
8.429	12.06	0.23
8.841	13.37	0.25
9.254	14.72	0.27
9.668	16.11	0.29
10.083	17.51	0.31
10.607	19.36	0.33
11.242	21.64	0.37
11.849	23.88	0.39
12.291	25.54	0.42
12.931	27.92	0.44
13.573	30.28	0.47
14.222	32.79	0.5
14.875	35.47	0.52
15.641	38.49	0.56
16.523	42.08	0.59
17.411	45.51	0.61
18.299	48.86	0.64
19.187	52.23	0.67
20.076	55.6	0.69
21.275	60.13	0.71
22.772	65.71	0.74
24.271	71.26	0.76
25.766	76.56	0.77
27.269	81.63	0.77
28.785	86.64	0.75
30.296	91.71	0.58
31.803	96.61	0.58
33.307	101.2	0.58
34.809	105.5	0.67
36.313	109.8	0.67
37.82	114	0.67
39.332	118.1	0.67
41.115	122.9	0.75
43.177	128.3	0.75
45.256	133.6	0.75
47.35	138.9	0.83
49.427	143.9	0.83
51.466	148.9	0.83
53.458	153.7	0.83
55.405	158.4	0.92
57.318	162.9	0.92
59.224	167	0.92
61.152	170.9	1
63.133	175	1
65.192	179.3	1
67.335	183.7	1
69.521	188.2	1.1
71.671	192.8	1.1
73.717	197.1	1.1
75.691	200.8	1.1
77.697	205	1.2
78.73	207.4	1.2
79.75	209	1.2
80.97	211.5	1.2
81.81	212.9	1.2
83.05	215.4	1.2
83.863	216.9	1.2
85.15	219.3	1.2
87.25	223.2	1.2
89.37	227.2	1.2
91.49	231.2	1.2
93.63	235.3	1.2
95.78	239.3	1.2
97.93	243.4	1.2
100.09	247.4	1.2
102.25	251.3	1.2
104.42	255.4	1.2
106.6	259.3	1.2
108.78	263.3	1.2
110.97	267.1	1.2
113.16	271.1	1.2
115.36	275	1.3
117.55	279	1.3
119.75	282.8	1.3
121.95	286.7	1.3
124.15	290.3	1.3
125.9	293.3	1.4
126.36	294.2	1.4
128.01	296.9	1.4
128.56	298.1	1.4
129.99	300.3	1.4
130.76	301.8	1.4
131.98	303.8	1.4
133.96	307.2	1.4
135.94	310.5	1.4
137.93	314	1.5
139.91	317.4	1.5
141.89	320.7	1.5
143.87	324.1	1.5
145.85	327.4	1.5
147.83	330.9	1.5
149.81	334.2	1.5
151.79	337.7	1.6
153.76	341.1	1.6
155.74	344.6	1.6
157.72	347.9	1.6
159.7	351.5	1.6
161.67	355.2	1.7
163.63	358.6	1.7
165.6	362.3	1.7
167.57	366	1.7
169.53	369.8	1.7
171.49	373.9	1.7
173.45	378.2	1.7
175.41	382.9	1.7
177.36	388.9	1.7
179.3	395.8	1.7
181.23	406.7	1.8
183.12	428.1	2
184.88	497.9	2.3
186.45	572.4	2.7

System: 1-hexyl-3-methylimidazolium bis[(trifluoromethyl)sulfonyl]imide; phases: Liquid
Fixed: Pressure, kPa = 101.325
Property: Molar enthalpy function {Hm(T)-Hm(0)}/T, J/K/mol (Liquid); method: Small (less than 1 g) adiabatic calorimetry
Temperature, K	Molar enthalpy function {Hm(T)-Hm(0)}/T, J/K/mol	uncertainty
190	230.7	1.2
200	247.9	1.2
210	263.7	1.2
220	278.2	1.3
230	291.7	1.3
240	304.2	1.4
250	316	1.5
260	327	1.5
270	337.4	1.6
272.03	339.5	1.6

System: 1-hexyl-3-methylimidazolium bis[(trifluoromethyl)sulfonyl]imide; phases: Glass
Fixed: Pressure, kPa = 101.325
Property: Molar enthalpy function {Hm(T)-Hm(0)}/T, J/K/mol (Glass); method: Small (less than 1 g) adiabatic calorimetry
Temperature, K	Molar enthalpy function {Hm(T)-Hm(0)}/T, J/K/mol	uncertainty
5	0.8514	0.039
10	5.238	0.106
15	12.28	0.19
20	20.65	0.27
25	29.46	0.32
30	38.2	0.33
35	46.9	0.33
40	55.2	0.42
45	63.1	0.42
50	70.7	0.42
60	85.14	0.5
70	98.53	0.58
80	111.2	0.67
90	123.1	0.67
100	134.6	0.75
110	145.7	0.75
120	156.4	0.83
130	166.8	0.83
140	177	0.92
150	186.9	0.92
160	196.6	1
170	206.4	1
180	216.2	1.1
184.3	220.9	1.1

System: 1-hexyl-3-methylimidazolium bis[(trifluoromethyl)sulfonyl]imide; phases: Liquid
Fixed: Pressure, kPa = 101.325
Property: Molar entropy, J/K/mol (Liquid); method: Small (less than 1 g) adiabatic calorimetry
Temperature, K	Molar entropy, J/K/mol	uncertainty
190	463	3.1
200	492.4	3.2
210	520.7	3.4
220	547.8	3.6
230	573.9	3.7
240	599.1	3.9
250	623.5	4.1
260	647.2	4.2
270	670.1	4.3
272.03	674.8	4.3

System: 1-hexyl-3-methylimidazolium bis[(trifluoromethyl)sulfonyl]imide; phases: Glass
Fixed: Pressure, kPa = 101.325
Property: Molar entropy, J/K/mol (Glass); method: Small (less than 1 g) adiabatic calorimetry
Temperature, K	Molar entropy, J/K/mol	uncertainty
5	1.139	0.066
10	7.261	0.207
15	17.7	0.41
20	30.73	0.58
25	45.09	0.71
30	60	0.58
35	75.2	0.75
40	90.3	0.83
45	105.2	0.92
50	119.8	1.1
60	148.4	1.2
70	176	1.5
80	202.6	1.7
90	228.4	1.7
100	253.4	1.8
110	277.9	2
120	301.7	2.1
130	325.1	2.2
140	348	2.4
150	370.4	2.5
160	392.6	2.7
170	414.5	2.8
180	436.3	2.9
184.3	446.2	3

System: 1-hexyl-3-methylimidazolium bis[(trifluoromethyl)sulfonyl]imide; phases: Crystal, Liquid, Gas
Property: Molar enthalpy of transition or fusion, kJ/mol (Crystal); method: Adiabatic calorimetry
Molar enthalpy of transition or fusion, kJ/mol	uncertainty
28.091	0.067

System: 1-hexyl-3-methylimidazolium bis[(trifluoromethyl)sulfonyl]imide; phases: Crystal, Liquid, Gas
Property: Triple point temperature, K (Crystal); method: Adiabatic calorimetry
Triple point temperature, K	uncertainty
272.03	0.05

System: 1-hexyl-3-methylimidazolium bis[(trifluoromethyl)sulfonyl]imide; phases: Liquid
Fixed: Pressure, kPa = 101.325
Property: Molar heat capacity at constant pressure, J/K/mol (Liquid); method: Small (less than 1 g) adiabatic calorimetry
Temperature, K	Molar heat capacity at constant pressure, J/K/mol	uncertainty
194.39	574.6	2.5
196.16	575.4	2.5
197.85	576.2	2.5
199.54	576.9	2.5
200.44	577	2.5
201.23	577.5	2.5
202.21	578.1	2.5
202.93	578.4	2.5
203.91	578.6	2.5
204.63	579	2.5
204.96	578.9	2.5
205.6	579.4	2.5
206.33	580.3	2.5
206.75	579.6	2.5
207.3	580.2	2.5
208.03	581.8	2.5
208.56	580.5	2.5
208.99	582.3	2.5
210.38	581.5	2.5
212.2	582.2	2.5
214.02	583.2	2.5
266.18	609.5	2.6
268.75	611.1	2.6
272.04	612.9	2.7
273.34	613.5	2.7
274.89	615	2.7
275.22	614.5	2.7
275.33	615.2	2.7
276.8	616	2.7
277.14	615.9	2.7
278.62	617.2	2.7
278.72	617.5	2.7
279.06	617	2.7
280.64	618.5	2.7
281.91	619.1	2.7
282.55	619.6	2.7
284.47	620.9	2.7
285.19	621.3	2.7
286.38	621.6	2.7
288.3	623.3	2.7
288.5	623.1	2.7
291.79	625.3	2.7
295.09	627.4	2.7
298.38	629.3	2.7
301.68	631.3	2.7
304.97	633.3	2.7
308.26	635.5	2.7
311.55	637.7	2.8
314.84	639.7	2.8
318.13	641.9	2.8
321.41	643.9	2.8
324.69	645.9	2.8
327.98	648.3	2.8
331.27	650.6	2.8
334.56	652.7	2.8
337.85	655.1	2.8
341.19	657.3	2.8
344.49	659.6	2.8
347.81	662	2.8
351.12	664.3	2.9
354.43	666.4	2.9
357.74	668.9	2.9
361.05	671.1	2.9
364.36	673.4	2.9
367.68	675.8	2.9

System: 1-hexyl-3-methylimidazolium bis[(trifluoromethyl)sulfonyl]imide; phases: Crystal
Fixed: Pressure, kPa = 101.325
Property: Molar heat capacity at constant pressure, J/K/mol (Crystal); method: Small (less than 1 g) adiabatic calorimetry
Temperature, K	Molar heat capacity at constant pressure, J/K/mol	uncertainty
5	2.372	0.084
10	16.46	0.29
15	35.66	0.52
20	54.99	0.68
25	73.21	0.76
30	90.13	0.55
35	105.4	0.6
40	119.4	0.7
45	132.5	0.8
50	144.8	0.8
60	167.5	0.9
70	187	1
80	205.5	1.1
90	222.2	1.1
100	238.4	1.2
110	253.8	1.2
120	268.5	1.3
130	282.9	1.3
140	297.2	1.4
150	311.5	1.4
160	326.1	1.5
170	340.8	1.6
180	355.8	1.6
190	371.1	1.7
200	386.8	1.7
210	402.8	1.8
220	418.7	1.9
230	435.3	1.9
240	451.9	2
250	467.5	2.1
260	482.2	2.1
270	496.2	2.2
272.03	498.9	2.2

System: 1-hexyl-3-methylimidazolium bis[(trifluoromethyl)sulfonyl]imide; phases: Liquid
Fixed: Pressure, kPa = 101.325
Property: Molar heat capacity at constant pressure, J/K/mol (Liquid); method: Small (less than 1 g) adiabatic calorimetry
Temperature, K	Molar heat capacity at constant pressure, J/K/mol	uncertainty
272.03	612.9	2.7
280	617.8	2.7
290	624	2.7
298.15	629.2	2.7
300	630.4	2.7
310	636.7	2.7
320	643.2	2.7
330	649.8	2.8
340	656.4	2.8
350	663.2	2.8
360	670.1	2.9
370	677	2.9

System: 1-hexyl-3-methylimidazolium bis[(trifluoromethyl)sulfonyl]imide; phases: Crystal, Gas
Property: Molar heat capacity at saturation pressure, J/K/mol (Crystal); method: Small (less than 1 g) adiabatic calorimetry
Temperature, K	Molar heat capacity at saturation pressure, J/K/mol	uncertainty
78.32	203	1.1
80.18	205.9	1.1
81.93	208.9	1.1
83.68	211.7	1.2
85.43	214.5	1.2
87.2	217.5	1.2
88.97	220.5	1.2
90.75	223.4	1.1
92.54	226.4	1.1
94.33	229.3	1.1
96.14	232.2	1.1
97.94	235.2	1.1
99.75	238	1.2
101.63	240.9	1.2
103.56	243.9	1.2
105.5	246.9	1.2
107.44	249.8	1.2
109.39	252.8	1.2
111.34	255.7	1.2
113.29	258.6	1.2
115.25	261.6	1.2
117.22	264.4	1.3
119.18	267.2	1.3
121.15	270.1	1.3
123.12	273	1.3
125.1	275.9	1.3
127.07	278.6	1.3
129.05	281.4	1.3
131.03	284.4	1.3
131.44	284.8	1.3
133.01	287.2	1.4
133.43	287.7	1.4
135	290.1	1.4
135.42	290.5	1.4
136.98	292.9	1.4
137.41	293.3	1.4
138.97	295.7	1.4
139.41	296.2	1.4
140.96	298.6	1.4
141.4	299.1	1.4
142.95	301.4	1.4
143.4	302.1	1.4
144.94	304.2	1.4
145.4	304.8	1.4
146.92	307.1	1.4
147.4	307.6	1.4
148.91	310	1.4
149.39	310.6	1.4
150.91	313	1.5
151.4	313.5	1.5
152.9	315.9	1.5
153.41	316.4	1.5
154.88	318.6	1.5
155.41	319.4	1.5
156.87	321.6	1.5
157.42	322.4	1.5
158.86	324.4	1.5
159.43	325.2	1.5
160.85	327.3	1.5
161.45	328.1	1.5
162.84	330.3	1.5
163.47	331.1	1.5
164.83	333.1	1.5
165.48	333.9	1.5
166.82	336.1	1.5
167.49	337	1.5
168.8	339	1.6
169.5	340	1.6
170.8	341.9	1.6
171.51	342.9	1.6
172.78	344.9	1.6
173.53	346	1.6
174.77	347.9	1.6
175.55	348.9	1.6
176.75	350.8	1.6
177.57	352	1.6
178.73	353.8	1.6
179.59	355	1.6
180.71	356.8	1.6
181.61	358.1	1.6
182.69	359.7	1.6
183.62	361.3	1.6
184.66	362.8	1.7
185.65	364.3	1.7
186.64	365.8	1.7
187.67	367.4	1.7
188.61	368.9	1.7
189.69	370.6	1.7
190.58	371.9	1.7
191.71	373.7	1.7
192.55	375.1	1.7
193.74	376.7	1.7
194.52	378.2	1.7
195.77	380	1.7
196.48	381.4	1.7
197.79	383.2	1.7
198.45	384.5	1.7
199.81	386.5	1.7
200.41	387.5	1.8
201.84	389.9	1.8
202.37	390.9	1.8
203.87	392.9	1.8
204.32	393.9	1.8
205.9	396.1	1.8
206.28	397.1	1.8
207.93	399.3	1.8
208.23	400.2	1.8
209.95	402.6	1.8
210.19	403.3	1.8
211.98	405.8	1.8
212.14	406.4	1.8
212.91	407.4	1.8
214.01	409	1.8
214.09	409.6	1.8
214.94	410.5	1.8
216.04	412.6	1.9
216.05	412.1	1.8
216.88	413.6	1.9
217.99	415.6	1.9
218.08	415.6	1.9
218.82	416.7	1.9
219.93	418.8	1.9
220.12	418.6	1.9
220.76	419.7	1.9
221.88	422	1.9
222.16	422	1.9
222.7	423	1.9
223.82	425	1.9
224.2	425.5	1.9
224.63	426.2	1.9
225.76	428.3	1.9
226.24	428.7	1.9
226.56	429.3	1.9
227.7	431.7	1.9
228.28	432.4	1.9
228.49	432.5	1.9
229.64	434.8	1.9
230.32	435.8	1.9
230.41	435.8	1.9
231.57	438.1	2
232.33	439.1	2
232.36	439.3	2
233.52	441.4	2
234.25	442.2	2
234.4	442.7	2
235.45	444.6	2
236.17	445.3	2
236.44	446	2
237.38	447.9	2
238.09	448.6	2
238.48	449.6	2
239.31	451.1	2
240	451.7	2
240.53	453	2
241.24	454.1	2
241.92	454.7	2
242.57	456	2
243.16	456.9	2
243.83	457.7	2
244.61	459.1	2
245.09	459.8	2
245.74	460.9	2
246.66	462.2	2
247.01	462.5	2.1
247.64	463.9	2.1
248.7	465.5	2.1
248.93	465.7	2.1
249.55	467	2.1
250.75	468.7	2.1
250.85	468.5	2.1
251.45	470	2.1
252.77	471.3	2.1
252.79	471.7	2.1
253.35	472.7	2.1
254.69	474.1	2.1
254.83	474.7	2.1
255.24	475.5	2.1
256.87	478	2.1
256.88	477.5	2.1
257.14	478.1	2.1
258.93	480.4	2.1
259.03	480.5	2.1
259.39	482.1	2.1
260.92	482.9	2.1
260.97	483.9	2.1
260.97	483.9	2.1
261.89	487.6	2.2
262.8	486.1	2.1
263.01	489.1	2.2
5.101	2.505	0.076
5.301	2.873	0.083
5.506	3.283	0.089
5.715	3.707	0.096
5.929	4.144	0.102
6.173	4.684	0.112
6.346	5.092	0.119
6.637	5.811	0.131
7.032	6.893	0.149
7.429	7.988	0.166
7.829	9.179	0.185
8.233	10.43	0.2
8.638	11.74	0.22
9.045	13.11	0.24
9.455	14.54	0.27
9.869	15.98	0.29
10.39	17.88	0.31
11.02	20.2	0.34
11.65	22.59	0.37
12.29	25.04	0.41
12.93	27.5	0.43
13.57	29.99	0.46
14.23	32.54	0.49
14.89	35.13	0.52
15.66	38.29	0.55
16.54	41.88	0.59
17.43	45.26	0.61
18.31	48.63	0.64
19.2	51.95	0.66
20.09	55.31	0.69
21.29	59.71	0.71
22.79	65.28	0.73
24.29	70.75	0.75
25.79	76.02	0.76
27.29	81.09	0.76
28.81	86.22	0.75
30.32	91.13	0.56
31.83	95.95	0.58
33.34	100.5	0.6
34.84	105	0.6
36.34	109.3	0.7
37.85	113.5	0.7
39.36	117.7	0.7
40.88	121.7	0.7
42.41	125.6	0.7
43.95	129.8	0.8
45.51	133.8	0.8
47.06	137.7	0.8
48.6	141.6	0.8
50.13	145.1	0.8
51.62	148.7	0.8
53.1	152.1	0.9
54.55	155.7	0.9
55.98	158.7	0.9
57.39	161.9	0.9
58.81	165	0.9
60.24	168.2	0.9
61.7	171.2	1
63.19	173.9	1
64.74	177.1	1
66.33	180.1	1
67.96	183.2	1
69.6	186.2	1
71.2	189.2	1
72.74	192.2	1.1
74.22	195	1.1
75.68	197.6	1.1
77.19	200.4	1.1
78.72	203.3	1.1
80.25	205.9	1.1
82.03	209	1.1
84.08	212.7	1.2

System: 1-hexyl-3-methylimidazolium bis[(trifluoromethyl)sulfonyl]imide; phases: Crystal
Fixed: Pressure, kPa = 101.325
Property: Molar enthalpy function {Hm(T)-Hm(0)}/T, J/K/mol (Crystal); method: Small (less than 1 g) adiabatic calorimetry
Temperature, K	Molar enthalpy function {Hm(T)-Hm(0)}/T, J/K/mol	uncertainty
5	0.5616	0.0341
10	4.58	0.096
15	11.69	0.19
20	20.13	0.26
25	28.93	0.31
30	37.75	0.29
35	46.34	0.33
40	54.61	0.37
45	62.53	0.41
50	70.15	0.45
60	84.56	0.52
70	97.78	0.59
80	110.2	0.7
90	121.6	0.7
100	132.5	0.7
110	142.8	0.8
120	152.7	0.8
130	162.2	0.9
140	171.3	0.9
150	180.2	0.9
160	188.8	1
170	197.4	1
180	205.7	1
190	214	1.1
200	222.2	1.1
210	230.5	1.1
220	238.7	1.2
230	246.9	1.2
240	255.1	1.2
250	263.2	1.3
260	271.4	1.3
270	279.4	1.3
272.03	281.1	1.3

System: 1-hexyl-3-methylimidazolium bis[(trifluoromethyl)sulfonyl]imide; phases: Liquid
Fixed: Pressure, kPa = 101.325
Property: Molar enthalpy function {Hm(T)-Hm(0)}/T, J/K/mol (Liquid); method: Small (less than 1 g) adiabatic calorimetry
Temperature, K	Molar enthalpy function {Hm(T)-Hm(0)}/T, J/K/mol	uncertainty
272.03	384.4	1.7
280	390.9	1.7
290	398.8	1.8
298.15	405.1	1.8
300	406.5	1.8
310	413.8	1.8
320	420.9	1.9
330	427.7	1.9
340	434.3	1.9
350	440.8	2
360	447.1	2
370	453.1	2

System: 1-hexyl-3-methylimidazolium bis[(trifluoromethyl)sulfonyl]imide; phases: Crystal
Fixed: Pressure, kPa = 101.325
Property: Molar entropy, J/K/mol (Crystal); method: Small (less than 1 g) adiabatic calorimetry
Temperature, K	Molar entropy, J/K/mol	uncertainty
5	0.7424	0.0545
10	6.143	0.18
15	16.38	0.38
20	29.33	0.56
25	43.57	0.69
30	58.43	0.59
35	73.49	0.7
40	88.47	0.82
45	103.3	0.9
50	117.9	1
60	146.4	1.3
70	173.7	1.5
80	199.9	1.7
90	225.1	1.7
100	249.4	1.8
110	272.8	1.9
120	295.5	2.1
130	317.5	2.2
140	339.1	2.3
150	360	2.5
160	380.6	2.6
170	400.8	2.7
180	420.7	2.8
190	440.3	2.9
200	459.8	3.1
210	479.1	3.2
220	498.1	3.3
230	517.2	3.4
240	536	3.5
250	554.7	3.6
260	573.4	3.7
270	591.9	3.9
272.03	595.6	3.9

System: 1-hexyl-3-methylimidazolium bis[(trifluoromethyl)sulfonyl]imide; phases: Liquid
Fixed: Pressure, kPa = 101.325
Property: Molar entropy, J/K/mol (Liquid); method: Small (less than 1 g) adiabatic calorimetry
Temperature, K	Molar entropy, J/K/mol	uncertainty
272.03	698.8	4.5
280	716.6	4.6
290	738.4	4.7
298.15	755.8	4.8
300	759.7	4.8
310	780.5	5
320	800.8	5.1
330	820.6	5.2
340	839.76	5.32
350	858.89	5.49
360	878.01	5.57
370	896.3	5.65

System: copper; phases: Crystal
Fixed: Pressure, kPa = 101.325
Property: Molar heat capacity at constant pressure, J/K/mol (Crystal); method: Small (less than 1 g) adiabatic calorimetry
Temperature, K	Molar heat capacity at constant pressure, J/K/mol	uncertainty
6.035	0.01461	0.02025
6.375	0.0167	0.0203
6.755	0.01928	0.02034
7.141	0.0223	0.02039
7.532	0.02552	0.02044
7.929	0.02944	0.0205
8.331	0.03381	0.02056
8.738	0.03857	0.02064
9.15	0.04371	0.02072
9.566	0.0492	0.02079
9.985	0.05543	0.02089
10.47	0.06353	0.02101
11.01	0.07344	0.02115
11.56	0.08448	0.0213
12.11	0.09695	0.0215
12.68	0.1107	0.0216
13.25	0.1266	0.0219
13.82	0.1435	0.0221
14.39	0.1623	0.0223
14.97	0.1833	0.0226
15.66	0.2111	0.0229
16.44	0.2463	0.0234
17.24	0.2865	0.0238
18.03	0.3317	0.0243
18.83	0.3812	0.0248
19.63	0.4358	0.0254
20.69	0.5175	0.0261
22	0.6341	0.0272
23.33	0.7682	0.0283
24.67	0.9204	0.029
26.02	1.09	0.031
27.37	1.28	0.032
28.73	1.487	0.032
30.23	1.733	0.109
31.76	2.005	0.11
33.45	2.326	0.111
35.15	2.669	0.113
36.87	3.032	0.116
38.59	3.411	0.117
40.32	3.806	0.119
42.15	4.235	0.121
44.09	4.7	0.124
46.03	5.182	0.126
47.98	5.668	0.128
49.94	6.156	0.131
51.9	6.642	0.133
53.88	7.132	0.136
55.86	7.623	0.138
57.85	8.104	0.141
59.85	8.589	0.141
61.85	9.063	0.141
63.86	9.528	0.15
65.87	9.986	0.15
67.89	10.43	0.15
69.91	10.88	0.16
71.93	11.3	0.16
73.96	11.72	0.16
75.99	12.12	0.16
78.02	12.51	0.17
80.06	12.89	0.17
80.84	13.04	0.17
82.11	13.26	0.17
82.89	13.39	0.17
83.86	13.56	0.17
85.26	13.79	0.17
85.69	13.87	0.17
87.74	14.2	0.17
87.76	14.2	0.17
89.79	14.53	0.17
90.09	14.58	0.26
91.84	14.85	0.26
93.89	15.15	0.26
95.95	15.45	0.26
98.02	15.74	0.27
100.08	16.01	0.27
102.15	16.28	0.27
104.23	16.55	0.27
106.31	16.8	0.27
108.4	17.04	0.27
110.48	17.27	0.27
112.57	17.5	0.27
114.67	17.71	0.27
116.77	17.93	0.27
118.86	18.13	0.27
120.96	18.33	0.27
123.07	18.52	0.27
125.17	18.7	0.27
127.28	18.87	0.27
129.39	19.05	0.27
131.5	19.21	0.27
133.62	19.37	0.27
135.73	19.52	0.27
137.85	19.68	0.28
139.97	19.82	0.28
142.1	19.97	0.28
144.22	20.11	0.28
146.35	20.25	0.28
148.48	20.37	0.28
150.62	20.5	0.28
152.75	20.62	0.28
154.89	20.74	0.28
157.02	20.85	0.28
159.16	20.97	0.28
161.3	21.06	0.28
163.44	21.17	0.28
165.58	21.27	0.28
167.73	21.38	0.28
169.88	21.47	0.28
172.02	21.56	0.28
174.17	21.65	0.28
176.32	21.73	0.29
178.48	21.83	0.29
180.63	21.9	0.29
182.78	21.98	0.29
184.94	22.07	0.29
187.09	22.14	0.29
189.25	22.22	0.29
191.41	22.29	0.29
193.57	22.37	0.29
195.73	22.44	0.29
197.88	22.51	0.29
200.04	22.57	0.29
202.2	22.64	0.29
204.37	22.7	0.29
206.53	22.77	0.29
208.7	22.82	0.29
210.86	22.88	0.29
213.03	22.93	0.29
215.2	23	0.29
216.22	23.01	0.29
217.37	23.04	0.29
217.96	23.05	0.29
219.54	23.09	0.29
219.92	23.1	0.29
221.71	23.14	0.29
221.87	23.14	0.29
223.82	23.19	0.29
223.88	23.19	0.29
225.78	23.22	0.29
226.05	23.24	0.29
227.73	23.27	0.29
229.68	23.31	0.29
231.64	23.36	0.29
233.6	23.4	0.29
235.56	23.44	0.29
237.52	23.47	0.29
239.48	23.52	0.29
241.44	23.55	0.29
243.4	23.58	0.29
245.36	23.63	0.29
247.33	23.65	0.29
249.3	23.7	0.29
251.26	23.73	0.29
253.23	23.77	0.29
255.19	23.8	0.3
257.16	23.84	0.3
259.13	23.87	0.3
261.1	23.9	0.3
263.06	23.95	0.3
265.03	23.97	0.3
267	24	0.3
268.97	24.04	0.3
270.94	24.06	0.3
272.91	24.1	0.3
274.88	24.12	0.3
276.86	24.15	0.3
278.84	24.17	0.3
280.81	24.2	0.3
282.79	24.23	0.3
284.76	24.25	0.3
286.74	24.27	0.3
288.72	24.3	0.3
290.69	24.34	0.3
292.66	24.34	0.3
294.64	24.38	0.3
296.61	24.4	0.3
298.58	24.42	0.3
300.56	24.44	0.3
302.53	24.47	0.3
304.51	24.49	0.3
306.48	24.52	0.3
308.45	24.55	0.3
310.43	24.57	0.3
312.4	24.59	0.3
314.38	24.61	0.3
316.35	24.64	0.3
318.34	24.64	0.3
320.31	24.67	0.3
322.29	24.68	0.3
324.26	24.71	0.3
326.24	24.74	0.3
328.22	24.75	0.3
330.19	24.77	0.3
332.17	24.79	0.3
334.15	24.79	0.3
336.12	24.81	0.3
338.1	24.82	0.3
340.08	24.84	0.3
342.06	24.85	0.3
344.04	24.87	0.3
346.02	24.89	0.3
348.01	24.89	0.3
350	24.9	0.3
351.98	24.92	0.3
353.97	24.94	0.3
355.95	24.94	0.3
357.93	24.95	0.3
359.91	24.98	0.3
361.9	24.99	0.3
363.89	25	0.3
365.87	25.01	0.3
367.86	25.03	0.3

System: benzoic acid; phases: Crystal
Fixed: Pressure, kPa = 101.325
Property: Molar heat capacity at constant pressure, J/K/mol (Crystal); method: Small (less than 1 g) adiabatic calorimetry
Temperature, K	Molar heat capacity at constant pressure, J/K/mol	uncertainty
5.59	0.3352	0.0264
5.979	0.4196	0.0279
6.325	0.5088	0.0294
6.704	0.6159	0.0313
7.084	0.7402	0.0334
7.469	0.8747	0.036
7.855	1.024	0.038
8.241	1.186	0.041
8.629	1.372	0.044
9.018	1.566	0.047
9.409	1.775	0.05
9.801	1.991	0.053
10.3	2.293	0.057
10.9	2.676	0.063
11.5	3.088	0.069
12.1	3.53	0.075
12.71	4.001	0.081
13.33	4.503	0.087
13.94	5.024	0.094
14.56	5.567	0.101
15.17	6.134	0.107
15.9	6.82	0.115
16.73	7.637	0.123
17.56	8.472	0.133
18.39	9.329	0.141
19.22	10.21	0.15
20.06	11.09	0.16
21.19	12.34	0.17
22.62	13.9	0.17
24.04	15.49	0.18
25.46	17.05	0.19
26.89	18.61	0.19
28.33	20.19	0.2
29.77	21.74	0.2
31.37	23.43	0.22
33.11	25.21	0.22
34.87	26.94	0.23
36.62	28.6	0.24
38.37	30.21	0.25
40.13	31.74	0.26
41.98	33.33	0.27
43.94	34.99	0.27
45.9	36.51	0.28
47.87	38.01	0.29
49.84	39.43	0.3
51.81	40.77	0.31
53.78	42.06	0.31
55.75	43.33	0.32
57.72	44.56	0.32
59.69	45.75	0.33
61.67	46.91	0.33
63.65	48.01	0.34
65.63	49.04	0.35
67.61	50.1	0.35
69.6	51.07	0.36
71.59	52	0.36
73.59	52.93	0.37
75.59	53.9	0.37
77.59	54.88	0.37
80.71	56.16	0.38
82.55	56.92	0.38
84.38	57.66	0.39
86.22	58.43	0.39
88.06	59.17	0.4
89.91	59.92	0.4
91.62	60.64	0.44
91.76	60.69	0.44
93.75	61.5	0.45
95.6	62.21	0.45
97.45	62.98	0.45
99.31	63.71	0.46
101.17	64.44	0.46
103.02	65.18	0.46
104.89	65.85	0.47
106.75	66.57	0.47
108.62	67.29	0.47
110.49	68.01	0.47
112.36	68.69	0.47
114.23	69.38	0.47
116.1	70.13	0.48
117.97	70.81	0.48
119.85	71.5	0.48
121.73	72.2	0.49
123.61	72.89	0.49
125.49	73.6	0.49
127.38	74.3	0.5
129.26	75	0.5
131.15	75.72	0.5
133.03	76.42	0.51
134.92	77.12	0.51
136.81	77.81	0.51
138.7	78.54	0.52
140.6	79.26	0.52
142.49	79.99	0.52
144.38	80.73	0.52
146.27	81.45	0.52
148.17	82.16	0.53
150.07	82.89	0.53
151.98	83.64	0.5
153.88	84.39	0.5
155.78	85.06	0.58
157.69	85.81	0.58
159.6	86.55	0.58
161.5	87.3	0.58
163.41	88.05	0.58
165.32	88.8	0.58
167.23	89.55	0.58
169.14	90.3	0.58
171.05	91.04	0.58
172.96	91.79	0.58
174.88	92.62	0.58
176.79	93.37	0.58
178.7	94.12	0.58
180.62	94.95	0.58
182.54	95.78	0.58
184.47	96.53	0.58
186.39	97.28	0.58
188.31	98.11	0.58
190.22	98.94	0.58
192.14	99.77	0.58
194.07	100.5	0.58
195.99	101.4	0.58
197.92	102.2	0.58
199.85	103	0.58
201.78	103.8	0.58
203.71	104.6	0.58
205.64	105.4	0.58
207.57	106.3	0.67
209.5	107.1	0.67
211.44	107.9	0.67
213.37	108.7	0.67
215.31	109.5	0.67
217.24	110.3	0.67
219.18	111.2	0.67
221.12	112	0.67
222.63	112.7	0.67
223.05	112.8	0.67
224.76	113.7	0.67
224.99	113.7	0.67
226.7	114.4	0.67
226.93	114.6	0.67
228.63	115.2	0.67
228.87	115.4	0.67
230.56	116.2	0.67
232.5	117.1	0.67
234.43	117.8	0.67
236.36	118.7	0.67
238.29	119.6	0.67
240.23	120.5	0.67
242.16	121.3	0.67
244.1	122.2	0.67
246.04	123.1	0.67
247.97	123.9	0.67
249.91	124.8	0.67
251.84	125.7	0.67
253.79	126.5	0.75
255.73	127.5	0.75
257.66	128.3	0.75
259.6	129.3	0.75
261.54	130.1	0.75
263.47	131	0.75
265.41	131.9	0.75
267.35	132.8	0.75
269.28	133.7	0.75
271.22	134.5	0.75
273.16	135.4	0.75
275.1	136.3	0.75
277.03	137.2	0.75
278.97	138	0.75
280.91	138.9	0.75
282.84	139.8	0.75
284.79	140.7	0.75
286.73	141.6	0.75
288.67	142.5	0.75
290.61	143.4	0.75
292.55	144.3	0.75
294.49	145.2	0.75
296.43	146.1	0.75
298.37	146.9	0.75
300.31	147.8	0.83
302.25	148.7	0.83
304.19	149.7	0.83
306.13	150.6	0.83
308.07	151.4	0.83
310.01	152.3	0.83
311.95	153.2	0.83
313.89	154.2	0.83
315.83	155.1	0.83
317.78	155.9	0.83
319.73	156.7	0.83
321.67	157.6	0.83
323.61	158.6	0.83
325.56	159.5	0.83
327.5	160.3	0.83
329.44	161.2	0.83
331.39	162	0.83
333.34	162.9	0.83
335.28	163.7	0.83
337.23	164.5	0.83
339.17	165.5	0.83
341.12	166.3	0.83
343.06	167.3	0.83
345.01	168.1	0.92
346.95	169	0.92
348.9	169.9	0.92
350.86	170.8	0.92
352.8	171.6	0.92
354.75	172.4	0.92
356.69	173.3	0.92
358.64	174.2	0.92
360.58	175.1	0.92
362.53	175.9	0.92
364.49	176.9	0.92
366.44	177.8	0.92
368.39	178.6	0.92
