Measured thermophysical data. Heat Capacities of Uracil, Thymine, and Its Alkylated, Cyclooligomethylenated, and Halogenated Derivatives by Differential Calorimetry
Source: J. Chem. Eng. Data, 2007, 10.1021/je060257y
Compound 1: 2,4(1H,3H)-pyrimidinedione, C4H4N2O2, InChI=1S/C4H4N2O2/c7-3-1-2-5-4(8)6-3/h1-2H,(H2,5,6,7,8)
Compound 2: 1-methyl-2,4(1H,3H)-pyrimidinedione, C5H6N2O2, InChI=1S/C5H6N2O2/c1-7-3-2-4(8)6-5(7)9/h2-3H,1H3,(H,6,8,9)
Compound 3: uracil, 3-methyl-, C5H6N2O2, InChI=1S/C5H6N2O2/c1-7-4(8)2-3-6-5(7)9/h2-3H,1H3,(H,6,9)
Compound 4: thymine, C5H6N2O2, InChI=1S/C5H6N2O2/c1-3-2-6-5(9)7-4(3)8/h2H,1H3,(H2,6,7,8,9)
Compound 5: 2,4-dihydroxy-6-methylpyrimidine, C5H6N2O2, InChI=1S/C5H6N2O2/c1-3-2-4(8)7-5(9)6-3/h2H,1H3,(H2,6,7,8,9)
Compound 6: 1,3-dimethyl-2,4-(1H,3H)-pyrimidinedione, C6H8N2O2, InChI=1S/C6H8N2O2/c1-7-4-3-5(9)8(2)6(7)10/h3-4H,1-2H3
Compound 7: 3,6-dimethyluracil, C6H8N2O2, InChI=1S/C6H8N2O2/c1-4-3-5(9)8(2)6(10)7-4/h3H,1-2H3,(H,7,10)
Compound 8: 1,6-dimethyluracil, C6H8N2O2, InChI=1S/C6H8N2O2/c1-4-3-5(9)7-6(10)8(4)2/h3H,1-2H3,(H,7,9,10)
Compound 9: 2,4-dihydroxy-5,6-dimethylpyrimidine, C6H8N2O2, InChI=1S/C6H8N2O2/c1-3-4(2)7-6(10)8-5(3)9/h1-2H3,(H2,7,8,9,10)
Compound 10: 1,3,6-trimethyl-2,4(1H,3H)-pyrimidinedione, C7H10N2O2, InChI=1S/C7H10N2O2/c1-5-4-6(10)9(3)7(11)8(5)2/h4H,1-3H3
Compound 11: 2,4(1H,3H)-pyrimidinedione, 1,3,5,6-tetramethyl-, C8H12N2O2, InChI=1S/C8H12N2O2/c1-5-6(2)9(3)8(12)10(4)7(5)11/h1-4H3
Compound 12: 2,4(1H,3H)-pyrimidinedione, 5-ethyl-1,3-dimethyl-, C8H12N2O2, InChI=1S/C8H12N2O2/c1-4-6-5-9(2)8(12)10(3)7(6)11/h5H,4H2,1-3H3
Compound 13: 2,4(1H,3H)-pyrimidinedione, 1,3-dimethyl-5-propyl-, C9H14N2O2, InChI=1S/C9H14N2O2/c1-4-5-7-6-10(2)9(13)11(3)8(7)12/h6H,4-5H2,1-3H3
Compound 14: 2,4(1H,3H)-pyrimidinedione, 1,3-dimethyl-6-propyl-, C9H14N2O2, InChI=1S/C9H14N2O2/c1-4-5-7-6-8(12)11(3)9(13)10(7)2/h6H,4-5H2,1-3H3
Compound 15: 1H-cycloheptapyrimidine-2,4(3H,5H)-dione, 6,7,8,9-tetrahydro-1,3-dimethyl-, C11H16N2O2, InChI=1S/C11H16N2O2/c1-12-9-7-5-3-4-6-8(9)10(14)13(2)11(12)15/h3-7H2,1-2H3
Compound 16: 6-chlorouracil, C4H3ClN2O2, InChI=1S/C4H3ClN2O2/c5-2-1-3(8)7-4(9)6-2/h1H,(H2,6,7,8,9)
Compound 17: 5-fluoro-2,4(1H,3H)-pyrimidinedione, C4H3FN2O2, InChI=1S/C4H3FN2O2/c5-2-1-6-4(9)7-3(2)8/h1H,(H2,6,7,8,9)
Compound 18: 5-chloro-2,4-pyrimidinedione, C4H3ClN2O2, InChI=1S/C4H3ClN2O2/c5-2-1-6-4(9)7-3(2)8/h1H,(H2,6,7,8,9)
Compound 19: 5-iodouracil, C4H3IN2O2, InChI=1S/C4H3IN2O2/c5-2-1-6-4(9)7-3(2)8/h1H,(H2,6,7,8,9)
Compound 20: 2,4-pyrimidinedione, 5-nitro-, C4H3N3O4, InChI=1S/C4H3N3O4/c8-3-2(7(10)11)1-5-4(9)6-3/h1H,(H2,5,6,8,9)
Compound 21: 2,4(1H,3H)-pyrimidinedione, 6-ethyl-1,3-dimethyl-, C8H12N2O2, InChI=1S/C8H12N2O2/c1-4-6-5-7(11)10(3)8(12)9(6)2/h5H,4H2,1-3H3
Compound 22: 2,4(1H,3H)-pyrimidinedione, 5-butyl-1,3-dimethyl-, C10H16N2O2, InChI=1S/C10H16N2O2/c1-4-5-6-8-7-11(2)10(14)12(3)9(8)13/h7H,4-6H2,1-3H3
Compound 23: 2,4(1H,3H)-pyrimidinedione, 6-butyl-1,3-dimethyl-, C10H16N2O2, InChI=1S/C10H16N2O2/c1-4-5-6-8-7-9(13)12(3)10(14)11(8)2/h7H,4-6H2,1-3H3
Compound 24: 5-bromouracil, C4H3BrN2O2, InChI=1S/C4H3BrN2O2/c5-2-1-6-4(9)7-3(2)8/h1H,(H2,6,7,8,9)
Compound 25: 5-(trifluoromethyl)uracil, C5H3F3N2O2, InChI=1S/C5H3F3N2O2/c6-5(7,8)2-1-9-4(12)10-3(2)11/h1H,(H2,9,10,11,12)
Compound 26: 1,5-dimethyluracil, C6H8N2O2, InChI=1S/C6H8N2O2/c1-4-3-8(2)6(10)7-5(4)9/h3H,1-2H3,(H,7,9,10)
Compound 27: 1,3-dimethyl-5,6-trimethyleneuracil, C9H12N2O2, InChI=1S/C9H12N2O2/c1-10-7-5-3-4-6(7)8(12)11(2)9(10)13/h3-5H2,1-2H3
Compound 28: 1,3-dimethyl-5,6,7,8-tetrahydroquinazoline-2,4(1H,3H)-dione, C10H14N2O2, InChI=1S/C10H14N2O2/c1-11-8-6-4-3-5-7(8)9(13)12(2)10(11)14/h3-6H2,1-2H3

System: 2,4(1H,3H)-pyrimidinedione; phases: Crystal
Fixed: Pressure, kPa = 101.325
Property: Molar heat capacity at constant pressure, J/K/mol (Crystal); method: SDSC:UFactor:2
Temperature, K	Molar heat capacity at constant pressure, J/K/mol	uncertainty
298.15	131.8	4.7
303.15	135.5	4.7
308.15	140.9	4.9
313.15	143	4.9
318.15	146.1	5
323.15	149	5.1
328.15	151.8	5.1
333.15	154.3	5.2
338.15	156.8	5.2
343.15	157.4	5.3

System: 1-methyl-2,4(1H,3H)-pyrimidinedione; phases: Crystal
Fixed: Pressure, kPa = 101.325
Property: Molar heat capacity at constant pressure, J/K/mol (Crystal); method: SDSC:UFactor:2
Temperature, K	Molar heat capacity at constant pressure, J/K/mol	uncertainty
298.15	156.9	4.9
303.15	167.2	5.2
308.15	179.6	5.6
313.15	190.9	5.9
318.15	200.5	6.2
323.15	211.1	6.5
328.15	223	6.9
333.15	235	7.3
338.15	245.9	7.6
343.15	256.1	7.9

System: uracil, 3-methyl-; phases: Crystal
Fixed: Pressure, kPa = 101.325
Property: Molar heat capacity at constant pressure, J/K/mol (Crystal); method: SDSC:UFactor:2
Temperature, K	Molar heat capacity at constant pressure, J/K/mol	uncertainty
298.15	157	5
303.15	168.8	5.3
308.15	181.2	5.7
313.15	193	6
318.15	206.1	6.4
323.15	214.3	6.6
328.15	226.1	7
333.15	239.2	7.4
338.15	249	7.7
343.15	260.2	8.1

System: thymine; phases: Crystal
Fixed: Pressure, kPa = 101.325
Property: Molar heat capacity at constant pressure, J/K/mol (Crystal); method: SDSC:UFactor:2
Temperature, K	Molar heat capacity at constant pressure, J/K/mol	uncertainty
298.15	163	5.3
303.15	168.2	5.4
308.15	173.7	5.6
313.15	178.7	5.7
318.15	184.3	5.8
323.15	189.9	6
328.15	195.2	6.1
333.15	200	6.2
338.15	203.5	6.3
343.15	205.9	6.4

System: 2,4-dihydroxy-6-methylpyrimidine; phases: Crystal
Fixed: Pressure, kPa = 101.325
Property: Molar heat capacity at constant pressure, J/K/mol (Crystal); method: SDSC:UFactor:2
Temperature, K	Molar heat capacity at constant pressure, J/K/mol	uncertainty
298.15	162.5	5
303.15	167.2	5.2
308.15	170.2	5.3
313.15	172.2	5.3
318.15	176.9	5.5
323.15	181.4	5.6
328.15	183	5.7
333.15	187.3	5.8
338.15	190.4	5.9
343.15	193	6

System: 1,3-dimethyl-2,4-(1H,3H)-pyrimidinedione; phases: Crystal
Fixed: Pressure, kPa = 101.325
Property: Molar heat capacity at constant pressure, J/K/mol (Crystal); method: SDSC:UFactor:2
Temperature, K	Molar heat capacity at constant pressure, J/K/mol	uncertainty
298.15	182.5	5.7
303.15	185.4	5.7
308.15	188.7	5.8
313.15	191.2	5.9
318.15	193.8	6
323.15	196.4	6.1
328.15	199.1	6.2
333.15	201	6.2
338.15	203.3	6.3
343.15	206.8	6.4

System: 3,6-dimethyluracil; phases: Crystal
Fixed: Pressure, kPa = 101.325
Property: Molar heat capacity at constant pressure, J/K/mol (Crystal); method: SDSC:UFactor:2
Temperature, K	Molar heat capacity at constant pressure, J/K/mol	uncertainty
298.15	187.4	5.9
303.15	193.1	6
308.15	191.4	6
313.15	193.5	6.1
318.15	198.4	6.2
323.15	200.3	6.2
328.15	202.4	6.3
333.15	203.8	6.3
338.15	206	6.4
343.15	209	6.5

System: 1,6-dimethyluracil; phases: Crystal
Fixed: Pressure, kPa = 101.325
Property: Molar heat capacity at constant pressure, J/K/mol (Crystal); method: SDSC:UFactor:2
Temperature, K	Molar heat capacity at constant pressure, J/K/mol	uncertainty
298.15	188.1	7
303.15	194.3	7.2
308.15	197.9	7.2
313.15	202.6	7.3
318.15	206.8	7.4
323.15	211	7.5
328.15	217.9	7.7
333.15	225.1	7.9
338.15	233.1	8
343.15	239.8	8.2

System: 2,4-dihydroxy-5,6-dimethylpyrimidine; phases: Crystal
Fixed: Pressure, kPa = 101.325
Property: Molar heat capacity at constant pressure, J/K/mol (Crystal); method: SDSC:UFactor:2
Temperature, K	Molar heat capacity at constant pressure, J/K/mol	uncertainty
298.15	191.1	5.9
303.15	198.3	6.1
308.15	203.2	6.3
313.15	208	6.4
318.15	212	6.6
323.15	215.6	6.7
328.15	219.1	6.8
333.15	223.3	6.9
338.15	229.3	7.1
343.15	234.1	7.3

System: 1,3,6-trimethyl-2,4(1H,3H)-pyrimidinedione; phases: Crystal
Fixed: Pressure, kPa = 101.325
Property: Molar heat capacity at constant pressure, J/K/mol (Crystal); method: SDSC:UFactor:2
Temperature, K	Molar heat capacity at constant pressure, J/K/mol	uncertainty
298.15	212.6	7.2
303.15	213.5	7.2
308.15	217.1	7.3
313.15	218.5	7.4
318.15	219.8	7.4
323.15	223.4	7.5
328.15	228.3	7.6
333.15	229	7.6
338.15	236.5	7.8
343.15	239.6	7.9

System: 2,4(1H,3H)-pyrimidinedione, 1,3,5,6-tetramethyl-; phases: Crystal
Fixed: Pressure, kPa = 101.325
Property: Molar heat capacity at constant pressure, J/K/mol (Crystal); method: SDSC:UFactor:2
Temperature, K	Molar heat capacity at constant pressure, J/K/mol	uncertainty
298.15	244.5	7.9
303.15	248.8	8
308.15	254	8.1
313.15	256.5	8.2
318.15	260.9	8.3
323.15	266.7	8.4
328.15	271.2	8.6
333.15	276.6	8.7
338.15	282.3	8.8
343.15	291.5	9.1

System: 2,4(1H,3H)-pyrimidinedione, 5-ethyl-1,3-dimethyl-; phases: Crystal
Fixed: Pressure, kPa = 101.325
Property: Molar heat capacity at constant pressure, J/K/mol (Crystal); method: SDSC:UFactor:2
Temperature, K	Molar heat capacity at constant pressure, J/K/mol	uncertainty
298.15	241.1	8.5
303.15	250.1	8.7
308.15	256.5	8.8
313.15	261	8.9
318.15	264.3	9
323.15	267.4	9.1
328.15	270.7	9.1
333.15	275.2	9.3
338.15	281.7	9.4
343.15	291.1	9.6

System: 2,4(1H,3H)-pyrimidinedione, 1,3-dimethyl-5-propyl-; phases: Crystal
Fixed: Pressure, kPa = 101.325
Property: Molar heat capacity at constant pressure, J/K/mol (Crystal); method: SDSC:UFactor:2
Temperature, K	Molar heat capacity at constant pressure, J/K/mol	uncertainty
298.15	302.7	9.4
303.15	302.7	9.4
308.15	302.8	9.4
313.15	303	9.4
318.15	306.2	9.5
323.15	308.4	9.6

System: 2,4(1H,3H)-pyrimidinedione, 1,3-dimethyl-6-propyl-; phases: Crystal
Fixed: Pressure, kPa = 101.325
Property: Molar heat capacity at constant pressure, J/K/mol (Crystal); method: SDSC:UFactor:2
Temperature, K	Molar heat capacity at constant pressure, J/K/mol	uncertainty
298.15	287.2	10
303.15	288.8	10
308.15	290.5	10.1
313.15	292.2	10.1
318.15	293.9	10.1
323.15	303.9	10.4

System: 1H-cycloheptapyrimidine-2,4(3H,5H)-dione, 6,7,8,9-tetrahydro-1,3-dimethyl-; phases: Crystal
Fixed: Pressure, kPa = 101.325
Property: Molar heat capacity at constant pressure, J/K/mol (Crystal); method: SDSC:UFactor:2
Temperature, K	Molar heat capacity at constant pressure, J/K/mol	uncertainty
298.15	314.5	9.7
303.15	321.6	10
308.15	329	10.2
313.15	333.6	10.3
318.15	341.1	10.6
323.15	347.9	10.8
328.15	353.3	10.9
333.15	358.4	11.1
338.15	363.2	11.3
343.15	367.3	11.4

System: 6-chlorouracil; phases: Crystal
Fixed: Pressure, kPa = 101.325
Property: Molar heat capacity at constant pressure, J/K/mol (Crystal); method: SDSC:UFactor:2
Temperature, K	Molar heat capacity at constant pressure, J/K/mol	uncertainty
298.15	139.4	4.3
303.15	141	4.4
308.15	141.2	4.4
313.15	140.8	4.4
318.15	141.3	4.4
323.15	144.7	4.5
328.15	144.9	4.5
333.15	145.1	4.5
338.15	146	4.5
343.15	147.9	4.6

System: 5-fluoro-2,4(1H,3H)-pyrimidinedione; phases: Crystal
Fixed: Pressure, kPa = 101.325
Property: Molar heat capacity at constant pressure, J/K/mol (Crystal); method: SDSC:UFactor:2
Temperature, K	Molar heat capacity at constant pressure, J/K/mol	uncertainty
298.15	138.3	4.7
303.15	139.1	4.7
308.15	140	4.7
313.15	140.9	4.8
318.15	142	4.8
323.15	143.6	4.8
328.15	145.5	4.9
333.15	147.9	4.9
338.15	150.6	5
343.15	153.8	5.1

System: 5-chloro-2,4-pyrimidinedione; phases: Crystal
Fixed: Pressure, kPa = 101.325
Property: Molar heat capacity at constant pressure, J/K/mol (Crystal); method: SDSC:UFactor:2
Temperature, K	Molar heat capacity at constant pressure, J/K/mol	uncertainty
298.15	136.7	4.2
303.15	137.9	4.3
308.15	142.1	4.4
313.15	142.9	4.4
318.15	146.1	4.5
323.15	147.2	4.6
328.15	151.2	4.7
333.15	152.9	4.7
338.15	154.9	4.8
343.15	157	4.9

System: 5-iodouracil; phases: Crystal
Fixed: Pressure, kPa = 101.325
Property: Molar heat capacity at constant pressure, J/K/mol (Crystal); method: SDSC:UFactor:2
Temperature, K	Molar heat capacity at constant pressure, J/K/mol	uncertainty
298.15	150.9	4.7
303.15	153.9	4.8
308.15	156.8	4.9
313.15	159.8	5
318.15	162.8	5
323.15	165.8	5.1
328.15	168.6	5.2
333.15	170.3	5.3
338.15	172.7	5.4
343.15	177.5	5.5

System: 2,4-pyrimidinedione, 5-nitro-; phases: Crystal
Fixed: Pressure, kPa = 101.325
Property: Molar heat capacity at constant pressure, J/K/mol (Crystal); method: SDSC:UFactor:2
Temperature, K	Molar heat capacity at constant pressure, J/K/mol	uncertainty
298.15	167.2	5.2
303.15	167.9	5.2
308.15	169.9	5.3
313.15	169.9	5.3
318.15	171.1	5.3
323.15	171.8	5.3
328.15	173	5.4
333.15	173.1	5.4
338.15	174.5	5.4
343.15	174.5	5.4

System: 2,4(1H,3H)-pyrimidinedione, 6-ethyl-1,3-dimethyl-; phases: Crystal
Fixed: Pressure, kPa = 101.325
Property: Molar heat capacity at constant pressure, J/K/mol (Crystal); method: SDSC:UFactor:2
Temperature, K	Molar heat capacity at constant pressure, J/K/mol	uncertainty
298.15	241.8	9.6
303.15	243.4	9.7
308.15	245.3	9.7
313.15	246.3	9.7
318.15	248.3	9.8
323.15	259.6	10

System: 2,4(1H,3H)-pyrimidinedione, 5-butyl-1,3-dimethyl-; phases: Crystal
Fixed: Pressure, kPa = 101.325
Property: Molar heat capacity at constant pressure, J/K/mol (Crystal); method: SDSC:UFactor:2
Temperature, K	Molar heat capacity at constant pressure, J/K/mol	uncertainty
298.15	358.1	14.3
303.15	544.2	21.8

System: 2,4(1H,3H)-pyrimidinedione, 6-butyl-1,3-dimethyl-; phases: Crystal
Fixed: Pressure, kPa = 101.325
Property: Molar heat capacity at constant pressure, J/K/mol (Crystal); method: SDSC:UFactor:2
Temperature, K	Molar heat capacity at constant pressure, J/K/mol	uncertainty
298.15	296.4	9.2
303.15	297.9	9.2
308.15	299.4	9.3
313.15	300.9	9.3
318.15	302.1	9.4
323.15	305.3	9.5

System: 5-bromouracil; phases: Crystal
Fixed: Pressure, kPa = 101.325
Property: Molar heat capacity at constant pressure, J/K/mol (Crystal); method: SDSC:UFactor:2
Temperature, K	Molar heat capacity at constant pressure, J/K/mol	uncertainty
298.15	144.7	4.5
303.15	147.9	4.6
308.15	148.5	4.6
313.15	151	4.7
318.15	153.9	4.8
323.15	157.1	4.9
328.15	157.9	4.9
333.15	162	5
338.15	164.3	5.1
343.15	164.8	5.1

System: 5-(trifluoromethyl)uracil; phases: Crystal
Fixed: Pressure, kPa = 101.325
Property: Molar heat capacity at constant pressure, J/K/mol (Crystal); method: SDSC:UFactor:2
Temperature, K	Molar heat capacity at constant pressure, J/K/mol	uncertainty
298.15	182.2	5.6
303.15	183.9	5.7
308.15	188.1	5.8
313.15	190.3	5.9
318.15	192.2	6
323.15	195.9	6.1
328.15	198.2	6.1
333.15	199.4	6.2
338.15	204.4	6.3
343.15	206.6	6.4

System: 1,5-dimethyluracil; phases: Crystal
Fixed: Pressure, kPa = 101.325
Property: Molar heat capacity at constant pressure, J/K/mol (Crystal); method: SDSC:UFactor:2
Temperature, K	Molar heat capacity at constant pressure, J/K/mol	uncertainty
298.15	187.6	5.8
303.15	190	5.9
308.15	190.3	5.9
313.15	194.1	6
318.15	194.8	6
323.15	198.5	6.2
328.15	199.2	6.2
333.15	202	6.3
338.15	203	6.3
343.15	205.2	6.4

System: 1,3-dimethyl-5,6-trimethyleneuracil; phases: Crystal
Fixed: Pressure, kPa = 101.325
Property: Molar heat capacity at constant pressure, J/K/mol (Crystal); method: SDSC:UFactor:2
Temperature, K	Molar heat capacity at constant pressure, J/K/mol	uncertainty
298.15	252.9	7.8
303.15	258.1	8
308.15	261.8	8.1

System: 1,3-dimethyl-5,6,7,8-tetrahydroquinazoline-2,4(1H,3H)-dione; phases: Crystal
Fixed: Pressure, kPa = 101.325
Property: Molar heat capacity at constant pressure, J/K/mol (Crystal); method: SDSC:UFactor:2
Temperature, K	Molar heat capacity at constant pressure, J/K/mol	uncertainty
298.15	282.9	8.8
303.15	291.2	9
308.15	296.2	9.2
313.15	305.8	9.5
318.15	310.9	9.6
323.15	319.8	9.9
