Measured thermophysical data. Refractive Indices and Surface Tensions of Binary Mixtures of Ethyl Acetoacetate, Ethyl Isovalerate, Methyl Benzoate, Benzyl Acetate, Ethyl Salicylate, and Benzyl Propionate with Ethanol at (288.15, 298.15, 308.15, and 318.15) K
Source: J. Chem. Eng. Data, 2006, 10.1021/je060139a
Compound 1: ethyl 3-oxobutanoate, C6H10O3, InChI=1S/C6H10O3/c1-3-9-6(8)4-5(2)7/h3-4H2,1-2H3
Compound 2: ethyl 3-methylbutanoate, C7H14O2, InChI=1S/C7H14O2/c1-4-9-7(8)5-6(2)3/h6H,4-5H2,1-3H3
Compound 3: methyl benzoate, C8H8O2, InChI=1S/C8H8O2/c1-10-8(9)7-5-3-2-4-6-7/h2-6H,1H3
Compound 4: benzyl ethanoate, C9H10O2, InChI=1S/C9H10O2/c1-8(10)11-7-9-5-3-2-4-6-9/h2-6H,7H2,1H3
Compound 5: ethyl 2-hydroxybenzoate, C9H10O3, InChI=1S/C9H10O3/c1-2-12-9(11)7-5-3-4-6-8(7)10/h3-6,10H,2H2,1H3
Compound 6: benzyl propanoate, C10H12O2, InChI=1S/C10H12O2/c1-2-10(11)12-8-9-6-4-3-5-7-9/h3-7H,2,8H2,1H3
Compound 7: ethanol, C2H6O, InChI=1S/C2H6O/c1-2-3/h3H,2H2,1H3

System: ethyl 3-oxobutanoate; phases: Liquid
Property: Mass density, kg/m3 (Liquid); method: VIBTUB:UFactor:8
Temperature, K	Pressure, kPa	Mass density, kg/m3	uncertainty
298.15	101.325	1023.45	0.52

System: ethyl 3-oxobutanoate; phases: Liquid, Air at 1 atmosphere
Property: Surface tension liquid-gas, N/m (Liquid); method: OTHER::sMethod:Wilhelmy plate method
Temperature, K	Surface tension liquid-gas, N/m	uncertainty
288.15	0.0333	0.00042
298.18	0.0323	0.00042
308.15	0.0311	0.00042
318.15	0.03	0.00042

System: ethyl 3-oxobutanoate; phases: Liquid
Fixed: Pressure, kPa = 101.325
Property: Refractive index (Na D-line) (Liquid); method: Standard Abbe refractometry
Temperature, K	Refractive index (Na D-line)	uncertainty
288.15	1.4209	0.0004
298.18	1.4166	0.0004
308.15	1.4125	0.0004
318.15	1.408	0.0004

System: ethyl 3-methylbutanoate; phases: Liquid
Property: Mass density, kg/m3 (Liquid); method: VIBTUB:UFactor:8
Temperature, K	Pressure, kPa	Mass density, kg/m3	uncertainty
298.15	101.325	859.78	0.82

System: ethyl 3-methylbutanoate; phases: Liquid, Air at 1 atmosphere
Property: Surface tension liquid-gas, N/m (Liquid); method: OTHER::sMethod:Wilhelmy plate method
Temperature, K	Surface tension liquid-gas, N/m	uncertainty
288.15	0.0244	0.00042
298.18	0.0235	0.00042
308.15	0.02245	0.00042
318.15	0.0216	0.00041

System: ethyl 3-methylbutanoate; phases: Liquid
Fixed: Pressure, kPa = 101.325
Property: Refractive index (Na D-line) (Liquid); method: Standard Abbe refractometry
Temperature, K	Refractive index (Na D-line)	uncertainty
288.15	1.3988	0.00037
298.18	1.39401	0.00037
308.15	1.38931	0.00037
318.15	1.38458	0.00037

System: methyl benzoate; phases: Liquid
Property: Mass density, kg/m3 (Liquid); method: VIBTUB:UFactor:8
Temperature, K	Pressure, kPa	Mass density, kg/m3	uncertainty
298.15	101.325	1083.92	0.68

System: methyl benzoate; phases: Liquid, Air at 1 atmosphere
Property: Surface tension liquid-gas, N/m (Liquid); method: OTHER::sMethod:Wilhelmy plate method
Temperature, K	Surface tension liquid-gas, N/m	uncertainty
288.15	0.0386	0.00043
298.18	0.0372	0.00043
308.15	0.0358	0.00043
318.15	0.0348	0.00042

System: methyl benzoate; phases: Liquid
Fixed: Pressure, kPa = 101.325
Property: Refractive index (Na D-line) (Liquid); method: Standard Abbe refractometry
Temperature, K	Refractive index (Na D-line)	uncertainty
288.15	1.51915	0.00035
298.18	1.51467	0.00035
308.15	1.50993	0.00035
318.15	1.50514	0.00035

System: benzyl ethanoate; phases: Liquid
Property: Mass density, kg/m3 (Liquid); method: VIBTUB:UFactor:4
Temperature, K	Pressure, kPa	Mass density, kg/m3	uncertainty
298.15	101.325	1050.75	0.3

System: benzyl ethanoate; phases: Liquid, Air at 1 atmosphere
Property: Surface tension liquid-gas, N/m (Liquid); method: OTHER::sMethod:Wilhelmy plate method
Temperature, K	Surface tension liquid-gas, N/m	uncertainty
288.15	0.0377	0.00041
298.18	0.0364	0.00041
308.15	0.0353	0.00041
318.15	0.0341	0.00041

System: benzyl ethanoate; phases: Liquid
Fixed: Pressure, kPa = 101.325
Property: Refractive index (Na D-line) (Liquid); method: Standard Abbe refractometry
Temperature, K	Refractive index (Na D-line)	uncertainty
288.15	1.50439	0.00032
298.18	1.49982	0.00032
308.15	1.49539	0.00032
318.15	1.49064	0.00032

System: ethyl 2-hydroxybenzoate; phases: Liquid
Property: Mass density, kg/m3 (Liquid); method: VIBTUB:UFactor:4
Temperature, K	Pressure, kPa	Mass density, kg/m3	uncertainty
298.15	101.325	1125	0.4

System: ethyl 2-hydroxybenzoate; phases: Liquid, Air at 1 atmosphere
Property: Surface tension liquid-gas, N/m (Liquid); method: OTHER::sMethod:Wilhelmy plate method
Temperature, K	Surface tension liquid-gas, N/m	uncertainty
288.15	0.0375	0.00041
298.18	0.0363	0.00041
308.15	0.0352	0.00041
318.15	0.0344	0.00041

System: ethyl 2-hydroxybenzoate; phases: Liquid
Fixed: Pressure, kPa = 101.325
Property: Refractive index (Na D-line) (Liquid); method: Standard Abbe refractometry
Temperature, K	Refractive index (Na D-line)	uncertainty
288.15	1.52481	0.00032
298.18	1.52022	0.00032
308.15	1.51573	0.00032
318.15	1.51116	0.00032

System: benzyl propanoate; phases: Liquid
Property: Mass density, kg/m3 (Liquid); method: VIBTUB:UFactor:6
Temperature, K	Pressure, kPa	Mass density, kg/m3	uncertainty
298.15	101.325	1027.6	0.4

System: benzyl propanoate; phases: Liquid, Air at 1 atmosphere
Property: Surface tension liquid-gas, N/m (Liquid); method: OTHER::sMethod:Wilhelmy plate method
Temperature, K	Surface tension liquid-gas, N/m	uncertainty
288.15	0.036	0.00041
298.18	0.0348	0.00041
308.15	0.0336	0.00041
318.15	0.0324	0.00041

System: benzyl propanoate; phases: Liquid
Fixed: Pressure, kPa = 101.325
Property: Refractive index (Na D-line) (Liquid); method: Standard Abbe refractometry
Temperature, K	Refractive index (Na D-line)	uncertainty
288.15	1.4995	0.00034
298.18	1.49498	0.00034
308.15	1.49074	0.00034
318.15	1.48611	0.00034

System: ethanol; phases: Liquid
Property: Mass density, kg/m3 (Liquid); method: VIBTUB:UFactor:2
Temperature, K	Pressure, kPa	Mass density, kg/m3	uncertainty
298.15	101.325	785	0.24

System: ethanol; phases: Liquid, Air at 1 atmosphere
Property: Surface tension liquid-gas, N/m (Liquid); method: Wilhelmy plate method
Temperature, K	Surface tension liquid-gas, N/m	uncertainty
288.15	0.023	0.0004
298.18	0.0223	0.0004
308.15	0.0215	0.0004
318.15	0.0206	0.0004

System: ethanol; phases: Liquid
Fixed: Pressure, kPa = 101.325
Property: Refractive index (Na D-line) (Liquid); method: Standard Abbe refractometry
Temperature, K	Refractive index (Na D-line)	uncertainty
288.15	1.3633	0.0003
288.15	1.36333	0.00031
298.18	1.3594	0.0003
298.18	1.35941	0.00031
308.15	1.3553	0.0003
308.15	1.35531	0.00031
318.15	1.3515	0.0003
318.15	1.35148	0.00031

System: ethanol + ethyl 3-oxobutanoate; phases: Liquid, Air at 1 atmosphere
Property: Surface tension liquid-gas, N/m (Liquid); method: Wilhelmy plate method
Temperature, K	Mole fraction of ethyl 3-oxobutanoate	Surface tension liquid-gas, N/m	uncertainty
288.15	0	0.023	0.0004
288.15	0.05	0.02353	0.0004
288.15	0.1	0.0241	0.0004
288.15	0.15	0.02465	0.0004
288.15	0.2	0.02522	0.0004
288.15	0.25	0.02577	0.0004
288.15	0.3	0.02628	0.0004
288.15	0.35	0.02678	0.0004
288.15	0.4	0.02728	0.0004
288.15	0.45	0.0278	0.0004
288.15	0.5	0.02835	0.00041
288.15	0.55	0.02892	0.00041
288.15	0.6	0.02946	0.00041
288.15	0.65	0.03002	0.00041
288.15	0.7	0.03054	0.00041
288.15	0.75	0.03105	0.00041
288.15	0.8	0.03153	0.00041
288.15	0.85	0.03202	0.00042
288.15	0.9	0.03247	0.00042
288.15	0.95	0.03291	0.00042
288.15	1	0.0333	0.00042
298.18	0	0.0223	0.0004
298.18	0.05	0.02277	0.0004
298.18	0.1	0.02331	0.0004
298.18	0.15	0.02383	0.0004
298.18	0.2	0.02438	0.0004
298.18	0.25	0.02489	0.0004
298.18	0.3	0.02538	0.0004
298.18	0.35	0.02588	0.0004
298.18	0.4	0.02636	0.0004
298.18	0.45	0.02686	0.0004
298.18	0.5	0.0274	0.0004
298.18	0.55	0.02796	0.00041
298.18	0.6	0.02852	0.00041
298.18	0.65	0.02904	0.00041
298.18	0.7	0.02955	0.00041
298.18	0.75	0.03006	0.00041
298.18	0.8	0.03054	0.00041
298.18	0.85	0.03101	0.00041
298.18	0.9	0.03146	0.00042
298.18	0.95	0.03189	0.00042
298.18	1	0.0323	0.00042
308.15	0	0.0215	0.0004
308.15	0.05	0.02191	0.0004
308.15	0.1	0.02242	0.0004
308.15	0.15	0.02291	0.0004
308.15	0.2	0.02342	0.0004
308.15	0.25	0.0239	0.0004
308.15	0.3	0.02438	0.0004
308.15	0.35	0.02484	0.0004
308.15	0.4	0.02532	0.0004
308.15	0.45	0.02581	0.0004
308.15	0.5	0.02632	0.0004
308.15	0.55	0.02684	0.00041
308.15	0.6	0.02738	0.00041
308.15	0.65	0.0279	0.00041
308.15	0.7	0.0284	0.00041
308.15	0.75	0.02889	0.00041
308.15	0.8	0.02936	0.00041
308.15	0.85	0.02981	0.00041
308.15	0.9	0.03026	0.00042
308.15	0.95	0.03068	0.00042
308.15	1	0.0311	0.00042
318.15	0	0.0206	0.0004
318.15	0.05	0.02098	0.0004
318.15	0.1	0.02146	0.0004
318.15	0.15	0.02194	0.0004
318.15	0.2	0.02243	0.0004
318.15	0.25	0.0229	0.0004
318.15	0.3	0.02337	0.0004
318.15	0.35	0.02383	0.0004
318.15	0.4	0.0243	0.0004
318.15	0.45	0.02479	0.0004
318.15	0.5	0.02529	0.0004
318.15	0.55	0.0258	0.00041
318.15	0.6	0.02631	0.00041
318.15	0.65	0.02681	0.00041
318.15	0.7	0.0273	0.00041
318.15	0.75	0.02778	0.00041
318.15	0.8	0.02824	0.00041
318.15	0.85	0.0287	0.00041
318.15	0.9	0.02914	0.00041
318.15	0.95	0.02956	0.00042
318.15	1	0.03	0.00042

System: ethanol + ethyl 3-oxobutanoate; phases: Liquid
Fixed: Pressure, kPa = 100.5
Property: Refractive index (Na D-line) (Liquid); method: Standard Abbe refractometry
Temperature, K	Mole fraction of ethyl 3-oxobutanoate	Refractive index (Na D-line)	uncertainty
288.15	0	1.3633	0.0003
288.15	0.05	1.3696	0.0003
288.15	0.1	1.3751	0.0003
288.15	0.15	1.38	0.0003
288.15	0.2	1.3843	0.0003
288.15	0.25	1.3882	0.0003
288.15	0.3	1.3918	0.0003
288.15	0.35	1.3951	0.0003
288.15	0.4	1.3981	0.0003
288.15	0.45	1.4009	0.0003
288.15	0.5	1.4034	0.0003
288.15	0.55	1.4058	0.0003
288.15	0.6	1.4079	0.0003
288.15	0.65	1.41	0.0003
288.15	0.7	1.4119	0.0003
288.15	0.75	1.4137	0.0003
288.15	0.8	1.4154	0.0003
288.15	0.85	1.417	0.0003
288.15	0.9	1.4184	0.0003
288.15	0.95	1.4198	0.0004
288.15	1	1.4209	0.0004
298.18	0	1.3594	0.0003
298.18	0.05	1.3654	0.0003
298.18	0.1	1.3709	0.0003
298.18	0.15	1.3757	0.0003
298.18	0.2	1.3801	0.0003
298.18	0.25	1.384	0.0003
298.18	0.3	1.3876	0.0003
298.18	0.35	1.3908	0.0003
298.18	0.4	1.3938	0.0003
298.18	0.45	1.3965	0.0003
298.18	0.5	1.3991	0.0003
298.18	0.55	1.4014	0.0003
298.18	0.6	1.4036	0.0003
298.18	0.65	1.4056	0.0003
298.18	0.7	1.4075	0.0003
298.18	0.75	1.4093	0.0003
298.18	0.8	1.4111	0.0003
298.18	0.85	1.4126	0.0003
298.18	0.9	1.4141	0.0003
298.18	0.95	1.4154	0.0004
298.18	1	1.4166	0.0004
308.15	0	1.3553	0.0003
308.15	0.05	1.3612	0.0003
308.15	0.1	1.3666	0.0003
308.15	0.15	1.3714	0.0003
308.15	0.2	1.3758	0.0003
308.15	0.25	1.3797	0.0003
308.15	0.3	1.3833	0.0003
308.15	0.35	1.3866	0.0003
308.15	0.4	1.3896	0.0003
308.15	0.45	1.3923	0.0003
308.15	0.5	1.3949	0.0003
308.15	0.55	1.3972	0.0003
308.15	0.6	1.3994	0.0003
308.15	0.65	1.4014	0.0003
308.15	0.7	1.4033	0.0003
308.15	0.75	1.4051	0.0003
308.15	0.8	1.4069	0.0003
308.15	0.85	1.4084	0.0003
308.15	0.9	1.4099	0.0003
308.15	0.95	1.4112	0.0004
308.15	1	1.4125	0.0004
318.15	0	1.3515	0.0003
318.15	0.05	1.3572	0.0003
318.15	0.1	1.3625	0.0003
318.15	0.15	1.3672	0.0003
318.15	0.2	1.3715	0.0003
318.15	0.25	1.3755	0.0003
318.15	0.3	1.379	0.0003
318.15	0.35	1.3823	0.0003
318.15	0.4	1.3852	0.0003
318.15	0.45	1.388	0.0003
318.15	0.5	1.3905	0.0003
318.15	0.55	1.3928	0.0003
318.15	0.6	1.395	0.0003
318.15	0.65	1.397	0.0003
318.15	0.7	1.3989	0.0003
318.15	0.75	1.4007	0.0003
318.15	0.8	1.4024	0.0003
318.15	0.85	1.404	0.0003
318.15	0.9	1.4054	0.0003
318.15	0.95	1.4068	0.0004
318.15	1	1.408	0.0004

System: ethanol + ethyl 3-methylbutanoate; phases: Liquid, Air at 1 atmosphere
Property: Surface tension liquid-gas, N/m (Liquid); method: Wilhelmy plate method
Temperature, K	Mole fraction of ethyl 3-methylbutanoate	Surface tension liquid-gas, N/m	uncertainty
288.15	0	0.023	0.0004
288.15	0.05	0.02314	0.0004
288.15	0.1	0.02326	0.0004
288.15	0.15	0.02337	0.0004
288.15	0.2	0.02346	0.0004
288.15	0.25	0.02355	0.0004
288.15	0.3	0.02362	0.0004
288.15	0.35	0.02369	0.0004
288.15	0.4	0.02376	0.0004
288.15	0.45	0.02382	0.0004
288.15	0.5	0.02388	0.00041
288.15	0.55	0.02393	0.00041
288.15	0.6	0.02399	0.00041
288.15	0.65	0.02404	0.00041
288.15	0.7	0.02409	0.00041
288.15	0.75	0.02415	0.00041
288.15	0.8	0.0242	0.00041
288.15	0.85	0.02425	0.00041
288.15	0.9	0.0243	0.00042
288.15	0.95	0.02435	0.00042
288.15	1	0.0244	0.00042
298.18	0	0.0223	0.0004
298.18	0.05	0.0224	0.0004
298.18	0.1	0.0225	0.0004
298.18	0.15	0.02258	0.0004
298.18	0.2	0.02266	0.0004
298.18	0.25	0.02273	0.0004
298.18	0.3	0.02279	0.0004
298.18	0.35	0.02285	0.0004
298.18	0.4	0.02291	0.0004
298.18	0.45	0.02296	0.0004
298.18	0.5	0.023	0.00041
298.18	0.55	0.02305	0.00041
298.18	0.6	0.0231	0.00041
298.18	0.65	0.02315	0.00041
298.18	0.7	0.0232	0.00041
298.18	0.75	0.02326	0.00041
298.18	0.8	0.02331	0.00041
298.18	0.85	0.02335	0.00041
298.18	0.9	0.0234	0.00041
298.18	0.95	0.02345	0.00042
298.18	1	0.0235	0.00042
308.15	0	0.0215	0.0004
308.15	0.05	0.02157	0.0004
308.15	0.1	0.02164	0.0004
308.15	0.15	0.0217	0.0004
308.15	0.2	0.02176	0.0004
308.15	0.25	0.02181	0.0004
308.15	0.3	0.02186	0.0004
308.15	0.35	0.02191	0.0004
308.15	0.4	0.02196	0.0004
308.15	0.45	0.022	0.0004
308.15	0.55	0.02204	0.00041
308.15	0.6	0.02208	0.00041
308.15	0.65	0.02213	0.00041
308.15	0.7	0.02217	0.00041
308.15	0.75	0.02222	0.00041
308.15	0.8	0.02227	0.00041
308.15	0.85	0.02231	0.00041
308.15	0.9	0.02236	0.00041
308.15	0.95	0.02241	0.00041
308.15	1	0.02245	0.00042
318.15	0	0.0206	0.0004
318.15	0.05	0.02065	0.0004
318.15	0.1	0.02072	0.0004
318.15	0.15	0.02078	0.0004
318.15	0.2	0.02083	0.0004
318.15	0.25	0.02088	0.0004
318.15	0.3	0.02094	0.0004
318.15	0.35	0.02099	0.0004
318.15	0.4	0.02103	0.0004
318.15	0.45	0.02108	0.0004
318.15	0.5	0.02112	0.0004
318.15	0.55	0.02117	0.00041
318.15	0.6	0.02121	0.00041
318.15	0.65	0.02126	0.00041
318.15	0.7	0.0213	0.00041
318.15	0.75	0.02135	0.00041
318.15	0.8	0.0214	0.00041
318.15	0.85	0.02145	0.00041
318.15	0.9	0.0215	0.00041
318.15	0.95	0.02155	0.00041
318.15	1	0.0216	0.00041

System: ethanol + ethyl 3-methylbutanoate; phases: Liquid
Fixed: Pressure, kPa = 100.5
Property: Refractive index (Na D-line) (Liquid); method: Standard Abbe refractometry
Temperature, K	Mole fraction of ethyl 3-methylbutanoate	Refractive index (Na D-line)	uncertainty
288.15	0	1.36333	0.00031
288.15	0.05	1.3677	0.00031
288.15	0.1	1.37142	0.00031
288.15	0.15	1.37464	0.00032
288.15	0.2	1.37745	0.00032
288.15	0.25	1.37993	0.00032
288.15	0.3	1.38213	0.00032
288.15	0.35	1.3841	0.00032
288.15	0.4	1.38587	0.00033
288.15	0.45	1.38748	0.00033
288.15	0.5	1.38894	0.00033
288.15	0.55	1.39028	0.00034
288.15	0.6	1.39151	0.00034
288.15	0.65	1.39264	0.00034
288.15	0.7	1.39369	0.00035
288.15	0.75	1.39467	0.00035
288.15	0.8	1.39559	0.00035
288.15	0.85	1.39646	0.00036
288.15	0.9	1.39729	0.00036
288.15	0.95	1.39807	0.00037
288.15	1	1.3988	0.00037
298.18	0	1.35941	0.00031
298.18	0.05	1.36363	0.00031
298.18	0.1	1.36724	0.00032
298.18	0.15	1.37038	0.00032
298.18	0.2	1.37312	0.00032
298.18	0.25	1.37554	0.00032
298.18	0.3	1.37769	0.00032
298.18	0.35	1.37961	0.00032
298.18	0.4	1.38134	0.00033
298.18	0.45	1.38291	0.00033
298.18	0.5	1.38434	0.00033
298.18	0.55	1.38564	0.00034
298.18	0.6	1.38684	0.00034
298.18	0.65	1.38795	0.00034
298.18	0.7	1.38897	0.00035
298.18	0.75	1.38993	0.00035
298.18	0.8	1.39083	0.00035
298.18	0.85	1.39169	0.00036
298.18	0.9	1.3925	0.00036
298.18	0.95	1.39328	0.00037
298.18	1	1.39401	0.00037
308.15	0	1.35531	0.00031
308.15	0.05	1.35942	0.00031
308.15	0.1	1.36295	0.00032
308.15	0.15	1.36603	0.00032
308.15	0.2	1.36872	0.00032
308.15	0.25	1.3711	0.00032
308.15	0.3	1.37321	0.00032
308.15	0.35	1.3751	0.00032
308.15	0.4	1.3768	0.00033
308.15	0.45	1.37834	0.00033
308.15	0.5	1.37974	0.00033
308.15	0.55	1.38102	0.00034
308.15	0.6	1.3822	0.00034
308.15	0.65	1.38329	0.00034
308.15	0.7	1.3843	0.00035
308.15	0.75	1.38524	0.00035
308.15	0.8	1.38613	0.00035
308.15	0.85	1.38698	0.00036
308.15	0.9	1.38779	0.00036
308.15	0.95	1.38857	0.00037
308.15	1	1.38931	0.00037
318.15	0	1.35148	0.00031
318.15	0.05	1.35545	0.00031
318.15	0.1	1.35888	0.00032
318.15	0.15	1.36186	0.00032
318.15	0.2	1.36447	0.00032
318.15	0.25	1.36679	0.00032
318.15	0.3	1.36884	0.00032
318.15	0.35	1.37068	0.00032
318.15	0.4	1.37233	0.00033
318.15	0.45	1.37383	0.00033
318.15	0.5	1.37519	0.00033
318.15	0.55	1.37644	0.00034
318.15	0.6	1.37759	0.00034
318.15	0.65	1.37865	0.00034
318.15	0.7	1.37964	0.00035
318.15	0.75	1.38056	0.00035
318.15	0.8	1.38143	0.00035
318.15	0.85	1.38226	0.00036
318.15	0.9	1.38306	0.00036
318.15	0.95	1.38384	0.00037
318.15	1	1.38458	0.00037

System: ethanol + methyl benzoate; phases: Liquid, Air at 1 atmosphere
Property: Surface tension liquid-gas, N/m (Liquid); method: Wilhelmy plate method
Temperature, K	Mole fraction of methyl benzoate	Surface tension liquid-gas, N/m	uncertainty
288.15	0	0.023	0.0004
288.15	0.05	0.0238	0.0004
288.15	0.1	0.02463	0.0004
288.15	0.15	0.0254	0.0004
288.15	0.2	0.02618	0.0004
288.15	0.25	0.02692	0.0004
288.15	0.3	0.02767	0.0004
288.15	0.35	0.02837	0.0004
288.15	0.4	0.02904	0.0004
288.15	0.45	0.02969	0.0004
288.15	0.5	0.03033	0.00041
288.15	0.55	0.03097	0.00041
288.15	0.6	0.03162	0.00041
288.15	0.65	0.03229	0.00041
288.15	0.7	0.03301	0.00041
288.15	0.75	0.03378	0.00041
288.15	0.8	0.0346	0.00042
288.15	0.85	0.0356	0.00042
288.15	0.9	0.0366	0.00042
288.15	0.95	0.0376	0.00043
288.15	1	0.0386	0.00043
298.18	0	0.0223	0.0004
298.18	0.05	0.023	0.0004
298.18	0.1	0.02378	0.0004
298.18	0.15	0.02451	0.0004
298.18	0.2	0.02525	0.0004
298.18	0.25	0.02596	0.0004
298.18	0.3	0.02666	0.0004
298.18	0.35	0.0273	0.0004
298.18	0.4	0.0279	0.0004
298.18	0.45	0.02855	0.0004
298.18	0.5	0.02916	0.00041
298.18	0.55	0.02979	0.00041
298.18	0.6	0.03041	0.00041
298.18	0.65	0.03105	0.00041
298.18	0.7	0.03175	0.00041
298.18	0.75	0.0325	0.00041
298.18	0.8	0.0333	0.00042
298.18	0.85	0.0342	0.00042
298.18	0.9	0.0352	0.00042
298.18	0.95	0.0362	0.00042
298.18	1	0.0372	0.00043
308.15	0	0.0215	0.0004
308.15	0.05	0.0221	0.0004
308.15	0.1	0.02287	0.0004
308.15	0.15	0.02357	0.0004
308.15	0.2	0.02428	0.0004
308.15	0.25	0.02494	0.0004
308.15	0.3	0.02559	0.0004
308.15	0.35	0.0262	0.0004
308.15	0.4	0.0268	0.0004
308.15	0.45	0.0274	0.0004
308.15	0.5	0.028	0.00041
308.15	0.55	0.0286	0.00041
308.15	0.6	0.0292	0.00041
308.15	0.65	0.0298	0.00041
308.15	0.7	0.0305	0.00041
308.15	0.75	0.0312	0.00041
308.15	0.8	0.032	0.00041
308.15	0.85	0.0328	0.00042
308.15	0.9	0.0338	0.00042
308.15	0.95	0.0348	0.00042
308.15	1	0.0358	0.00043
318.15	0	0.0206	0.0004
318.15	0.05	0.0212	0.0004
318.15	0.1	0.0219	0.0004
318.15	0.15	0.0226	0.0004
318.15	0.2	0.0233	0.0004
318.15	0.25	0.02395	0.0004
318.15	0.3	0.0246	0.0004
318.15	0.35	0.0252	0.0004
318.15	0.4	0.0258	0.0004
318.15	0.45	0.0264	0.0004
318.15	0.5	0.027	0.0004
318.15	0.55	0.0276	0.00041
318.15	0.6	0.0282	0.00041
318.15	0.65	0.0288	0.00041
318.15	0.7	0.02946	0.00041
318.15	0.75	0.03016	0.00041
318.15	0.8	0.03092	0.00041
318.15	0.85	0.03176	0.00042
318.15	0.9	0.0327	0.00042
318.15	0.95	0.0338	0.00042
318.15	1	0.0348	0.00042

System: ethanol + methyl benzoate; phases: Liquid
Fixed: Pressure, kPa = 100.5
Property: Refractive index (Na D-line) (Liquid); method: Standard Abbe refractometry
Temperature, K	Mole fraction of methyl benzoate	Refractive index (Na D-line)	uncertainty
288.15	0	1.36333	0.00031
288.15	0.05	1.38013	0.00031
288.15	0.1	1.39497	0.00032
288.15	0.15	1.40825	0.00032
288.15	0.2	1.41993	0.00032
288.15	0.25	1.43052	0.00032
288.15	0.3	1.44018	0.00032
288.15	0.35	1.44896	0.00033
288.15	0.4	1.45703	0.00033
288.15	0.45	1.4645	0.00033
288.15	0.5	1.47142	0.00033
288.15	0.55	1.47785	0.00033
288.15	0.6	1.48384	0.00033
288.15	0.65	1.48938	0.00033
288.15	0.7	1.49451	0.00034
288.15	0.75	1.49936	0.00034
288.15	0.8	1.50381	0.00034
288.15	0.85	1.50803	0.00034
288.15	0.9	1.512	0.00035
288.15	0.95	1.51569	0.00035
288.15	1	1.51915	0.00035
298.18	0	1.35941	0.00031
298.18	0.05	1.37591	0.00031
298.18	0.1	1.39068	0.00032
298.18	0.15	1.40383	0.00032
298.18	0.2	1.41549	0.00032
298.18	0.25	1.42606	0.00032
298.18	0.3	1.4357	0.00032
298.18	0.35	1.44448	0.00033
298.18	0.4	1.45255	0.00033
298.18	0.45	1.46	0.00033
298.18	0.5	1.46691	0.00033
298.18	0.55	1.47332	0.00033
298.18	0.6	1.4793	0.00033
298.18	0.65	1.48487	0.00033
298.18	0.7	1.49	0.00034
298.18	0.75	1.49482	0.00034
298.18	0.8	1.49926	0.00034
298.18	0.85	1.50347	0.00034
298.18	0.9	1.50743	0.00035
298.18	0.95	1.51112	0.00035
298.18	1	1.51467	0.00035
308.15	0	1.35531	0.00031
308.15	0.05	1.37154	0.00031
308.15	0.1	1.38617	0.00032
308.15	0.15	1.39926	0.00032
308.15	0.2	1.41088	0.00032
308.15	0.25	1.42138	0.00032
308.15	0.3	1.43104	0.00032
308.15	0.35	1.4398	0.00033
308.15	0.4	1.44784	0.00033
308.15	0.45	1.45528	0.00033
308.15	0.5	1.4622	0.00033
308.15	0.55	1.46859	0.00033
308.15	0.6	1.47455	0.00033
308.15	0.65	1.4801	0.00033
308.15	0.7	1.4852	0.00034
308.15	0.75	1.49002	0.00034
308.15	0.8	1.49445	0.00034
308.15	0.85	1.49866	0.00034
308.15	0.9	1.5026	0.00035
308.15	0.95	1.50631	0.00035
308.15	1	1.50993	0.00035
318.15	0	1.35148	0.00031
318.15	0.05	1.36738	0.00031
318.15	0.1	1.38191	0.00032
318.15	0.15	1.39488	0.00032
318.15	0.2	1.40643	0.00032
318.15	0.25	1.41686	0.00032
318.15	0.3	1.42643	0.00032
318.15	0.35	1.43518	0.00033
318.15	0.4	1.44318	0.00033
318.15	0.45	1.45059	0.00033
318.15	0.5	1.45746	0.00033
318.15	0.55	1.46384	0.00033
318.15	0.6	1.46979	0.00033
318.15	0.65	1.47528	0.00033
318.15	0.7	1.48039	0.00034
318.15	0.75	1.48515	0.00034
318.15	0.8	1.48961	0.00034
318.15	0.85	1.49378	0.00034
318.15	0.9	1.49773	0.00035
318.15	0.95	1.50144	0.00035
318.15	1	1.50514	0.00035

System: ethanol + benzyl ethanoate; phases: Liquid, Air at 1 atmosphere
Property: Surface tension liquid-gas, N/m (Liquid); method: Wilhelmy plate method
Temperature, K	Mole fraction of benzyl ethanoate	Surface tension liquid-gas, N/m	uncertainty
288.15	0	0.023	0.0004
288.15	0.05	0.024	0.0004
288.15	0.1	0.0248	0.0004
288.15	0.15	0.0255	0.0004
288.15	0.2	0.0261	0.0004
288.15	0.25	0.0267	0.0004
288.15	0.3	0.0273	0.0004
288.15	0.35	0.028	0.0004
288.15	0.4	0.0287	0.0004
288.15	0.45	0.0294	0.0004
288.15	0.5	0.0301	0.0004
288.15	0.55	0.0308	0.0004
288.15	0.6	0.0315	0.0004
288.15	0.65	0.0322	0.0004
288.15	0.7	0.0329	0.0004
288.15	0.75	0.03362	0.0004
288.15	0.8	0.0344	0.0004
288.15	0.85	0.0352	0.00041
288.15	0.9	0.0361	0.00041
288.15	0.95	0.0369	0.00041
288.15	1	0.0377	0.00041
298.18	0	0.0223	0.0004
298.18	0.05	0.0232	0.0004
298.18	0.1	0.0239	0.0004
298.18	0.15	0.02457	0.0004
298.18	0.2	0.02518	0.0004
298.18	0.25	0.02577	0.0004
298.18	0.3	0.02636	0.0004
298.18	0.35	0.02702	0.0004
298.18	0.4	0.02769	0.0004
298.18	0.45	0.02837	0.0004
298.18	0.5	0.02902	0.0004
298.18	0.55	0.02969	0.0004
298.18	0.6	0.03036	0.0004
298.18	0.65	0.03102	0.0004
298.18	0.7	0.03168	0.0004
298.18	0.75	0.03237	0.0004
298.18	0.8	0.03308	0.0004
298.18	0.85	0.03392	0.0004
298.18	0.9	0.0348	0.00041
298.18	0.95	0.0356	0.00041
298.18	1	0.0364	0.00041
308.15	0	0.0215	0.0004
308.15	0.05	0.0223	0.0004
308.15	0.1	0.023	0.0004
308.15	0.15	0.02363	0.0004
308.15	0.2	0.02423	0.0004
308.15	0.25	0.02483	0.0004
308.15	0.3	0.02543	0.0004
308.15	0.35	0.02607	0.0004
308.15	0.4	0.02672	0.0004
308.15	0.45	0.02738	0.0004
308.15	0.5	0.02803	0.0004
308.15	0.55	0.02867	0.0004
308.15	0.6	0.0293	0.0004
308.15	0.65	0.02994	0.0004
308.15	0.7	0.03058	0.0004
308.15	0.75	0.03124	0.0004
308.15	0.8	0.03193	0.0004
308.15	0.85	0.0328	0.0004
308.15	0.9	0.0337	0.00041
308.15	0.95	0.0345	0.00041
308.15	1	0.0353	0.00041
318.15	0	0.0206	0.0004
318.15	0.05	0.0213	0.0004
318.15	0.1	0.022	0.0004
318.15	0.15	0.0226	0.0004
318.15	0.2	0.0232	0.0004
318.15	0.25	0.0238	0.0004
318.15	0.3	0.0244	0.0004
318.15	0.35	0.02503	0.0004
318.15	0.4	0.02566	0.0004
318.15	0.45	0.0263	0.0004
318.15	0.5	0.02693	0.0004
318.15	0.55	0.02756	0.0004
318.15	0.6	0.02817	0.0004
318.15	0.65	0.02878	0.0004
318.15	0.7	0.02941	0.0004
318.15	0.75	0.03006	0.0004
318.15	0.8	0.03075	0.0004
318.15	0.85	0.0316	0.0004
318.15	0.9	0.03245	0.0004
318.15	0.95	0.0333	0.00041
318.15	1	0.0341	0.00041

System: ethanol + benzyl ethanoate; phases: Liquid
Fixed: Pressure, kPa = 100.5
Property: Refractive index (Na D-line) (Liquid); method: Standard Abbe refractometry
Temperature, K	Mole fraction of benzyl ethanoate	Refractive index (Na D-line)	uncertainty
288.15	0	1.36333	0.00031
288.15	0.05	1.38022	0.00031
288.15	0.1	1.39462	0.00031
288.15	0.15	1.40725	0.00032
288.15	0.2	1.41836	0.00032
288.15	0.25	1.42813	0.00032
288.15	0.3	1.43696	0.00032
288.15	0.35	1.44489	0.00032
288.15	0.4	1.45211	0.00032
288.15	0.45	1.45868	0.00032
288.15	0.5	1.4647	0.00032
288.15	0.55	1.4702	0.00032
288.15	0.6	1.47521	0.00032
288.15	0.65	1.47987	0.00032
288.15	0.7	1.48418	0.00032
288.15	0.75	1.48819	0.00032
288.15	0.8	1.49191	0.00032
288.15	0.85	1.49539	0.00032
288.15	0.9	1.49871	0.00032
288.15	0.95	1.5017	0.00032
288.15	1	1.50439	0.00032
298.18	0	1.35941	0.00031
298.18	0.05	1.37602	0.00031
298.18	0.1	1.39033	0.00032
298.18	0.15	1.40288	0.00032
298.18	0.2	1.41395	0.00032
298.18	0.25	1.42372	0.00032
298.18	0.3	1.43255	0.00032
298.18	0.35	1.44048	0.00032
298.18	0.4	1.44767	0.00032
298.18	0.45	1.4542	0.00032
298.18	0.5	1.46016	0.00032
298.18	0.55	1.46565	0.00032
298.18	0.6	1.47065	0.00032
298.18	0.65	1.47531	0.00032
298.18	0.7	1.47958	0.00032
298.18	0.75	1.48358	0.00032
298.18	0.8	1.48729	0.00032
298.18	0.85	1.49076	0.00032
298.18	0.9	1.49408	0.00032
298.18	0.95	1.49709	0.00032
298.18	1	1.49982	0.00032
308.15	0	1.35531	0.00031
308.15	0.05	1.37164	0.00031
308.15	0.1	1.38588	0.00032
308.15	0.15	1.39843	0.00032
308.15	0.2	1.40945	0.00032
308.15	0.25	1.41929	0.00032
308.15	0.3	1.4281	0.00032
308.15	0.35	1.43604	0.00032
308.15	0.4	1.44323	0.00032
308.15	0.45	1.44974	0.00032
308.15	0.5	1.45571	0.00032
308.15	0.55	1.46119	0.00032
308.15	0.6	1.46619	0.00032
308.15	0.65	1.47082	0.00032
308.15	0.7	1.47508	0.00032
308.15	0.75	1.47907	0.00032
308.15	0.8	1.48279	0.00032
308.15	0.85	1.48626	0.00032
308.15	0.9	1.48959	0.00032
308.15	0.95	1.49262	0.00032
308.15	1	1.49539	0.00032
318.15	0	1.35148	0.00031
318.15	0.05	1.36738	0.00031
318.15	0.1	1.38161	0.00032
318.15	0.15	1.39409	0.00032
318.15	0.2	1.40506	0.00032
318.15	0.25	1.41487	0.00032
318.15	0.3	1.42364	0.00032
318.15	0.35	1.43155	0.00032
318.15	0.4	1.4387	0.00032
318.15	0.45	1.44517	0.00032
318.15	0.5	1.4511	0.00032
318.15	0.55	1.45653	0.00032
318.15	0.6	1.46154	0.00032
318.15	0.65	1.46613	0.00032
318.15	0.7	1.47036	0.00032
318.15	0.75	1.47434	0.00032
318.15	0.8	1.47804	0.00032
318.15	0.85	1.48148	0.00032
318.15	0.9	1.48481	0.00032
318.15	0.95	1.48783	0.00032
318.15	1	1.49064	0.00032

System: ethanol + ethyl 2-hydroxybenzoate; phases: Liquid, Air at 1 atmosphere
Property: Surface tension liquid-gas, N/m (Liquid); method: Wilhelmy plate method
Temperature, K	Mole fraction of ethyl 2-hydroxybenzoate	Surface tension liquid-gas, N/m	uncertainty
288.15	0	0.023	0.0004
288.15	0.05	0.024	0.0004
288.15	0.1	0.0248	0.0004
288.15	0.15	0.0255	0.0004
288.15	0.2	0.0261	0.0004
288.15	0.25	0.02665	0.0004
288.15	0.3	0.0272	0.0004
288.15	0.35	0.0277	0.0004
288.15	0.4	0.0281	0.0004
288.15	0.45	0.0286	0.0004
288.15	0.5	0.02913	0.0004
288.15	0.55	0.02971	0.0004
288.15	0.6	0.03033	0.0004
288.15	0.65	0.031	0.0004
288.15	0.7	0.0317	0.0004
288.15	0.75	0.0325	0.0004
288.15	0.8	0.0334	0.0004
288.15	0.85	0.0344	0.0004
288.15	0.9	0.0354	0.00041
288.15	0.95	0.0364	0.00041
288.15	1	0.0375	0.00041
298.18	0	0.0223	0.0004
298.18	0.05	0.02317	0.0004
298.18	0.1	0.0239	0.0004
298.18	0.15	0.02455	0.0004
298.18	0.2	0.02514	0.0004
298.18	0.25	0.02565	0.0004
298.18	0.3	0.02615	0.0004
298.18	0.35	0.02665	0.0004
298.18	0.4	0.0271	0.0004
298.18	0.45	0.02755	0.0004
298.18	0.5	0.0281	0.0004
298.18	0.55	0.02866	0.0004
298.18	0.6	0.02925	0.0004
298.18	0.65	0.0299	0.0004
298.18	0.7	0.0306	0.0004
298.18	0.75	0.03138	0.0004
298.18	0.8	0.03225	0.0004
298.18	0.85	0.03318	0.0004
298.18	0.9	0.03418	0.00041
298.18	0.95	0.03517	0.00041
298.18	1	0.0363	0.00041
308.15	0	0.0215	0.0004
308.15	0.05	0.02227	0.0004
308.15	0.1	0.02294	0.0004
308.15	0.15	0.02355	0.0004
308.15	0.2	0.02413	0.0004
308.15	0.25	0.02467	0.0004
308.15	0.3	0.02517	0.0004
308.15	0.35	0.02562	0.0004
308.15	0.4	0.02608	0.0004
308.15	0.45	0.02658	0.0004
308.15	0.5	0.02712	0.0004
308.15	0.55	0.02768	0.0004
308.15	0.6	0.02826	0.0004
308.15	0.65	0.0289	0.0004
308.15	0.7	0.02956	0.0004
308.15	0.75	0.0303	0.0004
308.15	0.8	0.03113	0.0004
308.15	0.85	0.03203	0.0004
308.15	0.9	0.03303	0.0004
308.15	0.95	0.03407	0.00041
308.15	1	0.0352	0.00041
318.15	0	0.0206	0.0004
318.15	0.05	0.0213	0.0004
318.15	0.1	0.02197	0.0004
318.15	0.15	0.02257	0.0004
318.15	0.2	0.02317	0.0004
318.15	0.25	0.0237	0.0004
318.15	0.3	0.0242	0.0004
318.15	0.35	0.02467	0.0004
318.15	0.4	0.02517	0.0004
318.15	0.45	0.0257	0.0004
318.15	0.5	0.02625	0.0004
318.15	0.55	0.0268	0.0004
318.15	0.6	0.02738	0.0004
318.15	0.65	0.028	0.0004
318.15	0.7	0.02867	0.0004
318.15	0.75	0.0294	0.0004
318.15	0.8	0.0302	0.0004
318.15	0.85	0.0311	0.0004
318.15	0.9	0.03218	0.0004
318.15	0.95	0.0332	0.00041
318.15	1	0.0344	0.00041

System: ethanol + ethyl 2-hydroxybenzoate; phases: Liquid
Fixed: Pressure, kPa = 100.5
Property: Refractive index (Na D-line) (Liquid); method: Standard Abbe refractometry
Temperature, K	Mole fraction of ethyl 2-hydroxybenzoate	Refractive index (Na D-line)	uncertainty
288.15	0	1.36333	0.00031
288.15	0.05	1.38326	0.00031
288.15	0.1	1.40028	0.00031
288.15	0.15	1.41504	0.00032
288.15	0.2	1.42788	0.00032
288.15	0.25	1.43914	0.00032
288.15	0.3	1.44918	0.00032
288.15	0.35	1.4582	0.00032
288.15	0.4	1.46635	0.00032
288.15	0.45	1.47375	0.00032
288.15	0.5	1.48051	0.00032
288.15	0.55	1.4867	0.00032
288.15	0.6	1.49239	0.00032
288.15	0.65	1.49763	0.00032
288.15	0.7	1.50246	0.00032
288.15	0.75	1.50695	0.00032
288.15	0.8	1.51112	0.00032
288.15	0.85	1.51498	0.00032
288.15	0.9	1.51852	0.00032
288.15	0.95	1.52184	0.00032
288.15	1	1.52481	0.00032
298.18	0	1.35941	0.00031
298.18	0.05	1.37908	0.00031
298.18	0.1	1.39599	0.00032
298.18	0.15	1.41072	0.00032
298.18	0.2	1.42347	0.00032
298.18	0.25	1.43468	0.00032
298.18	0.3	1.44465	0.00032
298.18	0.35	1.45364	0.00032
298.18	0.4	1.46177	0.00032
298.18	0.45	1.46918	0.00032
298.18	0.5	1.47593	0.00032
298.18	0.55	1.48212	0.00032
298.18	0.6	1.48782	0.00032
298.18	0.65	1.49304	0.00032
298.18	0.7	1.49784	0.00032
298.18	0.75	1.50232	0.00032
298.18	0.8	1.50649	0.00032
298.18	0.85	1.51035	0.00032
298.18	0.9	1.51391	0.00032
298.18	0.95	1.51723	0.00032
298.18	1	1.52022	0.00032
308.15	0	1.35531	0.00031
308.15	0.05	1.37478	0.00031
308.15	0.1	1.39159	0.00032
308.15	0.15	1.40628	0.00032
308.15	0.2	1.41902	0.00032
308.15	0.25	1.4302	0.00032
308.15	0.3	1.44012	0.00032
308.15	0.35	1.44908	0.00032
308.15	0.4	1.45719	0.00032
308.15	0.45	1.46462	0.00032
308.15	0.5	1.47139	0.00032
308.15	0.55	1.4776	0.00032
308.15	0.6	1.48328	0.00032
308.15	0.65	1.48852	0.00032
308.15	0.7	1.49331	0.00032
308.15	0.75	1.49779	0.00032
308.15	0.8	1.50196	0.00032
308.15	0.85	1.50582	0.00032
308.15	0.9	1.50938	0.00032
308.15	0.95	1.51272	0.00032
308.15	1	1.51573	0.00032
318.15	0	1.35148	0.00031
318.15	0.05	1.37068	0.00032
318.15	0.1	1.38739	0.00032
318.15	0.15	1.40202	0.00032
318.15	0.2	1.4147	0.00032
318.15	0.25	1.4258	0.00032
318.15	0.3	1.43567	0.00032
318.15	0.35	1.44456	0.00032
318.15	0.4	1.45266	0.00032
318.15	0.45	1.46008	0.00032
318.15	0.5	1.46685	0.00032
318.15	0.55	1.47306	0.00032
318.15	0.6	1.47873	0.00032
318.15	0.65	1.48397	0.00032
318.15	0.7	1.48874	0.00032
318.15	0.75	1.49321	0.00032
318.15	0.8	1.49738	0.00032
318.15	0.85	1.50123	0.00032
318.15	0.9	1.50479	0.00032
318.15	0.95	1.50814	0.00032
318.15	1	1.51116	0.00032

System: ethanol + benzyl propanoate; phases: Liquid, Air at 1 atmosphere
Property: Surface tension liquid-gas, N/m (Liquid); method: Wilhelmy plate method
Temperature, K	Mole fraction of benzyl propanoate	Surface tension liquid-gas, N/m	uncertainty
288.15	0	0.023	0.0004
288.15	0.05	0.024	0.0004
288.15	0.1	0.0248	0.0004
288.15	0.15	0.0255	0.0004
288.15	0.2	0.02613	0.0004
288.15	0.25	0.0267	0.0004
288.15	0.3	0.02723	0.0004
288.15	0.35	0.02776	0.0004
288.15	0.4	0.0283	0.0004
288.15	0.45	0.02885	0.0004
288.15	0.5	0.0294	0.0004
288.15	0.55	0.02995	0.0004
288.15	0.6	0.0305	0.0004
288.15	0.65	0.03106	0.00041
288.15	0.7	0.03162	0.00041
288.15	0.75	0.03223	0.00041
288.15	0.8	0.03288	0.00041
288.15	0.85	0.0337	0.00041
288.15	0.9	0.0345	0.00041
288.15	0.95	0.0352	0.00041
288.15	1	0.036	0.00041
298.18	0	0.0223	0.0004
298.18	0.05	0.0232	0.0004
298.18	0.1	0.024	0.0004
298.18	0.15	0.02464	0.0004
298.18	0.2	0.02525	0.0004
298.18	0.25	0.02578	0.0004
298.18	0.3	0.0263	0.0004
298.18	0.35	0.0268	0.0004
298.18	0.4	0.02731	0.0004
298.18	0.45	0.02784	0.0004
298.18	0.5	0.02836	0.0004
298.18	0.55	0.02889	0.0004
298.18	0.6	0.02943	0.0004
298.18	0.65	0.02997	0.00041
298.18	0.7	0.03052	0.00041
298.18	0.75	0.0311	0.00041
298.18	0.8	0.0317	0.00041
298.18	0.85	0.0325	0.00041
298.18	0.9	0.0333	0.00041
298.18	0.95	0.034	0.00041
298.18	1	0.0348	0.00041
308.15	0	0.0215	0.0004
308.15	0.05	0.0223	0.0004
308.15	0.1	0.0231	0.0004
308.15	0.15	0.0237	0.0004
308.15	0.2	0.0243	0.0004
308.15	0.25	0.02482	0.0004
308.15	0.3	0.02532	0.0004
308.15	0.35	0.0258	0.0004
308.15	0.4	0.0263	0.0004
308.15	0.45	0.02682	0.0004
308.15	0.5	0.02733	0.0004
308.15	0.55	0.02785	0.0004
308.15	0.6	0.02837	0.0004
308.15	0.65	0.02888	0.0004
308.15	0.7	0.0294	0.00041
308.15	0.75	0.02996	0.00041
308.15	0.8	0.03055	0.00041
308.15	0.85	0.0313	0.00041
308.15	0.9	0.0321	0.00041
308.15	0.95	0.0328	0.00041
308.15	1	0.0336	0.00041
318.15	0	0.0206	0.0004
318.15	0.05	0.02134	0.0004
318.15	0.1	0.0221	0.0004
318.15	0.15	0.0227	0.0004
318.15	0.2	0.0233	0.0004
318.15	0.25	0.0238	0.0004
318.15	0.3	0.0243	0.0004
318.15	0.35	0.02478	0.0004
318.15	0.4	0.02528	0.0004
318.15	0.45	0.02578	0.0004
318.15	0.5	0.02628	0.0004
318.15	0.55	0.02678	0.0004
318.15	0.6	0.02728	0.0004
318.15	0.65	0.02778	0.0004
318.15	0.7	0.0283	0.00041
318.15	0.75	0.02883	0.00041
318.15	0.8	0.0294	0.00041
318.15	0.85	0.0301	0.00041
318.15	0.9	0.0309	0.00041
318.15	0.95	0.0316	0.00041
318.15	1	0.0324	0.00041

System: ethanol + benzyl propanoate; phases: Liquid
Fixed: Pressure, kPa = 100.5
Property: Refractive index (Na D-line) (Liquid); method: Standard Abbe refractometry
Temperature, K	Mole fraction of benzyl propanoate	Refractive index (Na D-line)	uncertainty
288.15	0	1.36333	0.00031
288.15	0.05	1.38108	0.00031
288.15	0.1	1.39613	0.00031
288.15	0.15	1.40891	0.00032
288.15	0.2	1.42001	0.00032
288.15	0.25	1.42966	0.00032
288.15	0.3	1.43817	0.00032
288.15	0.35	1.44572	0.00032
288.15	0.4	1.45248	0.00032
288.15	0.45	1.45858	0.00032
288.15	0.5	1.46414	0.00032
288.15	0.55	1.46918	0.00032
288.15	0.6	1.47384	0.00033
288.15	0.65	1.47807	0.00033
288.15	0.7	1.48193	0.00033
288.15	0.75	1.48549	0.00033
288.15	0.8	1.48877	0.00033
288.15	0.85	1.49183	0.00033
288.15	0.9	1.49464	0.00033
288.15	0.95	1.49721	0.00033
288.15	1	1.4995	0.00034
298.18	0	1.35941	0.00031
298.18	0.05	1.37691	0.00031
298.18	0.1	1.39185	0.00032
298.18	0.15	1.40454	0.00032
298.18	0.2	1.41559	0.00032
298.18	0.25	1.42524	0.00032
298.18	0.3	1.43375	0.00032
298.18	0.35	1.44128	0.00032
298.18	0.4	1.44801	0.00032
298.18	0.45	1.45408	0.00032
298.18	0.5	1.45962	0.00033
298.18	0.55	1.46464	0.00032
298.18	0.6	1.46929	0.00033
298.18	0.65	1.47352	0.00033
298.18	0.7	1.47737	0.00033
298.18	0.75	1.48092	0.00033
298.18	0.8	1.48419	0.00033
298.18	0.85	1.48725	0.00033
298.18	0.9	1.49006	0.00033
298.18	0.95	1.49265	0.00033
298.18	1	1.49498	0.00034
308.15	0	1.35531	0.00031
308.15	0.05	1.37266	0.00031
308.15	0.1	1.38756	0.00032
308.15	0.15	1.4002	0.00032
308.15	0.2	1.41123	0.00032
308.15	0.25	1.42091	0.00032
308.15	0.3	1.42944	0.00032
308.15	0.35	1.43696	0.00032
308.15	0.4	1.4437	0.00032
308.15	0.45	1.44977	0.00032
308.15	0.5	1.4553	0.00033
308.15	0.55	1.46031	0.00032
308.15	0.6	1.46494	0.00033
308.15	0.65	1.46917	0.00033
308.15	0.7	1.47302	0.00033
308.15	0.75	1.47658	0.00033
308.15	0.8	1.47986	0.00033
308.15	0.85	1.48292	0.00033
308.15	0.9	1.48574	0.00033
308.15	0.95	1.48834	0.00033
308.15	1	1.49074	0.00034
318.15	0	1.35148	0.00031
318.15	0.05	1.36853	0.00032
318.15	0.1	1.38322	0.00032
318.15	0.15	1.39583	0.00032
318.15	0.2	1.40687	0.00032
318.15	0.25	1.41651	0.00032
318.15	0.3	1.425	0.00032
318.15	0.35	1.4325	0.00032
318.15	0.4	1.43922	0.00032
318.15	0.45	1.44524	0.00032
318.15	0.5	1.45072	0.00033
318.15	0.55	1.45569	0.00033
318.15	0.6	1.46029	0.00033
318.15	0.65	1.46451	0.00033
318.15	0.7	1.46833	0.00033
318.15	0.75	1.47188	0.00033
318.15	0.8	1.47516	0.00033
318.15	0.85	1.47824	0.00033
318.15	0.9	1.48106	0.00033
318.15	0.95	1.48366	0.00033
318.15	1	1.48611	0.00034
