Measured thermophysical data. Vapor-Liquid Equilibrium for Carbon Dioxide + Isopropyl, Isobutyl, and Isoamyl Acetates
Source: J. Chem. Eng. Data, 2007, 10.1021/je060321b
Compound 1: carbon dioxide, CO2, InChI=1S/CO2/c2-1-3
Compound 2: 1-methylethyl ethanoate, C5H10O2, InChI=1S/C5H10O2/c1-4(2)7-5(3)6/h4H,1-3H3
Compound 3: 2-methylpropyl ethanoate, C6H12O2, InChI=1S/C6H12O2/c1-5(2)4-8-6(3)7/h5H,4H2,1-3H3
Compound 4: 3-methylbutyl ethanoate, C7H14O2, InChI=1S/C7H14O2/c1-6(2)4-5-9-7(3)8/h6H,4-5H2,1-3H3
Compound 5: toluene, C7H8, InChI=1S/C7H8/c1-7-5-3-2-4-6-7/h2-6H,1H3

System: toluene + carbon dioxide; phases: Liquid, Gas
Fixed: Temperature, K = 323.2
Property: Vapor or sublimation pressure, kPa (Liquid); method: Closed cell (Static) method
Mole fraction of carbon dioxide	Vapor or sublimation pressure, kPa	uncertainty
0.133	1870	190
0.216	2870	220
0.247	3450	240
0.3	4250	270
0.321	4270	270
0.387	4940	300
0.491	5800	330
0.567	6620	370
0.736	7990	430
0.892	8720	470

System: toluene + carbon dioxide; phases: Gas, Liquid
Fixed: Temperature, K = 323.2
Property: Mole fraction of carbon dioxide (Gas); method: Chromatography
Mole fraction of carbon dioxide	Mole fraction of carbon dioxide	uncertainty
0.133	0.986	0.004
0.216	0.991	0.004
0.247	0.992	0.004
0.3	0.992	0.004
0.321	0.992	0.004
0.387	0.991	0.004
0.491	0.989	0.004
0.567	0.986	0.004
0.736	0.983	0.004
0.892	0.982	0.004

System: 1-methylethyl ethanoate + carbon dioxide; phases: Liquid, Gas
Property: Vapor or sublimation pressure, kPa (Liquid); method: Closed cell (Static) method
Mole fraction of carbon dioxide	Temperature, K	Vapor or sublimation pressure, kPa	uncertainty
0.258	323.2	1050	160
0.354	323.2	1540	170
0.424	313.2	1650	170
0.435	333.2	2390	160
0.491	333.2	2810	170
0.502	313.2	2160	170
0.509	333.2	2940	170
0.516	323.2	2560	170
0.576	333.2	3520	170
0.58	323.2	3040	170
0.596	333.2	3700	170
0.607	313.2	2730	170
0.635	313.2	2940	170
0.67	333.2	4520	190
0.703	323.2	4280	170
0.718	323.2	4420	190
0.755	333.2	5780	200
0.771	313.2	4320	180
0.778	313.2	4380	180
0.779	323.2	5220	190
0.795	333.2	6420	200
0.805	333.2	6560	200
0.834	323.2	6070	200
0.859	323.2	6520	200
0.872	313.2	5710	210
0.883	313.2	5910	210
0.914	333.2	8710	220
0.918	323.2	7560	210
0.934	313.2	6650	210
0.984	313.2	7250	200

System: 1-methylethyl ethanoate + carbon dioxide; phases: Gas, Liquid
Property: Mole fraction of carbon dioxide (Gas); method: Chromatography
Mole fraction of carbon dioxide	Temperature, K	Mole fraction of carbon dioxide	uncertainty
0.258	323.2	0.98	0.004
0.354	323.2	0.985	0.004
0.424	313.2	0.983	0.004
0.435	333.2	0.989	0.004
0.491	333.2	0.99	0.004
0.502	313.2	0.991	0.004
0.509	333.2	0.99	0.004
0.516	323.2	0.991	0.004
0.576	333.2	0.988	0.004
0.58	323.2	0.993	0.004
0.596	333.2	0.987	0.004
0.607	313.2	0.995	0.004
0.635	313.2	0.996	0.004
0.67	333.2	0.983	0.004
0.703	323.2	0.995	0.004
0.718	323.2	0.995	0.004
0.755	333.2	0.979	0.004
0.771	313.2	0.997	0.003
0.778	313.2	0.997	0.003
0.779	323.2	0.995	0.004
0.795	333.2	0.983	0.004
0.805	333.2	0.985	0.004
0.834	323.2	0.995	0.004
0.859	323.2	0.995	0.004
0.872	313.2	0.997	0.003
0.883	313.2	0.997	0.003
0.914	333.2	0.999	0.001
0.918	323.2	0.997	0.003
0.934	313.2	0.997	0.003
0.984	313.2	0.996	0.004

System: 2-methylpropyl ethanoate + carbon dioxide; phases: Liquid, Gas
Property: Vapor or sublimation pressure, kPa (Liquid); method: Closed cell (Static) method
Mole fraction of carbon dioxide	Temperature, K	Vapor or sublimation pressure, kPa	uncertainty
0.202	333.2	1120	160
0.255	333.2	1460	160
0.292	313.2	1300	160
0.328	323.2	1770	160
0.332	323.2	1790	160
0.341	313.2	1570	160
0.35	333.2	2150	170
0.429	323.2	2410	170
0.471	313.2	2360	170
0.481	333.2	3250	170
0.495	323.2	2880	170
0.509	323.2	3000	170
0.513	333.2	3530	170
0.546	313.2	2890	170
0.552	333.2	3910	170
0.622	333.2	4660	180
0.663	323.2	4440	180
0.664	323.2	4430	180
0.707	313.2	4230	180
0.731	333.2	6060	190
0.738	313.2	4540	190
0.759	333.2	6480	200
0.777	323.2	5820	190
0.869	313.2	6100	210
0.87	313.2	6120	210
0.884	333.2	8530	200
0.912	323.2	7930	210
0.914	313.2	6770	210
0.934	323.2	8270	210
0.962	313.2	7570	210

System: 2-methylpropyl ethanoate + carbon dioxide; phases: Gas, Liquid
Property: Mole fraction of carbon dioxide (Gas); method: Chromatography
Mole fraction of carbon dioxide	Temperature, K	Mole fraction of carbon dioxide	uncertainty
0.202	333.2	0.989	0.004
0.255	333.2	0.989	0.004
0.292	313.2	0.99	0.004
0.328	323.2	0.995	0.004
0.332	323.2	0.994	0.004
0.341	313.2	0.992	0.004
0.35	333.2	0.989	0.004
0.429	323.2	0.993	0.004
0.471	313.2	0.996	0.004
0.481	333.2	0.988	0.004
0.495	323.2	0.99	0.004
0.509	323.2	0.989	0.004
0.513	333.2	0.985	0.004
0.546	313.2	0.996	0.004
0.552	333.2	0.991	0.004
0.622	333.2	0.99	0.004
0.663	323.2	0.994	0.004
0.664	323.2	0.995	0.004
0.707	313.2	0.994	0.004
0.731	333.2	0.994	0.004
0.738	313.2	0.995	0.004
0.759	333.2	0.995	0.004
0.777	323.2	1	0.001
0.869	313.2	0.996	0.004
0.87	313.2	0.998	0.002
0.884	333.2	1	0.001
0.912	323.2	0.993	0.004
0.914	313.2	0.997	0.003
0.934	323.2	0.988	0.004
0.962	313.2	1	0.001

System: 3-methylbutyl ethanoate + carbon dioxide; phases: Liquid, Gas
Property: Vapor or sublimation pressure, kPa (Liquid); method: Closed cell (Static) method
Mole fraction of carbon dioxide	Temperature, K	Vapor or sublimation pressure, kPa	uncertainty
0.203	333.2	1510	170
0.278	333.2	2070	170
0.301	323.2	1910	160
0.311	313.2	1740	160
0.329	313.2	1870	160
0.337	323.2	2170	170
0.379	333.2	2880	170
0.481	333.2	3750	170
0.49	313.2	3080	170
0.494	323.2	3450	170
0.515	333.2	4160	170
0.524	323.2	3690	170
0.527	313.2	3380	170
0.564	333.2	4420	170
0.6	333.2	4910	180
0.627	333.2	5250	170
0.63	313.2	4200	180
0.645	323.2	5040	180
0.646	323.2	4980	180
0.707	313.2	4850	190
0.739	323.2	6110	180
0.778	333.2	7170	190
0.784	313.2	5650	200
0.805	323.2	6980	260
0.811	323.2	7130	260
0.814	313.2	5940	210
0.865	333.2	8880	200
0.876	313.2	6670	220
0.883	323.2	8310	210
0.94	313.2	7690	230

System: 3-methylbutyl ethanoate + carbon dioxide; phases: Gas, Liquid
Property: Mole fraction of carbon dioxide (Gas); method: Chromatography
Mole fraction of carbon dioxide	Temperature, K	Mole fraction of carbon dioxide	uncertainty
0.203	333.2	0.991	0.004
0.278	333.2	0.99	0.004
0.301	323.2	0.995	0.004
0.311	313.2	0.994	0.004
0.329	313.2	0.995	0.004
0.337	323.2	0.995	0.004
0.379	333.2	0.994	0.004
0.481	333.2	0.987	0.004
0.49	313.2	0.998	0.002
0.494	323.2	0.997	0.003
0.515	333.2	0.993	0.004
0.524	323.2	0.996	0.004
0.527	313.2	0.998	0.002
0.564	333.2	0.994	0.004
0.6	333.2	0.997	0.003
0.627	333.2	0.995	0.004
0.63	313.2	0.999	0.001
0.645	323.2	0.996	0.004
0.646	323.2	0.994	0.004
0.707	313.2	0.999	0.001
0.739	323.2	0.998	0.002
0.778	333.2	1	0.001
0.784	313.2	0.999	0.001
0.805	323.2	0.997	0.003
0.811	323.2	0.997	0.003
0.814	313.2	0.999	0.001
0.865	333.2	0.998	0.002
0.876	313.2	0.998	0.002
0.883	323.2	1	0.001
0.94	313.2	0.997	0.003
