Measured thermophysical data. Speeds of Sound, Densities, Isobaric Thermal Expansion, Compressibilities, and Internal Pressures of Heptan-1-ol, Octan-1-ol, Nonan-1-ol, and Decan-1-ol at Temperatures from (293 to 318) K and Pressures up to 100 MPa
Source: J. Chem. Eng. Data, 2007, 10.1021/je0604378
Compound 1: heptan-1-ol, C7H16O, InChI=1S/C7H16O/c1-2-3-4-5-6-7-8/h8H,2-7H2,1H3
Compound 2: octan-1-ol, C8H18O, InChI=1S/C8H18O/c1-2-3-4-5-6-7-8-9/h9H,2-8H2,1H3
Compound 3: nonan-1-ol, C9H20O, InChI=1S/C9H20O/c1-2-3-4-5-6-7-8-9-10/h10H,2-9H2,1H3
Compound 4: decan-1-ol, C10H22O, InChI=1S/C10H22O/c1-2-3-4-5-6-7-8-9-10-11/h11H,2-10H2,1H3

System: heptan-1-ol; phases: Liquid
Fixed: Pressure, kPa = 101.325
Property: Mass density, kg/m3 (Liquid); method: VIBTUB:UFactor:8
Temperature, K	Mass density, kg/m3	uncertainty
293.151	822.297	0.949
298.15	818.796	0.959
303.152	815.269	0.969
308.15	811.724	0.98
313.152	808.158	0.99
318.151	804.546	1.001

System: heptan-1-ol; phases: Liquid
Property: Speed of sound, m/s (Liquid); method: Pulse-echo method
Temperature, K	Pressure, kPa	Speed of sound, m/s	uncertainty
292.76	75990	1654.15	2.21
292.77	30390	1487.31	1.75
292.77	45590	1546.94	1.83
292.77	60790	1602.64	2.13
292.77	91180	1701.99	2.29
292.77	101320	1732.68	2.34
292.78	15200	1421.66	1.68
292.89	100	1345.37	1.47
298.06	15200	1404.93	1.68
298.06	30390	1471.77	1.75
298.06	45590	1532.3	1.82
298.06	60790	1588.18	2.12
298.06	75990	1640.4	2.2
298.06	91180	1688.89	2.28
298.06	101320	1719.64	2.33
298.17	100	1327.21	1.46
302.94	15200	1389.45	1.67
302.94	30390	1457.34	1.74
302.94	45590	1518.74	1.81
302.94	60790	1575.32	2.11
302.94	91180	1676.97	2.27
302.94	101320	1708	2.32
302.95	75990	1628	2.19
303.14	100	1310.24	1.45
307.93	60790	1561.9	2.1
307.93	91180	1664.79	2.26
307.94	15200	1373.96	1.66
307.94	30390	1442.79	1.73
307.94	45590	1505.03	1.81
307.94	75990	1615.55	2.19
307.94	101320	1695.96	2.32
308.12	100	1293.2	1.44
312.9	30390	1428.71	1.72
312.9	45590	1491.58	1.8
312.9	60790	1549.07	2.09
312.9	75990	1603.13	2.18
312.9	91180	1653.05	2.26
312.91	15200	1358.87	1.65
312.91	101320	1684.72	2.31
313.09	100	1276.31	1.43
318.29	30390	1413.6	1.72
318.29	45590	1477.46	1.8
318.29	60790	1535.46	2.09
318.29	75990	1590	2.17
318.29	91180	1640.62	2.25
318.29	101320	1672.37	2.3
318.3	15200	1342.76	1.65
318.37	100	1258.57	1.42

System: octan-1-ol; phases: Liquid
Fixed: Pressure, kPa = 101.325
Property: Mass density, kg/m3 (Liquid); method: VIBTUB:UFactor:8
Temperature, K	Mass density, kg/m3	uncertainty
293.151	825.048	0.941
298.148	821.636	0.951
303.151	818.173	0.961
308.149	814.675	0.971
313.149	811.171	0.982
318.149	807.654	0.992

System: octan-1-ol; phases: Liquid
Property: Speed of sound, m/s (Liquid); method: Pulse-echo method
Temperature, K	Pressure, kPa	Speed of sound, m/s	uncertainty
292.77	15230	1440.32	1.69
292.77	30430	1505.21	1.76
292.77	76010	1670.06	2.22
292.78	60800	1619.26	2.14
292.79	91200	1717.8	2.31
292.83	45610	1564.06	1.84
292.83	96120	1732.99	2.33
292.92	100	1365.25	1.48
298.07	76040	1656.52	2.21
298.07	91190	1703.92	2.29
298.07	97840	1724.34	2.33
298.09	45610	1548.8	1.83
298.09	60840	1604.63	2.14
298.13	30410	1488.81	1.76
298.19	15200	1422.59	1.69
298.2	100	1347.13	1.47
303.15	76000	1642.79	2.2
303.16	91200	1691.22	2.28
303.18	100	1330.19	1.46
303.2	101340	1722.27	2.34
303.26	60820	1590.15	2.13
303.27	15200	1406.24	1.68
303.27	45600	1533.86	1.82
303.28	30410	1473.29	1.75
308.12	91200	1679.2	2.27
308.12	101320	1710.26	2.33
308.16	100	1313.3	1.45
308.16	91210	1679.14	2.27
308.17	30400	1458.76	1.74
308.17	76020	1629.97	2.2
308.18	45600	1520.26	1.82
308.18	60790	1576.82	2.12
308.19	15210	1390.7	1.67
313.15	100	1296.46	1.44
313.22	91200	1666.84	2.27
313.22	101340	1697.76	2.32
313.23	76000	1616.59	2.19
313.26	15200	1375.07	1.66
313.26	30390	1443.89	1.73
313.26	45590	1506.12	1.81
313.28	60790	1563.47	2.11
318.33	100	1279.15	1.43
318.82	45600	1491.03	1.81
318.82	60790	1549.17	2.1
318.82	75990	1603.39	2.18
318.82	101330	1684.88	2.3
318.83	15200	1357.83	1.66
318.83	91180	1653.69	2.26
318.84	30390	1427.84	1.73

System: nonan-1-ol; phases: Liquid
Fixed: Pressure, kPa = 101.325
Property: Mass density, kg/m3 (Liquid); method: VIBTUB:UFactor:8
Temperature, K	Mass density, kg/m3	uncertainty
293.155	827.66	0.933
298.155	824.239	0.943
303.156	820.8	0.954
308.155	817.345	0.964
313.153	813.868	0.974
318.15	810.376	0.984

System: nonan-1-ol; phases: Liquid
Property: Speed of sound, m/s (Liquid); method: Pulse-echo method
Temperature, K	Pressure, kPa	Speed of sound, m/s	uncertainty
292.86	45590	1579.55	1.85
292.86	91180	1731.84	2.31
292.86	101320	1762.05	2.36
292.87	15200	1456.67	1.7
292.87	30390	1520.79	1.77
292.87	60790	1633.97	2.16
292.87	75990	1684.39	2.23
292.88	100	1382.77	1.48
297.95	60790	1619.98	2.15
297.95	91180	1718.71	2.3
297.95	101320	1749.18	2.35
297.96	15200	1440.24	1.7
297.96	30390	1505.39	1.77
297.96	45590	1564.54	1.84
297.96	75990	1670.69	2.22
298.18	100	1364.56	1.48
302.93	45590	1550.12	1.83
302.93	60790	1606.05	2.14
302.93	75990	1657.58	2.21
302.93	91180	1705.79	2.29
302.93	101320	1736.67	2.35
302.94	15200	1424.28	1.69
302.94	30390	1490.24	1.76
303.16	100	1347.52	1.47
307.91	30390	1475.46	1.75
307.91	45590	1535.97	1.83
307.91	60790	1592.39	2.13
307.92	15200	1408.48	1.68
307.92	75990	1644.67	2.21
307.92	91180	1693.2	2.28
307.92	101320	1724.32	2.34
308.14	100	1330.57	1.46
312.91	15200	1392.75	1.67
312.91	30390	1460.82	1.74
312.91	45590	1522.18	1.82
312.91	60790	1578.93	2.12
312.91	75990	1631.98	2.2
312.91	91180	1681.12	2.28
312.91	101320	1712.28	2.33
313.11	100	1313.75	1.45
318.29	100	1296.33	1.44
318.38	45590	1507.34	1.81
318.38	60790	1564.64	2.11
318.38	75990	1618.27	2.19
318.38	91180	1667.82	2.27
318.38	101320	1699.14	2.32
318.39	15200	1375.92	1.67
318.39	30390	1444.81	1.74
318.39	45590	1507.26	1.81
318.39	91180	1667.79	2.27

System: decan-1-ol; phases: Liquid
Fixed: Pressure, kPa = 101.325
Property: Mass density, kg/m3 (Liquid); method: VIBTUB:UFactor:8
Temperature, K	Mass density, kg/m3	uncertainty
293.15	829.758	0.927
298.15	826.37	0.937
303.15	822.95	0.947
308.15	819.57	0.957
313.15	816.12	0.968
318.15	812.634	0.978

System: decan-1-ol; phases: Liquid
Property: Speed of sound, m/s (Liquid); method: Pulse-echo method
Temperature, K	Pressure, kPa	Speed of sound, m/s	uncertainty
292.86	60790	1646.34	2.18
292.9	30390	1533.84	1.78
292.91	15200	1470.57	1.71
292.96	45590	1592.01	1.86
293.1	100	1397.23	1.49
297.95	15200	1453.77	1.71
297.95	66240	1649.8	2.18
297.96	30390	1518	1.78
297.96	60790	1631.39	2.16
297.96	69300	1660.02	2.2
297.98	45590	1576.76	1.85
297.99	71850	1668.22	2.21
297.99	73520	1673.62	2.22
297.99	74700	1677.61	2.23
298	75990	1681.72	2.23
298.07	100	1379.96	1.48
302.92	15200	1436.75	1.7
303.02	60790	1616.95	2.15
303.03	66240	1635.74	2.18
303.03	71560	1653.45	2.2
303.04	100	1362.82	1.47
303.04	73600	1660.21	2.22
303.05	69230	1645.65	2.19
303.08	30390	1501.48	1.77
303.09	75990	1667.77	2.21
303.11	45590	1560.98	1.84
303.15	74790	1664.07	2.2
307.92	75990	1655.12	2.21
307.93	74720	1650.91	2.21
307.94	73310	1646.24	2.2
307.95	65860	1620.93	2.17
307.96	60790	1603.08	2.14
307.96	68850	1631.26	2.18
307.96	71380	1639.82	2.19
307.97	30390	1486.61	1.76
307.98	45590	1546.89	1.83
308.04	100	1345.82	1.47
308.09	15200	1420.03	1.69
313	60790	1589.39	2.13
313	65980	1607.83	2.15
313	69200	1618.9	2.17
313.01	100	1329.03	1.46
313.01	45590	1532.53	1.82
313.03	30390	1471.9	1.75
313.03	72900	1631.48	2.19
313.04	75990	1641.73	2.21
313.06	15200	1404.47	1.68
318.18	100	1311.69	1.45
318.36	15200	1387.67	1.68
318.4	65950	1593.73	2.14
318.41	60790	1575.13	2.12
318.43	72660	1617.01	2.17
318.43	73870	1621.06	2.18
318.43	75990	1628.22	2.2
318.44	30390	1455.97	1.75
318.44	45590	1517.7	1.82
318.45	30390	1455.89	1.75
