Measured thermophysical data. Mutual Coexistence Curve Measurement of Aqueous Biphasic Systems Composed of [bmim][BF4] and Glycine, L-Serine, and L-Proline, Respectively
Source: J. Chem. Eng. Data, 2007, 10.1021/je0601053
Compound 1: 1-butyl-3-methylimidazolium tetrafluoroborate, C8H15BF4N2, InChI=1S/C8H15N2.BF4/c1-3-4-5-10-7-6-9(2)8-10;2-1(3,4)5/h6-8H,3-5H2,1-2H3;/q+1;-1
Compound 2: 2-aminoacetic acid, C2H5NO2, InChI=1S/C2H5NO2/c3-1-2(4)5/h1,3H2,(H,4,5)
Compound 3: L-serine, C3H7NO3, InChI=1S/C3H7NO3/c4-2(1-5)3(6)7/h2,5H,1,4H2,(H,6,7)/t2-/m0/s1
Compound 4: L-proline, C5H9NO2, InChI=1S/C5H9NO2/c7-5(8)4-2-1-3-6-4/h4,6H,1-3H2,(H,7,8)/t4-/m0/s1
Compound 5: water, H2O, InChI=1S/H2O/h1H2, purity 99%

System: 2-aminoacetic acid + water + 1-butyl-3-methylimidazolium tetrafluoroborate; phases: Liquid mixture 1, Liquid mixture 2
Fixed: Pressure, kPa = 101
Property: Mole fraction of 1-butyl-3-methylimidazolium tetrafluoroborate (Liquid mixture 1); method: Titration method
Temperature, K	Mole fraction of 2-aminoacetic acid	Mole fraction of 1-butyl-3-methylimidazolium tetrafluoroborate	uncertainty
298.15	0.009	0.6328	0.0226
298.15	0.0156	0.5375	0.0239
298.15	0.025	0.4182	0.0233
298.15	0.0291	0.3886	0.0229
298.15	0.0462	0.2648	0.0214
298.15	0.0717	0.2118	0.0209
298.15	0.1132	0.135	0.0204
298.15	0.1469	0.1223	0.0203
298.15	0.1776	0.0951	0.0202
308.15	0.0066	0.7275	0.0215
308.15	0.0119	0.6466	0.0224
308.15	0.0187	0.5658	0.0235
308.15	0.0216	0.5468	0.0238
308.15	0.0345	0.4228	0.0233
308.15	0.0654	0.2808	0.0215
308.15	0.1081	0.1655	0.0206
308.15	0.1472	0.1401	0.0204
308.15	0.1655	0.1154	0.0203
318.15	0.0099	0.7059	0.0217
318.15	0.0162	0.6231	0.0227
318.15	0.0186	0.6098	0.0229
318.15	0.0337	0.4848	0.0243
318.15	0.0583	0.359	0.0225
318.15	0.0986	0.2439	0.0212
318.15	0.1377	0.1738	0.0206
318.15	0.1722	0.1392	0.0204

System: L-serine + water + 1-butyl-3-methylimidazolium tetrafluoroborate; phases: Liquid mixture 1, Liquid mixture 2
Fixed: Pressure, kPa = 101
Property: Mole fraction of 1-butyl-3-methylimidazolium tetrafluoroborate (Liquid mixture 1); method: Titration method
Temperature, K	Mole fraction of L-serine	Mole fraction of 1-butyl-3-methylimidazolium tetrafluoroborate	uncertainty
298.15	0.0067	0.7235	0.0215
298.15	0.0143	0.5771	0.0233
298.15	0.0178	0.538	0.0239
298.15	0.0214	0.5035	0.0245
298.15	0.0258	0.4592	0.0239
298.15	0.0368	0.3645	0.0225
298.15	0.0653	0.2815	0.0215
298.15	0.1088	0.1662	0.0205
298.15	0.1716	0.0959	0.0202
298.15	0.2092	0.0865	0.0202
298.15	0.2391	0.0779	0.0201
308.15	0.0112	0.6675	0.0221
308.15	0.0138	0.641	0.0224
308.15	0.017	0.6063	0.0229
308.15	0.0203	0.5727	0.0234
308.15	0.0403	0.4316	0.0235
308.15	0.0615	0.324	0.022
308.15	0.1019	0.2187	0.021
308.15	0.1396	0.1624	0.0205
308.15	0.1663	0.1243	0.0203
308.15	0.2082	0.0965	0.0202
308.15	0.237	0.0861	0.0201
318.15	0.0114	0.703	0.0217
318.15	0.0142	0.6708	0.0221
318.15	0.0172	0.6388	0.0225
318.15	0.0276	0.5446	0.0238
318.15	0.0515	0.4339	0.0235
318.15	0.0941	0.2783	0.0215
318.15	0.134	0.1961	0.0208
318.15	0.172	0.1383	0.0204
318.15	0.2026	0.1188	0.0203
318.15	0.235	0.0972	0.0202

System: L-proline + water + 1-butyl-3-methylimidazolium tetrafluoroborate; phases: Liquid mixture 1, Liquid mixture 2
Fixed: Temperature, K = 298.15
Fixed: Pressure, kPa = 101
Property: Mole fraction of 1-butyl-3-methylimidazolium tetrafluoroborate (Liquid mixture 1); method: Titration method
Mole fraction of L-proline	Mole fraction of 1-butyl-3-methylimidazolium tetrafluoroborate	uncertainty
0.027	0.75	0.0212
0.0366	0.6599	0.0222
0.0575	0.5595	0.0236
0.1159	0.3832	0.0227
0.1699	0.2842	0.0216
0.2248	0.2173	0.0209
0.307	0.175	0.0206
0.3933	0.1349	0.0204
