Measured thermophysical data. Binary Mutual Diffusion Coefficients of Aqueous Solutions of a-Cyclodextrin at Temperatures from 298.15 to 312.15 K
Source: J. Chem. Eng. Data, 2006, 10.1021/je060092t
Compound 1: D-sucrose, C12H22O11, InChI=1S/C12H22O11/c13-1-4-6(16)8(18)9(19)11(21-4)23-12(3-15)10(20)7(17)5(2-14)22-12/h4-11,13-20H,1-3H2/t4-,5-,6-,7-,8+,9-,10+,11-,12+/m1/s1
Compound 2: potassium chloride, ClK, InChI=1S/ClH.K/h1H;/q;+1/p-1
Compound 3: water, H2O, InChI=1S/H2O/h1H2
Compound 4: .beta.-cyclodextrin, C42H70O35, InChI=1S/C42H70O35/c43-1-8-29-15(50)22(57)36(64-8)72-30-9(2-44)66-38(24(59)17(30)52)74-32-11(4-46)68-40(26(61)19(32)54)76-34-13(6-48)70-42(28(63)21(34)56)77-35-14(7-49)69-41(27(62)20(35)55)75-33-12(5-47)67-39(25(60)18(33)53)73-31-10(3-45)65-37(71-29)23(58)16(31)51/h8-63H,1-7H2/t8-,9-,10-,11-,12-,13-,14-,15-,16-,17-,18-,19-,20-,21-,22-,23-,24-,25-,26-,27-,28-,29-,30-,31-,32-,33-,34-,35-,36-,37-,38-,39-,40-,41-,42-/m1/s1

System: D-sucrose + water; phases: Liquid, Crystal
Property: Binary diffusion coefficient, m2/s (Liquid); method: Taylor dispersion method
Amount concentration (molarity), mol/dm3 of D-sucrose	Temperature, K	Binary diffusion coefficient, m2/s	uncertainty
0.1	298.15	5.26e-10	0.016

System: potassium chloride + water; phases: Liquid, Crystal
Property: Binary diffusion coefficient, m2/s (Liquid); method: Taylor dispersion method
Amount concentration (molarity), mol/dm3 of potassium chloride	Temperature, K	Binary diffusion coefficient, m2/s	uncertainty
0.1	298.15	1.809e-09	0.036

System: .beta.-cyclodextrin + water; phases: Liquid, Crystal
Property: Binary diffusion coefficient, m2/s (Liquid); method: Taylor dispersion method
Temperature, K	Amount concentration (molarity), mol/dm3 of .beta.-cyclodextrin	Binary diffusion coefficient, m2/s	uncertainty
298.15	0.002	3.24e-10	0.022
298.15	0.004	3.23e-10	0.022
298.15	0.006	3.21e-10	0.021
298.15	0.008	3.18e-10	0.021
303.15	0.002	3.89e-10	0.023
303.15	0.004	3.88e-10	0.023
303.15	0.006	3.81e-10	0.022
303.15	0.008	3.78e-10	0.022
308.15	0.002	4.3e-10	0.023
308.15	0.004	4.28e-10	0.023
308.15	0.006	4.27e-10	0.023
308.15	0.008	4.23e-10	0.023
312.15	0.002	4.56e-10	0.024
312.15	0.004	4.54e-10	0.024
312.15	0.006	4.54e-10	0.024
312.15	0.008	4.53e-10	0.024
