Measured thermophysical data. Solubility of 3-Nitrophthalic Acid in Different Solvents between 278 K and 353 K
Source: J. Chem. Eng. Data, 2007, 10.1021/je0604737
Compound 1: 3-nitro-1,2-benzenedicarboxylic acid, C8H5NO6, InChI=1S/C8H5NO6/c10-7(11)4-2-1-3-5(9(14)15)6(4)8(12)13/h1-3H,(H,10,11)(H,12,13), purity 99.4%
Compound 2: water, H2O, InChI=1S/H2O/h1H2
Compound 3: methyl ethanoate, C3H6O2, InChI=1S/C3H6O2/c1-3(4)5-2/h1-2H3
Compound 4: ethyl acetate, C4H8O2, InChI=1S/C4H8O2/c1-3-6-4(2)5/h3H2,1-2H3
Compound 5: butyl ethanoate, C6H12O2, InChI=1S/C6H12O2/c1-3-4-5-8-6(2)7/h3-5H2,1-2H3
Compound 6: ethyl methanoate, C3H6O2, InChI=1S/C3H6O2/c1-2-5-3-4/h3H,2H2,1H3
Compound 7: tetrahydrofuran, C4H8O, InChI=1S/C4H8O/c1-2-4-5-3-1/h1-4H2
Compound 8: acetone, C3H6O, InChI=1S/C3H6O/c1-3(2)4/h1-2H3
Compound 9: 1,4-dioxane, C4H8O2, InChI=1S/C4H8O2/c1-2-6-4-3-5-1/h1-4H2

System: 3-nitro-1,2-benzenedicarboxylic acid + water; phases: Liquid, Crystal
Fixed: Pressure, kPa = 101
Property: Mole fraction of 3-nitro-1,2-benzenedicarboxylic acid (Liquid); method: Laser Monitoring Observation Technique
Temperature, K	Mole fraction of 3-nitro-1,2-benzenedicarboxylic acid	uncertainty
283.18	0.001152	4.1e-05
288.26	0.001295	4.6e-05
293.27	0.001521	5.4e-05
298.21	0.00179	6.3e-05
303.19	0.00211	7.5e-05
308.22	0.002505	8.9e-05
313.19	0.003002	0.000106
318.29	0.003668	0.00013
323.18	0.004508	0.00016
328.31	0.005691	0.000203
333.22	0.007242	0.000259
338.18	0.009433	0.000339
343.17	0.012592	0.000455
348.16	0.017191	0.000626
353.28	0.024142	0.00088

System: methyl ethanoate + 3-nitro-1,2-benzenedicarboxylic acid; phases: Liquid, Crystal
Fixed: Pressure, kPa = 101
Property: Mole fraction of 3-nitro-1,2-benzenedicarboxylic acid (Liquid); method: Laser Monitoring Observation Technique
Temperature, K	Mole fraction of 3-nitro-1,2-benzenedicarboxylic acid	uncertainty
278.17	0.03344	0.000296
283.26	0.03431	0.000304
288.27	0.03535	0.000314
293.21	0.03652	0.000325
298.24	0.03783	0.000337
303.16	0.03922	0.00035
308.22	0.04071	0.000364
313.28	0.04224	0.000378
318.17	0.04373	0.000392
323.19	0.04525	0.000406

System: ethyl acetate + 3-nitro-1,2-benzenedicarboxylic acid; phases: Liquid, Crystal
Fixed: Pressure, kPa = 101
Property: Mole fraction of 3-nitro-1,2-benzenedicarboxylic acid (Liquid); method: Laser Monitoring Observation Technique
Temperature, K	Mole fraction of 3-nitro-1,2-benzenedicarboxylic acid	uncertainty
283.2	0.007926	5.8e-05
288.26	0.008467	6.2e-05
293.28	0.009015	6.6e-05
298.19	0.009577	7.1e-05
303.21	0.01019	7.5e-05
308.3	0.01088	8e-05
313.16	0.0116	8.6e-05
318.22	0.01244	9.2e-05
323.16	0.01337	9.9e-05
328.23	0.01443	0.000108
333.17	0.01561	0.000116

System: butyl ethanoate + 3-nitro-1,2-benzenedicarboxylic acid; phases: Liquid, Crystal
Fixed: Pressure, kPa = 101
Property: Mole fraction of 3-nitro-1,2-benzenedicarboxylic acid (Liquid); method: Laser Monitoring Observation Technique
Temperature, K	Mole fraction of 3-nitro-1,2-benzenedicarboxylic acid	uncertainty
283.18	0.002433	1.7e-05
288.16	0.00297	2e-05
293.21	0.003532	2.2e-05
298.19	0.004103	2.5e-05
303.22	0.004698	2.8e-05
308.26	0.005312	3.2e-05
313.27	0.005939	3.5e-05
318.18	0.00657	3.8e-05
323.22	0.007236	4.2e-05
328.24	0.007917	4.6e-05
333.19	0.008605	4.9e-05
338.28	0.00933	5.3e-05
343.25	0.01006	5.7e-05
348.24	0.0108	6.1e-05
353.26	0.01157	6.6e-05

System: ethyl methanoate + 3-nitro-1,2-benzenedicarboxylic acid; phases: Liquid, Crystal
Fixed: Pressure, kPa = 101
Property: Mole fraction of 3-nitro-1,2-benzenedicarboxylic acid (Liquid); method: Laser Monitoring Observation Technique
Temperature, K	Mole fraction of 3-nitro-1,2-benzenedicarboxylic acid	uncertainty
283.17	0.002679	2.3e-05
288.18	0.002866	2.5e-05
293.21	0.003088	2.7e-05
298.26	0.003346	2.9e-05
303.16	0.003631	3.2e-05
308.19	0.003959	3.5e-05
313.27	0.004329	3.8e-05
318.25	0.004729	4.1e-05
323.29	0.005173	4.5e-05

System: tetrahydrofuran + 3-nitro-1,2-benzenedicarboxylic acid; phases: Liquid, Crystal
Fixed: Pressure, kPa = 101
Property: Mole fraction of 3-nitro-1,2-benzenedicarboxylic acid (Liquid); method: Laser Monitoring Observation Technique
Temperature, K	Mole fraction of 3-nitro-1,2-benzenedicarboxylic acid	uncertainty
278.28	0.2034	0.0022
283.17	0.2038	0.0022
288.16	0.2043	0.0023
293.21	0.205	0.0023
298.29	0.2057	0.0023
303.28	0.2066	0.0023
308.19	0.2076	0.0023
313.23	0.2088	0.0023
318.24	0.21	0.0023
323.16	0.2114	0.0024
328.19	0.2129	0.0024
333.17	0.2145	0.0024

System: acetone + 3-nitro-1,2-benzenedicarboxylic acid; phases: Liquid, Crystal
Fixed: Pressure, kPa = 101
Property: Mole fraction of 3-nitro-1,2-benzenedicarboxylic acid (Liquid); method: Laser Monitoring Observation Technique
Temperature, K	Mole fraction of 3-nitro-1,2-benzenedicarboxylic acid	uncertainty
278.16	0.05249	0.00061
283.18	0.05414	0.00063
288.27	0.05604	0.00065
293.33	0.05815	0.00067
298.24	0.06041	0.0007
303.19	0.0629	0.00073
308.32	0.0657	0.00077
313.16	0.06855	0.0008
318.2	0.07173	0.00085

System: 1,4-dioxane + 3-nitro-1,2-benzenedicarboxylic acid; phases: Liquid, Crystal
Fixed: Pressure, kPa = 101
Property: Mole fraction of 3-nitro-1,2-benzenedicarboxylic acid (Liquid); method: Laser Monitoring Observation Technique
Temperature, K	Mole fraction of 3-nitro-1,2-benzenedicarboxylic acid	uncertainty
288.17	0.07583	0.00063
293.28	0.08682	0.00071
298.31	0.09705	0.0008
303.29	0.1066	0.00088
308.26	0.1156	0.00096
313.2	0.124	0.00103
318.21	0.1319	0.0011
323.29	0.1393	0.00117
328.19	0.1459	0.00123
333.18	0.1521	0.0013
338.22	0.1578	0.00135
343.16	0.1627	0.0014
348.23	0.1673	0.00145
353.32	0.1712	0.00149
