Measured thermophysical data. Measurement and Correlation of CO2 Solubility in the Systems of CO2 + Toluene, CO2 + Benzene, and CO2 + n-Hexane at Near-Critical and Supercritical Conditions
Source: J. Chem. Eng. Data, 2006, 10.1021/je0602972
Compound 1: benzene, C6H6, InChI=1S/C6H6/c1-2-4-6-5-3-1/h1-6H
Compound 2: toluene, C7H8, InChI=1S/C7H8/c1-7-5-3-2-4-6-7/h2-6H,1H3
Compound 3: hexane, C6H14, InChI=1S/C6H14/c1-3-5-6-4-2/h3-6H2,1-2H3
Compound 4: carbon dioxide, CO2, InChI=1S/CO2/c2-1-3

System: benzene + carbon dioxide; phases: Liquid, Gas
Property: Mole fraction of carbon dioxide (Liquid); method: gas volume after depressurization
Pressure, kPa	Temperature, K	Mole fraction of carbon dioxide	uncertainty
1700	293.15	0.23	0.018
1700	298.15	0.21	0.016
1700	308.15	0.179	0.013
2210	293.15	0.309	0.02
2210	298.15	0.282	0.018
2210	308.15	0.233	0.015
2720	293.15	0.383	0.024
2720	298.15	0.341	0.02
2720	308.15	0.297	0.018
3230	293.15	0.477	0.029
3230	298.15	0.421	0.025
3230	308.15	0.363	0.019
3740	293.15	0.578	0.034
3740	298.15	0.51	0.029
3740	308.15	0.413	0.021
4250	293.15	0.704	0.042
4250	298.15	0.601	0.034
4250	308.15	0.471	0.024
4760	293.15	0.852	0.047
4760	298.15	0.715	0.039
4760	308.15	0.534	0.03
5270	293.15	0.979	0.021
5270	298.15	0.821	0.044
5270	308.15	0.645	0.034
5780	298.15	0.965	0.035
5780	308.15	0.715	0.038
6290	308.15	0.827	0.044
6800	308.15	0.945	0.044
7310	308.15	0.971	0.029

System: toluene + carbon dioxide; phases: Liquid, Gas
Property: Mole fraction of carbon dioxide (Liquid); method: gas volume after depressurization
Pressure, kPa	Temperature, K	Mole fraction of carbon dioxide	uncertainty
1700	293.15	0.25	0.019
1700	298.15	0.238	0.016
1700	308.15	0.217	0.015
2210	293.15	0.329	0.022
2210	298.15	0.301	0.018
2210	308.15	0.28	0.016
2720	293.15	0.421	0.025
2720	298.15	0.373	0.022
2720	308.15	0.332	0.018
3230	293.15	0.503	0.027
3230	298.15	0.454	0.026
3230	308.15	0.401	0.022
3740	293.15	0.586	0.033
3740	298.15	0.543	0.028
3740	308.15	0.475	0.024
4250	293.15	0.711	0.044
4250	298.15	0.619	0.035
4250	308.15	0.529	0.026
4760	293.15	0.882	0.044
4760	298.15	0.775	0.041
4760	308.15	0.594	0.032
5270	293.15	0.945	0.043
5270	298.15	0.855	0.041
5270	308.15	0.711	0.037
5780	298.15	0.963	0.037
5780	308.15	0.795	0.039
6290	308.15	0.887	0.04
6800	308.15	0.915	0.04
7310	308.15	0.971	0.029

System: hexane + carbon dioxide; phases: Liquid, Gas
Property: Mole fraction of carbon dioxide (Liquid); method: gas volume after depressurization
Pressure, kPa	Temperature, K	Mole fraction of carbon dioxide	uncertainty
1700	293.15	0.215	0.016
1700	298.15	0.208	0.016
1700	308.15	0.18	0.013
2210	293.15	0.281	0.018
2210	298.15	0.273	0.017
2210	308.15	0.23	0.014
2720	293.15	0.353	0.022
2720	298.15	0.339	0.02
2720	308.15	0.279	0.016
3230	293.15	0.439	0.025
3230	298.15	0.418	0.022
3230	308.15	0.335	0.02
3740	293.15	0.519	0.029
3740	298.15	0.472	0.026
3740	308.15	0.411	0.021
4250	293.15	0.625	0.036
4250	298.15	0.578	0.032
4250	308.15	0.457	0.024
4760	293.15	0.765	0.046
4760	298.15	0.671	0.036
4760	308.15	0.535	0.027
5270	293.15	0.941	0.055
5270	298.15	0.795	0.043
5270	308.15	0.584	0.03
5780	308.15	0.666	0.036
5920	298.15	0.945	0.048
6290	308.15	0.768	0.042
6800	308.15	0.884	0.044
7310	308.15	0.955	0.044
