Measured thermophysical data. Vapor-Liquid Equilibrium of Binary Mixtures. 2. Ethanol + 2,2,4-Trimethylpentane, 1-Butanol + 2,2,4-Trimethylpentane, and Ethanol + o-Xylene
Source: J. Chem. Eng. Data, 2006, 10.1021/je060005x
Compound 1: butan-1-ol, C4H10O, InChI=1S/C4H10O/c1-2-3-4-5/h5H,2-4H2,1H3
Compound 2: 2,2,4-trimethylpentane, C8H18, InChI=1S/C8H18/c1-7(2)6-8(3,4)5/h7H,6H2,1-5H3
Compound 3: 1,2-dimethylbenzene, C8H10, InChI=1S/C8H10/c1-7-5-3-4-6-8(7)2/h3-6H,1-2H3
Compound 4: ethanol, C2H6O, InChI=1S/C2H6O/c1-2-3/h3H,2H2,1H3

System: ethanol + 2,2,4-trimethylpentane; phases: Gas, Liquid
Property: Mole fraction of ethanol (Gas); method: Chromatography
Temperature, K	Mole fraction of ethanol	Mole fraction of ethanol	uncertainty
308.15	0.056	0.436	0.014
308.15	0.154	0.5	0.017
308.15	0.199	0.51	0.017
308.15	0.24	0.519	0.017
308.15	0.329	0.527	0.017
308.15	0.431	0.532	0.018
308.15	0.546	0.54	0.018
308.15	0.611	0.548	0.018
308.15	0.664	0.557	0.018
308.15	0.744	0.585	0.019
308.15	0.756	0.588	0.019
308.15	0.776	0.597	0.019
308.15	0.779	0.592	0.019
308.15	0.817	0.611	0.02
308.15	0.841	0.63	0.02
308.15	0.861	0.648	0.021
308.15	0.893	0.669	0.022
308.15	0.915	0.701	0.023
308.15	0.941	0.748	0.024
308.15	0.95	0.773	0.025
308.15	0.964	0.811	0.026
308.15	0.972	0.836	0.027
308.15	0.976	0.858	0.027
308.15	0.989	0.922	0.03
313.15	0.056	0.444	0.015
313.15	0.105	0.484	0.016
313.15	0.154	0.504	0.017
313.15	0.199	0.515	0.017
313.15	0.24	0.525	0.017
313.15	0.279	0.53	0.017
313.15	0.329	0.541	0.018
313.15	0.431	0.544	0.018
313.15	0.481	0.548	0.018
313.15	0.546	0.556	0.018
313.15	0.603	0.559	0.018
313.15	0.641	0.567	0.019
313.15	0.722	0.586	0.019
313.15	0.756	0.59	0.019
313.15	0.779	0.61	0.02
313.15	0.817	0.623	0.02
313.15	0.841	0.64	0.021
313.15	0.861	0.644	0.021
313.15	0.893	0.682	0.022
313.15	0.905	0.697	0.022
313.15	0.925	0.727	0.023
313.15	0.941	0.761	0.024
313.15	0.95	0.779	0.025
313.15	0.967	0.828	0.027
313.15	0.976	0.865	0.028
313.15	0.989	0.93	0.03
318.15	0.056	0.432	0.014
318.15	0.105	0.491	0.016
318.15	0.154	0.514	0.017
318.15	0.199	0.526	0.017
318.15	0.24	0.535	0.018
318.15	0.279	0.541	0.018
318.15	0.329	0.548	0.018
318.15	0.431	0.557	0.018
318.15	0.481	0.562	0.018
318.15	0.546	0.566	0.019
318.15	0.611	0.577	0.019
318.15	0.664	0.582	0.019
318.15	0.699	0.582	0.019
318.15	0.75	0.596	0.019
318.15	0.779	0.61	0.02
318.15	0.817	0.639	0.021
318.15	0.861	0.666	0.022
318.15	0.893	0.691	0.022
318.15	0.905	0.714	0.023
318.15	0.925	0.739	0.024
318.15	0.946	0.779	0.025
318.15	0.962	0.821	0.026
318.15	0.966	0.834	0.027
318.15	0.989	0.932	0.03

System: butan-1-ol + 2,2,4-trimethylpentane; phases: Gas, Liquid
Property: Mole fraction of butan-1-ol (Gas); method: Chromatography
Temperature, K	Mole fraction of butan-1-ol	Mole fraction of butan-1-ol	uncertainty
308.15	0.037	0.058	0.002
308.15	0.069	0.071	0.002
308.15	0.097	0.078	0.003
308.15	0.15	0.088	0.003
308.15	0.172	0.089	0.003
308.15	0.234	0.1	0.003
308.15	0.313	0.112	0.004
308.15	0.42	0.129	0.004
308.15	0.479	0.134	0.005
308.15	0.51	0.138	0.005
308.15	0.553	0.142	0.005
308.15	0.597	0.15	0.005
308.15	0.618	0.151	0.005
308.15	0.669	0.159	0.005
308.15	0.705	0.167	0.006
308.15	0.737	0.177	0.006
308.15	0.801	0.196	0.007
308.15	0.835	0.218	0.007
308.15	0.863	0.244	0.008
308.15	0.891	0.278	0.009
308.15	0.946	0.406	0.013
308.15	0.972	0.56	0.018
308.15	0.994	0.846	0.027
313.15	0.037	0.064	0.002
313.15	0.069	0.081	0.003
313.15	0.097	0.088	0.003
313.15	0.15	0.097	0.003
313.15	0.172	0.101	0.003
313.15	0.229	0.107	0.004
313.15	0.239	0.108	0.004
313.15	0.249	0.109	0.004
313.15	0.311	0.118	0.004
313.15	0.315	0.118	0.004
313.15	0.42	0.138	0.005
313.15	0.479	0.148	0.005
313.15	0.531	0.156	0.005
313.15	0.597	0.163	0.005
313.15	0.618	0.165	0.006
313.15	0.669	0.178	0.006
313.15	0.705	0.187	0.006
313.15	0.737	0.198	0.007
313.15	0.766	0.209	0.007
313.15	0.818	0.232	0.008
313.15	0.863	0.273	0.009
313.15	0.943	0.429	0.014
313.15	0.994	0.865	0.028
318.15	0.037	0.071	0.002
318.15	0.083	0.093	0.003
318.15	0.161	0.109	0.004
318.15	0.239	0.119	0.004
318.15	0.313	0.13	0.004
318.15	0.42	0.147	0.005
318.15	0.479	0.167	0.006
318.15	0.51	0.168	0.006
318.15	0.553	0.175	0.006
318.15	0.597	0.181	0.006
318.15	0.618	0.185	0.006
318.15	0.687	0.2	0.007
318.15	0.737	0.219	0.007
318.15	0.783	0.236	0.008
318.15	0.849	0.284	0.01
318.15	0.911	0.37	0.012
318.15	0.943	0.464	0.016
318.15	0.966	0.578	0.019
318.15	0.994	0.88	0.028

System: ethanol + 1,2-dimethylbenzene; phases: Gas, Liquid
Property: Mole fraction of ethanol (Gas); method: Chromatography
Temperature, K	Mole fraction of ethanol	Mole fraction of ethanol	uncertainty
308.15	0.017	0.539	0.018
308.15	0.027	0.634	0.021
308.15	0.052	0.731	0.024
308.15	0.117	0.792	0.025
308.15	0.152	0.804	0.026
308.15	0.183	0.816	0.026
308.15	0.221	0.822	0.026
308.15	0.251	0.83	0.027
308.15	0.254	0.834	0.027
308.15	0.327	0.841	0.027
308.15	0.407	0.849	0.027
308.15	0.435	0.854	0.027
308.15	0.485	0.851	0.027
308.15	0.552	0.864	0.028
308.15	0.621	0.873	0.028
308.15	0.678	0.879	0.028
308.15	0.741	0.89	0.029
308.15	0.807	0.903	0.029
308.15	0.874	0.923	0.03
308.15	0.901	0.932	0.03
308.15	0.923	0.943	0.03
308.15	0.962	0.968	0.031
308.15	0.995	0.995	0.005
313.15	0.016	0.5	0.017
313.15	0.052	0.727	0.023
313.15	0.117	0.797	0.026
313.15	0.183	0.818	0.026
313.15	0.221	0.832	0.027
313.15	0.253	0.837	0.027
313.15	0.327	0.843	0.027
313.15	0.421	0.853	0.027
313.15	0.532	0.858	0.027
313.15	0.639	0.87	0.028
313.15	0.678	0.877	0.028
313.15	0.743	0.889	0.028
313.15	0.801	0.9	0.029
313.15	0.838	0.909	0.029
313.15	0.865	0.916	0.029
313.15	0.899	0.931	0.03
313.15	0.946	0.955	0.031
313.15	0.964	0.97	0.03
313.15	0.987	0.987	0.013
318.15	0.01	0.37	0.012
318.15	0.016	0.472	0.016
318.15	0.027	0.597	0.019
318.15	0.117	0.79	0.025
318.15	0.168	0.81	0.026
318.15	0.221	0.82	0.026
318.15	0.253	0.828	0.027
318.15	0.327	0.837	0.027
318.15	0.421	0.846	0.027
318.15	0.485	0.85	0.027
318.15	0.532	0.857	0.027
318.15	0.604	0.864	0.028
318.15	0.639	0.868	0.028
318.15	0.678	0.874	0.028
318.15	0.741	0.882	0.028
318.15	0.782	0.893	0.029
318.15	0.801	0.897	0.029
318.15	0.838	0.906	0.029
318.15	0.865	0.916	0.029
318.15	0.883	0.921	0.029
318.15	0.901	0.932	0.03
318.15	0.946	0.955	0.031
318.15	0.964	0.968	0.031
318.15	0.995	0.995	0.005
