Measured thermophysical data. Temperature Dependences of Limiting Activity Coefficients and Henry s Law Constants for Nitrobenzene, Aniline, and Cyclohexylamine in Water
Source: J. Chem. Eng. Data, 2006, 10.1021/je060136y
Compound 1: nitrobenzene, C6H5NO2, InChI=1S/C6H5NO2/c8-7(9)6-4-2-1-3-5-6/h1-5H
Compound 2: aniline, C6H7N, InChI=1S/C6H7N/c7-6-4-2-1-3-5-6/h1-5H,7H2
Compound 3: cyclohexylamine, C6H13N, InChI=1S/C6H13N/c7-6-4-2-1-3-5-6/h6H,1-5,7H2
Compound 4: water, H2O, InChI=1S/H2O/h1H2

System: nitrobenzene + water; phases: Liquid, Gas
Fixed: Mole fraction of nitrobenzene = 0
Property: Activity coefficient of nitrobenzene (Liquid); method: Rayleigh distillation method
Temperature, K	Activity coefficient of nitrobenzene	uncertainty
333.15	2447	245
333.15	2319	232
343.15	2149	215
353.15	1638	164
353.15	1659	166

System: nitrobenzene + water; phases: Liquid, Gas
Property: Activity coefficient of nitrobenzene (Liquid); method: ciculation still method
Temperature, K	Mole fraction of nitrobenzene	Activity coefficient of nitrobenzene	uncertainty
372.85	0	1318	132

System: aniline + water; phases: Liquid, Gas
Property: Activity coefficient of aniline (Liquid); method: ciculation still method
Temperature, K	Mole fraction of aniline	Activity coefficient of aniline	uncertainty
372.47	0	92.7	9.3

System: aniline + water; phases: Liquid, Gas
Property: Activity coefficient of aniline (Liquid); method: headspace analysis
Temperature, K	Mole fraction of aniline	Activity coefficient of aniline	uncertainty
298.15	0	145	15

System: aniline + water; phases: Liquid, Gas
Fixed: Mole fraction of aniline = 0
Property: Activity coefficient of aniline (Liquid); method: Rayleigh distillation method
Temperature, K	Activity coefficient of aniline	uncertainty
333.15	130	13
343.15	121	12
343.15	119	12
353.15	111	11

System: cyclohexylamine + water; phases: Liquid, Gas
Fixed: Mole fraction of cyclohexylamine = 0
Property: Activity coefficient of cyclohexylamine (Liquid); method: Rayleigh distillation method
Temperature, K	Activity coefficient of cyclohexylamine	uncertainty
333.15	36.7	3.7
343.15	44.8	4.5
353.15	51.2	5.1

System: cyclohexylamine + water; phases: Liquid, Gas
Fixed: Mole fraction of cyclohexylamine = 0
Property: Activity coefficient of cyclohexylamine (Liquid); method: circulation still method
Temperature, K	Activity coefficient of cyclohexylamine	uncertainty
372.65	64.5	6.5
372.82	53.5	5.4
372.82	64.6	6.5

System: cyclohexylamine + water; phases: Liquid, Gas
Fixed: Mole fraction of cyclohexylamine = 0
Property: Activity coefficient of cyclohexylamine (Liquid); method: headspace analysis
Temperature, K	Activity coefficient of cyclohexylamine	uncertainty
298.15	19	2
313.15	29.1	2.9
