Measured thermophysical data. Vapor-Liquid Equilibrium for Binary Systems of Diacetyl with Methanol and Acetone
Source: J. Chem. Eng. Data, 2006, 10.1021/je060174h
Compound 1: acetone, C3H6O, InChI=1S/C3H6O/c1-3(2)4/h1-2H3, purity 99.5%
Compound 2: 2,3-butanedione, C4H6O2, InChI=1S/C4H6O2/c1-3(5)4(2)6/h1-2H3, purity 98.82%
Compound 3: methanol, CH4O, InChI=1S/CH4O/c1-2/h2H,1H3, purity 99.5%

System: acetone; phases: Liquid, Gas
Property: Vapor or sublimation pressure, kPa (Liquid); method: EBULLIO:UFactor:8
Temperature, K	Vapor or sublimation pressure, kPa	uncertainty
297.66	30.23	0.3
301.25	35.22	0.31
303.15	38.04	1.52
304.37	40	1.58
307.33	45.21	0.39
310.08	50.4	0.41
312.52	55.29	0.43
313.15	56.64	2.11
314.76	60.29	0.48
316.8	65.08	0.51
318.77	70.07	0.54
323.15	81.65	2.88

System: 2,3-butanedione; phases: Liquid, Gas
Property: Vapor or sublimation pressure, kPa (Liquid); method: EBULLIO:UFactor:8
Temperature, K	Vapor or sublimation pressure, kPa	uncertainty
303.15	8.62	0.59
313.15	14.33	0.77
323.15	22.77	1.03
329.85	33.91	0.28
333.15	34.76	1.41
333.64	39	1.74
336.67	40	1.57
336.76	43.59	0.34
339.99	48.97	0.36
342.8	53.85	0.39
345.41	58.83	0.43
347.62	63.83	0.47
349.9	68.81	0.49
351.89	73.79	0.52

System: methanol; phases: Liquid, Gas
Property: Vapor or sublimation pressure, kPa (Liquid); method: EBULLIO:UFactor:8
Temperature, K	Vapor or sublimation pressure, kPa	uncertainty
309.79	30.33	0.34
313.06	35.42	0.35
313.15	35.52	1.45
315.73	40	1.6
316.02	40.41	0.38
318.43	45.11	0.43
320.9	50.3	0.46
323.14	55.39	0.49
323.15	55.69	2.1
324.96	59.99	0.54
326.95	65.28	0.55
333.15	84.72	2.99

System: acetone + 2,3-butanedione; phases: Liquid, Gas
Property: Vapor or sublimation pressure, kPa (Liquid); method: EBULLIO:UFactor:8
Mole fraction of acetone	Temperature, K	Vapor or sublimation pressure, kPa	uncertainty
0	303.15	8.62	0.59
0	313.15	14.33	0.77
0	323.15	22.77	1.03
0	336.67	40	1.57
0.018	303.15	9.36	0.62
0.018	313.15	15.25	0.8
0.018	323.15	23.74	1.09
0.034	303.15	9.86	0.63
0.035	313.15	16.05	0.82
0.035	323.15	24.84	1.1
0.052	334.11	40	1.57
0.057	303.15	10.56	0.65
0.058	313.15	16.95	0.85
0.061	323.15	26.23	1.15
0.101	331.61	40	1.58
0.116	313.15	19.24	0.93
0.118	303.15	12.15	0.7
0.121	323.15	29.73	1.26
0.189	327.32	40	1.58
0.228	323.15	35.82	1.45
0.231	303.15	15.35	0.8
0.231	313.15	23.54	1.06
0.297	323.2	40	1.58
0.35	303.15	18.75	0.91
0.356	313.15	28.83	1.23
0.357	323.15	43.01	1.68
0.413	319.22	40	1.57
0.513	313.15	35.42	1.43
0.518	303.15	23.44	1.07
0.519	323.15	52.2	1.96
0.53	315.71	40	1.59
0.649	312.54	40	1.6
0.749	313.15	45.41	1.77
0.754	323.15	66.08	2.4
0.756	303.15	30.43	1.28
0.768	309.73	40	1.58
0.857	307.76	40	1.59
0.867	313.15	50.6	1.93
0.868	303.15	33.82	1.39
0.868	323.15	73.17	2.62
0.912	323.15	75.77	2.7
0.913	303.15	35.22	1.43
0.913	313.15	52.5	1.99
0.931	306.18	40	1.59
0.943	313.15	53.6	2.02
0.943	323.15	77.76	2.76
0.956	303.15	36.42	1.47
0.956	305.7	40	1.59
0.965	303.15	36.82	1.48
0.966	313.15	54.5	2.05
0.967	323.15	79.06	2.81
0.973	305.37	40	1.59
0.983	305.16	40	1.61
1	303.15	38.04	1.52
1	304.37	40	1.58
1	313.15	56.64	2.11
1	323.15	81.65	2.88

System: acetone + 2,3-butanedione; phases: Gas, Liquid
Property: Mole fraction of acetone (Gas); method: CHROM:UFactor:2
Mole fraction of acetone	Temperature, K	Mole fraction of acetone	uncertainty
0	303.15	0	0.001
0	313.15	0	0.001
0	323.15	0	0.001
0	336.67	0	0.001
0.018	303.15	0.074	0.008
0.018	313.15	0.071	0.008
0.018	323.15	0.061	0.007
0.034	303.15	0.129	0.007
0.035	313.15	0.128	0.006
0.035	323.15	0.114	0.006
0.052	334.11	0.152	0.008
0.057	303.15	0.196	0.007
0.058	313.15	0.181	0.007
0.061	323.15	0.175	0.006
0.101	331.61	0.267	0.005
0.116	313.15	0.341	0.008
0.118	303.15	0.358	0.008
0.121	323.15	0.318	0.007
0.189	327.32	0.446	0.009
0.228	323.15	0.506	0.01
0.231	303.15	0.544	0.009
0.231	313.15	0.536	0.009
0.297	323.2	0.595	0.008
0.35	303.15	0.704	0.006
0.356	313.15	0.671	0.006
0.357	323.15	0.67	0.006
0.413	319.22	0.715	0.005
0.513	313.15	0.804	0.004
0.518	303.15	0.818	0.004
0.519	323.15	0.795	0.004
0.53	315.71	0.809	0.004
0.649	312.54	0.879	0.003
0.749	313.15	0.923	0.003
0.754	323.15	0.914	0.003
0.756	303.15	0.93	0.003
0.768	309.73	0.93	0.002
0.857	307.76	0.962	0.002
0.867	313.15	0.963	0.002
0.868	303.15	0.967	0.002
0.868	323.15	0.959	0.002
0.912	323.15	0.974	0.002
0.913	303.15	0.979	0.002
0.913	313.15	0.976	0.002
0.931	306.18	0.983	0.002
0.943	313.15	0.985	0.002
0.943	323.15	0.985	0.002
0.956	303.15	0.99	0.002
0.956	305.7	0.989	0.002
0.965	303.15	0.992	0.002
0.966	313.15	0.991	0.002
0.967	323.15	0.991	0.002
0.973	305.37	0.994	0.002
0.983	305.16	0.996	0.002
1	303.15	1	0.001
1	304.37	1	0.001
1	313.15	1	0.001
1	323.15	1	0.001

System: methanol + 2,3-butanedione; phases: Liquid, Gas
Property: Vapor or sublimation pressure, kPa (Liquid); method: EBULLIO:UFactor:8
Mole fraction of methanol	Temperature, K	Vapor or sublimation pressure, kPa	uncertainty
0	313.15	14.33	0.77
0	323.15	22.77	1.04
0	333.15	34.76	1.41
0	336.67	40	1.58
0.07	323.15	26.93	1.18
0.07	333.15	41.51	1.64
0.071	332.19	40	1.59
0.072	313.15	17.15	0.87
0.116	333.15	45.91	1.77
0.119	323.15	30.13	1.27
0.125	313.15	18.95	0.93
0.138	328.6	40	1.59
0.191	323.15	34.02	1.39
0.191	333.15	52.3	1.97
0.193	326.53	40	1.59
0.198	313.15	21.54	1.01
0.282	323.15	38.32	1.54
0.282	333.15	58.99	2.18
0.301	313.15	24.04	1.1
0.32	322.89	40	1.59
0.395	313.15	26.33	1.17
0.399	333.15	64.88	2.37
0.4	323.15	42.11	1.67
0.423	321.14	40	1.58
0.532	313.15	28.83	1.25
0.533	323.15	46.01	1.8
0.533	333.15	70.67	2.55
0.54	319.54	40	1.59
0.651	318.43	40	1.59
0.666	313.15	31.03	1.32
0.668	333.15	75.77	2.71
0.669	323.15	49.4	1.91
0.781	313.15	32.63	1.37
0.782	323.15	51.9	1.99
0.784	333.15	79.56	2.83
0.816	317.08	40	1.6
0.901	316.51	40	1.6
0.914	323.15	54.1	2.05
0.916	333.15	82.26	2.91
0.918	313.15	34.32	1.42
0.94	316.25	40	1.6
0.956	323.15	54.4	2.06
0.957	313.15	34.72	1.43
0.959	333.15	82.96	2.94
0.964	316.07	40	1.6
0.973	313.15	35.02	1.44
0.973	333.15	83.45	2.95
0.975	316.04	40	1.6
0.982	315.99	40	1.61
0.984	323.15	54.99	2.08
0.985	313.15	35.32	1.45
0.986	333.15	83.75	2.96
1	313.15	35.52	1.45
1	315.73	40	1.6
1	323.15	55.69	2.1
1	333.15	84.72	2.99

System: methanol + 2,3-butanedione; phases: Gas, Liquid
Property: Mole fraction of methanol (Gas); method: CHROM:UFactor:2
Mole fraction of methanol	Temperature, K	Mole fraction of methanol	uncertainty
0	313.15	0	0.001
0	323.15	0	0.001
0	333.15	0	0.001
0	336.67	0	0.001
0.07	323.15	0.209	0.007
0.07	333.15	0.219	0.008
0.071	332.19	0.221	0.006
0.072	313.15	0.205	0.007
0.116	333.15	0.326	0.007
0.119	323.15	0.325	0.007
0.125	313.15	0.323	0.007
0.138	328.6	0.372	0.007
0.191	323.15	0.445	0.009
0.191	333.15	0.448	0.009
0.193	326.53	0.461	0.009
0.198	313.15	0.447	0.009
0.282	323.15	0.55	0.009
0.282	333.15	0.552	0.009
0.301	313.15	0.577	0.008
0.32	322.89	0.599	0.008
0.395	313.15	0.653	0.007
0.399	333.15	0.644	0.007
0.4	323.15	0.644	0.007
0.423	321.14	0.674	0.006
0.532	313.15	0.724	0.005
0.533	323.15	0.722	0.005
0.533	333.15	0.724	0.005
0.54	319.54	0.742	0.005
0.651	318.43	0.8	0.004
0.666	313.15	0.791	0.004
0.668	333.15	0.791	0.004
0.669	323.15	0.787	0.004
0.781	313.15	0.858	0.003
0.782	323.15	0.855	0.003
0.784	333.15	0.858	0.003
0.816	317.08	0.886	0.003
0.901	316.51	0.935	0.003
0.914	323.15	0.939	0.003
0.916	333.15	0.94	0.003
0.918	313.15	0.94	0.003
0.94	316.25	0.96	0.002
0.956	323.15	0.964	0.003
0.957	313.15	0.968	0.003
0.959	333.15	0.968	0.003
0.964	316.07	0.975	0.003
0.973	313.15	0.98	0.003
0.973	333.15	0.98	0.003
0.975	316.04	0.982	0.002
0.982	315.99	0.987	0.002
0.984	323.15	0.986	0.003
0.985	313.15	0.989	0.003
0.986	333.15	0.989	0.003
1	313.15	1	0.001
1	315.73	1	0.001
1	323.15	1	0.001
1	333.15	1	0.001
