Measured thermophysical data. Pressure-Volume-Temperature Properties of Methyl Chloride at High Pressures and Temperatures
Source: J. Chem. Eng. Data, 2006, 10.1021/je060117o
Compound 1: chloromethane, CH3Cl, InChI=1S/CH3Cl/c1-2/h1H3

System: chloromethane; phases: Liquid
Property: Specific volume, m3/kg (Liquid); method: Other PVT measurement
Temperature, K	Pressure, kPa	Specific volume, m3/kg	uncertainty
298	10000	0.0010662	3.7e-06
298	20000	0.0010472	3.6e-06
298	30000	0.0010296	3.5e-06
298	40000	0.0010123	3.5e-06
298	50000	0.0009994	3.4e-06
298	75000	0.0009752	3.4e-06
298	100000	0.0009545	3.3e-06
298	125000	0.0009395	3.3e-06
298	150000	0.0009237	3.3e-06
298	175000	0.0009102	3.3e-06
298	200000	0.0009001	3.2e-06
298	225000	0.0008905	3.3e-06
298	250000	0.000881	3.4e-06
298	275000	0.0008704	3.4e-06
298	300000	0.0008631	3.5e-06
298	325000	0.0008544	3.5e-06
298	350000	0.0008484	3.6e-06
298	375000	0.0008408	3.5e-06
298	400000	0.0008366	3.3e-06
323	10000	0.001131	3.9e-06
323	20000	0.0011001	3.8e-06
323	30000	0.0010786	3.7e-06
323	40000	0.0010587	3.6e-06
323	50000	0.0010431	3.6e-06
323	75000	0.0010098	3.5e-06
323	100000	0.0009852	3.4e-06
323	125000	0.0009622	3.4e-06
323	150000	0.0009449	3.4e-06
323	175000	0.0009316	3.4e-06
323	200000	0.0009178	3.4e-06
323	225000	0.0009076	3.4e-06
323	250000	0.0008978	3.5e-06
323	275000	0.000887	3.6e-06
323	300000	0.0008777	3.6e-06
323	325000	0.0008694	3.6e-06
323	350000	0.0008622	3.7e-06
323	375000	0.0008542	3.9e-06
323	400000	0.0008474	3.8e-06
348	10000	0.0012009	4.1e-06
348	20000	0.0011594	4e-06
348	30000	0.0011309	3.9e-06
348	40000	0.0011029	3.8e-06
348	50000	0.0010832	3.7e-06
348	75000	0.001043	3.6e-06
348	100000	0.0010162	3.6e-06
348	125000	0.0009892	3.5e-06
348	150000	0.0009696	3.5e-06
348	175000	0.0009533	3.5e-06
348	200000	0.000937	3.5e-06
348	225000	0.0009251	3.5e-06
348	250000	0.0009147	3.6e-06
348	275000	0.000903	3.6e-06
348	300000	0.0008942	3.7e-06
348	325000	0.0008839	3.8e-06
348	350000	0.0008766	3.9e-06
348	375000	0.000867	4.1e-06
348	400000	0.00086	3.9e-06
373	10000	0.0013012	4.5e-06
373	20000	0.001233	4.2e-06
373	30000	0.0011874	4.1e-06
373	40000	0.0011547	4e-06
373	50000	0.0011276	3.9e-06
373	75000	0.0010828	3.8e-06
373	100000	0.0010477	3.7e-06
373	125000	0.0010189	3.6e-06
373	150000	0.0009963	3.6e-06
373	175000	0.0009771	3.6e-06
373	200000	0.000959	3.7e-06
373	225000	0.0009441	3.6e-06
373	250000	0.0009328	3.7e-06
373	275000	0.00092	3.8e-06
373	300000	0.0009104	3.9e-06
373	325000	0.0008995	4e-06
373	350000	0.0008906	4.1e-06
373	375000	0.000881	4.2e-06
373	400000	0.0008736	4.4e-06
423	10000	0.0017302	6.3e-06
423	20000	0.0014664	5.1e-06
423	30000	0.0013495	4.7e-06
423	40000	0.0012792	4.4e-06
423	50000	0.0012341	4.3e-06
423	75000	0.0011596	4.1e-06
423	100000	0.0011139	4e-06
423	125000	0.0010753	3.9e-06
423	150000	0.0010484	3.9e-06
423	175000	0.0010203	4e-06
423	200000	0.0010003	3.9e-06
423	225000	0.0009818	3.9e-06
423	250000	0.0009678	4e-06
423	275000	0.0009519	4.1e-06
423	300000	0.0009409	4.1e-06
423	325000	0.0009295	4.5e-06
423	350000	0.0009167	4.7e-06
423	375000	0.0009064	4.7e-06
423	400000	0.0008963	4.5e-06
473	10000	0.0044677	1.59e-05
473	20000	0.0018576	8.1e-06
473	30000	0.0015604	5.6e-06
473	40000	0.0014397	5.1e-06
473	50000	0.0013607	4.8e-06
473	75000	0.0012502	4.5e-06
473	100000	0.001183	4.3e-06
473	125000	0.0011353	4.2e-06
473	150000	0.0010996	4.2e-06
473	175000	0.0010685	4.3e-06
473	200000	0.0010426	4.3e-06
473	225000	0.0010212	4.3e-06
473	250000	0.0010035	4.4e-06
473	275000	0.0009865	4.4e-06
473	300000	0.0009729	4.5e-06
473	325000	0.0009587	4.7e-06
473	350000	0.000947	4.7e-06
473	375000	0.0009357	5.1e-06
473	400000	0.0009239	6e-06
523	10000	0.0064422	2.26e-05
523	20000	0.0025857	1.18e-05
523	30000	0.0019001	7.3e-06
523	40000	0.0016516	6.1e-06
523	50000	0.0015041	5.4e-06
523	75000	0.0013439	5e-06
523	100000	0.0012611	4.7e-06
523	125000	0.0011988	4.6e-06
523	150000	0.0011534	4.6e-06
523	175000	0.0011168	4.6e-06
523	200000	0.0010879	4.5e-06
523	225000	0.0010656	4.6e-06
523	250000	0.0010434	5e-06
523	275000	0.0010203	5.1e-06
523	300000	0.0010044	4.9e-06
523	325000	0.000989	5.1e-06
523	350000	0.0009755	5.2e-06
523	375000	0.0009626	5.7e-06
523	400000	0.0009483	6.1e-06
573	10000	0.0078806	2.76e-05
573	20000	0.0034167	1.54e-05
573	30000	0.0023168	9.5e-06
573	40000	0.0019276	7.5e-06
573	50000	0.0016972	6.2e-06
573	75000	0.001457	5.7e-06
573	100000	0.0013466	5.2e-06
573	125000	0.0012768	5e-06
573	150000	0.0012215	5.1e-06
573	175000	0.0011776	5e-06
573	200000	0.0011454	5e-06
573	225000	0.0011145	5.3e-06
573	250000	0.0010863	5.4e-06
573	275000	0.0010633	5.2e-06
573	300000	0.0010469	5.3e-06
573	325000	0.001028	5.7e-06
573	350000	0.001012	6.3e-06
573	375000	0.0009929	7e-06
573	400000	0.0009763	7.3e-06
