Measured thermophysical data. Solubility of Ethylene in 2,2,4-Trimethylpentane at Various Temperatures and Pressures
Source: J. Chem. Eng. Data, 2007, 10.1021/je060270i
Compound 1: ethene, C2H4, InChI=1S/C2H4/c1-2/h1-2H2
Compound 2: 2,2,4-trimethylpentane, C8H18, InChI=1S/C8H18/c1-7(2)6-8(3,4)5/h7H,6H2,1-5H3
Compound 3: toluene, C7H8, InChI=1S/C7H8/c1-7-5-3-2-4-6-7/h2-6H,1H3
Compound 4: carbon dioxide, CO2, InChI=1S/CO2/c2-1-3

System: ethene + 2,2,4-trimethylpentane; phases: Gas, Liquid
Property: Mole fraction of ethene (Gas); method: CHROM:UFactor:4
Temperature, K	Pressure, kPa	Mole fraction of ethene	uncertainty
323.15	440	0.9429	0.0029
323.15	770	0.9685	0.0016
323.15	1300	0.9791	0.0011
323.15	1970	0.9866	0.0007
323.15	2390	0.9884	0.0006
373.15	680	0.8239	0.0087
373.15	1310	0.9068	0.0046
373.15	1630	0.9136	0.0043
373.15	1970	0.922	0.0038
373.15	2420	0.9316	0.0034
423.15	600	0.3461	0.0168
423.15	1200	0.654	0.0169
423.15	1670	0.7361	0.0129
423.15	2100	0.7726	0.0111
423.15	2320	0.7957	0.01

System: ethene + 2,2,4-trimethylpentane; phases: Liquid, Gas
Property: Mole fraction of ethene (Liquid); method: OTHER:UFactor:2:sMethod:pressure decay
Temperature, K	Pressure, kPa	Mole fraction of ethene	uncertainty
323.15	440	0.0587	0.0012
323.15	770	0.105	0.0021
323.15	1300	0.1797	0.0036
323.15	1970	0.2654	0.0054
323.15	2390	0.3161	0.0064
373.15	680	0.0604	0.0012
373.15	1310	0.1256	0.0025
373.15	1630	0.1561	0.0031
373.15	1970	0.1906	0.0038
373.15	2420	0.2371	0.0048
423.15	600	0.0191	0.0004
423.15	1200	0.0757	0.0015
423.15	1670	0.1165	0.0023
423.15	2100	0.1552	0.0031
423.15	2320	0.1747	0.0035

System: toluene + carbon dioxide; phases: Liquid, Gas
Fixed: Temperature, K = 352.6
Property: Mole fraction of carbon dioxide (Liquid); method: pressure decay
Pressure, kPa	Mole fraction of carbon dioxide	uncertainty
280	0.0118	0.0002
690	0.0333	0.0007
1090	0.056	0.0011
1610	0.089	0.0018
1930	0.1092	0.0022
2670	0.1505	0.0031
3030	0.1696	0.0035
