Measured thermophysical data. Solubilities of Substituted Phenols in Supercritical Carbon Dioxide
Source: J. Chem. Eng. Data, 2006, 10.1021/je060058e
Compound 1: 2,5-dimethylphenol, C8H10O, InChI=1S/C8H10O/c1-6-3-4-7(2)8(9)5-6/h3-5,9H,1-2H3
Compound 2: 2,3-dimethylphenol, C8H10O, InChI=1S/C8H10O/c1-6-4-3-5-8(9)7(6)2/h3-5,9H,1-2H3
Compound 3: 2,3,5-trimethylphenol, C9H12O, InChI=1S/C9H12O/c1-6-4-7(2)8(3)9(10)5-6/h4-5,10H,1-3H3
Compound 4: 2,4,6-trimethylphenol, C9H12O, InChI=1S/C9H12O/c1-6-4-7(2)9(10)8(3)5-6/h4-5,10H,1-3H3
Compound 5: 4-(1,1-dimethylethyl)phenol, C10H14O, InChI=1S/C10H14O/c1-10(2,3)8-4-6-9(11)7-5-8/h4-7,11H,1-3H3
Compound 6: 1,1'-biphenyl-4-ol, C12H10O, InChI=1S/C12H10O/c13-12-8-6-11(7-9-12)10-4-2-1-3-5-10/h1-9,13H
Compound 7: carbon dioxide, CO2, InChI=1S/CO2/c2-1-3

System: 2,5-dimethylphenol + carbon dioxide; phases: Fluid (supercritical or subcritical phases), Crystal
Fixed: Temperature, K = 308
Property: Mole fraction of 2,5-dimethylphenol (Fluid (supercritical or subcritical phases)); method: Chromatography
Pressure, kPa	Mole fraction of 2,5-dimethylphenol	uncertainty
10100	0.0064	0.00041
12000	0.0077	0.00029
15100	0.0092	0.00053
16000	0.00951	0.00067
20000	0.0104	0.0006
24000	0.0106	0.0008
28000	0.0116	0.0004

System: carbon dioxide + 2,3-dimethylphenol; phases: Fluid (supercritical or subcritical phases), Crystal
Fixed: Temperature, K = 308
Property: Mole fraction of 2,3-dimethylphenol (Fluid (supercritical or subcritical phases)); method: Chromatography
Pressure, kPa	Mole fraction of 2,3-dimethylphenol	uncertainty
10100	0.00618	0.00034
12000	0.00791	0.00021
15100	0.00986	0.00044
16000	0.0099	0.0005
20000	0.0123	0.0006
24000	0.0148	0.0008
28000	0.0155	0.0004

System: carbon dioxide + 2,3,5-trimethylphenol; phases: Fluid (supercritical or subcritical phases), Crystal
Fixed: Temperature, K = 308
Property: Mole fraction of 2,3,5-trimethylphenol (Fluid (supercritical or subcritical phases)); method: Chromatography
Pressure, kPa	Mole fraction of 2,3,5-trimethylphenol	uncertainty
10100	0.00241	0.00019
12000	0.00306	0.0001
15100	0.00371	0.00013
16000	0.00382	0.00016
20000	0.00427	0.00018
24000	0.00461	9e-05
28000	0.00488	9e-05

System: carbon dioxide + 2,4,6-trimethylphenol; phases: Fluid (supercritical or subcritical phases), Crystal
Fixed: Temperature, K = 308
Property: Mole fraction of 2,4,6-trimethylphenol (Fluid (supercritical or subcritical phases)); method: Chromatography
Pressure, kPa	Mole fraction of 2,4,6-trimethylphenol	uncertainty
10100	0.0147	0.0003
12000	0.0176	0.0003
15100	0.0209	0.0003
16000	0.0217	0.0003
20000	0.0244	0.0003
24000	0.0256	0.0003

System: 4-(1,1-dimethylethyl)phenol + carbon dioxide; phases: Fluid (supercritical or subcritical phases), Crystal
Fixed: Temperature, K = 308
Property: Mole fraction of 4-(1,1-dimethylethyl)phenol (Fluid (supercritical or subcritical phases)); method: Chromatography
Pressure, kPa	Mole fraction of 4-(1,1-dimethylethyl)phenol	uncertainty
10100	0.00309	0.00015
12000	0.00415	0.00013
15100	0.00519	0.00011
16000	0.00539	0.00017
20000	0.0063	0.00019
24000	0.00693	0.00012
28000	0.00744	0.00025

System: 1,1'-biphenyl-4-ol + carbon dioxide; phases: Fluid (supercritical or subcritical phases), Crystal
Fixed: Temperature, K = 308
Property: Mole fraction of 1,1'-biphenyl-4-ol (Fluid (supercritical or subcritical phases)); method: Chromatography
Pressure, kPa	Mole fraction of 1,1'-biphenyl-4-ol	uncertainty
10100	5.14e-05	1.3e-06
12000	6.33e-05	7.3e-06
15100	7.55e-05	6.7e-06
16000	8.36e-05	8.6e-06
20000	0.000104	8e-06
24000	0.000122	1e-05
28000	0.000136	1.4e-05

System: 1,1'-biphenyl-4-ol + carbon dioxide + 2,3,5-trimethylphenol; phases: Fluid (supercritical or subcritical phases), Crystal, Crystal
Fixed: Temperature, K = 308
Property: Mole fraction of 1,1'-biphenyl-4-ol (Fluid (supercritical or subcritical phases)); method: Chromatography
Pressure, kPa	Mole fraction of 1,1'-biphenyl-4-ol	uncertainty
10100	5.47e-05	2.6e-06
12000	6.82e-05	3.1e-06
15100	8.95e-05	4e-06
16000	0.000103	5e-06
20000	0.000127	5e-06
24000	0.000146	6e-06
28000	0.000164	7e-06

System: 1,1'-biphenyl-4-ol + carbon dioxide + 2,3,5-trimethylphenol; phases: Fluid (supercritical or subcritical phases), Crystal, Crystal
Fixed: Temperature, K = 308
Property: Mole fraction of 2,3,5-trimethylphenol (Fluid (supercritical or subcritical phases)); method: Chromatography
Pressure, kPa	Mole fraction of 2,3,5-trimethylphenol	uncertainty
10100	0.00227	0.00011
12000	0.00289	0.00013
15100	0.00355	0.00015
16000	0.00373	0.00015
20000	0.00424	0.00017
24000	0.00455	0.00018
28000	0.00485	0.0002

System: 1,1'-biphenyl-4-ol + carbon dioxide + 2,4,6-trimethylphenol; phases: Fluid (supercritical or subcritical phases), Crystal, Crystal
Fixed: Temperature, K = 308
Property: Mole fraction of 1,1'-biphenyl-4-ol (Fluid (supercritical or subcritical phases)); method: Chromatography
Pressure, kPa	Mole fraction of 1,1'-biphenyl-4-ol	uncertainty
10100	0.000137	8e-06
12000	0.000188	9e-06
15100	0.000239	1e-05
16000	0.00026	1.1e-05
20000	0.000296	1.2e-05
24000	0.000346	1.4e-05

System: 1,1'-biphenyl-4-ol + carbon dioxide + 2,4,6-trimethylphenol; phases: Fluid (supercritical or subcritical phases), Crystal, Crystal
Fixed: Temperature, K = 308
Property: Mole fraction of 2,4,6-trimethylphenol (Fluid (supercritical or subcritical phases)); method: Chromatography
Pressure, kPa	Mole fraction of 2,4,6-trimethylphenol	uncertainty
10100	0.0143	0.0007
12000	0.0174	0.0007
15100	0.0207	0.0009
16000	0.0212	0.0009
20000	0.0236	0.001
24000	0.0253	0.001
