Measured thermophysical data. Limiting Separation Factors and Limiting Activity Coefficients for 2-Furfural, gamma-Nonalactone, Benzaldehyde, and Linalool in Water at 100 deg C
Source: J. Chem. Eng. Data, 2006, 10.1021/je0600404
Compound 1: water, H2O, InChI=1S/H2O/h1H2
Compound 2: 2-furaldehyde, C5H4O2, InChI=1S/C5H4O2/c6-4-5-2-1-3-7-5/h1-4H
Compound 3: 2(3H)-furanone, dihydro-5-pentyl-, C9H16O2, InChI=1S/C9H16O2/c1-2-3-4-5-8-6-7-9(10)11-8/h8H,2-7H2,1H3
Compound 4: benzaldehyde, C7H6O, InChI=1S/C7H6O/c8-6-7-4-2-1-3-5-7/h1-6H
Compound 5: 3,7-dimethyl-1,6-octadien-3-ol, C10H18O, InChI=1S/C10H18O/c1-5-10(4,11)8-6-7-9(2)3/h5,7,11H,1,6,8H2,2-4H3

System: 2-furaldehyde + water; phases: Gas, Liquid
Property: Amount concentration (molarity), mol/dm3 of 2-furaldehyde (Gas); method: UV absorption spectra
Temperature, K	Mole fraction of 2-furaldehyde	Amount concentration (molarity), mol/dm3 of 2-furaldehyde	uncertainty
373.1	0	7.54	0.4

System: 2(3H)-furanone, dihydro-5-pentyl- + water; phases: Gas, Liquid
Property: Amount concentration (molarity), mol/dm3 of 2(3H)-furanone, dihydro-5-pentyl- (Gas); method: UV absorption spectra
Temperature, K	Mole fraction of 2(3H)-furanone, dihydro-5-pentyl-	Amount concentration (molarity), mol/dm3 of 2(3H)-furanone, dihydro-5-pentyl-	uncertainty
373.1	0	3.1	0.12

System: benzaldehyde + water; phases: Gas, Liquid
Property: Amount concentration (molarity), mol/dm3 of benzaldehyde (Gas); method: UV absorption spectra
Temperature, K	Mole fraction of benzaldehyde	Amount concentration (molarity), mol/dm3 of benzaldehyde	uncertainty
373.1	0	20.76	1.92

System: 3,7-dimethyl-1,6-octadien-3-ol + water; phases: Gas, Liquid
Property: Amount concentration (molarity), mol/dm3 of 3,7-dimethyl-1,6-octadien-3-ol (Gas); method: UV absorption spectra
Temperature, K	Mole fraction of 3,7-dimethyl-1,6-octadien-3-ol	Amount concentration (molarity), mol/dm3 of 3,7-dimethyl-1,6-octadien-3-ol	uncertainty
373.1	0	35.46	2.56
