Measured thermophysical data. Torsion Vapor Pressures and Sublimation Enthalpies of Arsenic Triselenide and Tritelluride
Source: J. Chem. Eng. Data, 2007, 10.1021/je060083k
Compound 1: arsenic triselenide, As2Se3, InChI=1S/As2Se3/c3-1-5-2-4
Compound 2: arsenic telluride As2Te3, As2Te3, InChI=1S/2As.3Te/q2*+3;3*-2

System: arsenic triselenide; phases: Liquid, Gas
Property: Vapor or sublimation pressure, kPa (Liquid); method: TOREFF:UFactor:3
Temperature, K	Vapor or sublimation pressure, kPa	uncertainty
537	1.4e-05	2e-06
538	1.9e-05	3e-06
538	1.9e-05	3e-06
541	1.7e-05	3e-06
544	2.8e-05	4e-06
544	2.8e-05	4e-06
548	3.1e-05	5e-06
549	3.5e-05	5e-06
551	3.7e-05	6e-06
551	3.7e-05	6e-06
553	3.7e-05	6e-06
554	3.7e-05	6e-06
555	5.1e-05	8e-06
558	5.5e-05	8e-06
559	6.5e-05	1e-05
559	6.5e-05	1e-05
560	6.9e-05	1e-05
562	8.3e-05	1.2e-05
562	8.3e-05	1.2e-05
563	7.4e-05	1.1e-05
564	8.3e-05	1.2e-05
567	0.000117	1.8e-05
569	0.00012	1.8e-05
570	0.000123	1.8e-05
571	0.000129	1.9e-05
571	0.000178	2.7e-05
571	0.000178	2.7e-05
573	0.000148	2.2e-05
573	0.000186	2.8e-05
574	0.000186	2.8e-05
576	0.000178	2.7e-05
576	0.000214	3.2e-05
576	0.000229	3.4e-05
579	0.000316	4.7e-05
579	0.000316	4.7e-05
580	0.00024	3.6e-05
580	0.00024	3.6e-05
582	0.000275	4.1e-05
586	0.000407	6.1e-05
586	0.00038	5.7e-05
588	0.000355	5.3e-05
589	0.000437	6.6e-05
590	0.000447	6.7e-05
590	0.000513	7.7e-05
592	0.000589	8.8e-05
593	0.000617	9.3e-05
594	0.000513	7.7e-05
595	0.000676	0.000101
596	0.000776	0.000116
597	0.000646	9.7e-05
598	0.000871	0.000131
598	0.000871	0.000131
600	0.000776	0.000116
600	0.000832	0.000125
601	0.000977	0.000147
603	0.001072	0.000161
603	0.001072	0.000161
603	0.001072	0.000161
605	0.001122	0.000168
606	0.001047	0.000157
607	0.001288	0.000193
609	0.001413	0.000212
610	0.001445	0.000217
610	0.001585	0.000238
612	0.001622	0.000243
613	0.00166	0.000249
614	0.001905	0.000286
616	0.002291	0.000344
616	0.002188	0.000328
620	0.002951	0.000443
622	0.002951	0.000443
623	0.003548	0.000532
628	0.005012	0.000752
630	0.004571	0.000686
636	0.00631	0.000947
639	0.007079	0.001062

System: arsenic telluride As2Te3; phases: Liquid, Gas
Property: Vapor or sublimation pressure, kPa (Liquid); method: TOREFF:UFactor:3
Temperature, K	Vapor or sublimation pressure, kPa	uncertainty
531	1.1e-05	2e-06
535	1.4e-05	2e-06
541	2.2e-05	3e-06
550	4.5e-05	7e-06
551	4e-05	6e-06
554	4.7e-05	7e-06
558	7.2e-05	1.1e-05
559	7.2e-05	1.1e-05
560	6.8e-05	1e-05
564	8.9e-05	1.3e-05
566	0.000117	1.8e-05
568	0.000107	1.6e-05
573	0.000162	2.4e-05
577	0.000186	2.8e-05
577	0.000214	3.2e-05
581	0.000186	2.8e-05
582	0.000282	4.2e-05
584	0.000282	4.2e-05
585	0.000257	3.9e-05
587	0.000282	4.2e-05
588	0.000398	6e-05
589	0.000316	4.7e-05
591	0.000331	5e-05
595	0.000562	8.4e-05
595	0.000479	7.2e-05
597	0.000589	8.8e-05
598	0.000501	7.5e-05
599	0.000537	8.1e-05
601	0.000676	0.000101
603	0.000794	0.000119
605	0.000724	0.000109
605	0.000851	0.000128
605	0.000776	0.000116
609	0.001023	0.000153
610	0.000851	0.000128
612	0.000955	0.000143
613	0.001148	0.000172
614	0.001122	0.000168
615	0.001349	0.000202
616	0.001288	0.000193
619	0.001318	0.000198
621	0.001585	0.000238
624	0.002239	0.000336
626	0.002692	0.000404
627	0.002042	0.000306
628	0.002512	0.000377
633	0.002818	0.000423
633	0.00302	0.000453
638	0.003715	0.000557
