Measured thermophysical data. Vapor-Liquid Equilibrium of Ferrocene in Some Organic Solvents Using Spectroscopic Methods
Source: J. Chem. Eng. Data, 2006, 10.1021/je060002k
Compound 1: ferrocene, C10H10Fe, InChI=1S/2C5H5.Fe/c2*1-2-4-5-3-1;/h2*1-5H;
Compound 2: ethanol, C2H6O, InChI=1S/C2H6O/c1-2-3/h3H,2H2,1H3
Compound 3: toluene, C7H8, InChI=1S/C7H8/c1-7-5-3-2-4-6-7/h2-6H,1H3
Compound 4: hexane, C6H14, InChI=1S/C6H14/c1-3-5-6-4-2/h3-6H2,1-2H3
Compound 5: 2,2,4-trimethylpentane, C8H18, InChI=1S/C8H18/c1-7(2)6-8(3,4)5/h7H,6H2,1-5H3

System: ethanol; phases: Liquid, Gas
Property: Vapor or sublimation pressure, kPa (Liquid); method: EBULLIO:UFactor:8
Temperature, K	Vapor or sublimation pressure, kPa	uncertainty
351.45	101.325	3.046

System: toluene; phases: Liquid, Gas
Property: Vapor or sublimation pressure, kPa (Liquid); method: EBULLIO:UFactor:8
Temperature, K	Vapor or sublimation pressure, kPa	uncertainty
383.75	101.325	3.046

System: hexane; phases: Liquid, Gas
Property: Vapor or sublimation pressure, kPa (Liquid); method: EBULLIO:UFactor:8
Temperature, K	Vapor or sublimation pressure, kPa	uncertainty
341.85	101.325	3.044

System: 2,2,4-trimethylpentane; phases: Liquid, Gas
Property: Vapor or sublimation pressure, kPa (Liquid); method: EBULLIO:UFactor:8
Temperature, K	Vapor or sublimation pressure, kPa	uncertainty
372.35	101.325	3.044

System: ethanol + ferrocene; phases: Gas, Liquid
Fixed: Pressure, kPa = 101.325
Property: Boiling temperature at pressure P, K (Gas); method: EBULLIO:UFactor:8
Mole fraction of ferrocene	Boiling temperature at pressure P, K	uncertainty
0	351.45	0.3
2.5e-05	351.55	0.3
3e-05	351.55	0.3
3.8e-05	351.65	0.3
5.5e-05	351.65	0.3
6.9e-05	351.75	0.3
8.6e-05	351.75	0.3
0.000126	351.85	0.3
0.00014	351.85	0.3
0.000192	351.95	0.3
0.000198	352.05	0.3

System: ethanol + ferrocene; phases: Liquid, Gas
Fixed: Pressure, kPa = 101.325
Property: Mole fraction of ferrocene (Liquid); method: CHROM:UFactor:4
Mole fraction of ferrocene	Mole fraction of ferrocene	uncertainty
0	0	1e-06
2.5e-05	0.000733	0.000161
3e-05	0.000914	0.000162
3.8e-05	0.001076	0.000163
5.5e-05	0.001504	0.000166
6.9e-05	0.001955	0.000169
8.6e-05	0.002355	0.000173
0.000126	0.00337	0.000186
0.00014	0.0039	0.000194
0.000192	0.005669	0.000227
0.000198	0.006315	0.00024

System: ferrocene + toluene; phases: Liquid, Gas
Fixed: Pressure, kPa = 101.325
Property: Boiling temperature at pressure P, K (Liquid); method: EBULLIO:UFactor:8
Mole fraction of ferrocene	Boiling temperature at pressure P, K	uncertainty
0	383.75	0.3
0.005934	383.95	0.3
0.011869	384.15	0.3
0.022763	384.55	0.3
0.035052	384.95	0.3
0.04445	385.25	0.3
0.05501	385.65	0.3
0.06288	385.75	0.3
0.068506	386.05	0.3
0.0701	386.15	0.3
0.08003	386.45	0.3
0.086349	386.65	0.3

System: ferrocene + toluene; phases: Gas, Liquid
Fixed: Pressure, kPa = 101.325
Property: Mole fraction of ferrocene (Gas); method: CHROM:UFactor:4
Mole fraction of ferrocene	Mole fraction of ferrocene	uncertainty
0	0	1e-06
0.005934	8.3e-05	8.3e-05
0.011869	0.00017	0.00016
0.022763	0.000366	0.00016
0.035052	0.000524	0.000161
0.04445	0.000683	0.000162
0.05501	0.00085	0.000163
0.06288	0.001022	0.000164
0.068506	0.00125	0.000166
0.0701	0.001101	0.000164
0.08003	0.00127	0.000166
0.086349	0.00136	0.000167

System: ferrocene + hexane; phases: Liquid, Gas
Fixed: Pressure, kPa = 101.325
Property: Boiling temperature at pressure P, K (Liquid); method: EBULLIO:UFactor:8
Mole fraction of ferrocene	Boiling temperature at pressure P, K	uncertainty
0	341.85	0.3
0.00111	341.95	0.3
0.00224	341.95	0.3
0.00319	341.95	0.3
0.00568	342.05	0.3
0.01162	342.25	0.3
0.017	342.35	0.3
0.01877	342.45	0.3
0.02157	342.45	0.3
0.023	342.45	0.3
0.02339	342.55	0.3

System: ferrocene + hexane; phases: Gas, Liquid
Fixed: Pressure, kPa = 101.325
Property: Mole fraction of ferrocene (Gas); method: CHROM:UFactor:4
Mole fraction of ferrocene	Mole fraction of ferrocene	uncertainty
0	0	1e-06
0.00111	8e-06	4e-06
0.00224	1.7e-05	4e-06
0.00319	2.4e-05	4e-06
0.00568	4.3e-05	4e-06
0.01162	9e-05	5e-06
0.017	0.000125	6e-06
0.01877	0.00014	6e-06
0.02157	0.000161	7e-06
0.023	0.00017	7e-06
0.02339	0.00018	7e-06

System: ferrocene + 2,2,4-trimethylpentane; phases: Liquid, Gas
Fixed: Pressure, kPa = 101.325
Property: Boiling temperature at pressure P, K (Liquid); method: EBULLIO:UFactor:8
Mole fraction of ferrocene	Boiling temperature at pressure P, K	uncertainty
0	372.35	0.3
0.00179	372.45	0.3
0.00268	372.45	0.3
0.0035	372.45	0.3
0.00483	372.55	0.3
0.00647	372.55	0.3
0.00711	372.65	0.3
0.00867	372.65	0.3
0.0102	372.75	0.3
0.0113	372.75	0.3
0.01177	372.85	0.3

System: ferrocene + 2,2,4-trimethylpentane; phases: Gas, Liquid
Fixed: Pressure, kPa = 101.325
Property: Mole fraction of ferrocene (Gas); method: CHROM:UFactor:4
Mole fraction of ferrocene	Mole fraction of ferrocene	uncertainty
0	0	1e-06
0.00179	5e-05	4e-05
0.00268	8.1e-05	4e-05
0.0035	0.000111	4e-05
0.00483	0.000141	4e-05
0.00647	0.000184	4e-05
0.00711	0.000182	4e-05
0.00867	0.000252	4.1e-05
0.0102	0.00029	4.1e-05
0.0113	0.000315	4.1e-05
0.01177	0.000354	4.2e-05
