Measured thermophysical data. Solubilities of Some Phosphaspirocyclic Compounds in Selected Solvents
Source: J. Chem. Eng. Data, 2006, 10.1021/je060138i
Compound 1: 3,9-dihydroxy-2,4,8,10-tetraoxa-3,9-diphosphaspiro[5.5]undecane-3,9-dioxide, C5H10O8P2, InChI=1S/C5H10O8P2/c6-14(7)10-1-5(2-11-14)3-12-15(8,9)13-4-5/h1-4H2,(H,6,7)(H,8,9), purity 99%
Compound 2: 2,4,8,10-tetraoxa-3,9-dioxide-3,9-diphosphaspiro[5.5]undecane-3,9-melamine salt, C11H22N12O8P2, InChI=1S/C5H10O8P2.2C3H6N6/c6-14(7)10-1-5(2-11-14)3-12-15(8,9)13-4-5;2*4-1-7-2(5)9-3(6)8-1/h1-4H2,(H,6,7)(H,8,9);2*(H6,4,5,6,7,8,9), purity 98%
Compound 3: 3,9-(bis-2,2'-carboxyetheyl)-3,9-dioxo-2,4,8,-10-tetraoxa-3,9-diphosphaspiro*5.5]undecane, C11H18O10P2, InChI=1S/C11H18O10P2/c12-9(13)1-3-22(16)18-5-11(6-19-22)7-20-23(17,21-8-11)4-2-10(14)15/h1-8H2,(H,12,13)(H,14,15), purity 98.5%
Compound 4: 3,9-dichloro-2,4,8,10-tetraoxa-3,9-diphosphaspiro[5.5]undecane-3,9-dioxide, C5H8Cl2O6P2, InChI=1S/C5H8Cl2O6P2/c6-14(8)10-1-5(2-11-14)3-12-15(7,9)13-4-5/h1-4H2, purity 99%
Compound 5: dichloromethane, CH2Cl2, InChI=1S/CH2Cl2/c2-1-3/h1H2, purity 99.5%
Compound 6: acetic acid, C2H4O2, InChI=1S/C2H4O2/c1-2(3)4/h1H3,(H,3,4), purity 99%
Compound 7: acetonitrile, C2H3N, InChI=1S/C2H3N/c1-2-3/h1H3, purity 99.8%
Compound 8: acetone, C3H6O, InChI=1S/C3H6O/c1-3(2)4/h1-2H3, purity 99.5%
Compound 9: ethyl acetate, C4H8O2, InChI=1S/C4H8O2/c1-3-6-4(2)5/h3H2,1-2H3, purity 99.5%
Compound 10: water, H2O, InChI=1S/H2O/h1H2, purity 99%

System: 3,9-dihydroxy-2,4,8,10-tetraoxa-3,9-diphosphaspiro[5.5]undecane-3,9-dioxide; phases: Crystal, Liquid, Air at 1 atmosphere
Property: Normal melting temperature, K (Crystal); method: VISOBS
Normal melting temperature, K	uncertainty
583.65	4.39

System: 2,4,8,10-tetraoxa-3,9-dioxide-3,9-diphosphaspiro[5.5]undecane-3,9-melamine salt; phases: Crystal, Liquid, Air at 1 atmosphere
Property: Normal melting temperature, K (Crystal); method: VISOBS
Normal melting temperature, K	uncertainty
571.65	4.39

System: 3,9-(bis-2,2'-carboxyetheyl)-3,9-dioxo-2,4,8,-10-tetraoxa-3,9-diphosphaspiro*5.5]undecane; phases: Crystal, Liquid, Air at 1 atmosphere
Property: Normal melting temperature, K (Crystal); method: VISOBS
Normal melting temperature, K	uncertainty
558.15	2.94

System: 3,9-dichloro-2,4,8,10-tetraoxa-3,9-diphosphaspiro[5.5]undecane-3,9-dioxide; phases: Crystal, Liquid, Air at 1 atmosphere
Property: Normal melting temperature, K (Crystal); method: VISOBS
Normal melting temperature, K	uncertainty
512.15	2.94

System: dichloromethane; phases: Liquid
Property: Refractive index (Na D-line) (Liquid); method: Standard Abbe refractometry
Temperature, K	Pressure, kPa	Refractive index (Na D-line)	uncertainty
293.15	101.325	1.4237	0.0007

System: dichloromethane; phases: Liquid
Property: Mass density, kg/m3 (Liquid); method: VIBTUB:UFactor:4
Temperature, K	Pressure, kPa	Mass density, kg/m3	uncertainty
293.15	101.325	1321	1

System: acetic acid; phases: Liquid
Property: Refractive index (Na D-line) (Liquid); method: Standard Abbe refractometry
Temperature, K	Pressure, kPa	Refractive index (Na D-line)	uncertainty
293.15	101.325	1.3718	0.0008

System: acetic acid; phases: Liquid
Property: Mass density, kg/m3 (Liquid); method: VIBTUB:UFactor:8
Temperature, K	Pressure, kPa	Mass density, kg/m3	uncertainty
293.15	101.325	1050	1

System: acetonitrile; phases: Liquid
Property: Refractive index (Na D-line) (Liquid); method: Standard Abbe refractometry
Temperature, K	Pressure, kPa	Refractive index (Na D-line)	uncertainty
293.15	101.325	1.343	0.0007

System: acetonitrile; phases: Liquid
Property: Mass density, kg/m3 (Liquid); method: VIBTUB:UFactor:2
Temperature, K	Pressure, kPa	Mass density, kg/m3	uncertainty
293.15	101.325	783	1

System: acetone; phases: Liquid
Property: Refractive index (Na D-line) (Liquid); method: Standard Abbe refractometry
Temperature, K	Pressure, kPa	Refractive index (Na D-line)	uncertainty
293.15	101.325	1.359	0.0007

System: acetone; phases: Liquid
Property: Mass density, kg/m3 (Liquid); method: VIBTUB:UFactor:4
Temperature, K	Pressure, kPa	Mass density, kg/m3	uncertainty
293.15	101.325	790	1

System: ethyl acetate; phases: Liquid
Property: Refractive index (Na D-line) (Liquid); method: Standard Abbe refractometry
Temperature, K	Pressure, kPa	Refractive index (Na D-line)	uncertainty
293.15	101.325	1.3719	0.0007

System: ethyl acetate; phases: Liquid
Property: Mass density, kg/m3 (Liquid); method: VIBTUB:UFactor:4
Temperature, K	Pressure, kPa	Mass density, kg/m3	uncertainty
293.15	101.325	899	1

System: dichloromethane + 3,9-dichloro-2,4,8,10-tetraoxa-3,9-diphosphaspiro[5.5]undecane-3,9-dioxide; phases: Liquid, Crystal
Fixed: Pressure, kPa = 101
Property: Mole fraction of 3,9-dichloro-2,4,8,10-tetraoxa-3,9-diphosphaspiro[5.5]undecane-3,9-dioxide (Liquid); method: gravimetric method
Temperature, K	Mole fraction of 3,9-dichloro-2,4,8,10-tetraoxa-3,9-diphosphaspiro[5.5]undecane-3,9-dioxide	uncertainty
303.15	0.00079	3e-05
305.45	0.00137	6e-05
307.65	0.00232	0.0001
309.85	0.00362	0.00015
311.35	0.00527	0.00022

System: acetic acid + 3,9-dichloro-2,4,8,10-tetraoxa-3,9-diphosphaspiro[5.5]undecane-3,9-dioxide; phases: Liquid, Crystal
Fixed: Pressure, kPa = 101
Property: Mole fraction of 3,9-dichloro-2,4,8,10-tetraoxa-3,9-diphosphaspiro[5.5]undecane-3,9-dioxide (Liquid); method: gravimetric method
Temperature, K	Mole fraction of 3,9-dichloro-2,4,8,10-tetraoxa-3,9-diphosphaspiro[5.5]undecane-3,9-dioxide	uncertainty
298.15	0.00225	0.00023
303.15	0.00312	0.00031
310.65	0.00426	0.00043
316.45	0.00561	0.00056
322.15	0.00619	0.00062
330.85	0.00949	0.00095
335.55	0.01072	0.00108
342.15	0.01421	0.00143
350.25	0.02076	0.00209
357.65	0.02844	0.00286

System: acetonitrile + 3,9-dihydroxy-2,4,8,10-tetraoxa-3,9-diphosphaspiro[5.5]undecane-3,9-dioxide; phases: Liquid, Crystal
Fixed: Pressure, kPa = 101
Property: Mole fraction of 3,9-dihydroxy-2,4,8,10-tetraoxa-3,9-diphosphaspiro[5.5]undecane-3,9-dioxide (Liquid); method: gravimetric method
Temperature, K	Mole fraction of 3,9-dihydroxy-2,4,8,10-tetraoxa-3,9-diphosphaspiro[5.5]undecane-3,9-dioxide	uncertainty
309.35	0.00059	3e-05
311.25	0.00071	3e-05
313.25	0.00089	4e-05
315.45	0.00104	5e-05
317.35	0.0012	6e-05
319.55	0.00151	7e-05
321.55	0.00172	8e-05
323.25	0.00197	9e-05
325.75	0.00245	0.00012
327.45	0.00282	0.00014
329.45	0.00317	0.00015
331.55	0.00376	0.00018

System: acetone + 3,9-dihydroxy-2,4,8,10-tetraoxa-3,9-diphosphaspiro[5.5]undecane-3,9-dioxide; phases: Liquid, Crystal
Fixed: Pressure, kPa = 101
Property: Mole fraction of 3,9-dihydroxy-2,4,8,10-tetraoxa-3,9-diphosphaspiro[5.5]undecane-3,9-dioxide (Liquid); method: gravimetric method
Temperature, K	Mole fraction of 3,9-dihydroxy-2,4,8,10-tetraoxa-3,9-diphosphaspiro[5.5]undecane-3,9-dioxide	uncertainty
295.75	0.00399	0.00018
297.55	0.00412	0.00019
299.85	0.00428	0.00019
301.45	0.0044	0.0002
303.15	0.00452	0.0002
305.35	0.00469	0.00021
307.95	0.00489	0.00022
309.15	0.00499	0.00022
313.35	0.00533	0.00024
317.15	0.00565	0.00025
319.15	0.00582	0.00026

System: water + 2,4,8,10-tetraoxa-3,9-dioxide-3,9-diphosphaspiro[5.5]undecane-3,9-melamine salt; phases: Liquid, Crystal
Fixed: Pressure, kPa = 101
Property: Mole fraction of 2,4,8,10-tetraoxa-3,9-dioxide-3,9-diphosphaspiro[5.5]undecane-3,9-melamine salt (Liquid); method: gravimetric method
Temperature, K	Mole fraction of 2,4,8,10-tetraoxa-3,9-dioxide-3,9-diphosphaspiro[5.5]undecane-3,9-melamine salt	uncertainty
293.15	0.00069	7e-05
298.35	0.0008	8e-05
303.15	0.00087	9e-05
308.25	0.00104	0.00011
313.15	0.00127	0.00013
318.45	0.00133	0.00014
323.15	0.00171	0.00018
328.15	0.0021	0.00022
333.15	0.00265	0.00028
338.45	0.00306	0.00032
343.15	0.00347	0.00036

System: ethyl acetate + 3,9-(bis-2,2'-carboxyetheyl)-3,9-dioxo-2,4,8,-10-tetraoxa-3,9-diphosphaspiro*5.5]undecane; phases: Liquid, Crystal
Fixed: Pressure, kPa = 101
Property: Mole fraction of 3,9-(bis-2,2'-carboxyetheyl)-3,9-dioxo-2,4,8,-10-tetraoxa-3,9-diphosphaspiro*5.5]undecane (Liquid); method: gravimetric method
Temperature, K	Mole fraction of 3,9-(bis-2,2'-carboxyetheyl)-3,9-dioxo-2,4,8,-10-tetraoxa-3,9-diphosphaspiro*5.5]undecane	uncertainty
332.15	0.00082	4e-05
334.25	0.00108	6e-05
336.05	0.00151	8e-05
338.35	0.00223	0.00011
340.15	0.0029	0.00015
342.15	0.00348	0.00018
