Measured thermophysical data. Solubilities of Benzene, Toluene, and Xylene Isomers in 1-Butyl-3-methylimidazolium Tetrafluoroborate
Source: J. Chem. Eng. Data, 2006, 10.1021/je060041w
Compound 1: benzene, C6H6, InChI=1S/C6H6/c1-2-4-6-5-3-1/h1-6H, purity 99.5%
Compound 2: toluene, C7H8, InChI=1S/C7H8/c1-7-5-3-2-4-6-7/h2-6H,1H3, purity 99.5%
Compound 3: 1,2-dimethylbenzene, C8H10, InChI=1S/C8H10/c1-7-5-3-4-6-8(7)2/h3-6H,1-2H3, purity 98.5%
Compound 4: 1,3-dimethylbenzene, C8H10, InChI=1S/C8H10/c1-7-4-3-5-8(2)6-7/h3-6H,1-2H3, purity 98.5%
Compound 5: 1,4-dimethylbenzene, C8H10, InChI=1S/C8H10/c1-7-3-5-8(2)6-4-7/h3-6H,1-2H3, purity 99.5%
Compound 6: 1-butyl-3-methylimidazolium tetrafluoroborate, C8H15BF4N2, InChI=1S/C8H15N2.BF4/c1-3-4-5-10-7-6-9(2)8-10;2-1(3,4)5/h6-8H,3-5H2,1-2H3;/q+1;-1

System: benzene + 1-butyl-3-methylimidazolium tetrafluoroborate; phases: Liquid mixture 1, Liquid mixture 2
Fixed: Pressure, kPa = 101
Property: Mass fraction of benzene (Liquid mixture 1); method: Titration method
Temperature, K	Mass fraction of benzene	uncertainty
298.21	0.00023	0.0002
308.33	0.000576	0.0002
313.62	0.000765	0.0002
318.77	0.000969	0.000201
323.2	0.001199	0.000201
333.58	0.001555	0.000201
343.53	0.001873	0.000202

System: benzene + 1-butyl-3-methylimidazolium tetrafluoroborate; phases: Liquid mixture 2, Liquid mixture 1
Fixed: Pressure, kPa = 101
Property: Mass fraction of 1-butyl-3-methylimidazolium tetrafluoroborate (Liquid mixture 2); method: Titration method
Temperature, K	Mass fraction of 1-butyl-3-methylimidazolium tetrafluoroborate	uncertainty
298.47	0.000471	0.000201
302.97	0.000766	0.000201
308.23	0.001098	0.000201
313.35	0.001428	0.000201
318.35	0.001741	0.000202
323.28	0.001967	0.000202
333.82	0.002314	0.000203
343.96	0.002731	0.000204

System: toluene + 1-butyl-3-methylimidazolium tetrafluoroborate; phases: Liquid mixture 1, Liquid mixture 2
Fixed: Pressure, kPa = 101
Property: Mass fraction of toluene (Liquid mixture 1); method: Titration method
Temperature, K	Mass fraction of toluene	uncertainty
298.55	0.000376	0.0002
303.15	0.000597	0.0002
308.35	0.000907	0.000201
312.95	0.001036	0.000201
318.15	0.001295	0.000201
323.05	0.001489	0.000201
333.15	0.001774	0.000202
343.15	0.00198	0.000202
353.15	0.0022	0.000202

System: toluene + 1-butyl-3-methylimidazolium tetrafluoroborate; phases: Liquid mixture 2, Liquid mixture 1
Fixed: Pressure, kPa = 101
Property: Mass fraction of 1-butyl-3-methylimidazolium tetrafluoroborate (Liquid mixture 2); method: Titration method
Temperature, K	Mass fraction of 1-butyl-3-methylimidazolium tetrafluoroborate	uncertainty
301.47	0.000763	0.000201
308.2	0.001231	0.000201
318.18	0.00182	0.000202
326.19	0.002287	0.000203
333.22	0.002735	0.000204
343.18	0.00315	0.000205
353.41	0.003753	0.000207

System: 1,2-dimethylbenzene + 1-butyl-3-methylimidazolium tetrafluoroborate; phases: Liquid mixture 1, Liquid mixture 2
Fixed: Pressure, kPa = 101
Property: Mass fraction of 1,2-dimethylbenzene (Liquid mixture 1); method: Titration method
Temperature, K	Mass fraction of 1,2-dimethylbenzene	uncertainty
298.63	0.000246	0.0002
303.2	0.000508	0.0002
307.96	0.000785	0.000201
313.65	0.00112	0.000201
319.66	0.001465	0.000201
324.2	0.001695	0.000202
334.15	0.00219	0.000203
343.51	0.002546	0.000203
352.33	0.00296	0.000205

System: 1,2-dimethylbenzene + 1-butyl-3-methylimidazolium tetrafluoroborate; phases: Liquid mixture 2, Liquid mixture 1
Fixed: Pressure, kPa = 101
Property: Mass fraction of 1-butyl-3-methylimidazolium tetrafluoroborate (Liquid mixture 2); method: Titration method
Temperature, K	Mass fraction of 1-butyl-3-methylimidazolium tetrafluoroborate	uncertainty
298.57	0.000803	0.000201
303.18	0.001203	0.000201
311.61	0.001802	0.000202
322.83	0.002527	0.000204
333.19	0.003156	0.000205
344.4	0.003769	0.000207
353.35	0.004281	0.000209

System: 1,3-dimethylbenzene + 1-butyl-3-methylimidazolium tetrafluoroborate; phases: Liquid mixture 1, Liquid mixture 2
Fixed: Pressure, kPa = 101
Property: Mass fraction of 1,3-dimethylbenzene (Liquid mixture 1); method: Titration method
Temperature, K	Mass fraction of 1,3-dimethylbenzene	uncertainty
298.65	0.00039	0.0002
313.15	0.000696	0.0002
317.95	0.000806	0.0002
323.15	0.000959	0.000201
333.15	0.00121	0.000201
343.15	0.001431	0.000201
353.15	0.00175	0.000202

System: 1,3-dimethylbenzene + 1-butyl-3-methylimidazolium tetrafluoroborate; phases: Liquid mixture 2, Liquid mixture 1
Fixed: Pressure, kPa = 101
Property: Mass fraction of 1-butyl-3-methylimidazolium tetrafluoroborate (Liquid mixture 2); method: Titration method
Temperature, K	Mass fraction of 1-butyl-3-methylimidazolium tetrafluoroborate	uncertainty
302.2	0.0405	0.0101
311.67	0.0864	0.0101
321.68	0.1439	0.0103
326.05	0.1662	0.0103
335.66	0.2184	0.0105
341.41	0.2553	0.0107
352.49	0.3114	0.011

System: 1,4-dimethylbenzene + 1-butyl-3-methylimidazolium tetrafluoroborate; phases: Liquid mixture 1, Liquid mixture 2
Fixed: Pressure, kPa = 101
Property: Mass fraction of 1,4-dimethylbenzene (Liquid mixture 1); method: Titration method
Temperature, K	Mass fraction of 1,4-dimethylbenzene	uncertainty
298.28	0.000262	0.0002
303.05	0.000484	0.0002
308.1	0.000717	0.0002
313.19	0.000925	0.000201
318.01	0.001159	0.000201
323.55	0.001352	0.000201
333.19	0.0016	0.000201
343.02	0.001848	0.000202
352.01	0.00211	0.000202

System: 1,4-dimethylbenzene + 1-butyl-3-methylimidazolium tetrafluoroborate; phases: Liquid mixture 2, Liquid mixture 1
Fixed: Pressure, kPa = 101
Property: Mass fraction of 1-butyl-3-methylimidazolium tetrafluoroborate (Liquid mixture 2); method: Titration method
Temperature, K	Mass fraction of 1-butyl-3-methylimidazolium tetrafluoroborate	uncertainty
301.63	0.00052	0.000201
308.25	0.000968	0.000201
313.93	0.001361	0.000201
318.35	0.001683	0.000202
325.45	0.002041	0.000202
333.53	0.002433	0.000203
342.87	0.002808	0.000204
353.65	0.003289	0.000206
