Measured thermophysical data. Critical Temperatures and Pressures of 12 Phthalates Using the Pulse-Heating Method
Source: J. Chem. Eng. Data, 2006, 10.1021/je060068f
Compound 1: dimethyl 1,2-benzenedicarboxylate, C10H10O4, InChI=1S/C10H10O4/c1-13-9(11)7-5-3-4-6-8(7)10(12)14-2/h3-6H,1-2H3
Compound 2: diethyl phthalate, C12H14O4, InChI=1S/C12H14O4/c1-3-15-11(13)9-7-5-6-8-10(9)12(14)16-4-2/h5-8H,3-4H2,1-2H3
Compound 3: 1,2-benzenedicarboxylic acid dipropyl ester, C14H18O4, InChI=1S/C14H18O4/c1-3-9-17-13(15)11-7-5-6-8-12(11)14(16)18-10-4-2/h5-8H,3-4,9-10H2,1-2H3
Compound 4: dibutyl phthalate, C16H22O4, InChI=1S/C16H22O4/c1-3-5-11-19-15(17)13-9-7-8-10-14(13)16(18)20-12-6-4-2/h7-10H,3-6,11-12H2,1-2H3
Compound 5: dipentyl 1,2-butanedioate, C18H26O4, InChI=1S/C18H26O4/c1-3-5-9-13-21-17(19)15-11-7-8-12-16(15)18(20)22-14-10-6-4-2/h7-8,11-12H,3-6,9-10,13-14H2,1-2H3
Compound 6: dihexyl phthalate, C20H30O4, InChI=1S/C20H30O4/c1-3-5-7-11-15-23-19(21)17-13-9-10-14-18(17)20(22)24-16-12-8-6-4-2/h9-10,13-14H,3-8,11-12,15-16H2,1-2H3
Compound 7: diheptyl phthalate, C22H34O4, InChI=1S/C22H34O4/c1-3-5-7-9-13-17-25-21(23)19-15-11-12-16-20(19)22(24)26-18-14-10-8-6-4-2/h11-12,15-16H,3-10,13-14,17-18H2,1-2H3
Compound 8: dioctyl 1,2-benzenedicarboxylate, C24H38O4, InChI=1S/C24H38O4/c1-3-5-7-9-11-15-19-27-23(25)21-17-13-14-18-22(21)24(26)28-20-16-12-10-8-6-4-2/h13-14,17-18H,3-12,15-16,19-20H2,1-2H3
Compound 9: bis(2-ethylhexyl) 1,2-benzenedicarboxylate, C24H38O4, InChI=1S/C24H38O4/c1-5-9-13-19(7-3)17-27-23(25)21-15-11-12-16-22(21)24(26)28-18-20(8-4)14-10-6-2/h11-12,15-16,19-20H,5-10,13-14,17-18H2,1-4H3
Compound 10: dinonyl phthalate, C26H42O4, InChI=1S/C26H42O4/c1-3-5-7-9-11-13-17-21-29-25(27)23-19-15-16-20-24(23)26(28)30-22-18-14-12-10-8-6-4-2/h15-16,19-20H,3-14,17-18,21-22H2,1-2H3
Compound 11: didecyl phthalate, C28H46O4, InChI=1S/C28H46O4/c1-3-5-7-9-11-13-15-19-23-31-27(29)25-21-17-18-22-26(25)28(30)32-24-20-16-14-12-10-8-6-4-2/h17-18,21-22H,3-16,19-20,23-24H2,1-2H3
Compound 12: diundecyl phthalate, C30H50O4, InChI=1S/C30H50O4/c1-3-5-7-9-11-13-15-17-21-25-33-29(31)27-23-19-20-24-28(27)30(32)34-26-22-18-16-14-12-10-8-6-4-2/h19-20,23-24H,3-18,21-22,25-26H2,1-2H3

System: dimethyl 1,2-benzenedicarboxylate; phases: Liquid, Gas
Property: Critical pressure, kPa (Liquid); method: pulse-heating method
Critical pressure, kPa	uncertainty
2770	100

System: dimethyl 1,2-benzenedicarboxylate; phases: Liquid, Gas
Property: Critical temperature, K (Liquid); method: pulse-heating method
Critical temperature, K	uncertainty
772	9

System: diethyl phthalate; phases: Liquid, Gas
Property: Critical pressure, kPa (Liquid); method: pulse-heating method
Critical pressure, kPa	uncertainty
2260	80

System: diethyl phthalate; phases: Liquid, Gas
Property: Critical temperature, K (Liquid); method: pulse-heating method
Critical temperature, K	uncertainty
776	9

System: 1,2-benzenedicarboxylic acid dipropyl ester; phases: Liquid, Gas
Property: Critical pressure, kPa (Liquid); method: pulse-heating method
Critical pressure, kPa	uncertainty
1900	70

System: 1,2-benzenedicarboxylic acid dipropyl ester; phases: Liquid, Gas
Property: Critical temperature, K (Liquid); method: pulse-heating method
Critical temperature, K	uncertainty
784	9

System: dibutyl phthalate; phases: Liquid, Gas
Property: Critical pressure, kPa (Liquid); method: pulse-heating method
Critical pressure, kPa	uncertainty
1660	60

System: dibutyl phthalate; phases: Liquid, Gas
Property: Critical temperature, K (Liquid); method: pulse-heating method
Critical temperature, K	uncertainty
797	9

System: dipentyl 1,2-butanedioate; phases: Liquid, Gas
Property: Critical pressure, kPa (Liquid); method: pulse-heating method
Critical pressure, kPa	uncertainty
1430	50

System: dipentyl 1,2-butanedioate; phases: Liquid, Gas
Property: Critical temperature, K (Liquid); method: pulse-heating method
Critical temperature, K	uncertainty
811	9

System: dihexyl phthalate; phases: Liquid, Gas
Property: Critical pressure, kPa (Liquid); method: pulse-heating method
Critical pressure, kPa	uncertainty
1340	50

System: dihexyl phthalate; phases: Liquid, Gas
Property: Critical temperature, K (Liquid); method: pulse-heating method
Critical temperature, K	uncertainty
817	9

System: diheptyl phthalate; phases: Liquid, Gas
Property: Critical pressure, kPa (Liquid); method: pulse-heating method
Critical pressure, kPa	uncertainty
1240	40

System: diheptyl phthalate; phases: Liquid, Gas
Property: Critical temperature, K (Liquid); method: pulse-heating method
Critical temperature, K	uncertainty
830	9

System: dioctyl 1,2-benzenedicarboxylate; phases: Liquid, Gas
Property: Critical pressure, kPa (Liquid); method: pulse-heating method
Critical pressure, kPa	uncertainty
1080	40

System: dioctyl 1,2-benzenedicarboxylate; phases: Liquid, Gas
Property: Critical temperature, K (Liquid); method: pulse-heating method
Critical temperature, K	uncertainty
840	9

System: bis(2-ethylhexyl) 1,2-benzenedicarboxylate; phases: Liquid, Gas
Property: Critical pressure, kPa (Liquid); method: pulse-heating method
Critical pressure, kPa	uncertainty
1070	40

System: bis(2-ethylhexyl) 1,2-benzenedicarboxylate; phases: Liquid, Gas
Property: Critical temperature, K (Liquid); method: pulse-heating method
Critical temperature, K	uncertainty
835	9

System: dinonyl phthalate; phases: Liquid, Gas
Property: Critical pressure, kPa (Liquid); method: pulse-heating method
Critical pressure, kPa	uncertainty
1020	40

System: dinonyl phthalate; phases: Liquid, Gas
Property: Critical temperature, K (Liquid); method: pulse-heating method
Critical temperature, K	uncertainty
858	9

System: didecyl phthalate; phases: Liquid, Gas
Property: Critical pressure, kPa (Liquid); method: pulse-heating method
Critical pressure, kPa	uncertainty
940	30

System: didecyl phthalate; phases: Liquid, Gas
Property: Critical temperature, K (Liquid); method: pulse-heating method
Critical temperature, K	uncertainty
870	10

System: diundecyl phthalate; phases: Liquid, Gas
Property: Critical pressure, kPa (Liquid); method: pulse-heating method
Critical pressure, kPa	uncertainty
890	30

System: diundecyl phthalate; phases: Liquid, Gas
Property: Critical temperature, K (Liquid); method: pulse-heating method
Critical temperature, K	uncertainty
886	10
