Measured thermophysical data. Experimental Determination and Correlation of Artemisinin s Solubility in Supercritical Carbon Dioxide
Source: J. Chem. Eng. Data, 2006, 10.1021/je060015y
Compound 1: carbon dioxide, CO2, InChI=1S/CO2/c2-1-3, purity 99.99%
Compound 2: artemisinin, C15H22O5, InChI=1S/C15H22O5/c1-8-4-5-11-9(2)12(16)17-13-15(11)10(8)6-7-14(3,18-13)19-20-15/h8-11,13H,4-7H2,1-3H3/t8-,9-,10+,11+,13-,14-,15-/m1/s1, purity 99%

System: carbon dioxide + artemisinin; phases: Fluid (supercritical or subcritical phases), Crystal
Property: Mole fraction of artemisinin (Fluid (supercritical or subcritical phases)); method: UV Spectroscopy
Temperature, K	Pressure, kPa	Mole fraction of artemisinin	uncertainty
308.2	10400	0.000701	0.000141
308.2	13200	0.000925	0.000185
308.2	16300	0.001134	0.000227
308.2	18600	0.001521	0.000305
308.2	21600	0.001716	0.000344
308.2	25200	0.001788	0.000358
318.2	10400	0.000603	0.000121
318.2	15300	0.001191	0.000239
318.2	18000	0.00161	0.000323
318.2	21300	0.001825	0.000366
318.2	24300	0.002009	0.000403
328.2	13500	0.000847	0.00017
328.2	15900	0.001284	0.000257
328.2	18500	0.001908	0.000382
328.2	22100	0.002237	0.000448
328.2	24700	0.002514	0.000504
