Measured thermophysical data. Solubility of Ethane in Aqueous Solutions of Monoethanolamine and Diethanolamine
Source: J. Chem. Eng. Data, 2006, 10.1021/je060031v
Compound 1: 2-aminoethan-1-ol, C2H7NO, InChI=1S/C2H7NO/c3-1-2-4/h4H,1-3H2, purity 99.5%
Compound 2: diethanolamine, C4H11NO2, InChI=1S/C4H11NO2/c6-3-1-5-2-4-7/h5-7H,1-4H2, purity 99.5%
Compound 3: ethane, C2H6, InChI=1S/C2H6/c1-2/h1-2H3, purity 99%
Compound 4: water, H2O, InChI=1S/H2O/h1H2

System: ethane + 2-aminoethan-1-ol + water; phases: Liquid, Gas
Fixed: Solvent: Amount concentration (molarity), mol/dm3 of 2-aminoethan-1-ol = 3
Property: Mole fraction of ethane (Liquid); method: Gas volume after depressurization
Temperature, K	Pressure, kPa	Mole fraction of ethane	uncertainty
298.15	92	3.9e-05	2e-06
298.15	370	0.000162	1e-05
298.15	907	0.000346	2.1e-05
298.15	2340	0.000829	5e-05
298.15	4215	0.00111	7e-05
323.15	267	8.6e-05	5e-06
323.15	991	0.000274	1.6e-05
323.15	2400	0.000574	3.4e-05
323.15	4150	0.000874	5.2e-05
323.15	6370	0.00113	7e-05
323.15	9140	0.00122	7e-05
323.15	11310	0.00134	8e-05
348.15	276	7e-05	1e-05
348.15	822	0.000195	1.2e-05
348.15	2490	0.000493	3e-05
348.15	4090	0.000726	4.4e-05
348.15	5760	0.000931	5.6e-05
348.15	6990	0.00109	7e-05
348.15	10030	0.0012	7e-05
348.15	13100	0.00126	8e-05
373.15	279	6.8e-05	4e-06
373.15	854	0.000191	1.1e-05
373.15	2990	0.000597	3.6e-05
373.15	5110	0.000926	5.6e-05
373.15	6310	0.000982	5.9e-05
373.15	9970	0.00134	8e-05
373.15	12610	0.00142	9e-05
398.15	294	7.19e-05	4.3e-06
398.15	838	0.000213	1.3e-05
398.15	2370	0.000618	3.7e-05
398.15	4200	0.000943	5.7e-05
398.15	6290	0.00123	7e-05
398.15	8820	0.0016	0.0001
398.15	12620	0.00197	0.00012

System: ethane + diethanolamine + water; phases: Liquid, Gas
Fixed: Solvent: Amount concentration (molarity), mol/dm3 of diethanolamine = 3
Property: Mole fraction of ethane (Liquid); method: Gas volume after depressurization
Temperature, K	Pressure, kPa	Mole fraction of ethane	uncertainty
298.15	92	5e-05	3e-06
298.15	507	0.000248	1.5e-05
298.15	1510	0.000659	4e-05
298.15	2530	0.00109	7e-05
298.15	4218	0.00135	8e-05
323.15	244	9.1e-05	5e-06
323.15	783	0.000257	1.5e-05
323.15	2560	0.000722	4.3e-05
323.15	4070	0.000976	5.9e-05
323.15	6210	0.00125	8e-05
323.15	8420	0.00132	8e-05
323.15	10610	0.00145	9e-05
323.15	12140	0.00143	9e-05
348.15	248	7.2e-05	4e-06
348.15	812	0.000243	1.5e-05
348.15	2530	0.000664	4e-05
348.15	4190	0.000926	5.6e-05
348.15	6170	0.00125	8e-05
348.15	8610	0.00144	9e-05
348.15	10120	0.00155	9e-05
348.15	13200	0.00163	0.0001
373.15	200	6.5e-05	4e-06
373.15	896	0.000261	1.6e-05
373.15	2440	0.000608	3.7e-05
373.15	4060	0.000973	5.8e-05
373.15	6790	0.00139	8e-05
373.15	10510	0.00181	0.00011
373.15	12780	0.00192	0.00012
398.15	279	8.8e-05	5e-06
398.15	1010	0.000318	1.9e-05
398.15	2980	0.000807	4.8e-05
398.15	4240	0.00114	7e-05
398.15	7460	0.00168	0.0001
398.15	9570	0.00201	0.00012
398.15	12110	0.00231	0.00014
