Measured thermophysical data. Solid-Liquid Equilibria for Binary Organic Systems Containing 1-Methoxy-2-propanol and 2-Butoxy Ethanol
Source: J. Chem. Eng. Data, 2006, 10.1021/je060229f
Compound 1: 1-methoxy-2-propanol, C4H10O2, InChI=1S/C4H10O2/c1-4(5)3-6-2/h4-5H,3H2,1-2H3
Compound 2: 2-butoxyethan-1-ol, C6H14O2, InChI=1S/C6H14O2/c1-2-3-5-8-6-4-7/h7H,2-6H2,1H3
Compound 3: benzene, C6H6, InChI=1S/C6H6/c1-2-4-6-5-3-1/h1-6H
Compound 4: cyclohexane, C6H12, InChI=1S/C6H12/c1-2-4-6-5-3-1/h1-6H2

System: 1-methoxy-2-propanol; phases: Crystal, Liquid, Air at 1 atmosphere
Property: Molar enthalpy of transition or fusion, kJ/mol (Crystal); method: DSC
Molar enthalpy of transition or fusion, kJ/mol	uncertainty
3.607	0.168

System: benzene; phases: Crystal, Liquid, Air at 1 atmosphere
Property: Normal melting temperature, K (Crystal); method: VISOBS
Normal melting temperature, K	uncertainty
278.95	0.25

System: cyclohexane; phases: Crystal 1, Liquid, Air at 1 atmosphere
Property: Normal melting temperature, K (Crystal 1); method: VISOBS
Normal melting temperature, K	uncertainty
279.96	0.25

System: benzene + 1-methoxy-2-propanol; phases: Liquid, Crystal
Fixed: Pressure, kPa = 101
Property: Solid-liquid equilibrium temperature, K (Liquid); method: VISOBS
Mole fraction of 1-methoxy-2-propanol	Solid-liquid equilibrium temperature, K	uncertainty
0	278.95	0.25
0.049	276.5	0.48
0.1013	274.73	0.4
0.1497	273.32	0.4
0.2008	271.64	0.41
0.2209	271.02	0.39
0.3029	268.35	0.44
0.3498	266.3	0.48
0.3999	264.29	0.51
0.4503	261.84	0.59
0.5	258.92	0.61
0.545	256.52	0.68
0.5995	252.62	0.84
0.6501	248.09	1.05
0.7005	242.3	1.21
0.7478	236.48	1.47
0.7996	227.95	1.91
0.85	217.1	2.17

System: 1-methoxy-2-propanol + cyclohexane; phases: Liquid, Crystal 1
Fixed: Pressure, kPa = 101
Property: Solid-liquid equilibrium temperature, K (Liquid); method: VISOBS
Mole fraction of 1-methoxy-2-propanol	Solid-liquid equilibrium temperature, K	uncertainty
0	279.96	0.25
0.0509	274.26	0.87
0.1002	271.65	0.49
0.1524	269.89	0.38
0.2011	268.74	0.35
0.2508	267.5	0.33
0.2993	266.58	0.31
0.3504	265.57	0.32
0.3998	264.5	0.34
0.4508	263.14	0.35
0.4995	262.07	0.35
0.5498	260.61	0.45
0.5992	258.36	0.55
0.6501	255.7	0.68
0.6999	251.99	0.88
0.7487	247.33	1.23
0.8	239.93	2
0.8507	227.09	2.54

System: benzene + 2-butoxyethan-1-ol; phases: Liquid, Crystal
Fixed: Pressure, kPa = 101
Property: Solid-liquid equilibrium temperature, K (Liquid); method: VISOBS
Mole fraction of 2-butoxyethan-1-ol	Solid-liquid equilibrium temperature, K	uncertainty
0	278.95	0.25
0.0504	276.85	0.44
0.1007	275.22	0.42
0.1496	273.5	0.44
0.201	271.6	0.44
0.2508	269.84	0.45
0.2991	267.93	0.5
0.3509	265.51	0.6
0.4007	262.36	0.65
0.4499	259.6	0.7
0.4994	255.88	0.84
0.5504	251.55	0.96
0.6003	246.49	1
0.6486	242.02	1.13
0.6996	235.59	1.39
0.7501	228.12	1.53
0.8001	220.43	1.56

System: cyclohexane + 2-butoxyethan-1-ol; phases: Liquid, Crystal 1
Fixed: Pressure, kPa = 101
Property: Solid-liquid equilibrium temperature, K (Liquid); method: VISOBS
Mole fraction of 2-butoxyethan-1-ol	Solid-liquid equilibrium temperature, K	uncertainty
0	279.96	0.25
0.0529	274.49	0.85
0.1021	271.72	0.57
0.1501	269.45	0.52
0.2005	267.16	0.54
0.2508	264.61	0.54
0.2974	262.51	0.59
0.3038	262.45	0.59
0.3516	259.2	0.72
0.4009	255.85	0.85
0.4494	251.19	0.97
0.5012	246.44	1.07
0.5532	240.34	1.28
0.6	233.99	1.56
0.6502	225.38	1.8
0.6997	216.22	1.87
