Measured thermophysical data. Temperature and Composition Dependence of the Density and Viscosity of Binary Mixtures of Water + Ionic Liquid
Source: J. Chem. Eng. Data, 2006, 10.1021/je0602824
Compound 1: 1-ethyl-3-methylimidazolium ethyl sulfate, C8H16N2O4S, InChI=1S/C6H11N2.C2H6O4S/c1-3-8-5-4-7(2)6-8;1-2-6-7(3,4)5/h4-6H,3H2,1-2H3;2H2,1H3,(H,3,4,5)/q+1;/p-1
Compound 2: 1-ethyl-3-methylimidazolium trifluoroacetate, C8H11F3N2O2, InChI=1S/C6H11N2.C2HF3O2/c1-3-8-5-4-7(2)6-8;3-2(4,5)1(6)7/h4-6H,3H2,1-2H3;(H,6,7)/q+1;/p-1
Compound 3: 1-ethyl-3-methylimidazolium trifluoromethanesulfonate, C7H11F3N2O3S, InChI=1S/C6H11N2.CHF3O3S/c1-3-8-5-4-7(2)6-8;2-1(3,4)8(5,6)7/h4-6H,3H2,1-2H3;(H,5,6,7)/q+1;/p-1
Compound 4: water, H2O, InChI=1S/H2O/h1H2

System: 1-ethyl-3-methylimidazolium ethyl sulfate; phases: Liquid
Fixed: Pressure, kPa = 101
Property: Viscosity, Pa*s (Liquid); method: CONPLT:UFactor:4
Temperature, K	Viscosity, Pa*s	uncertainty
278.15	0.308	0.046
288.15	0.166	0.017
298.15	0.095	0.006
308.15	0.062	0.004
318.15	0.041	0.002
328.15	0.03	0.002
338.15	0.021	0.002
348.15	0.017	0.002

System: 1-ethyl-3-methylimidazolium ethyl sulfate; phases: Liquid
Fixed: Pressure, kPa = 101
Property: Mass density, kg/m3 (Liquid); method: VIBTUB:UFactor:16
Temperature, K	Mass density, kg/m3	uncertainty
278.15	1251.12	3.33
288.15	1244.13	3.27
298.15	1237.37	3.22
308.15	1230.61	3.16
318.15	1223.9	3.11
328.15	1217.23	3.05
338.15	1210.6	3
348.15	1204.01	2.94

System: 1-ethyl-3-methylimidazolium trifluoroacetate; phases: Liquid
Fixed: Pressure, kPa = 101
Property: Viscosity, Pa*s (Liquid); method: CONPLT:UFactor:4
Temperature, K	Viscosity, Pa*s	uncertainty
278.15	0.078	0.006
288.15	0.048	0.003
298.15	0.032	0.002
308.15	0.023	0.002
318.15	0.017	0.002
328.15	0.013	0.002
338.15	0.01	0.002
348.15	0.009	0.002

System: 1-ethyl-3-methylimidazolium trifluoroacetate; phases: Liquid
Fixed: Pressure, kPa = 101
Property: Mass density, kg/m3 (Liquid); method: VIBTUB:UFactor:16
Temperature, K	Mass density, kg/m3	uncertainty
278.15	1306.89	11.58
288.15	1298.81	11.42
298.15	1290.8	11.25
308.15	1282.85	11.09
318.15	1274.95	10.94
328.15	1267.12	10.78
338.15	1259.35	10.63
348.15	1251.63	10.48

System: 1-ethyl-3-methylimidazolium trifluoromethanesulfonate; phases: Liquid
Fixed: Pressure, kPa = 101
Property: Viscosity, Pa*s (Liquid); method: CONPLT:UFactor:4
Temperature, K	Viscosity, Pa*s	uncertainty
278.15	0.096	0.007
288.15	0.061	0.004
298.15	0.041	0.002
308.15	0.029	0.002
318.15	0.021	0.002
328.15	0.016	0.002
338.15	0.013	0.002
348.15	0.011	0.002

System: 1-ethyl-3-methylimidazolium trifluoromethanesulfonate; phases: Liquid
Fixed: Pressure, kPa = 101
Property: Mass density, kg/m3 (Liquid); method: VIBTUB:UFactor:16
Temperature, K	Mass density, kg/m3	uncertainty
278.15	1400.52	13.52
288.15	1392.04	13.34
298.15	1383.6	13.17
308.15	1375.22	12.99
318.15	1366.9	12.81
328.15	1358.63	12.64
338.15	1350.43	12.47
348.15	1342.3	12.31

System: water + 1-ethyl-3-methylimidazolium ethyl sulfate; phases: Liquid
Fixed: Pressure, kPa = 101
Property: Viscosity, Pa*s (Liquid); method: CONPLT:UFactor:4
Mole fraction of water	Temperature, K	Viscosity, Pa*s	uncertainty
0	298.15	0.095	0.006
0	308.15	0.062	0.004
0.2245	288.15	0.086	0.005
0.2245	298.15	0.054	0.004
0.4084	278.15	0.083	0.005

System: water + 1-ethyl-3-methylimidazolium ethyl sulfate; phases: Liquid
Fixed: Pressure, kPa = 101
Property: Viscosity, Pa*s (Liquid); method: CONPLT:UFactor:4
Mole fraction of water	Temperature, K	Viscosity, Pa*s	uncertainty
0	318.15	0.041	0.002
0	328.15	0.03	0.002
0	338.15	0.021	0.002
0	348.15	0.017	0.002
0.2245	308.15	0.036	0.002
0.2245	318.15	0.026	0.002
0.2245	328.15	0.019	0.002
0.2245	338.15	0.015	0.002
0.2245	348.15	0.012	0.002
0.4084	288.15	0.049	0.002
0.4084	298.15	0.033	0.002
0.4084	308.15	0.023	0.002
0.4084	318.15	0.017	0.002
0.4084	328.15	0.013	0.002
0.4084	338.15	0.011	0.002
0.4084	348.15	0.009	0.002
0.5976	278.15	0.045	0.002
0.5976	288.15	0.027	0.002
0.5976	298.15	0.019	0.002
0.5976	308.15	0.014	0.002
0.5976	318.15	0.011	0.002
0.5976	328.15	0.009	0.002
0.5976	338.15	0.007	0.002
0.5976	348.15	0.006	0.002
0.7675	278.15	0.022	0.002
0.7675	288.15	0.014	0.002
0.7675	298.15	0.01	0.002
0.7675	308.15	0.008	0.002
0.7675	318.15	0.006	0.002
0.7675	328.15	0.006	0.002
0.7675	338.15	0.005	0.002
0.7675	348.15	0.004	0.002
0.9292	278.15	0.006	0.002
0.9292	288.15	0.005	0.002
0.9292	298.15	0.004	0.002
0.9292	308.15	0.004	0.002
0.9292	318.15	0.003	0.002
0.9292	328.15	0.003	0.002
0.9292	338.15	0.003	0.002
0.9292	348.15	0.002	0.002

System: water + 1-ethyl-3-methylimidazolium ethyl sulfate; phases: Liquid
Fixed: Pressure, kPa = 101
Property: Viscosity, Pa*s (Liquid); method: CONPLT:UFactor:4
Mole fraction of water	Temperature, K	Viscosity, Pa*s	uncertainty
0	278.15	0.308	0.046
0	288.15	0.166	0.017
0.0001	278.15	0.308	0.046
0.2245	278.15	0.15	0.015

System: water + 1-ethyl-3-methylimidazolium ethyl sulfate; phases: Liquid
Fixed: Pressure, kPa = 101
Property: Mass density, kg/m3 (Liquid); method: VIBTUB:UFactor:16
Mole fraction of water	Temperature, K	Mass density, kg/m3	uncertainty
0	278.15	1251.12	3.33
0	288.15	1244.13	3.27
0	298.15	1237.37	3.22
0	308.15	1230.61	3.16
0	318.15	1223.9	3.11
0	328.15	1217.23	3.05
0	338.15	1210.6	3
0	348.15	1204.01	2.94
0.2112	278.15	1246.59	2.92
0.2112	288.15	1239.79	2.87
0.2112	298.15	1232.99	2.82
0.2112	308.15	1226.21	2.77
0.2112	318.15	1219.45	2.71
0.2112	328.15	1212.74	2.66
0.2112	338.15	1206.05	2.61
0.2112	348.15	1199.4	2.56
0.4119	278.15	1239.56	2.58
0.4119	288.15	1232.7	2.53
0.4119	298.15	1225.85	2.48
0.4119	308.15	1219.02	2.43
0.4119	318.15	1212.21	2.38
0.4119	328.15	1205.41	2.33
0.4119	338.15	1198.63	2.29
0.4119	348.15	1191.91	2.24
0.5939	278.15	1227.74	2.29
0.5939	288.15	1220.8	2.24
0.5939	298.15	1213.87	2.19
0.5939	308.15	1206.92	2.15
0.5939	318.15	1199.97	2.1
0.5939	328.15	1193.01	2.05
0.5939	338.15	1186.03	2
0.5939	348.15	1179.05	1.96
0.7669	278.15	1201.83	1.97
0.7669	288.15	1194.85	1.92
0.7669	298.15	1187.81	1.87
0.7669	308.15	1180.72	1.83
0.7669	318.15	1173.56	1.78
0.7669	328.15	1166.34	1.73
0.7669	338.15	1159.05	1.68
0.7669	348.15	1151.68	1.64
0.8487	278.15	1175.63	1.74
0.8487	288.15	1168.83	1.7
0.8487	298.15	1161.92	1.65
0.8487	308.15	1154.9	1.61
0.8487	318.15	1147.77	1.56
0.8487	328.15	1140.52	1.51
0.8487	338.15	1133.14	1.47
0.8487	348.15	1125.7	1.42
0.9292	278.15	1120.63	1.34
0.9292	288.15	1115.02	1.31
0.9292	298.15	1109.14	1.27
0.9292	308.15	1103	1.23
0.9292	318.15	1096.59	1.19
0.9292	328.15	1089.92	1.15
0.9292	338.15	1083	1.1
0.9292	348.15	1075.83	1.06
0.9683	278.15	1066.86	0.98
0.9683	288.15	1063.25	0.96
0.9683	298.15	1059.04	0.93
0.9683	308.15	1054.27	0.9
0.9683	318.15	1049.01	0.87
0.9683	328.15	1043.29	0.83
0.9683	338.15	1037.15	0.79
0.9683	348.15	1030.61	0.75
0.9916	278.15	1021.13	0.68
0.9916	288.15	1019.46	0.67
0.9916	298.15	1016.78	0.65
0.9916	308.15	1013.26	0.63
0.9916	318.15	1009.03	0.6
0.9916	328.15	1004.16	0.57
0.9916	338.15	998.72	0.56
0.9916	348.15	992.76	0.59
1	278.15	999.99	0.54
1	288.15	999.13	0.55
1	298.15	997.07	0.56
1	308.15	994.06	0.58
1	318.15	990.23	0.6
1	328.15	985.71	0.63
1	338.15	980.56	0.67
1	348.15	974.84	0.7

System: water + 1-ethyl-3-methylimidazolium trifluoromethanesulfonate; phases: Liquid
Fixed: Mole fraction of water = 0
Fixed: Pressure, kPa = 101
Property: Viscosity, Pa*s (Liquid); method: CONPLT:UFactor:4
Temperature, K	Viscosity, Pa*s	uncertainty
278.15	0.096	0.007
288.15	0.061	0.004

System: water + 1-ethyl-3-methylimidazolium trifluoromethanesulfonate; phases: Liquid
Fixed: Pressure, kPa = 101
Property: Viscosity, Pa*s (Liquid); method: CONPLT:UFactor:4
Mole fraction of water	Temperature, K	Viscosity, Pa*s	uncertainty
0	298.15	0.041	0.002
0	308.15	0.029	0.002
0	318.15	0.021	0.002
0	328.15	0.016	0.002
0	338.15	0.013	0.002
0	348.15	0.011	0.002
0.2286	278.15	0.047	0.003
0.2286	288.15	0.032	0.002
0.2286	298.15	0.023	0.002
0.2286	308.15	0.017	0.002
0.2286	318.15	0.013	0.002
0.2286	328.15	0.01	0.002
0.2286	338.15	0.009	0.002
0.2286	348.15	0.007	0.002
0.4324	278.15	0.028	0.002
0.4324	288.15	0.02	0.002
0.4324	298.15	0.015	0.002
0.4324	308.15	0.012	0.002
0.4324	318.15	0.01	0.002
0.4324	328.15	0.008	0.002
0.4324	338.15	0.007	0.002
0.4324	348.15	0.006	0.002
0.6159	278.15	0.018	0.002
0.6159	288.15	0.013	0.002
0.6159	298.15	0.01	0.002
0.6159	308.15	0.008	0.002
0.6159	318.15	0.007	0.002
0.6159	328.15	0.006	0.002
0.6159	338.15	0.005	0.002
0.6159	348.15	0.005	0.002
0.783	278.15	0.01	0.002
0.783	288.15	0.007	0.002
0.783	298.15	0.006	0.002
0.783	308.15	0.005	0.002
0.783	318.15	0.004	0.002
0.783	328.15	0.004	0.002
0.783	338.15	0.004	0.002
0.783	348.15	0.003	0.002
0.9352	278.15	0.005	0.002
0.9352	288.15	0.004	0.002
0.9352	298.15	0.003	0.002
0.9352	308.15	0.003	0.002
0.9352	318.15	0.003	0.002
0.9352	328.15	0.003	0.002
0.9352	338.15	0.002	0.002
0.9352	348.15	0.002	0.002

System: water + 1-ethyl-3-methylimidazolium trifluoromethanesulfonate; phases: Liquid
Fixed: Pressure, kPa = 101
Property: Mass density, kg/m3 (Liquid); method: VIBTUB:UFactor:16
Mole fraction of water	Temperature, K	Mass density, kg/m3	uncertainty
0	278.15	1400.52	13.52
0	288.15	1392.04	13.34
0	298.15	1383.6	13.17
0	308.15	1375.22	12.99
0	318.15	1366.9	12.81
0	328.15	1358.63	12.64
0	338.15	1350.43	12.47
0	348.15	1342.3	12.31
0.2295	278.15	1388.3	9.3
0.2295	288.15	1379.81	9.17
0.2295	298.15	1371.36	9.04
0.2295	308.15	1362.95	8.91
0.2295	318.15	1354.59	8.78
0.2295	328.15	1346.27	8.65
0.2295	338.15	1338.01	8.53
0.2295	348.15	1329.77	8.41
0.431	278.15	1372.38	6.46
0.431	288.15	1363.87	6.36
0.431	298.15	1355.39	6.27
0.431	308.15	1346.93	6.17
0.431	318.15	1338.49	6.07
0.431	328.15	1330.07	5.98
0.431	338.15	1321.68	5.88
0.431	348.15	1313.29	5.79
0.6157	278.15	1347.34	4.5
0.6157	288.15	1338.87	4.42
0.6157	298.15	1330.37	4.35
0.6157	308.15	1321.86	4.27
0.6157	318.15	1313.33	4.19
0.6157	328.15	1304.78	4.12
0.6157	338.15	1296.19	4.04
0.6157	348.15	1287.58	3.97
0.7825	278.15	1299.91	3.11
0.7825	288.15	1291.74	3.05
0.7825	298.15	1283.47	2.99
0.7825	308.15	1275.1	2.93
0.7825	318.15	1266.62	2.87
0.7825	328.15	1258.04	2.8
0.7825	338.15	1249.35	2.74
0.7825	348.15	1240.55	2.68
0.8608	278.15	1254.76	2.49
0.8608	288.15	1247.16	2.44
0.8608	298.15	1239.38	2.38
0.8608	308.15	1231.42	2.33
0.8608	318.15	1223.27	2.27
0.8608	328.15	1214.94	2.22
0.8608	338.15	1206.43	2.16
0.8608	348.15	1197.74	2.1
0.9353	278.15	1171.9	1.74
0.9353	288.15	1165.97	1.7
0.9353	298.15	1159.65	1.66
0.9353	308.15	1152.94	1.62
0.9353	318.15	1145.88	1.57
0.9353	328.15	1138.49	1.52
0.9353	338.15	1130.76	1.47
0.9353	348.15	1122.73	1.42
0.9712	278.15	1097.49	1.2
0.9712	288.15	1093.64	1.18
0.9712	298.15	1089.08	1.15
0.9712	308.15	1083.9	1.11
0.9712	318.15	1078.18	1.08
0.9712	328.15	1071.95	1.04
0.9712	338.15	1065.25	1
0.9712	348.15	1058.13	0.95
0.9924	278.15	1030.35	0.75
0.9924	288.15	1028.64	0.73
0.9924	298.15	1025.88	0.72
0.9924	308.15	1022.24	0.69
0.9924	318.15	1017.86	0.67
0.9924	328.15	1012.83	0.63
0.9924	338.15	1007.21	0.6
0.9924	348.15	1001.05	0.56
1	278.15	999.99	0.54
1	288.15	999.13	0.55
1	298.15	997.07	0.56
1	308.15	994.06	0.58
1	318.15	990.23	0.6
1	328.15	985.71	0.63
1	338.15	980.56	0.67
1	348.15	974.84	0.7

System: water + 1-ethyl-3-methylimidazolium trifluoroacetate; phases: Liquid
Fixed: Temperature, K = 278.15
Fixed: Pressure, kPa = 101
Property: Viscosity, Pa*s (Liquid); method: CONPLT:UFactor:4
Mole fraction of water	Viscosity, Pa*s	uncertainty
0	0.078	0.006
0.2042	0.056	0.004

System: water + 1-ethyl-3-methylimidazolium trifluoroacetate; phases: Liquid
Fixed: Pressure, kPa = 101
Property: Viscosity, Pa*s (Liquid); method: CONPLT:UFactor:4
Mole fraction of water	Temperature, K	Viscosity, Pa*s	uncertainty
0	288.15	0.048	0.003
0	298.15	0.032	0.002
0	308.15	0.023	0.002
0	318.15	0.017	0.002
0	328.15	0.013	0.002
0	338.15	0.01	0.002
0	348.15	0.009	0.002
0.2042	288.15	0.035	0.002
0.2042	298.15	0.024	0.002
0.2042	308.15	0.017	0.002
0.2042	318.15	0.013	0.002
0.2042	328.15	0.01	0.002
0.2042	338.15	0.008	0.002
0.2042	348.15	0.007	0.002
0.3952	278.15	0.04	0.002
0.3952	288.15	0.026	0.002
0.3952	298.15	0.018	0.002
0.3952	308.15	0.014	0.002
0.3952	318.15	0.01	0.002
0.3952	328.15	0.008	0.002
0.3952	338.15	0.007	0.002
0.3952	348.15	0.006	0.002
0.5808	278.15	0.025	0.002
0.5808	288.15	0.017	0.002
0.5808	298.15	0.012	0.002
0.5808	308.15	0.009	0.002
0.5808	318.15	0.008	0.002
0.5808	328.15	0.006	0.002
0.5808	338.15	0.006	0.002
0.5808	348.15	0.005	0.002
0.7565	278.15	0.016	0.002
0.7565	288.15	0.011	0.002
0.7565	298.15	0.008	0.002
0.7565	308.15	0.006	0.002
0.7565	318.15	0.005	0.002
0.7565	328.15	0.005	0.002
0.7565	338.15	0.004	0.002
0.7565	348.15	0.004	0.002
0.9256	278.15	0.006	0.002
0.9256	288.15	0.005	0.002
0.9256	298.15	0.004	0.002
0.9256	308.15	0.003	0.002
0.9256	318.15	0.003	0.002
0.9256	328.15	0.003	0.002
0.9256	338.15	0.002	0.002
0.9256	348.15	0.002	0.002

System: water + 1-ethyl-3-methylimidazolium trifluoroacetate; phases: Liquid
Fixed: Pressure, kPa = 101
Property: Mass density, kg/m3 (Liquid); method: VIBTUB:UFactor:16
Mole fraction of water	Temperature, K	Mass density, kg/m3	uncertainty
0	278.15	1306.89	11.58
0	288.15	1298.81	11.42
0	298.15	1290.8	11.25
0	308.15	1282.85	11.09
0	318.15	1274.95	10.94
0	328.15	1267.12	10.78
0	338.15	1259.35	10.63
0	348.15	1251.63	10.48
0.205	278.15	1299.84	8.28
0.205	288.15	1291.82	8.16
0.205	298.15	1283.85	8.04
0.205	308.15	1275.92	7.92
0.205	318.15	1268.04	7.8
0.205	328.15	1260.21	7.68
0.205	338.15	1252.42	7.57
0.205	348.15	1244.66	7.45
0.3983	278.15	1291.27	5.87
0.3983	288.15	1283.25	5.77
0.3983	298.15	1275.26	5.68
0.3983	308.15	1267.29	5.58
0.3983	318.15	1259.34	5.49
0.3983	328.15	1251.41	5.4
0.3983	338.15	1243.49	5.31
0.3983	348.15	1235.59	5.22
0.5808	278.15	1278	4.13
0.5808	288.15	1269.93	4.05
0.5808	298.15	1261.85	3.98
0.5808	308.15	1253.77	3.9
0.5808	318.15	1245.67	3.83
0.5808	328.15	1237.55	3.76
0.5808	338.15	1229.41	3.68
0.5808	348.15	1221.23	3.61
0.7573	278.15	1248.38	2.84
0.7573	288.15	1240.21	2.78
0.7573	298.15	1231.95	2.72
0.7573	308.15	1223.66	2.66
0.7573	318.15	1215.3	2.59
0.7573	328.15	1206.84	2.53
0.7573	338.15	1198.32	2.47
0.7573	348.15	1189.98	2.41
0.842	278.15	1216.87	2.29
0.842	288.15	1208.86	2.23
0.842	298.15	1200.76	2.17
0.842	308.15	1192.57	2.12
0.842	318.15	1184.27	2.06
0.842	328.15	1175.86	2
0.842	338.15	1167.33	1.94
0.842	348.15	1158.69	1.88
0.9256	278.15	1151.47	1.63
0.9256	288.15	1144.67	1.58
0.9256	298.15	1137.65	1.54
0.9256	308.15	1130.4	1.49
0.9256	318.15	1122.93	1.44
0.9256	328.15	1115.2	1.39
0.9256	338.15	1107.28	1.34
0.9256	348.15	1099.05	1.29
0.9667	278.15	1086.88	1.14
0.9667	288.15	1082.51	1.11
0.9667	298.15	1077.55	1.08
0.9667	308.15	1072.06	1.04
0.9667	318.15	1066.08	1.01
0.9667	328.15	1059.66	0.96
0.9667	338.15	1052.83	0.92
0.9667	348.15	1045.56	0.88
0.9912	278.15	1026.68	0.72
0.9912	288.15	1024.93	0.71
0.9912	298.15	1022.15	0.69
0.9912	308.15	1018.5	0.67
0.9912	318.15	1014.11	0.64
0.9912	328.15	1009.07	0.61
0.9912	338.15	1002.87	0.57
0.9912	348.15	997.23	0.57
1	278.15	999.99	0.54
1	288.15	999.13	0.55
1	298.15	997.07	0.56
1	308.15	994.06	0.58
1	318.15	990.23	0.6
1	328.15	985.71	0.63
1	338.15	980.56	0.67
1	348.15	974.84	0.7
