Measured thermophysical data. Vapor-Liquid Equilibrium for Binary System of 1-Propanethiol, Thiophene, and Diethyl Sulfide with Toluene at 90.03 kPa
Source: J. Chem. Eng. Data, 2006, 10.1021/je060093l
Compound 1: 1-propanethiol, C3H8S, InChI=1S/C3H8S/c1-2-3-4/h4H,2-3H2,1H3, purity 99.98%
Compound 2: thiophene, C4H4S, InChI=1S/C4H4S/c1-2-4-5-3-1/h1-4H, purity 99.98%
Compound 3: 3-thiapentane, C4H10S, InChI=1S/C4H10S/c1-3-5-4-2/h3-4H2,1-2H3, purity 99.72%
Compound 4: toluene, C7H8, InChI=1S/C7H8/c1-7-5-3-2-4-6-7/h2-6H,1H3, purity 99.95%
Compound 5: 1,2-dimethylbenzene, C8H10, InChI=1S/C8H10/c1-7-5-3-4-6-8(7)2/h3-6H,1-2H3, purity 99.33%

System: 1-propanethiol; phases: Liquid
Property: Refractive index (Na D-line) (Liquid); method: Standard Abbe refractometry
Temperature, K	Pressure, kPa	Refractive index (Na D-line)	uncertainty
298.15	101.325	1.4353	0.0004

System: 1-propanethiol; phases: Liquid, Gas
Property: Vapor or sublimation pressure, kPa (Liquid); method: Ebulliometric method (Recirculating still)
Temperature, K	Vapor or sublimation pressure, kPa	uncertainty
310.52	34.6	0.37
315.47	41.96	0.38
320.68	51.03	0.39
325.73	61.23	0.4
330.38	72.02	0.42
334.62	83.15	0.43
337.03	90.03	0.45
340.63	101.19	0.46

System: thiophene; phases: Liquid
Property: Refractive index (Na D-line) (Liquid); method: Standard Abbe refractometry
Temperature, K	Pressure, kPa	Refractive index (Na D-line)	uncertainty
298.15	101.325	1.5255	0.0004

System: thiophene; phases: Liquid, Gas
Property: Vapor or sublimation pressure, kPa (Liquid); method: Ebulliometric method (Recirculating still)
Temperature, K	Vapor or sublimation pressure, kPa	uncertainty
328.01	37.5	0.37
331.52	42.75	0.38
337.52	53.02	0.38
341.13	60.12	0.4
346.44	71.92	0.41
350.46	82.01	0.43
353.38	90.03	0.45
356.73	99.99	0.45

System: 3-thiapentane; phases: Liquid
Property: Refractive index (Na D-line) (Liquid); method: Standard Abbe refractometry
Temperature, K	Pressure, kPa	Refractive index (Na D-line)	uncertainty
298.15	101.325	1.44	0.0004

System: 3-thiapentane; phases: Liquid, Gas
Property: Vapor or sublimation pressure, kPa (Liquid); method: Ebulliometric method (Recirculating still)
Temperature, K	Vapor or sublimation pressure, kPa	uncertainty
333.82	35.84	0.37
338.63	42.73	0.37
344.7	52.89	0.39
350.02	63.3	0.4
353.56	71.09	0.41
358.41	83.03	0.42
361.02	90.03	0.44
361.03	90.03	0.44
365.05	101.92	0.45

System: toluene; phases: Liquid
Property: Refractive index (Na D-line) (Liquid); method: Standard Abbe refractometry
Temperature, K	Pressure, kPa	Refractive index (Na D-line)	uncertainty
298.15	101.325	1.4939	0.0004

System: toluene; phases: Liquid, Gas
Property: Vapor or sublimation pressure, kPa (Liquid); method: Ebulliometric method (Recirculating still)
Temperature, K	Vapor or sublimation pressure, kPa	uncertainty
352.64	38.32	0.37
356.84	44.23	0.37
361.31	51.31	0.38
367.88	63.37	0.39
372.12	72.27	0.41
375.63	80.42	0.42
379.44	90.03	0.42
379.45	90.03	0.42

System: 1,2-dimethylbenzene; phases: Liquid
Property: Refractive index (Na D-line) (Liquid); method: Standard Abbe refractometry
Temperature, K	Pressure, kPa	Refractive index (Na D-line)	uncertainty
298.15	101.325	1.5026	0.0004

System: toluene + 3-thiapentane; phases: Liquid, Gas
Fixed: Pressure, kPa = 90.03
Property: Boiling temperature at pressure P, K (Liquid); method: Ebulliometric method (Recirculating still)
Mole fraction of 3-thiapentane	Boiling temperature at pressure P, K	uncertainty
0	379.45	0.15
0.012	379.2	0.2
0.046	378.42	0.2
0.081	377.61	0.2
0.121	376.75	0.2
0.167	375.73	0.2
0.219	374.65	0.19
0.282	373.35	0.19
0.343	372.14	0.19
0.413	370.75	0.19
0.488	369.25	0.18
0.58	367.74	0.18
0.643	366.68	0.18
0.712	365.51	0.18
0.782	364.36	0.18
0.853	363.18	0.18
0.899	362.5	0.17
0.96	361.56	0.17
1	361.03	0.15

System: toluene + 3-thiapentane; phases: Gas, Liquid
Fixed: Pressure, kPa = 90.03
Property: Mole fraction of 3-thiapentane (Gas); method: Chromatography
Mole fraction of 3-thiapentane	Mole fraction of 3-thiapentane	uncertainty
0	0	0.001
0.012	0.02	0.011
0.046	0.074	0.011
0.081	0.128	0.011
0.121	0.185	0.011
0.167	0.252	0.01
0.219	0.318	0.01
0.282	0.397	0.01
0.343	0.464	0.01
0.413	0.544	0.01
0.488	0.623	0.009
0.58	0.701	0.008
0.643	0.755	0.008
0.712	0.809	0.008
0.782	0.86	0.007
0.853	0.909	0.007
0.899	0.938	0.007
0.96	0.976	0.007
1	1	0.001

System: 1-propanethiol + toluene; phases: Liquid, Gas
Fixed: Pressure, kPa = 90.03
Property: Boiling temperature at pressure P, K (Liquid); method: Ebulliometric method (Recirculating still)
Mole fraction of 1-propanethiol	Boiling temperature at pressure P, K	uncertainty
0	379.44	0.15
0.021	377.84	0.47
0.065	374.61	0.44
0.122	370.84	0.43
0.176	367.16	0.4
0.211	365.41	0.35
0.258	362.79	0.35
0.311	360.19	0.33
0.354	358.03	0.33
0.393	356.19	0.3
0.446	353.95	0.29
0.493	352.05	0.28
0.559	349.55	0.26
0.632	347.14	0.25
0.694	345.12	0.24
0.747	343.59	0.23
0.818	341.56	0.23
0.85	340.63	0.22
0.898	339.42	0.21
0.936	338.49	0.21
0.986	337.32	0.2
1	337.03	0.15

System: 1-propanethiol + toluene; phases: Gas, Liquid
Fixed: Pressure, kPa = 90.03
Property: Mole fraction of 1-propanethiol (Gas); method: Chromatography
Mole fraction of 1-propanethiol	Mole fraction of 1-propanethiol	uncertainty
0	0	0.001
0.021	0.065	0.018
0.065	0.182	0.016
0.122	0.318	0.014
0.176	0.416	0.013
0.211	0.479	0.012
0.258	0.545	0.01
0.311	0.607	0.01
0.354	0.655	0.009
0.393	0.695	0.009
0.446	0.741	0.008
0.493	0.778	0.008
0.559	0.822	0.007
0.632	0.862	0.007
0.694	0.892	0.007
0.747	0.916	0.007
0.818	0.944	0.006
0.85	0.956	0.006
0.898	0.971	0.006
0.936	0.982	0.006
0.986	0.996	0.004
1	1	0.001

System: toluene + thiophene; phases: Liquid, Gas
Fixed: Pressure, kPa = 90.03
Property: Boiling temperature at pressure P, K (Liquid); method: Ebulliometric method (Recirculating still)
Mole fraction of thiophene	Boiling temperature at pressure P, K	uncertainty
0	379.44	0.15
0.01	379.09	0.27
0.025	378.52	0.26
0.039	378.03	0.26
0.059	377.31	0.26
0.086	376.32	0.26
0.111	375.43	0.26
0.146	374.2	0.25
0.204	372.21	0.25
0.255	370.62	0.24
0.317	368.61	0.23
0.395	366.62	0.22
0.468	364.63	0.22
0.529	363.08	0.21
0.604	361.32	0.2
0.694	359.27	0.2
0.743	358.29	0.19
0.791	357.32	0.19
0.835	356.43	0.18
0.905	355.23	0.18
0.925	354.74	0.19
1	353.38	0.15

System: toluene + thiophene; phases: Gas, Liquid
Fixed: Pressure, kPa = 90.03
Property: Mole fraction of thiophene (Gas); method: Chromatography
Mole fraction of thiophene	Mole fraction of thiophene	uncertainty
0	0	0.001
0.01	0.02	0.014
0.025	0.051	0.013
0.039	0.078	0.013
0.059	0.116	0.013
0.086	0.165	0.012
0.111	0.207	0.012
0.146	0.264	0.011
0.204	0.355	0.011
0.255	0.423	0.01
0.317	0.5	0.01
0.395	0.581	0.009
0.468	0.654	0.009
0.529	0.708	0.008
0.604	0.77	0.008
0.694	0.834	0.007
0.743	0.865	0.007
0.791	0.892	0.007
0.835	0.918	0.007
0.905	0.951	0.007
0.925	0.965	0.007
1	1	0.001
