Measured thermophysical data. Vapor-Liquid Equilibrium Data for the Binary Methyl Esters (Butyrate, Pentanoate, and Hexanoate) (1) + Acetonitrile (2) Systems at 93.32 kPa
Source: J. Chem. Eng. Data, 2006, 10.1021/je060001s
Compound 1: methyl butanoate, C5H10O2, InChI=1S/C5H10O2/c1-3-4-5(6)7-2/h3-4H2,1-2H3, purity 99.5%
Compound 2: methyl pentanoate, C6H12O2, InChI=1S/C6H12O2/c1-3-4-5-6(7)8-2/h3-5H2,1-2H3, purity 99.5%
Compound 3: methyl hexanoate, C7H14O2, InChI=1S/C7H14O2/c1-3-4-5-6-7(8)9-2/h3-6H2,1-2H3, purity 99.5%
Compound 4: acetonitrile, C2H3N, InChI=1S/C2H3N/c1-2-3/h1H3, purity 99.5%

System: methyl butanoate; phases: Liquid
Property: Refractive index (Na D-line) (Liquid); method: Standard Abbe refractometry
Temperature, K	Pressure, kPa	Refractive index (Na D-line)	uncertainty
298.15	101.325	1.3847	0.0004

System: methyl butanoate; phases: Liquid
Property: Mass density, kg/m3 (Liquid); method: VIBTUB:UFactor:4
Temperature, K	Pressure, kPa	Mass density, kg/m3	uncertainty
298.15	101.325	892.16	0.37

System: methyl pentanoate; phases: Liquid
Property: Refractive index (Na D-line) (Liquid); method: Standard Abbe refractometry
Temperature, K	Pressure, kPa	Refractive index (Na D-line)	uncertainty
298.15	101.325	1.3971	0.0004

System: methyl pentanoate; phases: Liquid
Property: Mass density, kg/m3 (Liquid); method: VIBTUB:UFactor:4
Temperature, K	Pressure, kPa	Mass density, kg/m3	uncertainty
298.15	101.325	884.8	0.38

System: methyl hexanoate; phases: Liquid
Property: Refractive index (Na D-line) (Liquid); method: Standard Abbe refractometry
Temperature, K	Pressure, kPa	Refractive index (Na D-line)	uncertainty
298.15	101.325	1.4048	0.0004

System: methyl hexanoate; phases: Liquid
Property: Mass density, kg/m3 (Liquid); method: VIBTUB:UFactor:4
Temperature, K	Pressure, kPa	Mass density, kg/m3	uncertainty
298.15	101.325	879.47	0.39

System: acetonitrile; phases: Liquid
Property: Refractive index (Na D-line) (Liquid); method: Standard Abbe refractometry
Temperature, K	Pressure, kPa	Refractive index (Na D-line)	uncertainty
298.15	101.325	1.3418	0.0004

System: acetonitrile; phases: Liquid
Property: Mass density, kg/m3 (Liquid); method: VIBTUB:UFactor:4
Temperature, K	Pressure, kPa	Mass density, kg/m3	uncertainty
298.15	101.325	776.62	0.52

System: acetonitrile + methyl butanoate; phases: Liquid, Gas
Fixed: Pressure, kPa = 93.32
Property: Boiling temperature at pressure P, K (Liquid); method: EBULLIO:UFactor:4
Mole fraction of methyl butanoate	Boiling temperature at pressure P, K	uncertainty
0	351.67	0.34
0.0162	351.62	0.34
0.03	351.61	0.34
0.0497	351.58	0.34
0.0622	351.57	0.34
0.0953	351.56	0.34
0.1203	351.69	0.34
0.1459	351.83	0.34
0.1756	352.03	0.34
0.2116	352.16	0.34
0.2487	352.49	0.34
0.2909	352.9	0.34
0.3442	353.53	0.34
0.3817	353.94	0.34
0.4286	354.59	0.34
0.4777	355.22	0.35
0.5347	356.29	0.35
0.5946	357.36	0.35
0.6696	359.19	0.35
0.7353	361.49	0.35
0.7999	363.72	0.35
0.8374	365.01	0.35
0.8748	366.47	0.36
0.9149	368.58	0.36
0.9683	371.06	0.35
1	372.31	0.34

System: acetonitrile + methyl butanoate; phases: Gas, Liquid
Fixed: Pressure, kPa = 93.32
Property: Mole fraction of methyl butanoate (Gas); method: Density calibration data
Mole fraction of methyl butanoate	Mole fraction of methyl butanoate	uncertainty
0	0	0.0001
0.0162	0.0181	0.0145
0.03	0.0314	0.0138
0.0497	0.0498	0.0133
0.0622	0.0594	0.0126
0.0953	0.0847	0.0124
0.1203	0.1022	0.0122
0.1459	0.1201	0.0116
0.1756	0.1352	0.0113
0.2116	0.1541	0.0118
0.2487	0.1807	0.0118
0.2909	0.2037	0.0115
0.3442	0.2339	0.0113
0.3817	0.2511	0.0113
0.4286	0.2784	0.0115
0.4777	0.3049	0.0117
0.5347	0.3428	0.012
0.5946	0.3826	0.0128
0.6696	0.4481	0.014
0.7353	0.5203	0.0155
0.7999	0.6012	0.0163
0.8374	0.6505	0.018
0.8748	0.7126	0.0196
0.9149	0.7809	0.0228
0.9683	0.9025	0.0273
1	1	0.0001

System: acetonitrile + methyl pentanoate; phases: Liquid, Gas
Fixed: Pressure, kPa = 93.32
Property: Boiling temperature at pressure P, K (Liquid); method: EBULLIO:UFactor:6
Mole fraction of methyl pentanoate	Boiling temperature at pressure P, K	uncertainty
0	351.67	0.51
0.0166	351.96	0.52
0.0238	352.12	0.52
0.0381	352.42	0.52
0.0545	352.6	0.52
0.0741	352.94	0.52
0.0939	353.41	0.52
0.1184	353.81	0.52
0.1537	354.46	0.52
0.1783	354.8	0.52
0.2537	356.22	0.52
0.2935	357.18	0.52
0.3364	357.86	0.52
0.3971	359.11	0.52
0.481	361.05	0.52
0.5526	363.6	0.52
0.6177	365.98	0.52
0.6908	369.31	0.53
0.7933	375.33	0.53
0.827	378.5	0.55
0.8454	380.14	0.54
0.895	384.38	0.55
0.9292	388.31	0.56
0.9478	390.25	0.56
0.9725	392.8	0.57
1	396.65	0.51

System: acetonitrile + methyl pentanoate; phases: Gas, Liquid
Fixed: Pressure, kPa = 93.32
Property: Mole fraction of methyl pentanoate (Gas); method: Density calibration data
Mole fraction of methyl pentanoate	Mole fraction of methyl pentanoate	uncertainty
0	0	0.0001
0.0166	0.0106	0.0106
0.0238	0.0138	0.011
0.0381	0.0203	0.0109
0.0545	0.0274	0.0108
0.0741	0.0353	0.0108
0.0939	0.0431	0.0106
0.1184	0.0511	0.0105
0.1537	0.0624	0.0105
0.1783	0.0701	0.0104
0.2537	0.0925	0.0105
0.2935	0.1086	0.0105
0.3364	0.1195	0.0105
0.3971	0.1401	0.0106
0.481	0.1696	0.011
0.5526	0.2106	0.0116
0.6177	0.2498	0.0123
0.6908	0.3099	0.0143
0.7933	0.4279	0.0164
0.827	0.4926	0.0219
0.8454	0.5292	0.0229
0.895	0.6318	0.0262
0.9292	0.7339	0.0316
0.9478	0.7898	0.0331
0.9725	0.8703	0.0416
1	1	0.0001

System: acetonitrile + methyl hexanoate; phases: Liquid, Gas
Fixed: Pressure, kPa = 93.32
Property: Boiling temperature at pressure P, K (Liquid); method: EBULLIO:UFactor:8
Mole fraction of methyl hexanoate	Boiling temperature at pressure P, K	uncertainty
0	351.67	0.69
0.0263	352.56	0.69
0.0381	352.88	0.69
0.0486	353.16	0.69
0.0684	353.47	0.69
0.0843	353.98	0.69
0.1016	354.31	0.69
0.1332	355.17	0.69
0.1679	355.99	0.69
0.2015	356.61	0.69
0.2449	357.78	0.69
0.2893	358.92	0.69
0.3552	360.93	0.69
0.4271	362.96	0.69
0.4755	365.08	0.69
0.5178	366.88	0.69
0.5627	368.39	0.69
0.6435	373.29	0.7
0.7099	377.64	0.71
0.7696	383.72	0.71
0.8137	387.97	0.73
0.8765	397.32	0.75
0.9153	403.64	0.76
0.9388	407.77	0.75
0.9522	409.1	0.8
1	419.67	0.69

System: acetonitrile + methyl hexanoate; phases: Gas, Liquid
Fixed: Pressure, kPa = 93.32
Property: Mole fraction of methyl hexanoate (Gas); method: Density calibration data
Mole fraction of methyl hexanoate	Mole fraction of methyl hexanoate	uncertainty
0	0	0.0001
0.0263	0.0068	0.0068
0.0381	0.0093	0.0093
0.0486	0.0109	0.0101
0.0684	0.0143	0.0102
0.0843	0.0179	0.0101
0.1016	0.0194	0.0101
0.1332	0.0248	0.0101
0.1679	0.0299	0.0101
0.2015	0.0335	0.0101
0.2449	0.0409	0.0101
0.2893	0.0481	0.0102
0.3552	0.0601	0.0102
0.4271	0.0721	0.0102
0.4755	0.0853	0.0104
0.5178	0.0967	0.0103
0.5627	0.1061	0.0107
0.6435	0.1431	0.0112
0.7099	0.1812	0.0128
0.7696	0.2449	0.015
0.8137	0.2979	0.0213
0.8765	0.4429	0.0279
0.9153	0.565	0.0358
0.9388	0.6587	0.0427
0.9522	0.7189	0.0575
1	1	0.0001
