Measured thermophysical data. Volumetric Properties, Viscosities, and Refractive Indices for Aqueous 2-(Methylamino)ethanol Solutions from (298.15 to 343.15) K
Source: J. Chem. Eng. Data, 2007, 10.1021/je060457+
Compound 1: 2-(methylamino)ethanol, C3H9NO, InChI=1S/C3H9NO/c1-4-2-3-5/h4-5H,2-3H2,1H3, purity 98%
Compound 2: water, H2O, InChI=1S/H2O/h1H2, purity 99%

System: 2-(methylamino)ethanol; phases: Liquid
Fixed: Pressure, kPa = 101.325
Property: Refractive index (Na D-line) (Liquid); method: Standard Abbe refractometry
Temperature, K	Refractive index (Na D-line)	uncertainty
293.15	1.4393	0.0006
298.15	1.4375	0.0006
303.15	1.4356	0.0006
308.15	1.4339	0.0007
313.15	1.4318	0.0007
318.15	1.4298	0.0007
323.15	1.4278	0.0007

System: 2-(methylamino)ethanol; phases: Liquid
Fixed: Pressure, kPa = 101
Property: Viscosity, Pa*s (Liquid); method: Capillary tube (Ostwald; Ubbelohde) method
Temperature, K	Viscosity, Pa*s	uncertainty
298.15	0.0105106	0.0001555
303.15	0.0085221	0.0001265
313.15	0.0058331	8.73e-05
323.15	0.0041774	6.28e-05
333.15	0.0031079	4.68e-05
343.15	0.0023853	3.6e-05

System: 2-(methylamino)ethanol; phases: Liquid
Fixed: Pressure, kPa = 101
Property: Mass density, kg/m3 (Liquid); method: Vibrating tube method
Temperature, K	Mass density, kg/m3	uncertainty
298.15	936.18	0.76
303.15	932.26	0.76
313.15	924.42	0.75
323.15	916.48	0.74
333.15	908.46	0.73
343.15	900.3	0.72

System: 2-(methylamino)ethanol + water; phases: Liquid
Fixed: Pressure, kPa = 101
Property: Viscosity, Pa*s (Liquid); method: Capillary tube (Ostwald; Ubbelohde) method
Temperature, K	Mole fraction of 2-(methylamino)ethanol	Viscosity, Pa*s	uncertainty
298.15	0	0.0008824	1.11e-05
298.15	0.0493	0.0018011	2.29e-05
298.15	0.0657	0.0022583	2.92e-05
298.15	0.1054	0.0038045	4.88e-05
298.15	0.1987	0.0087882	0.0001103
298.15	0.2946	0.0135053	0.0001712
298.15	0.388	0.0182141	0.0002337
298.15	0.5041	0.019976	0.0002627
298.15	0.6	0.0191093	0.0002568
298.15	0.7003	0.0170241	0.0002343
298.15	0.8019	0.0143759	0.0002029
298.15	0.898	0.0124636	0.0001799
298.15	1	0.0105106	0.0001555
303.15	0	0.0008047	1.01e-05
303.15	0.0493	0.0015558	1.98e-05
303.15	0.0657	0.0019265	2.48e-05
303.15	0.1054	0.0031692	4.05e-05
303.15	0.1987	0.00698675	8.814e-05
303.15	0.2946	0.0105319	0.0001339
303.15	0.388	0.0141082	0.0001818
303.15	0.5041	0.0154395	0.0002037
303.15	0.6	0.0150474	0.0002028
303.15	0.7003	0.0134217	0.0001851
303.15	0.8019	0.0114316	0.0001616
303.15	0.898	0.0100001	0.0001447
303.15	1	0.0085221	0.0001265
313.15	0	0.0006596	8.4e-06
313.15	0.0493	0.001195	1.52e-05
313.15	0.0657	0.0014501	1.86e-05
313.15	0.1054	0.002272	2.9e-05
313.15	0.1987	0.0046219	5.9e-05
313.15	0.2946	0.0067482	8.67e-05
313.15	0.388	0.0088524	0.0001151
313.15	0.5041	0.0097187	0.0001292
313.15	0.6	0.0094239	0.0001279
313.15	0.7003	0.008652	0.0001202
313.15	0.8019	0.0075472	0.0001075
313.15	0.898	0.0067158	9.79e-05
313.15	1	0.0058331	8.73e-05
323.15	0	0.0005507	7.1e-06
323.15	0.0493	0.0009978	1.27e-05
323.15	0.0657	0.001133	1.45e-05
323.15	0.1054	0.0016428	2.1e-05
323.15	0.1987	0.0032417	4.15e-05
323.15	0.2946	0.004581	5.94e-05
323.15	0.388	0.0058856	7.72e-05
323.15	0.5041	0.0064576	8.65e-05
323.15	0.6	0.0063192	8.64e-05
323.15	0.7003	0.0058808	8.23e-05
323.15	0.8019	0.0052289	7.51e-05
323.15	0.898	0.004725	6.94e-05
323.15	1	0.0041774	6.28e-05
333.15	0	0.0004703	6.1e-06
333.15	0.0493	0.000817	1.05e-05
333.15	0.0657	0.0009621	1.26e-05
333.15	0.1054	0.0016428	2.08e-05
333.15	0.1987	0.0023787	3.05e-05
333.15	0.2946	0.0032609	4.24e-05
333.15	0.388	0.0041074	5.42e-05
333.15	0.5041	0.0044994	6.08e-05
333.15	0.6	0.0044289	6.1e-05
333.15	0.7003	0.0041768	5.88e-05
333.15	0.8019	0.0037795	5.44e-05
333.15	0.898	0.0034635	5.1e-05
333.15	1	0.0031079	4.68e-05
343.15	0	0.0004074	5.3e-06
343.15	0.0493	0.0006997	9e-06
343.15	0.0657	0.0007903	1.01e-05
343.15	0.1054	0.0010233	1.32e-05
343.15	0.1987	0.001747	2.25e-05
343.15	0.2946	0.0024164	3.15e-05
343.15	0.388	0.0029857	3.96e-05
343.15	0.5041	0.0032548	4.41e-05
343.15	0.6	0.0032267	4.46e-05
343.15	0.7003	0.0030751	4.34e-05
343.15	0.8019	0.0028273	4.08e-05
343.15	0.898	0.0026182	3.86e-05
343.15	1	0.0023853	3.6e-05

System: 2-(methylamino)ethanol + water; phases: Liquid
Fixed: Pressure, kPa = 101
Property: Refractive index (Na D-line) (Liquid); method: Standard Abbe refractometry
Temperature, K	Mole fraction of 2-(methylamino)ethanol	Refractive index (Na D-line)	uncertainty
293.15	0	1.3331	0.0004
293.15	0.0493	1.3559	0.0004
293.15	0.0657	1.3625	0.0004
293.15	0.1054	1.3767	0.0004
293.15	0.1987	1.3997	0.0005
293.15	0.301	1.4151	0.0004
293.15	0.3834	1.4235	0.0004
293.15	0.5041	1.4288	0.0005
293.15	0.6	1.4324	0.0005
293.15	0.6974	1.4347	0.0006
293.15	0.8008	1.4366	0.0006
293.15	0.9031	1.4381	0.0006
293.15	1	1.4393	0.0006
298.15	0	1.3326	0.0004
298.15	0.0493	1.3552	0.0004
298.15	0.0657	1.3617	0.0004
298.15	0.1054	1.3754	0.0005
298.15	0.1987	1.3983	0.0005
298.15	0.301	1.4137	0.0005
298.15	0.3834	1.4218	0.0006
298.15	0.5041	1.4272	0.0006
298.15	0.6	1.4306	0.0006
298.15	0.6974	1.4329	0.0006
298.15	0.8008	1.4348	0.0006
298.15	0.9031	1.4363	0.0006
298.15	1	1.4375	0.0006
303.15	0	1.332	0.0004
303.15	0.0493	1.3544	0.0004
303.15	0.0657	1.3608	0.0005
303.15	0.1054	1.3744	0.0005
303.15	0.1987	1.3967	0.0005
303.15	0.301	1.412	0.0005
303.15	0.3834	1.4201	0.0005
303.15	0.5041	1.4253	0.0006
303.15	0.6	1.4289	0.0006
303.15	0.6974	1.4311	0.0006
303.15	0.8008	1.433	0.0006
303.15	0.9031	1.4344	0.0006
303.15	1	1.4356	0.0006
308.15	0	1.3314	0.0004
308.15	0.0493	1.3536	0.0005
308.15	0.0657	1.3599	0.0005
308.15	0.1054	1.3732	0.0005
308.15	0.1987	1.3956	0.0005
308.15	0.301	1.4105	0.0005
308.15	0.3834	1.4186	0.0005
308.15	0.5041	1.4239	0.0006
308.15	0.6	1.4272	0.0006
308.15	0.6974	1.4294	0.0006
308.15	0.8008	1.4313	0.0006
308.15	0.9031	1.4328	0.0006
308.15	1	1.4339	0.0007
313.15	0	1.3307	0.0004
313.15	0.0493	1.3527	0.0005
313.15	0.0657	1.3589	0.0005
313.15	0.1054	1.372	0.0005
313.15	0.1987	1.394	0.0006
313.15	0.301	1.4091	0.0005
313.15	0.3834	1.417	0.0006
313.15	0.5041	1.4221	0.0006
313.15	0.6	1.4254	0.0006
313.15	0.6974	1.4275	0.0006
313.15	0.8008	1.4293	0.0006
313.15	0.9031	1.4306	0.0007
313.15	1	1.4318	0.0007
318.15	0	1.3299	0.0004
318.15	0.0493	1.3517	0.0005
318.15	0.0657	1.3579	0.0005
318.15	0.1054	1.3708	0.0005
318.15	0.1987	1.3921	0.0005
318.15	0.301	1.4074	0.0006
318.15	0.3834	1.4151	0.0006
318.15	0.5041	1.4204	0.0006
318.15	0.6	1.4238	0.0006
318.15	0.6974	1.4257	0.0006
318.15	0.8008	1.4274	0.0006
318.15	0.9031	1.4288	0.0006
318.15	1	1.4298	0.0007
323.15	0	1.3291	0.0004
323.15	0.0493	1.3507	0.0005
323.15	0.0657	1.3568	0.0005
323.15	0.1054	1.3696	0.0007
323.15	0.1987	1.3907	0.0009
323.15	0.301	1.4055	0.0008
323.15	0.3834	1.4134	0.0008
323.15	0.5041	1.4187	0.0006
323.15	0.6	1.422	0.0007
323.15	0.6974	1.4239	0.0006
323.15	0.8008	1.4257	0.0006
323.15	0.9031	1.4268	0.0007
323.15	1	1.4278	0.0007

System: 2-(methylamino)ethanol + water; phases: Liquid
Fixed: Pressure, kPa = 101
Property: Mass density, kg/m3 (Liquid); method: Vibrating tube method
Temperature, K	Mole fraction of 2-(methylamino)ethanol	Mass density, kg/m3	uncertainty
298.15	0	997.05	0.23
298.15	0.0499	996.45	0.25
298.15	0.0657	996.78	0.26
298.15	0.1054	997.9	0.3
298.15	0.1987	996.03	0.32
298.15	0.301	988.25	0.36
298.15	0.3834	980.24	0.41
298.15	0.5041	968.81	0.47
298.15	0.6	960.3	0.52
298.15	0.6974	953.64	0.57
298.15	0.8009	946.63	0.64
298.15	0.9031	940.86	0.7
298.15	1	936.18	0.76
303.15	0	995.69	0.23
303.15	0.0499	994.49	0.25
303.15	0.0657	994.58	0.26
303.15	0.1054	995.16	0.27
303.15	0.1987	992.48	0.32
303.15	0.301	984.47	0.36
303.15	0.3834	976.43	0.4
303.15	0.5041	965	0.47
303.15	0.6	956.5	0.5
303.15	0.6974	949.81	0.57
303.15	0.8009	942.76	0.63
303.15	0.9031	936.96	0.7
303.15	1	932.26	0.76
313.15	0	992.26	0.23
313.15	0.0499	990.11	0.25
313.15	0.0657	989.79	0.26
313.15	0.1054	989.39	0.27
313.15	0.1987	985.28	0.31
313.15	0.301	976.815	0.362
313.15	0.3834	968.73	0.4
313.15	0.5041	957.32	0.46
313.15	0.6	948.83	0.51
313.15	0.6974	942.12	0.57
313.15	0.8009	935.01	0.63
313.15	0.9031	929.16	0.69
313.15	1	924.42	0.75
323.15	0	988.05	0.23
323.15	0.0499	985.07	0.25
323.15	0.0657	984.41	0.26
323.15	0.1054	983.17	0.27
323.15	0.1987	977.79	0.31
323.15	0.301	968.97	0.36
323.15	0.3834	960.83	0.4
323.15	0.5041	949.46	0.46
323.15	0.6	940.99	0.51
323.15	0.6974	934.27	0.56
323.15	0.8009	927.12	0.62
323.15	0.9031	921.24	0.68
323.15	1	916.48	0.74
333.15	0	983.19	0.23
333.15	0.0499	979.47	0.25
333.15	0.0657	978.52	0.26
333.15	0.1054	976.55	0.27
333.15	0.1987	970.11	0.31
333.15	0.301	960.9	0.4
333.15	0.3834	952.72	0.4
333.15	0.5041	941.41	0.45
333.15	0.6	932.98	0.5
333.15	0.6974	926.28	0.56
333.15	0.8009	919.16	0.61
333.15	0.9031	913.22	0.67
333.15	1	908.46	0.73
343.15	0	977.78	0.23
343.15	0.0499	973.37	0.25
343.15	0.0657	972.17	0.26
343.15	0.1054	969.57	0.27
343.15	0.1987	962.17	0.31
343.15	0.301	952.65	0.36
343.15	0.3834	944.43	0.39
343.15	0.5041	933.17	0.45
343.15	0.6	924.8	0.5
343.15	0.6974	918.16	0.55
343.15	0.8009	911	0.61
343.15	0.9031	905.06	0.67
343.15	1	900.3	0.72
