Measured thermophysical data. Fluid-Phase Behavior of {1-Hexyl-3-methylimidazolium Bis(trifluoromethylsulfonyl) Imide, [C6mim][NTf2], + C2-C8 n-Alcohol} Mixtures: Liquid-Liquid Equilibrium and Excess Volumes
Source: J. Chem. Eng. Data, 2006, 10.1021/je060307z
Compound 1: 1-hexyl-3-methylimidazolium bis[(trifluoromethyl)sulfonyl]imide, C12H19F6N3O4S2, InChI=1S/C10H19N2.C2F6NO4S2/c1-3-4-5-6-7-12-9-8-11(2)10-12;3-1(4,5)14(10,11)9-15(12,13)2(6,7)8/h8-10H,3-7H2,1-2H3;/q+1;-1
Compound 2: ethanol, C2H6O, InChI=1S/C2H6O/c1-2-3/h3H,2H2,1H3, purity 99.8%
Compound 3: propan-1-ol, C3H8O, InChI=1S/C3H8O/c1-2-3-4/h4H,2-3H2,1H3, purity 99.7%
Compound 4: butan-1-ol, C4H10O, InChI=1S/C4H10O/c1-2-3-4-5/h5H,2-4H2,1H3, purity 99.9%
Compound 5: pentan-1-ol, C5H12O, InChI=1S/C5H12O/c1-2-3-4-5-6/h6H,2-5H2,1H3, purity 99%
Compound 6: hexan-1-ol, C6H14O, InChI=1S/C6H14O/c1-2-3-4-5-6-7/h7H,2-6H2,1H3, purity 99%
Compound 7: octan-1-ol, C8H18O, InChI=1S/C8H18O/c1-2-3-4-5-6-7-8-9/h9H,2-8H2,1H3, purity 99%

System: 1-hexyl-3-methylimidazolium bis[(trifluoromethyl)sulfonyl]imide; phases: Liquid
Fixed: Pressure, kPa = 101.325
Property: Mass density, kg/m3 (Liquid); method: VIBTUB:UFactor:4
Temperature, K	Mass density, kg/m3	uncertainty
293	1372.6	4.2
293	1375	4.2
293	1376.4	4.2
293	1375.8	4.2
293	1374.7	4.2
293	1374.9	4.2
293	1375.4	4.2
298	1368	4.2
298	1370.4	4.2
298	1371.8	4.2
298	1371.2	4.2
298	1370.1	4.2
298	1370.3	4.2
298	1370.8	4.2
303	1363.4	4.2
303	1365.8	4.2
303	1367.2	4.2
303	1366.6	4.2
303	1365.5	4.2
303	1365.7	4.2
303	1366.2	4.2

System: ethanol; phases: Liquid
Fixed: Pressure, kPa = 101.325
Property: Mass density, kg/m3 (Liquid); method: VIBTUB:UFactor:4
Temperature, K	Mass density, kg/m3	uncertainty
293	789.4	0.5
293	789.4	0.5
298	785.1	0.5
298	785.1	0.5
303	780.8	0.5
303	780.8	0.5

System: propan-1-ol; phases: Liquid
Fixed: Pressure, kPa = 101.325
Property: Mass density, kg/m3 (Liquid); method: VIBTUB:UFactor:4
Temperature, K	Mass density, kg/m3	uncertainty
293	803.5	0.5
293	803.5	0.5
298	799.5	0.5
298	799.5	0.5
303	795.5	0.5
303	795.5	0.5

System: butan-1-ol; phases: Liquid
Fixed: Pressure, kPa = 101.325
Property: Mass density, kg/m3 (Liquid); method: VIBTUB:UFactor:2
Temperature, K	Mass density, kg/m3	uncertainty
293	809.6	0.3
293	809.6	0.3
298	805.7	0.3
298	805.7	0.3
303	801.9	0.3
303	801.9	0.3

System: pentan-1-ol; phases: Liquid
Fixed: Pressure, kPa = 101.325
Property: Mass density, kg/m3 (Liquid); method: VIBTUB:UFactor:8
Temperature, K	Mass density, kg/m3	uncertainty
293	814.6	1
298	810.9	1
303	807.3	1

System: ethanol + 1-hexyl-3-methylimidazolium bis[(trifluoromethyl)sulfonyl]imide; phases: Liquid
Fixed: Pressure, kPa = 101
Property: Excess molar volume, m3/mol (Liquid); method: Calculated with densities of this investigation
Temperature, K	Mole fraction of 1-hexyl-3-methylimidazolium bis[(trifluoromethyl)sulfonyl]imide	Excess molar volume, m3/mol	uncertainty
293	0.0354	-2.3e-07	6e-08
293	0.0998	-3.3e-07	6e-08
293	0.148	-3.4e-07	6e-08
293	0.197	-3.4e-07	6e-08
293	0.2232	-3.1e-07	6e-08
293	0.3009	-2.8e-07	6e-08
293	0.395	-2.4e-07	6e-08
293	0.433	-2.2e-07	6e-08
293	0.4977	-1.8e-07	6e-08
293	0.5942	-1.2e-07	6e-08
293	0.6939	-6e-08	6e-08
293	0.7946	-4e-08	6e-08
298	0.0354	-2.4e-07	6e-08
298	0.0998	-3.4e-07	6e-08
298	0.148	-3.4e-07	6e-08
298	0.197	-3.5e-07	6e-08
298	0.2232	-3.2e-07	6e-08
298	0.3009	-2.8e-07	6e-08
298	0.395	-2.4e-07	6e-08
298	0.433	-2.2e-07	6e-08
298	0.4977	-1.7e-07	6e-08
298	0.5942	-1.1e-07	6e-08
298	0.6939	-5e-08	6e-08
298	0.7946	-4e-08	6e-08
303	0.0354	-2.4e-07	6e-08
303	0.0998	-3.5e-07	6e-08
303	0.148	-3.5e-07	6e-08
303	0.197	-3.5e-07	6e-08
303	0.2232	-3.2e-07	6e-08
303	0.3009	-2.8e-07	6e-08
303	0.395	-2.4e-07	6e-08
303	0.433	-2.2e-07	6e-08
303	0.4977	-1.7e-07	6e-08
303	0.5942	-1.1e-07	6e-08
303	0.6939	-5e-08	6e-08
303	0.7946	-4e-08	6e-08

System: propan-1-ol + 1-hexyl-3-methylimidazolium bis[(trifluoromethyl)sulfonyl]imide; phases: Liquid
Fixed: Pressure, kPa = 101
Property: Excess molar volume, m3/mol (Liquid); method: Calculated with densities of this investigation
Temperature, K	Mole fraction of 1-hexyl-3-methylimidazolium bis[(trifluoromethyl)sulfonyl]imide	Excess molar volume, m3/mol	uncertainty
293	0.1769	-1.4e-07	6e-08
293	0.2008	-1.4e-07	6e-08
293	0.3724	-8e-08	6e-08
293	0.4923	0	6e-08
293	0.5971	4e-08	6e-08
293	0.6764	4e-08	6e-08
293	0.7899	5e-08	6e-08
298	0.1769	-1.35e-07	6e-08
298	0.2008	-1.34e-07	6e-08
298	0.3724	-6.8e-08	6e-08
298	0.4923	3e-09	6e-08
298	0.5971	5.3e-08	6e-08
298	0.6764	4.6e-08	6e-08
298	0.7899	5.2e-08	6e-08
303	0.1769	-1.35e-07	6e-08
303	0.2008	-1.34e-07	6e-08
303	0.3724	-6.4e-08	6e-08
303	0.4923	5e-09	6e-08
303	0.5971	5.6e-08	6e-08
303	0.6764	5e-08	6e-08
303	0.7899	5.3e-08	6e-08

System: butan-1-ol + 1-hexyl-3-methylimidazolium bis[(trifluoromethyl)sulfonyl]imide; phases: Liquid mixture 1, Liquid mixture 2
Fixed: Pressure, kPa = 100
Property: Liquid-liquid equilibrium temperature, K (Liquid mixture 1); method: VISOBS
Mass fraction of 1-hexyl-3-methylimidazolium bis[(trifluoromethyl)sulfonyl]imide	Liquid-liquid equilibrium temperature, K	uncertainty
0.10107	260.11	0.42
0.14872	264.52	0.42
0.20039	266.93	0.42
0.25011	267.97	0.42
0.29898	268.69	0.42
0.34453	269.2	0.42
0.3983	269.44	0.42
0.41931	269.45	0.42
0.45024	269.46	0.42
0.50024	269.3	0.42
0.54202	269.01	0.42
0.60048	268.17	0.42
0.65343	266.9	0.42
0.69843	265.04	0.42
0.74002	262	0.42

System: butan-1-ol + 1-hexyl-3-methylimidazolium bis[(trifluoromethyl)sulfonyl]imide; phases: Liquid mixture 1, Liquid mixture 2
Fixed: Mass fraction of 1-hexyl-3-methylimidazolium bis[(trifluoromethyl)sulfonyl]imide = 0.41931
Property: Liquid-liquid equilibrium temperature, K (Liquid mixture 1); method: VISOBS
Pressure, kPa	Liquid-liquid equilibrium temperature, K	uncertainty
10129	269.16	0.42
20101	268.9	0.42
30054	268.66	0.42
40026	268.36	0.42
50258	268.06	0.42

System: butan-1-ol + 1-hexyl-3-methylimidazolium bis[(trifluoromethyl)sulfonyl]imide; phases: Liquid
Fixed: Pressure, kPa = 101
Property: Excess molar volume, m3/mol (Liquid); method: Calculated with densities of this investigation
Temperature, K	Mole fraction of 1-hexyl-3-methylimidazolium bis[(trifluoromethyl)sulfonyl]imide	Excess molar volume, m3/mol	uncertainty
293	0.0511	-6e-08	6e-08
293	0.1023	-5e-08	6e-08
293	0.1523	-3e-08	6e-08
293	0.2003	-1e-08	6e-08
293	0.3013	3e-08	6e-08
293	0.3968	6e-08	6e-08
293	0.5031	1e-07	6e-08
293	0.5963	1.1e-07	6e-08
293	0.6851	1.1e-07	6e-08
293	0.7693	1.1e-07	6e-08
298	0.0511	-6e-08	6e-08
298	0.1023	-5e-08	6e-08
298	0.1523	-3e-08	6e-08
298	0.2003	-1e-08	6e-08
298	0.3013	4e-08	6e-08
298	0.3968	7e-08	6e-08
298	0.5031	1.1e-07	6e-08
298	0.5963	1.2e-07	6e-08
298	0.6851	1.2e-07	6e-08
298	0.7693	1.1e-07	6e-08
303	0.0511	-6e-08	6e-08
303	0.1023	-5e-08	6e-08
303	0.1523	-3e-08	6e-08
303	0.2003	-1e-08	6e-08
303	0.3013	5e-08	6e-08
303	0.3968	8e-08	6e-08
303	0.5031	1.1e-07	6e-08
303	0.5963	1.2e-07	6e-08
303	0.6851	1.2e-07	6e-08
303	0.7693	1.2e-07	6e-08

System: pentan-1-ol + 1-hexyl-3-methylimidazolium bis[(trifluoromethyl)sulfonyl]imide; phases: Liquid mixture 1, Liquid mixture 2
Fixed: Pressure, kPa = 100
Property: Liquid-liquid equilibrium temperature, K (Liquid mixture 1); method: VISOBS
Mass fraction of 1-hexyl-3-methylimidazolium bis[(trifluoromethyl)sulfonyl]imide	Liquid-liquid equilibrium temperature, K	uncertainty
0.05536	272.94	0.42
0.10018	281.13	0.42
0.12444	283.31	0.42
0.15047	285.08	0.42
0.2004	287.3	0.42
0.24781	288.49	0.42
0.30061	289.1	0.42
0.35006	289.44	0.42
0.4	289.62	0.42
0.40028	289.62	0.42
0.45172	289.64	0.42
0.49972	289.52	0.42
0.54564	289.2	0.42
0.54989	288.94	0.42
0.59758	288.46	0.42
0.6494	287.04	0.42
0.70117	284.5	0.42
0.72359	282.94	0.42
0.75273	280.58	0.42
0.79978	275.02	0.42

System: pentan-1-ol + 1-hexyl-3-methylimidazolium bis[(trifluoromethyl)sulfonyl]imide; phases: Liquid mixture 1, Liquid mixture 2
Property: Liquid-liquid equilibrium temperature, K (Liquid mixture 1); method: VISOBS
Pressure, kPa	Mass fraction of 1-hexyl-3-methylimidazolium bis[(trifluoromethyl)sulfonyl]imide	Liquid-liquid equilibrium temperature, K	uncertainty
10148	0.40028	289.67	0.42
10240	0.54989	288.96	0.42
20089	0.40028	289.7	0.42
20316	0.54989	289.01	0.42
24965	0.40028	289.72	0.42
30055	0.40028	289.74	0.42
30245	0.54989	289.09	0.42
39508	0.40028	289.76	0.42
40251	0.54989	289.18	0.42
49981	0.40028	289.83	0.42
50141	0.54989	289.24	0.42

System: pentan-1-ol + 1-hexyl-3-methylimidazolium bis[(trifluoromethyl)sulfonyl]imide; phases: Liquid
Fixed: Pressure, kPa = 101
Property: Excess molar volume, m3/mol (Liquid); method: Calculated with densities of this investigation
Temperature, K	Mole fraction of 1-hexyl-3-methylimidazolium bis[(trifluoromethyl)sulfonyl]imide	Excess molar volume, m3/mol	uncertainty
293	0.1011	3e-08	6e-08
293	0.201	8e-08	6e-08
293	0.3987	1.8e-07	6e-08
293	0.4967	2e-07	6e-08
293	0.5988	2e-07	6e-08
293	0.7995	1.6e-07	6e-08
298	0.1011	3e-08	6e-08
298	0.201	9e-08	6e-08
298	0.3987	1.9e-07	6e-08
298	0.4967	2.1e-07	6e-08
298	0.5988	2.1e-07	6e-08
298	0.7995	1.6e-07	6e-08
303	0.1011	3e-08	6e-08
303	0.201	9e-08	6e-08
303	0.3987	2e-07	6e-08
303	0.4967	2.1e-07	6e-08
303	0.5988	2.1e-07	6e-08
303	0.7995	1.6e-07	6e-08

System: hexan-1-ol + 1-hexyl-3-methylimidazolium bis[(trifluoromethyl)sulfonyl]imide; phases: Liquid mixture 1, Liquid mixture 2
Fixed: Pressure, kPa = 100
Property: Liquid-liquid equilibrium temperature, K (Liquid mixture 1); method: VISOBS:UFactor:2
Mass fraction of 1-hexyl-3-methylimidazolium bis[(trifluoromethyl)sulfonyl]imide	Liquid-liquid equilibrium temperature, K	uncertainty
0.05001	288.41	0.49
0.10054	297.4	0.49
0.1204	299.5	0.49
0.1498	301.76	0.49
0.19947	303.79	0.49
0.24844	304.99	0.49
0.29801	305.75	0.49
0.34853	306.21	0.49
0.39494	306.3	0.49
0.4415	306.32	0.49
0.45003	306.33	0.49
0.50495	306.15	0.49
0.54811	305.84	0.49
0.59548	305.11	0.49
0.64909	303.35	0.49
0.70164	300.33	0.49
0.72044	299.17	0.49
0.74915	295.76	0.49
0.80056	290.24	0.49
0.84774	281.78	0.49

System: hexan-1-ol + 1-hexyl-3-methylimidazolium bis[(trifluoromethyl)sulfonyl]imide; phases: Liquid mixture 1, Liquid mixture 2
Fixed: Mass fraction of 1-hexyl-3-methylimidazolium bis[(trifluoromethyl)sulfonyl]imide = 0.4415
Property: Liquid-liquid equilibrium temperature, K (Liquid mixture 1); method: VISOBS
Pressure, kPa	Liquid-liquid equilibrium temperature, K	uncertainty
10055	306.53	0.42
14881	306.65	0.42
20176	306.84	0.42
24967	306.85	0.42
30110	307.01	0.42
35077	307.18	0.42
40046	307.25	0.42
45079	307.36	0.42
49926	307.46	0.42
55067	307.56	0.42

System: octan-1-ol + 1-hexyl-3-methylimidazolium bis[(trifluoromethyl)sulfonyl]imide; phases: Liquid mixture 1, Liquid mixture 2
Fixed: Pressure, kPa = 100
Property: Liquid-liquid equilibrium temperature, K (Liquid mixture 1); method: VISOBS
Mass fraction of 1-hexyl-3-methylimidazolium bis[(trifluoromethyl)sulfonyl]imide	Liquid-liquid equilibrium temperature, K	uncertainty
0.04933	316.25	0.42
0.10003	325.97	0.42
0.14707	329.66	0.42
0.19945	331.91	0.42
0.24865	332.86	0.42
0.29739	333.32	0.42
0.35149	333.5	0.42
0.39816	333.62	0.42
0.45118	333.46	0.42
0.49871	333.14	0.42
0.54809	332.48	0.42
0.60528	331.23	0.42
0.64431	329.32	0.42
0.699	325.95	0.42
0.75411	321.33	0.42
0.84923	305.79	0.42
0.89805	287.75	0.42
