Measured thermophysical data. Excess Molar Volumes at 298.15 K and Isothermal Vapor-Liquid Equilibria at 333.15 K for the Binary Mixtures of Dimethyl Carbonate with Benzene, Toluene, n-Heptane, and Isooctane
Source: J. Chem. Eng. Data, 2006, 10.1021/je0602263
Compound 1: benzene, C6H6, InChI=1S/C6H6/c1-2-4-6-5-3-1/h1-6H, purity 99.8%
Compound 2: dimethyl carbonate, C3H6O3, InChI=1S/C3H6O3/c1-5-3(4)6-2/h1-2H3, purity 99.8%
Compound 3: toluene, C7H8, InChI=1S/C7H8/c1-7-5-3-2-4-6-7/h2-6H,1H3, purity 99.8%
Compound 4: heptane, C7H16, InChI=1S/C7H16/c1-3-5-7-6-4-2/h3-7H2,1-2H3, purity 99.8%
Compound 5: 2,2,4-trimethylpentane, C8H18, InChI=1S/C8H18/c1-7(2)6-8(3,4)5/h7H,6H2,1-5H3, purity 99.8%

System: benzene + dimethyl carbonate; phases: Liquid
Fixed: Temperature, K = 298.15
Fixed: Pressure, kPa = 101
Property: Mass density, kg/m3 (Liquid); method: VIBTUB:UFactor:4
Mole fraction of dimethyl carbonate	Mass density, kg/m3	uncertainty
0	873.56	0.34
0.0499	882	0.32
0.1	890.57	0.31
0.15	899.18	0.3
0.2001	907.93	0.29
0.2499	916.61	0.28
0.3	925.59	0.27
0.3498	934.53	0.26
0.4	943.7	0.25
0.45	952.89	0.24
0.5001	962.25	0.23
0.55	971.69	0.22
0.6	981.28	0.2
0.6499	990.96	0.19
0.7001	1000.84	0.18
0.7501	1010.88	0.19
0.8001	1021.01	0.2
0.8498	1031.36	0.21
0.8999	1041.69	0.22
0.9501	1052.35	0.24
1	1063.19	0.25

System: benzene + dimethyl carbonate; phases: Gas, Liquid
Fixed: Temperature, K = 333.15
Property: Mole fraction of benzene (Gas); method: CHROM:UFactor:4
Mole fraction of benzene	Mole fraction of benzene	uncertainty
0.0169	0.0282	0.0014
0.0338	0.0449	0.0022
0.0498	0.0785	0.0038
0.0999	0.1204	0.0058
0.1499	0.2126	0.0102
0.1999	0.2882	0.0138
0.2497	0.3641	0.0175
0.2998	0.4267	0.0205
0.3498	0.48	0.0231
0.3997	0.5186	0.0231
0.4497	0.5798	0.0202
0.4996	0.6049	0.019
0.5499	0.6425	0.0172
0.5996	0.6871	0.015
0.6499	0.7218	0.0134
0.6999	0.779	0.0106
0.7499	0.8104	0.0091
0.7999	0.8415	0.0076
0.85	0.8864	0.0055
0.9	0.9216	0.0038
0.9501	0.9604	0.0019
0.9659	0.9734	0.0013
0.9831	0.9866	0.0006

System: toluene + dimethyl carbonate; phases: Liquid
Fixed: Temperature, K = 298.15
Fixed: Pressure, kPa = 101
Property: Mass density, kg/m3 (Liquid); method: VIBTUB:UFactor:4
Mole fraction of dimethyl carbonate	Mass density, kg/m3	uncertainty
0	862.5	0.35
0.0498	869.9	0.34
0.0998	877.68	0.33
0.15	885.75	0.32
0.1999	893.96	0.31
0.2498	902.39	0.3
0.2999	911.1	0.29
0.3498	919.98	0.28
0.4	929.22	0.27
0.4498	938.57	0.26
0.4999	948.26	0.25
0.5499	958.27	0.24
0.5999	968.51	0.22
0.65	979.06	0.21
0.7	989.94	0.19
0.7499	1001.14	0.18
0.8001	1012.77	0.19
0.8501	1024.73	0.2
0.8998	1037.03	0.22
0.9502	1049.89	0.23
1	1063.19	0.25

System: toluene + dimethyl carbonate; phases: Gas, Liquid
Fixed: Temperature, K = 333.15
Property: Mole fraction of dimethyl carbonate (Gas); method: CHROM:UFactor:4
Mole fraction of dimethyl carbonate	Mole fraction of dimethyl carbonate	uncertainty
0.017	0.053	0.0025
0.0343	0.0979	0.0047
0.0501	0.1328	0.0064
0.1	0.2322	0.0111
0.1495	0.315	0.0151
0.1996	0.3866	0.0186
0.2496	0.4403	0.0211
0.2997	0.4994	0.024
0.3496	0.5381	0.0222
0.3996	0.5887	0.0198
0.4497	0.6276	0.0179
0.4997	0.6633	0.0162
0.5498	0.6907	0.0149
0.5998	0.7263	0.0132
0.6499	0.7586	0.0116
0.6996	0.7828	0.0104
0.7499	0.8201	0.0087
0.8	0.8517	0.0071
0.85	0.8801	0.0058
0.9	0.9149	0.0041
0.9502	0.955	0.0022
0.9661	0.9703	0.0014
0.983	0.984	0.0008

System: heptane + dimethyl carbonate; phases: Liquid
Fixed: Temperature, K = 298.15
Fixed: Pressure, kPa = 101
Property: Mass density, kg/m3 (Liquid); method: VIBTUB:UFactor:4
Mole fraction of dimethyl carbonate	Mass density, kg/m3	uncertainty
0	680.52	0.63
0.0501	690.16	0.61
0.0999	700.47	0.6
0.15	711.7	0.58
0.1998	723.65	0.56
0.2501	736.28	0.55
0.2999	749.59	0.53
0.3501	763.95	0.51
0.4	779.05	0.49
0.4499	795.07	0.48
0.5001	812.18	0.46
0.5498	830.25	0.43
0.6	849.67	0.4
0.6499	870.23	0.37
0.7001	892.23	0.34
0.75	915.72	0.3
0.8	941.09	0.26
0.8501	968.3	0.22
0.9001	997.61	0.18
0.9501	1029.09	0.21
1	1063.19	0.25

System: heptane + dimethyl carbonate; phases: Gas, Liquid
Fixed: Temperature, K = 333.15
Property: Mole fraction of dimethyl carbonate (Gas); method: CHROM:UFactor:4
Mole fraction of dimethyl carbonate	Mole fraction of dimethyl carbonate	uncertainty
0.0168	0.0895	0.0043
0.0335	0.1566	0.0075
0.05	0.2094	0.0101
0.0996	0.3222	0.0155
0.1489	0.3895	0.0187
0.199	0.4415	0.0212
0.2492	0.4812	0.0231
0.2995	0.5066	0.0237
0.3492	0.5296	0.0226
0.3996	0.5411	0.022
0.4496	0.558	0.0212
0.4999	0.5693	0.0207
0.5496	0.581	0.0201
0.5999	0.6058	0.0189
0.6503	0.6177	0.0184
0.7003	0.5922	0.0196
0.7505	0.637	0.0174
0.8005	0.6582	0.0164
0.8504	0.6875	0.015
0.9006	0.7381	0.0126
0.95	0.8308	0.0081
0.9663	0.8745	0.006
0.9833	0.9288	0.0034

System: 2,2,4-trimethylpentane + dimethyl carbonate; phases: Liquid
Fixed: Temperature, K = 298.15
Fixed: Pressure, kPa = 101
Property: Mass density, kg/m3 (Liquid); method: VIBTUB:UFactor:4
Mole fraction of dimethyl carbonate	Mass density, kg/m3	uncertainty
0	688.04	0.62
0.0497	696.81	0.6
0.1	706.22	0.59
0.15	716.12	0.57
0.2001	726.95	0.56
0.2499	738.38	0.54
0.2998	750.67	0.53
0.3498	763.75	0.51
0.4004	777.96	0.49
0.4498	792.89	0.48
0.5002	809.29	0.46
0.5499	826.46	0.44
0.5998	845.2	0.41
0.6502	865.43	0.38
0.7	887.02	0.34
0.75	910.31	0.31
0.8	935.94	0.27
0.8499	963.69	0.23
0.8999	993.77	0.19
0.9498	1026.79	0.21
1	1063.19	0.25

System: 2,2,4-trimethylpentane + dimethyl carbonate; phases: Gas, Liquid
Fixed: Temperature, K = 333.15
Property: Mole fraction of dimethyl carbonate (Gas); method: CHROM:UFactor:4
Mole fraction of dimethyl carbonate	Mole fraction of dimethyl carbonate	uncertainty
0.0125	0.08	0.0038
0.0336	0.1392	0.0067
0.05	0.1887	0.0091
0.0995	0.2942	0.0141
0.149	0.3749	0.018
0.1992	0.4151	0.0199
0.2493	0.4563	0.0219
0.2993	0.4874	0.0234
0.3496	0.5102	0.0235
0.3994	0.5317	0.0225
0.4493	0.5484	0.0217
0.4998	0.5634	0.021
0.6001	0.5923	0.0196
0.6501	0.6085	0.0188
0.7001	0.6236	0.0181
0.7503	0.6428	0.0172
0.8062	0.6671	0.016
0.8503	0.7024	0.0143
0.9004	0.7507	0.012
0.9503	0.8418	0.0076
0.966	0.8816	0.0057
0.9829	0.9324	0.0033
