Measured thermophysical data. Solubility of Cefazolin Sodium Pentahydrate in Binary System of Ethanol + Water Mixtures
Source: J. Chem. Eng. Data, 2006, 10.1021/je0601006
Compound 1: cefazolin sodium pentahydrate, C14H23N8NaO9S3, InChI=1S/C14H14N8O4S3.Na.5H2O/c1-6-17-18-14(29-6)28-4-7-3-27-12-9(11(24)22(12)10(7)13(25)26)16-8(23)2-21-5-15-19-20-21;;;;;;/h5,9,12H,2-4H2,1H3,(H,16,23)(H,25,26);;5*1H2/q;+1;;;;;/p-1/t9-,12-;;;;;;/m1....../s1
Compound 2: ethanol, C2H6O, InChI=1S/C2H6O/c1-2-3/h3H,2H2,1H3, purity 98%
Compound 3: water, H2O, InChI=1S/H2O/h1H2

System: ethanol + water + cefazolin sodium pentahydrate; phases: Liquid, Crystal
Fixed: Pressure, kPa = 101
Property: Mole fraction of cefazolin sodium pentahydrate (Liquid); method: synthetic method
Temperature, K	Solvent: Mole fraction of water	Mole fraction of cefazolin sodium pentahydrate	uncertainty
277.35	0.1001	0.002469	0.000396
277.35	0.1945	0.002199	0.000352
277.35	0.3008	0.001806	0.000289
277.35	0.4001	0.001368	0.000219
277.35	0.5024	0.0007914	0.0001267
277.35	0.5924	0.0005051	8.08e-05
277.35	0.7025	0.0002759	4.41e-05
277.35	0.793	0.0001463	2.34e-05
281.65	0.1001	0.003487	0.000559
281.65	0.1945	0.003024	0.000484
281.65	0.3008	0.002293	0.000367
281.65	0.4001	0.001604	0.000257
281.65	0.5024	0.0009937	0.0001591
281.65	0.5924	0.0006314	0.0001011
281.65	0.7025	0.0003128	5.01e-05
281.65	0.793	0.000205	3.28e-05
285.15	0.1001	0.00446	0.000714
285.15	0.1945	0.003975	0.000637
285.15	0.3008	0.002811	0.00045
285.15	0.4001	0.001889	0.000303
285.15	0.5024	0.001195	0.000191
285.15	0.5924	0.0007542	0.0001207
285.15	0.7025	0.0003581	5.73e-05
285.15	0.793	0.0002718	4.35e-05
289.25	0.1001	0.00618	0.00099
289.25	0.1945	0.005259	0.000842
289.25	0.3008	0.003758	0.000602
289.25	0.4001	0.002588	0.000415
289.25	0.5024	0.001501	0.00024
289.25	0.5924	0.0008666	0.0001387
289.25	0.7025	0.0004986	7.98e-05
289.25	0.793	0.000326	5.22e-05
292.75	0.1001	0.008119	0.0013
292.75	0.1945	0.006735	0.001078
292.75	0.3008	0.004898	0.000784
292.75	0.4001	0.003323	0.000532
292.75	0.5024	0.001807	0.000289
292.75	0.5924	0.0009962	0.0001595
292.75	0.7025	0.0006029	9.65e-05
292.75	0.793	0.0003808	6.1e-05
297.55	0.1001	0.01047	0.00168
297.55	0.1945	0.008583	0.001374
297.55	0.3008	0.006491	0.001039
297.55	0.4001	0.004205	0.000673
297.55	0.5024	0.002206	0.000353
297.55	0.5924	0.001419	0.000227
297.55	0.7025	0.0007797	0.0001248
297.55	0.793	0.0005126	8.21e-05
300.95	0.1001	0.01313	0.0021
300.95	0.1945	0.01094	0.00175
300.95	0.3008	0.008131	0.001302
300.95	0.4001	0.005416	0.000867
300.95	0.5024	0.002699	0.000432
300.95	0.5924	0.001819	0.000291
300.95	0.7025	0.0009345	0.0001496
300.95	0.793	0.0006532	0.0001046
303.95	0.1001	0.01609	0.00258
303.95	0.1945	0.0138	0.00221
303.95	0.3008	0.009631	0.001543
303.95	0.4001	0.006698	0.001073
303.95	0.5024	0.003592	0.000575
303.95	0.5924	0.002171	0.000348
303.95	0.7025	0.001127	0.000181
303.95	0.793	0.000813	0.0001303
306.65	0.1001	0.02109	0.00338
306.65	0.1945	0.01822	0.00292
306.65	0.3008	0.01227	0.00197
306.65	0.4001	0.007855	0.001258
306.65	0.5024	0.004267	0.000683
306.65	0.5924	0.002593	0.000415
306.65	0.7025	0.001385	0.000222
306.65	0.793	0.001042	0.000167
310.05	0.1001	0.02619	0.00419
310.05	0.1945	0.02213	0.00354
310.05	0.3008	0.0154	0.00247
310.05	0.4001	0.009785	0.001567
310.05	0.5024	0.00537	0.000861
310.05	0.5924	0.003156	0.000506
310.05	0.7025	0.001965	0.0003153
310.05	0.793	0.001626	0.000261
