Measured thermophysical data. Solubility of 1H-1,2,4-Triazole in Ethanol, 1-Propanol, 2-Propanol, 1,2-Propanediol, Ethyl Formate, Methyl Acetate, Ethyl Acetate, and Butyl Acetate at (283 to 363) K
Source: J. Chem. Eng. Data, 2007, 10.1021/je060452c
Compound 1: 1H-1,2,4-triazole, C2H3N3, InChI=1S/C2H3N3/c1-3-2-5-4-1/h1-2H,(H,3,4,5), purity 99.2%
Compound 2: ethanol, C2H6O, InChI=1S/C2H6O/c1-2-3/h3H,2H2,1H3, purity 98%
Compound 3: propan-1-ol, C3H8O, InChI=1S/C3H8O/c1-2-3-4/h4H,2-3H2,1H3, purity 98%
Compound 4: propan-2-ol, C3H8O, InChI=1S/C3H8O/c1-3(2)4/h3-4H,1-2H3, purity 98%
Compound 5: 1,2-propanediol, C3H8O2, InChI=1S/C3H8O2/c1-3(5)2-4/h3-5H,2H2,1H3, purity 98%
Compound 6: ethyl methanoate, C3H6O2, InChI=1S/C3H6O2/c1-2-5-3-4/h3H,2H2,1H3, purity 98%
Compound 7: methyl ethanoate, C3H6O2, InChI=1S/C3H6O2/c1-3(4)5-2/h1-2H3, purity 98%
Compound 8: ethyl acetate, C4H8O2, InChI=1S/C4H8O2/c1-3-6-4(2)5/h3H2,1-2H3, purity 98%
Compound 9: butyl ethanoate, C6H12O2, InChI=1S/C6H12O2/c1-3-4-5-8-6(2)7/h3-5H2,1-2H3, purity 98%

System: ethanol + 1H-1,2,4-triazole; phases: Liquid, Crystal
Fixed: Pressure, kPa = 101
Property: Mole fraction of 1H-1,2,4-triazole (Liquid); method: laser monitoring observation technique
Temperature, K	Mole fraction of 1H-1,2,4-triazole	uncertainty
283.18	0.1314	0.0027
288.25	0.1471	0.003
293.21	0.1643	0.0034
298.18	0.1836	0.0038
303.15	0.2047	0.0042
308.14	0.2278	0.0047
313.21	0.2531	0.0052
318.23	0.2799	0.0058
323.22	0.3084	0.0064
328.27	0.3389	0.007
333.28	0.3709	0.0077

System: propan-1-ol + 1H-1,2,4-triazole; phases: Liquid, Crystal
Fixed: Pressure, kPa = 101
Property: Mole fraction of 1H-1,2,4-triazole (Liquid); method: laser monitoring observation technique
Temperature, K	Mole fraction of 1H-1,2,4-triazole	uncertainty
283.17	0.1205	0.0024
288.18	0.1345	0.0027
293.27	0.1504	0.0031
298.19	0.1675	0.0034
303.21	0.1867	0.0038
308.23	0.2078	0.0042
313.27	0.231	0.0047
318.2	0.2557	0.0052
323.22	0.283	0.0058
328.28	0.3127	0.0064
333.18	0.3437	0.007
338.23	0.378	0.0077
343.29	0.4149	0.0085

System: propan-2-ol + 1H-1,2,4-triazole; phases: Liquid, Crystal
Fixed: Pressure, kPa = 101
Property: Mole fraction of 1H-1,2,4-triazole (Liquid); method: laser monitoring observation technique
Temperature, K	Mole fraction of 1H-1,2,4-triazole	uncertainty
283.17	0.1294	0.0026
288.21	0.1441	0.0029
293.16	0.1592	0.0032
298.23	0.1756	0.0036
303.27	0.193	0.0039
308.19	0.2114	0.0043
313.24	0.2318	0.0047
318.22	0.2537	0.0052
323.27	0.2779	0.0057
328.2	0.3036	0.0062
333.19	0.332	0.0068
338.18	0.3629	0.0074
343.26	0.3972	0.0081

System: 1,2-propanediol + 1H-1,2,4-triazole; phases: Liquid, Crystal
Fixed: Pressure, kPa = 101
Property: Mole fraction of 1H-1,2,4-triazole (Liquid); method: laser monitoring observation technique
Temperature, K	Mole fraction of 1H-1,2,4-triazole	uncertainty
283.16	0.1745	0.0036
288.27	0.2125	0.0043
293.26	0.2488	0.0051
298.16	0.2837	0.0058
303.19	0.3187	0.0065
308.18	0.3527	0.0072
313.2	0.3862	0.0078
318.28	0.4194	0.0085
323.21	0.4511	0.0092
328.22	0.4827	0.0098
333.23	0.5137	0.0105
338.29	0.5446	0.011
343.21	0.5742	0.0116
348.23	0.6039	0.0122
353.24	0.6333	0.0127

System: ethyl methanoate + 1H-1,2,4-triazole; phases: Liquid, Crystal
Fixed: Pressure, kPa = 101
Property: Mole fraction of 1H-1,2,4-triazole (Liquid); method: laser monitoring observation technique
Temperature, K	Mole fraction of 1H-1,2,4-triazole	uncertainty
283.21	0.02083	0.00043
288.23	0.0246	0.0005
293.29	0.02864	0.00058
298.24	0.03309	0.00067
303.26	0.03838	0.00078
308.17	0.04459	0.00091
313.24	0.05235	0.00107
318.27	0.06168	0.00126
323.31	0.07295	0.00148

System: methyl ethanoate + 1H-1,2,4-triazole; phases: Liquid, Crystal
Fixed: Pressure, kPa = 101
Property: Mole fraction of 1H-1,2,4-triazole (Liquid); method: laser monitoring observation technique
Temperature, K	Mole fraction of 1H-1,2,4-triazole	uncertainty
283.27	0.0968	0.002
288.21	0.1064	0.0022
293.19	0.1168	0.0024
298.21	0.1282	0.0026
303.2	0.1408	0.0028
308.29	0.1552	0.0031
313.18	0.171	0.0035
318.16	0.1892	0.0038
323.24	0.2104	0.0043

System: ethyl acetate + 1H-1,2,4-triazole; phases: Liquid, Crystal
Fixed: Pressure, kPa = 101
Property: Mole fraction of 1H-1,2,4-triazole (Liquid); method: laser monitoring observation technique
Temperature, K	Mole fraction of 1H-1,2,4-triazole	uncertainty
283.21	0.0268	0.0006
288.29	0.032	0.0007
293.21	0.0365	0.0007
298.19	0.041	0.0008
303.18	0.0457	0.0009
308.27	0.0513	0.001
313.2	0.0578	0.0012
318.21	0.066	0.0013
323.16	0.0759	0.0015
328.17	0.0884	0.0018
333.27	0.104	0.0021

System: butyl ethanoate + 1H-1,2,4-triazole; phases: Liquid, Crystal
Fixed: Pressure, kPa = 101
Property: Mole fraction of 1H-1,2,4-triazole (Liquid); method: laser monitoring observation technique
Temperature, K	Mole fraction of 1H-1,2,4-triazole	uncertainty
283.2	0.0141	0.0003
288.23	0.0166	0.0003
293.26	0.0202	0.0004
298.22	0.024	0.0005
303.24	0.0279	0.0006
308.17	0.032	0.0007
313.28	0.037	0.0008
318.21	0.0428	0.0009
323.16	0.0498	0.001
328.24	0.0586	0.0012
333.19	0.0688	0.0014
338.18	0.0809	0.0016
343.23	0.0955	0.0019
348.18	0.113	0.0023
353.19	0.1359	0.0028
358.18	0.1667	0.0034
363.26	0.2111	0.0043
