Measured thermophysical data. Infinite Dilution Binary Diffusion Coefficients for Six Sugars at 0.1 MPa and Temperatures from (273.2 to 353.2) K
Source: J. Chem. Eng. Data, 2007, 10.1021/je0601816
Compound 1: water, H2O, InChI=1S/H2O/h1H2
Compound 2: D-(-)-arabinose, C5H10O5, InChI=1S/C5H10O5/c6-1-3(8)5(10)4(9)2-7/h1,3-5,7-10H,2H2/t3-,4-,5+/m1/s1
Compound 3: D-xylose, C5H10O5, InChI=1S/C5H10O5/c6-1-3(8)5(10)4(9)2-7/h1,3-5,7-10H,2H2/t3-,4+,5+/m0/s1
Compound 4: D-glucose, C6H12O6, InChI=1S/C6H12O6/c7-1-3(9)5(11)6(12)4(10)2-8/h1,3-6,8-12H,2H2/t3-,4+,5+,6+/m0/s1
Compound 5: D-mannose, C6H12O6, InChI=1S/C6H12O6/c7-1-3(9)5(11)6(12)4(10)2-8/h1,3-6,8-12H,2H2/t3-,4-,5-,6-/m1/s1
Compound 6: (+)-galactose, C6H12O6, InChI=1S/C6H12O6/c7-1-3(9)5(11)6(12)4(10)2-8/h1,3-6,8-12H,2H2/t3-,4+,5+,6-/m0/s1
Compound 7: D-sucrose, C12H22O11, InChI=1S/C12H22O11/c13-1-4-6(16)8(18)9(19)11(21-4)23-12(3-15)10(20)7(17)5(2-14)22-12/h4-11,13-20H,1-3H2/t4-,5-,6-,7-,8+,9-,10+,11-,12+/m1/s1

System: water + D-(-)-arabinose; phases: Liquid
Fixed: Mole fraction of D-(-)-arabinose = 0
Fixed: Pressure, kPa = 100
Property: Binary diffusion coefficient, m2/s (Liquid); method: Taylor dispersion method
Temperature, K	Binary diffusion coefficient, m2/s	uncertainty
273.2	3.59e-10	0.025
293.2	6.82e-10	0.044
298.2	7.73e-10	0.05
313.2	1.11e-09	0.071
333.2	1.67e-09	0.105
353.2	2.37e-09	0.149

System: D-xylose + water; phases: Liquid
Fixed: Mole fraction of D-xylose = 0
Fixed: Pressure, kPa = 100
Property: Binary diffusion coefficient, m2/s (Liquid); method: Taylor dispersion method
Temperature, K	Binary diffusion coefficient, m2/s	uncertainty
273.2	3.48e-10	0.024
293.2	6.65e-10	0.043
298.2	7.69e-10	0.05
313.2	1.11e-09	0.071
333.2	1.64e-09	0.103
353.2	2.33e-09	0.146

System: D-glucose + water; phases: Liquid
Fixed: Mole fraction of D-glucose = 0
Fixed: Pressure, kPa = 100
Property: Binary diffusion coefficient, m2/s (Liquid); method: Taylor dispersion method
Temperature, K	Binary diffusion coefficient, m2/s	uncertainty
273.2	3.23e-10	0.023
293.2	6.05e-10	0.04
298.2	6.76e-10	0.044
313.2	9.97e-10	0.064
333.2	1.49e-09	0.094
353.2	2.13e-09	0.134

System: D-mannose + water; phases: Liquid
Fixed: Mole fraction of D-mannose = 0
Fixed: Pressure, kPa = 100
Property: Binary diffusion coefficient, m2/s (Liquid); method: Taylor dispersion method
Temperature, K	Binary diffusion coefficient, m2/s	uncertainty
273.2	3.34e-10	0.023
293.2	6.2e-10	0.041
298.2	7.04e-10	0.046
313.2	1.02e-09	0.065
333.2	1.59e-09	0.1
353.2	2.16e-09	0.135

System: (+)-galactose + water; phases: Liquid
Fixed: Mole fraction of (+)-galactose = 0
Fixed: Pressure, kPa = 100
Property: Binary diffusion coefficient, m2/s (Liquid); method: Taylor dispersion method
Temperature, K	Binary diffusion coefficient, m2/s	uncertainty
273.2	3.19e-10	0.023
293.2	6.25e-10	0.041
298.2	7.06e-10	0.046
313.2	1.01e-09	0.064
333.2	1.51e-09	0.095
353.2	2.17e-09	0.136

System: D-sucrose + water; phases: Liquid
Fixed: Mole fraction of D-sucrose = 0
Fixed: Pressure, kPa = 100
Property: Binary diffusion coefficient, m2/s (Liquid); method: Taylor dispersion method
Temperature, K	Binary diffusion coefficient, m2/s	uncertainty
273.2	2.55e-10	0.019
293.2	4.87e-10	0.032
298.2	5.46e-10	0.036
313.2	7.92e-10	0.051
333.2	1.17e-09	0.074
353.2	1.69e-09	0.107
