Measured thermophysical data. Solubility of Anthracene in N,N-Dimethyformamide, N,N-Dimethylacetamide, and N-Methyl-2-pyrrolidone
Source: J. Chem. Eng. Data, 2007, 10.1021/je060454x
Compound 1: anthracene, C14H10, InChI=1S/C14H10/c1-2-6-12-10-14-8-4-3-7-13(14)9-11(12)5-1/h1-10H
Compound 2: dimethylformamide, C3H7NO, InChI=1S/C3H7NO/c1-4(2)3-5/h3H,1-2H3
Compound 3: N,N-dimethylethanamide, C4H9NO, InChI=1S/C4H9NO/c1-4(6)5(2)3/h1-3H3
Compound 4: N-methylpyrrolidone, C5H9NO, InChI=1S/C5H9NO/c1-6-4-2-3-5(6)7/h2-4H2,1H3

System: dimethylformamide + anthracene; phases: Liquid, Crystal
Fixed: Pressure, kPa = 101
Property: Mole fraction of anthracene (Liquid); method: Beer-Lambert Law
Temperature, K	Mole fraction of anthracene	uncertainty
293.35	0.0042	0.0011
298.45	0.0054	0.0011
303	0.00577	0.0011
303.15	0.0068	0.0011
308	0.00727	0.00125
308.45	0.0086	0.0013
312.8	0.01017	0.00124
313.21	0.01136	0.0011
313.65	0.0104	0.0012
317.4	0.01107	0.00119
318.15	0.01274	0.00114
318.85	0.0131	0.0011
322.8	0.01397	0.00119
323.25	0.015	0.0012
326.28	0.01656	0.00111
329.15	0.018	0.0011
333.15	0.01915	0.00111
334.55	0.0211	0.0013
334.9	0.02216	0.00126
339.75	0.0252	0.0011
345.05	0.0292	0.0011
348.29	0.03206	0.00113
349.85	0.0336	0.0011
353.55	0.0384	0.0011
358.85	0.0448	0.0011
359.48	0.0452	0.0011

System: anthracene + N,N-dimethylethanamide; phases: Liquid, Crystal
Fixed: Pressure, kPa = 101
Property: Mole fraction of anthracene (Liquid); method: Beer-Lambert Law
Temperature, K	Mole fraction of anthracene	uncertainty
293.15	0.0083	0.0016
298.85	0.0113	0.0016
303.85	0.0142	0.0016
308.75	0.0159	0.0016
313.95	0.0185	0.0016
319.75	0.0215	0.0016
324.25	0.025	0.0016
328.05	0.0269	0.0016
332.2	0.03018	0.00164
333.15	0.029	0.0016
339.35	0.0338	0.0016
344.95	0.0393	0.0016
348.45	0.0432	0.0016
354.55	0.0485	0.0017
359.25	0.0564	0.0017

System: anthracene + N-methylpyrrolidone; phases: Liquid, Crystal
Fixed: Pressure, kPa = 101
Property: Mole fraction of anthracene (Liquid); method: Beer-Lambert Law
Temperature, K	Mole fraction of anthracene	uncertainty
293.45	0.0152	0.0105
299.15	0.0186	0.0105
303.45	0.0217	0.0105
308.55	0.0255	0.0105
314.05	0.0325	0.0105
317.84	0.04306	0.01063
318.15	0.0409	0.0106
324.75	0.0455	0.0105
331.21	0.05466	0.01055
331.25	0.0539	0.0105
335.25	0.0591	0.0105
339.75	0.0653	0.0105
344.55	0.0738	0.0105
349.85	0.0804	0.0106
350.45	0.08246	0.01057
353.55	0.0884	0.0106
357.51	0.093	0.0105
