Measured thermophysical data. Vapor Pressures, Enthalpies of Vaporization, and Limiting Activity Coefficients in Water at 100 deg C of 2-Furanaldehyde, Benzaldehyde, Phenylethanal, and 2-Phenylethanol
Source: J. Chem. Eng. Data, 2007, 10.1021/je060406c
Compound 1: 2-furaldehyde, C5H4O2, InChI=1S/C5H4O2/c6-4-5-2-1-3-7-5/h1-4H
Compound 2: benzaldehyde, C7H6O, InChI=1S/C7H6O/c8-6-7-4-2-1-3-5-7/h1-6H
Compound 3: .alpha.-tolualdehyde, C8H8O, InChI=1S/C8H8O/c9-7-6-8-4-2-1-3-5-8/h1-5,7H,6H2
Compound 4: 2-phenylethanol, C8H10O, InChI=1S/C8H10O/c9-7-6-8-4-2-1-3-5-8/h1-5,9H,6-7H2

System: 2-furaldehyde; phases: Liquid, Gas
Property: Vapor or sublimation pressure, kPa (Liquid); method: Transpiration method
Temperature, K	Vapor or sublimation pressure, kPa	uncertainty
276.7	0.0525	0.003
281.5	0.0746	0.0041
285.4	0.1011	0.0056
288.4	0.1293	0.0072
290.6	0.1516	0.0084
293.2	0.182	0.01
295.5	0.2088	0.0116
298.2	0.2589	0.0143
300.5	0.3002	0.0166
303.1	0.3652	0.0201
308.2	0.4911	0.0268
312.2	0.6213	0.0339
315.1	0.7411	0.0408
317.9	0.9108	0.0501
320.1	1.0404	0.0569
323.4	1.2555	0.0683

System: benzaldehyde; phases: Liquid, Gas
Property: Vapor or sublimation pressure, kPa (Liquid); method: Transpiration method
Temperature, K	Vapor or sublimation pressure, kPa	uncertainty
278.4	0.04083	0.0023
282.3	0.05524	0.00309
286.3	0.07697	0.00424
290.3	0.09697	0.00539
294.3	0.13718	0.00759
298.4	0.17748	0.00979
303.2	0.24598	0.01345
308.2	0.31949	0.01745
313.2	0.43065	0.02342

System: .alpha.-tolualdehyde; phases: Liquid, Gas
Property: Vapor or sublimation pressure, kPa (Liquid); method: Transpiration method
Temperature, K	Vapor or sublimation pressure, kPa	uncertainty
293.2	0.01683	0.00095
298.1	0.02456	0.00137
303.1	0.03724	0.00207
308.2	0.05436	0.00301
313.7	0.0801	0.00443
317.9	0.111	0.0061
323	0.15	0.0083
328.1	0.2162	0.0119
332.1	0.2883	0.0158
338	0.4029	0.022
343	0.5498	0.0299

System: 2-phenylethanol; phases: Liquid, Gas
Property: Vapor or sublimation pressure, kPa (Liquid); method: Transpiration method
Temperature, K	Vapor or sublimation pressure, kPa	uncertainty
287.8	0.00251	0.00014
289.7	0.00285	0.00016
292.7	0.00399	0.00023
295.1	0.00482	0.00027
297.5	0.00626	0.00036
302.5	0.00976	0.00055
308.2	0.0153	0.00086
312.5	0.02276	0.00127
316.6	0.03091	0.0017
317.6	0.03285	0.0018
322.7	0.05022	0.00277
322.7	0.05028	0.00278
322.8	0.05055	0.00279
327.8	0.06913	0.00381
332.8	0.09839	0.00543
337.9	0.13953	0.00777
342.9	0.20969	0.01153
348.1	0.27945	0.01527
353.2	0.37766	0.02073
358.3	0.52433	0.02868
363.3	0.69215	0.03756
