Measured thermophysical data. Solubility of the Sesquiterpene Alcohol Patchoulol in Supercritical Carbon Dioxide
Source: J. Chem. Eng. Data, 2007, 10.1021/je060358w
Compound 1: patchouli alcohol, C15H26O, InChI=1S/C15H26O/c1-10-5-8-15(16)13(2,3)11-6-7-14(15,4)12(10)9-11/h10-12,16H,5-9H2,1-4H3/t10-,11+,12-,14-,15+/m0/s1
Compound 2: carbon dioxide, CO2, InChI=1S/CO2/c2-1-3

System: carbon dioxide + patchouli alcohol; phases: Fluid (supercritical or subcritical phases), Crystal
Property: Mole fraction of patchouli alcohol (Fluid (supercritical or subcritical phases)); method: off-line GC-MS analysis
Temperature, K	Pressure, kPa	Mole fraction of patchouli alcohol	uncertainty
313.15	10000	0.0018	0.00062
313.15	15000	0.004	0.0018
313.15	20000	0.006	0.00241
313.15	25000	0.0094	0.00261
323.15	10000	0.00043	0.00015
323.15	15000	0.0031	0.00025
323.15	20000	0.0048	0.00042
323.15	25000	0.0077	0.00142
