Measured thermophysical data. Henry's Law Constants and Infinite Dilution Activity Coefficients of Propane, Propene, Butane, 2-Methylpropane, 1-Butene, 2-Methylpropene, trans-2-Butene, cis-2-Butene, 1,3-Butadiene, Dimethyl Ether, Chloroethane, and 1,1-Difluoroethane in Benzene, Toluene, o-Xylene, m-Xylene, p-Xylene, and Styrene
Source: J. Chem. Eng. Data, 2007, 10.1021/je060395n
Compound 1: benzene, C6H6, InChI=1S/C6H6/c1-2-4-6-5-3-1/h1-6H
Compound 2: propane, C3H8, InChI=1S/C3H8/c1-3-2/h3H2,1-2H3, purity 99.5%
Compound 3: toluene, C7H8, InChI=1S/C7H8/c1-7-5-3-2-4-6-7/h2-6H,1H3
Compound 4: 1,2-dimethylbenzene, C8H10, InChI=1S/C8H10/c1-7-5-3-4-6-8(7)2/h3-6H,1-2H3
Compound 5: 1,3-dimethylbenzene, C8H10, InChI=1S/C8H10/c1-7-4-3-5-8(2)6-7/h3-6H,1-2H3
Compound 6: 1,4-dimethylbenzene, C8H10, InChI=1S/C8H10/c1-7-3-5-8(2)6-4-7/h3-6H,1-2H3
Compound 7: styrene, C8H8, InChI=1S/C8H8/c1-2-8-6-4-3-5-7-8/h2-7H,1H2
Compound 8: propene, C3H6, InChI=1S/C3H6/c1-3-2/h3H,1H2,2H3, purity 99.5%
Compound 9: butane, C4H10, InChI=1S/C4H10/c1-3-4-2/h3-4H2,1-2H3, purity 99.8%
Compound 10: 2-methylpropane, C4H10, InChI=1S/C4H10/c1-4(2)3/h4H,1-3H3, purity 99%
Compound 11: 1-butene, C4H8, InChI=1S/C4H8/c1-3-4-2/h3H,1,4H2,2H3, purity 99%
Compound 12: 2-methylpropene, C4H8, InChI=1S/C4H8/c1-4(2)3/h1H2,2-3H3, purity 99%
Compound 13: (E)-2-butene, C4H8, InChI=1S/C4H8/c1-3-4-2/h3-4H,1-2H3/b4-3+
Compound 14: (Z)-2-butene, C4H8, InChI=1S/C4H8/c1-3-4-2/h3-4H,1-2H3/b4-3-
Compound 15: 1,3-butadiene, C4H6, InChI=1S/C4H6/c1-3-4-2/h3-4H,1-2H2
Compound 16: dimethyl ether, C2H6O, InChI=1S/C2H6O/c1-3-2/h1-2H3
Compound 17: chloroethane, C2H5Cl, InChI=1S/C2H5Cl/c1-2-3/h2H2,1H3
Compound 18: 1,1-difluoroethane, C2H4F2, InChI=1S/C2H4F2/c1-2(3)4/h2H,1H3

System: benzene + propane; phases: Liquid, Gas
Fixed: Mole fraction of propane = 0
Property: Activity coefficient of propane (Liquid); method: calculated from henry's law constants
Temperature, K	Activity coefficient of propane	uncertainty
279.99	2.52	0.15
289.99	2.42	0.15
309.99	2.23	0.13
329.99	2.11	0.13

System: benzene + propane; phases: Liquid, Gas
Fixed: Mole fraction of propane = 0
Property: Henry's Law constant (mole fraction scale), kPa of propane (Liquid); method: gas stripping method
Temperature, K	Henry's Law constant (mole fraction scale), kPa of propane	uncertainty
279.99	1300	55
289.99	1610	68
309.99	2320	98
329.99	3190	135

System: propane + toluene; phases: Liquid, Gas
Fixed: Mole fraction of propane = 0
Property: Activity coefficient of propane (Liquid); method: calculated from henry's law constants
Temperature, K	Activity coefficient of propane	uncertainty
249.93	2.16	0.13
270	2.05	0.12
289.98	1.95	0.12
309.94	1.86	0.11
329.99	1.81	0.11

System: propane + toluene; phases: Liquid, Gas
Fixed: Mole fraction of propane = 0
Property: Henry's Law constant (mole fraction scale), kPa of propane (Liquid); method: gas stripping method
Temperature, K	Henry's Law constant (mole fraction scale), kPa of propane	uncertainty
249.93	440	19
270	800	34
289.98	1300	55
309.94	1940	82
329.99	2730	116

System: propane + 1,2-dimethylbenzene; phases: Liquid, Gas
Fixed: Mole fraction of propane = 0
Property: Activity coefficient of propane (Liquid); method: calculated from henry's law constants
Temperature, K	Activity coefficient of propane	uncertainty
249.97	2.15	0.13
270.13	2.05	0.12
289.99	1.96	0.12
309.84	1.92	0.12
329.99	1.85	0.11

System: propane + 1,2-dimethylbenzene; phases: Liquid, Gas
Fixed: Mole fraction of propane = 0
Property: Henry's Law constant (mole fraction scale), kPa of propane (Liquid); method: gas stripping method
Temperature, K	Henry's Law constant (mole fraction scale), kPa of propane	uncertainty
249.97	440	19
270.13	800	34
289.99	1310	56
309.84	1990	84
329.99	2790	118

System: propane + 1,3-dimethylbenzene; phases: Liquid, Gas
Fixed: Mole fraction of propane = 0
Property: Activity coefficient of propane (Liquid); method: calculated from henry's law constants
Temperature, K	Activity coefficient of propane	uncertainty
249.98	1.97	0.12
270.1	1.86	0.11
289.99	1.83	0.11
309.84	1.77	0.11
329.99	1.72	0.1

System: propane + 1,3-dimethylbenzene; phases: Liquid, Gas
Fixed: Mole fraction of propane = 0
Property: Henry's Law constant (mole fraction scale), kPa of propane (Liquid); method: gas stripping method
Temperature, K	Henry's Law constant (mole fraction scale), kPa of propane	uncertainty
249.98	400	17
270.1	730	31
289.99	1220	52
309.84	1840	78
329.99	2600	110

System: propane + 1,4-dimethylbenzene; phases: Liquid, Gas
Fixed: Mole fraction of propane = 0
Property: Activity coefficient of propane (Liquid); method: calculated from henry's law constants
Temperature, K	Activity coefficient of propane	uncertainty
289.99	1.73	0.1
299.99	1.7	0.1
309.85	1.67	0.1
319.99	1.68	0.1
329.99	1.66	0.1

System: propane + 1,4-dimethylbenzene; phases: Liquid, Gas
Fixed: Mole fraction of propane = 0
Property: Henry's Law constant (mole fraction scale), kPa of propane (Liquid); method: gas stripping method
Temperature, K	Henry's Law constant (mole fraction scale), kPa of propane	uncertainty
289.99	1160	49
299.99	1430	61
309.85	1730	73
319.99	2130	90
329.99	2500	106

System: propane + styrene; phases: Liquid, Gas
Fixed: Mole fraction of propane = 0
Property: Activity coefficient of propane (Liquid); method: calculated from henry's law constants
Temperature, K	Activity coefficient of propane	uncertainty
249.95	4.32	0.26
270.07	3.97	0.24
309.84	3.48	0.21
329.99	3.32	0.2

System: propane + styrene; phases: Liquid, Gas
Fixed: Mole fraction of propane = 0
Property: Henry's Law constant (mole fraction scale), kPa of propane (Liquid); method: gas stripping method
Temperature, K	Henry's Law constant (mole fraction scale), kPa of propane	uncertainty
249.95	890	38
270.07	1550	66
309.84	3620	154
329.99	5020	213

System: benzene + propene; phases: Liquid, Gas
Fixed: Mole fraction of propene = 0
Property: Activity coefficient of propene (Liquid); method: calculated from henry's law constants
Temperature, K	Activity coefficient of propene	uncertainty
279.99	1.77	0.11
289.99	1.74	0.1
309.99	1.67	0.1
329.99	1.66	0.1

System: benzene + propene; phases: Liquid, Gas
Fixed: Mole fraction of propene = 0
Property: Henry's Law constant (mole fraction scale), kPa of propene (Liquid); method: gas stripping method
Temperature, K	Henry's Law constant (mole fraction scale), kPa of propene	uncertainty
279.99	1100	47
289.99	1380	59
309.99	2040	87
329.99	2920	124

System: toluene + propene; phases: Liquid, Gas
Fixed: Mole fraction of propene = 0
Property: Activity coefficient of propene (Liquid); method: calculated from henry's law constants
Temperature, K	Activity coefficient of propene	uncertainty
249.93	1.54	0.09
270	1.51	0.09
289.98	1.51	0.09
309.94	1.49	0.09
329.99	1.48	0.09

System: toluene + propene; phases: Liquid, Gas
Fixed: Mole fraction of propene = 0
Property: Henry's Law constant (mole fraction scale), kPa of propene (Liquid); method: gas stripping method
Temperature, K	Henry's Law constant (mole fraction scale), kPa of propene	uncertainty
249.93	390	17
270	720	31
289.98	1200	51
309.94	1820	77
329.99	2600	110

System: 1,2-dimethylbenzene + propene; phases: Liquid, Gas
Fixed: Mole fraction of propene = 0
Property: Activity coefficient of propene (Liquid); method: calculated from henry's law constants
Temperature, K	Activity coefficient of propene	uncertainty
249.98	1.57	0.09
270.13	1.56	0.09
289.99	1.55	0.09
309.84	1.53	0.09
329.99	1.51	0.09

System: 1,2-dimethylbenzene + propene; phases: Liquid, Gas
Fixed: Mole fraction of propene = 0
Property: Henry's Law constant (mole fraction scale), kPa of propene (Liquid); method: gas stripping method
Temperature, K	Henry's Law constant (mole fraction scale), kPa of propene	uncertainty
249.98	400	17
270.13	740	31
289.99	1230	52
309.84	1860	79
329.99	2640	112

System: 1,3-dimethylbenzene + propene; phases: Liquid, Gas
Fixed: Mole fraction of propene = 0
Property: Activity coefficient of propene (Liquid); method: calculated from henry's law constants
Temperature, K	Activity coefficient of propene	uncertainty
249.98	1.47	0.09
270.1	1.46	0.09
289.99	1.47	0.09
309.84	1.46	0.09
329.99	1.45	0.09

System: 1,3-dimethylbenzene + propene; phases: Liquid, Gas
Fixed: Mole fraction of propene = 0
Property: Henry's Law constant (mole fraction scale), kPa of propene (Liquid); method: gas stripping method
Temperature, K	Henry's Law constant (mole fraction scale), kPa of propene	uncertainty
249.98	370	16
270.1	690	29
289.99	1170	50
309.84	1780	76
329.99	2550	108

System: 1,4-dimethylbenzene + propene; phases: Liquid, Gas
Fixed: Mole fraction of propene = 0
Property: Activity coefficient of propene (Liquid); method: calculated from henry's law constants
Temperature, K	Activity coefficient of propene	uncertainty
289.99	1.39	0.08
299.99	1.39	0.08
309.85	1.39	0.08
319.99	1.39	0.08
329.99	1.39	0.08

System: 1,4-dimethylbenzene + propene; phases: Liquid, Gas
Fixed: Mole fraction of propene = 0
Property: Henry's Law constant (mole fraction scale), kPa of propene (Liquid); method: gas stripping method
Temperature, K	Henry's Law constant (mole fraction scale), kPa of propene	uncertainty
289.99	1100	47
299.99	1380	59
309.85	1690	72
319.99	2060	87
329.99	2450	104

System: styrene + propene; phases: Liquid, Gas
Fixed: Mole fraction of propene = 0
Property: Activity coefficient of propene (Liquid); method: calculated from henry's law constants
Temperature, K	Activity coefficient of propene	uncertainty
249.95	2.84	0.17
270.07	2.75	0.17
309.84	2.61	0.16
329.99	2.58	0.15

System: styrene + propene; phases: Liquid, Gas
Fixed: Mole fraction of propene = 0
Property: Henry's Law constant (mole fraction scale), kPa of propene (Liquid); method: gas stripping method
Temperature, K	Henry's Law constant (mole fraction scale), kPa of propene	uncertainty
249.95	720	31
270.07	1310	56
309.84	3180	135
329.99	4530	192

System: benzene + butane; phases: Liquid, Gas
Fixed: Mole fraction of butane = 0
Property: Activity coefficient of butane (Liquid); method: calculated from henry's law constants
Temperature, K	Activity coefficient of butane	uncertainty
279.99	2.51	0.15
289.99	2.36	0.14
309.99	2.22	0.13
329.99	1.96	0.12

System: benzene + butane; phases: Liquid, Gas
Fixed: Mole fraction of butane = 0
Property: Henry's Law constant (mole fraction scale), kPa of butane (Liquid); method: gas stripping method
Temperature, K	Henry's Law constant (mole fraction scale), kPa of butane	uncertainty
279.99	320	14
289.99	420	18
309.99	700	30
329.99	1010	43

System: butane + toluene; phases: Liquid, Gas
Fixed: Mole fraction of butane = 0
Property: Activity coefficient of butane (Liquid); method: calculated from henry's law constants
Temperature, K	Activity coefficient of butane	uncertainty
249.93	2.11	0.13
270	1.97	0.12
289.98	1.88	0.11
309.94	1.79	0.11
329.99	1.71	0.1

System: butane + toluene; phases: Liquid, Gas
Fixed: Mole fraction of butane = 0
Property: Henry's Law constant (mole fraction scale), kPa of butane (Liquid); method: gas stripping method
Temperature, K	Henry's Law constant (mole fraction scale), kPa of butane	uncertainty
249.93	81	3
270	174	7
289.98	331	14
309.94	560	24
329.99	880	37

System: 1,2-dimethylbenzene + butane; phases: Liquid, Gas
Fixed: Mole fraction of butane = 0
Property: Activity coefficient of butane (Liquid); method: calculated from henry's law constants
Temperature, K	Activity coefficient of butane	uncertainty
249.97	2.06	0.12
270.13	1.95	0.12
289.99	1.86	0.11
309.84	1.8	0.11
329.99	1.73	0.1

System: 1,2-dimethylbenzene + butane; phases: Liquid, Gas
Fixed: Mole fraction of butane = 0
Property: Henry's Law constant (mole fraction scale), kPa of butane (Liquid); method: gas stripping method
Temperature, K	Henry's Law constant (mole fraction scale), kPa of butane	uncertainty
249.97	80	3
270.13	174	7
289.99	329	14
309.84	570	24
329.99	890	38

System: butane + 1,3-dimethylbenzene; phases: Liquid, Gas
Fixed: Mole fraction of butane = 0
Property: Activity coefficient of butane (Liquid); method: calculated from henry's law constants
Temperature, K	Activity coefficient of butane	uncertainty
249.98	1.93	0.12
270.1	1.77	0.11
289.99	1.73	0.1
309.84	1.7	0.1
329.99	1.61	0.1

System: butane + 1,3-dimethylbenzene; phases: Liquid, Gas
Fixed: Mole fraction of butane = 0
Property: Henry's Law constant (mole fraction scale), kPa of butane (Liquid); method: gas stripping method
Temperature, K	Henry's Law constant (mole fraction scale), kPa of butane	uncertainty
249.98	74	3
270.1	157	7
289.99	305	13
309.84	540	23
329.99	830	35

System: 1,4-dimethylbenzene + butane; phases: Liquid, Gas
Fixed: Mole fraction of butane = 0
Property: Activity coefficient of butane (Liquid); method: calculated from henry's law constants
Temperature, K	Activity coefficient of butane	uncertainty
289.99	1.68	0.1
299.99	1.64	0.1
309.85	1.61	0.1
319.99	1.58	0.09
329.99	1.56	0.09

System: 1,4-dimethylbenzene + butane; phases: Liquid, Gas
Fixed: Mole fraction of butane = 0
Property: Henry's Law constant (mole fraction scale), kPa of butane (Liquid); method: gas stripping method
Temperature, K	Henry's Law constant (mole fraction scale), kPa of butane	uncertainty
289.99	296	13
299.99	391	17
309.85	510	22
319.99	650	28
329.99	810	34

System: styrene + butane; phases: Liquid, Gas
Fixed: Mole fraction of butane = 0
Property: Activity coefficient of butane (Liquid); method: calculated from henry's law constants
Temperature, K	Activity coefficient of butane	uncertainty
249.95	4.14	0.25
270.07	3.97	0.24
309.84	3.39	0.2
329.99	3.16	0.19

System: styrene + butane; phases: Liquid, Gas
Fixed: Mole fraction of butane = 0
Property: Henry's Law constant (mole fraction scale), kPa of butane (Liquid); method: gas stripping method
Temperature, K	Henry's Law constant (mole fraction scale), kPa of butane	uncertainty
249.95	159	7
270.07	352	15
309.84	1060	45
329.99	1630	69

System: benzene + 2-methylpropane; phases: Liquid, Gas
Fixed: Mole fraction of 2-methylpropane = 0
Property: Activity coefficient of 2-methylpropane (Liquid); method: calculated from henry's law constants
Temperature, K	Activity coefficient of 2-methylpropane	uncertainty
279.99	2.81	0.17
289.99	2.64	0.16
309.99	2.43	0.15
329.99	2.19	0.13

System: benzene + 2-methylpropane; phases: Liquid, Gas
Fixed: Mole fraction of 2-methylpropane = 0
Property: Henry's Law constant (mole fraction scale), kPa of 2-methylpropane (Liquid); method: gas stripping method
Temperature, K	Henry's Law constant (mole fraction scale), kPa of 2-methylpropane	uncertainty
279.99	520	22
289.99	660	28
309.99	1040	44
329.99	1480	63

System: 2-methylpropane + toluene; phases: Liquid, Gas
Fixed: Mole fraction of 2-methylpropane = 0
Property: Activity coefficient of 2-methylpropane (Liquid); method: calculated from henry's law constants
Temperature, K	Activity coefficient of 2-methylpropane	uncertainty
249.93	2.45	0.15
270	2.25	0.14
289.98	2.12	0.13
309.94	2.01	0.12
329.99	1.91	0.11

System: 2-methylpropane + toluene; phases: Liquid, Gas
Fixed: Mole fraction of 2-methylpropane = 0
Property: Henry's Law constant (mole fraction scale), kPa of 2-methylpropane (Liquid); method: gas stripping method
Temperature, K	Henry's Law constant (mole fraction scale), kPa of 2-methylpropane	uncertainty
249.93	150	6
270	298	13
289.98	530	22
309.94	860	36
329.99	1300	55

System: 2-methylpropane + 1,2-dimethylbenzene; phases: Liquid, Gas
Fixed: Mole fraction of 2-methylpropane = 0
Property: Activity coefficient of 2-methylpropane (Liquid); method: calculated from henry's law constants
Temperature, K	Activity coefficient of 2-methylpropane	uncertainty
249.97	2.38	0.14
270.13	2.25	0.14
289.99	2.13	0.13
309.84	2.04	0.12
329.99	1.94	0.12

System: 2-methylpropane + 1,2-dimethylbenzene; phases: Liquid, Gas
Fixed: Mole fraction of 2-methylpropane = 0
Property: Henry's Law constant (mole fraction scale), kPa of 2-methylpropane (Liquid); method: gas stripping method
Temperature, K	Henry's Law constant (mole fraction scale), kPa of 2-methylpropane	uncertainty
249.97	146	6
270.13	299	13
289.99	530	23
309.84	870	37
329.99	1310	56

System: 2-methylpropane + 1,3-dimethylbenzene; phases: Liquid, Gas
Fixed: Mole fraction of 2-methylpropane = 0
Property: Activity coefficient of 2-methylpropane (Liquid); method: calculated from henry's law constants
Temperature, K	Activity coefficient of 2-methylpropane	uncertainty
249.98	2.17	0.13
270.1	2.04	0.12
289.99	1.97	0.12
309.84	1.89	0.11
329.99	1.8	0.11

System: 2-methylpropane + 1,3-dimethylbenzene; phases: Liquid, Gas
Fixed: Mole fraction of 2-methylpropane = 0
Property: Henry's Law constant (mole fraction scale), kPa of 2-methylpropane (Liquid); method: gas stripping method
Temperature, K	Henry's Law constant (mole fraction scale), kPa of 2-methylpropane	uncertainty
249.98	133	6
270.1	271	12
289.99	494	21
309.84	810	34
329.99	1220	52

System: 2-methylpropane + 1,4-dimethylbenzene; phases: Liquid, Gas
Fixed: Mole fraction of 2-methylpropane = 0
Property: Activity coefficient of 2-methylpropane (Liquid); method: calculated from henry's law constants
Temperature, K	Activity coefficient of 2-methylpropane	uncertainty
289.99	1.91	0.11
299.99	1.86	0.11
309.85	1.83	0.11
319.99	1.79	0.11
329.99	1.74	0.1

System: 2-methylpropane + 1,4-dimethylbenzene; phases: Liquid, Gas
Fixed: Mole fraction of 2-methylpropane = 0
Property: Henry's Law constant (mole fraction scale), kPa of 2-methylpropane (Liquid); method: gas stripping method
Temperature, K	Henry's Law constant (mole fraction scale), kPa of 2-methylpropane	uncertainty
289.99	479	20
299.99	620	26
309.85	780	33
319.99	980	42
329.99	1180	50

System: 2-methylpropane + styrene; phases: Liquid, Gas
Fixed: Mole fraction of 2-methylpropane = 0
Property: Activity coefficient of 2-methylpropane (Liquid); method: calculated from henry's law constants
Temperature, K	Activity coefficient of 2-methylpropane	uncertainty
249.95	5.06	0.3
270.07	4.64	0.28
309.84	3.91	0.23
329.99	3.6	0.22

System: 2-methylpropane + styrene; phases: Liquid, Gas
Fixed: Mole fraction of 2-methylpropane = 0
Property: Henry's Law constant (mole fraction scale), kPa of 2-methylpropane (Liquid); method: gas stripping method
Temperature, K	Henry's Law constant (mole fraction scale), kPa of 2-methylpropane	uncertainty
249.95	310	13
270.07	620	26
309.84	1670	71
329.99	2440	104

System: benzene + 1-butene; phases: Liquid, Gas
Fixed: Mole fraction of 1-butene = 0
Property: Activity coefficient of 1-butene (Liquid); method: calculated from henry's law constants
Temperature, K	Activity coefficient of 1-butene	uncertainty
279.99	1.76	0.11
289.99	1.73	0.1
309.99	1.65	0.1
329.99	1.59	0.1

System: benzene + 1-butene; phases: Liquid, Gas
Fixed: Mole fraction of 1-butene = 0
Property: Henry's Law constant (mole fraction scale), kPa of 1-butene (Liquid); method: gas stripping method
Temperature, K	Henry's Law constant (mole fraction scale), kPa of 1-butene	uncertainty
279.99	275	12
289.99	371	16
309.99	620	26
329.99	970	41

System: 1-butene + toluene; phases: Liquid, Gas
Fixed: Mole fraction of 1-butene = 0
Property: Activity coefficient of 1-butene (Liquid); method: calculated from henry's law constants
Temperature, K	Activity coefficient of 1-butene	uncertainty
249.93	1.52	0.09
270	1.5	0.09
289.98	1.47	0.09
309.94	1.44	0.09
329.99	1.42	0.09

System: 1-butene + toluene; phases: Liquid, Gas
Fixed: Mole fraction of 1-butene = 0
Property: Henry's Law constant (mole fraction scale), kPa of 1-butene (Liquid); method: gas stripping method
Temperature, K	Henry's Law constant (mole fraction scale), kPa of 1-butene	uncertainty
249.93	74	3
270	164	7
289.98	316	13
309.94	540	23
329.99	870	37

System: 1,2-dimethylbenzene + 1-butene; phases: Liquid, Gas
Fixed: Mole fraction of 1-butene = 0
Property: Activity coefficient of 1-butene (Liquid); method: calculated from henry's law constants
Temperature, K	Activity coefficient of 1-butene	uncertainty
249.97	1.56	0.09
270.13	1.55	0.09
289.99	1.52	0.09
309.84	1.51	0.09
329.99	1.46	0.09

System: 1,2-dimethylbenzene + 1-butene; phases: Liquid, Gas
Fixed: Mole fraction of 1-butene = 0
Property: Henry's Law constant (mole fraction scale), kPa of 1-butene (Liquid); method: gas stripping method
Temperature, K	Henry's Law constant (mole fraction scale), kPa of 1-butene	uncertainty
249.97	76	3
270.13	171	7
289.99	325	14
309.84	570	24
329.99	890	38

System: 1-butene + 1,3-dimethylbenzene; phases: Liquid, Gas
Fixed: Mole fraction of 1-butene = 0
Property: Activity coefficient of 1-butene (Liquid); method: calculated from henry's law constants
Temperature, K	Activity coefficient of 1-butene	uncertainty
249.98	1.46	0.09
270.1	1.44	0.09
289.99	1.43	0.09
309.84	1.42	0.09
329.99	1.38	0.08

System: 1-butene + 1,3-dimethylbenzene; phases: Liquid, Gas
Fixed: Mole fraction of 1-butene = 0
Property: Henry's Law constant (mole fraction scale), kPa of 1-butene (Liquid); method: gas stripping method
Temperature, K	Henry's Law constant (mole fraction scale), kPa of 1-butene	uncertainty
249.98	71	3
270.1	158	7
289.99	307	13
309.84	530	22
329.99	840	36

System: 1,4-dimethylbenzene + 1-butene; phases: Liquid, Gas
Fixed: Mole fraction of 1-butene = 0
Property: Activity coefficient of 1-butene (Liquid); method: calculated from henry's law constants
Temperature, K	Activity coefficient of 1-butene	uncertainty
289.99	1.37	0.08
299.99	1.35	0.08
309.85	1.36	0.08
319.99	1.35	0.08
329.99	1.34	0.08

System: 1,4-dimethylbenzene + 1-butene; phases: Liquid, Gas
Fixed: Mole fraction of 1-butene = 0
Property: Henry's Law constant (mole fraction scale), kPa of 1-butene (Liquid); method: gas stripping method
Temperature, K	Henry's Law constant (mole fraction scale), kPa of 1-butene	uncertainty
289.99	294	12
299.99	390	17
309.85	510	22
319.99	650	28
329.99	820	35

System: styrene + 1-butene; phases: Liquid, Gas
Fixed: Mole fraction of 1-butene = 0
Property: Activity coefficient of 1-butene (Liquid); method: calculated from henry's law constants
Temperature, K	Activity coefficient of 1-butene	uncertainty
249.95	2.83	0.17
270.07	2.76	0.17
309.84	2.58	0.15
329.99	2.52	0.15

System: styrene + 1-butene; phases: Liquid, Gas
Fixed: Mole fraction of 1-butene = 0
Property: Henry's Law constant (mole fraction scale), kPa of 1-butene (Liquid); method: gas stripping method
Temperature, K	Henry's Law constant (mole fraction scale), kPa of 1-butene	uncertainty
249.95	138	6
270.07	304	13
309.84	970	41
329.99	1540	65

System: benzene + 2-methylpropene; phases: Liquid, Gas
Fixed: Mole fraction of 2-methylpropene = 0
Property: Activity coefficient of 2-methylpropene (Liquid); method: calculated from henry's law constants
Temperature, K	Activity coefficient of 2-methylpropene	uncertainty
279.99	1.77	0.11
289.99	1.74	0.1
309.99	1.66	0.1
329.99	1.61	0.1

System: benzene + 2-methylpropene; phases: Liquid, Gas
Fixed: Mole fraction of 2-methylpropene = 0
Property: Henry's Law constant (mole fraction scale), kPa of 2-methylpropene (Liquid); method: gas stripping method
Temperature, K	Henry's Law constant (mole fraction scale), kPa of 2-methylpropene	uncertainty
279.99	280	12
289.99	379	16
309.99	640	27
329.99	1000	42

System: toluene + 2-methylpropene; phases: Liquid, Gas
Fixed: Mole fraction of 2-methylpropene = 0
Property: Activity coefficient of 2-methylpropene (Liquid); method: calculated from henry's law constants
Temperature, K	Activity coefficient of 2-methylpropene	uncertainty
249.93	1.55	0.09
270	1.52	0.09
289.98	1.49	0.09
309.94	1.46	0.09
329.99	1.44	0.09

System: toluene + 2-methylpropene; phases: Liquid, Gas
Fixed: Mole fraction of 2-methylpropene = 0
Property: Henry's Law constant (mole fraction scale), kPa of 2-methylpropene (Liquid); method: gas stripping method
Temperature, K	Henry's Law constant (mole fraction scale), kPa of 2-methylpropene	uncertainty
249.93	77	3
270	168	7
289.98	324	14
309.94	560	24
329.99	890	38

System: 1,2-dimethylbenzene + 2-methylpropene; phases: Liquid, Gas
Fixed: Mole fraction of 2-methylpropene = 0
Property: Activity coefficient of 2-methylpropene (Liquid); method: calculated from henry's law constants
Temperature, K	Activity coefficient of 2-methylpropene	uncertainty
249.98	1.55	0.09
270.13	1.54	0.09
289.99	1.51	0.09
309.84	1.5	0.09
329.99	1.47	0.09

System: 1,2-dimethylbenzene + 2-methylpropene; phases: Liquid, Gas
Fixed: Mole fraction of 2-methylpropene = 0
Property: Henry's Law constant (mole fraction scale), kPa of 2-methylpropene (Liquid); method: gas stripping method
Temperature, K	Henry's Law constant (mole fraction scale), kPa of 2-methylpropene	uncertainty
249.98	77	3
270.13	172	7
289.99	329	14
309.84	570	24
329.99	910	39

System: 1,3-dimethylbenzene + 2-methylpropene; phases: Liquid, Gas
Fixed: Mole fraction of 2-methylpropene = 0
Property: Activity coefficient of 2-methylpropene (Liquid); method: calculated from henry's law constants
Temperature, K	Activity coefficient of 2-methylpropene	uncertainty
249.98	1.45	0.09
270.1	1.43	0.09
289.99	1.43	0.09
309.84	1.41	0.08
329.99	1.39	0.08

System: 1,3-dimethylbenzene + 2-methylpropene; phases: Liquid, Gas
Fixed: Mole fraction of 2-methylpropene = 0
Property: Henry's Law constant (mole fraction scale), kPa of 2-methylpropene (Liquid); method: gas stripping method
Temperature, K	Henry's Law constant (mole fraction scale), kPa of 2-methylpropene	uncertainty
249.98	72	3
270.1	160	7
289.99	311	13
309.84	540	23
329.99	860	36

System: 1,4-dimethylbenzene + 2-methylpropene; phases: Liquid, Gas
Fixed: Mole fraction of 2-methylpropene = 0
Property: Activity coefficient of 2-methylpropene (Liquid); method: calculated from henry's law constants
Temperature, K	Activity coefficient of 2-methylpropene	uncertainty
289.99	1.37	0.08
299.99	1.37	0.08
309.85	1.36	0.08
319.99	1.36	0.08
329.99	1.36	0.08

System: 1,4-dimethylbenzene + 2-methylpropene; phases: Liquid, Gas
Fixed: Mole fraction of 2-methylpropene = 0
Property: Henry's Law constant (mole fraction scale), kPa of 2-methylpropene (Liquid); method: gas stripping method
Temperature, K	Henry's Law constant (mole fraction scale), kPa of 2-methylpropene	uncertainty
289.99	299	13
299.99	399	17
309.85	520	22
319.99	670	28
329.99	840	36

System: styrene + 2-methylpropene; phases: Liquid, Gas
Fixed: Mole fraction of 2-methylpropene = 0
Property: Activity coefficient of 2-methylpropene (Liquid); method: calculated from henry's law constants
Temperature, K	Activity coefficient of 2-methylpropene	uncertainty
249.95	2.9	0.17
270.07	2.79	0.17
309.84	2.58	0.15
329.99	2.52	0.15

System: styrene + 2-methylpropene; phases: Liquid, Gas
Fixed: Mole fraction of 2-methylpropene = 0
Property: Henry's Law constant (mole fraction scale), kPa of 2-methylpropene (Liquid); method: gas stripping method
Temperature, K	Henry's Law constant (mole fraction scale), kPa of 2-methylpropene	uncertainty
249.95	143	6
270.07	311	13
309.84	980	42
329.99	1560	66

System: benzene + (E)-2-butene; phases: Liquid, Gas
Fixed: Mole fraction of (E)-2-butene = 0
Property: Activity coefficient of (E)-2-butene (Liquid); method: calculated from henry's law constants
Temperature, K	Activity coefficient of (E)-2-butene	uncertainty
279.99	1.79	0.11
289.99	1.74	0.1
309.99	1.67	0.1
329.99	1.56	0.09

System: benzene + (E)-2-butene; phases: Liquid, Gas
Fixed: Mole fraction of (E)-2-butene = 0
Property: Henry's Law constant (mole fraction scale), kPa of (E)-2-butene (Liquid); method: gas stripping method
Temperature, K	Henry's Law constant (mole fraction scale), kPa of (E)-2-butene	uncertainty
279.99	217	9
289.99	294	12
309.99	510	22
329.99	780	33

System: toluene + (E)-2-butene; phases: Liquid, Gas
Fixed: Mole fraction of (E)-2-butene = 0
Property: Activity coefficient of (E)-2-butene (Liquid); method: calculated from henry's law constants
Temperature, K	Activity coefficient of (E)-2-butene	uncertainty
249.93	1.49	0.09
270	1.46	0.09
289.98	1.44	0.09
309.94	1.42	0.09
329.99	1.4	0.08

System: toluene + (E)-2-butene; phases: Liquid, Gas
Fixed: Mole fraction of (E)-2-butene = 0
Property: Henry's Law constant (mole fraction scale), kPa of (E)-2-butene (Liquid); method: gas stripping method
Temperature, K	Henry's Law constant (mole fraction scale), kPa of (E)-2-butene	uncertainty
249.93	54	2
270	122	5
289.98	244	10
309.94	432	18
329.99	700	30

System: 1,2-dimethylbenzene + (E)-2-butene; phases: Liquid, Gas
Fixed: Mole fraction of (E)-2-butene = 0
Property: Activity coefficient of (E)-2-butene (Liquid); method: calculated from henry's law constants
Temperature, K	Activity coefficient of (E)-2-butene	uncertainty
249.98	1.48	0.09
270.13	1.48	0.09
289.99	1.46	0.09
309.84	1.45	0.09
329.99	1.42	0.09

System: 1,2-dimethylbenzene + (E)-2-butene; phases: Liquid, Gas
Fixed: Mole fraction of (E)-2-butene = 0
Property: Henry's Law constant (mole fraction scale), kPa of (E)-2-butene (Liquid); method: gas stripping method
Temperature, K	Henry's Law constant (mole fraction scale), kPa of (E)-2-butene	uncertainty
249.98	53	2
270.13	125	5
289.99	246	10
309.84	440	19
329.99	710	30

System: 1,3-dimethylbenzene + (E)-2-butene; phases: Liquid, Gas
Fixed: Mole fraction of (E)-2-butene = 0
Property: Activity coefficient of (E)-2-butene (Liquid); method: calculated from henry's law constants
Temperature, K	Activity coefficient of (E)-2-butene	uncertainty
249.98	1.39	0.08
270.1	1.39	0.08
289.99	1.38	0.08
309.84	1.37	0.08
329.99	1.35	0.08

System: 1,3-dimethylbenzene + (E)-2-butene; phases: Liquid, Gas
Fixed: Mole fraction of (E)-2-butene = 0
Property: Henry's Law constant (mole fraction scale), kPa of (E)-2-butene (Liquid); method: gas stripping method
Temperature, K	Henry's Law constant (mole fraction scale), kPa of (E)-2-butene	uncertainty
249.98	50	2
270.1	117	5
289.99	233	10
309.84	415	18
329.99	670	28

System: 1,4-dimethylbenzene + (E)-2-butene; phases: Liquid, Gas
Fixed: Mole fraction of (E)-2-butene = 0
Property: Activity coefficient of (E)-2-butene (Liquid); method: calculated from henry's law constants
Temperature, K	Activity coefficient of (E)-2-butene	uncertainty
289.99	1.32	0.08
299.99	1.32	0.08
309.85	1.32	0.08
319.99	1.31	0.08
329.99	1.3	0.08

System: 1,4-dimethylbenzene + (E)-2-butene; phases: Liquid, Gas
Fixed: Mole fraction of (E)-2-butene = 0
Property: Henry's Law constant (mole fraction scale), kPa of (E)-2-butene (Liquid); method: gas stripping method
Temperature, K	Henry's Law constant (mole fraction scale), kPa of (E)-2-butene	uncertainty
289.99	223	9
299.99	302	13
309.85	399	17
319.99	520	22
329.99	650	28

System: styrene + (E)-2-butene; phases: Liquid, Gas
Fixed: Mole fraction of (E)-2-butene = 0
Property: Activity coefficient of (E)-2-butene (Liquid); method: calculated from henry's law constants
Temperature, K	Activity coefficient of (E)-2-butene	uncertainty
249.95	2.71	0.16
270.07	2.68	0.16
309.84	2.52	0.15
329.99	2.43	0.15

System: styrene + (E)-2-butene; phases: Liquid, Gas
Fixed: Mole fraction of (E)-2-butene = 0
Property: Henry's Law constant (mole fraction scale), kPa of (E)-2-butene (Liquid); method: gas stripping method
Temperature, K	Henry's Law constant (mole fraction scale), kPa of (E)-2-butene	uncertainty
249.95	97	4
270.07	225	10
309.84	760	32
329.99	1220	52

System: benzene + (Z)-2-butene; phases: Liquid, Gas
Fixed: Mole fraction of (Z)-2-butene = 0
Property: Activity coefficient of (Z)-2-butene (Liquid); method: calculated from henry's law constants
Temperature, K	Activity coefficient of (Z)-2-butene	uncertainty
279.99	1.61	0.1
289.99	1.59	0.1
309.99	1.53	0.09
329.99	1.5	0.09

System: benzene + (Z)-2-butene; phases: Liquid, Gas
Fixed: Mole fraction of (Z)-2-butene = 0
Property: Henry's Law constant (mole fraction scale), kPa of (Z)-2-butene (Liquid); method: gas stripping method
Temperature, K	Henry's Law constant (mole fraction scale), kPa of (Z)-2-butene	uncertainty
279.99	176	7
289.99	246	10
309.99	434	18
329.99	710	30

System: toluene + (Z)-2-butene; phases: Liquid, Gas
Fixed: Mole fraction of (Z)-2-butene = 0
Property: Activity coefficient of (Z)-2-butene (Liquid); method: calculated from henry's law constants
Temperature, K	Activity coefficient of (Z)-2-butene	uncertainty
249.93	1.43	0.09
270	1.4	0.08
289.98	1.39	0.08
309.94	1.35	0.08
329.99	1.34	0.08

System: toluene + (Z)-2-butene; phases: Liquid, Gas
Fixed: Mole fraction of (Z)-2-butene = 0
Property: Henry's Law constant (mole fraction scale), kPa of (Z)-2-butene (Liquid); method: gas stripping method
Temperature, K	Henry's Law constant (mole fraction scale), kPa of (Z)-2-butene	uncertainty
249.93	45	2
270	105	4
289.98	215	9
309.94	382	16
329.99	640	27

System: 1,2-dimethylbenzene + (Z)-2-butene; phases: Liquid, Gas
Fixed: Mole fraction of (Z)-2-butene = 0
Property: Activity coefficient of (Z)-2-butene (Liquid); method: calculated from henry's law constants
Temperature, K	Activity coefficient of (Z)-2-butene	uncertainty
249.98	1.45	0.09
270.13	1.44	0.09
289.99	1.41	0.08
309.84	1.4	0.08
329.99	1.37	0.08

System: 1,2-dimethylbenzene + (Z)-2-butene; phases: Liquid, Gas
Fixed: Mole fraction of (Z)-2-butene = 0
Property: Henry's Law constant (mole fraction scale), kPa of (Z)-2-butene (Liquid); method: gas stripping method
Temperature, K	Henry's Law constant (mole fraction scale), kPa of (Z)-2-butene	uncertainty
249.98	46	2
270.13	109	5
289.99	217	9
309.84	395	17
329.99	650	28

System: 1,3-dimethylbenzene + (Z)-2-butene; phases: Liquid, Gas
Fixed: Mole fraction of (Z)-2-butene = 0
Property: Activity coefficient of (Z)-2-butene (Liquid); method: calculated from henry's law constants
Temperature, K	Activity coefficient of (Z)-2-butene	uncertainty
249.98	1.33	0.08
270.1	1.33	0.08
289.99	1.33	0.08
309.84	1.33	0.08
329.99	1.31	0.08

System: 1,3-dimethylbenzene + (Z)-2-butene; phases: Liquid, Gas
Fixed: Mole fraction of (Z)-2-butene = 0
Property: Henry's Law constant (mole fraction scale), kPa of (Z)-2-butene (Liquid); method: gas stripping method
Temperature, K	Henry's Law constant (mole fraction scale), kPa of (Z)-2-butene	uncertainty
249.98	42	2
270.1	100	4
289.99	205	9
309.84	373	16
329.99	620	26

System: 1,4-dimethylbenzene + (Z)-2-butene; phases: Liquid, Gas
Fixed: Mole fraction of (Z)-2-butene = 0
Property: Activity coefficient of (Z)-2-butene (Liquid); method: calculated from henry's law constants
Temperature, K	Activity coefficient of (Z)-2-butene	uncertainty
289.99	1.28	0.08
299.99	1.28	0.08
309.85	1.27	0.08
319.99	1.28	0.08
329.99	1.27	0.08

System: 1,4-dimethylbenzene + (Z)-2-butene; phases: Liquid, Gas
Fixed: Mole fraction of (Z)-2-butene = 0
Property: Henry's Law constant (mole fraction scale), kPa of (Z)-2-butene (Liquid); method: gas stripping method
Temperature, K	Henry's Law constant (mole fraction scale), kPa of (Z)-2-butene	uncertainty
289.99	197	8
299.99	270	11
309.85	358	15
319.99	472	20
329.99	600	25

System: styrene + (Z)-2-butene; phases: Liquid, Gas
Fixed: Mole fraction of (Z)-2-butene = 0
Property: Activity coefficient of (Z)-2-butene (Liquid); method: calculated from henry's law constants
Temperature, K	Activity coefficient of (Z)-2-butene	uncertainty
249.95	2.6	0.16
270.07	2.52	0.15
309.84	2.36	0.14
329.99	2.31	0.14

System: styrene + (Z)-2-butene; phases: Liquid, Gas
Fixed: Mole fraction of (Z)-2-butene = 0
Property: Henry's Law constant (mole fraction scale), kPa of (Z)-2-butene (Liquid); method: gas stripping method
Temperature, K	Henry's Law constant (mole fraction scale), kPa of (Z)-2-butene	uncertainty
249.95	82	4
270.07	190	8
309.84	660	28
329.99	1090	46

System: benzene + 1,3-butadiene; phases: Liquid, Gas
Fixed: Mole fraction of 1,3-butadiene = 0
Property: Activity coefficient of 1,3-butadiene (Liquid); method: calculated from henry's law constants
Temperature, K	Activity coefficient of 1,3-butadiene	uncertainty
279.99	1.36	0.08
289.99	1.35	0.08
309.99	1.32	0.08
329.99	1.29	0.08

System: benzene + 1,3-butadiene; phases: Liquid, Gas
Fixed: Mole fraction of 1,3-butadiene = 0
Property: Henry's Law constant (mole fraction scale), kPa of 1,3-butadiene (Liquid); method: gas stripping method
Temperature, K	Henry's Law constant (mole fraction scale), kPa of 1,3-butadiene	uncertainty
279.99	200	9
289.99	276	12
309.99	481	20
329.99	760	32

System: 1,3-butadiene + toluene; phases: Liquid, Gas
Fixed: Mole fraction of 1,3-butadiene = 0
Property: Activity coefficient of 1,3-butadiene (Liquid); method: calculated from henry's law constants
Temperature, K	Activity coefficient of 1,3-butadiene	uncertainty
249.93	1.16	0.07
270	1.18	0.07
289.98	1.2	0.07
309.94	1.2	0.07
329.99	1.2	0.07

System: 1,3-butadiene + toluene; phases: Liquid, Gas
Fixed: Mole fraction of 1,3-butadiene = 0
Property: Henry's Law constant (mole fraction scale), kPa of 1,3-butadiene (Liquid); method: gas stripping method
Temperature, K	Henry's Law constant (mole fraction scale), kPa of 1,3-butadiene	uncertainty
249.93	52	2
270	122	5
289.98	245	10
309.94	436	19
329.99	710	30

System: 1,2-dimethylbenzene + 1,3-butadiene; phases: Liquid, Gas
Fixed: Mole fraction of 1,3-butadiene = 0
Property: Activity coefficient of 1,3-butadiene (Liquid); method: calculated from henry's law constants
Temperature, K	Activity coefficient of 1,3-butadiene	uncertainty
249.97	1.22	0.07
270.13	1.23	0.07
289.99	1.22	0.07
309.84	1.23	0.07
329.99	1.22	0.07

System: 1,2-dimethylbenzene + 1,3-butadiene; phases: Liquid, Gas
Fixed: Mole fraction of 1,3-butadiene = 0
Property: Henry's Law constant (mole fraction scale), kPa of 1,3-butadiene (Liquid); method: gas stripping method
Temperature, K	Henry's Law constant (mole fraction scale), kPa of 1,3-butadiene	uncertainty
249.97	55	2
270.13	127	5
289.99	250	11
309.84	446	19
329.99	720	31

System: 1,3-butadiene + 1,3-dimethylbenzene; phases: Liquid, Gas
Fixed: Mole fraction of 1,3-butadiene = 0
Property: Activity coefficient of 1,3-butadiene (Liquid); method: calculated from henry's law constants
Temperature, K	Activity coefficient of 1,3-butadiene	uncertainty
249.98	1.13	0.07
270.1	1.15	0.07
289.99	1.18	0.07
309.84	1.18	0.07
329.99	1.18	0.07

System: 1,3-butadiene + 1,3-dimethylbenzene; phases: Liquid, Gas
Fixed: Mole fraction of 1,3-butadiene = 0
Property: Henry's Law constant (mole fraction scale), kPa of 1,3-butadiene (Liquid); method: gas stripping method
Temperature, K	Henry's Law constant (mole fraction scale), kPa of 1,3-butadiene	uncertainty
249.98	51	2
270.1	119	5
289.99	242	10
309.84	427	18
329.99	700	30

System: 1,4-dimethylbenzene + 1,3-butadiene; phases: Liquid, Gas
Fixed: Mole fraction of 1,3-butadiene = 0
Property: Activity coefficient of 1,3-butadiene (Liquid); method: calculated from henry's law constants
Temperature, K	Activity coefficient of 1,3-butadiene	uncertainty
289.99	1.16	0.07
299.99	1.15	0.07
309.85	1.16	0.07
319.99	1.15	0.07
329.99	1.15	0.07

System: 1,4-dimethylbenzene + 1,3-butadiene; phases: Liquid, Gas
Fixed: Mole fraction of 1,3-butadiene = 0
Property: Henry's Law constant (mole fraction scale), kPa of 1,3-butadiene (Liquid); method: gas stripping method
Temperature, K	Henry's Law constant (mole fraction scale), kPa of 1,3-butadiene	uncertainty
289.99	236	10
299.99	318	14
309.85	418	18
319.99	540	23
329.99	680	29

System: styrene + 1,3-butadiene; phases: Liquid, Gas
Fixed: Mole fraction of 1,3-butadiene = 0
Property: Activity coefficient of 1,3-butadiene (Liquid); method: calculated from henry's law constants
Temperature, K	Activity coefficient of 1,3-butadiene	uncertainty
249.95	2.11	0.13
270.07	2.09	0.13
309.84	2.05	0.12
329.99	2.02	0.12

System: styrene + 1,3-butadiene; phases: Liquid, Gas
Fixed: Mole fraction of 1,3-butadiene = 0
Property: Henry's Law constant (mole fraction scale), kPa of 1,3-butadiene (Liquid); method: gas stripping method
Temperature, K	Henry's Law constant (mole fraction scale), kPa of 1,3-butadiene	uncertainty
249.95	95	4
270.07	216	9
309.84	740	31
329.99	1200	51

System: benzene + dimethyl ether; phases: Liquid, Gas
Fixed: Mole fraction of dimethyl ether = 0
Property: Activity coefficient of dimethyl ether (Liquid); method: calculated from henry's law constants
Temperature, K	Activity coefficient of dimethyl ether	uncertainty
279.95	1.13	0.07
289.97	1.15	0.07
309.98	1.18	0.07
329.99	1.26	0.08

System: benzene + dimethyl ether; phases: Liquid, Gas
Fixed: Mole fraction of dimethyl ether = 0
Property: Henry's Law constant (mole fraction scale), kPa of dimethyl ether (Liquid); method: gas stripping method
Temperature, K	Henry's Law constant (mole fraction scale), kPa of dimethyl ether	uncertainty
279.95	352	15
289.97	480	20
309.98	830	35
329.99	1380	59

System: toluene + dimethyl ether; phases: Liquid, Gas
Fixed: Mole fraction of dimethyl ether = 0
Property: Activity coefficient of dimethyl ether (Liquid); method: calculated from henry's law constants
Temperature, K	Activity coefficient of dimethyl ether	uncertainty
250.04	1.07	0.06
270.2	1.1	0.07
289.98	1.13	0.07
309.84	1.16	0.07
329.99	1.17	0.07

System: toluene + dimethyl ether; phases: Liquid, Gas
Fixed: Mole fraction of dimethyl ether = 0
Property: Henry's Law constant (mole fraction scale), kPa of dimethyl ether (Liquid); method: gas stripping method
Temperature, K	Henry's Law constant (mole fraction scale), kPa of dimethyl ether	uncertainty
250.04	113	5
270.2	249	11
289.98	475	20
309.84	820	35
329.99	1290	55

System: 1,2-dimethylbenzene + dimethyl ether; phases: Liquid, Gas
Fixed: Mole fraction of dimethyl ether = 0
Property: Activity coefficient of dimethyl ether (Liquid); method: calculated from henry's law constants
Temperature, K	Activity coefficient of dimethyl ether	uncertainty
250.05	1.23	0.07
269.91	1.24	0.07
289.97	1.25	0.08
309.98	1.27	0.08
329.99	1.27	0.08

System: 1,2-dimethylbenzene + dimethyl ether; phases: Liquid, Gas
Fixed: Mole fraction of dimethyl ether = 0
Property: Henry's Law constant (mole fraction scale), kPa of dimethyl ether (Liquid); method: gas stripping method
Temperature, K	Henry's Law constant (mole fraction scale), kPa of dimethyl ether	uncertainty
250.05	130	6
269.91	278	12
289.97	520	22
309.98	900	38
329.99	1410	60

System: 1,3-dimethylbenzene + dimethyl ether; phases: Liquid, Gas
Fixed: Mole fraction of dimethyl ether = 0
Property: Activity coefficient of dimethyl ether (Liquid); method: calculated from henry's law constants
Temperature, K	Activity coefficient of dimethyl ether	uncertainty
249.97	1.17	0.07
270.05	1.22	0.07
289.98	1.21	0.07
309.89	1.21	0.07
329.99	1.21	0.07

System: 1,3-dimethylbenzene + dimethyl ether; phases: Liquid, Gas
Fixed: Mole fraction of dimethyl ether = 0
Property: Henry's Law constant (mole fraction scale), kPa of dimethyl ether (Liquid); method: gas stripping method
Temperature, K	Henry's Law constant (mole fraction scale), kPa of dimethyl ether	uncertainty
249.97	123	5
270.05	274	12
289.98	510	22
309.89	850	36
329.99	1330	56

System: 1,4-dimethylbenzene + dimethyl ether; phases: Liquid, Gas
Fixed: Mole fraction of dimethyl ether = 0
Property: Activity coefficient of dimethyl ether (Liquid); method: calculated from henry's law constants
Temperature, K	Activity coefficient of dimethyl ether	uncertainty
289.97	1.17	0.07
299.98	1.18	0.07
309.98	1.18	0.07
319.99	1.2	0.07
329.99	1.2	0.07

System: 1,4-dimethylbenzene + dimethyl ether; phases: Liquid, Gas
Fixed: Mole fraction of dimethyl ether = 0
Property: Henry's Law constant (mole fraction scale), kPa of dimethyl ether (Liquid); method: gas stripping method
Temperature, K	Henry's Law constant (mole fraction scale), kPa of dimethyl ether	uncertainty
289.97	491	21
299.98	650	28
309.98	840	36
319.99	1070	45
329.99	1320	56

System: styrene + dimethyl ether; phases: Liquid, Gas
Fixed: Mole fraction of dimethyl ether = 0
Property: Activity coefficient of dimethyl ether (Liquid); method: calculated from henry's law constants
Temperature, K	Activity coefficient of dimethyl ether	uncertainty
250.04	0.97	0.06
270.2	1.03	0.06
289.98	1.06	0.06
309.84	1.11	0.07
329.99	1.14	0.07

System: styrene + dimethyl ether; phases: Liquid, Gas
Fixed: Mole fraction of dimethyl ether = 0
Property: Henry's Law constant (mole fraction scale), kPa of dimethyl ether (Liquid); method: gas stripping method
Temperature, K	Henry's Law constant (mole fraction scale), kPa of dimethyl ether	uncertainty
250.04	102	4
270.2	234	10
289.98	443	19
309.84	780	33
329.99	1260	53

System: benzene + chloroethane; phases: Liquid, Gas
Fixed: Mole fraction of chloroethane = 0
Property: Activity coefficient of chloroethane (Liquid); method: calculated from henry's law constants
Temperature, K	Activity coefficient of chloroethane	uncertainty
279.95	1.05	0.06
289.97	1.06	0.06
309.98	1.07	0.06
329.99	1.12	0.07

System: benzene + chloroethane; phases: Liquid, Gas
Fixed: Mole fraction of chloroethane = 0
Property: Henry's Law constant (mole fraction scale), kPa of chloroethane (Liquid); method: gas stripping method
Temperature, K	Henry's Law constant (mole fraction scale), kPa of chloroethane	uncertainty
279.95	84	4
289.97	123	5
309.98	237	10
329.99	431	18

System: chloroethane + toluene; phases: Liquid, Gas
Fixed: Mole fraction of chloroethane = 0
Property: Activity coefficient of chloroethane (Liquid); method: calculated from henry's law constants
Temperature, K	Activity coefficient of chloroethane	uncertainty
250.04	0.92	0.06
270.2	0.95	0.06
289.98	1	0.06
309.84	1.02	0.06
329.99	1.05	0.06

System: chloroethane + toluene; phases: Liquid, Gas
Fixed: Mole fraction of chloroethane = 0
Property: Henry's Law constant (mole fraction scale), kPa of chloroethane (Liquid); method: gas stripping method
Temperature, K	Henry's Law constant (mole fraction scale), kPa of chloroethane	uncertainty
250.04	20	1
270.2	51	2
289.98	115	5
309.84	226	10
329.99	406	17

System: chloroethane + 1,2-dimethylbenzene; phases: Liquid, Gas
Fixed: Mole fraction of chloroethane = 0
Property: Activity coefficient of chloroethane (Liquid); method: calculated from henry's law constants
Temperature, K	Activity coefficient of chloroethane	uncertainty
250.05	1.02	0.06
269.91	1.04	0.06
289.97	1.06	0.06
309.98	1.07	0.06
329.99	1.09	0.07

System: chloroethane + 1,2-dimethylbenzene; phases: Liquid, Gas
Fixed: Mole fraction of chloroethane = 0
Property: Henry's Law constant (mole fraction scale), kPa of chloroethane (Liquid); method: gas stripping method
Temperature, K	Henry's Law constant (mole fraction scale), kPa of chloroethane	uncertainty
250.05	22	1
269.91	55	2
289.97	123	5
309.98	237	10
329.99	419	18

System: chloroethane + 1,3-dimethylbenzene; phases: Liquid, Gas
Fixed: Mole fraction of chloroethane = 0
Property: Activity coefficient of chloroethane (Liquid); method: calculated from henry's law constants
Temperature, K	Activity coefficient of chloroethane	uncertainty
249.97	1.03	0.06
270.05	1.02	0.06
289.98	1.03	0.06
309.89	1.04	0.06
329.99	1.05	0.06

System: chloroethane + 1,3-dimethylbenzene; phases: Liquid, Gas
Fixed: Mole fraction of chloroethane = 0
Property: Henry's Law constant (mole fraction scale), kPa of chloroethane (Liquid); method: gas stripping method
Temperature, K	Henry's Law constant (mole fraction scale), kPa of chloroethane	uncertainty
249.97	22	1
270.05	54	2
289.98	119	5
309.89	230	10
329.99	407	17

System: chloroethane + 1,4-dimethylbenzene; phases: Liquid, Gas
Fixed: Mole fraction of chloroethane = 0
Property: Activity coefficient of chloroethane (Liquid); method: calculated from henry's law constants
Temperature, K	Activity coefficient of chloroethane	uncertainty
289.97	1	0.06
299.98	1.03	0.06
309.98	1.03	0.06
319.99	1.04	0.06
329.99	1.05	0.06

System: chloroethane + 1,4-dimethylbenzene; phases: Liquid, Gas
Fixed: Mole fraction of chloroethane = 0
Property: Henry's Law constant (mole fraction scale), kPa of chloroethane (Liquid); method: gas stripping method
Temperature, K	Henry's Law constant (mole fraction scale), kPa of chloroethane	uncertainty
289.97	116	5
299.98	167	7
309.98	229	10
319.99	306	13
329.99	405	17

System: chloroethane + styrene; phases: Liquid, Gas
Fixed: Mole fraction of chloroethane = 0
Property: Activity coefficient of chloroethane (Liquid); method: calculated from henry's law constants
Temperature, K	Activity coefficient of chloroethane	uncertainty
250.04	0.95	0.06
270.2	0.97	0.06
289.98	0.98	0.06
309.84	1.03	0.06
329.99	1.04	0.06

System: chloroethane + styrene; phases: Liquid, Gas
Fixed: Mole fraction of chloroethane = 0
Property: Henry's Law constant (mole fraction scale), kPa of chloroethane (Liquid); method: gas stripping method
Temperature, K	Henry's Law constant (mole fraction scale), kPa of chloroethane	uncertainty
250.04	20	1
270.2	52	2
289.98	113	5
309.84	228	10
329.99	400	17

System: benzene + 1,1-difluoroethane; phases: Liquid, Gas
Fixed: Mole fraction of 1,1-difluoroethane = 0
Property: Activity coefficient of 1,1-difluoroethane (Liquid); method: calculated from henry's law constants
Temperature, K	Activity coefficient of 1,1-difluoroethane	uncertainty
279.99	2.42	0.15
289.99	2.37	0.14
309.99	2.27	0.14
329.99	2.2	0.13

System: benzene + 1,1-difluoroethane; phases: Liquid, Gas
Fixed: Mole fraction of 1,1-difluoroethane = 0
Property: Henry's Law constant (mole fraction scale), kPa of 1,1-difluoroethane (Liquid); method: gas stripping method
Temperature, K	Henry's Law constant (mole fraction scale), kPa of 1,1-difluoroethane	uncertainty
279.99	770	33
289.99	1020	43
309.99	1650	70
329.99	2500	106

System: 1,1-difluoroethane + toluene; phases: Liquid, Gas
Fixed: Mole fraction of 1,1-difluoroethane = 0
Property: Activity coefficient of 1,1-difluoroethane (Liquid); method: calculated from henry's law constants
Temperature, K	Activity coefficient of 1,1-difluoroethane	uncertainty
249.93	2.38	0.14
270	2.33	0.14
289.98	2.28	0.14
309.94	2.2	0.13
329.99	2.14	0.13

System: 1,1-difluoroethane + toluene; phases: Liquid, Gas
Fixed: Mole fraction of 1,1-difluoroethane = 0
Property: Henry's Law constant (mole fraction scale), kPa of 1,1-difluoroethane (Liquid); method: gas stripping method
Temperature, K	Henry's Law constant (mole fraction scale), kPa of 1,1-difluoroethane	uncertainty
249.93	251	11
270	530	23
289.98	980	42
309.94	1600	68
329.99	2430	103

System: 1,1-difluoroethane + 1,2-dimethylbenzene; phases: Liquid, Gas
Fixed: Mole fraction of 1,1-difluoroethane = 0
Property: Activity coefficient of 1,1-difluoroethane (Liquid); method: calculated from henry's law constants
Temperature, K	Activity coefficient of 1,1-difluoroethane	uncertainty
249.97	2.7	0.16
270.13	2.61	0.16
289.99	2.52	0.15
309.84	2.44	0.15
329.99	2.31	0.14

System: 1,1-difluoroethane + 1,2-dimethylbenzene; phases: Liquid, Gas
Fixed: Mole fraction of 1,1-difluoroethane = 0
Property: Henry's Law constant (mole fraction scale), kPa of 1,1-difluoroethane (Liquid); method: gas stripping method
Temperature, K	Henry's Law constant (mole fraction scale), kPa of 1,1-difluoroethane	uncertainty
249.97	286	12
270.13	600	25
289.99	1080	46
309.84	1770	75
329.99	2630	112

System: 1,1-difluoroethane + 1,3-dimethylbenzene; phases: Liquid, Gas
Fixed: Mole fraction of 1,1-difluoroethane = 0
Property: Activity coefficient of 1,1-difluoroethane (Liquid); method: calculated from henry's law constants
Temperature, K	Activity coefficient of 1,1-difluoroethane	uncertainty
249.98	2.6	0.16
270.1	2.46	0.15
289.99	2.42	0.15
309.84	2.33	0.14
329.99	2.23	0.13

System: 1,1-difluoroethane + 1,3-dimethylbenzene; phases: Liquid, Gas
Fixed: Mole fraction of 1,1-difluoroethane = 0
Property: Henry's Law constant (mole fraction scale), kPa of 1,1-difluoroethane (Liquid); method: gas stripping method
Temperature, K	Henry's Law constant (mole fraction scale), kPa of 1,1-difluoroethane	uncertainty
249.98	275	12
270.1	560	24
289.99	1040	44
309.84	1690	72
329.99	2530	107

System: 1,1-difluoroethane + 1,4-dimethylbenzene; phases: Liquid, Gas
Fixed: Mole fraction of 1,1-difluoroethane = 0
Property: Activity coefficient of 1,1-difluoroethane (Liquid); method: calculated from henry's law constants
Temperature, K	Activity coefficient of 1,1-difluoroethane	uncertainty
289.99	2.36	0.14
299.99	2.29	0.14
309.85	2.27	0.14
319.99	2.23	0.13
329.99	2.18	0.13

System: 1,1-difluoroethane + 1,4-dimethylbenzene; phases: Liquid, Gas
Fixed: Mole fraction of 1,1-difluoroethane = 0
Property: Henry's Law constant (mole fraction scale), kPa of 1,1-difluoroethane (Liquid); method: gas stripping method
Temperature, K	Henry's Law constant (mole fraction scale), kPa of 1,1-difluoroethane	uncertainty
289.99	1010	43
299.99	1290	55
309.85	1640	70
319.99	2040	87
329.99	2480	105

System: 1,1-difluoroethane + styrene; phases: Liquid, Gas
Fixed: Mole fraction of 1,1-difluoroethane = 0
Property: Activity coefficient of 1,1-difluoroethane (Liquid); method: calculated from henry's law constants
Temperature, K	Activity coefficient of 1,1-difluoroethane	uncertainty
249.95	3.72	0.22
270.07	3.67	0.22
309.84	3.5	0.21
329.99	3.4	0.2

System: 1,1-difluoroethane + styrene; phases: Liquid, Gas
Fixed: Mole fraction of 1,1-difluoroethane = 0
Property: Henry's Law constant (mole fraction scale), kPa of 1,1-difluoroethane (Liquid); method: gas stripping method
Temperature, K	Henry's Law constant (mole fraction scale), kPa of 1,1-difluoroethane	uncertainty
249.95	393	17
270.07	840	36
309.84	2530	107
329.99	3870	164
