Measured thermophysical data. Vapor Pressure Measurements for 2-Chloromethylbenzoxazole and Vapor-Liquid Equilibrium Measurements for the Chlorobenzene + 2-Chloromethylbenzoxazole System
Source: J. Chem. Eng. Data, 2006, 10.1021/je060249h
Compound 1: chlorobenzene, C6H5Cl, InChI=1S/C6H5Cl/c7-6-4-2-1-3-5-6/h1-5H, purity 99.5%
Compound 2: 2-(chloromethyl)-1,3-benzoxazole, C8H6ClNO, InChI=1S/C8H6ClNO/c9-5-8-10-6-3-1-2-4-7(6)11-8/h1-4H,5H2

System: chlorobenzene; phases: Liquid, Gas
Property: Vapor or sublimation pressure, kPa (Liquid); method: EBULLIO:UFactor:8
Temperature, K	Vapor or sublimation pressure, kPa	uncertainty
330.5	7.92	0.55
337.4	10.59	0.55

System: 2-(chloromethyl)-1,3-benzoxazole; phases: Liquid, Gas
Property: Vapor or sublimation pressure, kPa (Liquid); method: Ebulliometric method (Recirculating still)
Temperature, K	Vapor or sublimation pressure, kPa	uncertainty
347.65	0.08	0.06
357.1	0.16	0.06
368.45	0.32	0.07
375.15	0.59	0.08
378.2	0.69	0.09
383.2	0.96	0.12
388.15	1.39	0.12
393.5	1.76	0.44
393.85	1.87	0.44
395.6	2.03	0.2
400.3	2.72	0.19
405.25	3.28	0.25
408.35	4.19	0.34
411.9	4.88	0.34
417.3	6.32	1.7
418.1	7.29	1.44
418.85	7.91	1.16
418.9	7.92	0.73
422.05	9.41	0.66
423.2	9.92	0.73
423.2	10.59	0.75
424.2	10.53	0.9
424.55	10.8	1.08

System: chlorobenzene + 2-(chloromethyl)-1,3-benzoxazole; phases: Liquid, Gas
Property: Boiling temperature at pressure P, K (Liquid); method: EBULLIO:UFactor:8
Mole fraction of 2-(chloromethyl)-1,3-benzoxazole	Pressure, kPa	Boiling temperature at pressure P, K	uncertainty
0	7.92	330.5	6.1
0	10.59	337.4	6.2
0.2044	10.59	338.9	6.1
0.2317	7.92	335.5	6
0.3224	10.59	341.1	6.1
0.4322	10.59	344.2	6
0.505	7.92	346.7	6
0.5584	7.92	347.8	6
0.6939	10.59	352.9	6
0.7123	7.92	359.3	6
0.717	7.92	360.1	6
0.7727	7.92	364.5	6.1
0.8186	10.59	365.2	8.5
0.846	10.59	381.8	6.1
0.8708	7.92	376.7	6.1
0.9235	10.59	392.5	6
0.9356	7.92	391.5	6.1
0.9476	7.92	394.7	6
0.9527	10.59	395.5	6.1
0.9593	10.59	403.3	6.1
0.9616	7.92	398.8	6.1
0.9712	10.59	408.1	6.3
0.9781	10.59	412.7	6.2
0.9798	7.92	404.7	6.2
0.9883	7.92	410.9	6
0.9913	10.59	416	6.1
0.995	7.92	415.9	6.1
0.9969	10.59	422.3	6.1
1	7.92	418.9	6.1
1	10.59	423.2	6.1

System: chlorobenzene + 2-(chloromethyl)-1,3-benzoxazole; phases: Gas, Liquid
Property: Mole fraction of 2-(chloromethyl)-1,3-benzoxazole (Gas); method: CHROM:UFactor:16
Mole fraction of 2-(chloromethyl)-1,3-benzoxazole	Pressure, kPa	Mole fraction of 2-(chloromethyl)-1,3-benzoxazole	uncertainty
0	7.92	0	0.0001
0	10.59	0	0.0001
0.2044	10.59	0.0042	0.0008
0.2317	7.92	0.0031	0.0006
0.3224	10.59	0.0064	0.0012
0.4322	10.59	0.0089	0.0017
0.505	7.92	0.0136	0.0026
0.5584	7.92	0.0129	0.0025
0.6939	10.59	0.0154	0.003
0.7123	7.92	0.0213	0.0041
0.717	7.92	0.0219	0.0042
0.7727	7.92	0.0294	0.0056
0.8186	10.59	0.0373	0.0072
0.846	10.59	0.072	0.0138
0.8708	7.92	0.0748	0.0144
0.9235	10.59	0.1406	0.027
0.9356	7.92	0.1959	0.0376
0.9476	7.92	0.2267	0.0435
0.9527	10.59	0.1726	0.0331
0.9593	10.59	0.2373	0.0456
0.9616	7.92	0.3855	0.0741
0.9712	10.59	0.3138	0.0603
0.9781	10.59	0.501	0.0959
0.9798	7.92	0.6249	0.0722
0.9883	7.92	0.7386	0.0504
0.9913	10.59	0.6224	0.0727
0.995	7.92	0.8729	0.0246
0.9969	10.59	0.8329	0.0323
1	7.92	1	0.0001
1	10.59	1	0.0001
