Measured thermophysical data. Physical Properties of Pure 1-Ethyl-3-methylimidazolium Ethylsulfate and Its Binary Mixtures with Ethanol and Water at Several Temperatures
Source: J. Chem. Eng. Data, 2006, 10.1021/je060228n
Compound 1: 1-ethyl-3-methylimidazolium ethyl sulfate, C8H16N2O4S, InChI=1S/C6H11N2.C2H6O4S/c1-3-8-5-4-7(2)6-8;1-2-6-7(3,4)5/h4-6H,3H2,1-2H3;2H2,1H3,(H,3,4,5)/q+1;/p-1
Compound 2: ethanol, C2H6O, InChI=1S/C2H6O/c1-2-3/h3H,2H2,1H3
Compound 3: water, H2O, InChI=1S/H2O/h1H2

System: 1-ethyl-3-methylimidazolium ethyl sulfate; phases: Liquid, Gas
Property: Surface tension liquid-gas, N/m (Liquid); method: Drop weight
Temperature, K	Surface tension liquid-gas, N/m	uncertainty
288.15	0.04791	0.00035
293.15	0.04739	0.00035
298.15	0.04696	0.00035
303.15	0.04658	0.00034
308.15	0.04623	0.00034
313.15	0.04584	0.00034

System: 1-ethyl-3-methylimidazolium ethyl sulfate; phases: Liquid
Fixed: Pressure, kPa = 101.325
Property: Viscosity, Pa*s (Liquid); method: CAPTUB:UFactor:4
Temperature, K	Viscosity, Pa*s	uncertainty
298.15	0.09758	0.00458
303.15	0.07667	0.0024
308.15	0.06171	0.00109
313.15	0.05001	0.00048
318.15	0.04137	0.00077
323.15	0.034463	0.000639
328.15	0.029176	0.000539
333.15	0.024955	0.000462
338.15	0.021446	0.000399
343.15	0.018723	0.000352

System: 1-ethyl-3-methylimidazolium ethyl sulfate; phases: Liquid
Fixed: Pressure, kPa = 101.325
Property: Refractive index (Na D-line) (Liquid); method: ABBE:UFactor:4
Temperature, K	Refractive index (Na D-line)	uncertainty
288.15	1.48197	0.00128
293.15	1.48072	0.00128
298.15	1.4794	0.00128
303.15	1.47803	0.00128
308.15	1.47669	0.00128
313.15	1.47535	0.00128
318.15	1.47397	0.00129
323.15	1.47259	0.00128
328.15	1.47124	0.00128
333.15	1.46989	0.00128
338.15	1.46851	0.00128
343.15	1.46718	0.00128

System: 1-ethyl-3-methylimidazolium ethyl sulfate; phases: Liquid
Fixed: Pressure, kPa = 101.325
Property: Speed of sound, m/s (Liquid); method: FPINT:UFactor:16
Temperature, K	Speed of sound, m/s	uncertainty
288.15	1703.9	13.1
293.15	1691.4	13
298.15	1679	12.9
303.15	1666.6	12.8
308.15	1654	12.8
313.15	1641.6	12.7
318.15	1629.2	12.6
323.15	1616.8	12.5
328.15	1604.5	12.5
333.15	1591.3	12.4
338.15	1578.9	12.3
343.15	1566.4	12.2

System: 1-ethyl-3-methylimidazolium ethyl sulfate; phases: Liquid
Fixed: Pressure, kPa = 101.325
Property: Mass density, kg/m3 (Liquid); method: VIBTUB:UFactor:8
Temperature, K	Mass density, kg/m3	uncertainty
288.15	1244.46	1.33
293.15	1241	1.32
298.15	1237.63	1.31
303.15	1234.25	1.3
308.15	1230.88	1.28
313.15	1227.51	1.27
318.15	1224.15	1.26
323.15	1220.8	1.25
328.15	1217.47	1.24
333.15	1214.31	1.23
338.15	1210.82	1.21
343.15	1207.51	1.2

System: ethanol; phases: Liquid
Property: Refractive index (Na D-line) (Liquid); method: ABBE:UFactor:4
Temperature, K	Pressure, kPa	Refractive index (Na D-line)	uncertainty
298.15	101.325	1.36023	0.00138

System: ethanol; phases: Liquid
Fixed: Pressure, kPa = 101
Property: Viscosity, Pa*s (Liquid); method: CAPTUB:UFactor:4
Temperature, K	Viscosity, Pa*s	uncertainty
298.15	0.001082	2.7e-05
313.15	0.000827	2.3e-05
328.15	0.000641	2e-05

System: ethanol; phases: Liquid
Fixed: Pressure, kPa = 101
Property: Speed of sound, m/s (Liquid); method: FPINT:UFactor:16
Temperature, K	Speed of sound, m/s	uncertainty
298.15	1146.3	9.6
313.15	1092.8	9.3
328.15	1043.2	9

System: ethanol; phases: Liquid
Fixed: Pressure, kPa = 101
Property: Mass density, kg/m3 (Liquid); method: VIBTUB:UFactor:8
Temperature, K	Mass density, kg/m3	uncertainty
298.15	785.46	0.92
313.15	772	1
328.15	758.6	1

System: ethanol + 1-ethyl-3-methylimidazolium ethyl sulfate; phases: Liquid
Fixed: Pressure, kPa = 101
Property: Viscosity, Pa*s (Liquid); method: CAPTUB:UFactor:4
Temperature, K	Mole fraction of ethanol	Viscosity, Pa*s	uncertainty
298.15	0	0.09758	0.00455
298.15	0.0623	0.07912	0.00259
298.15	0.23	0.04493	0.00081
298.15	0.4113	0.022965	0.000421
298.15	0.5393	0.01358	0.00026
298.15	0.6788	0.007224	0.000148
298.15	0.7662	0.004598	0.000102
298.15	0.8303	0.003178	7.2e-05
298.15	0.9554	0.001573	3.7e-05
298.15	0.964	0.001427	3.4e-05
298.15	0.9863	0.001271	3.1e-05
298.15	1	0.001082	2.7e-05
313.15	0	0.05001	0.00052
313.15	0.0623	0.04218	0.0008
313.15	0.23	0.026189	0.000487
313.15	0.4113	0.014716	0.000278
313.15	0.5393	0.008577	0.000174
313.15	0.6788	0.005208	0.000115
313.15	0.7662	0.003413	7.7e-05
313.15	0.8303	0.002398	5.5e-05
313.15	0.9554	0.0012	2.9e-05
313.15	0.964	0.001095	2.7e-05
313.15	0.9863	0.000971	2.5e-05
313.15	1	0.000827	2.3e-05
328.15	0	0.029176	0.000576
328.15	0.0623	0.025355	0.000493
328.15	0.23	0.016839	0.000321
328.15	0.4113	0.01014	0.0002
328.15	0.5393	0.006204	0.000131
328.15	0.6788	0.003934	8.9e-05
328.15	0.7662	0.002642	6.1e-05
328.15	0.8303	0.001874	4.4e-05
328.15	0.9554	0.000941	2.5e-05
328.15	0.964	0.000862	2.3e-05
328.15	0.9863	0.000759	2.2e-05
328.15	1	0.000641	2e-05

System: ethanol + 1-ethyl-3-methylimidazolium ethyl sulfate; phases: Liquid
Fixed: Temperature, K = 298.15
Fixed: Pressure, kPa = 101
Property: Refractive index (Na D-line) (Liquid); method: ABBE:UFactor:4
Mole fraction of ethanol	Refractive index (Na D-line)	uncertainty
0	1.4794	0.00139
0.0623	1.47717	0.00139
0.23	1.47031	0.00139
0.4113	1.46017	0.00138
0.5393	1.45018	0.00138
0.6788	1.43532	0.00138
0.7662	1.42247	0.00138
0.8303	1.41052	0.00138
0.9554	1.37687	0.00138
0.964	1.37373	0.00138
0.9863	1.36514	0.00138
1	1.36023	0.00138

System: ethanol + 1-ethyl-3-methylimidazolium ethyl sulfate; phases: Liquid
Fixed: Pressure, kPa = 101
Property: Speed of sound, m/s (Liquid); method: FPINT:UFactor:16
Temperature, K	Mole fraction of ethanol	Speed of sound, m/s	uncertainty
298.15	0	1679	12.9
298.15	0.0623	1669.8	12.9
298.15	0.23	1626.6	12.6
298.15	0.4113	1564	12.2
298.15	0.5393	1506.5	11.8
298.15	0.6788	1428.8	11.3
298.15	0.7662	1367.2	11
298.15	0.8303	1315.6	10.6
298.15	0.9554	1195.9	9.9
298.15	0.964	1186.2	9.8
298.15	0.9863	1160.7	9.7
298.15	1	1146.3	9.6
313.15	0	1641.6	12.7
313.15	0.0623	1633.6	12.6
313.15	0.23	1590.1	12.4
313.15	0.4113	1527.7	12
313.15	0.5393	1459.1	11.5
313.15	0.6788	1381	11.1
313.15	0.7662	1318.9	10.7
313.15	0.8303	1266.2	10.3
313.15	0.9554	1143.3	9.6
313.15	0.964	1132.7	9.5
313.15	0.9863	1106.2	9.3
313.15	1	1092.8	9.3
328.15	0	1604.5	12.5
328.15	0.0623	1594.8	12.4
328.15	0.23	1551	12.1
328.15	0.4113	1488.2	11.7
328.15	0.5393	1431.1	11.4
328.15	0.6788	1350.7	10.9
328.15	0.7662	1286.7	10.5
328.15	0.8303	1232.2	10.1
328.15	0.9554	1102.6	9.3
328.15	0.964	1091.4	9.2
328.15	0.9863	1063.1	9.1
328.15	1	1043.2	9

System: ethanol + 1-ethyl-3-methylimidazolium ethyl sulfate; phases: Liquid
Fixed: Pressure, kPa = 101
Property: Mass density, kg/m3 (Liquid); method: VIBTUB:UFactor:8
Temperature, K	Mole fraction of ethanol	Mass density, kg/m3	uncertainty
298.15	0	1237.63	1.29
298.15	0.0623	1228.9	1.23
298.15	0.23	1201.26	1.07
298.15	0.4113	1161.68	0.88
298.15	0.5393	1123.63	0.73
298.15	0.6788	1066.7	0.52
298.15	0.7662	1017.9	0.36
298.15	0.8303	973	0.39
298.15	0.9554	848.6	0.73
298.15	0.964	837.4	0.77
298.15	0.9863	806.1	0.86
298.15	1	785.46	0.92
313.15	0	1227.51	1.26
313.15	0.0623	1218.87	1.2
313.15	0.23	1191.17	1.03
313.15	0.4113	1151.32	0.85
313.15	0.5393	1113	0.7
313.15	0.6788	1055.7	0.49
313.15	0.7662	1006.6	0.33
313.15	0.8303	961.3	0.4
313.15	0.9554	836.2	0.8
313.15	0.964	824.7	0.8
313.15	0.9863	793.4	0.9
313.15	1	772	1
328.15	0	1217.47	1.22
328.15	0.0623	1208.77	1.16
328.15	0.23	1181.01	1
328.15	0.4113	1140.94	0.81
328.15	0.5393	1102.3	0.67
328.15	0.6788	1044.7	0.46
328.15	0.7662	995.2	0.33
328.15	0.8303	949.6	0.46
328.15	0.9554	823.5	0.8
328.15	0.964	812	0.8
328.15	0.9863	780.3	0.9
328.15	1	758.6	1

System: water + 1-ethyl-3-methylimidazolium ethyl sulfate; phases: Liquid
Fixed: Pressure, kPa = 101
Property: Viscosity, Pa*s (Liquid); method: CAPTUB:UFactor:4
Temperature, K	Mole fraction of water	Viscosity, Pa*s	uncertainty
298.15	0	0.09758	0.00455
298.15	0.0715	0.08201	0.00287
298.15	0.2089	0.05784	0.00073
298.15	0.3227	0.04289	0.00076
298.15	0.5041	0.024739	0.000445
298.15	0.5975	0.017516	0.000323
298.15	0.7441	0.010576	0.000203
298.15	0.854	0.005848	0.000126
298.15	0.9506	0.002316	5.4e-05
298.15	1	0.00089	2.4e-05
313.15	0	0.05001	0.00052
313.15	0.0715	0.04336	0.00082
313.15	0.2089	0.032093	0.0006
313.15	0.3227	0.024756	0.000461
313.15	0.5041	0.015112	0.000287
313.15	0.5975	0.010982	0.000214
313.15	0.7441	0.006715	0.000141
313.15	0.854	0.003818	8.7e-05
313.15	0.9506	0.001608	3.8e-05
313.15	1	0.000653	2e-05
328.15	0	0.029176	0.000576
328.15	0.0715	0.0258	0.000504
328.15	0.2089	0.019817	0.000382
328.15	0.3227	0.0158	0.000305
328.15	0.5041	0.010024	0.0002
328.15	0.5975	0.00745	0.000154
328.15	0.7441	0.004622	0.000105
328.15	0.854	0.002596	6e-05
328.15	0.9506	0.001189	2.9e-05
328.15	1	0.000504	1.8e-05

System: water + 1-ethyl-3-methylimidazolium ethyl sulfate; phases: Liquid
Fixed: Temperature, K = 298.15
Fixed: Pressure, kPa = 101
Property: Refractive index (Na D-line) (Liquid); method: ABBE:UFactor:4
Mole fraction of water	Refractive index (Na D-line)	uncertainty
0	1.4794	0.00139
0.0715	1.47827	0.00139
0.2089	1.476	0.00139
0.3227	1.47344	0.00138
0.5041	1.46726	0.00138
0.5975	1.46243	0.00138
0.7441	1.44916	0.00138
0.854	1.42825	0.00138
0.9506	1.38383	0.00138
1	1.33251	0.00138

System: water + 1-ethyl-3-methylimidazolium ethyl sulfate; phases: Liquid
Fixed: Pressure, kPa = 101
Property: Speed of sound, m/s (Liquid); method: FPINT:UFactor:16
Temperature, K	Mole fraction of water	Speed of sound, m/s	uncertainty
298.15	0	1679.1	12.9
298.15	0.0715	1687	13
298.15	0.2089	1696.7	13
298.15	0.3227	1707.2	13.1
298.15	0.5041	1729	13.2
298.15	0.5975	1741.6	13.3
298.15	0.7441	1773	13.5
298.15	0.854	1792.6	13.6
298.15	0.9506	1709.2	13.1
298.15	1	1496.9	11.8
313.15	0	1641.6	12.7
313.15	0.0715	1640.1	12.7
313.15	0.2089	1660.8	12.8
313.15	0.3227	1671	12.9
313.15	0.5041	1692.6	13
313.15	0.5975	1703.9	13
313.15	0.7441	1734.5	13.2
313.15	0.854	1749.2	13.3
313.15	0.9506	1693.1	13
313.15	1	1529.6	12
328.15	0	1604.5	12.5
328.15	0.0715	1617.1	12.5
328.15	0.2089	1622.1	12.6
328.15	0.3227	1631.7	12.6
328.15	0.5041	1652.9	12.7
328.15	0.5975	1665.9	12.8
328.15	0.7441	1695.3	13
328.15	0.854	1704.3	13
328.15	0.9506	1668.1	12.8
328.15	1	1545.4	12.1

System: water + 1-ethyl-3-methylimidazolium ethyl sulfate; phases: Liquid
Fixed: Pressure, kPa = 101
Property: Mass density, kg/m3 (Liquid); method: VIBTUB:UFactor:8
Temperature, K	Mole fraction of water	Mass density, kg/m3	uncertainty
298.15	0	1237.63	1.29
298.15	0.0715	1236.14	1.25
298.15	0.2089	1232.72	1.17
298.15	0.3227	1229	1.1
298.15	0.5041	1220	1
298.15	0.5975	1212.9	1
298.15	0.7441	1192.2	0.9
298.15	0.854	1159.2	0.8
298.15	0.9506	1084.4	0.5
298.15	1	997.1	0.3
313.15	0	1227.51	1.26
313.15	0.0715	1225.97	1.22
313.15	0.2089	1222.53	1.14
313.15	0.3227	1218.87	1.08
313.15	0.5041	1209.82	0.99
313.15	0.5975	1202.43	0.94
313.15	0.7441	1181.55	0.85
313.15	0.854	1146.19	0.72
313.15	0.9506	1076.1	0.49
313.15	1	992.2	0.3
328.15	0	1217.47	1.22
328.15	0.0715	1215.87	1.18
328.15	0.2089	1212.4	1.1
328.15	0.3227	1208.82	1.05
328.15	0.5041	1199.54	0.96
328.15	0.5975	1192.02	0.91
328.15	0.7441	1170.8	0.8
328.15	0.854	1135.3	0.7
328.15	0.9506	1066.9	0.5
328.15	1	985.7	0.3
