Measured thermophysical data. Synthesis and Properties of Seven Ionic Liquids Containing 1-Methyl-3-octylimidazolium or 1-Butyl-4-methylpyridinium Cations
Source: J. Chem. Eng. Data, 2006, 10.1021/je060096y
Compound 1: 1-octyl-3-methylimidazolium bis[(trifluoromethyl)sulfonyl]imide, C14H23F6N3O4S2, InChI=1S/C12H23N2.C2F6NO4S2/c1-3-4-5-6-7-8-9-14-11-10-13(2)12-14;3-1(4,5)14(10,11)9-15(12,13)2(6,7)8/h10-12H,3-9H2,1-2H3;/q+1;-1
Compound 2: 1-octyl-3-methylimidazolium trifluoromethanesulfonate, C13H23F3N2O3S, InChI=1S/C12H23N2.CHF3O3S/c1-3-4-5-6-7-8-9-14-11-10-13(2)12-14;2-1(3,4)8(5,6)7/h10-12H,3-9H2,1-2H3;(H,5,6,7)/q+1;/p-1
Compound 3: 1-butyl-4-methylpyridinium trifluoromethanesulfonate, C11H16F3NO3S, InChI=1S/C10H16N.CHF3O3S/c1-3-4-7-11-8-5-10(2)6-9-11;2-1(3,4)8(5,6)7/h5-6,8-9H,3-4,7H2,1-2H3;(H,5,6,7)/q+1;/p-1
Compound 4: 1-methyl-3-octylimidazolium perfluorobutanesulfonate, C16H23F9N2O3S, InChI=1S/C12H23N2.C4HF9O3S/c1-3-4-5-6-7-8-9-14-11-10-13(2)12-14;5-1(6,3(9,10)11)2(7,8)4(12,13)17(14,15)16/h10-12H,3-9H2,1-2H3;(H,14,15,16)/q+1;/p-1
Compound 5: 3-methyl-1-octylimidazolium dicyanamide, C14H23N5, InChI=1S/C12H23N2.C2N3/c1-3-4-5-6-7-8-9-14-11-10-13(2)12-14;3-1-5-2-4/h10-12H,3-9H2,1-2H3;/q+1;-1
Compound 6: 1-butyl-4-methylpyridinium 1,1,2,2,3,3,4,4,4-nonafluoro-1-butanesulfonate, C14H16F9NO3S, InChI=1S/C10H16N.C4HF9O3S/c1-3-4-7-11-8-5-10(2)6-9-11;5-1(6,3(9,10)11)2(7,8)4(12,13)17(14,15)16/h5-6,8-9H,3-4,7H2,1-2H3;(H,14,15,16)/q+1;/p-1
Compound 7: 1-butyl-3-methylimidazolium bis(trifluoromethylsulfonyl)imide, C10H15F6N3O4S2, InChI=1S/C8H15N2.C2F6NO4S2/c1-3-4-5-10-7-6-9(2)8-10;3-1(4,5)14(10,11)9-15(12,13)2(6,7)8/h6-8H,3-5H2,1-2H3;/q+1;-1
Compound 8: 1-butyl-3-methylimidazolium trifluoromethanesulfonate, C9H15F3N2O3S, InChI=1S/C8H15N2.CHF3O3S/c1-3-4-5-10-7-6-9(2)8-10;2-1(3,4)8(5,6)7/h6-8H,3-5H2,1-2H3;(H,5,6,7)/q+1;/p-1
Compound 9: 1-butyl-4-methylpyridinium bis((trifluoromethyl)sulfonyl)amide, C12H16F6N2O4S2, InChI=1S/C10H16N.C2F6NO4S2/c1-3-4-7-11-8-5-10(2)6-9-11;3-1(4,5)14(10,11)9-15(12,13)2(6,7)8/h5-6,8-9H,3-4,7H2,1-2H3;/q+1;-1
Compound 10: water, H2O, InChI=1S/H2O/h1H2
Compound 11: 1-butyl-3-methylimidazolium nonafluorobutanesulfonate, C12H15F9N2O3S, InChI=1S/C8H15N2.C4HF9O3S/c1-3-4-5-10-7-6-9(2)8-10;5-1(6,3(9,10)11)2(7,8)4(12,13)17(14,15)16/h6-8H,3-5H2,1-2H3;(H,14,15,16)/q+1;/p-1

System: 1-octyl-3-methylimidazolium bis[(trifluoromethyl)sulfonyl]imide; phases: Liquid
Property: Mass density, kg/m3 (Liquid); method: Pycnometric method
Temperature, K	Pressure, kPa	Mass density, kg/m3	uncertainty
298.15	101.325	1310	20

System: 1-octyl-3-methylimidazolium bis[(trifluoromethyl)sulfonyl]imide; phases: Glass, Liquid, Air at 1 atmosphere
Property: Triple point temperature, K (Glass); method: DTA
Triple point temperature, K	uncertainty
187.15	2

System: 1-octyl-3-methylimidazolium trifluoromethanesulfonate; phases: Liquid
Property: Mass density, kg/m3 (Liquid); method: Pycnometric method
Temperature, K	Pressure, kPa	Mass density, kg/m3	uncertainty
298.15	101.325	1120	20

System: 1-octyl-3-methylimidazolium trifluoromethanesulfonate; phases: Crystal, Liquid, Air at 1 atmosphere
Property: Normal melting temperature, K (Crystal); method: DTA
Normal melting temperature, K	uncertainty
278.15	2

System: 1-octyl-3-methylimidazolium trifluoromethanesulfonate; phases: Glass, Liquid, Air at 1 atmosphere
Property: Triple point temperature, K (Glass); method: DTA
Triple point temperature, K	uncertainty
193.15	2

System: 1-butyl-4-methylpyridinium trifluoromethanesulfonate; phases: Liquid
Property: Mass density, kg/m3 (Liquid); method: Pycnometric method
Temperature, K	Pressure, kPa	Mass density, kg/m3	uncertainty
298.15	101.325	1170	20

System: 1-butyl-4-methylpyridinium trifluoromethanesulfonate; phases: Crystal, Liquid, Air at 1 atmosphere
Property: Normal melting temperature, K (Crystal); method: DTA
Normal melting temperature, K	uncertainty
311.15	2

System: 1-butyl-4-methylpyridinium trifluoromethanesulfonate; phases: Glass, Liquid, Air at 1 atmosphere
Property: Triple point temperature, K (Glass); method: DTA
Triple point temperature, K	uncertainty
205.15	2

System: 1-methyl-3-octylimidazolium perfluorobutanesulfonate; phases: Liquid
Property: Mass density, kg/m3 (Liquid); method: Pycnometric method
Temperature, K	Pressure, kPa	Mass density, kg/m3	uncertainty
298.15	101.325	1330	20

System: 1-methyl-3-octylimidazolium perfluorobutanesulfonate; phases: Crystal, Liquid, Air at 1 atmosphere
Property: Normal melting temperature, K (Crystal); method: DTA
Normal melting temperature, K	uncertainty
305.15	2

System: 1-methyl-3-octylimidazolium perfluorobutanesulfonate; phases: Glass, Liquid, Air at 1 atmosphere
Property: Triple point temperature, K (Glass); method: DTA
Triple point temperature, K	uncertainty
187.15	2

System: 3-methyl-1-octylimidazolium dicyanamide; phases: Liquid
Property: Mass density, kg/m3 (Liquid); method: Pycnometric method
Temperature, K	Pressure, kPa	Mass density, kg/m3	uncertainty
298.15	101.325	1000	20

System: 3-methyl-1-octylimidazolium dicyanamide; phases: Crystal, Liquid, Air at 1 atmosphere
Property: Normal melting temperature, K (Crystal); method: DTA
Normal melting temperature, K	uncertainty
268.15	2

System: 3-methyl-1-octylimidazolium dicyanamide; phases: Glass, Liquid, Air at 1 atmosphere
Property: Triple point temperature, K (Glass); method: DTA
Triple point temperature, K	uncertainty
184.15	2

System: 1-butyl-4-methylpyridinium 1,1,2,2,3,3,4,4,4-nonafluoro-1-butanesulfonate; phases: Crystal, Liquid, Air at 1 atmosphere
Property: Normal melting temperature, K (Crystal); method: DTA
Normal melting temperature, K	uncertainty
343.15	2

System: 1-butyl-4-methylpyridinium 1,1,2,2,3,3,4,4,4-nonafluoro-1-butanesulfonate; phases: Glass, Liquid, Air at 1 atmosphere
Property: Triple point temperature, K (Glass); method: DTA
Triple point temperature, K	uncertainty
239.15	2

System: 1-butyl-3-methylimidazolium bis(trifluoromethylsulfonyl)imide; phases: Crystal, Liquid, Air at 1 atmosphere
Property: Normal melting temperature, K (Crystal); method: DTA
Normal melting temperature, K	uncertainty
269.15	2

System: 1-butyl-3-methylimidazolium trifluoromethanesulfonate; phases: Crystal, Liquid, Air at 1 atmosphere
Property: Normal melting temperature, K (Crystal); method: DTA
Normal melting temperature, K	uncertainty
288.15	2

System: 1-butyl-4-methylpyridinium bis((trifluoromethyl)sulfonyl)amide; phases: Liquid
Property: Mass density, kg/m3 (Liquid); method: Pycnometric method
Temperature, K	Pressure, kPa	Mass density, kg/m3	uncertainty
298.15	101.325	1350	20

System: 1-butyl-4-methylpyridinium bis((trifluoromethyl)sulfonyl)amide; phases: Crystal, Liquid, Air at 1 atmosphere
Property: Normal melting temperature, K (Crystal); method: DTA
Normal melting temperature, K	uncertainty
283.15	2

System: 1-butyl-4-methylpyridinium bis((trifluoromethyl)sulfonyl)amide; phases: Glass, Liquid, Air at 1 atmosphere
Property: Triple point temperature, K (Glass); method: DTA
Triple point temperature, K	uncertainty
193.15	2

System: water + 1-octyl-3-methylimidazolium bis[(trifluoromethyl)sulfonyl]imide; phases: Liquid mixture 1, Liquid mixture 2
Property: Mass fraction of 1-octyl-3-methylimidazolium bis[(trifluoromethyl)sulfonyl]imide (Liquid mixture 1); method: UV Spectra
Temperature, K	Pressure, kPa	Mass fraction of 1-octyl-3-methylimidazolium bis[(trifluoromethyl)sulfonyl]imide	uncertainty
298.15	101	0.0021	0.0002

System: water + 1-methyl-3-octylimidazolium perfluorobutanesulfonate; phases: Liquid, Crystal
Property: Mass fraction of 1-methyl-3-octylimidazolium perfluorobutanesulfonate (Liquid); method: UV Spectra
Temperature, K	Pressure, kPa	Mass fraction of 1-methyl-3-octylimidazolium perfluorobutanesulfonate	uncertainty
298.15	101	0.0016	0.0002

System: water + 1-butyl-4-methylpyridinium 1,1,2,2,3,3,4,4,4-nonafluoro-1-butanesulfonate; phases: Liquid, Crystal
Property: Mass fraction of 1-butyl-4-methylpyridinium 1,1,2,2,3,3,4,4,4-nonafluoro-1-butanesulfonate (Liquid); method: UV Spectra
Temperature, K	Pressure, kPa	Mass fraction of 1-butyl-4-methylpyridinium 1,1,2,2,3,3,4,4,4-nonafluoro-1-butanesulfonate	uncertainty
298.15	101	0.0229	0.0002

System: water + 1-butyl-3-methylimidazolium bis(trifluoromethylsulfonyl)imide; phases: Liquid mixture 1, Liquid mixture 2
Property: Mass fraction of 1-butyl-3-methylimidazolium bis(trifluoromethylsulfonyl)imide (Liquid mixture 1); method: UV Spectra
Temperature, K	Pressure, kPa	Mass fraction of 1-butyl-3-methylimidazolium bis(trifluoromethylsulfonyl)imide	uncertainty
298.15	101	0.0071	0.0002

System: water + 1-butyl-3-methylimidazolium nonafluorobutanesulfonate; phases: Liquid mixture 1, Liquid mixture 2
Property: Mass fraction of 1-butyl-3-methylimidazolium nonafluorobutanesulfonate (Liquid mixture 1); method: UV Spectra
Temperature, K	Pressure, kPa	Mass fraction of 1-butyl-3-methylimidazolium nonafluorobutanesulfonate	uncertainty
298.15	101	0.0169	0.0002

System: water + 1-butyl-4-methylpyridinium bis((trifluoromethyl)sulfonyl)amide; phases: Liquid mixture 1, Liquid mixture 2
Property: Mass fraction of 1-butyl-4-methylpyridinium bis((trifluoromethyl)sulfonyl)amide (Liquid mixture 1); method: UV Spectra
Temperature, K	Pressure, kPa	Mass fraction of 1-butyl-4-methylpyridinium bis((trifluoromethyl)sulfonyl)amide	uncertainty
298.15	101	0.0048	0.0002
