Measured thermophysical data. Thermochemistry of Chlorobenzenes and Chlorophenols: Ambient Temperature Vapor Pressures and Enthalpies of Phase Transitions
Source: J. Chem. Eng. Data, 2007, 10.1021/je060429r
Compound 1: hexachlorobenzene, C6Cl6, InChI=1S/C6Cl6/c7-1-2(8)4(10)6(12)5(11)3(1)9
Compound 2: 2-chlorophenol, C6H5ClO, InChI=1S/C6H5ClO/c7-5-3-1-2-4-6(5)8/h1-4,8H
Compound 3: 3-chlorophenol, C6H5ClO, InChI=1S/C6H5ClO/c7-5-2-1-3-6(8)4-5/h1-4,8H
Compound 4: 4-chlorophenol, C6H5ClO, InChI=1S/C6H5ClO/c7-5-1-3-6(8)4-2-5/h1-4,8H
Compound 5: 2,3-dichlorophenol, C6H4Cl2O, InChI=1S/C6H4Cl2O/c7-4-2-1-3-5(9)6(4)8/h1-3,9H
Compound 6: 2,4-dichlorophenol, C6H4Cl2O, InChI=1S/C6H4Cl2O/c7-4-1-2-6(9)5(8)3-4/h1-3,9H
Compound 7: 2,5-dichlorophenol, C6H4Cl2O, InChI=1S/C6H4Cl2O/c7-4-1-2-5(8)6(9)3-4/h1-3,9H
Compound 8: 2,6-dichlorophenol, C6H4Cl2O, InChI=1S/C6H4Cl2O/c7-4-2-1-3-5(8)6(4)9/h1-3,9H
Compound 9: 3,4-dichlorophenol, C6H4Cl2O, InChI=1S/C6H4Cl2O/c7-5-2-1-4(9)3-6(5)8/h1-3,9H
Compound 10: 2,4,6-trichlorophenol, C6H3Cl3O, InChI=1S/C6H3Cl3O/c7-3-1-4(8)6(10)5(9)2-3/h1-2,10H
Compound 11: pentachlorophenol, C6HCl5O, InChI=1S/C6HCl5O/c7-1-2(8)4(10)6(12)5(11)3(1)9/h12H

System: hexachlorobenzene; phases: Crystal, Gas
Property: Vapor or sublimation pressure, kPa (Crystal); method: Transpiration method
Temperature, K	Vapor or sublimation pressure, kPa	uncertainty
358	0.00144	7e-05
362.9	0.00216	0.00011
368.9	0.00373	0.00018
373.1	0.00519	0.00026
377.8	0.00771	0.00038
382.9	0.01123	0.00055
389	0.01836	0.00089
392.8	0.0238	0.00115
397.9	0.03341	0.00163
402.8	0.04901	0.00236

System: 2-chlorophenol; phases: Liquid, Gas
Property: Vapor or sublimation pressure, kPa (Liquid); method: Transpiration method
Temperature, K	Vapor or sublimation pressure, kPa	uncertainty
288.4	0.0863	0.0043
291.3	0.1102	0.0054
294.3	0.1378	0.0067
297.3	0.1681	0.0081
300.3	0.2059	0.01
303.3	0.2559	0.0124
306.2	0.3083	0.0149
309.2	0.3763	0.0182
312.2	0.4633	0.0223
315.2	0.5579	0.0267
318.2	0.6649	0.0319
321.2	0.7992	0.0381

System: 3-chlorophenol; phases: Crystal, Gas
Property: Vapor or sublimation pressure, kPa (Crystal); method: Transpiration method
Temperature, K	Vapor or sublimation pressure, kPa	uncertainty
275.3	0.00082	4e-05
276.6	0.00095	5e-05
278.3	0.00115	6e-05
280.3	0.00149	8e-05
283.2	0.00212	0.00011
285.2	0.00262	0.00014
288.3	0.00366	0.00019
291.3	0.00509	0.00026
294.3	0.00721	0.00037
297.3	0.00999	0.0005
300.3	0.01323	0.00066
302.2	0.01626	0.00084
306	0.02395	0.00118

System: 3-chlorophenol; phases: Liquid, Gas
Property: Vapor or sublimation pressure, kPa (Liquid); method: Transpiration method
Temperature, K	Vapor or sublimation pressure, kPa	uncertainty
308.3	0.0294	0.0014
311.1	0.0361	0.0018
314.2	0.0455	0.0022
317.2	0.058	0.0028
320.3	0.073	0.0036
323.2	0.0905	0.0044
326.2	0.1116	0.0054
329.2	0.1366	0.0066
332.2	0.1669	0.008
335.2	0.2002	0.0095

System: 4-chlorophenol; phases: Crystal, Gas
Property: Vapor or sublimation pressure, kPa (Crystal); method: Transpiration method
Temperature, K	Vapor or sublimation pressure, kPa	uncertainty
283.2	0.00132	7e-05
288.2	0.00236	0.00012
291.2	0.00332	0.00017
294.2	0.00459	0.00023
297.2	0.00622	0.00032
300.2	0.00839	0.00043
303.2	0.01163	0.00059
306.2	0.01571	0.00079
309.2	0.02076	0.00104
311.2	0.02535	0.00128
313.2	0.03092	0.00154

System: 4-chlorophenol; phases: Liquid, Gas
Property: Vapor or sublimation pressure, kPa (Liquid); method: Transpiration method
Temperature, K	Vapor or sublimation pressure, kPa	uncertainty
318.2	0.0485	0.0024
321.2	0.0615	0.003
324.2	0.0754	0.0036
327.2	0.0926	0.0045
330.2	0.1141	0.0055
333.2	0.1388	0.0067
336.2	0.1699	0.0082
339.2	0.2022	0.0098
342.2	0.2534	0.0122
345.2	0.3058	0.0147
348.2	0.3684	0.0177
351.2	0.4409	0.021

System: 2,3-dichlorophenol; phases: Crystal, Gas
Property: Vapor or sublimation pressure, kPa (Crystal); method: Transpiration method
Temperature, K	Vapor or sublimation pressure, kPa	uncertainty
294.3	0.0078	0.0004
297.3	0.0107	0.0006
300.2	0.0149	0.0008
303.2	0.0192	0.001
306.2	0.0267	0.0013
309.2	0.0351	0.0018
312.2	0.0482	0.0024
315.2	0.0633	0.0031
318.1	0.0798	0.004
321.2	0.1081	0.0054
324.3	0.1429	0.0071
327.3	0.1835	0.0089

System: 2,3-dichlorophenol; phases: Liquid, Gas
Property: Vapor or sublimation pressure, kPa (Liquid); method: Transpiration method
Temperature, K	Vapor or sublimation pressure, kPa	uncertainty
331.2	0.2449	0.0118
334.3	0.2946	0.0141
337.2	0.3508	0.0167
340.3	0.4132	0.0197
343.2	0.4874	0.0233
346.2	0.5745	0.0273
349.2	0.6662	0.0317
352.1	0.7881	0.0375
355.2	0.9247	0.0439
358.2	1.0783	0.051

System: 2,4-dichlorophenol; phases: Crystal, Gas
Property: Vapor or sublimation pressure, kPa (Crystal); method: Transpiration method
Temperature, K	Vapor or sublimation pressure, kPa	uncertainty
278.2	0.00175	0.0001
283.3	0.00312	0.00017
289.3	0.00626	0.00032
294.4	0.01082	0.00054
297.3	0.01464	0.00075
300.4	0.02025	0.00104
303.3	0.02801	0.00144
306.3	0.03848	0.00195
309.4	0.05208	0.00261
312.4	0.06848	0.00344
315.2	0.09034	0.00447

System: 2,4-dichlorophenol; phases: Liquid, Gas
Property: Vapor or sublimation pressure, kPa (Liquid); method: Transpiration method
Temperature, K	Vapor or sublimation pressure, kPa	uncertainty
317.2	0.1061	0.0052
320.3	0.1326	0.0064
323.2	0.1612	0.0078
326.1	0.1933	0.0094
329.2	0.2419	0.0116
332.2	0.2831	0.0135
335.2	0.3393	0.0162
338.2	0.4027	0.0193
341.2	0.4846	0.0233
344.2	0.5835	0.0278

System: 2,5-dichlorophenol; phases: Crystal, Gas
Property: Vapor or sublimation pressure, kPa (Crystal); method: Transpiration method
Temperature, K	Vapor or sublimation pressure, kPa	uncertainty
294.3	0.0089	0.0005
297.3	0.0122	0.0006
300.4	0.0168	0.0009
303.3	0.0223	0.0011
306.3	0.0302	0.0015
309.2	0.0399	0.002
312.2	0.0532	0.0027
315.2	0.0708	0.0036
318.3	0.0944	0.0047
321.3	0.1257	0.0063
324.4	0.1636	0.0081
327.4	0.2133	0.0104

System: 2,5-dichlorophenol; phases: Liquid, Gas
Property: Vapor or sublimation pressure, kPa (Liquid); method: Transpiration method
Temperature, K	Vapor or sublimation pressure, kPa	uncertainty
333.3	0.3198	0.0154
337.2	0.3996	0.019
340.2	0.4726	0.0225
343.2	0.5513	0.0262
346.2	0.6514	0.031
349.2	0.7643	0.0364
352.2	0.894	0.0425
355.2	1.0485	0.0497
358.1	1.2043	0.0571
361.2	1.4033	0.0663

System: 2,6-dichlorophenol; phases: Crystal, Gas
Property: Vapor or sublimation pressure, kPa (Crystal); method: Transpiration method
Temperature, K	Vapor or sublimation pressure, kPa	uncertainty
298.5	0.0073	0.0004
301.6	0.01	0.0005
304.6	0.0137	0.0007
307.4	0.0183	0.0009
310.4	0.0245	0.0012
313.4	0.0331	0.0017
316.4	0.0437	0.0022
319.4	0.0591	0.003
322.4	0.0774	0.0038
325.4	0.1006	0.005
328.4	0.1312	0.0065
331.3	0.1685	0.0082

System: 2,6-dichlorophenol; phases: Liquid, Gas
Property: Vapor or sublimation pressure, kPa (Liquid); method: Transpiration method
Temperature, K	Vapor or sublimation pressure, kPa	uncertainty
341.2	0.3444	0.0165
344.7	0.4173	0.0199
347.3	0.4838	0.0231
350.3	0.5727	0.0273
353.3	0.6745	0.032
356.3	0.7745	0.0369
360.3	0.9734	0.0463
363.3	1.1431	0.0542
366.3	1.3149	0.0623
371.4	1.6644	0.0784

System: 3,4-dichlorophenol; phases: Crystal, Gas
Property: Vapor or sublimation pressure, kPa (Crystal); method: Transpiration method
Temperature, K	Vapor or sublimation pressure, kPa	uncertainty
291.4	0.00027	2e-05
294.3	0.0004	2e-05
300.3	0.00086	4e-05
303.5	0.00121	6e-05
306.7	0.00177	9e-05
309.5	0.00247	0.00013
314.3	0.00423	0.00021
317.2	0.00587	0.0003
320.4	0.00806	0.00041
323.3	0.01069	0.00055
326.3	0.01474	0.00075
329.3	0.01992	0.001
332.3	0.02618	0.0013
335.3	0.03423	0.00169
337.3	0.04096	0.00202

System: 3,4-dichlorophenol; phases: Liquid, Gas
Property: Vapor or sublimation pressure, kPa (Liquid); method: Transpiration method
Temperature, K	Vapor or sublimation pressure, kPa	uncertainty
341.3	0.057	0.0028
344.3	0.0703	0.0034
347.2	0.0854	0.0041
350.3	0.1055	0.0051
353.2	0.127	0.0061
356.3	0.1544	0.0074
359.2	0.1858	0.0089
362.2	0.223	0.0107
365.4	0.2696	0.0129
368.4	0.3217	0.0153

System: 2,4,6-trichlorophenol; phases: Crystal, Gas
Property: Vapor or sublimation pressure, kPa (Crystal); method: Transpiration method
Temperature, K	Vapor or sublimation pressure, kPa	uncertainty
299.4	0.00177	9e-05
302.3	0.00245	0.00012
305.2	0.00319	0.00016
308.3	0.0044	0.00022
311.3	0.00593	0.0003
314.3	0.00805	0.00041
316.8	0.01044	0.00058
316.8	0.01061	0.00055
317.3	0.01125	0.00061
320.3	0.015	0.00076
323.3	0.02013	0.00101
326.3	0.02645	0.00132
329.4	0.03488	0.00173
332.5	0.04531	0.00224
335.5	0.05882	0.00292
338.2	0.07513	0.00371
340.3	0.08978	0.00439

System: 2,4,6-trichlorophenol; phases: Liquid, Gas
Property: Vapor or sublimation pressure, kPa (Liquid); method: Transpiration method
Temperature, K	Vapor or sublimation pressure, kPa	uncertainty
342.8	0.1027	0.0048
343.2	0.1041	0.005
343.8	0.1081	0.0052
345.2	0.1191	0.0057
346.3	0.1271	0.006
347.3	0.1317	0.0063
348.3	0.1419	0.0069
348.9	0.1495	0.0072
350.4	0.1613	0.0077
351.4	0.1716	0.0082
353.3	0.1898	0.009
353.9	0.1975	0.0099
354.4	0.2102	0.01
356.4	0.2268	0.0108
357.5	0.2519	0.0124
359	0.2809	0.0134
359.4	0.2784	0.0132
359.4	0.2784	0.0132
360.5	0.2994	0.0143
362.5	0.3322	0.0157
363.2	0.3412	0.0164
364.1	0.3663	0.0174
365.5	0.3878	0.0184
366.3	0.4095	0.0198
368.1	0.4623	0.022
368.6	0.463	0.0221
369.4	0.4939	0.0236
372.4	0.5714	0.0271
373.2	0.6103	0.0292
373.2	0.6087	0.0291
375.4	0.6794	0.0321

System: pentachlorophenol; phases: Crystal, Gas
Property: Vapor or sublimation pressure, kPa (Crystal); method: Transpiration method
Temperature, K	Vapor or sublimation pressure, kPa	uncertainty
348.1	0.00127	7e-05
353.1	0.00206	0.0001
358	0.00304	0.00015
363	0.00483	0.00024
367.8	0.00681	0.00033
371.9	0.00975	0.00048
378.1	0.01517	0.00074
383	0.02172	0.00106
388.9	0.03268	0.00157
393.2	0.04374	0.00212
397.8	0.06045	0.00292
399.8	0.07143	0.0035
403.2	0.09099	0.00437
