Measured thermophysical data. Density, Viscosity, Vapor-Liquid Equilibrium, Excess Molar Volume, Viscosity Deviation, and Their Correlations for the Chloroform + 2-Butanone Binary System
Source: J. Chem. Eng. Data, 2006, 10.1021/je060150a
Compound 1: trichloromethane, CHCl3, InChI=1S/CHCl3/c2-1(3)4/h1H, purity 99.8%
Compound 2: butanone, C4H8O, InChI=1S/C4H8O/c1-3-4(2)5/h3H2,1-2H3, purity 99.8%

System: trichloromethane; phases: Liquid, Gas
Property: Vapor or sublimation pressure, kPa (Liquid); method: EBULLIO:UFactor:4
Temperature, K	Vapor or sublimation pressure, kPa	uncertainty
303.15	32.19	0.65

System: trichloromethane; phases: Liquid
Fixed: Pressure, kPa = 101.325
Property: Refractive index (Na D-line) (Liquid); method: Standard Abbe refractometry
Temperature, K	Refractive index (Na D-line)	uncertainty
283.15	1.45189	0.00072
293.15	1.44589	0.00072
303.15	1.43987	0.00072
313.15	1.43386	0.00072

System: trichloromethane; phases: Liquid
Fixed: Pressure, kPa = 101
Property: Viscosity, Pa*s (Liquid); method: CAPTUB:UFactor:2
Temperature, K	Viscosity, Pa*s	uncertainty
283.15	0.000629	8e-06
293.15	0.000573	8e-06
303.15	0.000516	7e-06
313.15	0.000468	7e-06

System: trichloromethane; phases: Liquid
Fixed: Pressure, kPa = 101
Property: Mass density, kg/m3 (Liquid); method: VIBTUB:UFactor:2
Temperature, K	Mass density, kg/m3	uncertainty
283.15	1507.3	0.5
293.15	1488.4	0.5
303.15	1469.4	0.5
313.15	1450	0.5

System: butanone; phases: Liquid, Gas
Property: Vapor or sublimation pressure, kPa (Liquid); method: EBULLIO::UFactor:4
Temperature, K	Vapor or sublimation pressure, kPa	uncertainty
303.15	15.74	0.4

System: butanone; phases: Liquid
Fixed: Pressure, kPa = 101.325
Property: Refractive index (Na D-line) (Liquid); method: Standard Abbe refractometry
Temperature, K	Refractive index (Na D-line)	uncertainty
283.15	1.384	0.00065
293.15	1.37888	0.00065
303.15	1.37383	0.00065
313.15	1.36856	0.00066

System: butanone; phases: Liquid
Fixed: Pressure, kPa = 101
Property: Viscosity, Pa*s (Liquid); method: CAPTUB::UFactor:2
Temperature, K	Viscosity, Pa*s	uncertainty
283.15	0.000472	7e-06
293.15	0.000423	6e-06
303.15	0.000382	6e-06
313.15	0.000347	5e-06

System: butanone; phases: Liquid
Fixed: Pressure, kPa = 101
Property: Mass density, kg/m3 (Liquid); method: VIBTUB::UFactor:2
Temperature, K	Mass density, kg/m3	uncertainty
283.15	815.9	0.3
293.15	805.5	0.3
303.15	795.1	0.3
313.15	784.3	0.3

System: trichloromethane + butanone; phases: Liquid, Gas
Fixed: Temperature, K = 303.15
Property: Vapor or sublimation pressure, kPa (Liquid); method: EBULLIO:UFactor:4
Mole fraction of trichloromethane	Vapor or sublimation pressure, kPa	uncertainty
0	15.74	0.4
0.074	15.59	0.4
0.142	15.47	0.39
0.252	15.35	0.39
0.252	15.33	0.39
0.363	15.89	0.4
0.377	16.13	0.41
0.444	16.69	0.41
0.474	17.17	0.42
0.507	17.69	0.43
0.56	18.75	0.46
0.571	19.26	0.46
0.602	19.86	0.46
0.63	20.41	0.47
0.631	20.58	0.48
0.678	21.74	0.5
0.732	23.37	0.52
0.757	24.66	0.54
0.823	27.26	0.58
0.88	29.22	0.61
0.913	30	0.62
1	32.19	0.65

System: trichloromethane + butanone; phases: Gas, Liquid
Fixed: Temperature, K = 303.15
Property: Mole fraction of trichloromethane (Gas); method: Density calibration data
Mole fraction of trichloromethane	Mole fraction of trichloromethane	uncertainty
0	0	0.001
0.074	0.063	0.013
0.142	0.119	0.016
0.252	0.281	0.018
0.252	0.274	0.018
0.363	0.443	0.021
0.377	0.469	0.021
0.444	0.573	0.018
0.474	0.617	0.019
0.507	0.673	0.018
0.56	0.747	0.011
0.571	0.751	0.016
0.602	0.799	0.016
0.63	0.823	0.014
0.631	0.83	0.013
0.678	0.868	0.012
0.732	0.905	0.013
0.757	0.929	0.011
0.823	0.958	0.011
0.88	0.976	0.01
0.913	0.984	0.01
1	1	0.001

System: trichloromethane + butanone; phases: Liquid
Fixed: Pressure, kPa = 101
Property: Viscosity, Pa*s (Liquid); method: CAPTUB:UFactor:2
Temperature, K	Mole fraction of trichloromethane	Viscosity, Pa*s	uncertainty
283.15	0	0.000472	7e-06
283.15	0.0906	0.000528	7e-06
283.15	0.1806	0.000588	8e-06
283.15	0.272	0.000627	8e-06
283.15	0.3661	0.00066	9e-06
283.15	0.4551	0.000692	9e-06
283.15	0.549	0.000711	9e-06
283.15	0.633	0.000712	9e-06
283.15	0.7035	0.000717	9e-06
283.15	0.7973	0.000701	9e-06
283.15	0.9068	0.000674	9e-06
283.15	1	0.000629	8e-06
293.15	0	0.000423	6e-06
293.15	0.0906	0.000475	7e-06
293.15	0.1806	0.000526	7e-06
293.15	0.272	0.000556	8e-06
293.15	0.3661	0.000594	8e-06
293.15	0.4551	0.00062	8e-06
293.15	0.549	0.000633	8e-06
293.15	0.633	0.000636	8e-06
293.15	0.7035	0.000631	8e-06
293.15	0.7973	0.00063	8e-06
293.15	0.9068	0.00061	8e-06
293.15	1	0.000573	8e-06
303.15	0	0.000382	6e-06
303.15	0.0906	0.000419	6e-06
303.15	0.1806	0.000468	7e-06
303.15	0.272	0.000499	7e-06
303.15	0.3661	0.00053	7e-06
303.15	0.4551	0.000553	8e-06
303.15	0.549	0.000565	8e-06
303.15	0.633	0.000571	8e-06
303.15	0.7035	0.000566	8e-06
303.15	0.7973	0.000566	8e-06
303.15	0.9068	0.000546	7e-06
303.15	1	0.000516	7e-06
313.15	0	0.000347	5e-06
313.15	0.0906	0.000385	6e-06
313.15	0.1806	0.00042	6e-06
313.15	0.272	0.000451	6e-06
313.15	0.3661	0.000477	7e-06
313.15	0.4551	0.000498	7e-06
313.15	0.549	0.00051	7e-06
313.15	0.633	0.000515	7e-06
313.15	0.7035	0.000513	7e-06
313.15	0.7973	0.00051	7e-06
313.15	0.9068	0.000491	7e-06
313.15	1	0.000468	7e-06

System: trichloromethane + butanone; phases: Liquid
Fixed: Pressure, kPa = 101
Property: Mass density, kg/m3 (Liquid); method: VIBTUB:UFactor:2
Mole fraction of trichloromethane	Temperature, K	Mass density, kg/m3	uncertainty
0	283.15	815.9	0.3
0	293.15	805.5	0.3
0	303.15	795.1	0.3
0	313.15	784.3	0.3
0.0906	283.15	872.7	0.3
0.0906	293.15	861.7	0.3
0.0906	303.15	850.7	0.3
0.0906	313.15	839.3	0.3
0.1806	283.15	930.4	0.3
0.1806	293.15	918.7	0.3
0.1806	303.15	907.1	0.3
0.1806	313.15	895.1	0.3
0.272	283.15	990.2	0.3
0.272	293.15	977.9	0.3
0.272	303.15	965.6	0.3
0.272	313.15	952.9	0.3
0.3661	283.15	1053.3	0.3
0.3661	293.15	1040.2	0.3
0.3661	303.15	1027.2	0.3
0.3661	313.15	1013.7	0.3
0.4551	283.15	1113.9	0.3
0.4551	293.15	1100.2	0.3
0.4551	303.15	1086.4	0.3
0.4551	313.15	1072.3	0.3
0.549	283.15	1179.5	0.3
0.549	293.15	1165	0.3
0.549	303.15	1150.5	0.3
0.549	313.15	1135.5	0.3
0.633	283.15	1238.9	0.4
0.633	293.15	1223.7	0.4
0.633	303.15	1208.5	0.3
0.633	313.15	1192.7	0.3
0.7035	283.15	1289.3	0.4
0.7035	293.15	1273.6	0.4
0.7035	303.15	1257.7	0.4
0.7035	313.15	1241.3	0.4
0.7973	283.15	1357.5	0.4
0.7973	293.15	1340.7	0.4
0.7973	303.15	1323.9	0.4
0.7973	313.15	1306.6	0.4
0.9068	283.15	1437.7	0.5
0.9068	293.15	1419.8	0.5
0.9068	303.15	1401.8	0.5
0.9068	313.15	1383.4	0.4
1	283.15	1507.3	0.5
1	293.15	1488.4	0.5
1	303.15	1469.4	0.5
1	313.15	1450	0.5
