Measured thermophysical data. Solubility of Urea Phosphate in Water + Phosphoric Acid from (277.00 to 354.50) K
Source: J. Chem. Eng. Data, 2007, 10.1021/je060346a
Compound 1: urea phosphate, CH7N2O5P, InChI=1S/CH4N2O.H3O4P/c2-1(3)4;1-5(2,3)4/h(H4,2,3,4);(H3,1,2,3,4)
Compound 2: water, H2O, InChI=1S/H2O/h1H2
Compound 3: phosphoric acid, H3O4P, InChI=1S/H3O4P/c1-5(2,3)4/h(H3,1,2,3,4), purity 85%

System: urea phosphate + water; phases: Liquid, Crystal
Fixed: Pressure, kPa = 101
Property: Solid-liquid equilibrium temperature, K (Liquid); method: VISOBS
Mole fraction of urea phosphate	Solid-liquid equilibrium temperature, K	uncertainty
0.0521	277	4
0.0549	277.98	4
0.0579	278.95	4
0.0612	280.28	4
0.0673	282.57	4
0.0708	284.4	4
0.0774	286.56	4
0.0831	288.13	4
0.0887	290.21	4
0.094	292.3	4
0.0973	293.18	4
0.1008	294.36	4
0.1051	295.54	4
0.1108	297.6	4
0.1174	299.83	4
0.1264	303.28	4
0.1336	305.4	4
0.1402	307.04	4
0.1467	308.55	4
0.1542	310.14	4
0.1581	311.07	4
0.1639	312.83	4
0.1699	314.04	4
0.1799	317.08	4
0.1836	318.2	4
0.188	319.26	4
0.1958	320.78	4
0.1982	321.44	4
0.2002	322	4
0.2025	322.58	4
0.2054	323.1	4
0.2084	323.6	4
0.214	324.86	4
0.2206	326.2	4
0.2257	327.09	4
0.2309	328.16	4
0.2403	330.18	4
0.2445	331.06	4
0.249	331.99	4
0.2523	332.67	4
0.2575	333.3	4
0.2718	335.66	4
0.2882	339.05	4
0.2963	340.84	4
0.3101	342.56	4
0.3183	344.1	4
0.332	345.94	4
0.3489	348.28	4
0.3608	350.08	4
0.3722	351.6	4

System: urea phosphate + phosphoric acid + water; phases: Liquid, Crystal
Fixed: Pressure, kPa = 101
Property: Solid-liquid equilibrium temperature, K (Liquid); method: VISOBS
Solvent: Mole fraction of phosphoric acid	Mole fraction of urea phosphate	Solid-liquid equilibrium temperature, K	uncertainty
0.044	0.0265	276.92	4
0	0.0521	277	4
0	0.0549	277.98	4
0	0.0579	278.95	4
0.044	0.031	279.4	4
0.109	0.0122	279.47	4
0	0.0612	280.28	4
0.109	0.0151	280.95	4
0.216	0.0148	281.68	4
0.109	0.0161	281.77	4
0	0.0673	282.57	4
0.044	0.0369	282.62	4
0.109	0.0181	283.31	4
0	0.0708	284.4	4
0.216	0.0201	285.22	4
0.044	0.0419	285.68	4
0	0.0774	286.56	4
0.109	0.0216	286.58	4
0	0.0831	288.13	4
0.216	0.0257	288.54	4
0.044	0.0466	288.91	4
0.044	0.0492	290.17	4
0	0.0887	290.21	4
0.044	0.0531	291.75	4
0.109	0.0308	291.9	4
0	0.094	292.3	4
0.216	0.0311	292.37	4
0	0.0973	293.18	4
0	0.1008	294.36	4
0.216	0.0353	295.31	4
0	0.1051	295.54	4
0.044	0.0617	295.85	4
0	0.1108	297.6	4
0.109	0.0428	297.73	4
0.044	0.0671	297.9	4
0.044	0.0727	299.8	4
0	0.1174	299.83	4
0.216	0.0418	299.93	4
0.044	0.0776	300.65	4
0.109	0.0529	302.29	4
0.044	0.0818	302.77	4
0.216	0.0482	302.85	4
0	0.1264	303.28	4
0.044	0.0913	304.69	4
0.109	0.059	305.27	4
0	0.1336	305.4	4
0.216	0.0534	305.46	4
0	0.1402	307.04	4
0.109	0.0674	307.68	4
0.044	0.1009	307.86	4
0.216	0.0643	308.27	4
0	0.1467	308.55	4
0	0.1542	310.14	4
0.044	0.1125	310.56	4
0	0.1581	311.07	4
0.109	0.0815	311.58	4
0	0.1639	312.83	4
0.044	0.1224	313.15	4
0.216	0.0767	313.47	4
0	0.1699	314.04	4
0.109	0.097	315.8	4
0.216	0.085	316.05	4
0.044	0.1325	316.16	4
0	0.1799	317.08	4
0.109	0.1038	317.65	4
0	0.1836	318.2	4
0	0.188	319.26	4
0.216	0.0946	319.38	4
0.044	0.1473	319.52	4
0.044	0.1516	320.22	4
0	0.1958	320.78	4
0.109	0.1196	320.98	4
0	0.1982	321.44	4
0	0.2002	322	4
0	0.2025	322.58	4
0	0.2054	323.1	4
0.216	0.1109	323.36	4
0	0.2084	323.6	4
0.044	0.1669	324.28	4
0.109	0.1372	324.58	4
0	0.214	324.86	4
0	0.2206	326.2	4
0.109	0.1498	326.52	4
0.044	0.1883	327.04	4
0	0.2257	327.09	4
0.216	0.1232	327.16	4
0	0.2309	328.16	4
0.109	0.162	328.82	4
0.044	0.2076	329.93	4
0	0.2403	330.18	4
0	0.2445	331.06	4
0.109	0.1729	331.52	4
0.044	0.2175	331.92	4
0	0.249	331.99	4
0.216	0.1462	332.16	4
0	0.2523	332.67	4
0.109	0.1851	333.23	4
0	0.2575	333.3	4
0.044	0.2254	333.81	4
0.044	0.2376	335.6	4
0	0.2718	335.66	4
0.216	0.1655	336.23	4
0.109	0.2013	336.42	4
0.044	0.2525	337.25	4
0.216	0.1772	338.25	4
0.044	0.2614	338.86	4
0	0.2882	339.05	4
0.109	0.2181	339.48	4
0.109	0.2246	340.4	4
0.044	0.27	340.41	4
0	0.2963	340.84	4
0.216	0.1973	341.22	4
0.109	0.2349	341.53	4
0.044	0.2768	341.54	4
0	0.3101	342.56	4
0.044	0.2875	343.15	4
0.109	0.2498	343.49	4
0	0.3183	344.1	4
0.216	0.2153	344.2	4
0.044	0.2995	344.65	4
0.109	0.2628	345.23	4
0	0.332	345.94	4
0.044	0.3126	346.28	4
0.216	0.238	347.03	4
0.044	0.323	347.16	4
0.109	0.2748	347.27	4
0	0.3489	348.28	4
0.044	0.3339	348.44	4
0.109	0.2909	349.2	4
0.216	0.2596	349.5	4
0.109	0.2965	349.76	4
0.044	0.3443	350	4
0	0.3608	350.08	4
0.044	0.3538	351.13	4
0	0.3722	351.6	4
0.044	0.3618	351.95	4
0.109	0.3169	352.4	4
0.044	0.3657	352.54	4
0.216	0.2807	352.57	4
0.044	0.372	353.43	4
0.044	0.3789	354.5	4
