Measured thermophysical data. Densities and Surface Tensions of Propyl Acetate + Xylenes or + Ethylbenzene from (298.15 to 308.15) K
Source: J. Chem. Eng. Data, 2007, 10.1021/je060485s
Compound 1: 1,2-dimethylbenzene, C8H10, InChI=1S/C8H10/c1-7-5-3-4-6-8(7)2/h3-6H,1-2H3
Compound 2: 1,3-dimethylbenzene, C8H10, InChI=1S/C8H10/c1-7-4-3-5-8(2)6-7/h3-6H,1-2H3
Compound 3: 1,4-dimethylbenzene, C8H10, InChI=1S/C8H10/c1-7-3-5-8(2)6-4-7/h3-6H,1-2H3
Compound 4: ethylbenzene, C8H10, InChI=1S/C8H10/c1-2-8-6-4-3-5-7-8/h3-7H,2H2,1H3
Compound 5: propyl ethanoate, C5H10O2, InChI=1S/C5H10O2/c1-3-4-7-5(2)6/h3-4H2,1-2H3

System: 1,2-dimethylbenzene; phases: Liquid, Air at 1 atmosphere
Property: Surface tension liquid-gas, N/m (Liquid); method: Pendant drop shape
Temperature, K	Surface tension liquid-gas, N/m	uncertainty
298.15	0.02989	0.00032
303.15	0.02924	0.00031
308.15	0.02857	0.00031

System: 1,2-dimethylbenzene; phases: Liquid
Fixed: Pressure, kPa = 101
Property: Mass density, kg/m3 (Liquid); method: VIBTUB::UFactor:4
Temperature, K	Mass density, kg/m3	uncertainty
298.15	875.05	0.34
303.15	870.83	0.35
308.15	866.62	0.36

System: 1,3-dimethylbenzene; phases: Liquid, Air at 1 atmosphere
Property: Surface tension liquid-gas, N/m (Liquid); method: Pendant drop shape
Temperature, K	Surface tension liquid-gas, N/m	uncertainty
298.15	0.02847	0.00031
303.15	0.02793	0.00031
308.15	0.02737	0.00031

System: 1,3-dimethylbenzene; phases: Liquid
Fixed: Pressure, kPa = 101
Property: Mass density, kg/m3 (Liquid); method: VIBTUB::UFactor:4
Temperature, K	Mass density, kg/m3	uncertainty
298.15	859.8	0.41
303.15	855.51	0.42
308.15	851.19	0.43

System: 1,4-dimethylbenzene; phases: Liquid, Air at 1 atmosphere
Property: Surface tension liquid-gas, N/m (Liquid); method: Pendant drop shape
Temperature, K	Surface tension liquid-gas, N/m	uncertainty
298.15	0.02808	0.0003
303.15	0.02747	0.00029
308.15	0.02713	0.00029

System: 1,4-dimethylbenzene; phases: Liquid
Fixed: Pressure, kPa = 101
Property: Mass density, kg/m3 (Liquid); method: VIBTUB::UFactor:4
Temperature, K	Mass density, kg/m3	uncertainty
298.15	856.92	0.36
303.15	852.58	0.37
308.15	848.26	0.37

System: ethylbenzene; phases: Liquid, Air at 1 atmosphere
Property: Surface tension liquid-gas, N/m (Liquid); method: Pendant drop shape
Temperature, K	Surface tension liquid-gas, N/m	uncertainty
298.15	0.02879	0.0003
303.15	0.02829	0.0003
308.15	0.02785	0.0003

System: ethylbenzene; phases: Liquid
Fixed: Pressure, kPa = 101
Property: Mass density, kg/m3 (Liquid); method: VIBTUB::UFactor:4
Temperature, K	Mass density, kg/m3	uncertainty
298.15	862.25	0.35
303.15	857.88	0.36
308.15	853.43	0.37

System: propyl ethanoate; phases: Liquid, Air at 1 atmosphere
Property: Surface tension liquid-gas, N/m (Liquid); method: Pendant drop shape
Temperature, K	Surface tension liquid-gas, N/m	uncertainty
298.15	0.02391	0.00027
303.15	0.02346	0.00027
308.15	0.02279	0.00026

System: propyl ethanoate; phases: Liquid
Fixed: Pressure, kPa = 101
Property: Mass density, kg/m3 (Liquid); method: VIBTUB:UFactor:4
Temperature, K	Mass density, kg/m3	uncertainty
298.15	882.54	0.35
303.15	876.99	0.35
308.15	871.35	0.36

System: 1,2-dimethylbenzene + propyl ethanoate; phases: Liquid, Air at 1 atmosphere
Property: Surface tension liquid-gas, N/m (Liquid); method: Pendant drop shape
Temperature, K	Mole fraction of propyl ethanoate	Surface tension liquid-gas, N/m	uncertainty
298.15	0	0.02989	0.00032
298.15	0.0998	0.02894	0.00031
298.15	0.1995	0.02814	0.0003
298.15	0.2996	0.02747	0.0003
298.15	0.4002	0.02685	0.00029
298.15	0.5001	0.02627	0.00029
298.15	0.6004	0.02571	0.00028
298.15	0.7002	0.02518	0.00028
298.15	0.7999	0.02469	0.00028
298.15	0.9	0.02425	0.00027
298.15	1	0.02391	0.00027
303.15	0	0.02924	0.00031
303.15	0.0999	0.02841	0.0003
303.15	0.1997	0.0276	0.0003
303.15	0.2992	0.02692	0.00029
303.15	0.3998	0.0263	0.00029
303.15	0.4993	0.02574	0.00028
303.15	0.6002	0.0252	0.00028
303.15	0.6994	0.0247	0.00028
303.15	0.8002	0.02424	0.00027
303.15	0.902	0.02381	0.00027
303.15	1	0.02346	0.00027
308.15	0	0.02857	0.00031
308.15	0.0999	0.0278	0.0003
308.15	0.1999	0.02705	0.00029
308.15	0.3001	0.02635	0.00029
308.15	0.3989	0.02573	0.00028
308.15	0.5002	0.02514	0.00028
308.15	0.6008	0.0246	0.00027
308.15	0.6998	0.0241	0.00027
308.15	0.8007	0.02363	0.00027
308.15	0.9	0.0232	0.00026
308.15	1	0.02279	0.00026

System: 1,2-dimethylbenzene + propyl ethanoate; phases: Liquid
Fixed: Pressure, kPa = 101
Property: Mass density, kg/m3 (Liquid); method: VIBTUB:UFactor:4
Temperature, K	Mole fraction of propyl ethanoate	Mass density, kg/m3	uncertainty
298.15	0	875.05	0.34
298.15	0.0998	876.04	0.34
298.15	0.1995	876.96	0.34
298.15	0.2996	877.83	0.34
298.15	0.4002	878.67	0.34
298.15	0.5001	879.45	0.34
298.15	0.6004	880.18	0.34
298.15	0.7002	880.85	0.34
298.15	0.7999	881.46	0.35
298.15	0.9	882.03	0.35
298.15	1	882.54	0.35
303.15	0	870.83	0.35
303.15	0.1	871.68	0.35
303.15	0.1997	872.48	0.35
303.15	0.2992	873.22	0.35
303.15	0.3998	873.93	0.35
303.15	0.4993	874.57	0.35
303.15	0.6002	875.17	0.35
303.15	0.6994	875.7	0.35
303.15	0.8002	876.19	0.35
303.15	0.902	876.63	0.35
303.15	1	876.99	0.35
308.15	0	866.62	0.36
308.15	0.0999	867.33	0.36
308.15	0.1999	867.99	0.36
308.15	0.3001	868.59	0.36
308.15	0.3989	869.15	0.36
308.15	0.5002	869.66	0.36
308.15	0.6008	870.11	0.36
308.15	0.6998	870.5	0.36
308.15	0.8007	870.84	0.36
308.15	0.9	871.12	0.36
308.15	1	871.35	0.36

System: 1,3-dimethylbenzene + propyl ethanoate; phases: Liquid, Air at 1 atmosphere
Property: Surface tension liquid-gas, N/m (Liquid); method: Pendant drop shape
Temperature, K	Mole fraction of propyl ethanoate	Surface tension liquid-gas, N/m	uncertainty
298.15	0	0.02847	0.00031
298.15	0.0997	0.02786	0.00031
298.15	0.1999	0.02726	0.0003
298.15	0.2986	0.0267	0.0003
298.15	0.4002	0.02616	0.00029
298.15	0.4986	0.02571	0.00029
298.15	0.6004	0.0253	0.00028
298.15	0.6984	0.02494	0.00028
298.15	0.8004	0.02459	0.00028
298.15	0.9007	0.02425	0.00027
298.15	1	0.02391	0.00027
303.15	0	0.02793	0.00031
303.15	0.0999	0.02735	0.0003
303.15	0.1989	0.02679	0.0003
303.15	0.299	0.02625	0.00029
303.15	0.4003	0.02573	0.00029
303.15	0.5	0.02527	0.00028
303.15	0.5994	0.02488	0.00028
303.15	0.6998	0.02451	0.00028
303.15	0.8006	0.02415	0.00027
303.15	0.8992	0.02381	0.00027
303.15	1	0.02346	0.00027
308.15	0	0.02737	0.00031
308.15	0.0998	0.0268	0.0003
308.15	0.2	0.02625	0.00029
308.15	0.2998	0.02571	0.00029
308.15	0.3993	0.02519	0.00028
308.15	0.5006	0.0247	0.00028
308.15	0.6004	0.02427	0.00028
308.15	0.6999	0.02389	0.00027
308.15	0.7988	0.02352	0.00027
308.15	0.9013	0.02315	0.00027
308.15	1	0.02279	0.00026

System: 1,3-dimethylbenzene + propyl ethanoate; phases: Liquid
Fixed: Pressure, kPa = 101
Property: Mass density, kg/m3 (Liquid); method: VIBTUB:UFactor:4
Temperature, K	Mole fraction of propyl ethanoate	Mass density, kg/m3	uncertainty
298.15	0	859.8	0.41
298.15	0.0997	861.98	0.41
298.15	0.1999	864.17	0.4
298.15	0.2986	866.33	0.39
298.15	0.4002	868.57	0.39
298.15	0.4986	870.76	0.38
298.15	0.6004	873.06	0.37
298.15	0.6984	875.31	0.37
298.15	0.8004	877.7	0.36
298.15	0.9007	880.11	0.35
298.15	1	882.54	0.35
303.15	0	855.51	0.42
303.15	0.0999	857.57	0.41
303.15	0.1989	859.62	0.41
303.15	0.299	861.69	0.4
303.15	0.4003	863.8	0.39
303.15	0.5	865.9	0.39
303.15	0.5994	868.02	0.38
303.15	0.6998	870.19	0.37
303.15	0.8006	872.42	0.37
303.15	0.8992	874.66	0.36
303.15	1	876.99	0.35
308.15	0	851.19	0.43
308.15	0.0998	853.12	0.42
308.15	0.2	855.07	0.41
308.15	0.2998	857.01	0.41
308.15	0.3993	858.96	0.4
308.15	0.5006	860.96	0.39
308.15	0.6004	862.95	0.39
308.15	0.6999	864.97	0.38
308.15	0.7988	867.02	0.38
308.15	0.9013	869.2	0.37
308.15	1	871.35	0.36

System: 1,4-dimethylbenzene + propyl ethanoate; phases: Liquid, Air at 1 atmosphere
Property: Surface tension liquid-gas, N/m (Liquid); method: Pendant drop shape
Temperature, K	Mole fraction of propyl ethanoate	Surface tension liquid-gas, N/m	uncertainty
298.15	0	0.02808	0.0003
298.15	0.1	0.02756	0.0003
298.15	0.1995	0.02704	0.00029
298.15	0.2981	0.02654	0.00029
298.15	0.3986	0.02605	0.00028
298.15	0.4993	0.02561	0.00028
298.15	0.6002	0.02523	0.00028
298.15	0.6991	0.02489	0.00028
298.15	0.7993	0.02456	0.00027
298.15	0.8999	0.02423	0.00027
298.15	1	0.02391	0.00027
303.15	0	0.02747	0.00029
303.15	0.0994	0.02698	0.00029
303.15	0.1992	0.02648	0.00029
303.15	0.2992	0.02599	0.00028
303.15	0.3991	0.02552	0.00028
303.15	0.5009	0.0251	0.00028
303.15	0.5998	0.02476	0.00028
303.15	0.6999	0.02443	0.00027
303.15	0.8009	0.0241	0.00027
303.15	0.8997	0.02378	0.00027
303.15	1	0.02346	0.00027
308.15	0	0.02713	0.00029
308.15	0.1001	0.02661	0.00029
308.15	0.1999	0.02609	0.00028
308.15	0.2992	0.02557	0.00028
308.15	0.4001	0.02506	0.00028
308.15	0.4996	0.02462	0.00027
308.15	0.6	0.02423	0.00027
308.15	0.6996	0.02387	0.00027
308.15	0.8003	0.02351	0.00027
308.15	0.9002	0.02315	0.00026
308.15	1	0.02279	0.00026

System: 1,4-dimethylbenzene + propyl ethanoate; phases: Liquid
Fixed: Pressure, kPa = 101
Property: Mass density, kg/m3 (Liquid); method: VIBTUB:UFactor:4
Temperature, K	Mole fraction of propyl ethanoate	Mass density, kg/m3	uncertainty
298.15	0	856.92	0.36
298.15	0.1	859.6	0.36
298.15	0.1995	862.22	0.36
298.15	0.2981	864.8	0.35
298.15	0.3986	867.38	0.35
298.15	0.4993	869.95	0.35
298.15	0.6002	872.51	0.35
298.15	0.6991	875	0.35
298.15	0.7993	877.52	0.35
298.15	0.8999	880.05	0.35
298.15	1	882.54	0.35
303.15	0	852.58	0.37
303.15	0.0994	855.13	0.37
303.15	0.1992	857.64	0.36
303.15	0.2992	860.13	0.36
303.15	0.3991	862.58	0.36
303.15	0.5009	865.05	0.36
303.15	0.5998	867.44	0.36
303.15	0.6999	869.84	0.36
303.15	0.8009	872.26	0.36
303.15	0.8997	874.63	0.36
303.15	1	876.99	0.35
308.15	0	848.26	0.37
308.15	0.1001	850.7	0.37
308.15	0.1999	853.09	0.37
308.15	0.2992	855.43	0.37
308.15	0.4001	857.77	0.37
308.15	0.4996	860.06	0.37
308.15	0.6	862.35	0.37
308.15	0.6996	864.61	0.36
308.15	0.8003	866.88	0.36
308.15	0.9002	869.14	0.36
308.15	1	871.35	0.36

System: ethylbenzene + propyl ethanoate; phases: Liquid, Air at 1 atmosphere
Property: Surface tension liquid-gas, N/m (Liquid); method: Pendant drop shape
Temperature, K	Mole fraction of propyl ethanoate	Surface tension liquid-gas, N/m	uncertainty
298.15	0	0.02879	0.0003
298.15	0.1005	0.02815	0.0003
298.15	0.1994	0.02751	0.00029
298.15	0.3002	0.02689	0.00029
298.15	0.4005	0.02635	0.00029
298.15	0.5	0.02591	0.00028
298.15	0.6002	0.0255	0.00028
298.15	0.6997	0.0251	0.00028
298.15	0.7998	0.0247	0.00028
298.15	0.9007	0.0243	0.00027
298.15	1	0.02391	0.00027
298.15	0	0.02879	0.0003
298.15	0.1005	0.02815	0.0003
298.15	0.1994	0.02751	0.00029
298.15	0.3002	0.02689	0.00029
298.15	0.4005	0.02635	0.00029
298.15	0.5	0.02591	0.00028
298.15	0.6002	0.0255	0.00028
298.15	0.6997	0.0251	0.00028
298.15	0.7998	0.0247	0.00028
298.15	0.9007	0.0243	0.00027
298.15	1	0.02391	0.00027
303.15	0	0.02829	0.0003
303.15	0.1001	0.0277	0.0003
303.15	0.1995	0.0271	0.00029
303.15	0.2995	0.02649	0.00029
303.15	0.4	0.02595	0.00028
303.15	0.5004	0.02549	0.00028
303.15	0.5995	0.02507	0.00028
303.15	0.6999	0.02465	0.00027
303.15	0.8005	0.02424	0.00027
303.15	0.9007	0.02385	0.00027
303.15	1	0.02346	0.00027
303.15	0	0.02829	0.0003
303.15	0.1001	0.0277	0.0003
303.15	0.1995	0.0271	0.00029
303.15	0.2995	0.02649	0.00029
303.15	0.4	0.02595	0.00028
303.15	0.5004	0.02549	0.00028
303.15	0.5995	0.02507	0.00028
303.15	0.6999	0.02465	0.00027
303.15	0.8005	0.02424	0.00027
303.15	0.9007	0.02385	0.00027
303.15	1	0.02346	0.00027
308.15	0	0.02785	0.0003
308.15	0.1	0.02724	0.00029
308.15	0.2	0.02662	0.00029
308.15	0.2999	0.02601	0.00028
308.15	0.3997	0.02546	0.00028
308.15	0.5003	0.02497	0.00028
308.15	0.5999	0.02452	0.00027
308.15	0.7001	0.02408	0.00027
308.15	0.8007	0.02365	0.00027
308.15	0.9003	0.02322	0.00026
308.15	1	0.02279	0.00026
308.15	0	0.02785	0.0003
308.15	0.1	0.02724	0.00029
308.15	0.2	0.02662	0.00029
308.15	0.2999	0.02601	0.00028
308.15	0.3997	0.02546	0.00028
308.15	0.5003	0.02497	0.00028
308.15	0.5999	0.02452	0.00027
308.15	0.7001	0.02408	0.00027
308.15	0.8007	0.02365	0.00027
308.15	0.9003	0.02322	0.00026

System: ethylbenzene + propyl ethanoate; phases: Liquid
Fixed: Pressure, kPa = 101
Property: Mass density, kg/m3 (Liquid); method: VIBTUB:UFactor:4
Temperature, K	Mole fraction of propyl ethanoate	Mass density, kg/m3	uncertainty
298.15	0	862.25	0.35
298.15	0.1005	864.23	0.35
298.15	0.1994	866.18	0.35
298.15	0.3002	868.16	0.35
298.15	0.4005	870.14	0.35
298.15	0.5	872.12	0.35
298.15	0.6002	874.14	0.35
298.15	0.6997	876.17	0.35
298.15	0.7998	878.24	0.35
298.15	0.9007	880.38	0.35
298.15	1	882.54	0.35
303.15	0	857.88	0.36
303.15	0.1001	859.75	0.36
303.15	0.1995	861.59	0.36
303.15	0.2995	863.45	0.36
303.15	0.4	865.32	0.36
303.15	0.5004	867.2	0.36
303.15	0.5995	869.08	0.36
303.15	0.6999	871	0.36
303.15	0.8005	872.96	0.35
303.15	0.9007	874.96	0.35
303.15	1	876.99	0.35
308.15	0	853.43	0.37
308.15	0.1	855.19	0.37
308.15	0.2	856.93	0.36
308.15	0.2999	858.67	0.36
308.15	0.3997	860.41	0.36
308.15	0.5003	862.18	0.36
308.15	0.5999	863.95	0.36
308.15	0.7001	865.74	0.36
308.15	0.8007	867.58	0.36
308.15	0.9003	869.44	0.36
308.15	1	871.35	0.36
