Measured thermophysical data. Thermodynamic Properties of Compressed Liquid Methanol in the Vicinity of the Freezing Line
Source: J. Chem. Eng. Data, 2007, 10.1021/je060415l
Compound 1: methanol, CH4O, InChI=1S/CH4O/c1-2/h2H,1H3

System: methanol; phases: Liquid
Property: Isothermal compressibility, 1/kPa (Liquid); method: expansion method
Temperature, K	Pressure, kPa	Isothermal compressibility, 1/kPa	uncertainty
208.17	390	7.15e-07	4.1e-08
208.17	2110	6.78e-07	4e-08
208.17	5020	6.63e-07	4e-08
208.17	7970	6.47e-07	3.9e-08
208.17	10910	6.37e-07	3.9e-08
208.17	13880	6.24e-07	3.9e-08
208.17	16980	6.12e-07	3.9e-08
208.17	20090	6.02e-07	3.8e-08
208.17	23230	5.9e-07	3.8e-08
208.17	30160	5.68e-07	3.8e-08
208.17	33540	5.57e-07	3.8e-08
208.17	37190	5.46e-07	3.7e-08
208.17	41120	5.34e-07	3.7e-08
208.17	45130	5.26e-07	3.7e-08
208.17	49210	5.15e-07	3.7e-08
208.17	53370	5.04e-07	3.7e-08
208.17	57610	4.95e-07	3.6e-08
208.17	61920	4.85e-07	3.6e-08
208.17	66300	4.78e-07	3.6e-08
208.17	70740	4.7e-07	3.6e-08
208.17	75250	4.6e-07	3.6e-08
208.17	79850	4.53e-07	3.6e-08
208.17	84300	4.48e-07	3.6e-08
208.17	88600	4.41e-07	3.6e-08
208.17	92960	4.35e-07	3.6e-08
208.17	97910	4.18e-07	3.5e-08
223.17	1060	7.59e-07	4.2e-08
223.17	3160	7.44e-07	4.1e-08
223.17	5540	7.28e-07	4.1e-08
223.17	8010	7.14e-07	4.1e-08
223.17	10640	7.01e-07	4e-08
223.17	13500	6.84e-07	4e-08
223.17	16660	6.62e-07	4e-08
223.17	19820	6.59e-07	4e-08
223.17	22850	6.45e-07	3.9e-08
223.17	25930	6.33e-07	3.9e-08
223.17	29040	6.2e-07	3.9e-08
223.17	32210	6.08e-07	3.9e-08
223.17	35450	5.98e-07	3.8e-08
223.17	38770	5.87e-07	3.8e-08
223.17	42230	5.74e-07	3.8e-08
223.17	45780	5.66e-07	3.8e-08
223.17	49400	5.55e-07	3.8e-08
223.17	53080	5.45e-07	3.7e-08
223.17	56960	5.3e-07	3.7e-08
223.17	61040	5.23e-07	3.7e-08
223.17	65060	5.15e-07	3.7e-08
223.17	69050	5.06e-07	3.7e-08
223.17	73000	4.98e-07	3.7e-08
223.17	76980	4.9e-07	3.6e-08
223.17	81110	4.82e-07	3.6e-08
223.17	85330	4.72e-07	3.6e-08
223.17	89630	4.66e-07	3.6e-08
223.17	94200	4.54e-07	3.6e-08
223.17	98850	4.51e-07	3.6e-08
248.19	1680	8.6e-07	4.4e-08
248.19	4590	8.53e-07	4.4e-08
248.19	7250	8.36e-07	4.4e-08
248.19	9880	8.18e-07	4.3e-08
248.19	12580	8.01e-07	4.3e-08
248.19	15470	7.74e-07	4.2e-08
248.19	18450	7.62e-07	4.2e-08
248.19	21360	7.48e-07	4.2e-08
248.19	24330	7.3e-07	4.1e-08
248.19	27310	7.19e-07	4.1e-08
248.19	30180	7.07e-07	4.1e-08
248.19	33000	6.92e-07	4e-08
248.19	35670	6.84e-07	4e-08
248.19	38600	6.64e-07	4e-08
248.19	41780	6.56e-07	4e-08
248.19	44760	6.45e-07	3.9e-08
248.19	47880	6.33e-07	3.9e-08
248.19	51230	6.19e-07	3.9e-08
248.19	54640	6.09e-07	3.9e-08
248.19	57930	5.99e-07	3.8e-08
248.19	61270	5.85e-07	3.8e-08
248.19	64800	5.75e-07	3.8e-08
248.19	68310	5.66e-07	3.8e-08
248.19	71740	5.57e-07	3.8e-08
248.19	75070	5.49e-07	3.7e-08
248.19	78410	5.41e-07	3.7e-08
248.19	81890	5.31e-07	3.7e-08
248.19	85380	5.25e-07	3.7e-08
248.19	88990	5.18e-07	3.7e-08
248.19	92540	5.18e-07	3.7e-08
248.19	96400	5e-07	3.7e-08
248.19	100840	4.9e-07	3.6e-08
263.17	1420	9.64e-07	4.7e-08
263.17	3920	9.42e-07	4.6e-08
263.17	6360	9.2e-07	4.6e-08
263.17	8840	9.02e-07	4.5e-08
263.17	11360	8.82e-07	4.5e-08
263.17	13920	8.62e-07	4.4e-08
263.17	16580	8.42e-07	4.4e-08
263.17	19270	8.26e-07	4.3e-08
263.17	22000	8.07e-07	4.3e-08
263.17	24860	7.88e-07	4.2e-08
263.17	27740	7.73e-07	4.2e-08
263.17	30600	7.56e-07	4.2e-08
263.17	33550	7.41e-07	4.1e-08
263.17	36560	7.26e-07	4.1e-08
263.17	39590	7.11e-07	4.1e-08
263.17	42670	6.97e-07	4e-08
263.17	45790	6.84e-07	4e-08
263.17	48960	6.72e-07	4e-08
263.17	52170	6.58e-07	4e-08
263.17	55430	6.46e-07	3.9e-08
263.17	58830	6.32e-07	3.9e-08
263.17	62280	6.21e-07	3.9e-08
263.17	65720	6.12e-07	3.9e-08
263.17	69340	5.97e-07	3.8e-08
263.17	73030	5.88e-07	3.8e-08
263.17	76640	5.78e-07	3.8e-08
263.17	80310	5.68e-07	3.8e-08
263.17	84120	5.57e-07	3.8e-08
263.17	88070	5.47e-07	3.7e-08
263.17	92050	5.52e-07	3.7e-08
263.17	95980	5.33e-07	3.7e-08
263.17	100060	5.22e-07	3.7e-08
273.17	1010	1.052e-06	4.9e-08
273.17	3000	1.021e-06	4.8e-08
273.17	5050	1.003e-06	4.8e-08
273.17	7100	9.82e-07	4.7e-08
273.17	9170	9.62e-07	4.7e-08
273.17	11220	9.47e-07	4.6e-08
273.17	13320	9.25e-07	4.6e-08
273.17	15430	9.12e-07	4.5e-08
273.17	17510	8.9e-07	4.5e-08
273.17	19750	8.72e-07	4.4e-08
273.17	22140	8.56e-07	4.4e-08
273.17	24880	8.26e-07	4.3e-08
273.17	27900	8.1e-07	4.3e-08
273.17	30870	7.91e-07	4.3e-08
273.17	38720	7.29e-07	4.1e-08
273.17	42290	7.21e-07	4.1e-08
273.17	45710	7.11e-07	4.1e-08
273.17	49180	6.92e-07	4e-08
273.17	52690	6.79e-07	4e-08
273.17	55980	6.73e-07	4e-08
273.17	59210	6.57e-07	4e-08
273.17	62510	6.46e-07	3.9e-08
273.17	65790	6.35e-07	3.9e-08
273.17	69160	6.24e-07	3.9e-08
273.17	72680	6.19e-07	3.9e-08
273.17	76170	6.02e-07	3.8e-08
273.17	79630	5.9e-07	3.8e-08
273.17	83150	5.82e-07	3.8e-08
273.17	86550	5.73e-07	3.8e-08
273.17	90030	5.63e-07	3.8e-08
273.17	94000	5.47e-07	3.7e-08
273.17	98210	5.44e-07	3.7e-08
298.16	740	1.266e-06	5.5e-08
298.16	2360	1.217e-06	5.4e-08
298.16	4230	1.185e-06	5.3e-08
298.16	6090	1.168e-06	5.2e-08
298.16	7970	1.137e-06	5.1e-08
298.16	9920	1.118e-06	5.1e-08
298.16	11950	1.087e-06	5e-08
298.16	14020	1.062e-06	4.9e-08
298.16	16080	1.045e-06	4.9e-08
298.16	18190	1.018e-06	4.8e-08
298.16	20320	1.002e-06	4.8e-08
298.16	22490	9.82e-07	4.7e-08
298.16	24710	9.59e-07	4.7e-08
298.16	26990	9.37e-07	4.6e-08
298.16	29290	9.23e-07	4.6e-08
298.16	31700	8.99e-07	4.5e-08
298.16	34090	8.85e-07	4.5e-08
298.16	36550	8.65e-07	4.4e-08
298.16	39120	8.47e-07	4.4e-08
298.16	41740	8.3e-07	4.3e-08
298.16	44450	8.14e-07	4.3e-08
298.16	47180	7.96e-07	4.3e-08
298.16	49870	7.83e-07	4.2e-08
298.16	52590	7.68e-07	4.2e-08
298.16	55320	7.57e-07	4.2e-08
298.16	58040	7.43e-07	4.1e-08
298.16	60870	7.28e-07	4.1e-08
298.16	63900	7.14e-07	4.1e-08
298.16	66990	7.03e-07	4.1e-08
298.16	69960	6.89e-07	4e-08
298.16	73410	6.65e-07	4e-08
298.16	77320	6.55e-07	4e-08
298.16	80990	6.49e-07	3.9e-08
298.16	84450	6.37e-07	3.9e-08
298.16	87890	6.41e-07	3.9e-08
298.16	91290	6.17e-07	3.9e-08
298.16	94830	6.05e-07	3.8e-08
298.16	98440	6.02e-07	3.8e-08

System: methanol; phases: Liquid
Property: Isobaric coefficient of expansion, 1/K (Liquid); method: expansion method
Temperature, K	Pressure, kPa	Isobaric coefficient of expansion, 1/K	uncertainty
196.17	590	0.001123	3.4e-05
196.97	80030	0.000894	3.3e-05
198.11	590	0.001122	3.4e-05
199.3	80030	0.000894	3.3e-05
200.13	590	0.001118	3.4e-05
201.61	80030	0.000891	3.3e-05
202.14	590	0.00112	3.4e-05
202.14	590	0.001131	3.4e-05
203.94	80030	0.000891	3.3e-05
204.09	590	0.001125	3.4e-05
204.09	590	0.001122	3.4e-05
206.06	590	0.001122	3.4e-05
206.06	590	0.00112	3.4e-05
206.3	80030	0.000888	3.3e-05
208.02	590	0.00112	3.4e-05
208.02	590	0.001122	3.4e-05
208.16	20010	0.001055	3.4e-05
208.68	80030	0.000886	3.3e-05
209.97	590	0.001122	3.4e-05
209.97	590	0.001138	3.4e-05
210.16	20010	0.001039	3.3e-05
210.17	45100	0.000966	3.3e-05
211.07	80030	0.000883	3.2e-05
211.93	590	0.001114	3.4e-05
211.93	590	0.001121	3.4e-05
212.17	20010	0.001037	3.3e-05
212.17	45100	0.000968	3.3e-05
213.46	80030	0.00088	3.2e-05
213.91	590	0.001116	3.4e-05
213.91	590	0.001113	3.4e-05
214.17	20010	0.001037	3.3e-05
214.17	45100	0.000963	3.3e-05
215.9	590	0.001123	3.4e-05
215.9	590	0.001121	3.4e-05
216	80030	0.000874	3.2e-05
216.17	20010	0.001039	3.3e-05
216.17	45100	0.000964	3.3e-05
217.87	590	0.001125	3.4e-05
218.17	20010	0.001043	3.3e-05
218.18	45100	0.000965	3.3e-05
218.19	590	0.001111	3.4e-05
219.84	590	0.001125	3.4e-05
220.16	590	0.001127	3.4e-05
220.18	20010	0.001042	3.3e-05
220.18	45100	0.000962	3.3e-05
220.38	80030	0.000872	3.2e-05
221.82	590	0.001114	3.4e-05
222.14	590	0.001114	3.4e-05
222.17	20010	0.001045	3.3e-05
222.18	45100	0.000966	3.3e-05
222.8	80030	0.000867	3.2e-05
223.82	590	0.001115	3.4e-05
224.15	590	0.001114	3.4e-05
224.17	20010	0.001039	3.3e-05
224.17	45100	0.00096	3.3e-05
225.25	80030	0.000863	3.2e-05
225.86	590	0.001112	3.4e-05
226.15	590	0.001116	3.4e-05
226.16	45100	0.000962	3.3e-05
226.17	20010	0.001038	3.3e-05
227.72	80030	0.000861	3.2e-05
227.95	590	0.001115	3.4e-05
228.15	590	0.001122	3.4e-05
228.16	20010	0.001037	3.3e-05
228.16	45100	0.000958	3.3e-05
230.04	590	0.001114	3.4e-05
230.16	20010	0.001053	3.3e-05
230.17	590	0.001118	3.4e-05
230.17	45100	0.000957	3.3e-05
230.17	80030	0.00086	3.2e-05
232.14	590	0.001119	3.4e-05
232.17	20010	0.001044	3.3e-05
232.17	45100	0.000959	3.3e-05
232.18	590	0.001132	3.4e-05
232.57	80030	0.000869	3.2e-05
234.16	590	0.001132	3.4e-05
234.17	20010	0.001034	3.3e-05
234.17	45100	0.000956	3.3e-05
234.19	590	0.001121	3.4e-05
234.98	80030	0.000859	3.2e-05
236.16	590	0.001124	3.4e-05
236.17	20010	0.001043	3.3e-05
236.17	45100	0.000953	3.3e-05
236.18	590	0.001121	3.4e-05
237.42	80030	0.00086	3.2e-05
238.17	590	0.001123	3.4e-05
238.17	20010	0.001035	3.3e-05
238.17	45100	0.000949	3.3e-05
239.85	80030	0.000855	3.2e-05
240.17	590	0.001124	3.4e-05
240.17	45100	0.000949	3.3e-05
240.25	20010	0.001032	3.3e-05
242.17	590	0.001119	3.4e-05
242.17	45100	0.000942	3.3e-05
242.25	20010	0.001027	3.3e-05
242.29	80030	0.000853	3.2e-05
244.18	590	0.00112	3.4e-05
244.18	45100	0.000941	3.3e-05
244.19	20010	0.001034	3.3e-05
244.74	80030	0.000851	3.2e-05
246.19	590	0.001116	3.4e-05
246.19	20010	0.001041	3.3e-05
247.21	80030	0.000847	3.2e-05
248.17	20010	0.001036	3.3e-05
248.17	45100	0.000942	3.3e-05
248.19	590	0.001123	3.4e-05
249.69	80030	0.000847	3.2e-05
250.17	20010	0.001041	3.3e-05
250.17	45100	0.000939	3.3e-05
250.18	590	0.001125	3.4e-05
252.18	590	0.001128	3.4e-05
252.18	20010	0.001033	3.3e-05
252.18	45100	0.000938	3.3e-05
252.2	80030	0.000842	3.2e-05
254.18	590	0.001132	3.4e-05
254.18	20010	0.00103	3.3e-05
254.18	45100	0.00094	3.3e-05
254.72	80030	0.000837	3.2e-05
256.17	590	0.001136	3.4e-05
256.17	20010	0.001032	3.3e-05
256.18	45100	0.000937	3.3e-05
257.2	80030	0.00084	3.2e-05
258.17	590	0.00113	3.4e-05
258.17	20010	0.001044	3.3e-05
258.18	45100	0.000937	3.3e-05
259.68	80030	0.000841	3.2e-05
260.18	590	0.001129	3.4e-05
260.18	45100	0.000932	3.3e-05
262.17	590	0.001144	3.4e-05
262.17	20010	0.001025	3.3e-05
262.17	45100	0.000936	3.3e-05
262.21	80030	0.000841	3.2e-05
264.17	20010	0.00103	3.3e-05
264.17	45100	0.000938	3.3e-05
264.77	80030	0.000839	3.2e-05
266.17	590	0.001135	3.4e-05
266.17	20010	0.001034	3.3e-05
266.17	45100	0.000942	3.3e-05
267.34	80030	0.000835	3.2e-05
268.16	20010	0.001027	3.3e-05
268.17	590	0.001143	3.4e-05
268.17	45100	0.000934	3.3e-05
269.32	80030	0.000834	3.2e-05
270.16	590	0.001141	3.4e-05
270.16	20010	0.001036	3.3e-05
272.14	45100	0.00094	3.3e-05
272.52	80030	0.000831	3.2e-05
274.14	45100	0.000947	3.3e-05
274.15	20010	0.001044	3.3e-05
275.11	80030	0.000835	3.2e-05
276.12	590	0.001141	3.4e-05
276.14	45100	0.000938	3.3e-05
276.15	20010	0.001043	3.3e-05
277.69	80030	0.000835	3.2e-05
278.13	45100	0.00094	3.3e-05
278.15	20010	0.001043	3.3e-05
278.16	590	0.001148	3.4e-05
280.14	45100	0.00094	3.3e-05
280.15	20010	0.00104	3.3e-05
280.16	590	0.001149	3.4e-05
280.28	80030	0.000833	3.2e-05
282.13	45100	0.00094	3.3e-05
282.15	590	0.001157	3.4e-05
282.15	20010	0.001043	3.3e-05
282.88	80030	0.000832	3.2e-05
284.13	45100	0.000945	3.3e-05
284.14	590	0.001163	3.4e-05
284.14	20010	0.001041	3.3e-05
285.53	80030	0.000829	3.2e-05
286.15	590	0.00118	3.4e-05
286.15	20010	0.001046	3.3e-05
288.14	45100	0.000945	3.3e-05
288.16	590	0.001165	3.4e-05
288.17	80030	0.000826	3.2e-05
289.13	590	0.001175	3.4e-05
290.13	45100	0.000945	3.3e-05
290.14	20010	0.001059	3.4e-05
290.16	590	0.001165	3.4e-05
290.79	80030	0.000832	3.2e-05
291.13	590	0.00118	3.4e-05
292.14	45100	0.000943	3.3e-05
292.15	20010	0.001039	3.3e-05
292.16	590	0.001173	3.4e-05
293.12	590	0.001191	3.4e-05
293.4	80030	0.000846	3.2e-05
294.13	45100	0.000938	3.3e-05
294.14	20010	0.001054	3.4e-05
294.16	590	0.001175	3.4e-05
295.12	590	0.0012	3.4e-05
296.02	80030	0.000842	3.2e-05
296.13	45100	0.00094	3.3e-05
296.14	20010	0.001055	3.4e-05
296.16	590	0.001167	3.4e-05
297.12	590	0.001183	3.4e-05
298.13	45100	0.000942	3.3e-05
298.15	20010	0.001052	3.3e-05
298.17	590	0.001175	3.4e-05
298.65	80030	0.00085	3.2e-05
300.16	590	0.001193	3.4e-05
301.27	80030	0.000833	3.2e-05
