Measured thermophysical data. High-Pressure Densities and Derived Thermodynamic Properties of Imidazolium-Based Ionic Liquids
Source: J. Chem. Eng. Data, 2007, 10.1021/je060247x
Compound 1: 1-butyl-3-methylimidazolium tetrafluoroborate, C8H15BF4N2, InChI=1S/C8H15N2.BF4/c1-3-4-5-10-7-6-9(2)8-10;2-1(3,4)5/h6-8H,3-5H2,1-2H3;/q+1;-1, purity 98%
Compound 2: 1-methyl-3-octylimidazolium tetrafluoroborate, C12H23BF4N2, InChI=1S/C12H23N2.BF4/c1-3-4-5-6-7-8-9-14-11-10-13(2)12-14;2-1(3,4)5/h10-12H,3-9H2,1-2H3;/q+1;-1, purity 99%
Compound 3: 1-hexyl-3-methylimidazolium hexafluorophosphate, C10H19F6N2P, InChI=1S/C10H19N2.F6P/c1-3-4-5-6-7-12-9-8-11(2)10-12;1-7(2,3,4,5)6/h8-10H,3-7H2,1-2H3;/q+1;-1, purity 98%
Compound 4: 1-octyl-3-methylimidazolium hexafluorophosphate, C12H23F6N2P, InChI=1S/C12H23N2.F6P/c1-3-4-5-6-7-8-9-14-11-10-13(2)12-14;1-7(2,3,4,5)6/h10-12H,3-9H2,1-2H3;/q+1;-1, purity 98%
Compound 5: 1-butyl-2,3-dimethylimidazolium hexafluorophosphate, C9H17F6N2P, InChI=1S/C9H17N2.F6P/c1-4-5-6-11-8-7-10(3)9(11)2;1-7(2,3,4,5)6/h7-8H,4-6H2,1-3H3;/q+1;-1, purity 98%
Compound 6: 1-butyl-3-methylimidazolium trifluoromethanesulfonate, C9H15F3N2O3S, InChI=1S/C8H15N2.CHF3O3S/c1-3-4-5-10-7-6-9(2)8-10;2-1(3,4)8(5,6)7/h6-8H,3-5H2,1-2H3;(H,5,6,7)/q+1;/p-1, purity 99%
Compound 7: water, H2O, InChI=1S/H2O/h1H2

System: 1-butyl-3-methylimidazolium tetrafluoroborate; phases: Liquid
Property: Mass density, kg/m3 (Liquid); method: VIBTUB:UFactor:12
Pressure, kPa	Temperature, K	Mass density, kg/m3	uncertainty
100	293.15	1206.9	2.5
100	303.15	1198.6	2.5
100	313.15	1190.8	2.4
100	323.15	1183	2.4
100	333.15	1175.8	2.3
100	343.15	1168.4	2.3
100	353.15	1161.3	2.2
100	363.15	1154.7	2.2
100	373.15	1148.2	2.1
100	383.15	1142	2.1
100	393.15	1136.1	2.1
1000	293.15	1207.3	2.6
1000	303.15	1199.1	2.6
1000	313.15	1191.3	2.5
1000	323.15	1183.5	2.4
1000	333.15	1176.3	2.4
1000	343.15	1168.9	2.3
1000	353.15	1161.8	2.3
1000	363.15	1155.3	2.2
1000	373.15	1148.8	2.2
1000	383.15	1142.5	2.2
1000	393.15	1136.7	2.1
2000	293.15	1207.7	2.7
2000	303.15	1199.6	2.6
2000	313.15	1191.8	2.6
2000	323.15	1184	2.5
2000	333.15	1176.9	2.5
2000	343.15	1169.3	2.4
2000	353.15	1162.4	2.4
2000	363.15	1155.8	2.3
2000	373.15	1149.3	2.3
2000	383.15	1143.1	2.2
2000	393.15	1137.3	2.2
3000	293.15	1208.2	2.8
3000	303.15	1200.1	2.7
3000	313.15	1192.2	2.7
3000	323.15	1184.5	2.6
3000	333.15	1177.4	2.6
3000	343.15	1169.8	2.5
3000	353.15	1163	2.5
3000	363.15	1156.4	2.4
3000	373.15	1149.9	2.4
3000	383.15	1143.7	2.3
3000	393.15	1137.9	2.3
4000	293.15	1208.7	2.9
4000	303.15	1200.7	2.8
4000	313.15	1192.7	2.8
4000	323.15	1185	2.7
4000	333.15	1177.9	2.6
4000	343.15	1170.3	2.6
4000	353.15	1163.5	2.5
4000	363.15	1156.9	2.5
4000	373.15	1150.4	2.4
4000	383.15	1144.3	2.4
4000	393.15	1138.4	2.3
5000	293.15	1209.1	3
5000	303.15	1201.1	2.9
5000	313.15	1193.2	2.9
5000	323.15	1185.5	2.8
5000	333.15	1178.4	2.7
5000	343.15	1170.8	2.7
5000	353.15	1164.1	2.6
5000	363.15	1157.5	2.6
5000	373.15	1151	2.5
5000	383.15	1144.8	2.5
5000	393.15	1139	2.4
10000	293.15	1211.3	3.5
10000	303.15	1203.5	3.4
10000	313.15	1195.5	3.3
10000	323.15	1187.8	3.3
10000	333.15	1181	3.2
10000	343.15	1173.1	3.1
10000	353.15	1166.6	3
10000	363.15	1160.1	3
10000	373.15	1153.6	2.9
10000	383.15	1147.6	2.8
10000	393.15	1141.9	2.8

System: 1-methyl-3-octylimidazolium tetrafluoroborate; phases: Liquid
Property: Mass density, kg/m3 (Liquid); method: VIBTUB:UFactor:8
Pressure, kPa	Temperature, K	Mass density, kg/m3	uncertainty
100	293.15	1108.7	1
100	303.15	1100.7	0.9
100	313.15	1092.9	0.9
100	323.15	1085.4	0.9
100	333.15	1078.2	0.9
100	343.15	1071.4	0.9
100	353.15	1064.7	0.9
100	363.15	1058.6	0.8
100	373.15	1052.4	0.8
100	383.15	1046.6	0.8
100	393.15	1040.9	0.8
1000	293.15	1109.1	1
1000	303.15	1101.1	1
1000	313.15	1093.4	0.9
1000	323.15	1085.9	0.9
1000	333.15	1078.7	0.9
1000	343.15	1072	0.9
1000	353.15	1065.2	0.9
1000	363.15	1059.1	0.9
1000	373.15	1053	0.8
1000	383.15	1047.2	0.8
1000	393.15	1041.5	0.8
2000	293.15	1109.6	1
2000	303.15	1101.6	1
2000	313.15	1093.9	1
2000	323.15	1086.4	0.9
2000	333.15	1079.3	0.9
2000	343.15	1072.5	0.9
2000	353.15	1065.8	0.9
2000	363.15	1059.8	0.9
2000	373.15	1053.7	0.9
2000	383.15	1047.9	0.8
2000	393.15	1042.1	0.8
3000	293.15	1110	1
3000	303.15	1102.1	1
3000	313.15	1094.4	1
3000	323.15	1087	1
3000	333.15	1079.8	0.9
3000	343.15	1073.1	0.9
3000	353.15	1066.4	0.9
3000	363.15	1060.4	0.9
3000	373.15	1054.3	0.9
3000	383.15	1048.5	0.9
3000	393.15	1042.8	0.8
4000	293.15	1110.5	1.1
4000	303.15	1102.6	1
4000	313.15	1094.9	1
4000	323.15	1087.5	1
4000	333.15	1080.3	1
4000	343.15	1073.7	0.9
4000	353.15	1067	0.9
4000	363.15	1061	0.9
4000	373.15	1054.9	0.9
4000	383.15	1049.2	0.9
4000	393.15	1043.4	0.9
5000	293.15	1110.9	1.1
5000	303.15	1103.1	1.1
5000	313.15	1095.4	1
5000	323.15	1088	1
5000	333.15	1080.9	1
5000	343.15	1074.2	1
5000	353.15	1067.6	0.9
5000	363.15	1061.6	0.9
5000	373.15	1055.5	0.9
5000	383.15	1049.8	0.9
5000	393.15	1044.1	0.9
10000	293.15	1113.1	1.2
10000	303.15	1105.4	1.2
10000	313.15	1097.9	1.2
10000	323.15	1090.6	1.1
10000	333.15	1083.5	1.1
10000	343.15	1076.9	1.1
10000	353.15	1070.3	1
10000	363.15	1064.4	1
10000	373.15	1058.5	1
10000	383.15	1052.9	0.9
10000	393.15	1047.2	0.9

System: 1-hexyl-3-methylimidazolium hexafluorophosphate; phases: Liquid
Property: Mass density, kg/m3 (Liquid); method: VIBTUB:UFactor:12
Pressure, kPa	Temperature, K	Mass density, kg/m3	uncertainty
100	293.15	1299.8	3.1
100	303.15	1290.6	3.1
100	313.15	1281.5	3
100	323.15	1272.7	3
100	333.15	1264.2	2.9
100	343.15	1256.1	2.8
100	353.15	1248	2.8
100	363.15	1240.6	2.7
100	373.15	1233.4	2.7
100	383.15	1226.4	2.7
100	393.15	1219.4	2.6
1000	293.15	1300.3	3.3
1000	303.15	1291.1	3.2
1000	313.15	1282	3.1
1000	323.15	1273.2	3.1
1000	333.15	1264.8	3
1000	343.15	1256.7	3
1000	353.15	1248.6	2.9
1000	363.15	1241.2	2.9
1000	373.15	1234.1	2.8
1000	383.15	1227.2	2.8
1000	393.15	1220.1	2.7
2000	293.15	1300.8	3.4
2000	303.15	1291.7	3.3
2000	313.15	1282.6	3.3
2000	323.15	1273.9	3.2
2000	333.15	1265.4	3.1
2000	343.15	1257.3	3.1
2000	353.15	1249.2	3
2000	363.15	1242	3
2000	373.15	1234.9	2.9
2000	383.15	1227.9	2.9
2000	393.15	1220.9	2.8
3000	293.15	1301.4	3.6
3000	303.15	1292.2	3.5
3000	313.15	1283.1	3.4
3000	323.15	1274.5	3.3
3000	333.15	1266	3.3
3000	343.15	1258	3.2
3000	353.15	1249.9	3.1
3000	363.15	1242.6	3.1
3000	373.15	1235.6	3
3000	383.15	1228.7	3
3000	393.15	1221.7	2.9
4000	293.15	1301.9	3.7
4000	303.15	1292.7	3.6
4000	313.15	1283.7	3.5
4000	323.15	1275	3.5
4000	333.15	1266.6	3.4
4000	343.15	1258.6	3.3
4000	353.15	1250.5	3.3
4000	363.15	1243.3	3.2
4000	373.15	1236.3	3.2
4000	383.15	1229.4	3.1
4000	393.15	1222.5	3
5000	293.15	1302.4	3.8
5000	303.15	1293.2	3.8
5000	313.15	1284.3	3.7
5000	323.15	1275.6	3.6
5000	333.15	1267.3	3.5
5000	343.15	1259.2	3.5
5000	353.15	1251.2	3.4
5000	363.15	1244	3.3
5000	373.15	1237	3.3
5000	383.15	1230.1	3.2
5000	393.15	1223.3	3.2
10000	293.15	1304.9	4.6
10000	303.15	1295.8	4.5
10000	313.15	1287	4.4
10000	323.15	1278.5	4.3
10000	333.15	1270.3	4.2
10000	343.15	1262	4.1
10000	353.15	1254.2	4
10000	363.15	1247.2	3.9
10000	373.15	1240.3	3.9
10000	383.15	1233.6	3.8
10000	393.15	1227	3.7

System: 1-octyl-3-methylimidazolium hexafluorophosphate; phases: Liquid
Property: Mass density, kg/m3 (Liquid); method: VIBTUB:UFactor:12
Pressure, kPa	Temperature, K	Mass density, kg/m3	uncertainty
100	293.15	1242.4	2.8
100	303.15	1233.8	2.7
100	313.15	1225.3	2.6
100	323.15	1217.6	2.6
100	333.15	1209.1	2.5
100	343.15	1201	2.5
100	353.15	1193.6	2.4
100	363.15	1186.2	2.4
100	373.15	1179.2	2.3
100	383.15	1172.7	2.3
100	393.15	1166	2.3
1000	293.15	1242.9	2.9
1000	303.15	1234.4	2.8
1000	313.15	1225.9	2.7
1000	323.15	1218.2	2.7
1000	333.15	1209.7	2.6
1000	343.15	1201.6	2.6
1000	353.15	1194.3	2.5
1000	363.15	1186.9	2.5
1000	373.15	1179.9	2.4
1000	383.15	1173.5	2.4
1000	393.15	1166.8	2.3
2000	293.15	1243.5	3
2000	303.15	1235	2.9
2000	313.15	1226.5	2.8
2000	323.15	1218.8	2.8
2000	333.15	1210.3	2.7
2000	343.15	1202.3	2.7
2000	353.15	1195	2.6
2000	363.15	1187.6	2.6
2000	373.15	1180.6	2.5
2000	383.15	1174.2	2.5
2000	393.15	1167.5	2.4
3000	293.15	1244.1	3.1
3000	303.15	1235.6	3
3000	313.15	1227.1	3
3000	323.15	1219.4	2.9
3000	333.15	1211	2.8
3000	343.15	1203	2.8
3000	353.15	1195.7	2.7
3000	363.15	1188.3	2.7
3000	373.15	1181.3	2.6
3000	383.15	1174.9	2.6
3000	393.15	1168.3	2.5
4000	293.15	1244.6	3.2
4000	303.15	1236.1	3.1
4000	313.15	1227.7	3.1
4000	323.15	1220	3
4000	333.15	1211.6	2.9
4000	343.15	1203.6	2.9
4000	353.15	1196.3	2.8
4000	363.15	1189	2.7
4000	373.15	1182	2.7
4000	383.15	1175.6	2.6
4000	393.15	1169.1	2.6
5000	293.15	1245.1	3.3
5000	303.15	1236.7	3.3
5000	313.15	1228.3	3.2
5000	323.15	1220.6	3.1
5000	333.15	1212.2	3
5000	343.15	1204.3	3
5000	353.15	1197.1	2.9
5000	363.15	1189.7	2.8
5000	373.15	1182.7	2.8
5000	383.15	1176.3	2.7
5000	393.15	1169.8	2.7
10000	293.15	1247.8	3.9
10000	303.15	1239.5	3.8
10000	313.15	1231.1	3.7
10000	323.15	1223.4	3.7
10000	333.15	1215.1	3.6
10000	343.15	1207.4	3.5
10000	353.15	1200.3	3.4
10000	363.15	1193	3.3
10000	373.15	1186.1	3.2
10000	383.15	1179.8	3.2
10000	393.15	1173.5	3.1

System: 1-butyl-2,3-dimethylimidazolium hexafluorophosphate; phases: Liquid
Property: Mass density, kg/m3 (Liquid); method: VIBTUB:UFactor:12
Pressure, kPa	Temperature, K	Mass density, kg/m3	uncertainty
100	313.15	1339.6	3.4
100	323.15	1330.9	3.4
100	333.15	1321.9	3.3
100	343.15	1313.5	3.2
100	353.15	1305.4	3.2
100	363.15	1297.6	3.1
100	373.15	1290.6	3.1
100	383.15	1283.4	3
100	393.15	1276.1	3
1000	313.15	1340	3.6
1000	323.15	1331.4	3.5
1000	333.15	1322.4	3.4
1000	343.15	1314.1	3.4
1000	353.15	1306	3.3
1000	363.15	1298.2	3.3
1000	373.15	1291.2	3.2
1000	383.15	1284	3.2
1000	393.15	1276.8	3.1
2000	313.15	1340.7	3.7
2000	323.15	1331.9	3.7
2000	333.15	1323	3.6
2000	343.15	1314.6	3.5
2000	353.15	1306.6	3.5
2000	363.15	1298.8	3.4
2000	373.15	1291.9	3.4
2000	383.15	1284.7	3.3
2000	393.15	1277.4	3.3
3000	313.15	1341.2	3.9
3000	323.15	1332.5	3.8
3000	333.15	1323.5	3.7
3000	343.15	1315.2	3.7
3000	353.15	1307.2	3.6
3000	363.15	1299.4	3.5
3000	373.15	1292.5	3.5
3000	383.15	1285.3	3.4
3000	393.15	1278.1	3.4
4000	313.15	1341.6	4
4000	323.15	1333.1	4
4000	333.15	1324.1	3.9
4000	343.15	1315.8	3.8
4000	353.15	1307.8	3.8
4000	363.15	1300.1	3.7
4000	373.15	1293.2	3.6
4000	383.15	1286	3.6
4000	393.15	1278.8	3.5
5000	313.15	1342.1	4.2
5000	323.15	1333.6	4.1
5000	333.15	1324.6	4.1
5000	343.15	1316.3	4
5000	353.15	1308.3	3.9
5000	363.15	1300.7	3.8
5000	373.15	1293.8	3.8
5000	383.15	1286.6	3.7
5000	393.15	1279.4	3.7
10000	313.15	1344.6	5
10000	323.15	1336.2	4.9
10000	333.15	1327.2	4.8
10000	343.15	1319.1	4.7
10000	353.15	1311.1	4.7
10000	363.15	1303.6	4.6
10000	373.15	1296.7	4.5
10000	383.15	1289.7	4.4
10000	393.15	1282.6	4.3

System: 1-butyl-3-methylimidazolium trifluoromethanesulfonate; phases: Liquid
Property: Mass density, kg/m3 (Liquid); method: VIBTUB:UFactor:8
Pressure, kPa	Temperature, K	Mass density, kg/m3	uncertainty
100	293.15	1306.1	1.5
100	303.15	1296.6	1.5
100	313.15	1287.6	1.5
100	323.15	1278.7	1.4
100	333.15	1270.5	1.4
100	343.15	1262.5	1.4
100	353.15	1254	1.4
100	363.15	1246.8	1.4
100	373.15	1239.6	1.3
100	383.15	1232.4	1.3
100	393.15	1225.3	1.3
1000	293.15	1306.6	1.6
1000	303.15	1297.1	1.6
1000	313.15	1288.1	1.6
1000	323.15	1279.3	1.5
1000	333.15	1271.1	1.5
1000	343.15	1263.1	1.5
1000	353.15	1254.7	1.4
1000	363.15	1247.5	1.4
1000	373.15	1240.3	1.4
1000	383.15	1233.1	1.4
1000	393.15	1226.1	1.4
2000	293.15	1307.1	1.7
2000	303.15	1297.7	1.7
2000	313.15	1288.7	1.7
2000	323.15	1280	1.6
2000	333.15	1271.7	1.6
2000	343.15	1263.8	1.5
2000	353.15	1255.3	1.5
2000	363.15	1248.3	1.5
2000	373.15	1241.1	1.5
2000	383.15	1233.9	1.4
2000	393.15	1226.8	1.4
3000	293.15	1307.7	1.8
3000	303.15	1298.3	1.8
3000	313.15	1289.3	1.7
3000	323.15	1280.7	1.7
3000	333.15	1272.4	1.7
3000	343.15	1264.5	1.6
3000	353.15	1256	1.6
3000	363.15	1249	1.6
3000	373.15	1241.8	1.5
3000	383.15	1234.6	1.5
3000	393.15	1227.6	1.5
4000	293.15	1308.2	1.9
4000	303.15	1298.9	1.9
4000	313.15	1289.9	1.8
4000	323.15	1281.3	1.8
4000	333.15	1273.1	1.8
4000	343.15	1265.2	1.7
4000	353.15	1256.7	1.7
4000	363.15	1249.7	1.6
4000	373.15	1242.5	1.6
4000	383.15	1235.4	1.6
4000	393.15	1228.4	1.6
5000	293.15	1308.8	2
5000	303.15	1299.5	2
5000	313.15	1290.5	1.9
5000	323.15	1282	1.9
5000	333.15	1273.8	1.8
5000	343.15	1265.8	1.8
5000	353.15	1257.4	1.8
5000	363.15	1250.4	1.7
5000	373.15	1243.2	1.7
5000	383.15	1236.1	1.7
5000	393.15	1229.1	1.6
10000	293.15	1311.5	2.5
10000	303.15	1302.3	2.5
10000	313.15	1293.3	2.4
10000	323.15	1285	2.3
10000	333.15	1276.9	2.3
10000	343.15	1269.1	2.2
10000	353.15	1260.7	2.2
10000	363.15	1253.8	2.1
10000	373.15	1246.6	2.1
10000	383.15	1239.7	2
10000	393.15	1232.7	2

System: water + 1-octyl-3-methylimidazolium hexafluorophosphate; phases: Liquid mixture 1, Liquid
Property: Mass fraction of water (Liquid mixture 1); method: Karl Fischer titration
Temperature, K	Pressure, kPa	Mass fraction of water	uncertainty
293.15	101	0.011905	0.000196

System: water + 1-octyl-3-methylimidazolium hexafluorophosphate; phases: Liquid mixture 1, Liquid
Property: Mass density, kg/m3 (Liquid mixture 1); method: VIBTUB:UFactor:12
Temperature, K	Pressure, kPa	Mass density, kg/m3	uncertainty
293.15	100	1237.2	5.4
293.15	1000	1237.7	5.5
293.15	2000	1238.3	5.6
293.15	3000	1238.8	5.7
293.15	4000	1239.3	5.8
293.15	5000	1239.8	6
293.15	10000	1242.4	6.6
303.15	100	1228.1	5.3
303.15	1000	1228.7	5.4
303.15	2000	1229.2	5.5
303.15	3000	1229.8	5.6
303.15	4000	1230.4	5.7
303.15	5000	1231	5.8
303.15	10000	1233.7	6.4
313.15	100	1219.9	5.2
313.15	1000	1220.5	5.3
313.15	2000	1221.1	5.4
313.15	3000	1221.7	5.5
313.15	4000	1222.2	5.6
313.15	5000	1222.8	5.7
313.15	10000	1225.7	6.3
323.15	100	1211	5.1
323.15	1000	1211.5	5.2
323.15	2000	1212.1	5.3
323.15	3000	1212.7	5.4
323.15	4000	1213.3	5.5
323.15	5000	1213.9	5.6
323.15	10000	1216.8	6.2
333.15	100	1202.6	5
333.15	1000	1203.1	5.1
333.15	2000	1203.8	5.2
333.15	3000	1204.4	5.3
333.15	4000	1205	5.4
333.15	5000	1205.6	5.5
333.15	10000	1208.7	6
343.15	100	1194.6	4.9
343.15	1000	1195.2	5
343.15	2000	1195.9	5.1
343.15	3000	1196.6	5.2
343.15	4000	1197.2	5.3
343.15	5000	1197.9	5.4
343.15	10000	1201	5.9
353.15	100	1186.9	4.8
353.15	1000	1187.5	4.9
353.15	2000	1188.2	5
353.15	3000	1188.9	5.1
353.15	4000	1189.6	5.2
353.15	5000	1190.3	5.3
353.15	10000	1193.6	5.8
363.15	100	1179.3	4.8
363.15	1000	1180	4.8
363.15	2000	1180.7	4.9
363.15	3000	1181.4	5
363.15	4000	1182.1	5.1
363.15	5000	1182.8	5.2
363.15	10000	1186.2	5.7
373.15	100	1172.6	4.7
373.15	1000	1173.3	4.8
373.15	2000	1174	4.9
373.15	3000	1174.7	5
373.15	4000	1175.4	5
373.15	5000	1176	5.1
373.15	10000	1179.5	5.6
383.15	100	1165.4	4.6
383.15	1000	1166.1	4.7
383.15	2000	1166.8	4.8
383.15	3000	1167.5	4.9
383.15	4000	1168.2	5
383.15	5000	1169	5
383.15	10000	1172.4	5.5
