Measured thermophysical data. Surface Tension of Dimethoxymethane and Methyl tert-Butyl Ether
Source: J. Chem. Eng. Data, 2006, 10.1021/je060097q
Compound 1: dimethoxymethane, C3H8O2, InChI=1S/C3H8O2/c1-4-3-5-2/h3H2,1-2H3
Compound 2: 2-methoxy-2-methylpropane, C5H12O, InChI=1S/C5H12O/c1-5(2,3)6-4/h1-4H3

System: dimethoxymethane; phases: Liquid, Gas
Property: Surface tension liquid-gas, N/m (Liquid); method: Capillary rise
Temperature, K	Surface tension liquid-gas, N/m	uncertainty
238.067	0.028116	0.000405
243.119	0.027417	0.000405
248.13	0.026762	0.000405
253.118	0.026211	0.000405
258.115	0.025631	0.000405
263.083	0.024832	0.000405
268.087	0.024231	0.000405
273.086	0.023635	0.000405
278.08	0.023106	0.000405
283.073	0.022394	0.000404
288.079	0.02175	0.000404
293.051	0.021021	0.000404
298.04	0.020358	0.000404
303.163	0.019697	0.000404
308.15	0.018987	0.000404
313.162	0.018401	0.000404
318.164	0.017674	0.000404
323.155	0.017157	0.000404
328.134	0.016558	0.000404
333.159	0.015878	0.000403
338.159	0.015318	0.000403
343.15	0.014651	0.000403
348.137	0.014019	0.000403
353.151	0.013338	0.000403
358.152	0.012827	0.000403
363.151	0.012266	0.000403
368.155	0.01158	0.000403
373.146	0.011007	0.000403
378.148	0.010363	0.000403
383.134	0.009778	0.000403
388.145	0.009175	0.000403

System: 2-methoxy-2-methylpropane; phases: Liquid, Gas
Property: Surface tension liquid-gas, N/m (Liquid); method: Capillary rise
Temperature, K	Surface tension liquid-gas, N/m	uncertainty
243.077	0.024076	0.000406
248.01	0.023425	0.000406
253.106	0.022842	0.000406
258.129	0.022321	0.000406
263.103	0.02165	0.000406
268.129	0.020971	0.000405
273.163	0.020516	0.000405
278.108	0.01999	0.000405
283.12	0.019348	0.000405
288.132	0.018956	0.000405
293.072	0.018526	0.000405
298.079	0.017749	0.000405
303.106	0.017229	0.000404
308.147	0.016712	0.000404
313.16	0.016252	0.000404
318.106	0.015612	0.000404
323.159	0.015086	0.000404
328.136	0.014517	0.000404
333.155	0.014021	0.000404
338.158	0.013558	0.000404
343.135	0.01306	0.000403
348.135	0.012498	0.000403
353.13	0.011942	0.000403
358.151	0.011551	0.000403
363.127	0.01092	0.000403
368.127	0.010528	0.000403
373.124	0.009946	0.000403
378.125	0.009534	0.000403
383.116	0.008956	0.000403
388.139	0.008518	0.000403
393.129	0.008006	0.000403
