Measured thermophysical data. Density and Viscosity of Aqueous Solutions of (N-Methyldiethanolamine + Piperazine) and (2-Amino-2-methyl-1-propanol + Piperazine) from (288 to 333) K
Source: J. Chem. Eng. Data, 2006, 10.1021/je060195b
Compound 1: N-methyldiethanolamine, C5H13NO2, InChI=1S/C5H13NO2/c1-6(2-4-7)3-5-8/h7-8H,2-5H2,1H3
Compound 2: 2-amino-2-methylpropan-1-ol, C4H11NO, InChI=1S/C4H11NO/c1-4(2,5)3-6/h6H,3,5H2,1-2H3
Compound 3: piperazine, C4H10N2, InChI=1S/C4H10N2/c1-2-6-4-3-5-1/h5-6H,1-4H2
Compound 4: water, H2O, InChI=1S/H2O/h1H2

System: N-methyldiethanolamine; phases: Liquid
Fixed: Pressure, kPa = 101
Property: Viscosity, Pa*s (Liquid); method: CAPTUB:UFactor:16
Temperature, K	Viscosity, Pa*s	uncertainty
288	0.142	0.0405
313	0.03473	0.00241
333	0.01466	0.00107

System: N-methyldiethanolamine; phases: Liquid
Fixed: Pressure, kPa = 101
Property: Mass density, kg/m3 (Liquid); method: PYCNOM:UFactor:4
Temperature, K	Mass density, kg/m3	uncertainty
288	1044.1	2.1
313	1027.2	2.1
333	1012.6	2.2

System: N-methyldiethanolamine + water; phases: Liquid
Fixed: Pressure, kPa = 101
Property: Viscosity, Pa*s (Liquid); method: CAPTUB:UFactor:16
Temperature, K	Mass fraction of N-methyldiethanolamine	Viscosity, Pa*s	uncertainty
288	0.1	0.001703	0.000159
288	0.2	0.002624	0.000238
288	0.3	0.004399	0.000387
288	1	0.142	0.0405
313	0.1	0.000899	9e-05
313	0.2	0.001305	0.000125
313	0.3	0.001929	0.000179
313	1	0.03473	0.00241
333	0.1	0.00063	6.7e-05
333	0.2	0.00086	8.7e-05
333	0.3	0.001218	0.000118
333	1	0.01466	0.00107

System: N-methyldiethanolamine + water; phases: Liquid
Fixed: Pressure, kPa = 101
Property: Mass density, kg/m3 (Liquid); method: PYCNOM:UFactor:4
Temperature, K	Mass fraction of N-methyldiethanolamine	Mass density, kg/m3	uncertainty
288	0.1	1007.9	1.5
288	0.2	1016.7	1.5
288	0.3	1030.7	1.6
288	1	1044.1	2.1
313	0.1	1000.4	1.5
313	0.2	1008.6	1.6
313	0.3	1019.3	1.6
313	1	1027.2	2.1
333	0.1	990.2	1.6
333	0.2	999.5	1.7
333	0.3	1007.1	1.7
333	1	1012.6	2.2

System: N-methyldiethanolamine + piperazine + water; phases: Liquid
Fixed: Pressure, kPa = 101
Property: Viscosity, Pa*s (Liquid); method: CAPTUB:UFactor:16
Temperature, K	Mass fraction of piperazine	Mass fraction of N-methyldiethanolamine	Viscosity, Pa*s	uncertainty
288	0.03	0.27	0.004007	0.000354
288	0.06	0.24	0.004961	0.000433
288	0.09	0.21	0.005699	0.00048
288	0.12	0.18	0.00624	0.000514
293	0.03	0.27	0.00357	0.000317
293	0.06	0.24	0.00427	0.000376
293	0.09	0.21	0.004814	0.000421
293	0.12	0.18	0.005328	0.000457
298	0.03	0.27	0.003245	0.00029
298	0.06	0.24	0.003584	0.000319
298	0.09	0.21	0.004116	0.000363
298	0.12	0.18	0.004402	0.000387
303	0.03	0.27	0.00286	0.000258
303	0.06	0.24	0.003099	0.000278
303	0.09	0.21	0.003452	0.000308
303	0.12	0.18	0.003826	0.000339
308	0.03	0.27	0.002413	0.00022
308	0.06	0.24	0.002683	0.000243
308	0.09	0.21	0.002965	0.000267
308	0.12	0.18	0.003246	0.00029
313	0.03	0.27	0.002104	0.000194
313	0.06	0.24	0.002285	0.000209
313	0.09	0.21	0.00252	0.000229
313	0.12	0.18	0.00277	0.00025
318	0.03	0.27	0.001737	0.000163
318	0.06	0.24	0.002015	0.000186
318	0.09	0.21	0.002264	0.000207
318	0.12	0.18	0.002455	0.000223
323	0.03	0.27	0.001493	0.000142
323	0.06	0.24	0.001771	0.000165
323	0.09	0.21	0.001899	0.000176
323	0.12	0.18	0.002116	0.000195
328	0.03	0.27	0.001236	0.00012
328	0.06	0.24	0.001512	0.000143
328	0.09	0.21	0.00161	0.000152
328	0.12	0.18	0.001814	0.000169
333	0.03	0.27	0.000871	8.9e-05
333	0.06	0.24	0.001257	0.000122
333	0.09	0.21	0.001389	0.000133
333	0.12	0.18	0.001481	0.000141

System: N-methyldiethanolamine + piperazine + water; phases: Liquid
Fixed: Pressure, kPa = 101
Property: Mass density, kg/m3 (Liquid); method: PYCNOM:UFactor:4
Temperature, K	Mass fraction of piperazine	Mass fraction of N-methyldiethanolamine	Mass density, kg/m3	uncertainty
288	0.03	0.27	1026.2	1.6
288	0.06	0.24	1026.7	1.5
288	0.09	0.21	1027.1	1.5
288	0.12	0.18	1028.1	1.5
293	0.03	0.27	1023.9	1.5
293	0.06	0.24	1024.5	1.5
293	0.09	0.21	1025.3	1.5
293	0.12	0.18	1026.4	1.5
298	0.03	0.27	1021.8	1.6
298	0.06	0.24	1022.5	1.5
298	0.09	0.21	1022.9	1.5
298	0.12	0.18	1023.9	1.5
303	0.03	0.27	1019.7	1.6
303	0.06	0.24	1020	1.6
303	0.09	0.21	1020.3	1.5
303	0.12	0.18	1021.6	1.5
308	0.03	0.27	1017.3	1.6
308	0.06	0.24	1017.7	1.6
308	0.09	0.21	1017.9	1.6
308	0.12	0.18	1018.5	1.6
313	0.03	0.27	1015	1.6
313	0.06	0.24	1015.2	1.6
313	0.09	0.21	1015.4	1.6
313	0.12	0.18	1016	1.6
318	0.03	0.27	1012.3	1.7
318	0.06	0.24	1012.6	1.6
318	0.09	0.21	1012.8	1.6
318	0.12	0.18	1013.1	1.6
323	0.03	0.27	1009.5	1.7
323	0.06	0.24	1009.8	1.7
323	0.09	0.21	1010	1.7
323	0.12	0.18	1010.3	1.6
328	0.03	0.27	1006.4	1.7
328	0.06	0.24	1006.6	1.7
328	0.09	0.21	1006.8	1.7
328	0.12	0.18	1007.2	1.7
333	0.03	0.27	1003.2	1.7
333	0.06	0.24	1003.5	1.7
333	0.09	0.21	1003.8	1.7
333	0.12	0.18	1004	1.7

System: piperazine + 2-amino-2-methylpropan-1-ol + water; phases: Liquid
Fixed: Pressure, kPa = 101
Property: Viscosity, Pa*s (Liquid); method: CAPTUB:UFactor:16
Temperature, K	Mass fraction of piperazine	Mass fraction of 2-amino-2-methylpropan-1-ol	Viscosity, Pa*s	uncertainty
288	0.03	0.27	0.005398	0.000461
288	0.06	0.24	0.005477	0.000466
288	0.09	0.21	0.005645	0.000477
288	0.12	0.18	0.005871	0.000491
293	0.03	0.27	0.004499	0.000395
293	0.06	0.24	0.004674	0.000409
293	0.09	0.21	0.004665	0.000409
293	0.12	0.18	0.004823	0.000422
298	0.03	0.27	0.003752	0.000333
298	0.06	0.24	0.003892	0.000345
298	0.09	0.21	0.004065	0.000359
298	0.12	0.18	0.004105	0.000362
303	0.03	0.27	0.003042	0.000273
303	0.06	0.24	0.003182	0.000285
303	0.09	0.21	0.003327	0.000297
303	0.12	0.18	0.003409	0.000304
308	0.03	0.27	0.002557	0.000232
308	0.06	0.24	0.002626	0.000238
308	0.09	0.21	0.002749	0.000248
308	0.12	0.18	0.002817	0.000254
313	0.03	0.27	0.002088	0.000192
313	0.06	0.24	0.002227	0.000204
313	0.09	0.21	0.002344	0.000214
313	0.12	0.18	0.002444	0.000222
318	0.03	0.27	0.001776	0.000166
318	0.06	0.24	0.001886	0.000175
318	0.09	0.21	0.002077	0.000191
318	0.12	0.18	0.002166	0.000199
323	0.03	0.27	0.001497	0.000142
323	0.06	0.24	0.001596	0.00015
323	0.09	0.21	0.001762	0.000164
323	0.12	0.18	0.001957	0.000181
328	0.03	0.27	0.001296	0.000125
328	0.06	0.24	0.001342	0.000129
328	0.09	0.21	0.001541	0.000145
328	0.12	0.18	0.001753	0.000163
333	0.03	0.27	0.001117	0.000109
333	0.06	0.24	0.001147	0.000112
333	0.09	0.21	0.001343	0.000128
333	0.12	0.18	0.001562	0.000147

System: piperazine + 2-amino-2-methylpropan-1-ol + water; phases: Liquid
Fixed: Pressure, kPa = 101
Property: Mass density, kg/m3 (Liquid); method: PYCNOM:UFactor:4
Temperature, K	Mass fraction of piperazine	Mass fraction of 2-amino-2-methylpropan-1-ol	Mass density, kg/m3	uncertainty
288	0.03	0.27	1003.4	1.5
288	0.06	0.24	1005.4	1.5
288	0.09	0.21	1007.6	1.5
288	0.12	0.18	1009.2	1.5
293	0.03	0.27	1000.9	1.4
293	0.06	0.24	1003.7	1.4
293	0.09	0.21	1005.5	1.4
293	0.12	0.18	1007.5	1.4
298	0.03	0.27	999	1.5
298	0.06	0.24	1001.6	1.5
298	0.09	0.21	1003.9	1.5
298	0.12	0.18	1004.9	1.5
303	0.03	0.27	996.3	1.5
303	0.06	0.24	998.9	1.5
303	0.09	0.21	1001.2	1.5
303	0.12	0.18	1002.5	1.5
308	0.03	0.27	993.2	1.5
308	0.06	0.24	995.9	1.5
308	0.09	0.21	998.3	1.5
308	0.12	0.18	999.9	1.5
313	0.03	0.27	990.9	1.5
313	0.06	0.24	993	1.5
313	0.09	0.21	995.7	1.5
313	0.12	0.18	997	1.5
318	0.03	0.27	987.2	1.6
318	0.06	0.24	990	1.6
318	0.09	0.21	992.8	1.6
318	0.12	0.18	994.1	1.6
323	0.03	0.27	984	1.6
323	0.06	0.24	986.9	1.6
323	0.09	0.21	989.3	1.6
323	0.12	0.18	990.8	1.6
328	0.03	0.27	980.9	1.6
328	0.06	0.24	983.2	1.6
328	0.09	0.21	986.1	1.6
328	0.12	0.18	987.3	1.6
333	0.03	0.27	978	1.6
333	0.06	0.24	980.4	1.6
333	0.09	0.21	982.8	1.6
333	0.12	0.18	984.3	1.6
