Measured thermophysical data. High-Pressure Phase Equilibria of the Ternary System Oleic Acid + Squalene + Carbon Dioxide
Source: J. Chem. Eng. Data, 2007, 10.1021/je060459u
Compound 1: carbon dioxide, CO2, InChI=1S/CO2/c2-1-3
Compound 2: 2,6,10,14,18,22-tetracosahexaene, 2,6,10,15,19,23-hexamethyl-, (all-E)-, C30H50, InChI=1S/C30H50/c1-25(2)15-11-19-29(7)23-13-21-27(5)17-9-10-18-28(6)22-14-24-30(8)20-12-16-26(3)4/h15-18,23-24H,9-14,19-22H2,1-8H3/b27-17+,28-18+,29-23+,30-24+, purity 98%
Compound 3: (Z)-9-octadecenoic acid, C18H34O2, InChI=1S/C18H34O2/c1-2-3-4-5-6-7-8-9-10-11-12-13-14-15-16-17-18(19)20/h9-10H,2-8,11-17H2,1H3,(H,19,20)/b10-9-, purity 79.9%

System: 2,6,10,14,18,22-tetracosahexaene, 2,6,10,15,19,23-hexamethyl-, (all-E)- + (Z)-9-octadecenoic acid + carbon dioxide; phases: Liquid, Gas
Property: Mole fraction of 2,6,10,14,18,22-tetracosahexaene, 2,6,10,15,19,23-hexamethyl-, (all-E)- (Liquid); method: Chromatography
Property: Mole fraction of 2,6,10,14,18,22-tetracosahexaene, 2,6,10,15,19,23-hexamethyl-, (all-E)- (Gas); method: Chromatography
Property: Mole fraction of (Z)-9-octadecenoic acid (Gas); method: Chromatography
Temperature, K	Pressure, kPa	Mole fraction of (Z)-9-octadecenoic acid	Mole fraction of 2,6,10,14,18,22-tetracosahexaene, 2,6,10,15,19,23-hexamethyl-, (all-E)-	uncertainty	Mole fraction of 2,6,10,14,18,22-tetracosahexaene, 2,6,10,15,19,23-hexamethyl-, (all-E)-	uncertainty	Mole fraction of (Z)-9-octadecenoic acid	uncertainty
313.2	14000	0.5465	0.1202	0.005	0.003	0.0001	0.0064	
313.2	18000	0.4876	0.1614	0.0068	0.0059	0.0002	0.0105	
313.2	22000	0.4751	0.1696	0.0072	0.0057	0.0002	0.017	
313.2	14000	0.3154	0.3774	0.0169	0.0061	0.0003	0.004	
313.2	22000	0.2884	0.3241	0.014	0.0146	0.0006	0.011	
313.2	14000	0.2705	0.4342	0.0195	0.0081	0.0003	0.0032	
313.2	18000	0.2223	0.4556	0.0201	0.0147	0.0006	0.0048	
313.2	22000	0.2806	0.3665	0.0161	0.0151	0.0006	0.0101	
323.2	14000	0.3671	0.3313	0.0148	0.004	0.0002	0.0014	
323.2	18000	0.3877	0.2858	0.0126	0.0081	0.0003	0.0061	
323.2	22000	0.3547	0.2827	0.0123	0.0082	0.0003	0.0125	
333.2	14000	0.3906	0.3927	0.0185	0.0024	0.0001	0.0009	
333.2	18000	0.4108	0.3241	0.0147	0.0063	0.0003	0.0045	
333.2	22000	0.3343	0.341	0.0151	0.0104	0.0004	0.0072	
333.2	22000	0.5713	0.1105	0.0046	0.0047	0.0002	0.0134	
333.2	14000	0.5878	0.1186	0.005	0.0007	0.0001	0.0014	
333.2	18000	0.5759	0.117	0.0049	0.0029	0.0001	0.0066	
333.2	14000	0.3449	0.3908	0.0179	0.0031	0.0001	0.0013	
333.2	18000	0.3192	0.375	0.0168	0.0072	0.0003	0.0039	
333.2	22000	0.3101	0.3505	0.0155	0.013	0.0005	0.0082	
