Measured thermophysical data. Limiting Separation Factors and Limiting Activity Coefficients for Hexanal, 2-Methylbutanal, 3-Methylbutanal, and Dimethylsulfide in Water at (98.1 to 99.0) deg C
Source: J. Chem. Eng. Data, 2007, 10.1021/je060324o
Compound 1: hexanal, C6H12O, InChI=1S/C6H12O/c1-2-3-4-5-6-7/h6H,2-5H2,1H3
Compound 2: 2-methylbutanal, C5H10O, InChI=1S/C5H10O/c1-3-5(2)4-6/h4-5H,3H2,1-2H3
Compound 3: 3-methylbutanal, C5H10O, InChI=1S/C5H10O/c1-5(2)3-4-6/h4-5H,3H2,1-2H3
Compound 4: 2-thiapropane, C2H6S, InChI=1S/C2H6S/c1-3-2/h1-2H3
Compound 5: water, H2O, InChI=1S/H2O/h1H2, purity 99%

System: hexanal + water; phases: Gas, Liquid
Fixed: Temperature, K = 371.7
Property: Mole fraction of hexanal (Gas); method: Chromatography
Mole fraction of hexanal	Mole fraction of hexanal	uncertainty
5.58e-07	2.7e-05	6e-07
6.66e-07	3.51e-05	8e-07
6.66e-07	2.88e-05	6e-07
8.1e-07	3.96e-05	9e-07

System: 2-methylbutanal + water; phases: Gas, Liquid
Fixed: Temperature, K = 371.7
Property: Mole fraction of 2-methylbutanal (Gas); method: Chromatography
Mole fraction of 2-methylbutanal	Mole fraction of 2-methylbutanal	uncertainty
1.15e-07	7.48e-06	1.6e-07
3.77e-07	2.36e-05	5e-07
4.18e-07	2.43e-05	5e-07
4.77e-07	2.11e-05	5e-07
6.28e-07	3.66e-05	8e-07
8.37e-07	4.76e-05	1e-06
9.2e-07	5.3e-05	1.2e-06

System: 3-methylbutanal + water; phases: Gas, Liquid
Fixed: Temperature, K = 371.7
Property: Mole fraction of 3-methylbutanal (Gas); method: Chromatography
Mole fraction of 3-methylbutanal	Mole fraction of 3-methylbutanal	uncertainty
2.34e-06	0.000112	2e-06
2.62e-06	0.000158	3e-06
2.77e-06	0.000161	4e-06
2.77e-06	0.000157	3e-06
2.77e-06	0.000151	3e-06

System: 2-thiapropane + water; phases: Gas, Liquid
Fixed: Temperature, K = 371.7
Property: Mole fraction of 2-thiapropane (Gas); method: Chromatography
Mole fraction of 2-thiapropane	Mole fraction of 2-thiapropane	uncertainty
1.18e-07	9.46e-06	2.1e-07
1.21e-07	8.45e-06	1.8e-07
1.24e-07	1.01e-05	2e-07
1.29e-07	9.22e-06	2e-07
1.45e-07	1.09e-05	2e-07
