Measured thermophysical data. Experimental Study of Thermodynamic Properties of Mixtures Containing Ionic Liquid 1-Ethyl-3-methylimidazolium Ethyl Sulfate Using Gas-Liquid Chromatography and Transpiration Method
Source: J. Chem. Eng. Data, 2006, 10.1021/je0602723
Compound 1: 1-ethyl-3-methylimidazolium ethyl sulfate, C8H16N2O4S, InChI=1S/C6H11N2.C2H6O4S/c1-3-8-5-4-7(2)6-8;1-2-6-7(3,4)5/h4-6H,3H2,1-2H3;2H2,1H3,(H,3,4,5)/q+1;/p-1
Compound 2: water, H2O, InChI=1S/H2O/h1H2, purity 99.9%
Compound 3: methanol, CH4O, InChI=1S/CH4O/c1-2/h2H,1H3
Compound 4: ethanol, C2H6O, InChI=1S/C2H6O/c1-2-3/h3H,2H2,1H3
Compound 5: propan-1-ol, C3H8O, InChI=1S/C3H8O/c1-2-3-4/h4H,2-3H2,1H3
Compound 6: butan-1-ol, C4H10O, InChI=1S/C4H10O/c1-2-3-4-5/h5H,2-4H2,1H3
Compound 7: pentan-1-ol, C5H12O, InChI=1S/C5H12O/c1-2-3-4-5-6/h6H,2-5H2,1H3
Compound 8: hexan-1-ol, C6H14O, InChI=1S/C6H14O/c1-2-3-4-5-6-7/h7H,2-6H2,1H3
Compound 9: propan-2-ol, C3H8O, InChI=1S/C3H8O/c1-3(2)4/h3-4H,1-2H3
Compound 10: 2-methyl-1-propanol, C4H10O, InChI=1S/C4H10O/c1-4(2)3-5/h4-5H,3H2,1-2H3
Compound 11: butan-2-ol, C4H10O, InChI=1S/C4H10O/c1-3-4(2)5/h4-5H,3H2,1-2H3
Compound 12: 2-methylpropan-2-ol, C4H10O, InChI=1S/C4H10O/c1-4(2,3)5/h5H,1-3H3
Compound 13: 2-methylbutan-2-ol, C5H12O, InChI=1S/C5H12O/c1-4-5(2,3)6/h6H,4H2,1-3H3
Compound 14: benzene, C6H6, InChI=1S/C6H6/c1-2-4-6-5-3-1/h1-6H
Compound 15: toluene, C7H8, InChI=1S/C7H8/c1-7-5-3-2-4-6-7/h2-6H,1H3
Compound 16: ethylbenzene, C8H10, InChI=1S/C8H10/c1-2-8-6-4-3-5-7-8/h3-7H,2H2,1H3
Compound 17: propylbenzene, C9H12, InChI=1S/C9H12/c1-2-6-9-7-4-3-5-8-9/h3-5,7-8H,2,6H2,1H3
Compound 18: butylbenzene, C10H14, InChI=1S/C10H14/c1-2-3-7-10-8-5-4-6-9-10/h4-6,8-9H,2-3,7H2,1H3
Compound 19: pentylbenzene, C11H16, InChI=1S/C11H16/c1-2-3-5-8-11-9-6-4-7-10-11/h4,6-7,9-10H,2-3,5,8H2,1H3
Compound 20: propanal, C3H6O, InChI=1S/C3H6O/c1-2-3-4/h3H,2H2,1H3
Compound 21: butanal, C4H8O, InChI=1S/C4H8O/c1-2-3-4-5/h4H,2-3H2,1H3
Compound 22: pentanal, C5H10O, InChI=1S/C5H10O/c1-2-3-4-5-6/h5H,2-4H2,1H3
Compound 23: hexanal, C6H12O, InChI=1S/C6H12O/c1-2-3-4-5-6-7/h6H,2-5H2,1H3
Compound 24: heptanal, C7H14O, InChI=1S/C7H14O/c1-2-3-4-5-6-7-8/h7H,2-6H2,1H3
Compound 25: octanal, C8H16O, InChI=1S/C8H16O/c1-2-3-4-5-6-7-8-9/h8H,2-7H2,1H3
Compound 26: methyl propanoate, C4H8O2, InChI=1S/C4H8O2/c1-3-4(5)6-2/h3H2,1-2H3
Compound 27: methyl butanoate, C5H10O2, InChI=1S/C5H10O2/c1-3-4-5(6)7-2/h3-4H2,1-2H3
Compound 28: methyl pentanoate, C6H12O2, InChI=1S/C6H12O2/c1-3-4-5-6(7)8-2/h3-5H2,1-2H3
Compound 29: methyl hexanoate, C7H14O2, InChI=1S/C7H14O2/c1-3-4-5-6-7(8)9-2/h3-6H2,1-2H3
Compound 30: methyl heptanoate, C8H16O2, InChI=1S/C8H16O2/c1-3-4-5-6-7-8(9)10-2/h3-7H2,1-2H3
Compound 31: acetone, C3H6O, InChI=1S/C3H6O/c1-3(2)4/h1-2H3
Compound 32: acetonitrile, C2H3N, InChI=1S/C2H3N/c1-2-3/h1H3
Compound 33: 1,4-dioxane, C4H8O2, InChI=1S/C4H8O2/c1-2-6-4-3-5-1/h1-4H2
Compound 34: 1-aza-2-cycloheptanone, C6H11NO, InChI=1S/C6H11NO/c8-6-4-2-1-3-5-7-6/h1-5H2,(H,7,8)
Compound 35: cyclohexanone oxime, C6H11NO, InChI=1S/C6H11NO/c8-7-6-4-2-1-3-5-6/h8H,1-5H2
Compound 36: octane, C8H18, InChI=1S/C8H18/c1-3-5-7-8-6-4-2/h3-8H2,1-2H3
Compound 37: nonane, C9H20, InChI=1S/C9H20/c1-3-5-7-9-8-6-4-2/h3-9H2,1-2H3
Compound 38: decane, C10H22, InChI=1S/C10H22/c1-3-5-7-9-10-8-6-4-2/h3-10H2,1-2H3

System: water + 1-ethyl-3-methylimidazolium ethyl sulfate; phases: Liquid, Gas
Property: Vapor or sublimation pressure, kPa (Liquid); method: TRANSPIR:UFactor:2
Temperature, K	Mole fraction of water	Vapor or sublimation pressure, kPa	uncertainty
302.9	0.278	0.345	0.032
302.9	0.424	0.639	0.059
302.9	0.572	1.07	0.099
302.9	0.613	1.199	0.111
302.9	0.62	1.439	0.134
302.9	0.832	2.711	0.251
302.9	0.853	2.6	0.241
302.9	0.959	3.834	0.356
312.9	0.48	1.533	0.142
312.9	0.501	1.555	0.144
312.9	0.54	1.893	0.176
312.9	0.551	2.054	0.191
312.9	0.81	4.702	0.436
312.9	0.874	5.045	0.468
312.9	0.888	5.317	0.493
312.9	0.953	6.907	0.641
322.9	0.284	1.036	0.096
322.9	0.302	1.128	0.105
322.9	0.44	2.434	0.226
322.9	0.463	2.561	0.238
322.9	0.518	3.237	0.3
322.9	0.542	3.115	0.289
322.9	0.647	4.832	0.448
322.9	0.669	5.074	0.471
322.9	0.783	8.315	0.771
322.9	0.858	9.884	0.917
322.9	0.941	11.626	1.078

System: methanol + 1-ethyl-3-methylimidazolium ethyl sulfate; phases: Liquid, Gas
Fixed: Mole fraction of methanol = 0
Property: Activity coefficient of methanol (Liquid); method: Chromatography
Temperature, K	Activity coefficient of methanol	uncertainty
312.4	0.41	0.03
323	0.4	0.03
333.4	0.39	0.03
343.8	0.38	0.03
354.2	0.36	0.03

System: ethanol + 1-ethyl-3-methylimidazolium ethyl sulfate; phases: Liquid, Gas
Fixed: Mole fraction of ethanol = 0
Property: Activity coefficient of ethanol (Liquid); method: Chromatography
Temperature, K	Activity coefficient of ethanol	uncertainty
302.4	0.86	0.06
322.8	0.79	0.05
333.5	0.73	0.05
343.9	0.69	0.05
354.3	0.67	0.05

System: propan-1-ol + 1-ethyl-3-methylimidazolium ethyl sulfate; phases: Liquid, Gas
Fixed: Mole fraction of propan-1-ol = 0
Property: Activity coefficient of propan-1-ol (Liquid); method: Chromatography
Temperature, K	Activity coefficient of propan-1-ol	uncertainty
322.8	1.23	0.08
333.5	1.12	0.07
343.9	1.05	0.07
364.9	0.91	0.06
375.4	0.87	0.06

System: butan-1-ol + 1-ethyl-3-methylimidazolium ethyl sulfate; phases: Liquid, Gas
Fixed: Mole fraction of butan-1-ol = 0
Property: Activity coefficient of butan-1-ol (Liquid); method: Chromatography
Temperature, K	Activity coefficient of butan-1-ol	uncertainty
323	1.68	0.11
333.4	1.59	0.11
343.8	1.5	0.1
354.2	1.42	0.09
365	1.29	0.08

System: pentan-1-ol + 1-ethyl-3-methylimidazolium ethyl sulfate; phases: Liquid, Gas
Fixed: Mole fraction of pentan-1-ol = 0
Property: Activity coefficient of pentan-1-ol (Liquid); method: Chromatography
Temperature, K	Activity coefficient of pentan-1-ol	uncertainty
333.4	2.58	0.18
343.9	2.36	0.16
354.4	2.22	0.15
364.7	2.12	0.14

System: hexan-1-ol + 1-ethyl-3-methylimidazolium ethyl sulfate; phases: Liquid, Gas
Fixed: Mole fraction of hexan-1-ol = 0
Property: Activity coefficient of hexan-1-ol (Liquid); method: Chromatography
Temperature, K	Activity coefficient of hexan-1-ol	uncertainty
343.8	3.52	0.24
354.2	3.27	0.22
364.9	3.06	0.21
375.2	2.81	0.19

System: propan-2-ol + 1-ethyl-3-methylimidazolium ethyl sulfate; phases: Liquid, Gas
Fixed: Mole fraction of propan-2-ol = 0
Property: Activity coefficient of propan-2-ol (Liquid); method: Chromatography
Temperature, K	Activity coefficient of propan-2-ol	uncertainty
302.5	1.49	0.1
312.2	1.41	0.09
322.8	1.29	0.08
333.4	1.22	0.08
343.9	1.15	0.07

System: 2-methyl-1-propanol + 1-ethyl-3-methylimidazolium ethyl sulfate; phases: Liquid, Gas
Fixed: Mole fraction of 2-methyl-1-propanol = 0
Property: Activity coefficient of 2-methyl-1-propanol (Liquid); method: Chromatography
Temperature, K	Activity coefficient of 2-methyl-1-propanol	uncertainty
322.7	1.65	0.11
333.4	1.51	0.1
343.9	1.43	0.09
357.2	1.24	0.08
386	1.17	0.07

System: butan-2-ol + 1-ethyl-3-methylimidazolium ethyl sulfate; phases: Liquid, Gas
Fixed: Mole fraction of butan-2-ol = 0
Property: Activity coefficient of butan-2-ol (Liquid); method: Chromatography
Temperature, K	Activity coefficient of butan-2-ol	uncertainty
312.5	1.93	0.13
333.4	1.65	0.11
344	1.56	0.1
354.5	1.45	0.1
364.9	1.42	0.09

System: 2-methylpropan-2-ol + 1-ethyl-3-methylimidazolium ethyl sulfate; phases: Liquid, Gas
Fixed: Mole fraction of 2-methylpropan-2-ol = 0
Property: Activity coefficient of 2-methylpropan-2-ol (Liquid); method: Chromatography
Temperature, K	Activity coefficient of 2-methylpropan-2-ol	uncertainty
302	2.02	0.14
312.4	1.86	0.13
322.9	1.74	0.12
333.4	1.64	0.11
343.9	1.57	0.1
354.4	1.49	0.1

System: 2-methylbutan-2-ol + 1-ethyl-3-methylimidazolium ethyl sulfate; phases: Liquid, Gas
Fixed: Mole fraction of 2-methylbutan-2-ol = 0
Property: Activity coefficient of 2-methylbutan-2-ol (Liquid); method: Chromatography
Temperature, K	Activity coefficient of 2-methylbutan-2-ol	uncertainty
302	2.51	0.17
312.4	2.44	0.17
333.4	2.21	0.15
343.9	2.14	0.15
354.4	2.07	0.14

System: benzene + 1-ethyl-3-methylimidazolium ethyl sulfate; phases: Liquid, Gas
Fixed: Mole fraction of benzene = 0
Property: Activity coefficient of benzene (Liquid); method: Chromatography
Temperature, K	Activity coefficient of benzene	uncertainty
301.8	2.98	0.2
312.3	2.94	0.2
323	2.88	0.2
333.5	2.79	0.19
343.9	2.69	0.18
354.4	2.59	0.18
364.7	2.5	0.17

System: toluene + 1-ethyl-3-methylimidazolium ethyl sulfate; phases: Liquid, Gas
Fixed: Mole fraction of toluene = 0
Property: Activity coefficient of toluene (Liquid); method: Chromatography
Temperature, K	Activity coefficient of toluene	uncertainty
312.3	5.77	0.39
323	5.62	0.38
333.5	5.45	0.37
343.9	5.29	0.36
354.4	5.08	0.35
364.7	4.88	0.33

System: ethylbenzene + 1-ethyl-3-methylimidazolium ethyl sulfate; phases: Liquid, Gas
Fixed: Mole fraction of ethylbenzene = 0
Property: Activity coefficient of ethylbenzene (Liquid); method: Chromatography
Temperature, K	Activity coefficient of ethylbenzene	uncertainty
354.3	9.16	0.62
364.7	8.71	0.59
375.1	8.21	0.56
385.7	7.77	0.53

System: propylbenzene + 1-ethyl-3-methylimidazolium ethyl sulfate; phases: Liquid, Gas
Fixed: Mole fraction of propylbenzene = 0
Property: Activity coefficient of propylbenzene (Liquid); method: Chromatography
Temperature, K	Activity coefficient of propylbenzene	uncertainty
343.8	16.75	1.14
354.3	15.71	1.07
364.7	14.87	1.02
375.1	13.96	0.95
385.7	13.22	0.9

System: butylbenzene + 1-ethyl-3-methylimidazolium ethyl sulfate; phases: Liquid, Gas
Fixed: Mole fraction of butylbenzene = 0
Property: Activity coefficient of butylbenzene (Liquid); method: Chromatography
Temperature, K	Activity coefficient of butylbenzene	uncertainty
343.7	28.45	1.95
354.3	26.34	1.8
364.8	24.7	1.7
375.1	23.19	1.59
385.6	21.6	1.48
396.1	20.08	1.37

System: pentylbenzene + 1-ethyl-3-methylimidazolium ethyl sulfate; phases: Liquid, Gas
Fixed: Mole fraction of pentylbenzene = 0
Property: Activity coefficient of pentylbenzene (Liquid); method: Chromatography
Temperature, K	Activity coefficient of pentylbenzene	uncertainty
354.3	43.51	2.98
364.8	40.26	2.76
375.1	37.99	2.6
385.7	34.95	2.39
396.1	32.39	2.22

System: propanal + 1-ethyl-3-methylimidazolium ethyl sulfate; phases: Liquid, Gas
Fixed: Mole fraction of propanal = 0
Property: Activity coefficient of propanal (Liquid); method: Chromatography
Temperature, K	Activity coefficient of propanal	uncertainty
333.5	1.94	0.13
343.9	1.9	0.13
354.4	1.84	0.12
364.8	1.8	0.12
375.2	1.74	0.12

System: butanal + 1-ethyl-3-methylimidazolium ethyl sulfate; phases: Liquid, Gas
Fixed: Mole fraction of butanal = 0
Property: Activity coefficient of butanal (Liquid); method: Chromatography
Temperature, K	Activity coefficient of butanal	uncertainty
322.8	3.47	0.24
333.4	3.39	0.23
344	3.35	0.23
354.5	3.29	0.22
364.9	3.23	0.22
375.3	3.2	0.22
385.9	3.14	0.21

System: pentanal + 1-ethyl-3-methylimidazolium ethyl sulfate; phases: Liquid, Gas
Fixed: Mole fraction of pentanal = 0
Property: Activity coefficient of pentanal (Liquid); method: Chromatography
Temperature, K	Activity coefficient of pentanal	uncertainty
333.5	5.19	0.35
343.9	5.1	0.35
354.4	4.96	0.34
364.8	4.82	0.33
375.2	4.69	0.32

System: hexanal + 1-ethyl-3-methylimidazolium ethyl sulfate; phases: Liquid, Gas
Fixed: Mole fraction of hexanal = 0
Property: Activity coefficient of hexanal (Liquid); method: Chromatography
Temperature, K	Activity coefficient of hexanal	uncertainty
312.2	11.42	0.78
322.9	11.27	0.77
333.4	11.14	0.76

System: heptanal + 1-ethyl-3-methylimidazolium ethyl sulfate; phases: Liquid, Gas
Fixed: Mole fraction of heptanal = 0
Property: Activity coefficient of heptanal (Liquid); method: Chromatography
Temperature, K	Activity coefficient of heptanal	uncertainty
303.3	16.06	1.1
312.2	14.97	1.02
322.8	14.02	0.96
333.3	13.07	0.89
354.2	11.45	0.78

System: octanal + 1-ethyl-3-methylimidazolium ethyl sulfate; phases: Liquid, Gas
Fixed: Mole fraction of octanal = 0
Property: Activity coefficient of octanal (Liquid); method: Chromatography
Temperature, K	Activity coefficient of octanal	uncertainty
303.3	29.83	2.04
312.2	28.26	1.93
322.8	27.05	1.85
333.3	26.15	1.79
343.8	25.51	1.74

System: methyl propanoate + 1-ethyl-3-methylimidazolium ethyl sulfate; phases: Liquid, Gas
Fixed: Mole fraction of methyl propanoate = 0
Property: Activity coefficient of methyl propanoate (Liquid); method: Chromatography
Temperature, K	Activity coefficient of methyl propanoate	uncertainty
322.9	4.73	0.32
333.5	4.58	0.31
344	4.38	0.3
354.5	4.1	0.28
364.9	3.86	0.26
375.3	3.61	0.25

System: methyl butanoate + 1-ethyl-3-methylimidazolium ethyl sulfate; phases: Liquid, Gas
Fixed: Mole fraction of methyl butanoate = 0
Property: Activity coefficient of methyl butanoate (Liquid); method: Chromatography
Temperature, K	Activity coefficient of methyl butanoate	uncertainty
344	7.29	0.5
354.5	6.88	0.47
364.9	6.58	0.45
375.4	6.26	0.43
385.9	5.9	0.4

System: methyl pentanoate + 1-ethyl-3-methylimidazolium ethyl sulfate; phases: Liquid, Gas
Fixed: Mole fraction of methyl pentanoate = 0
Property: Activity coefficient of methyl pentanoate (Liquid); method: Chromatography
Temperature, K	Activity coefficient of methyl pentanoate	uncertainty
333.6	11.61	0.79
344.1	10.87	0.74
354.5	10.17	0.69
364.9	9.42	0.64
375.4	8.57	0.58
385.9	7.75	0.53

System: methyl hexanoate + 1-ethyl-3-methylimidazolium ethyl sulfate; phases: Liquid, Gas
Fixed: Mole fraction of methyl hexanoate = 0
Property: Activity coefficient of methyl hexanoate (Liquid); method: Chromatography
Temperature, K	Activity coefficient of methyl hexanoate	uncertainty
301.7	20.09	1.37
312.4	19.22	1.31
333.4	17.04	1.16
343.9	15.94	1.09

System: methyl heptanoate + 1-ethyl-3-methylimidazolium ethyl sulfate; phases: Liquid, Gas
Fixed: Mole fraction of methyl heptanoate = 0
Property: Activity coefficient of methyl heptanoate (Liquid); method: Chromatography
Temperature, K	Activity coefficient of methyl heptanoate	uncertainty
301.8	29.79	2.04
312.4	28.35	1.94
322.9	27.14	1.86
333.4	25.53	1.75

System: acetone + 1-ethyl-3-methylimidazolium ethyl sulfate; phases: Liquid, Gas
Fixed: Mole fraction of acetone = 0
Property: Activity coefficient of acetone (Liquid); method: Chromatography
Temperature, K	Activity coefficient of acetone	uncertainty
323.1	1.64	0.11
333.6	1.63	0.11
343.9	1.61	0.11
365	1.56	0.1
375.4	1.54	0.1
386	1.5	0.1

System: acetonitrile + 1-ethyl-3-methylimidazolium ethyl sulfate; phases: Liquid, Gas
Fixed: Mole fraction of acetonitrile = 0
Property: Activity coefficient of acetonitrile (Liquid); method: Chromatography
Temperature, K	Activity coefficient of acetonitrile	uncertainty
312.2	0.81	0.05
333.4	0.8	0.05
343.9	0.78	0.05
354.3	0.77	0.05

System: 1,4-dioxane + 1-ethyl-3-methylimidazolium ethyl sulfate; phases: Liquid, Gas
Fixed: Mole fraction of 1,4-dioxane = 0
Property: Activity coefficient of 1,4-dioxane (Liquid); method: Chromatography
Temperature, K	Activity coefficient of 1,4-dioxane	uncertainty
312.4	2.1	0.14
333.4	2.08	0.14
354.2	2.06	0.14

System: 1-aza-2-cycloheptanone + 1-ethyl-3-methylimidazolium ethyl sulfate; phases: Liquid, Gas
Fixed: Mole fraction of 1-aza-2-cycloheptanone = 0
Property: Activity coefficient of 1-aza-2-cycloheptanone (Liquid); method: Chromatography
Temperature, K	Activity coefficient of 1-aza-2-cycloheptanone	uncertainty
412.3	5.1	0.35
417.1	6.1	0.42
427.1	4.9	0.33

System: cyclohexanone oxime + 1-ethyl-3-methylimidazolium ethyl sulfate; phases: Liquid, Gas
Fixed: Mole fraction of cyclohexanone oxime = 0
Property: Activity coefficient of cyclohexanone oxime (Liquid); method: Chromatography
Temperature, K	Activity coefficient of cyclohexanone oxime	uncertainty
417.2	0.57	0.04
427.5	0.41	0.03

System: octane + 1-ethyl-3-methylimidazolium ethyl sulfate; phases: Liquid, Gas
Fixed: Mole fraction of octane = 0
Property: Activity coefficient of octane (Liquid); method: Chromatography
Temperature, K	Activity coefficient of octane	uncertainty
301.9	221.18	15.19
312.5	183.58	12.6
322.9	148.22	10.17
333.5	119.38	8.19

System: nonane + 1-ethyl-3-methylimidazolium ethyl sulfate; phases: Liquid, Gas
Fixed: Mole fraction of nonane = 0
Property: Activity coefficient of nonane (Liquid); method: Chromatography
Temperature, K	Activity coefficient of nonane	uncertainty
301.8	356.78	24.53
312.4	303.95	20.89
322.9	248.87	17.1
333.5	200.04	13.74

System: decane + 1-ethyl-3-methylimidazolium ethyl sulfate; phases: Liquid, Gas
Fixed: Mole fraction of decane = 0
Property: Activity coefficient of decane (Liquid); method: Chromatography
Temperature, K	Activity coefficient of decane	uncertainty
301.8	504.14	34.69
312.4	444.79	30.6
322.9	389.08	26.76
333.5	330.72	22.74
