Measured thermophysical data. Vapor-Liquid Equilibria Data for Methanol + 2-Propanol+ 2-Methyl-2-butanol and Constituent Binary Systems at 101.3 kPa
Source: J. Chem. Eng. Data, 2007, 10.1021/je060476j
Compound 1: methanol, CH4O, InChI=1S/CH4O/c1-2/h2H,1H3
Compound 2: propan-2-ol, C3H8O, InChI=1S/C3H8O/c1-3(2)4/h3-4H,1-2H3
Compound 3: 2-methylbutan-2-ol, C5H12O, InChI=1S/C5H12O/c1-4-5(2,3)6/h6H,4H2,1-3H3

System: methanol; phases: Liquid
Property: Refractive index (Na D-line) (Liquid); method: Standard Abbe refractometry
Temperature, K	Pressure, kPa	Refractive index (Na D-line)	uncertainty
298.15	101.325	1.3261	0.0007

System: methanol; phases: Liquid, Gas
Property: Vapor or sublimation pressure, kPa (Liquid); method: Ebulliometric method (Recirculating still)
Temperature, K	Vapor or sublimation pressure, kPa	uncertainty
337.68	101.3	0.6

System: propan-2-ol; phases: Liquid
Property: Refractive index (Na D-line) (Liquid); method: Standard Abbe refractometry
Temperature, K	Pressure, kPa	Refractive index (Na D-line)	uncertainty
298.15	101.325	1.375	0.0007

System: propan-2-ol; phases: Liquid, Gas
Property: Vapor or sublimation pressure, kPa (Liquid); method: Ebulliometric method (Recirculating still)
Temperature, K	Vapor or sublimation pressure, kPa	uncertainty
355.5	101.3	0.6

System: 2-methylbutan-2-ol; phases: Liquid
Property: Refractive index (Na D-line) (Liquid); method: Standard Abbe refractometry
Temperature, K	Pressure, kPa	Refractive index (Na D-line)	uncertainty
298.15	101.325	1.4018	0.0007

System: 2-methylbutan-2-ol; phases: Liquid, Gas
Property: Vapor or sublimation pressure, kPa (Liquid); method: Ebulliometric method (Recirculating still)
Temperature, K	Vapor or sublimation pressure, kPa	uncertainty
375.14	101.3	0.6

System: methanol + propan-2-ol; phases: Liquid, Gas
Fixed: Pressure, kPa = 101.3
Property: Boiling temperature at pressure P, K (Liquid); method: Ebulliometric method (Recirculating still)
Mole fraction of methanol	Boiling temperature at pressure P, K	uncertainty
0	355.5	0.14
0.036	354.22	0.15
0.057	353.54	0.15
0.093	352.42	0.15
0.113	351.85	0.15
0.131	351.32	0.15
0.173	350.2	0.15
0.206	349.4	0.15
0.24	348.6	0.15
0.289	347.52	0.14
0.329	346.72	0.14
0.393	345.52	0.14
0.464	344.32	0.14
0.535	343.22	0.14
0.564	342.8	0.14
0.614	342.1	0.14
0.695	341.05	0.14
0.778	340.05	0.14
0.854	339.2	0.14
1	337.68	0.14

System: methanol + propan-2-ol; phases: Gas, Liquid
Fixed: Pressure, kPa = 101.3
Property: Mole fraction of methanol (Gas); method: CHROM:UFactor:2
Mole fraction of methanol	Mole fraction of methanol	uncertainty
0	0	0.001
0.036	0.084	0.005
0.057	0.127	0.005
0.093	0.196	0.005
0.113	0.231	0.006
0.131	0.262	0.006
0.173	0.328	0.007
0.206	0.373	0.008
0.24	0.417	0.008
0.289	0.476	0.009
0.329	0.519	0.009
0.393	0.582	0.008
0.464	0.643	0.007
0.535	0.7	0.006
0.564	0.721	0.006
0.614	0.757	0.005
0.695	0.812	0.004
0.778	0.864	0.003
0.854	0.911	0.003
1	1	0.001

System: methanol + 2-methylbutan-2-ol; phases: Liquid, Gas
Fixed: Pressure, kPa = 101.3
Property: Boiling temperature at pressure P, K (Liquid); method: Ebulliometric method (Recirculating still)
Mole fraction of methanol	Boiling temperature at pressure P, K	uncertainty
0	375.14	0.14
0.024	373.42	0.2
0.037	372.5	0.2
0.054	371.32	0.19
0.074	370.05	0.19
0.1	368.45	0.19
0.115	367.5	0.18
0.14	366.05	0.18
0.162	364.85	0.17
0.187	363.54	0.17
0.208	362.44	0.17
0.248	360.52	0.17
0.302	358.05	0.17
0.33	356.85	0.16
0.366	355.42	0.16
0.397	354.2	0.16
0.45	352.25	0.16
0.507	350.25	0.15
0.606	347.25	0.15
0.647	346.05	0.15
0.703	344.52	0.15
0.762	343.02	0.15
0.81	341.84	0.15
0.867	340.52	0.15
0.886	340.1	0.15
1	337.68	0.14

System: methanol + 2-methylbutan-2-ol; phases: Gas, Liquid
Fixed: Pressure, kPa = 101.3
Property: Mole fraction of methanol (Gas); method: CHROM:UFactor:2
Mole fraction of methanol	Mole fraction of methanol	uncertainty
0	0	0.001
0.024	0.083	0.007
0.037	0.126	0.007
0.054	0.178	0.007
0.074	0.232	0.007
0.1	0.298	0.008
0.115	0.335	0.008
0.14	0.389	0.008
0.162	0.431	0.009
0.187	0.476	0.01
0.208	0.512	0.01
0.248	0.57	0.009
0.302	0.64	0.007
0.33	0.671	0.007
0.366	0.706	0.006
0.397	0.735	0.005
0.45	0.778	0.005
0.507	0.817	0.004
0.606	0.872	0.003
0.647	0.895	0.003
0.703	0.915	0.003
0.762	0.936	0.002
0.81	0.952	0.002
0.867	0.968	0.002
0.886	0.973	0.002
1	1	0.001

System: propan-2-ol + 2-methylbutan-2-ol; phases: Liquid, Gas
Fixed: Pressure, kPa = 101.3
Property: Boiling temperature at pressure P, K (Liquid); method: Ebulliometric method (Recirculating still)
Mole fraction of propan-2-ol	Boiling temperature at pressure P, K	uncertainty
0	375.14	0.14
0.041	374	0.15
0.071	373.12	0.15
0.085	372.75	0.15
0.111	372.05	0.15
0.146	371.15	0.15
0.192	370.02	0.15
0.241	368.85	0.15
0.264	368.32	0.15
0.296	367.6	0.15
0.35	366.45	0.14
0.415	365.1	0.14
0.448	364.42	0.14
0.484	363.75	0.14
0.556	362.42	0.14
0.623	361.25	0.14
0.691	360.1	0.14
0.785	358.6	0.14
0.862	357.45	0.14
0.947	356.22	0.14
1	355.5	0.14

System: propan-2-ol + 2-methylbutan-2-ol; phases: Gas, Liquid
Fixed: Pressure, kPa = 101.3
Property: Mole fraction of propan-2-ol (Gas); method: CHROM:UFactor:2
Mole fraction of propan-2-ol	Mole fraction of propan-2-ol	uncertainty
0	0	0.001
0.041	0.082	0.005
0.071	0.137	0.005
0.085	0.162	0.005
0.111	0.206	0.005
0.146	0.263	0.006
0.192	0.331	0.007
0.241	0.399	0.008
0.264	0.429	0.009
0.296	0.469	0.009
0.35	0.53	0.009
0.415	0.599	0.008
0.448	0.631	0.007
0.484	0.665	0.007
0.556	0.726	0.006
0.623	0.778	0.005
0.691	0.826	0.004
0.785	0.887	0.003
0.862	0.93	0.003
0.947	0.975	0.002
1	1	0.001

System: methanol + propan-2-ol + 2-methylbutan-2-ol; phases: Liquid, Gas
Fixed: Pressure, kPa = 101.3
Property: Mole fraction of propan-2-ol (Liquid); method: CHROM:UFactor:2
Property: Mole fraction of propan-2-ol (Gas); method: CHROM:UFactor:2
Property: Mole fraction of methanol (Gas); method: CHROM:UFactor:2
Temperature, K	Mole fraction of methanol	Mole fraction of propan-2-ol	uncertainty	Mole fraction of propan-2-ol	uncertainty	Mole fraction of methanol	uncertainty
345.15	0.495	0.391	0.006	0.275	0.005	0.693	
346.76	0.453	0.36	0.006	0.27	0.005	0.673	
348.45	0.407	0.341	0.005	0.273	0.005	0.643	
349.24	0.389	0.326	0.005	0.269	0.005	0.633	
350.46	0.358	0.318	0.005	0.273	0.005	0.608	
352.45	0.307	0.304	0.005	0.283	0.005	0.562	
354.15	0.266	0.301	0.005	0.298	0.006	0.516	
355.32	0.238	0.298	0.005	0.307	0.006	0.483	
359.1	0.16	0.279	0.004	0.329	0.006	0.371	
361	0.125	0.271	0.004	0.342	0.006	0.309	
362.51	0.104	0.251	0.004	0.335	0.006	0.269	
