Measured thermophysical data. Solubility of Pyrazine and Its Derivatives in Supercritical Carbon Dioxide
Source: J. Chem. Eng. Data, 2006, 10.1021/je0601457
Compound 1: carbon dioxide, CO2, InChI=1S/CO2/c2-1-3
Compound 2: pyrazine, C4H4N2, InChI=1S/C4H4N2/c1-2-6-4-3-5-1/h1-4H
Compound 3: 2-methylpyrazine, C5H6N2, InChI=1S/C5H6N2/c1-5-4-6-2-3-7-5/h2-4H,1H3
Compound 4: 2,3-dimethylpyrazine, C6H8N2, InChI=1S/C6H8N2/c1-5-6(2)8-4-3-7-5/h3-4H,1-2H3
Compound 5: methoxypyrazine, C5H6N2O, InChI=1S/C5H6N2O/c1-8-5-4-6-2-3-7-5/h2-4H,1H3
Compound 6: 2-acetylpyrazine, C6H6N2O, InChI=1S/C6H6N2O/c1-5(9)6-4-7-2-3-8-6/h2-4H,1H3

System: carbon dioxide + pyrazine; phases: Liquid, Gas
Property: Critical pressure, kPa (Liquid); method: Direct measurement
Mole fraction of pyrazine	Critical pressure, kPa	uncertainty
0.013	8340	420
0.037	9580	420
0.056	10760	420
0.07	11450	430

System: carbon dioxide + pyrazine; phases: Liquid, Gas
Property: Critical temperature, K (Liquid); method: Visual observation in an unstirred cell
Mole fraction of pyrazine	Critical temperature, K	uncertainty
0.013	312.35	0.3
0.037	324.65	0.4
0.056	333.35	0.6
0.07	339.65	0.7

System: carbon dioxide + pyrazine; phases: Gas, Liquid
Property: Vapor or sublimation pressure, kPa (Gas); method: Closed cell (Static) method
Mole fraction of pyrazine	Temperature, K	Vapor or sublimation pressure, kPa	uncertainty
0.015	318.95	8970	420
0.015	324.65	9240	420
0.019	326.15	9740	420
0.019	338.45	11070	430
0.019	352.35	10760	490

System: carbon dioxide + pyrazine; phases: Liquid, Gas
Property: Vapor or sublimation pressure, kPa (Liquid); method: Closed cell (Static) method
Mole fraction of pyrazine	Temperature, K	Vapor or sublimation pressure, kPa	uncertainty
0.015	298.25	6480	280
0.015	303.75	7280	280
0.015	312.05	8470	280
0.019	295.55	6100	280
0.019	313.65	8900	290
0.074	295.65	5830	280
0.074	303.65	6770	280
0.074	308.25	7380	280
0.074	323.35	9640	280
0.074	339.45	11970	280
0.074	351.95	13260	280
0.074	366.25	14720	290
0.09	296.25	5900	280
0.09	305.85	7050	280
0.09	315.85	8380	280
0.09	320.15	9030	280
0.09	337.85	11710	280
0.09	348.95	13280	280
0.09	365.65	14900	280
0.116	295.65	5970	280
0.116	304.25	6850	280
0.116	313.55	7980	280
0.116	325.85	9790	280
0.116	340.95	12000	280
0.116	350.55	13320	280
0.116	360.85	14540	280
0.146	295.65	5490	290
0.146	305.75	6670	280
0.146	314.85	7830	280
0.146	327.25	9660	280
0.146	337.05	11070	280
0.146	350.85	13120	290
0.177	300.75	6050	280
0.177	309.45	6980	280
0.177	321.55	8590	280
0.177	334.05	10380	280
0.177	347.75	12380	280
0.177	362.25	14450	290
0.224	299.45	5860	280
0.224	312.05	7190	280
0.224	320.95	8280	280
0.224	332.95	10000	280
0.224	345.05	11660	290
0.224	362.35	14150	290
0.308	294.25	4720	280
0.308	304.95	5740	280
0.308	312.75	6540	290
0.308	328.15	9690	1500
0.308	348.05	10970	300
0.308	364.25	12910	300
0.397	306.35	5600	280
0.397	314.95	6360	280
0.397	326.65	7520	330
0.397	345.55	9590	300
0.397	369.65	12480	320
0.495	308.65	5600	280
0.495	322.35	6600	290
0.495	334.75	7600	290
0.495	348.55	8790	300
0.495	372.55	11090	330

System: carbon dioxide + pyrazine; phases: Liquid, Gas
Property: Mass density, kg/m3 (Liquid); method: linear displacement
Mole fraction of pyrazine	Temperature, K	Mass density, kg/m3	uncertainty
0.015	298.25	857	34
0.015	303.75	802	32
0.015	312.05	656	26
0.019	295.55	842	34
0.019	304.15	776	31
0.019	313.65	679	27
0.074	295.65	922	37
0.074	303.65	900	36
0.074	308.25	878	35
0.074	323.35	810	32
0.074	339.45	695	28
0.074	351.95	589	24
0.074	366.25	532	22
0.09	296.25	864	35
0.09	305.85	854	34
0.09	315.85	810	32
0.09	320.15	799	32
0.09	337.85	727	29
0.09	348.95	672	27
0.09	365.65	582	23
0.116	295.65	809	32
0.116	304.25	795	32
0.116	313.55	771	31
0.116	325.85	734	30
0.116	340.95	684	27
0.116	350.55	651	26
0.116	360.85	620	25
0.146	295.65	887	36
0.146	305.75	860	35
0.146	314.85	830	34
0.146	327.25	790	32
0.146	337.05	753	30
0.146	350.85	703	29
0.177	300.75	889	36
0.177	309.45	870	35
0.177	321.55	834	33
0.177	334.05	795	32
0.177	347.75	751	30
0.177	362.25	704	29
0.224	299.45	910	36
0.224	312.05	887	36
0.224	320.95	870	35
0.224	332.95	842	34
0.224	345.05	816	33
0.224	362.35	770	31
0.308	294.25	1048	43
0.308	304.95	1028	41
0.308	312.75	1019	41
0.308	328.15	970	39
0.308	348.05	957	38
0.397	306.35	1042	42
0.397	314.95	1037	42
0.397	326.65	1017	41
0.397	345.55	991	40
0.397	369.65	952	38
0.495	308.65	992	40
0.495	322.35	975	39
0.495	334.75	972	39
0.495	372.55	955	38

System: carbon dioxide + pyrazine; phases: Gas, Liquid
Property: Mass density, kg/m3 (Gas); method: linear displacement
Mole fraction of pyrazine	Temperature, K	Mass density, kg/m3	uncertainty
0.015	318.95	452	18
0.015	324.65	382	15
0.019	326.15	442	18
0.019	338.45	431	18
0.019	352.35	324	18

System: carbon dioxide + pyrazine; phases: Fluid (supercritical or subcritical phases)
Property: Mass density, kg/m3 (Fluid (supercritical or subcritical phases)); method: Linear displacement technique
Mole fraction of pyrazine	Temperature, K	Pressure, kPa	Mass density, kg/m3	uncertainty
0.015	298.25	6590	863	36
0.015	298.25	7520	892	36
0.015	298.25	8790	918	37
0.015	303.75	7480	828	33
0.015	303.75	9410	898	39
0.015	303.75	10240	917	37
0.015	303.75	12450	956	47
0.015	312.05	9760	778	35
0.015	312.05	9930	787	35
0.015	312.05	10410	812	34
0.015	312.05	11100	835	35
0.015	318.95	9210	512	25
0.015	318.95	9280	527	25
0.015	318.95	9480	571	26
0.015	324.65	9340	394	23
0.015	324.65	9620	408	39
0.015	324.65	9830	423	37
0.015	324.65	10970	576	46
0.015	324.65	11380	611	34
0.015	324.65	11620	627	34
0.015	324.65	11760	640	33
0.019	295.55	6450	854	36
0.019	295.55	7000	877	36
0.019	295.55	9070	915	37
0.019	304.15	7690	791	35
0.019	304.15	8380	826	35
0.019	304.15	9210	849	37
0.019	304.15	10520	876	35
0.019	304.15	11900	898	37
0.019	313.65	9030	687	46
0.019	313.65	9140	712	46
0.019	313.65	9830	761	35
0.019	313.65	10450	792	34
0.019	313.65	10860	809	33
0.019	313.65	12520	850	35
0.019	326.15	9900	460	57
0.019	326.15	10520	580	53
0.019	326.15	11140	656	42
0.019	326.15	11520	688	33
0.019	326.15	12310	729	30
0.019	338.45	11520	475	20
0.019	338.45	11970	512	36
0.019	338.45	12170	526	35
0.019	338.45	12590	565	36
0.019	352.35	11140	335	23
0.019	352.35	11210	352	21
0.019	352.35	12310	415	23
0.019	352.35	12480	428	22
0.019	352.35	12790	443	22
0.074	295.65	5970	926	39
0.074	295.65	6100	929	37
0.074	295.65	6310	941	38
0.074	303.65	7070	903	36
0.074	303.65	8720	924	37
0.074	308.25	7550	882	35
0.074	308.25	9480	906	36
0.074	323.35	10030	825	48
0.074	323.35	10240	835	34
0.074	323.35	11900	876	35
0.074	339.45	12590	708	44
0.074	339.45	13280	750	46
0.074	351.95	13450	604	27
0.074	351.95	16280	719	31
0.074	366.25	14930	542	22
0.074	366.25	15760	547	23
0.074	366.25	16860	511	23
0.09	296.25	6140	873	35
0.09	296.25	9830	923	37
0.09	305.85	7340	858	34
0.09	305.85	10170	884	36
0.09	315.85	8660	813	33
0.09	320.15	9140	806	38
0.09	320.15	10790	830	33
0.09	337.85	12170	738	31
0.09	337.85	12590	752	32
0.09	337.85	15900	815	33
0.09	348.95	13380	684	27
0.09	348.95	13690	683	27
0.09	348.95	16450	771	32
0.09	365.65	15210	591	24
0.09	315.85	8660	813	33
0.116	295.65	6380	815	33
0.116	295.65	8210	833	33
0.116	304.25	7340	798	32
0.116	304.25	7550	801	32
0.116	304.25	9550	816	34
0.116	313.55	8450	773	31
0.116	313.55	8790	778	31
0.116	313.55	10860	791	33
0.116	325.85	10170	739	30
0.116	325.85	13140	767	31
0.116	340.95	12380	693	28
0.116	340.95	15210	739	30
0.116	350.55	13760	665	27
0.116	350.55	15520	707	29
0.116	360.85	14860	630	26
0.116	360.85	17720	695	29
0.146	295.65	5520	887	36
0.146	295.65	6520	898	36
0.146	295.65	12790	926	37
0.146	305.75	6930	839	51
0.146	305.75	7280	863	35
0.146	305.75	11690	886	35
0.146	314.85	8240	833	33
0.146	314.85	8860	839	34
0.146	314.85	14240	869	35
0.146	327.25	10170	980	39
0.146	327.25	15900	990	46
0.146	337.05	11660	760	31
0.146	337.05	15140	792	32
0.146	350.85	13410	708	28
0.177	300.75	6520	894	36
0.177	300.75	7070	898	40
0.177	300.75	10790	917	37
0.177	309.45	7070	872	35
0.177	309.45	7620	874	35
0.177	309.45	9760	884	36
0.177	321.55	9280	839	34
0.177	321.55	10520	847	34
0.177	321.55	12520	857	34
0.177	321.55	14590	866	35
0.177	334.05	11550	803	33
0.177	334.05	11900	809	32
0.177	334.05	15590	831	33
0.177	347.75	13030	758	31
0.177	347.75	14100	770	31
0.177	347.75	16790	792	32
0.177	362.25	14720	709	29
0.177	362.25	14830	712	29
0.177	362.25	19480	761	31
0.224	299.45	7760	921	37
0.224	312.05	9480	899	36
0.224	312.05	16790	919	37
0.224	320.95	9660	877	35
0.224	320.95	13000	889	36
0.224	332.95	18030	879	35
0.224	345.05	12450	823	33
0.224	345.05	19340	858	34
0.224	362.35	14660	779	31
0.224	362.35	18660	802	32
0.308	294.25	5340	1054	42
0.308	294.25	9480	1070	43
0.308	294.25	12170	1078	43
0.308	304.95	7280	1036	41
0.308	304.95	9690	1041	42
0.308	304.95	13620	1052	42
0.308	312.75	7760	1023	41
0.308	312.75	11690	1033	41
0.308	312.75	14830	1043	42
0.308	328.15	11830	980	39
0.308	328.15	13760	990	40
0.308	328.15	15340	997	40
0.308	348.05	12310	965	39
0.308	348.05	17620	986	39
0.308	348.05	19720	996	40
0.397	306.35	6520	1049	42
0.397	306.35	9690	1061	42
0.397	306.35	13690	1070	43
0.397	314.95	7830	1040	42
0.397	314.95	11280	1048	42
0.397	314.95	15140	1060	42
0.397	326.65	8860	1023	41
0.397	326.65	11070	1027	41
0.397	326.65	14100	1036	41
0.397	345.55	10380	995	40
0.397	345.55	12480	999	40
0.397	345.55	12860	1002	40
0.397	369.65	14550	964	39
0.397	369.65	16410	968	39
0.397	369.65	20720	982	39
0.495	308.65	6030	999	40
0.495	308.65	7000	1001	40
0.495	308.65	9240	1008	40
0.495	322.35	7410	980	39
0.495	322.35	10310	990	40
0.495	322.35	13000	963	39
0.495	334.75	10340	980	39
0.495	334.75	13550	987	39
0.495	334.75	19410	1002	40
0.495	372.55	11480	959	38
0.495	372.55	12720	962	38
0.495	372.55	15000	970	39

System: carbon dioxide + methoxypyrazine; phases: Gas, Liquid
Property: Vapor or sublimation pressure, kPa (Gas); method: Closed cell (Static) method
Mole fraction of methoxypyrazine	Temperature, K	Vapor or sublimation pressure, kPa	uncertainty
0.015	314.35	8720	420
0.015	328.25	10100	420
0.015	354.35	11790	420
0.025	328.65	10530	420
0.025	347.75	12720	420
0.025	369.55	13930	420
0.039	327.85	10580	420
0.039	350.75	13470	420
0.039	372.25	15510	420
0.069	327.05	10380	420
0.069	350.75	13770	420
0.069	370.55	16220	420
0.107	353.35	14070	420
0.107	371.75	16620	420
0.129	347.85	13350	420
0.129	368.85	16110	420

System: carbon dioxide + methoxypyrazine; phases: Liquid, Gas
Property: Vapor or sublimation pressure, kPa (Liquid); method: Closed cell (Static) method
Mole fraction of methoxypyrazine	Temperature, K	Vapor or sublimation pressure, kPa	uncertainty
0.007	304.35	7290	280
0.015	295.25	5760	280
0.015	299.55	6380	280
0.015	303.75	7000	280
0.025	296.35	5960	280
0.025	303.35	6930	280
0.025	313.55	8480	280
0.039	295.25	5650	280
0.039	307.95	7310	280
0.069	295.15	5450	280
0.069	307.15	7070	280
0.107	294.35	5170	280
0.107	310.65	7340	280
0.107	332.85	10930	280
0.129	294.55	5210	280
0.129	307.55	6720	280
0.129	326.85	9790	280
0.207	295.75	4930	280
0.207	306.95	6310	280
0.207	328.45	9270	280
0.207	348.55	12650	280
0.207	367.65	15510	290
0.232	296.85	5000	280
0.232	314.15	7070	280
0.232	332.45	9690	280
0.232	354.15	13240	280
0.232	368.95	15200	280
0.379	295.75	4140	280
0.379	298.15	4380	280
0.379	312.55	5830	280
0.379	330.65	7690	280
0.379	348.65	9690	280
0.379	366.45	11860	280
0.637	297.15	2810	280
0.637	311.95	3690	280
0.637	332.65	4900	280
0.637	354.35	6310	280
0.637	367.35	7200	280
0.919	295.15	720	280
0.919	297.15	920	280
0.919	299.95	1080	280
0.919	305.95	1000	280
0.919	317.85	1140	280
0.919	332.65	1240	280
0.919	348.95	1470	280

System: carbon dioxide + methoxypyrazine; phases: Liquid, Gas
Property: Mass density, kg/m3 (Liquid); method: linear displacement
Mole fraction of methoxypyrazine	Temperature, K	Mass density, kg/m3	uncertainty
0.007	304.35	679	27
0.015	295.25	726	29
0.015	299.55	749	30
0.015	303.75	718	29
0.025	296.35	797	32
0.025	303.35	778	31
0.025	313.55	696	28
0.039	295.25	780	31
0.039	307.95	778	31
0.069	295.15	809	32
0.069	307.15	843	34
0.107	294.35	802	32
0.107	310.65	860	34
0.107	332.85	794	32
0.129	294.55	922	39
0.129	307.55	920	37
0.129	326.85	864	35
0.207	295.75	911	38
0.207	306.95	945	38
0.207	328.45	906	36
0.207	348.55	866	35
0.207	367.65	824	33
0.232	296.85	981	39
0.232	314.15	987	40
0.232	332.45	948	38
0.232	354.15	902	36
0.232	368.95	864	35
0.379	295.75	929	37
0.379	298.15	934	37
0.379	312.55	1012	41
0.379	330.65	982	39
0.379	348.65	958	38
0.379	366.45	933	37
0.637	297.15	1053	42
0.637	311.95	1122	45
0.637	332.65	1097	44
0.637	354.35	1070	43
0.637	367.35	1055	43
0.919	295.15	1033	42
0.919	297.15	1109	44
0.919	299.95	1063	43
0.919	305.95	1097	44
0.919	317.85	1085	43
0.919	332.65	1063	43
0.919	348.95	1050	42

System: carbon dioxide + methoxypyrazine; phases: Gas, Liquid
Property: Mass density, kg/m3 (Gas); method: linear displacement
Mole fraction of methoxypyrazine	Temperature, K	Mass density, kg/m3	uncertainty
0.015	314.35	616	25
0.015	328.25	451	18
0.015	354.35	340	14
0.025	328.65	557	23
0.025	347.75	474	19
0.025	369.55	393	16
0.039	327.85	654	26
0.039	350.75	536	22
0.039	372.25	469	19
0.069	327.05	756	31
0.069	350.75	641	26
0.069	370.55	579	24
0.107	353.35	723	29
0.107	371.75	672	27
0.129	347.85	798	33
0.129	368.85	724	29

System: carbon dioxide + 2-acetylpyrazine; phases: Liquid, Gas
Property: Vapor or sublimation pressure, kPa (Liquid); method: Closed cell (Static) method
Mole fraction of 2-acetylpyrazine	Temperature, K	Vapor or sublimation pressure, kPa	uncertainty
0.007	294.75	5890	280
0.007	303.35	7000	280
0.025	296.15	5790	280
0.025	302.35	6650	280
0.054	302.35	6480	280
0.054	310.35	7890	280
0.081	306.25	7030	280
0.114	312.95	7960	280
0.114	323.05	9760	280
0.114	334.95	12340	290
0.114	348.55	15890	290
0.114	364.85	18580	290
0.138	309.45	7080	280
0.138	314.35	7770	280
0.138	322.25	9190	280
0.138	332.75	11130	290
0.138	345.75	13930	280
0.138	363.05	17820	290
0.161	311.05	7580	280
0.161	321.45	9410	280
0.161	337.95	12860	290
0.161	353.75	16410	290
0.161	370.85	19720	290
0.194	313.15	7760	280
0.194	321.95	9270	280
0.194	333.45	11480	290
0.194	351.15	15170	290
0.194	367.85	18790	290
0.295	322.05	8140	280
0.295	333.45	9890	280
0.295	343.75	11600	280
0.295	356.05	13720	290
0.295	368.75	15930	290
0.448	332.55	7960	280
0.448	348.05	9720	280
0.448	366.25	11960	280
0.944	346.35	2170	280
0.944	360.95	2240	280
0.944	371.05	2450	280

System: carbon dioxide + 2-acetylpyrazine; phases: Gas, Liquid
Property: Vapor or sublimation pressure, kPa (Gas); method: Closed cell (Static) method
Mole fraction of 2-acetylpyrazine	Temperature, K	Vapor or sublimation pressure, kPa	uncertainty
0.007	312.75	7960	420
0.025	314.45	8620	420
0.025	340.45	13510	420
0.025	368.85	17480	420
0.054	321.25	9890	420
0.054	332.85	12130	420
0.054	348.75	15480	420
0.054	371.25	19170	430
0.081	313.65	8230	420
0.081	334.45	12620	420
0.081	353.55	16580	420
0.081	369.55	19680	430

System: carbon dioxide + 2-acetylpyrazine; phases: Liquid, Gas
Property: Mass density, kg/m3 (Liquid); method: linear displacement
Mole fraction of 2-acetylpyrazine	Temperature, K	Mass density, kg/m3	uncertainty
0.007	294.75	799	32
0.007	303.35	724	29
0.025	296.15	758	30
0.025	302.35	790	32
0.054	302.35	922	37
0.054	310.35	837	34
0.081	306.25	946	38
0.114	312.95	1092	44
0.114	323.05	1061	46
0.114	334.95	1023	41
0.114	348.55	993	40
0.114	364.85	945	38
0.138	309.45	1276	53
0.138	314.35	1258	53
0.138	322.25	1238	50
0.138	332.75	1216	50
0.138	345.75	1187	48
0.138	363.05	1148	46
0.161	311.05	938	38
0.161	321.45	918	41
0.161	337.95	887	36
0.161	353.75	863	36
0.161	370.85	832	34
0.194	313.15	954	44
0.194	321.95	939	38
0.194	333.45	920	37
0.194	351.15	892	36
0.194	367.85	861	35
0.295	322.05	1090	45
0.295	333.45	1014	41
0.295	343.75	998	40
0.295	356.05	979	40
0.295	368.75	956	39
0.448	332.55	1063	43
0.448	348.05	1037	41
0.448	366.25	1007	40
0.944	346.35	1013	41
0.944	360.95	996	40
0.944	371.05	992	40

System: carbon dioxide + 2-acetylpyrazine; phases: Gas, Liquid
Property: Mass density, kg/m3 (Gas); method: linear displacement
Mole fraction of 2-acetylpyrazine	Temperature, K	Mass density, kg/m3	uncertainty
0.007	312.75	601	24
0.025	314.45	815	33
0.025	340.45	718	29
0.025	368.85	628	25
0.054	321.25	785	31
0.054	332.85	739	30
0.054	348.75	702	28
0.054	371.25	648	26
0.081	313.65	911	37
0.081	334.45	856	35
0.081	353.55	807	33
0.081	369.55	772	32

System: 2-methylpyrazine + carbon dioxide; phases: Liquid, Gas
Property: Vapor or sublimation pressure, kPa (Liquid); method: Closed cell (Static) method
Mole fraction of 2-methylpyrazine	Temperature, K	Vapor or sublimation pressure, kPa	uncertainty
0.017	294.85	5760	280
0.017	309.95	8150	280
0.023	296.35	6030	280
0.023	301.55	6750	280
0.023	332.35	10910	280
0.033	294.85	5800	280
0.033	311.75	8400	280
0.033	333.55	11380	280
0.039	298.85	6210	280
0.039	315.25	8670	280
0.039	326.65	10430	280
0.039	346.15	12620	280
0.051	294.95	5520	280
0.051	313.25	7870	280
0.051	330.35	10490	280
0.051	344.65	12410	280
0.062	297.25	5690	280
0.062	315.45	8340	280
0.062	336.95	11780	280
0.062	349.75	13640	290
0.081	295.85	5460	280
0.081	331.05	10380	280
0.081	338.55	11600	290
0.091	304.45	6490	280
0.091	317.55	8450	280
0.091	327.35	10080	280
0.091	341.55	12360	290
0.091	358.25	14690	290
0.122	295.55	5260	280
0.122	304.45	6260	280
0.122	309.15	6840	280
0.122	320.75	8610	280
0.122	332.45	10480	280
0.122	349.45	13300	290
0.122	365.65	15520	290
0.156	295.35	5000	280
0.156	304.15	5930	280
0.156	317.85	7710	280
0.156	328.75	9430	290
0.156	339.25	10920	290
0.156	355.15	13400	290
0.156	375.55	16300	290
0.264	295.45	4660	280
0.264	304.55	5550	280
0.264	317.95	7070	290
0.264	335.65	9400	290
0.264	345.05	10760	310
0.264	375.75	15630	300
0.339	296.15	4030	280
0.339	307.45	5010	280
0.339	325.15	6830	290
0.339	344.95	9170	310
0.339	355.05	10450	300
0.339	387.35	14430	310
0.624	295.05	2930	280
0.624	305.05	3380	290
0.624	316.45	3980	300
0.624	331.65	4780	310
0.624	348.65	5780	320
0.624	376.65	7630	380
0.857	294.95	1980	290
0.857	307.55	2070	300
0.857	322.95	2330	310
0.857	337.05	2550	330
0.857	351.35	2860	360
0.857	371.75	3330	420

System: 2-methylpyrazine + carbon dioxide; phases: Gas, Liquid
Property: Vapor or sublimation pressure, kPa (Gas); method: Closed cell (Static) method
Mole fraction of 2-methylpyrazine	Temperature, K	Vapor or sublimation pressure, kPa	uncertainty
0.017	329.15	10180	420
0.017	340.45	10970	420
0.023	342.35	11620	420
0.033	344.65	12300	420
0.033	374.25	14020	420
0.039	352.75	13100	420
0.039	376.35	14540	420
0.051	371.05	15230	420
0.062	374.75	15490	420
0.081	351.15	13170	420
0.081	374.55	15740	420
0.091	369.15	15480	420
0.091	379.45	16430	420

System: 2-methylpyrazine + carbon dioxide; phases: Liquid, Gas
Property: Mass density, kg/m3 (Liquid); method: linear displacement
Mole fraction of 2-methylpyrazine	Temperature, K	Mass density, kg/m3	uncertainty
0.017	294.85	721	37
0.017	309.95	621	25
0.023	296.35	599	25
0.023	301.55	549	22
0.023	332.35	323	13
0.033	294.85	864	36
0.033	311.75	747	30
0.033	333.55	574	23
0.039	298.85	787	32
0.039	315.25	682	27
0.039	326.65	595	24
0.039	346.15	462	19
0.062	297.25	845	35
0.062	315.45	766	31
0.062	336.95	689	28
0.062	349.75	660	27
0.081	295.85	779	32
0.081	331.05	785	32
0.081	338.55	746	30
0.091	304.45	901	37
0.091	317.55	841	34
0.091	327.35	794	33
0.091	341.55	731	29
0.091	358.25	656	27
0.122	295.55	947	38
0.122	304.45	954	38
0.122	309.15	934	37
0.122	320.75	890	36
0.122	332.45	840	34
0.122	349.45	770	31
0.122	365.65	707	28
0.156	295.35	906	36
0.156	304.15	901	36
0.156	317.85	885	35
0.156	328.75	868	35
0.156	339.25	843	34
0.156	355.15	799	32
0.156	375.55	745	30
0.264	295.45	883	35
0.264	304.55	881	35
0.264	317.95	856	34
0.264	335.65	822	33
0.264	345.05	808	33
0.264	375.75	746	30
0.339	296.15	928	37
0.339	307.45	937	37
0.339	325.15	929	37
0.339	344.95	913	38
0.339	355.05	914	37
0.339	387.35	891	36
0.624	295.05	944	38
0.624	305.05	919	37
0.624	316.45	907	36
0.624	331.65	892	36
0.624	348.65	875	35
0.624	376.65	845	34
0.857	294.95	930	37
0.857	307.55	916	37
0.857	322.95	900	36
0.857	337.05	888	36
0.857	351.35	878	35
0.857	371.75	858	34

System: 2-methylpyrazine + carbon dioxide; phases: Gas, Liquid
Property: Mass density, kg/m3 (Gas); method: linear displacement
Mole fraction of 2-methylpyrazine	Temperature, K	Mass density, kg/m3	uncertainty
0.017	329.15	373	15
0.017	340.45	326	13
0.023	342.35	279	11
0.033	344.65	468	25
0.033	374.25	344	14
0.039	352.75	429	18
0.039	376.35	349	15
0.062	374.75	554	24
0.081	351.15	772	34
0.081	374.55	684	30
0.091	369.15	618	25
0.091	379.45	565	23

System: 2-methylpyrazine + carbon dioxide; phases: Fluid (supercritical or subcritical phases)
Property: Mass density, kg/m3 (Fluid (supercritical or subcritical phases)); method: Linear displacement technique
Mole fraction of 2-methylpyrazine	Temperature, K	Pressure, kPa	Mass density, kg/m3	uncertainty
0.017	294.85	6830	749	36
0.017	294.85	8900	777	37
0.017	294.85	13000	821	33
0.017	309.95	8520	652	27
0.017	309.95	10170	701	29
0.017	309.95	11590	724	31
0.017	329.15	10450	407	36
0.017	329.15	11930	574	33
0.017	329.15	13140	626	29
0.017	329.15	14240	652	28
0.017	340.45	11280	346	29
0.017	340.45	11480	371	51
0.017	340.45	11970	408	28
0.017	340.45	12790	455	25
0.023	296.35	6310	607	25
0.023	296.35	6660	614	32
0.023	296.35	8930	642	33
0.023	301.55	7930	578	25
0.023	301.55	10070	604	25
0.023	301.55	11520	620	25
0.023	332.35	11210	375	15
0.023	332.35	12340	438	22
0.023	332.35	13280	470	19
0.023	332.35	15340	519	23
0.023	332.35	16620	540	22
0.023	342.35	11760	283	20
0.023	342.35	11970	291	19
0.023	342.35	12340	300	65
0.033	294.85	5860	869	35
0.033	294.85	7760	904	38
0.033	294.85	13690	969	44
0.033	311.75	8520	764	32
0.033	311.75	10790	831	34
0.033	311.75	13310	871	35
0.033	311.75	15760	905	37
0.033	333.55	11790	617	48
0.033	333.55	12720	679	35
0.033	333.55	13340	719	31
0.033	333.55	15340	780	31
0.033	344.65	12480	482	30
0.033	344.65	13170	529	33
0.033	344.65	13860	578	29
0.033	344.65	14660	620	28
0.033	344.65	15310	649	28
0.033	344.65	16550	683	29
0.033	374.25	14030	346	18
0.033	374.25	14550	367	18
0.033	374.25	15000	384	18
0.033	374.25	16240	425	19
0.039	298.85	6860	804	32
0.039	298.85	8520	831	33
0.039	298.85	11690	873	35
0.039	315.25	9690	722	30
0.039	315.25	10690	749	31
0.039	315.25	12660	777	31
0.039	315.25	14660	812	33
0.039	326.65	11620	667	28
0.039	326.65	12280	690	30
0.039	326.65	13620	725	30
0.039	346.15	14380	582	27
0.039	346.15	15070	617	29
0.039	352.75	14140	495	21
0.039	352.75	14790	525	25
0.039	352.75	15410	543	23
0.039	376.35	14860	367	19
0.039	376.35	15760	406	20
0.062	297.25	5790	854	35
0.062	297.25	7550	873	35
0.062	297.25	9550	894	36
0.062	297.25	12830	914	37
0.062	315.45	8620	781	32
0.062	315.45	11210	824	33
0.062	315.45	13170	846	34
0.062	315.45	16310	879	35
0.062	336.95	12340	716	30
0.062	336.95	13280	743	31
0.062	336.95	14520	775	32
0.062	336.95	16970	820	33
0.062	349.75	14100	691	32
0.062	349.75	15100	722	29
0.062	374.75	16100	592	29
0.062	374.75	16720	626	33
0.062	374.75	16970	639	30
0.081	295.85	7140	779	31
0.081	295.85	9760	781	31
0.081	295.85	13170	781	31
0.081	331.05	10450	785	31
0.081	331.05	10590	785	32
0.081	338.55	12240	752	30
0.081	338.55	13210	765	31
0.081	338.55	14930	774	32
0.081	351.15	13970	778	31
0.081	351.15	14720	780	31
0.081	351.15	16720	783	31
0.081	374.55	17210	740	30
0.081	374.55	19210	768	31
0.091	304.45	7140	913	37
0.091	304.45	8660	927	37
0.091	304.45	10170	940	38
0.091	317.55	11280	882	35
0.091	317.55	14550	913	37
0.091	317.55	16520	930	37
0.091	327.35	10790	808	33
0.091	327.35	11520	822	33
0.091	327.35	13340	848	34
0.091	327.35	15830	875	35
0.091	341.55	14410	782	32
0.091	341.55	15410	801	32
0.091	341.55	17340	828	33
0.091	358.25	15690	696	29
0.091	358.25	16450	714	29
0.091	358.25	17690	743	30
0.091	358.25	19210	767	31
0.091	358.25	20690	787	32
0.091	369.15	15970	633	27
0.091	369.15	16660	659	31
0.091	369.15	17340	681	28
0.091	369.15	18100	701	29
0.091	369.15	19000	721	33
0.091	379.45	17410	598	26
0.091	379.45	20340	675	28
0.091	379.45	21900	705	29
0.091	379.45	24210	731	29
0.122	295.55	6790	998	40
0.122	295.55	8790	1010	40
0.122	295.55	10590	1019	41
0.122	295.55	14410	1036	41
0.122	304.45	7830	970	39
0.122	304.45	10660	989	40
0.122	304.45	13690	1006	40
0.122	309.15	8070	948	41
0.122	309.15	11140	972	39
0.122	309.15	14720	992	40
0.122	320.75	10340	910	37
0.122	320.75	11760	924	37
0.122	320.75	14380	944	38
0.122	332.45	12000	863	35
0.122	332.45	13550	881	35
0.122	332.45	15590	901	36
0.122	349.45	14100	787	32
0.122	349.45	15520	810	33
0.122	349.45	16310	824	33
0.122	349.45	18790	852	34
0.122	365.65	17000	746	30
0.122	365.65	18100	769	31
0.122	365.65	19170	786	32
0.156	295.35	5310	908	36
0.156	295.35	7620	910	36
0.156	295.35	9620	911	37
0.156	304.15	6790	795	35
0.156	304.15	8030	905	37
0.156	304.15	10210	906	36
0.156	304.15	12210	911	36
0.156	317.85	8520	887	36
0.156	317.85	11140	898	36
0.156	317.85	12310	899	36
0.156	328.75	9900	872	35
0.156	328.75	11000	878	35
0.156	328.75	13900	890	36
0.156	339.25	10930	847	34
0.156	339.25	13760	869	35
0.156	339.25	17210	884	35
0.156	355.15	13690	808	38
0.156	355.15	14590	821	33
0.156	355.15	16930	843	34
0.156	375.55	16790	765	31
0.156	375.55	18100	789	32
0.156	375.55	19970	811	33
0.264	295.45	5450	901	36
0.264	295.45	7900	911	36
0.264	295.45	12450	926	37
0.264	295.45	16590	934	37
0.264	304.55	5690	882	36
0.264	304.55	6660	885	35
0.264	304.55	10380	896	36
0.264	304.55	13620	907	37
0.264	317.95	7340	858	34
0.264	317.95	9000	863	35
0.264	317.95	11830	872	35
0.264	317.95	15410	882	35
0.264	335.65	9480	822	33
0.264	335.65	10900	829	33
0.264	335.65	14380	842	34
0.264	335.65	17720	852	34
0.264	345.05	10790	808	32
0.264	345.05	12720	818	33
0.264	345.05	15280	828	33
0.264	345.05	19170	842	34
0.264	375.75	17000	758	30
0.264	375.75	20720	778	31
0.264	375.75	24590	797	32
0.339	296.15	7590	964	39
0.339	296.15	10550	969	39
0.339	296.15	16100	976	39
0.339	307.45	8340	950	38
0.339	307.45	11280	957	38
0.339	307.45	16170	965	39
0.339	325.15	7000	932	37
0.339	325.15	10590	941	38
0.339	325.15	15280	952	38
0.339	344.95	11340	920	37
0.339	344.95	18720	941	38
0.339	355.05	11030	918	37
0.339	355.05	14660	927	37
0.339	355.05	17280	939	38
0.339	387.35	15480	899	36
0.339	387.35	18070	912	37
0.339	387.35	22790	933	37
0.624	295.05	3900	948	38
0.624	295.05	7000	952	38
0.624	295.05	9660	956	38
0.624	295.05	14760	965	39
0.624	305.05	3620	922	37
0.624	305.05	5000	926	37
0.624	305.05	7480	931	37
0.624	305.05	10860	937	37
0.624	305.05	15480	942	38
0.624	316.45	6030	912	36
0.624	316.45	10030	917	37
0.624	316.45	13210	920	37
0.624	316.45	17280	926	37
0.624	331.65	6380	896	36
0.624	331.65	9900	901	36
0.624	331.65	13480	904	36
0.624	331.65	18240	910	36
0.624	348.65	7590	879	35
0.624	348.65	11830	884	35
0.624	348.65	16240	890	36
0.624	376.65	7970	846	34
0.624	376.65	10970	852	34
0.624	376.65	14930	859	34
0.624	376.65	19340	864	35
0.857	294.95	2450	935	37
0.857	294.95	3790	942	38
0.857	294.95	6860	947	38
0.857	294.95	11520	950	38
0.857	307.55	2720	922	37
0.857	307.55	4900	926	37
0.857	307.55	6860	928	37
0.857	307.55	11550	934	37
0.857	322.95	4760	905	36
0.857	322.95	8520	909	36
0.857	322.95	12620	914	37
0.857	322.95	17030	918	37
0.857	337.05	3620	892	36
0.857	337.05	5550	893	36
0.857	337.05	9000	897	36
0.857	337.05	13590	901	36
0.857	351.35	3760	878	35
0.857	351.35	7000	882	35
0.857	351.35	11210	888	36
0.857	351.35	17340	893	36
0.857	371.75	4380	861	34
0.857	371.75	8450	865	35
0.857	371.75	15830	875	35
0.857	371.75	28450	889	36

System: carbon dioxide + 2,3-dimethylpyrazine; phases: Liquid, Gas
Property: Vapor or sublimation pressure, kPa (Liquid); method: Closed cell (Static) method
Mole fraction of 2,3-dimethylpyrazine	Temperature, K	Vapor or sublimation pressure, kPa	uncertainty
0.01	295.25	5790	280
0.01	314.25	8610	280
0.027	294.15	5630	280
0.027	306.25	7280	280
0.027	322.35	10060	280
0.033	294.75	5620	280
0.033	312.65	8160	280
0.033	329.75	10870	280
0.049	294.55	5500	280
0.049	302.65	6490	280
0.049	319.35	9240	280
0.049	332.85	11520	280
0.049	345.05	13030	280
0.057	295.25	5550	280
0.057	312.75	8020	280
0.057	323.35	9760	280
0.057	331.65	11140	280
0.057	343.15	12740	280
0.086	295.25	5410	280
0.086	315.85	8280	280
0.086	331.65	10930	280
0.086	345.85	13260	280
0.086	362.95	15830	290
0.086	374.25	16920	290
0.108	294.85	5310	280
0.108	313.95	7720	280
0.108	329.85	10340	280
0.108	340.75	12200	290
0.108	350.75	13830	290
0.108	368.45	16430	290
0.157	295.05	5100	280
0.157	308.95	6750	280
0.157	321.05	8480	280
0.157	330.35	9970	290
0.157	354.15	14140	290
0.157	375.85	18100	290
0.184	294.55	5000	280
0.184	311.45	6900	280
0.184	325.65	8980	290
0.184	338.75	10970	290
0.184	347.85	12410	290
0.184	365.55	15210	290
0.291	303.25	5240	280
0.291	316.05	6610	290
0.291	328.55	8130	290
0.291	347.05	10590	300
0.291	358.65	12210	300
0.291	381.45	15090	310
0.433	296.25	3870	280
0.433	310.85	5000	290
0.433	318.75	5690	290
0.433	324.95	6250	290
0.433	341.95	7880	310
0.433	348.35	8530	310
0.433	357.15	9460	320
0.433	380.65	12010	340
0.565	294.85	3260	290
0.565	301.75	3660	280
0.565	316.25	4490	300
0.565	329.65	5380	300
0.565	347.65	6630	320
0.565	373.55	8520	380
0.736	294.75	2140	300
0.736	317.35	3000	310
0.736	325.25	3290	330
0.736	333.95	3620	330
0.736	360.55	4680	370

System: carbon dioxide + 2,3-dimethylpyrazine; phases: Gas, Liquid
Property: Vapor or sublimation pressure, kPa (Gas); method: Closed cell (Static) method
Mole fraction of 2,3-dimethylpyrazine	Temperature, K	Vapor or sublimation pressure, kPa	uncertainty
0.01	328.55	10010	420
0.01	341.25	10720	420
0.027	335.15	11410	420
0.027	371.85	15250	420
0.033	343.25	12600	420
0.033	375.05	16180	420
0.049	355.25	14380	420
0.049	373.25	16370	420
0.057	352.25	13880	420
0.057	365.05	15460	430

System: carbon dioxide + 2,3-dimethylpyrazine; phases: Liquid, Gas
Property: Mass density, kg/m3 (Liquid); method: linear displacement
Mole fraction of 2,3-dimethylpyrazine	Temperature, K	Mass density, kg/m3	uncertainty
0.01	295.25	735	29
0.01	314.25	584	23
0.027	294.15	868	35
0.027	306.25	738	30
0.027	322.35	612	25
0.033	294.75	802	32
0.033	312.65	694	28
0.033	329.75	560	23
0.049	294.55	1077	43
0.049	302.65	876	35
0.049	319.35	790	32
0.049	332.85	708	28
0.049	345.05	638	26
0.057	295.25	832	33
0.057	312.75	860	35
0.057	323.35	784	31
0.057	331.65	719	29
0.057	343.15	639	26
0.086	295.25	730	29
0.086	315.85	687	28
0.086	331.65	627	25
0.086	345.85	579	23
0.086	362.95	530	22
0.086	374.25	490	21
0.108	294.85	896	37
0.108	313.95	864	35
0.108	329.85	822	33
0.108	340.75	771	31
0.108	350.75	725	29
0.108	368.45	663	27
0.157	295.05	982	39
0.157	308.95	948	38
0.157	321.05	912	37
0.157	330.35	884	35
0.157	354.15	814	33
0.157	375.85	764	31
0.184	294.55	945	38
0.184	311.45	912	36
0.184	325.65	885	35
0.184	338.75	852	34
0.184	347.85	826	33
0.184	365.55	774	32
0.291	303.25	858	34
0.291	316.05	858	35
0.291	328.55	855	34
0.291	347.05	852	34
0.291	358.65	848	34
0.291	381.45	829	33
0.433	296.25	985	39
0.433	310.85	962	39
0.433	318.75	951	38
0.433	324.95	940	38
0.433	341.95	915	37
0.433	348.35	902	36
0.433	357.15	886	35
0.433	380.65	848	34
0.565	294.85	947	38
0.565	301.75	920	37
0.565	316.25	920	37
0.565	329.65	909	36
0.565	347.65	893	36
0.565	373.55	865	35
0.736	294.75	861	35
0.736	317.35	859	35
0.736	325.25	857	35
0.736	333.95	854	34
0.736	360.55	845	34

System: carbon dioxide + 2,3-dimethylpyrazine; phases: Gas, Liquid
Property: Mass density, kg/m3 (Gas); method: linear displacement
Mole fraction of 2,3-dimethylpyrazine	Temperature, K	Mass density, kg/m3	uncertainty
0.01	328.55	387	16
0.01	341.25	313	13
0.027	335.15	485	20
0.027	371.85	388	16
0.033	343.25	489	20
0.033	375.05	412	17
0.049	355.25	591	24
0.049	373.25	545	23
0.057	352.25	579	23
0.057	365.05	531	22

System: carbon dioxide + 2,3-dimethylpyrazine; phases: Fluid (supercritical or subcritical phases)
Property: Mass density, kg/m3 (Fluid (supercritical or subcritical phases)); method: Linear displacement technique
Mole fraction of 2,3-dimethylpyrazine	Temperature, K	Pressure, kPa	Mass density, kg/m3	uncertainty
0.01	295.25	7690	785	32
0.01	295.25	11100	833	34
0.01	295.25	15790	873	35
0.01	314.25	9830	500	40
0.01	314.25	11830	769	32
0.01	314.25	18590	799	32
0.01	328.55	10660	438	63
0.01	328.55	10970	552	44
0.01	328.55	11970	635	32
0.01	328.55	13000	688	29
0.01	328.55	15620	757	31
0.01	341.25	10790	327	20
0.027	294.15	7140	905	36
0.027	294.15	9590	934	37
0.027	294.15	14100	983	39
0.027	306.25	7410	750	31
0.027	306.25	9900	812	33
0.027	306.25	13380	864	35
0.027	322.35	11790	717	30
0.027	322.35	13000	688	28
0.027	322.35	13410	761	47
0.027	322.35	15620	757	31
0.027	322.35	16310	812	33
0.027	335.15	12970	605	28
0.027	335.15	13550	633	28
0.027	335.15	14590	668	29
0.027	371.85	15900	402	18
0.027	371.85	17140	432	21
0.033	294.75	6720	836	34
0.033	294.75	8450	858	35
0.033	294.75	13830	911	37
0.033	312.65	10170	763	31
0.033	312.65	12660	804	33
0.033	312.65	15970	851	34
0.033	329.75	12170	656	27
0.033	329.75	12970	684	28
0.033	329.75	14310	713	29
0.033	329.75	16930	765	31
0.033	343.25	14210	585	26
0.033	343.25	14930	615	26
0.033	343.25	16340	657	28
0.033	375.05	18100	466	20
0.033	375.05	19410	499	21
0.033	375.05	20690	526	22
0.049	294.55	7140	1099	46
0.049	294.55	10590	1123	45
0.049	294.55	13830	1142	47
0.049	302.65	7520	902	36
0.049	302.65	10030	934	37
0.049	302.65	13030	962	39
0.049	302.65	16660	1000	40
0.049	319.35	10520	834	34
0.049	319.35	15340	906	36
0.049	319.35	18660	946	38
0.049	332.85	12790	767	32
0.049	332.85	14620	811	33
0.049	332.85	15690	834	35
0.049	345.05	14100	698	30
0.049	345.05	15410	745	31
0.049	345.05	17240	791	32
0.049	355.25	14550	608	28
0.049	355.25	15410	652	28
0.049	355.25	17280	702	29
0.049	373.25	16720	558	25
0.049	373.25	17900	605	26
0.049	373.25	20100	667	28
0.057	295.25	6380	871	35
0.057	295.25	7410	885	36
0.057	295.25	10170	911	38
0.057	312.75	8520	874	35
0.057	312.75	9970	905	37
0.057	312.75	10450	914	38
0.057	323.35	10660	815	33
0.057	323.35	11970	849	34
0.057	323.35	16030	904	36
0.057	331.65	12210	762	32
0.057	331.65	12830	785	33
0.057	331.65	19380	886	36
0.057	343.15	13410	679	28
0.057	343.15	14660	719	30
0.057	343.15	16170	750	31
0.057	352.25	14550	618	26
0.057	352.25	16340	678	28
0.057	352.25	18760	731	30
0.057	365.05	16480	573	24
0.057	365.05	18310	636	27
0.057	365.05	20170	679	28
0.057	365.05	23210	725	29
0.086	295.25	6140	767	31
0.086	295.25	8380	778	31
0.086	295.25	12100	799	32
0.086	295.25	16070	817	33
0.086	315.85	9380	702	29
0.086	315.85	12310	728	29
0.086	315.85	16520	752	30
0.086	315.85	24210	786	31
0.086	331.65	11550	645	26
0.086	331.65	14030	676	28
0.086	331.65	15620	689	28
0.086	345.85	15140	626	25
0.086	345.85	15900	638	33
0.086	362.95	16930	561	25
0.086	362.95	17410	574	24
0.086	362.95	19410	604	25
0.086	374.25	17410	507	21
0.086	374.25	18100	521	22
0.086	374.25	18900	540	23
0.108	294.85	6660	899	36
0.108	294.85	10070	901	36
0.108	294.85	13620	904	36
0.108	294.85	18660	908	36
0.108	313.95	10520	879	35
0.108	313.95	13660	888	36
0.108	313.95	17210	896	36
0.108	329.85	12860	845	36
0.108	329.85	14590	855	34
0.108	329.85	19000	879	35
0.108	340.75	12790	786	33
0.108	340.75	14030	810	33
0.108	340.75	17340	837	34
0.108	340.75	20170	858	34
0.108	350.75	14660	747	30
0.108	350.75	15690	766	31
0.108	350.75	17410	790	33
0.108	368.45	17140	690	32
0.108	368.45	19480	731	30
0.108	368.45	25100	791	32
0.108	368.45	34900	848	34
0.157	295.05	7070	995	40
0.157	295.05	10310	1004	40
0.157	295.05	13480	1014	41
0.157	308.95	7070	952	40
0.157	308.95	9450	964	39
0.157	308.95	13480	981	39
0.157	308.95	17690	996	40
0.157	321.05	10210	927	38
0.157	321.05	12000	937	38
0.157	321.05	16280	958	38
0.157	321.05	18660	970	39
0.157	330.35	11790	902	39
0.157	330.35	14240	919	37
0.157	330.35	17550	937	38
0.157	354.15	16900	847	35
0.157	354.15	19280	865	35
0.157	354.15	25210	904	36
0.157	375.85	20590	805	35
0.157	375.85	23340	829	33
0.157	375.85	26520	856	34
0.184	294.55	7140	947	38
0.184	294.55	8520	949	38
0.184	294.55	12450	951	38
0.184	311.45	7380	912	37
0.184	311.45	9210	918	37
0.184	311.45	12380	925	37
0.184	311.45	16720	932	37
0.184	325.65	10520	894	36
0.184	325.65	12660	903	36
0.184	325.65	18030	916	37
0.184	338.75	11790	860	34
0.184	338.75	14170	874	35
0.184	338.75	16720	886	35
0.184	347.85	12690	828	33
0.184	347.85	13450	837	34
0.184	347.85	15690	853	35
0.184	365.55	19340	818	33
0.184	365.55	24520	848	34
0.184	365.55	45000	900	37
0.291	303.25	7410	859	35
0.291	303.25	9860	860	34
0.291	303.25	15450	860	34
0.291	316.05	7480	857	34
0.291	316.05	8660	858	34
0.291	316.05	11340	858	35
0.291	328.55	10170	857	35
0.291	328.55	12140	858	34
0.291	328.55	14100	857	34
0.291	328.55	16930	859	34
0.291	347.05	11760	853	34
0.291	347.05	14070	855	34
0.291	347.05	18860	857	34
0.291	358.65	12930	848	34
0.291	358.65	15410	852	34
0.291	358.65	20590	855	34
0.291	381.45	15210	831	33
0.291	381.45	15690	830	33
0.291	381.45	21340	841	34
0.433	296.25	4410	989	40
0.433	296.25	7660	997	40
0.433	296.25	10720	1002	40
0.433	310.85	6970	967	39
0.433	310.85	12480	975	39
0.433	310.85	21340	994	40
0.433	318.75	7690	955	38
0.433	318.75	16070	969	39
0.433	318.75	22930	977	39
0.433	324.95	7830	944	38
0.433	324.95	13900	955	38
0.433	324.95	20660	968	39
0.433	341.95	8900	918	37
0.433	341.95	12340	926	37
0.433	341.95	17480	934	37
0.433	341.95	23830	945	38
0.433	348.35	9900	906	36
0.433	348.35	15140	917	37
0.433	348.35	23070	931	37
0.433	357.15	13760	897	36
0.433	357.15	17310	905	36
0.433	357.15	21970	914	37
0.433	380.65	12760	852	34
0.433	380.65	16100	861	34
0.433	380.65	21660	876	35
0.565	294.85	7070	958	38
0.565	294.85	10620	961	38
0.565	294.85	15240	964	39
0.565	301.75	6620	938	38
0.565	301.75	9830	941	38
0.565	301.75	15790	946	38
0.565	316.25	6170	923	37
0.565	316.25	10000	926	37
0.565	316.25	16380	935	37
0.565	329.65	6660	912	36
0.565	329.65	8240	914	37
0.565	329.65	14590	919	37
0.565	347.65	8210	895	36
0.565	347.65	11830	901	36
0.565	347.65	18520	907	36
0.565	373.55	9210	867	35
0.565	373.55	12380	873	35
0.565	373.55	18520	883	35
0.736	294.75	2240	861	34
0.736	294.75	3830	864	35
0.736	294.75	5690	864	35
0.736	317.35	5590	859	34
0.736	317.35	11590	860	34
0.736	317.35	16450	862	34
0.736	325.25	6140	859	34
0.736	325.25	10720	860	34
0.736	325.25	18170	861	34
0.736	333.95	5520	855	34
0.736	333.95	12830	858	34
0.736	333.95	19520	858	34
0.736	360.55	6970	846	34
0.736	360.55	11100	850	34
0.736	360.55	17970	853	34
