Measured thermophysical data. Correlation and Prediction of Excess Quantities and Vapor-Liquid Equilibria of Alkyl Esters + tert-Butyl Alcohol: Experimental Data for Propyl Esters + tert-Butyl Alcohol
Source: J. Chem. Eng. Data, 2006, 10.1021/je060003c
Compound 1: 2-methylpropan-2-ol, C4H10O, InChI=1S/C4H10O/c1-4(2,3)5/h5H,1-3H3, purity 99.7%
Compound 2: propyl methanoate, C4H8O2, InChI=1S/C4H8O2/c1-2-3-6-4-5/h4H,2-3H2,1H3, purity 99%
Compound 3: propyl ethanoate, C5H10O2, InChI=1S/C5H10O2/c1-3-4-7-5(2)6/h3-4H2,1-2H3, purity 99%
Compound 4: propyl propanoate, C6H12O2, InChI=1S/C6H12O2/c1-3-5-8-6(7)4-2/h3-5H2,1-2H3, purity 98%
Compound 5: propyl butanoate, C7H14O2, InChI=1S/C7H14O2/c1-3-5-7(8)9-6-4-2/h3-6H2,1-2H3, purity 99%

System: 2-methylpropan-2-ol; phases: Liquid
Property: Refractive index (Na D-line) (Liquid); method: Standard Abbe refractometry
Temperature, K	Pressure, kPa	Refractive index (Na D-line)	uncertainty
303.15	101.325	1.3822	0.0007

System: 2-methylpropan-2-ol; phases: Liquid
Property: Refractive index (Na D-line) (Liquid); method: Standard Abbe refractometry
Temperature, K	Pressure, kPa	Refractive index (Na D-line)	uncertainty
318.15	101.325	1.3741	0.0007

System: 2-methylpropan-2-ol; phases: Liquid
Property: Mass density, kg/m3 (Liquid); method: VIBTUB:UFactor:2
Temperature, K	Pressure, kPa	Mass density, kg/m3	uncertainty
303.15	101.325	775.37	0.27

System: 2-methylpropan-2-ol; phases: Liquid
Property: Mass density, kg/m3 (Liquid); method: VIBTUB:UFactor:2
Temperature, K	Pressure, kPa	Mass density, kg/m3	uncertainty
318.15	101.325	759.87	0.28

System: propyl methanoate; phases: Liquid
Property: Refractive index (Na D-line) (Liquid); method: Standard Abbe refractometry
Temperature, K	Pressure, kPa	Refractive index (Na D-line)	uncertainty
303.15	101.325	1.3718	0.0008

System: propyl methanoate; phases: Liquid
Property: Refractive index (Na D-line) (Liquid); method: Standard Abbe refractometry
Temperature, K	Pressure, kPa	Refractive index (Na D-line)	uncertainty
318.15	101.325	1.365	0.0008

System: propyl methanoate; phases: Liquid
Property: Mass density, kg/m3 (Liquid); method: VIBTUB:UFactor:4
Temperature, K	Pressure, kPa	Mass density, kg/m3	uncertainty
303.15	101.325	893.84	0.54

System: propyl methanoate; phases: Liquid
Property: Mass density, kg/m3 (Liquid); method: VIBTUB:UFactor:4
Temperature, K	Pressure, kPa	Mass density, kg/m3	uncertainty
318.15	101.325	875.56	0.55

System: propyl methanoate; phases: Liquid, Gas
Property: Vapor or sublimation pressure, kPa (Liquid); method: EBULLIO:UFactor:12
Temperature, K	Vapor or sublimation pressure, kPa	uncertainty
327.46	40.15	0.14
328.16	41.27	0.14
329.18	42.84	0.14
329.82	43.83	0.14
330.59	45.21	0.15
331.39	46.74	0.15
332.25	47.95	0.15
332.94	49.22	0.15
333.66	50.78	0.15
334.29	51.81	0.15
335.07	53.22	0.16
335.67	54.78	0.16
336.5	56.18	0.16
337.03	57.37	0.16
337.52	58.48	0.16
338.33	60.1	0.17
338.86	61.22	0.17
339.57	62.78	0.17
339.98	63.77	0.17
340.81	65.54	0.17
341.27	66.75	0.18
341.76	67.92	0.18
342.38	69.35	0.18
343.04	70.87	0.18
343.48	71.97	0.18
344.09	73.41	0.18
344.53	74.63	0.19
345.02	76.02	0.19
345.47	77.14	0.19
346.1	78.74	0.19
346.49	79.91	0.19
347.11	81.54	0.2
347.49	82.63	0.2
348.02	83.95	0.2
348.5	85.4	0.2
348.91	86.62	0.2
349.36	87.87	0.2
349.81	89.23	0.21
350.3	90.72	0.21
350.81	92.08	0.21
351.16	93.24	0.21
351.58	94.54	0.21
352.12	96.11	0.22
352.5	97.42	0.22
352.93	98.7	0.22
353.31	100.09	0.22
353.64	101.2	0.22
353.76	101.32	0.22
354.06	102.55	0.22
354.57	104.04	0.23
354.9	105.28	0.23
355.29	106.69	0.23
355.66	107.94	0.23
356.11	109.37	0.23
356.48	110.63	0.24
356.82	111.95	0.24
357.28	113.41	0.24
357.58	114.71	0.24
357.96	116.06	0.24
358.33	117.23	0.24
358.68	118.72	0.25
359.06	120.04	0.25
359.46	121.43	0.25
359.75	122.55	0.25
360.06	123.91	0.25
360.48	125.41	0.25
360.81	126.56	0.26
361.15	127.96	0.26
361.52	129.37	0.26
361.82	130.63	0.26
362.18	131.96	0.27
362.55	133.55	0.27
362.86	134.73	0.27
363.17	136.08	0.27
363.47	137.24	0.27
363.85	138.75	0.28
364.1	140.03	0.28
364.44	141.27	0.28
364.75	142.69	0.28
365.06	143.88	0.28
365.38	145.41	0.29
365.66	146.72	0.28
366.03	148.06	0.29
366.3	149.41	0.29
366.6	150.62	0.29
366.85	152.01	0.29
367.17	153.22	0.29
367.46	154.59	0.3
367.78	156.05	0.3
368.05	157.21	0.3
368.4	158.73	0.3
368.65	160.04	0.31
368.96	161.42	0.31
369.19	162.5	0.31

System: propyl ethanoate; phases: Liquid
Property: Refractive index (Na D-line) (Liquid); method: Standard Abbe refractometry
Temperature, K	Pressure, kPa	Refractive index (Na D-line)	uncertainty
303.15	101.325	1.3792	0.0008

System: propyl ethanoate; phases: Liquid
Property: Refractive index (Na D-line) (Liquid); method: Standard Abbe refractometry
Temperature, K	Pressure, kPa	Refractive index (Na D-line)	uncertainty
318.15	101.325	1.3723	0.0008

System: propyl ethanoate; phases: Liquid
Property: Mass density, kg/m3 (Liquid); method: VIBTUB:UFactor:4
Temperature, K	Pressure, kPa	Mass density, kg/m3	uncertainty
303.15	101.325	876.29	0.55

System: propyl ethanoate; phases: Liquid
Property: Mass density, kg/m3 (Liquid); method: VIBTUB:UFactor:4
Temperature, K	Pressure, kPa	Mass density, kg/m3	uncertainty
318.15	101.325	859.78	0.56

System: propyl ethanoate; phases: Liquid, Gas
Property: Vapor or sublimation pressure, kPa (Liquid); method: EBULLIO:UFactor:12
Temperature, K	Vapor or sublimation pressure, kPa	uncertainty
346.36	39.93	0.14
347.24	41.38	0.14
348.26	42.7	0.14
349.06	43.97	0.14
349.83	45.25	0.15
350.7	46.7	0.15
351.5	47.91	0.15
352.27	49.26	0.15
353.04	50.82	0.15
353.86	52.01	0.15
354.4	53.3	0.16
355.27	54.67	0.16
356	56.06	0.16
356.66	57.35	0.16
357.26	58.73	0.16
357.9	60.02	0.17
358.62	61.37	0.17
359.26	62.63	0.17
359.91	63.95	0.17
360.48	65.35	0.17
361.07	66.74	0.18
361.64	68.02	0.18
362.32	69.41	0.18
362.93	70.71	0.18
363.46	72.01	0.18
364.07	73.37	0.18
364.61	74.69	0.19
365.08	75.94	0.19
365.61	77.29	0.19
366.18	78.71	0.19
366.74	80.02	0.19
367.17	81.41	0.2
367.62	82.62	0.2
368.22	84.03	0.2
368.71	85.34	0.2
369.17	86.59	0.2
369.62	88.02	0.2
370.1	89.26	0.2
370.67	90.71	0.21
371.05	92.01	0.21
371.5	93.22	0.21
371.96	94.56	0.21
372.42	95.92	0.21
372.91	97.22	0.22
373.36	98.72	0.22
373.8	100.02	0.22
374.17	101.32	0.22
374.57	102.59	0.22
375.06	104.06	0.22
375.48	105.27	0.23
375.89	106.69	0.23
376.24	107.91	0.23
376.66	109.23	0.23
377.13	110.71	0.24
377.47	112.02	0.24
377.91	113.29	0.24
378.34	114.72	0.24
378.67	116.04	0.24
379.06	117.24	0.24
379.44	118.56	0.25
379.86	120.04	0.25
380.17	121.35	0.25
380.59	122.71	0.25
380.95	123.93	0.25
381.24	125.23	0.26
381.58	126.55	0.26
381.95	127.93	0.26
382.35	129.43	0.26
382.67	130.53	0.26
383	131.85	0.27
383.34	133.24	0.27
383.77	134.71	0.27
384.08	136.05	0.27
384.4	137.37	0.27
384.75	138.63	0.27
385.1	139.99	0.27
385.42	141.25	0.28
385.77	142.72	0.28
386.07	143.94	0.28
386.37	145.34	0.28
386.7	146.57	0.28
387.06	148.02	0.29
387.31	149.25	0.29
387.66	150.56	0.29
387.98	151.97	0.29
388.27	153.32	0.3
388.54	154.58	0.29
388.92	156.05	0.3
389.18	157.37	0.3
389.48	158.71	0.3
389.75	159.92	0.3
390.07	161.33	0.31
390.34	162.57	0.31
390.68	163.96	0.31

System: propyl propanoate; phases: Liquid
Property: Refractive index (Na D-line) (Liquid); method: ABBE:UFactor:2
Temperature, K	Pressure, kPa	Refractive index (Na D-line)	uncertainty
303.15	101.325	1.3882	0.0011

System: propyl propanoate; phases: Liquid
Property: Refractive index (Na D-line) (Liquid); method: ABBE:UFactor:2
Temperature, K	Pressure, kPa	Refractive index (Na D-line)	uncertainty
318.15	101.325	1.3812	0.0011

System: propyl propanoate; phases: Liquid
Property: Mass density, kg/m3 (Liquid); method: VIBTUB:UFactor:8
Temperature, K	Pressure, kPa	Mass density, kg/m3	uncertainty
303.15	101.325	870.3	1.11

System: propyl propanoate; phases: Liquid
Property: Mass density, kg/m3 (Liquid); method: VIBTUB:UFactor:8
Temperature, K	Pressure, kPa	Mass density, kg/m3	uncertainty
318.15	101.325	854.52	1.13

System: propyl propanoate; phases: Liquid, Gas
Property: Vapor or sublimation pressure, kPa (Liquid); method: EBULLIO:UFactor:12
Temperature, K	Vapor or sublimation pressure, kPa	uncertainty
366.23	39.89	0.16
367.27	41.36	0.16
368.07	42.61	0.16
368.98	43.92	0.16
369.87	45.32	0.17
370.68	46.63	0.17
371.56	47.95	0.17
372.37	49.27	0.17
373.17	50.69	0.18
373.87	51.93	0.18
374.72	53.29	0.18
375.46	54.69	0.18
376.07	55.93	0.19
376.9	57.26	0.19
377.62	58.62	0.19
378.26	59.88	0.19
378.98	61.27	0.2
379.63	62.67	0.2
380.28	63.97	0.2
380.97	65.29	0.21
381.51	66.62	0.21
382.1	67.91	0.21
382.79	69.27	0.21
383.45	70.67	0.22
384.05	71.97	0.22
384.62	73.27	0.22
385.13	74.63	0.23
385.72	76.01	0.23
386.32	77.23	0.23
386.87	78.55	0.23
387.36	79.83	0.24
387.99	81.28	0.24
388.51	82.58	0.24
389.05	83.96	0.25
389.5	85.35	0.25
390.03	86.63	0.25
390.5	87.96	0.25
391	89.28	0.26
391.51	90.68	0.26
392	91.96	0.26
392.47	93.27	0.26
393	94.62	0.27
393.47	95.96	0.27
393.89	97.26	0.27
394.37	98.62	0.28
394.82	99.92	0.28
395.32	101.43	0.28
395.39	101.32	0.28
395.74	102.64	0.29
396.19	103.94	0.29
396.61	105.29	0.29
397.12	106.62	0.29
397.48	107.94	0.3
398	109.34	0.3
398.37	110.55	0.3
398.76	111.92	0.3
399.26	113.27	0.31
399.62	114.61	0.31
400.03	115.83	0.31
400.4	117.01	0.32
400.85	118.59	0.32
401.29	120	0.32
401.65	121.25	0.33
401.98	122.57	0.33
402.43	123.96	0.33
402.75	125.25	0.33
403.17	126.73	0.34
403.54	127.97	0.34
403.94	129.24	0.34
404.23	130.45	0.35
404.62	131.95	0.35
405.07	133.29	0.35
405.42	134.57	0.35
405.78	135.99	0.36
406.11	137.21	0.36
406.49	138.59	0.36
406.86	140.04	0.37
407.17	141.31	0.37
407.5	142.56	0.37
407.86	144.05	0.37
408.26	145.37	0.38
408.59	146.68	0.38
408.84	147.9	0.38
409.19	149.29	0.38
409.56	150.48	0.39
409.86	151.93	0.39
410.19	153.29	0.4
410.54	154.72	0.4
410.87	155.88	0.4
411.19	157.28	0.41
411.46	158.5	0.41
411.86	160.04	0.41
412.14	161.24	0.41
412.48	162.64	0.42
412.72	163.78	0.42

System: propyl butanoate; phases: Liquid
Property: Refractive index (Na D-line) (Liquid); method: Standard Abbe refractometry
Temperature, K	Pressure, kPa	Refractive index (Na D-line)	uncertainty
303.15	101.325	1.395	0.0008

System: propyl butanoate; phases: Liquid
Property: Refractive index (Na D-line) (Liquid); method: Standard Abbe refractometry
Temperature, K	Pressure, kPa	Refractive index (Na D-line)	uncertainty
318.15	101.325	1.3885	0.0008

System: propyl butanoate; phases: Liquid
Property: Mass density, kg/m3 (Liquid); method: VIBTUB:UFactor:4
Temperature, K	Pressure, kPa	Mass density, kg/m3	uncertainty
303.15	101.325	862.94	0.56

System: propyl butanoate; phases: Liquid
Property: Mass density, kg/m3 (Liquid); method: VIBTUB:UFactor:4
Temperature, K	Pressure, kPa	Mass density, kg/m3	uncertainty
318.15	101.325	848.25	0.57

System: propyl butanoate; phases: Liquid, Gas
Property: Vapor or sublimation pressure, kPa (Liquid); method: EBULLIO:UFactor:12
Temperature, K	Vapor or sublimation pressure, kPa	uncertainty
388.56	43.87	0.14
389.46	45.25	0.15
390.48	46.7	0.15
391.3	47.94	0.15
392.02	49.13	0.15
392.88	50.51	0.15
393.72	51.81	0.15
394.46	53.11	0.16
395.34	54.57	0.16
396	55.71	0.16
396.93	57.26	0.16
397.62	58.55	0.16
398.28	59.77	0.16
399.01	61.21	0.17
399.87	62.75	0.17
400.41	63.83	0.17
401.24	65.43	0.17
401.94	66.83	0.17
402.48	67.94	0.17
403.26	69.43	0.18
403.72	70.41	0.18
404.37	71.86	0.18
405.16	73.41	0.18
405.63	74.55	0.18
406.31	76.1	0.19
406.87	77.29	0.19
407.55	78.82	0.19
408	79.94	0.19
408.69	81.52	0.19
409.1	82.49	0.19
409.69	83.91	0.2
410.31	85.43	0.2
410.74	86.46	0.2
411.26	87.71	0.2
411.87	89.22	0.2
412.52	90.83	0.21
412.97	92.04	0.21
413.49	93.23	0.21
414.13	94.87	0.21
414.55	96.02	0.21
416.09	100.22	0.22
416.37	101.09	0.22
416.41	101.32	0.22
416.89	102.54	0.22
417.45	104.08	0.22
417.9	105.49	0.23
418.38	106.89	0.23
418.76	108.16	0.23
419.27	109.48	0.23
419.72	110.81	0.23
420.16	112.15	0.24
420.57	113.51	0.24
421.03	114.8	0.24
421.41	116.01	0.24
421.88	117.53	0.24
422.3	118.83	0.24
422.73	120.27	0.25
423.4	122.43	0.25
423.77	123.91	0.25
424.21	125.2	0.25
424.67	126.72	0.25
425.03	127.89	0.26
425.49	129.4	0.26
425.88	130.76	0.26
426.24	132.19	0.26
426.6	133.49	0.26
426.99	134.84	0.27
427.36	136.08	0.27
427.74	137.52	0.27
428.1	138.84	0.27
428.41	139.92	0.27
428.86	141.48	0.28
429.17	142.83	0.28
429.5	144.03	0.28
429.94	145.46	0.28
430.24	146.7	0.28
430.6	148.16	0.28
431.02	149.64	0.29
431.33	150.89	0.29
431.67	152.16	0.29
431.99	153.5	0.29
432.37	154.82	0.29
432.62	156.09	0.3
432.98	157.5	0.3
433.25	158.57	0.3
433.67	160.22	0.3
434.04	161.76	0.3

System: 2-methylpropan-2-ol + propyl methanoate; phases: Liquid, Gas
Fixed: Pressure, kPa = 101.32
Property: Boiling temperature at pressure P, K (Liquid); method: EBULLIO:UFactor:4
Mole fraction of propyl methanoate	Boiling temperature at pressure P, K	uncertainty
0.0251	354.61	0.12
0.0339	354.47	0.12
0.0424	354.27	0.12
0.0599	354.01	0.12
0.0895	353.59	0.12
0.1153	353.17	0.12
0.1217	353.12	0.12
0.152	352.75	0.12
0.1799	352.47	0.12
0.1964	352.27	0.12
0.2233	352.06	0.12
0.2684	351.67	0.12
0.3284	351.31	0.13
0.384	351.04	0.13
0.4104	350.91	0.13
0.4526	350.77	0.13
0.4955	350.65	0.13
0.5427	350.56	0.13
0.5826	350.53	0.13
0.6223	350.52	0.13
0.6509	350.51	0.13
0.6832	350.63	0.13
0.7095	350.69	0.13
0.7366	350.79	0.13
0.7586	350.9	0.13
0.7743	350.96	0.13
0.7816	351	0.13
0.8201	351.3	0.13
0.8353	351.46	0.13
0.8754	351.86	0.13
0.8988	352.1	0.13
0.9117	352.32	0.13
0.9437	352.63	0.13
0.9624	352.9	0.13
0.9692	352.97	0.13

System: 2-methylpropan-2-ol + propyl methanoate; phases: Gas, Liquid
Fixed: Pressure, kPa = 101.32
Property: Mole fraction of propyl methanoate (Gas); method: Density calibration data
Mole fraction of propyl methanoate	Mole fraction of propyl methanoate	uncertainty
0.0251	0.0409	0.0001
0.0339	0.0548	0.0001
0.0424	0.068	0.0001
0.0599	0.0942	0.0001
0.0895	0.1382	0.0002
0.1153	0.1715	0.0003
0.1217	0.1808	0.0003
0.152	0.218	0.0004
0.1799	0.2535	0.0006
0.1964	0.2707	0.0007
0.2233	0.2971	0.0009
0.2684	0.3421	0.0013
0.3284	0.3942	0.0018
0.384	0.4423	0.0024
0.4104	0.4642	0.0027
0.4526	0.4976	0.0032
0.4955	0.5321	0.0033
0.5427	0.5669	0.0034
0.5826	0.5973	0.0035
0.6223	0.6267	0.0035
0.6509	0.6475	0.0034
0.6832	0.6731	0.0034
0.7095	0.6944	0.0033
0.7366	0.7168	0.0033
0.7586	0.7333	0.0032
0.7743	0.7458	0.0031
0.7816	0.7518	0.0031
0.8201	0.7876	0.0028
0.8353	0.8024	0.0027
0.8754	0.8425	0.0024
0.8988	0.867	0.0021
0.9117	0.8816	0.0019
0.9437	0.9183	0.0014
0.9624	0.9417	0.0011
0.9692	0.9503	0.0009

System: 2-methylpropan-2-ol + propyl methanoate; phases: Liquid
Fixed: Pressure, kPa = 101
Property: Excess molar enthalpy (molar enthalpy of mixing), kJ/mol (Liquid); method: Calvet calorimetry
Temperature, K	Mole fraction of propyl methanoate	Excess molar enthalpy (molar enthalpy of mixing), kJ/mol	uncertainty
299.15	0.0586	0.4721	0.0107
299.15	0.1196	0.9156	0.0198
299.15	0.1857	1.2815	0.0275
299.15	0.2507	1.5596	0.0334
299.15	0.313	1.9015	0.0406
299.15	0.3707	1.9824	0.0423
299.15	0.4261	1.9824	0.0423
299.15	0.4696	2.0153	0.043
299.15	0.5063	2.0159	0.043
299.15	0.5486	1.9966	0.0426
299.15	0.5939	1.9557	0.0417
299.15	0.6413	1.8589	0.0397
299.15	0.691	1.725	0.0369
299.15	0.7439	1.5442	0.033
299.15	0.7982	1.2971	0.0278
299.15	0.8522	1.018	0.022
299.15	0.9063	0.6845	0.015
299.15	0.9553	0.3501	0.0082
318.15	0.056	0.413	0.0093
318.15	0.1213	0.8001	0.0174
318.15	0.1861	1.1428	0.0246
318.15	0.2515	1.4219	0.0304
318.15	0.3123	1.6416	0.0351
318.15	0.3674	1.7909	0.0382
318.15	0.4247	1.9159	0.0409
318.15	0.4661	1.9568	0.0418
318.15	0.5122	1.9718	0.0421
318.15	0.5643	1.9478	0.0416
318.15	0.6206	1.8701	0.0399
318.15	0.6781	1.7401	0.0372
318.15	0.7432	1.5341	0.0328
318.15	0.8096	1.2483	0.0268
318.15	0.8771	0.8759	0.019
318.15	0.9405	0.4706	0.0106

System: 2-methylpropan-2-ol + propyl methanoate; phases: Liquid
Fixed: Pressure, kPa = 101.325
Property: Excess molar volume, m3/mol (Liquid); method: SAME:UFactor:2
Temperature, K	Mole fraction of propyl methanoate	Excess molar volume, m3/mol	uncertainty
303.15	0.0613	2.32e-07	2e-08
303.15	0.1022	3.52e-07	2e-08
303.15	0.1561	4.81e-07	2e-08
303.15	0.2147	5.86e-07	1.9e-08
303.15	0.2631	6.58e-07	1.9e-08
303.15	0.311	7.04e-07	1.9e-08
303.15	0.3604	7.32e-07	1.9e-08
303.15	0.404	7.49e-07	1.9e-08
303.15	0.4646	7.6e-07	1.9e-08
303.15	0.5126	7.51e-07	1.9e-08
303.15	0.5729	7.18e-07	1.9e-08
303.15	0.61	6.98e-07	1.9e-08
303.15	0.6562	6.68e-07	1.9e-08
303.15	0.7206	5.82e-07	1.9e-08
303.15	0.7634	5.33e-07	1.9e-08
303.15	0.8152	4.54e-07	1.9e-08
303.15	0.8518	3.82e-07	1.9e-08
303.15	0.9058	2.67e-07	1.9e-08
303.15	0.9558	1.42e-07	1.9e-08
318.15	0.0501	2.08e-07	2e-08
318.15	0.1178	4.08e-07	2e-08
318.15	0.1718	5.3e-07	2e-08
318.15	0.2218	6.09e-07	1.9e-08
318.15	0.2859	6.91e-07	1.9e-08
318.15	0.3445	7.34e-07	1.9e-08
318.15	0.3889	7.65e-07	1.9e-08
318.15	0.4438	7.81e-07	1.9e-08
318.15	0.5033	7.74e-07	1.9e-08
318.15	0.5574	7.63e-07	1.9e-08
318.15	0.6203	7.29e-07	1.9e-08
318.15	0.678	6.63e-07	1.9e-08
318.15	0.7401	5.97e-07	1.9e-08
318.15	0.7996	4.99e-07	1.9e-08
318.15	0.8551	4.04e-07	1.9e-08
318.15	0.9117	2.7e-07	1.9e-08

System: 2-methylpropan-2-ol + propyl ethanoate; phases: Liquid, Gas
Fixed: Pressure, kPa = 101.32
Property: Boiling temperature at pressure P, K (Liquid); method: EBULLIO:UFactor:4
Mole fraction of propyl ethanoate	Boiling temperature at pressure P, K	uncertainty
0.0601	355.88	0.12
0.0859	356.02	0.12
0.1183	356.21	0.12
0.1557	356.47	0.12
0.203	356.87	0.12
0.2424	357.18	0.12
0.2796	357.53	0.12
0.3053	357.85	0.12
0.3494	358.32	0.13
0.3858	358.77	0.13
0.4255	359.25	0.13
0.4488	359.58	0.13
0.4797	360.01	0.13
0.5078	360.49	0.13
0.5474	361.12	0.13
0.5753	361.63	0.13
0.6172	362.4	0.13
0.6493	363.05	0.13
0.697	364.15	0.13
0.7302	364.95	0.13
0.7591	365.68	0.13
0.7938	366.67	0.13
0.8127	367.24	0.13
0.8153	367.33	0.13
0.8265	367.67	0.13
0.8721	369.12	0.13
0.8971	369.97	0.13
0.9127	370.56	0.13
0.9375	371.51	0.13
0.9623	372.47	0.13
0.9806	373.23	0.13

System: 2-methylpropan-2-ol + propyl ethanoate; phases: Gas, Liquid
Fixed: Pressure, kPa = 101.32
Property: Mole fraction of propyl ethanoate (Gas); method: Density calibration data
Mole fraction of propyl ethanoate	Mole fraction of propyl ethanoate	uncertainty
0.0601	0.0492	0.0001
0.0859	0.0695	0.0001
0.1183	0.0944	0.0001
0.1557	0.1203	0.0001
0.203	0.1529	0.0002
0.2424	0.1791	0.0003
0.2796	0.2024	0.0004
0.3053	0.2189	0.0004
0.3494	0.2476	0.0006
0.3858	0.2723	0.0007
0.4255	0.2997	0.0009
0.4488	0.3153	0.001
0.4797	0.3389	0.0012
0.5078	0.3602	0.0014
0.5474	0.3903	0.0017
0.5753	0.4147	0.002
0.6172	0.4524	0.0025
0.6493	0.4825	0.003
0.697	0.5319	0.0033
0.7302	0.5687	0.0034
0.7591	0.6033	0.0035
0.7938	0.6485	0.0034
0.8127	0.6741	0.0034
0.8153	0.677	0.0034
0.8265	0.6927	0.0033
0.8721	0.7625	0.003
0.8971	0.8032	0.0027
0.9127	0.8307	0.0025
0.9375	0.8748	0.002
0.9623	0.9222	0.0014
0.9806	0.9592	0.0008

System: 2-methylpropan-2-ol + propyl ethanoate; phases: Liquid
Fixed: Pressure, kPa = 101.325
Property: Excess molar enthalpy (molar enthalpy of mixing), kJ/mol (Liquid); method: Calvet calorimetry
Temperature, K	Mole fraction of propyl ethanoate	Excess molar enthalpy (molar enthalpy of mixing), kJ/mol	uncertainty
299.15	0.0506	0.3334	0.0077
299.15	0.1059	0.6663	0.0146
299.15	0.1612	0.9933	0.0214
299.15	0.2204	1.2566	0.027
299.15	0.2796	1.4752	0.0316
299.15	0.3339	1.6229	0.0347
299.15	0.387	1.7272	0.0369
299.15	0.4295	1.8037	0.0385
299.15	0.4677	1.8253	0.039
299.15	0.5217	1.8354	0.0392
299.15	0.5786	1.8038	0.0385
299.15	0.6401	1.7137	0.0366
299.15	0.7062	1.5555	0.0333
299.15	0.7783	1.307	0.028
299.15	0.8559	0.9458	0.0204
299.15	0.9283	0.5393	0.0119
318.15	0.0437	0.2532	0.006
318.15	0.0939	0.5206	0.0115
318.15	0.149	0.8039	0.0174
318.15	0.204	1.0573	0.0227
318.15	0.2592	1.2791	0.0274
318.15	0.3141	1.4896	0.0319
318.15	0.3611	1.6179	0.0346
318.15	0.3804	1.6703	0.0357
318.15	0.4115	1.7373	0.0371
318.15	0.4179	1.7478	0.0373
318.15	0.4562	1.7898	0.0382
318.15	0.4638	1.7941	0.0383
318.15	0.4957	1.8156	0.0388
318.15	0.5115	1.822	0.0389
318.15	0.5704	1.7984	0.0384
318.15	0.6343	1.7147	0.0366
318.15	0.7055	1.5485	0.0331
318.15	0.7756	1.3037	0.0279
318.15	0.8554	0.9372	0.0202
318.15	0.9304	0.5056	0.0112

System: 2-methylpropan-2-ol + propyl ethanoate; phases: Liquid
Fixed: Pressure, kPa = 101.325
Property: Excess molar volume, m3/mol (Liquid); method: Calculated with densities of this investigation
Temperature, K	Mole fraction of propyl ethanoate	Excess molar volume, m3/mol	uncertainty
303.15	0.0592	1.74e-07	1.3e-08
303.15	0.0987	2.77e-07	1.3e-08
303.15	0.1549	4.02e-07	1.2e-08
303.15	0.1964	4.84e-07	1.1e-08
303.15	0.2539	5.75e-07	1.1e-08
303.15	0.3093	6.43e-07	1e-08
303.15	0.3593	6.87e-07	1e-08
303.15	0.4083	7.15e-07	1e-08
303.15	0.4512	7.26e-07	1e-08
303.15	0.5076	7.23e-07	1e-08
303.15	0.5677	7.02e-07	1e-08
303.15	0.6144	6.72e-07	1e-08
303.15	0.6505	6.41e-07	1e-08
303.15	0.706	5.83e-07	1e-08
303.15	0.7481	5.25e-07	1.1e-08
303.15	0.818	4.12e-07	1.1e-08
303.15	0.869	3.12e-07	1.2e-08
303.15	0.9167	2.07e-07	1.2e-08
303.15	0.9469	1.35e-07	1.3e-08
318.15	0.0724	2.17e-07	1.4e-08
318.15	0.1084	3.16e-07	1.3e-08
318.15	0.1406	3.82e-07	1.2e-08
318.15	0.1989	4.95e-07	1.1e-08
318.15	0.26	5.76e-07	1e-08
318.15	0.3076	6.27e-07	1e-08
318.15	0.358	6.79e-07	1e-08
318.15	0.4059	7.12e-07	1e-08
318.15	0.4689	7.27e-07	1e-08
318.15	0.5226	7.23e-07	1e-08
318.15	0.5801	6.99e-07	1e-08
318.15	0.6377	6.57e-07	1e-08
318.15	0.7098	5.97e-07	1e-08
318.15	0.7775	5.13e-07	1.1e-08
318.15	0.829	4.19e-07	1.2e-08
318.15	0.906	2.57e-07	1.2e-08

System: 2-methylpropan-2-ol + propyl propanoate; phases: Liquid, Gas
Fixed: Pressure, kPa = 101.32
Property: Boiling temperature at pressure P, K (Liquid); method: EBULLIO:UFactor:6
Mole fraction of propyl propanoate	Boiling temperature at pressure P, K	uncertainty
0.0207	355.92	0.19
0.0347	356.13	0.19
0.0884	357.05	0.19
0.1384	357.91	0.19
0.1864	358.77	0.19
0.2368	359.73	0.19
0.2835	360.66	0.19
0.3311	361.66	0.19
0.3638	362.37	0.19
0.4106	363.41	0.19
0.4476	364.35	0.19
0.5072	365.97	0.19
0.5549	367.36	0.19
0.5955	368.77	0.19
0.6422	370.4	0.19
0.6721	371.51	0.19
0.6925	372.48	0.19
0.7107	373.31	0.19
0.7223	373.87	0.19
0.7391	374.69	0.19
0.7739	376.49	0.2
0.7944	377.6	0.2
0.8075	378.45	0.2
0.8145	378.89	0.2
0.8361	380.14	0.2
0.8504	381.12	0.2
0.8722	382.7	0.2
0.8877	383.91	0.2
0.9074	385.47	0.2
0.9246	387.09	0.2
0.9379	388.37	0.2
0.9548	390.02	0.2
0.9692	391.54	0.2
0.9828	393.08	0.2
0.9946	394.54	0.2

System: 2-methylpropan-2-ol + propyl propanoate; phases: Gas, Liquid
Fixed: Pressure, kPa = 101.32
Property: Mole fraction of propyl propanoate (Gas); method: Density calibration data
Mole fraction of propyl propanoate	Mole fraction of propyl propanoate	uncertainty
0.0207	0.0087	0.0001
0.0347	0.0142	0.0001
0.0884	0.0348	0.0001
0.1384	0.0539	0.0001
0.1864	0.0727	0.0001
0.2368	0.0931	0.0001
0.2835	0.1122	0.0001
0.3311	0.1331	0.0002
0.3638	0.1477	0.0002
0.4106	0.1688	0.0003
0.4476	0.1883	0.0004
0.5072	0.2214	0.0007
0.5549	0.2502	0.0009
0.5955	0.2797	0.0012
0.6422	0.315	0.0017
0.6721	0.3404	0.002
0.6925	0.3608	0.0024
0.7107	0.3791	0.0027
0.7223	0.3917	0.003
0.7391	0.411	0.0034
0.7739	0.4525	0.0044
0.7944	0.4809	0.0052
0.8075	0.5009	0.0058
0.8145	0.5119	0.0058
0.8361	0.5449	0.0061
0.8504	0.5701	0.0062
0.8722	0.6123	0.0064
0.8877	0.6457	0.0064
0.9074	0.6914	0.0063
0.9246	0.7372	0.006
0.9379	0.7754	0.0056
0.9548	0.8262	0.0049
0.9692	0.8767	0.0039
0.9828	0.9277	0.0025
0.9946	0.9765	0.0009

System: 2-methylpropan-2-ol + propyl propanoate; phases: Liquid
Fixed: Pressure, kPa = 101.325
Property: Excess molar enthalpy (molar enthalpy of mixing), kJ/mol (Liquid); method: Calvet calorimetry
Temperature, K	Mole fraction of propyl propanoate	Excess molar enthalpy (molar enthalpy of mixing), kJ/mol	uncertainty
299.15	0.0452	0.2736	0.0064
299.15	0.1058	0.5888	0.0129
299.15	0.1761	0.9329	0.0201
299.15	0.2493	1.25	0.0268
299.15	0.3205	1.4748	0.0315
299.15	0.3891	1.6299	0.0348
299.15	0.4006	1.6526	0.0353
299.15	0.4527	1.7049	0.0364
299.15	0.4631	1.7197	0.0367
299.15	0.5064	1.7289	0.0369
299.15	0.537	1.7251	0.0368
299.15	0.5573	1.7247	0.0368
299.15	0.6235	1.66	0.0355
299.15	0.7205	1.437	0.0308
299.15	0.824	1.0455	0.0225
299.15	0.9193	0.5383	0.0119
318.15	0.0426	0.2375	0.0057
318.15	0.0877	0.4778	0.0106
318.15	0.1426	0.733	0.0159
318.15	0.1958	0.9686	0.0209
318.15	0.2492	1.1894	0.0255
318.15	0.2972	1.3438	0.0288
318.15	0.3488	1.4898	0.0319
318.15	0.3964	1.5917	0.034
318.15	0.4416	1.6744	0.0358
318.15	0.4831	1.7166	0.0367
318.15	0.5037	1.7235	0.0368
318.15	0.5223	1.7252	0.0368
318.15	0.5476	1.7198	0.0367
318.15	0.596	1.6848	0.036
318.15	0.6467	1.6179	0.0346
318.15	0.7169	1.4509	0.031
318.15	0.7848	1.2161	0.0261
318.15	0.8547	0.8906	0.0192
318.15	0.9376	0.4531	0.0101

System: 2-methylpropan-2-ol + propyl propanoate; phases: Liquid
Fixed: Pressure, kPa = 101.325
Property: Excess molar volume, m3/mol (Liquid); method: Calculated with densities of this investigation
Temperature, K	Mole fraction of propyl propanoate	Excess molar volume, m3/mol	uncertainty
303.15	0.0519	1.28e-07	1.2e-08
303.15	0.0971	2.19e-07	1.2e-08
303.15	0.1468	3.13e-07	1.1e-08
303.15	0.1972	3.85e-07	1e-08
303.15	0.246	4.49e-07	1e-08
303.15	0.3032	5.02e-07	1e-08
303.15	0.354	5.32e-07	9e-09
303.15	0.4065	5.63e-07	9e-09
303.15	0.417	5.61e-07	9e-09
303.15	0.4435	5.69e-07	9e-09
303.15	0.5157	5.7e-07	9e-09
303.15	0.551	5.65e-07	9e-09
303.15	0.5642	5.6e-07	9e-09
303.15	0.6113	5.49e-07	9e-09
303.15	0.6623	5.21e-07	1e-08
303.15	0.7079	4.78e-07	1e-08
303.15	0.7473	4.36e-07	1e-08
303.15	0.8144	3.48e-07	1e-08
303.15	0.8578	2.81e-07	1.1e-08
303.15	0.9001	2.07e-07	1.1e-08
303.15	0.9394	1.36e-07	1.1e-08
318.15	0.0468	8.6e-08	1.2e-08
318.15	0.0882	1.77e-07	1.1e-08
318.15	0.1301	2.34e-07	1e-08
318.15	0.1715	3.02e-07	1.1e-08
318.15	0.2283	3.83e-07	1e-08
318.15	0.2828	4.43e-07	1e-08
318.15	0.3149	4.66e-07	1e-08
318.15	0.3684	5.18e-07	1e-08
318.15	0.4016	5.51e-07	9e-09
318.15	0.4898	5.84e-07	9e-09
318.15	0.5525	5.77e-07	9e-09
318.15	0.6085	5.65e-07	9e-09
318.15	0.6761	5.31e-07	1e-08
318.15	0.7366	4.77e-07	1e-08
318.15	0.8205	3.87e-07	1.1e-08
318.15	0.901	2.3e-07	1.2e-08

System: 2-methylpropan-2-ol + propyl butanoate; phases: Liquid, Gas
Fixed: Pressure, kPa = 101.32
Property: Boiling temperature at pressure P, K (Liquid); method: EBULLIO:UFactor:8
Mole fraction of propyl butanoate	Boiling temperature at pressure P, K	uncertainty
0.0147	355.9	0.25
0.0381	356.4	0.25
0.0631	356.89	0.25
0.0997	357.77	0.25
0.1295	358.44	0.25
0.1675	359.32	0.25
0.2009	360.04	0.25
0.2488	361.26	0.25
0.3071	362.67	0.25
0.3523	363.98	0.25
0.4004	365.37	0.25
0.4095	365.72	0.25
0.4285	366.26	0.25
0.4732	367.94	0.25
0.4962	368.56	0.25
0.5109	369.17	0.25
0.5358	370.06	0.25
0.6001	372.96	0.25
0.6615	375.93	0.25
0.6997	378.23	0.25
0.7332	380.38	0.25
0.7695	383	0.25
0.7986	385.49	0.25
0.8321	388.51	0.25
0.8553	391.02	0.25
0.8761	393.36	0.25
0.8933	395.7	0.25
0.9005	396.81	0.25
0.9097	398.02	0.25
0.9248	400.58	0.25
0.9325	401.76	0.25
0.9375	402.71	0.25
0.9379	402.625	0.249
0.9442	403.78	0.25
0.9504	405.01	0.25
0.9549	405.83	0.25
0.9602	406.81	0.25
0.9702	409.25	0.25
0.9806	411.38	0.25
0.9859	412.76	0.25

System: 2-methylpropan-2-ol + propyl butanoate; phases: Gas, Liquid
Fixed: Pressure, kPa = 101.32
Property: Mole fraction of propyl butanoate (Gas); method: Density calibration data
Mole fraction of propyl butanoate	Mole fraction of propyl butanoate	uncertainty
0.0147	0.003	0.0001
0.0381	0.0078	0.0001
0.0631	0.013	0.0001
0.0997	0.0205	0.0001
0.1295	0.0269	0.0001
0.1675	0.0344	0.0001
0.2009	0.041	0.0001
0.2488	0.0521	0.0001
0.3071	0.0662	0.0001
0.3523	0.0782	0.0001
0.4004	0.0928	0.0001
0.4095	0.0958	0.0001
0.4285	0.1018	0.0001
0.4732	0.1178	0.0001
0.4962	0.1247	0.0001
0.5109	0.1308	0.0001
0.5358	0.1406	0.0002
0.6001	0.1714	0.0003
0.6615	0.2078	0.0004
0.6997	0.2353	0.0005
0.7332	0.2632	0.0007
0.7695	0.3005	0.0009
0.7986	0.3357	0.0012
0.8321	0.3839	0.0017
0.8553	0.4249	0.0022
0.8761	0.4676	0.0027
0.8933	0.5085	0.0033
0.9005	0.5325	0.0034
0.9097	0.5561	0.0034
0.9248	0.6076	0.0035
0.9325	0.6348	0.0035
0.9375	0.6548	0.0034
0.9379	0.6508	0.0034
0.9442	0.6781	0.0034
0.9504	0.7055	0.0033
0.9549	0.7233	0.0032
0.9602	0.7488	0.0031
0.9702	0.8052	0.0027
0.9806	0.8613	0.0022
0.9859	0.8948	0.0017

System: 2-methylpropan-2-ol + propyl butanoate; phases: Liquid
Fixed: Pressure, kPa = 101.325
Property: Excess molar enthalpy (molar enthalpy of mixing), kJ/mol (Liquid); method: Calvet calorimetry
Temperature, K	Mole fraction of propyl butanoate	Excess molar enthalpy (molar enthalpy of mixing), kJ/mol	uncertainty
299.15	0.0342	0.1938	0.0049
299.15	0.0755	0.4208	0.0094
299.15	0.116	0.6364	0.0139
299.15	0.1522	0.8249	0.0178
299.15	0.2039	1.0328	0.0222
299.15	0.2539	1.2213	0.0262
299.15	0.2948	1.3599	0.0291
299.15	0.3409	1.484	0.0317
299.15	0.3865	1.5748	0.0337
299.15	0.4067	1.614	0.0345
299.15	0.4282	1.6437	0.0351
299.15	0.4571	1.6724	0.0357
299.15	0.515	1.6936	0.0362
299.15	0.5782	1.6805	0.0359
299.15	0.652	1.5835	0.0338
299.15	0.7324	1.3933	0.0298
299.15	0.8229	1.0557	0.0227
299.15	0.9118	0.5926	0.013
318.15	0.0544	0.2902	0.0067
318.15	0.1126	0.5789	0.0127
318.15	0.1688	0.8363	0.0181
318.15	0.2307	1.0999	0.0236
318.15	0.2881	1.2987	0.0278
318.15	0.3385	1.4343	0.0307
318.15	0.3867	1.5533	0.0332
318.15	0.426	1.6253	0.0347
318.15	0.4292	1.6305	0.0348
318.15	0.464	1.6606	0.0355
318.15	0.5016	1.6919	0.0361
318.15	0.5498	1.6879	0.036
318.15	0.5988	1.6672	0.0356
318.15	0.6689	1.5608	0.0334
318.15	0.7436	1.3709	0.0294
318.15	0.8141	1.1075	0.0238
318.15	0.8864	0.7619	0.0166
318.15	0.951	0.3676	0.0084

System: 2-methylpropan-2-ol + propyl butanoate; phases: Liquid
Fixed: Pressure, kPa = 101.325
Property: Excess molar volume, m3/mol (Liquid); method: Calculated with densities of this investigation
Temperature, K	Mole fraction of propyl butanoate	Excess molar volume, m3/mol	uncertainty
303.15	0.0472	1.01e-07	1.2e-08
303.15	0.1057	2.18e-07	1.1e-08
303.15	0.1522	3.02e-07	1.1e-08
303.15	0.196	3.6e-07	1e-08
303.15	0.2531	4.37e-07	1e-08
303.15	0.2929	4.79e-07	1e-08
303.15	0.3508	5.28e-07	1e-08
303.15	0.4039	5.55e-07	9e-09
303.15	0.4461	5.63e-07	9e-09
303.15	0.4593	5.73e-07	9e-09
303.15	0.4895	5.71e-07	9e-09
303.15	0.5459	5.65e-07	9e-09
303.15	0.554	5.68e-07	9e-09
303.15	0.5931	5.55e-07	9e-09
303.15	0.6402	5.29e-07	9e-09
303.15	0.6915	4.94e-07	1e-08
303.15	0.7449	4.4e-07	1e-08
303.15	0.7992	3.74e-07	1.1e-08
303.15	0.8526	2.84e-07	1.1e-08
303.15	0.9028	1.98e-07	1.1e-08
303.15	0.9597	8.7e-08	1.1e-08
318.15	0.035	8.6e-08	1.2e-08
318.15	0.073	1.66e-07	1.2e-08
318.15	0.1085	2.43e-07	1.2e-08
318.15	0.1678	3.52e-07	1e-08
318.15	0.2108	3.85e-07	1e-08
318.15	0.262	4.34e-07	1e-08
318.15	0.2956	4.68e-07	1e-08
318.15	0.3301	5.01e-07	9e-09
318.15	0.4003	5.42e-07	9e-09
318.15	0.456	5.61e-07	9e-09
318.15	0.5182	5.65e-07	9e-09
318.15	0.5871	5.61e-07	9e-09
318.15	0.6439	5.39e-07	9e-09
318.15	0.715	4.82e-07	1e-08
318.15	0.8068	3.88e-07	1e-08
318.15	0.8966	2.39e-07	1.1e-08
318.15	0.9299	1.69e-07	1.2e-08
