Measured thermophysical data. Ionic Liquids as Entrainers in Extractive Distillation: Isobaric Vapor-Liquid Equilibria for Acetone + Methanol + 1-Ethyl-3-methylimidazolium Trifluoromethanesulfonate
Source: J. Chem. Eng. Data, 2007, 10.1021/je0603170
Compound 1: acetone, C3H6O, InChI=1S/C3H6O/c1-3(2)4/h1-2H3, purity 99.5%
Compound 2: methanol, CH4O, InChI=1S/CH4O/c1-2/h2H,1H3, purity 99.8%
Compound 3: 1-ethyl-3-methylimidazolium trifluoromethanesulfonate, C7H11F3N2O3S, InChI=1S/C6H11N2.CHF3O3S/c1-3-8-5-4-7(2)6-8;2-1(3,4)8(5,6)7/h4-6H,3H2,1-2H3;(H,5,6,7)/q+1;/p-1, purity 98%

System: methanol + acetone; phases: Liquid, Gas
Fixed: Pressure, kPa = 100
Property: Boiling temperature at pressure P, K (Liquid); method: Ebulliometric method (Recirculating still)
Mole fraction of acetone	Boiling temperature at pressure P, K	uncertainty
0	337.41	0.09
0.015	336.9	0.11
0.029	336.45	0.11
0.057	335.6	0.1
0.097	334.52	0.1
0.137	333.58	0.1
0.176	332.72	0.09
0.214	332.05	0.09
0.254	331.45	0.09
0.292	330.95	0.09
0.331	330.48	0.09
0.372	330.06	0.09
0.412	329.7	0.09
0.449	329.39	0.09
0.491	329.1	0.09
0.531	328.86	0.09
0.574	328.66	0.09
0.617	328.43	0.09
0.659	328.31	0.09
0.697	328.2	0.09
0.727	328.15	0.09
0.743	328.13	0.09
0.76	328.13	0.09
0.781	328.13	0.09
0.8	328.14	0.09
0.82	328.15	0.09
0.841	328.18	0.09
0.862	328.23	0.09
0.883	328.29	0.09
0.93	328.49	0.09
0.972	328.75	0.09
1	329.01	0.09

System: methanol + acetone; phases: Gas, Liquid
Fixed: Pressure, kPa = 100
Property: Mole fraction of acetone (Gas); method: Chromatography
Mole fraction of acetone	Mole fraction of acetone	uncertainty
0	0	
0.015	0.034	0.005
0.029	0.063	0.005
0.057	0.119	0.004
0.097	0.188	0.004
0.137	0.247	0.004
0.176	0.303	0.004
0.214	0.348	0.004
0.254	0.388	0.004
0.292	0.423	0.005
0.331	0.456	0.005
0.372	0.489	0.005
0.412	0.518	0.005
0.449	0.546	0.005
0.491	0.576	0.005
0.531	0.603	0.004
0.574	0.63	0.004
0.617	0.662	0.004
0.659	0.69	0.004
0.697	0.718	0.004
0.727	0.739	0.004
0.743	0.751	0.004
0.76	0.765	0.003
0.781	0.781	0.003
0.8	0.797	0.003
0.82	0.813	0.003
0.841	0.83	0.003
0.862	0.85	0.003
0.883	0.87	0.003
0.93	0.918	0.003
0.972	0.964	0.003
1	1	

System: acetone + 1-ethyl-3-methylimidazolium trifluoromethanesulfonate; phases: Liquid, Gas
Fixed: Pressure, kPa = 100
Property: Boiling temperature at pressure P, K (Liquid); method: EBULLIO:UFactor:8
Mole fraction of 1-ethyl-3-methylimidazolium trifluoromethanesulfonate	Boiling temperature at pressure P, K	uncertainty
0.0157	329.45	0.68
0.0263	329.69	0.68
0.0395	330.01	0.68
0.0544	330.34	0.68
0.07	330.69	0.68
0.0832	331.01	0.68
0.1004	331.38	0.68
0.115	331.73	0.68
0.1282	332.05	0.68
0.1448	332.55	0.68
0.1585	332.85	0.68
0.1721	333.25	0.69
0.1867	333.75	0.69
0.201	334.15	0.69
0.2124	334.65	0.69
0.224	334.95	0.69
0.2359	335.35	0.69
0.2481	335.85	0.69
0.2596	336.3	0.69
0.2702	336.65	0.69
0.2769	337.05	0.69
0.2866	337.45	0.69
0.2945	337.95	0.69
0.3095	338.45	0.69
0.3236	339.15	0.69
0.3435	340.25	0.69
0.3532	340.6	0.69
0.3636	341.21	0.69
0.3686	341.45	0.69
0.3791	342.05	0.69
0.3908	342.77	0.69
0.4022	343.45	0.69
0.4105	343.55	0.69
0.4125	344.05	0.69
0.4282	344.95	0.69
0.4349	345.45	0.7
0.4399	345.95	0.69
0.4513	346.45	0.69
0.4609	347.25	0.7
0.4722	347.95	0.7
0.4876	348.95	0.7

System: methanol + 1-ethyl-3-methylimidazolium trifluoromethanesulfonate; phases: Liquid, Gas
Fixed: Pressure, kPa = 100
Property: Boiling temperature at pressure P, K (Liquid); method: EBULLIO:UFactor:8
Mole fraction of 1-ethyl-3-methylimidazolium trifluoromethanesulfonate	Boiling temperature at pressure P, K	uncertainty
0.003	337.58	0.68
0.0061	337.68	0.68
0.0117	337.87	0.68
0.0192	338.1	0.68
0.0281	338.36	0.68
0.0373	338.63	0.68
0.048	338.94	0.68
0.0563	339.19	0.68
0.0649	339.42	0.68
0.0774	339.81	0.68
0.0903	340.21	0.68
0.1048	340.68	0.68
0.1126	340.9	0.69
0.1247	341.37	0.69
0.1352	341.69	0.69
0.1447	342.05	0.69
0.1523	342.3	0.69
0.1612	342.7	0.69
0.1669	342.88	0.69
0.1798	343.3	0.69
0.1866	343.69	0.69
0.198	344.13	0.69
0.211	344.67	0.69
0.2228	345.19	0.69
0.2334	345.67	0.69
0.2455	346.21	0.69
0.2564	346.7	0.69
0.2687	347.32	0.69
0.2782	347.78	0.69
0.2921	348.45	0.69
0.3065	349.35	0.69
0.3246	350.35	0.69
0.3442	351.55	0.69
0.3656	352.75	0.69
0.3912	354.55	0.7
0.4235	356.55	0.69
0.4504	358.35	0.7
0.4743	360.15	0.7

System: methanol + acetone + 1-ethyl-3-methylimidazolium trifluoromethanesulfonate; phases: Liquid, Gas
Fixed: Pressure, kPa = 100
Property: Boiling temperature at pressure P, K (Liquid); method: EBULLIO:UFactor:8
Mole fraction of 1-ethyl-3-methylimidazolium trifluoromethanesulfonate	Solvent: Mole fraction of acetone	Boiling temperature at pressure P, K	uncertainty
0.054	1	330.3	0.68
0.055	0.98	330.18	0.68
0.056	0	339.19	0.69
0.056	0.932	330.01	0.68
0.057	0.034	338.09	0.69
0.057	0.815	329.89	0.69
0.057	0.875	329.9	0.68
0.058	0.074	337.11	0.69
0.058	0.749	329.97	0.69
0.059	0.12	336.09	0.69
0.059	0.174	335.03	0.69
0.059	0.53	330.87	0.69
0.059	0.596	330.49	0.69
0.059	0.675	330.17	0.69
0.06	0.25	333.75	0.69
0.06	0.316	332.83	0.69
0.06	0.388	332.02	0.69
0.06	0.455	331.4	0.69
0.114	0.924	331.56	0.68
0.115	1	331.73	0.68
0.116	0.817	331.64	0.69
0.116	0.979	331.66	0.68
0.117	0.758	331.73	0.69
0.117	0.873	331.62	0.69
0.118	0.632	332.18	0.69
0.119	0.578	332.48	0.69
0.119	0.689	331.94	0.69
0.12	0.464	333.37	0.69
0.12	0.52	332.89	0.69
0.121	0.082	338.9	0.69
0.121	0.399	333.93	0.69
0.122	0.358	334.47	0.69
0.123	0.016	340.6	0.69
0.123	0.122	338.13	0.69
0.123	0.163	337.39	0.69
0.123	0.209	336.6	0.69
0.124	0.259	335.8	0.69
0.125	0	341.37	0.69
0.125	0.306	335.18	0.69
0.158	0.746	333.11	0.69
0.16	0.889	332.93	0.69
0.16	1	332.93	0.69
0.162	0.636	333.72	0.69
0.163	0.021	342.01	0.69
0.163	0.581	334.14	0.69
0.163	0.696	333.35	0.69
0.165	0.829	333.25	0.69
0.166	0.298	336.96	0.69
0.166	0.522	334.65	0.69
0.167	0	342.88	0.69
0.167	0.057	341.34	0.69
0.167	0.459	335.29	0.69
0.168	0.123	340.05	0.69
0.168	0.16	339.3	0.69
0.168	0.345	336.43	0.69
0.168	0.398	335.83	0.69
0.168	0.979	333.05	0.69
0.169	0.085	340.78	0.69
0.169	0.927	333.13	0.69
0.171	0.201	338.75	0.69
0.172	0.248	338.11	0.69
0.247	0.032	345.45	0.69
0.247	0.94	335.78	0.69
0.248	0.892	336.02	0.69
0.248	1	335.85	0.69
0.249	0.839	336.3	0.69
0.25	0.79	336.66	0.69
0.253	0.738	336.86	0.69
0.254	0.116	343.97	0.69
0.254	0.418	339.77	0.69
0.255	0.689	337.3	0.69
0.256	0	346.7	0.69
0.256	0.466	339.33	0.69
0.258	0.314	340.92	0.69
0.258	0.516	338.7	0.69
0.258	0.585	338.25	0.69
0.259	0.163	343.4	0.69
0.259	0.364	340.29	0.69
0.262	0.212	342.8	0.69
0.351	0.9	340.85	0.69
0.355	0	352.05	0.69
0.355	0.831	341.46	0.69
0.356	0.756	342.02	0.69
0.358	1	340.62	0.69
0.36	0.048	351.2	0.69
0.361	0.686	342.72	0.69
0.362	0.61	343.71	0.69
0.363	0.536	344.52	0.69
0.365	0.092	350.66	0.69
0.365	0.469	345.35	0.69
0.367	0.258	348.13	0.69
0.367	0.323	347.14	0.69
0.367	0.395	346.22	0.69
0.368	0.138	350.04	0.69
0.37	0.189	349.33	0.69

System: methanol + acetone + 1-ethyl-3-methylimidazolium trifluoromethanesulfonate; phases: Gas, Liquid
Fixed: Pressure, kPa = 100
Property: Mole fraction of acetone (Gas); method: Chromatography
Mole fraction of 1-ethyl-3-methylimidazolium trifluoromethanesulfonate	Solvent: Mole fraction of acetone	Mole fraction of acetone	uncertainty
0.054	1	1	
0.055	0.98	0.981	0.019
0.056	0	0	
0.056	0.932	0.934	0.02
0.057	0.034	0.069	0.02
0.057	0.815	0.833	0.02
0.057	0.875	0.884	0.02
0.058	0.074	0.137	0.02
0.058	0.749	0.78	0.02
0.059	0.12	0.206	0.02
0.059	0.174	0.276	0.02
0.059	0.53	0.613	0.021
0.059	0.596	0.662	0.02
0.059	0.675	0.723	0.02
0.06	0.25	0.367	0.02
0.06	0.316	0.43	0.021
0.06	0.388	0.492	0.021
0.06	0.455	0.55	0.021
0.114	0.924	0.936	0.02
0.115	1	1	
0.116	0.817	0.85	0.02
0.116	0.979	0.983	0.017
0.117	0.758	0.803	0.02
0.117	0.873	0.895	0.02
0.118	0.632	0.71	0.02
0.119	0.578	0.668	0.02
0.119	0.689	0.757	0.02
0.12	0.464	0.57	0.021
0.12	0.52	0.619	0.021
0.121	0.082	0.147	0.02
0.121	0.399	0.522	0.021
0.122	0.358	0.479	0.021
0.123	0.016	0.035	0.02
0.123	0.122	0.204	0.02
0.123	0.163	0.263	0.02
0.123	0.209	0.326	0.02
0.124	0.259	0.38	0.02
0.125	0	0	
0.125	0.306	0.428	0.021
0.158	0.746	0.804	0.02
0.16	0.889	0.911	0.02
0.16	1	1	
0.162	0.636	0.718	0.02
0.163	0.021	0.046	0.02
0.163	0.581	0.67	0.02
0.163	0.696	0.764	0.02
0.165	0.829	0.865	0.02
0.166	0.298	0.412	0.021
0.166	0.522	0.623	0.021
0.167	0	0	
0.167	0.057	0.104	0.02
0.167	0.459	0.564	0.021
0.168	0.123	0.201	0.02
0.168	0.16	0.25	0.02
0.168	0.345	0.457	0.021
0.168	0.398	0.513	0.021
0.168	0.979	0.984	0.016
0.169	0.085	0.147	0.02
0.169	0.927	0.943	0.02
0.171	0.201	0.302	0.02
0.172	0.248	0.356	0.02
0.247	0.032	0.059	0.02
0.247	0.94	0.956	0.02
0.248	0.892	0.921	0.02
0.248	1	1	
0.249	0.839	0.88	0.02
0.25	0.79	0.841	0.02
0.253	0.738	0.801	0.02
0.254	0.116	0.187	0.02
0.254	0.418	0.522	0.021
0.255	0.689	0.751	0.02
0.256	0	0	
0.256	0.466	0.572	0.021
0.258	0.314	0.423	0.021
0.258	0.516	0.62	0.021
0.258	0.585	0.663	0.02
0.259	0.163	0.25	0.02
0.259	0.364	0.472	0.021
0.262	0.212	0.308	0.02
0.351	0.9	0.937	0.02
0.355	0	0	
0.355	0.831	0.886	0.02
0.356	0.756	0.825	0.02
0.358	1	1	
0.36	0.048	0.083	0.02
0.361	0.686	0.77	0.02
0.362	0.61	0.703	0.02
0.363	0.536	0.642	0.021
0.365	0.092	0.151	0.02
0.365	0.469	0.57	0.021
0.367	0.258	0.357	0.02
0.367	0.323	0.431	0.021
0.367	0.395	0.496	0.021
0.368	0.138	0.212	0.02
0.37	0.189	0.277	0.02
