Measured thermophysical data. Thermal Conductivity and Viscosity of Aqueous of Mg(NO3)2, Sr(NO3)2, Ca(NO3)2, and Ba(NO3)2 Solutions
Source: J. Chem. Eng. Data, 2006, 10.1021/je060202w
Compound 1: water, H2O, InChI=1S/H2O/h1H2
Compound 2: magnesium nitrate, MgN2O6, InChI=1S/Mg.2NO3/c;2*2-1(3)4/q+2;2*-1
Compound 3: strontium nitrate, N2O6Sr, InChI=1S/2NO3.Sr/c2*2-1(3)4;/q2*-1;+2
Compound 4: calcium nitrate, CaN2O6, InChI=1S/Ca.2NO3/c;2*2-1(3)4/q+2;2*-1
Compound 5: barium dinitrate, BaN2O6, InChI=1S/Ba.2NO3/c;2*2-1(3)4/q+2;2*-1

System: water + magnesium nitrate; phases: Liquid
Fixed: Pressure, kPa = 20000
Property: Thermal conductivity, W/m/K (Liquid); method: CCDM:UFactor:2
Temperature, K	Molality, mol/kg of magnesium nitrate	Thermal conductivity, W/m/K	uncertainty
298.15	0.3555	0.975	0.032
298.15	0.7507	0.963	0.032
298.15	1.689	0.94	0.031
298.15	2.895	0.915	0.03
298.15	4.504	0.895	0.03
373.15	0.3555	0.988	0.032
373.15	0.7507	0.97	0.032
373.15	1.689	0.95	0.031
373.15	2.895	0.93	0.031
373.15	4.504	0.902	0.03
473.15	0.3555	0.99	0.032
473.15	0.7507	0.97	0.032
473.15	1.689	0.95	0.031
473.15	2.895	0.925	0.031
473.15	4.504	0.91	0.03
573.15	0.3555	0.985	0.032
573.15	0.7507	0.97	0.032
573.15	1.689	0.93	0.031
573.15	2.895	0.908	0.03
573.15	4.504	0.885	0.03

System: water + magnesium nitrate; phases: Liquid
Fixed: Pressure, kPa = 20000
Property: Viscosity, Pa*s (Liquid); method: CAPTUB:UFactor:16
Temperature, K	Molality, mol/kg of magnesium nitrate	Viscosity, Pa*s	uncertainty
298.15	0.3555	1.1	0.07
298.15	0.7507	1.14	0.07
298.15	1.689	1.75	0.11
298.15	2.895	2.68	0.17
298.15	4.504	5.2	0.34
373.15	0.3555	1.21	0.08
373.15	0.7507	1.35	0.09
373.15	1.689	1.75	0.11
373.15	2.895	2.65	0.17
373.15	4.504	4.55	0.3
473.15	0.3555	1.17	0.08
473.15	0.7507	1.25	0.08
473.15	1.689	1.75	0.11
473.15	2.895	2.58	0.17
473.15	4.504	4.25	0.28
573.15	0.3555	1.18	0.08
573.15	0.7507	1.23	0.08
573.15	1.689	1.75	0.11
573.15	2.895	2.7	0.18
573.15	4.504	4.2	0.27

System: water + strontium nitrate; phases: Liquid
Fixed: Pressure, kPa = 20000
Property: Thermal conductivity, W/m/K (Liquid); method: CCDM:UFactor:2
Temperature, K	Molality, mol/kg of strontium nitrate	Thermal conductivity, W/m/K	uncertainty
298.15	0.525	0.99	0.03
298.15	1.181	0.97	0.03
298.15	2.025	0.96	0.03
298.15	3.15	0.95	0.03
373.15	0.525	0.98	0.03
373.15	1.181	0.97	0.03
373.15	2.025	0.96	0.03
373.15	3.15	0.94	0.03
473.15	0.525	0.99	0.03
473.15	1.181	0.97	0.03
473.15	2.025	0.96	0.03
473.15	3.15	0.94	0.03
573.15	0.525	0.98	0.03
573.15	1.181	0.96	0.03
573.15	2.025	0.95	0.03
573.15	3.15	0.93	0.03

System: water + strontium nitrate; phases: Liquid
Fixed: Pressure, kPa = 20000
Property: Viscosity, Pa*s (Liquid); method: CAPTUB:UFactor:16
Temperature, K	Molality, mol/kg of strontium nitrate	Viscosity, Pa*s	uncertainty
298.15	0.525	1.17	0.08
298.15	1.181	1.35	0.09
298.15	2.025	1.8	0.12
298.15	3.15	2.81	0.18
373.15	0.525	1.19	0.08
373.15	1.181	1.32	0.09
373.15	2.025	1.82	0.12
373.15	3.15	2.75	0.18
473.15	0.525	1.23	0.08
473.15	1.181	1.5	0.1
473.15	2.025	1.9	0.12
473.15	3.15	2.72	0.18
573.15	0.525	1.25	0.08
573.15	1.181	1.55	0.1
573.15	2.025	1.95	0.13
573.15	3.15	2.72	0.18

System: water + calcium nitrate; phases: Liquid
Fixed: Pressure, kPa = 20000
Property: Thermal conductivity, W/m/K (Liquid); method: CCDM:UFactor:2
Temperature, K	Molality, mol/kg of calcium nitrate	Thermal conductivity, W/m/K	uncertainty
298.15	0.6771	0.99	0.03
298.15	1.5235	0.96	0.03
298.15	2.598	0.94	0.03
298.15	4.063	0.93	0.03
373.15	0.6771	0.98	0.03
373.15	1.5235	0.96	0.03
373.15	2.598	0.94	0.03
373.15	4.063	0.92	0.03
473.15	0.6771	0.98	0.03
473.15	1.5235	0.96	0.03
473.15	2.598	0.94	0.03
473.15	4.063	0.93	0.03
573.15	0.6771	0.98	0.03
573.15	1.5235	0.95	0.03
573.15	2.598	0.92	0.03
573.15	4.063	0.91	0.03

System: water + calcium nitrate; phases: Liquid
Fixed: Pressure, kPa = 20000
Property: Viscosity, Pa*s (Liquid); method: CAPTUB:UFactor:16
Temperature, K	Molality, mol/kg of calcium nitrate	Viscosity, Pa*s	uncertainty
298.15	0.6771	1.22	0.08
298.15	1.5235	1.5	0.1
298.15	2.598	2.2	0.14
298.15	4.063	3.7	0.24
373.15	0.6771	1.2	0.08
373.15	1.5235	1.62	0.1
373.15	2.598	2.2	0.14
373.15	4.063	3.3	0.22
473.15	0.6771	1.32	0.09
473.15	1.5235	1.62	0.1
473.15	2.598	2.2	0.14
473.15	4.063	3.12	0.2
573.15	0.6771	1.32	0.09
573.15	1.5235	1.65	0.11
573.15	2.598	2.23	0.14
573.15	4.063	3	0.2

System: water + barium dinitrate; phases: Liquid
Fixed: Pressure, kPa = 20000
Property: Thermal conductivity, W/m/K (Liquid); method: CCDM:UFactor:4
Temperature, K	Molality, mol/kg of barium dinitrate	Thermal conductivity, W/m/K	uncertainty
298.15	0.0781	0.883	0.058
298.15	0.1594	0.993	0.065
298.15	0.2442	0.994	0.065
298.15	0.3327	0.995	0.065
373.15	0.0781	0.88	0.058
373.15	0.1594	0.99	0.065
373.15	0.2442	0.994	0.065
373.15	0.3327	0.997	0.065
473.15	0.1594	0.881	0.058
473.15	0.2442	0.993	0.065
473.15	0.3327	0.996	0.065
573.15	0.1594	0.883	0.058
573.15	0.2442	0.993	0.065
573.15	0.3327	0.996	0.065

System: water + barium dinitrate; phases: Liquid
Fixed: Pressure, kPa = 20000
Property: Viscosity, Pa*s (Liquid); method: CAPTUB:UFactor:16
Temperature, K	Molality, mol/kg of barium dinitrate	Viscosity, Pa*s	uncertainty
298.15	0.0781	1.09	0.07
298.15	0.1594	1.11	0.07
298.15	0.2442	1	0.1
298.15	0.3327	1.04	0.07
373.15	0.0781	1.15	0.07
373.15	0.1594	1.12	0.07
373.15	0.2442	1.09	0.07
373.15	0.3327	1.02	0.07
473.15	0.1594	1.17	0.08
473.15	0.2442	1.15	0.07
473.15	0.3327	1.04	0.07
573.15	0.1594	1.2	0.1
573.15	0.2442	1.1	0.1
573.15	0.3327	1.05	0.07
