Measured thermophysical data. Excess Molar Volumes and Surface Tensions of 1,2,4- Trimethylbenzene and 1,3,5- Trimethylbenzene with 1,1-Diethoxyethane and 2,2-Dimethoxypropane at (298.15, 308.15, and 313.15) K
Source: J. Chem. Eng. Data, 2007, 10.1021/je060490w
Compound 1: 1,2,4-trimethylbenzene, C9H12, InChI=1S/C9H12/c1-7-4-5-8(2)9(3)6-7/h4-6H,1-3H3, purity 99.2%
Compound 2: 1,3,5-trimethylbenzene, C9H12, InChI=1S/C9H12/c1-7-4-8(2)6-9(3)5-7/h4-6H,1-3H3, purity 99.3%
Compound 3: 1,1-diethoxyethane, C6H14O2, InChI=1S/C6H14O2/c1-4-7-6(3)8-5-2/h6H,4-5H2,1-3H3, purity 99.21%
Compound 4: 3,3-dimethyl-2,4-dioxapentane, C5H12O2, InChI=1S/C5H12O2/c1-5(2,6-3)7-4/h1-4H3, purity 99.12%

System: 1,2,4-trimethylbenzene; phases: Liquid, Air at 1 atmosphere
Property: Surface tension liquid-gas, N/m (Liquid); method: Pendant drop shape
Temperature, K	Surface tension liquid-gas, N/m	uncertainty
298.15	0.0293	0.00033
308.15	0.02824	0.00032
313.15	0.02767	0.00031
313.15	0.02771	0.00031

System: 1,2,4-trimethylbenzene; phases: Liquid
Fixed: Pressure, kPa = 101.325
Property: Mass density, kg/m3 (Liquid); method: VIBTUB:UFactor:6
Temperature, K	Mass density, kg/m3	uncertainty
298.15	871.71	0.59
308.15	863.68	0.61
313.15	859.58	0.62

System: 1,3,5-trimethylbenzene; phases: Liquid, Air at 1 atmosphere
Property: Surface tension liquid-gas, N/m (Liquid); method: Pendant drop shape
Temperature, K	Surface tension liquid-gas, N/m	uncertainty
298.15	0.02805	0.00031
308.15	0.02721	0.0003
313.15	0.02678	0.0003

System: 1,3,5-trimethylbenzene; phases: Liquid
Fixed: Pressure, kPa = 101.325
Property: Mass density, kg/m3 (Liquid); method: VIBTUB:UFactor:6
Temperature, K	Mass density, kg/m3	uncertainty
298.15	861.12	0.59
308.15	852.94	0.61
313.15	848.82	0.62

System: 1,1-diethoxyethane; phases: Liquid, Air at 1 atmosphere
Property: Surface tension liquid-gas, N/m (Liquid); method: Pendant drop shape
Temperature, K	Surface tension liquid-gas, N/m	uncertainty
298.15	0.02088	0.00025
308.15	0.01989	0.00025
313.15	0.01942	0.00024

System: 1,1-diethoxyethane; phases: Liquid
Fixed: Pressure, kPa = 101.325
Property: Mass density, kg/m3 (Liquid); method: VIBTUB:UFactor:6
Temperature, K	Mass density, kg/m3	uncertainty
298.15	821.96	0.7
308.15	811.48	0.72
313.15	806.18	0.73

System: 3,3-dimethyl-2,4-dioxapentane; phases: Liquid, Air at 1 atmosphere
Property: Surface tension liquid-gas, N/m (Liquid); method: Pendant drop shape
Temperature, K	Surface tension liquid-gas, N/m	uncertainty
298.15	0.02146	0.00026
308.15	0.02043	0.00025
313.15	0.01991	0.00025

System: 3,3-dimethyl-2,4-dioxapentane; phases: Liquid
Fixed: Pressure, kPa = 101.325
Property: Mass density, kg/m3 (Liquid); method: VIBTUB:UFactor:6
Temperature, K	Mass density, kg/m3	uncertainty
298.15	845.09	0.67
308.15	834.41	0.69
313.15	828.99	0.7

System: 1,2,4-trimethylbenzene + 1,1-diethoxyethane; phases: Liquid, Air at 1 atmosphere
Property: Surface tension liquid-gas, N/m (Liquid); method: Pendant drop shape
Temperature, K	Mole fraction of 1,1-diethoxyethane	Surface tension liquid-gas, N/m	uncertainty
298.15	0	0.0293	0.00033
298.15	0.05	0.02851	0.00032
298.15	0.1	0.02776	0.00031
298.15	0.151	0.02697	0.00031
298.15	0.2005	0.02629	0.0003
298.15	0.2511	0.02571	0.0003
298.15	0.3005	0.02514	0.00029
298.15	0.3526	0.0246	0.00029
298.15	0.401	0.02416	0.00028
298.15	0.4538	0.02373	0.00028
298.15	0.5034	0.02335	0.00028
298.15	0.5513	0.02301	0.00027
298.15	0.5998	0.0227	0.00027
298.15	0.6519	0.02241	0.00027
298.15	0.7012	0.02208	0.00026
298.15	0.7499	0.02185	0.00026
298.15	0.8003	0.02158	0.00026
298.15	0.8491	0.02142	0.00026
298.15	0.9	0.02121	0.00026
298.15	0.9399	0.02109	0.00026
298.15	1	0.02088	0.00025
308.15	0	0.02824	0.00032
308.15	0.0488	0.02735	0.00031
308.15	0.0993	0.02653	0.0003
308.15	0.1486	0.02579	0.0003
308.15	0.2003	0.02509	0.00029
308.15	0.2497	0.02451	0.00029
308.15	0.3001	0.02395	0.00028
308.15	0.3499	0.02347	0.00028
308.15	0.4004	0.02302	0.00027
308.15	0.4534	0.0226	0.00027
308.15	0.5016	0.02223	0.00027
308.15	0.55	0.0219	0.00026
308.15	0.6017	0.02154	0.00026
308.15	0.6514	0.02124	0.00026
308.15	0.7003	0.02096	0.00026
308.15	0.7498	0.02072	0.00025
308.15	0.8007	0.02046	0.00025
308.15	0.8502	0.02028	0.00025
308.15	0.8989	0.02009	0.00025
308.15	0.9488	0.01995	0.00025
308.15	1	0.01989	0.00025
313.15	0	0.02771	0.00031
313.15	0.0498	0.02673	0.0003
313.15	0.0992	0.02591	0.0003
313.15	0.1501	0.02509	0.00029
313.15	0.2003	0.02446	0.00029
313.15	0.2496	0.02386	0.00028
313.15	0.3027	0.02334	0.00028
313.15	0.3505	0.02289	0.00027
313.15	0.4	0.02243	0.00027
313.15	0.4501	0.02205	0.00026
313.15	0.499	0.02167	0.00026
313.15	0.5463	0.02137	0.00026
313.15	0.6011	0.02095	0.00026
313.15	0.6503	0.02068	0.00025
313.15	0.7002	0.0204	0.00025
313.15	0.7491	0.02014	0.00025
313.15	0.7998	0.01991	0.00025
313.15	0.8507	0.01972	0.00025
313.15	0.899	0.01953	0.00025
313.15	0.9497	0.01945	0.00024
313.15	1	0.01942	0.00024

System: 1,2,4-trimethylbenzene + 1,1-diethoxyethane; phases: Liquid
Fixed: Pressure, kPa = 101
Property: Excess molar volume, m3/mol (Liquid); method: Calculated with densities of this investigation
Temperature, K	Mole fraction of 1,1-diethoxyethane	Excess molar volume, m3/mol	uncertainty
298.15	0.05	-4.6e-08	1e-08
298.15	0.1	-9e-08	1e-08
298.15	0.151	-1.3e-07	1e-08
298.15	0.2005	-1.67e-07	1.1e-08
298.15	0.2511	-1.99e-07	1.1e-08
298.15	0.3005	-2.25e-07	1.1e-08
298.15	0.3526	-2.45e-07	1.1e-08
298.15	0.401	-2.63e-07	1.1e-08
298.15	0.4538	-2.75e-07	1.1e-08
298.15	0.5034	-2.78e-07	1.1e-08
298.15	0.5513	-2.81e-07	1.1e-08
298.15	0.5998	-2.8e-07	1.1e-08
298.15	0.6519	-2.7e-07	1.1e-08
298.15	0.7012	-2.55e-07	1.1e-08
298.15	0.7499	-2.37e-07	1.1e-08
298.15	0.8003	-2.09e-07	1.1e-08
298.15	0.8491	-1.78e-07	1.1e-08
298.15	0.9	-1.38e-07	1e-08
298.15	0.9399	-9e-08	1e-08
308.15	0.0488	-4.9e-08	1e-08
308.15	0.0993	-9.6e-08	1e-08
308.15	0.1486	-1.41e-07	1e-08
308.15	0.2003	-1.78e-07	1.1e-08
308.15	0.2497	-2.14e-07	1.1e-08
308.15	0.3001	-2.44e-07	1.1e-08
308.15	0.3499	-2.67e-07	1.1e-08
308.15	0.4004	-2.86e-07	1.1e-08
308.15	0.4534	-3.03e-07	1.1e-08
308.15	0.5016	-3.12e-07	1.1e-08
308.15	0.55	-3.13e-07	1.1e-08
308.15	0.6017	-3.13e-07	1.1e-08
308.15	0.6514	-3.05e-07	1.1e-08
308.15	0.7003	-2.91e-07	1.1e-08
308.15	0.7498	-2.7e-07	1.1e-08
308.15	0.8007	-2.4e-07	1.1e-08
308.15	0.8502	-2.08e-07	1.1e-08
308.15	0.8989	-1.66e-07	1.1e-08
308.15	0.9488	-1.09e-07	1e-08
313.15	0.0498	-5.7e-08	1e-08
313.15	0.0992	-1.1e-07	1e-08
313.15	0.1501	-1.61e-07	1e-08
313.15	0.2003	-2.05e-07	1.1e-08
313.15	0.2496	-2.42e-07	1.1e-08
313.15	0.3027	-2.77e-07	1.1e-08
313.15	0.3505	-3.06e-07	1.1e-08
313.15	0.4	-3.27e-07	1.1e-08
313.15	0.4501	-3.43e-07	1.1e-08
313.15	0.499	-3.53e-07	1.1e-08
313.15	0.5463	-3.56e-07	1.1e-08
313.15	0.6011	-3.58e-07	1.1e-08
313.15	0.6503	-3.52e-07	1.1e-08
313.15	0.7002	-3.4e-07	1.1e-08
313.15	0.7491	-3.19e-07	1.1e-08
313.15	0.7998	-2.94e-07	1.1e-08
313.15	0.8507	-2.56e-07	1.1e-08
313.15	0.899	-2.09e-07	1.1e-08
313.15	0.9497	-1.36e-07	1e-08

System: 1,1-diethoxyethane + 1,3,5-trimethylbenzene; phases: Liquid, Air at 1 atmosphere
Property: Surface tension liquid-gas, N/m (Liquid); method: Pendant drop shape
Temperature, K	Mole fraction of 1,1-diethoxyethane	Surface tension liquid-gas, N/m	uncertainty
298.15	0	0.02805	0.00031
298.15	0.0491	0.02745	0.00031
298.15	0.1013	0.02691	0.0003
298.15	0.1538	0.02636	0.0003
298.15	0.1996	0.02583	0.00029
298.15	0.2501	0.02534	0.00029
298.15	0.3009	0.02481	0.00029
298.15	0.3501	0.02437	0.00028
298.15	0.4067	0.02383	0.00028
298.15	0.4506	0.02345	0.00027
298.15	0.4997	0.02304	0.00027
298.15	0.5523	0.02262	0.00027
298.15	0.601	0.02226	0.00026
298.15	0.6508	0.02192	0.00026
298.15	0.7006	0.02164	0.00026
298.15	0.7507	0.02143	0.00026
298.15	0.8014	0.0212	0.00026
298.15	0.851	0.02109	0.00026
298.15	0.8994	0.02102	0.00026
298.15	0.9487	0.02095	0.00026
298.15	1	0.02088	0.00025
308.15	0	0.02721	0.0003
308.15	0.0488	0.02655	0.0003
308.15	0.1009	0.02597	0.00029
308.15	0.1495	0.0254	0.00029
308.15	0.1991	0.02486	0.00029
308.15	0.2498	0.02432	0.00028
308.15	0.3014	0.02384	0.00028
308.15	0.3503	0.02335	0.00027
308.15	0.4004	0.02289	0.00027
308.15	0.4508	0.02244	0.00027
308.15	0.5011	0.02203	0.00026
308.15	0.5503	0.02161	0.00026
308.15	0.5979	0.02125	0.00026
308.15	0.6511	0.0209	0.00025
308.15	0.6997	0.02062	0.00025
308.15	0.7503	0.02033	0.00025
308.15	0.7977	0.02015	0.00025
308.15	0.8462	0.02004	0.00025
308.15	0.8993	0.01995	0.00025
308.15	0.9418	0.01993	0.00025
308.15	1	0.01989	0.00025
313.15	0	0.02678	0.0003
313.15	0.0487	0.02609	0.00029
313.15	0.0991	0.02549	0.00029
313.15	0.1507	0.02491	0.00029
313.15	0.1999	0.02437	0.00028
313.15	0.2468	0.02386	0.00028
313.15	0.3001	0.02334	0.00027
313.15	0.3501	0.02283	0.00027
313.15	0.4008	0.02238	0.00026
313.15	0.4502	0.02195	0.00026
313.15	0.5	0.02154	0.00026
313.15	0.5495	0.02112	0.00026
313.15	0.6005	0.02073	0.00025
313.15	0.6506	0.0204	0.00025
313.15	0.7005	0.02011	0.00025
313.15	0.7514	0.0198	0.00025
313.15	0.7996	0.01963	0.00025
313.15	0.8494	0.01952	0.00024
313.15	0.9003	0.01948	0.00024
313.15	0.9498	0.01944	0.00024
313.15	1	0.01942	0.00024

System: 1,1-diethoxyethane + 1,3,5-trimethylbenzene; phases: Liquid
Fixed: Pressure, kPa = 101
Property: Excess molar volume, m3/mol (Liquid); method: Calculated with densities of this investigation
Temperature, K	Mole fraction of 1,1-diethoxyethane	Excess molar volume, m3/mol	uncertainty
298.15	0.0491	-4e-09	1e-08
298.15	0.1013	-7e-09	1e-08
298.15	0.1538	-1.1e-08	1e-08
298.15	0.1996	-1.4e-08	1e-08
298.15	0.2501	-1.5e-08	1e-08
298.15	0.3009	-1.8e-08	1e-08
298.15	0.3501	-1.9e-08	1e-08
298.15	0.4067	-2.1e-08	1e-08
298.15	0.4506	-2.2e-08	1e-08
298.15	0.4997	-2.3e-08	1e-08
298.15	0.5523	-2.4e-08	1e-08
298.15	0.601	-2.4e-08	1e-08
298.15	0.6508	-2.3e-08	1e-08
298.15	0.7006	-2.3e-08	1e-08
298.15	0.7507	-2.3e-08	1e-08
298.15	0.8014	-2e-08	1e-08
298.15	0.851	-1.7e-08	1e-08
298.15	0.8994	-1.5e-08	1e-08
298.15	0.9487	-8e-09	1e-08
308.15	0.0488	-6e-09	1e-08
308.15	0.1009	-1.1e-08	1e-08
308.15	0.1495	-1.7e-08	1e-08
308.15	0.1991	-2.3e-08	1e-08
308.15	0.2498	-2.6e-08	1e-08
308.15	0.3014	-3e-08	1e-08
308.15	0.3503	-3.3e-08	1e-08
308.15	0.4004	-3.6e-08	1e-08
308.15	0.4508	-3.7e-08	1e-08
308.15	0.5011	-3.9e-08	1e-08
308.15	0.5503	-4e-08	1e-08
308.15	0.5979	-4.1e-08	1e-08
308.15	0.6511	-4.1e-08	1e-08
308.15	0.6997	-3.9e-08	1e-08
308.15	0.7503	-3.7e-08	1e-08
308.15	0.7977	-3.4e-08	1e-08
308.15	0.8462	-3e-08	1e-08
308.15	0.8993	-2.4e-08	1e-08
308.15	0.9418	-1.4e-08	1e-08
313.15	0.0487	-9e-09	1e-08
313.15	0.0991	-1.7e-08	1e-08
313.15	0.1507	-2.3e-08	1e-08
313.15	0.1999	-2.9e-08	1e-08
313.15	0.2468	-3.4e-08	1e-08
313.15	0.3001	-3.9e-08	1e-08
313.15	0.3501	-4.2e-08	1e-08
313.15	0.4008	-4.4e-08	1e-08
313.15	0.4502	-4.7e-08	1e-08
313.15	0.5	-4.9e-08	1e-08
313.15	0.5495	-5e-08	1e-08
313.15	0.6005	-5.1e-08	1e-08
313.15	0.6506	-5e-08	1e-08
313.15	0.7005	-4.9e-08	1e-08
313.15	0.7514	-4.7e-08	1e-08
313.15	0.7996	-4.4e-08	1e-08
313.15	0.8494	-4e-08	1e-08
313.15	0.9003	-3.4e-08	1e-08
313.15	0.9498	-2.1e-08	1e-08

System: 3,3-dimethyl-2,4-dioxapentane + 1,2,4-trimethylbenzene; phases: Liquid, Air at 1 atmosphere
Property: Surface tension liquid-gas, N/m (Liquid); method: Pendant drop shape
Temperature, K	Mole fraction of 3,3-dimethyl-2,4-dioxapentane	Surface tension liquid-gas, N/m	uncertainty
298.15	0	0.0293	0.00033
298.15	0.0523	0.02869	0.00032
298.15	0.0998	0.02817	0.00032
298.15	0.1497	0.02762	0.00031
298.15	0.1996	0.02712	0.00031
298.15	0.2517	0.0266	0.0003
298.15	0.3009	0.02613	0.0003
298.15	0.3494	0.02568	0.0003
298.15	0.3987	0.02524	0.00029
298.15	0.4502	0.02479	0.00029
298.15	0.4994	0.02437	0.00029
298.15	0.5498	0.02395	0.00028
298.15	0.5996	0.02355	0.00028
298.15	0.6508	0.02317	0.00028
298.15	0.6997	0.02282	0.00027
298.15	0.7498	0.02251	0.00027
298.15	0.7992	0.02224	0.00027
298.15	0.8508	0.022	0.00027
298.15	0.8997	0.02179	0.00026
298.15	0.9489	0.02162	0.00026
298.15	1	0.02146	0.00026
308.15	0	0.02824	0.00032
308.15	0.0515	0.02759	0.00031
308.15	0.0998	0.02702	0.00031
308.15	0.1499	0.02647	0.0003
308.15	0.2001	0.02595	0.0003
308.15	0.2475	0.0255	0.0003
308.15	0.302	0.02497	0.00029
308.15	0.3512	0.02453	0.00029
308.15	0.3995	0.02412	0.00028
308.15	0.4485	0.02366	0.00028
308.15	0.4989	0.02323	0.00028
308.15	0.5542	0.02277	0.00027
308.15	0.5998	0.0224	0.00027
308.15	0.6518	0.02202	0.00027
308.15	0.6987	0.02169	0.00026
308.15	0.7455	0.02144	0.00026
308.15	0.7962	0.02111	0.00026
308.15	0.851	0.02086	0.00026
308.15	0.8973	0.02071	0.00026
308.15	0.9456	0.02055	0.00026
308.15	1	0.02043	0.00025
313.15	0	0.02771	0.00031
313.15	0.0506	0.02703	0.00031
313.15	0.0996	0.02642	0.0003
313.15	0.1509	0.02586	0.0003
313.15	0.1994	0.02536	0.00029
313.15	0.2511	0.02487	0.00029
313.15	0.3032	0.02438	0.00029
313.15	0.3475	0.02395	0.00028
313.15	0.3981	0.02352	0.00028
313.15	0.4501	0.02307	0.00027
313.15	0.5	0.02266	0.00027
313.15	0.5487	0.02225	0.00027
313.15	0.5993	0.02184	0.00026
313.15	0.6504	0.02145	0.00026
313.15	0.6993	0.02112	0.00026
313.15	0.7486	0.0208	0.00026
313.15	0.7987	0.02051	0.00025
313.15	0.8417	0.02031	0.00025
313.15	0.8929	0.02012	0.00025
313.15	0.9487	0.01997	0.00025
313.15	1	0.01991	0.00025

System: 3,3-dimethyl-2,4-dioxapentane + 1,2,4-trimethylbenzene; phases: Liquid
Fixed: Pressure, kPa = 101
Property: Excess molar volume, m3/mol (Liquid); method: Calculated with densities of this investigation
Temperature, K	Mole fraction of 3,3-dimethyl-2,4-dioxapentane	Excess molar volume, m3/mol	uncertainty
298.15	0.0523	-1e-08	1e-08
298.15	0.0998	-1.6e-08	1e-08
298.15	0.1497	-2.3e-08	1e-08
298.15	0.1996	-3e-08	1e-08
298.15	0.2517	-3.8e-08	1e-08
298.15	0.3009	-4.3e-08	1e-08
298.15	0.3494	-4.7e-08	1e-08
298.15	0.3987	-5.1e-08	1e-08
298.15	0.4502	-5.3e-08	1e-08
298.15	0.4994	-5.6e-08	1e-08
298.15	0.5498	-5.6e-08	1e-08
298.15	0.5996	-5.8e-08	1e-08
298.15	0.6508	-5.8e-08	1e-08
298.15	0.6997	-5.4e-08	1e-08
298.15	0.7498	-5.1e-08	1e-08
298.15	0.7992	-4.4e-08	1e-08
298.15	0.8508	-3.7e-08	1e-08
298.15	0.8997	-2.9e-08	1e-08
298.15	0.9489	-1.7e-08	1e-08
308.15	0.0515	-1.1e-08	1e-08
308.15	0.0998	-2e-08	1e-08
308.15	0.1499	-3.1e-08	1e-08
308.15	0.2001	-4e-08	1e-08
308.15	0.2475	-4.9e-08	1e-08
308.15	0.302	-5.9e-08	1e-08
308.15	0.3512	-6.4e-08	1e-08
308.15	0.3955	-6.9e-08	1e-08
308.15	0.4485	-7.6e-08	1e-08
308.15	0.4989	-7.9e-08	1e-08
308.15	0.5542	-8.1e-08	1e-08
308.15	0.5998	-8.2e-08	1e-08
308.15	0.6518	-8e-08	1e-08
308.15	0.6987	-7.7e-08	1e-08
308.15	0.7455	-7.2e-08	1e-08
308.15	0.7962	-6.2e-08	1e-08
308.15	0.851	-5.1e-08	1e-08
308.15	0.8973	-3.9e-08	1e-08
308.15	0.9456	-2.3e-08	1e-08
313.15	0.0506	-1.3e-08	1e-08
313.15	0.0996	-2.5e-08	1e-08
313.15	0.1509	-3.7e-08	1e-08
313.15	0.1994	-4.9e-08	1e-08
313.15	0.2511	-6.1e-08	1e-08
313.15	0.3032	-7.1e-08	1e-08
313.15	0.3475	-7.9e-08	1e-08
313.15	0.3981	-8.7e-08	1e-08
313.15	0.4501	-9.2e-08	1e-08
313.15	0.5	-9.5e-08	1e-08
313.15	0.5487	-9.9e-08	1e-08
313.15	0.5993	-1e-07	1e-08
313.15	0.6504	-9.6e-08	1e-08
313.15	0.6993	-9.3e-08	1e-08
313.15	0.7486	-8.4e-08	1e-08
313.15	0.7987	-7.5e-08	1e-08
313.15	0.8417	-6.5e-08	1e-08
313.15	0.8929	-4.8e-08	1e-08
313.15	0.9487	-2.9e-08	1e-08

System: 3,3-dimethyl-2,4-dioxapentane + 1,3,5-trimethylbenzene; phases: Liquid, Air at 1 atmosphere
Property: Surface tension liquid-gas, N/m (Liquid); method: Pendant drop shape
Temperature, K	Mole fraction of 3,3-dimethyl-2,4-dioxapentane	Surface tension liquid-gas, N/m	uncertainty
298.15	0	0.02805	0.00031
298.15	0.05	0.0276	0.00031
298.15	0.1002	0.02714	0.0003
298.15	0.1494	0.02672	0.0003
298.15	0.2001	0.02628	0.0003
298.15	0.252	0.02588	0.00029
298.15	0.3001	0.02547	0.00029
298.15	0.3496	0.0251	0.00029
298.15	0.3998	0.0247	0.00029
298.15	0.4525	0.02433	0.00028
298.15	0.4998	0.02398	0.00028
298.15	0.5497	0.02362	0.00028
298.15	0.5996	0.02326	0.00028
298.15	0.6506	0.02293	0.00027
298.15	0.7002	0.02264	0.00027
298.15	0.7503	0.02237	0.00027
298.15	0.7993	0.02211	0.00027
298.15	0.8511	0.02189	0.00027
298.15	0.8986	0.0217	0.00026
298.15	0.9494	0.02157	0.00026
298.15	1	0.02146	0.00026
308.15	0	0.02721	0.0003
308.15	0.0562	0.02665	0.0003
308.15	0.0995	0.02621	0.0003
308.15	0.1481	0.02577	0.00029
308.15	0.2023	0.02529	0.00029
308.15	0.2502	0.02487	0.00029
308.15	0.3002	0.02449	0.00028
308.15	0.3497	0.02406	0.00028
308.15	0.3982	0.02371	0.00028
308.15	0.4499	0.02331	0.00027
308.15	0.4964	0.02295	0.00027
308.15	0.5493	0.02254	0.00027
308.15	0.6001	0.02217	0.00027
308.15	0.6502	0.02185	0.00026
308.15	0.7006	0.02152	0.00026
308.15	0.7454	0.02127	0.00026
308.15	0.7999	0.02099	0.00026
308.15	0.8492	0.02074	0.00026
308.15	0.8998	0.02057	0.00026
308.15	0.9492	0.02048	0.00025
308.15	1	0.02043	0.00025
313.15	0	0.02678	0.0003
313.15	0.0511	0.02621	0.0003
313.15	0.1023	0.02571	0.00029
313.15	0.1503	0.02526	0.00029
313.15	0.2014	0.02479	0.00029
313.15	0.2506	0.02439	0.00028
313.15	0.3013	0.02395	0.00028
313.15	0.3498	0.02356	0.00028
313.15	0.396	0.02319	0.00027
313.15	0.4486	0.02277	0.00027
313.15	0.5014	0.02236	0.00027
313.15	0.5508	0.02199	0.00026
313.15	0.5931	0.02168	0.00026
313.15	0.6488	0.02131	0.00026
313.15	0.6988	0.02099	0.00026
313.15	0.7499	0.02066	0.00025
313.15	0.7994	0.0204	0.00025
313.15	0.8388	0.02024	0.00025
313.15	0.8976	0.02	0.00025
313.15	0.944	0.01995	0.00025
313.15	1	0.01991	0.00025

System: 3,3-dimethyl-2,4-dioxapentane + 1,3,5-trimethylbenzene; phases: Liquid
Fixed: Pressure, kPa = 101
Property: Excess molar volume, m3/mol (Liquid); method: Calculated with densities of this investigation
Temperature, K	Mole fraction of 3,3-dimethyl-2,4-dioxapentane	Excess molar volume, m3/mol	uncertainty
298.15	0.05	2.6e-08	1e-08
298.15	0.1002	4.7e-08	1e-08
298.15	0.1494	6.7e-08	1e-08
298.15	0.2001	8.6e-08	1e-08
298.15	0.252	1.02e-07	1e-08
298.15	0.3001	1.15e-07	1e-08
298.15	0.3496	1.25e-07	1e-08
298.15	0.3998	1.34e-07	1e-08
298.15	0.4525	1.39e-07	1e-08
298.15	0.4998	1.41e-07	1e-08
298.15	0.5497	1.45e-07	1e-08
298.15	0.5996	1.42e-07	1e-08
298.15	0.6506	1.37e-07	1e-08
298.15	0.7002	1.27e-07	1e-08
298.15	0.7503	1.14e-07	1e-08
298.15	0.7993	9.5e-08	1e-08
298.15	0.8511	7.3e-08	1e-08
298.15	0.8986	5e-08	1e-08
298.15	0.9494	2.2e-08	1e-08
308.15	0.0562	2e-08	1e-08
308.15	0.0995	3.9e-08	1e-08
308.15	0.1481	5.7e-08	1e-08
308.15	0.2023	7.5e-08	1e-08
308.15	0.2502	8.8e-08	1e-08
308.15	0.3002	9.9e-08	1e-08
308.15	0.3497	1.07e-07	1e-08
308.15	0.3982	1.15e-07	1e-08
308.15	0.4499	1.2e-07	1e-08
308.15	0.4964	1.23e-07	1e-08
308.15	0.5493	1.26e-07	1e-08
308.15	0.6001	1.24e-07	1e-08
308.15	0.6502	1.18e-07	1e-08
308.15	0.7006	1.11e-07	1e-08
308.15	0.7454	1.01e-07	1e-08
308.15	0.7999	8.6e-08	1e-08
308.15	0.8492	6.6e-08	1e-08
308.15	0.8998	4.4e-08	1e-08
308.15	0.9492	2e-08	1e-08
313.15	0.0511	1.9e-08	1e-08
313.15	0.1023	3.5e-08	1e-08
313.15	0.1503	5.1e-08	1e-08
313.15	0.2014	6.5e-08	1e-08
313.15	0.2506	7.9e-08	1e-08
313.15	0.3013	9e-08	1e-08
313.15	0.3498	9.7e-08	1e-08
313.15	0.396	1.04e-07	1e-08
313.15	0.4486	1.08e-07	1e-08
313.15	0.5014	1.1e-07	1e-08
313.15	0.5508	1.12e-07	1e-08
313.15	0.5931	1.12e-07	1e-08
313.15	0.6488	1.06e-07	1e-08
313.15	0.6988	9.9e-08	1e-08
313.15	0.7499	8.8e-08	1e-08
313.15	0.7994	7.5e-08	1e-08
313.15	0.8388	6.1e-08	1e-08
313.15	0.8976	4e-08	1e-08
313.15	0.944	1.9e-08	1e-08
