Measured thermophysical data. Acoustic Determination of Thermophysical Properties and Critical Parameters for R404A and Critical Line of xCO2 + (1 - x)R404A
Source: J. Chem. Eng. Data, 2006, 10.1021/je0600707
Compound 1: 1,1,1-trifluoroethane, C2H3F3, InChI=1S/C2H3F3/c1-2(3,4)5/h1H3
Compound 2: pentafluoroethane, C2HF5, InChI=1S/C2HF5/c3-1(4)2(5,6)7/h1H
Compound 3: 1,1,1,2-tetrafluoroethane, C2H2F4, InChI=1S/C2H2F4/c3-1-2(4,5)6/h1H2

System: pentafluoroethane + 1,1,1-trifluoroethane + 1,1,1,2-tetrafluoroethane; phases: Liquid
Fixed: Mass fraction of 1,1,1-trifluoroethane = 0.52
Fixed: Mass fraction of pentafluoroethane = 0.44
Property: Speed of sound, m/s (Liquid); method: non intrusive technique with two piezoelectric transducers based on the time of flight
Temperature, K	Pressure, kPa	Speed of sound, m/s	uncertainty
258.13	590	579.3	5
258.13	640	579.7	5
258.13	710	580.4	5
258.13	750	580.7	5
258.13	800	581.3	5
258.13	900	582.1	5
258.13	1000	583.1	5
258.13	1260	585.5	5
258.13	1500	588	5
258.13	1750	590.3	5
258.13	2010	592.6	5
258.13	2250	594.8	5
258.13	2510	597.2	5
258.13	2750	599.4	5
258.13	3010	601.7	5
258.13	3500	606.1	5
258.13	4000	610.5	5
258.13	4500	614.7	5
258.13	5000	619	5
258.13	6010	627.1	5
258.13	7010	635.3	5
258.13	8000	643.1	5
258.13	9000	650.6	5
258.13	10000	658.1	5
258.13	12000	672.5	5
258.13	14000	686.3	5
258.13	16010	699.5	5
258.13	18000	711.7	5
258.13	20000	723.9	5
258.13	23000	741.6	5
258.13	26000	758.3	5
258.13	29010	774.3	5
258.13	32250	791.1	5
258.13	35000	804.5	5
258.13	40000	828	5
258.13	45010	850.2	5
258.13	50000	871.4	5
258.13	55000	891.7	5
258.13	60010	910.9	5
258.13	65000	929.5	5
258.13	590	579.4	5
258.13	16010	699.5	5
268.12	520	529.6	5
268.12	620	530.8	5
268.12	710	531.7	5
268.12	750	532.1	5
268.12	800	532.7	5
268.12	900	533.8	5
268.12	1000	534.9	5
268.12	1260	537.6	5
268.12	1500	540.4	5
268.12	1750	543.1	5
268.12	2010	545.7	5
268.12	2250	548.2	5
268.12	2510	550.8	5
268.12	2750	553.2	5
268.12	3010	555.9	5
268.12	3500	560.7	5
268.12	4000	565.8	5
268.12	4500	570.6	5
268.12	5000	575.4	5
268.12	6010	584.4	5
268.12	7010	593.2	5
268.12	8000	601.8	5
268.12	9000	610.3	5
268.12	10000	618.2	5
268.12	12000	633.7	5
268.12	14000	648.4	5
268.12	16010	662.4	5
268.12	18000	675.9	5
268.12	20000	689	5
268.12	23000	707.3	5
268.12	26000	725	5
268.12	29010	741.9	5
268.12	32250	759.3	5
268.12	35000	773.2	5
268.12	40000	797.6	5
268.12	45010	821	5
268.12	50000	842.8	5
268.12	55000	863.6	5
268.12	60000	883.6	5
268.12	65000	902.7	5
268.12	1260	537.7	5
268.12	7010	593.2	5
278.1	710	481.9	5
278.1	750	482.2	5
278.1	800	482.9	5
278.1	900	484.2	5
278.1	1000	485.5	5
278.1	1260	488.8	5
278.1	1500	491.8	5
278.1	1750	494.8	5
278.1	2010	498	5
278.1	2250	500.8	5
278.1	2510	503.9	5
278.1	2750	506.8	5
278.1	3010	509.6	5
278.1	3500	515.4	5
278.1	4000	520.8	5
278.1	4500	526.2	5
278.1	5000	531.6	5
278.1	6010	541.8	5
278.1	7010	551.6	5
278.1	8000	561	5
278.1	9000	570.1	5
278.1	10000	578.9	5
278.1	12000	595.7	5
278.1	14000	611.7	5
278.1	16010	626.7	5
278.1	18000	640.9	5
278.1	20000	654.7	5
278.1	23000	674.4	5
278.1	26000	692.6	5
278.1	29010	710.3	5
278.1	32310	728.8	5
278.1	35000	742.9	5
278.1	40000	768.2	5
278.1	45010	792.2	5
278.1	50000	814.8	5
278.1	55000	836.4	5
278.1	60000	857	5
278.1	65000	876.6	5
278.1	710	481.8	5
278.1	1260	488.9	5
278.1	710	481.9	5
288.18	950	433	5
288.18	1000	433.8	5
288.18	1110	435.4	5
288.18	1260	437.6	5
288.18	1500	441.2	5
288.18	1750	444.9	5
288.18	2010	448.5	5
288.18	2250	452	5
288.18	2510	455.4	5
288.18	2750	458.7	5
288.18	3010	462.2	5
288.18	3500	468.7	5
288.18	4000	475.1	5
288.18	4500	481.3	5
288.18	5000	487.2	5
288.18	6010	498.8	5
288.18	7010	509.7	5
288.18	8000	520.2	5
288.18	9000	530.3	5
288.18	10000	539.9	5
288.18	12000	558.1	5
288.18	14000	575.4	5
288.18	16010	591.5	5
288.18	18000	606.9	5
288.18	20000	621.5	5
288.18	23000	642.1	5
288.18	26000	661.4	5
288.18	29010	679.9	5
288.18	32250	699.1	5
288.18	35000	714.1	5
288.18	40000	740.3	5
288.18	45010	765.3	5
288.18	50000	788.3	5
288.18	55000	810.4	5
288.18	60010	831.5	5
288.18	65000	851.9	5
288.18	950	433	5
298.17	1260	383.8	5
298.17	1300	384.6	5
298.17	1410	386.6	5
298.17	1500	388.3	5
298.17	1750	392.9	5
298.17	2010	397.4	5
298.17	2250	401.5	5
298.17	2510	405.8	5
298.17	2750	409.8	5
298.17	3010	413.8	5
298.17	3500	421.6	5
298.17	4000	429	5
298.17	4500	436.1	5
298.17	5000	443	5
298.17	6010	456.3	5
298.17	7010	468.5	5
298.17	8000	480.2	5
298.17	9000	491.4	5
298.17	10000	501.9	5
298.17	12000	521.9	5
298.17	14000	540.3	5
298.17	16010	557.6	5
298.17	18000	573.9	5
298.17	20000	589.6	5
298.17	23000	611.3	5
298.17	26000	631.8	5
298.17	29010	650.9	5
298.17	32250	670.9	5
298.17	35000	686.5	5
298.17	40000	714	5
298.17	45010	739.2	5
298.17	50000	763.5	5
298.17	55000	786.2	5
298.17	60000	807.6	5
298.17	65000	828.3	5
298.17	1260	383.9	5
308.17	1620	332.9	5
308.17	1700	334.6	5
308.17	1800	337.1	5
308.17	1900	339.4	5
308.17	2010	341.8	5
308.17	2250	347.2	5
308.17	2510	352.6	5
308.17	2750	357.7	5
308.17	3010	362.8	5
308.17	3500	372.3	5
308.17	4000	381.3	5
308.17	4500	389.7	5
308.17	5000	397.8	5
308.17	6010	412.9	5
308.17	7010	427.2	5
308.17	8000	440.2	5
308.17	9000	452.6	5
308.17	10000	464.4	5
308.17	12000	486.1	5
308.17	14000	506.1	5
308.17	16010	524.7	5
308.17	18000	542.2	5
308.17	20000	558.6	5
308.17	23000	581.6	5
308.17	26000	603	5
308.17	29010	623.1	5
308.17	32250	643.9	5
308.17	35000	659.9	5
308.17	40000	688.2	5
308.17	45010	714.7	5
308.17	49990	739.1	5
308.17	55010	762.7	5
308.17	60010	784.9	5
308.17	65000	805.9	5
308.17	1620	333	5
308.17	1620	332.9	5
318.16	2060	279.2	5
318.16	2100	280.4	5
318.16	2210	283.8	5
318.16	2360	288.3	5
318.16	2510	292.8	5
318.16	2750	299.9	5
318.16	3010	306.7	5
318.16	3500	319.1	5
318.16	4000	330.5	5
318.16	4500	341.2	5
318.16	5000	350.8	5
318.16	6010	369	5
318.16	7010	385.3	5
318.16	8000	400.5	5
318.16	9000	414.5	5
318.16	10000	427.4	5
318.16	12000	451.3	5
318.16	14000	473	5
318.16	16010	493	5
318.16	18000	511.4	5
318.16	20000	528.8	5
318.16	23000	552.9	5
318.16	26000	575.7	5
318.16	29010	596.7	5
318.16	32250	617.9	5
318.16	35000	634.2	5
318.16	40000	663.6	5
318.16	45010	690.7	5
318.16	50000	716.1	5
318.16	55010	740.1	5
318.16	60010	762.8	5
318.16	65000	784.4	5
318.16	2060	279.4	5
318.16	2060	279.3	5
328.18	2590	221.3	5
328.18	2650	224.4	5
328.18	2750	229.1	5
328.18	3010	240.6	5
328.18	3250	250.2	5
328.18	3500	259.2	5
328.18	4000	275.1	5
328.18	4500	289.1	5
328.18	5000	301.8	5
328.18	6010	324.1	5
328.18	7010	343.3	5
328.18	8000	360.5	5
328.18	9000	376.4	5
328.18	10000	391	5
328.18	12000	417.3	5
328.18	14000	440.8	5
328.18	16010	462.2	5
328.18	18000	482	5
328.18	20000	500.4	5
328.18	23000	525.8	5
328.18	26000	549.3	5
328.18	29010	571	5
328.18	32250	593.2	5
328.18	35000	610.4	5
328.18	40000	640.3	5
328.18	45010	668.3	5
328.18	50000	694.1	5
328.18	55000	718.5	5
328.18	59990	741.7	5
328.18	65000	763.6	5
328.18	2590	221.3	5
338.19	3220	155	5
338.19	3310	164.1	5
338.19	3500	181.4	5
338.19	3750	197.3	5
338.19	4000	210.6	5
338.19	4500	231.1	5
338.19	5000	248.4	5
338.19	6010	277.1	5
338.19	7010	300.5	5
338.19	8000	320.9	5
338.19	9000	339	5
338.19	10000	355.3	5
338.19	12000	384.4	5
338.19	14000	410	5
338.19	16010	432.8	5
338.19	18000	453.8	5
338.19	20000	473	5
338.19	23000	499.9	5
338.19	26000	524.3	5
338.19	29010	546.9	5
338.19	32250	569.6	5
338.19	35000	587.4	5
338.19	40000	618	5
338.19	45010	646.5	5
338.19	50000	673.1	5
338.19	55000	698.2	5
338.19	59990	721.6	5
338.19	65000	744.4	5
338.19	3220	155.1	5
