Measured thermophysical data. Measurement of the Viscosity of Liquid Cyclopentane Obtained with a Vibrating Wire Viscometer at Temperatures between (273 and 353) K and Pressures below 45 MPa
Source: J. Chem. Eng. Data, 2007, 10.1021/je060416d
Compound 1: cyclopentane, C5H10, InChI=1S/C5H10/c1-2-4-5-3-1/h1-5H2, purity 99%

System: cyclopentane; phases: Liquid
Property: Viscosity, Pa*s (Liquid); method: Vibrating wire viscometry
Temperature, K	Pressure, kPa	Viscosity, Pa*s	uncertainty
273.15	100	0.0005628	1.26e-05
273.15	10000	0.0006148	1.36e-05
273.15	30000	0.0007203	1.56e-05
273.15	40000	0.0007767	1.68e-05
293.15	100	0.0004413	1.02e-05
293.15	10000	0.0004827	1.1e-05
293.15	30000	0.0005708	1.27e-05
293.15	40000	0.0006167	1.36e-05
298.15	100	0.0004167	9.7e-06
298.15	10000	0.0004583	1.05e-05
298.15	30000	0.0005409	1.21e-05
298.15	40000	0.0005846	1.3e-05
313.15	10000	0.000392	9e-06
313.15	30000	0.0004646	1.06e-05
313.15	45000	0.0005222	1.18e-05
333.15	10000	0.0003247	8e-06
333.15	30000	0.0003882	9.2e-06
333.15	45000	0.0004364	1.01e-05
353.15	15000	0.0002868	7.3e-06
353.15	30000	0.0003291	8.1e-06
353.15	45000	0.0003727	8.9e-06
