Measured thermophysical data. Densities of (Lithium, Magnesium, or Copper(II)) Sulfates in Ethanol-Water Solutions
Source: J. Chem. Eng. Data, 2007, 10.1021/je060495t
Compound 1: lithium sulfate, Li2O4S, InChI=1S/2Li.H2O4S/c;;1-5(2,3)4/h;;(H2,1,2,3,4)/q2*+1;/p-2, purity 99%
Compound 2: magnesium sulfate, MgO4S, InChI=1S/Mg.H2O4S/c;1-5(2,3)4/h;(H2,1,2,3,4)/q+2;/p-2, purity 99%
Compound 3: copper sulfate, CuO4S, InChI=1S/Cu.H2O4S/c;1-5(2,3)4/h;(H2,1,2,3,4)/q+2;/p-2, purity 99%
Compound 4: ethanol, C2H6O, InChI=1S/C2H6O/c1-2-3/h3H,2H2,1H3, purity 99.5%
Compound 5: water, H2O, InChI=1S/H2O/h1H2

System: water + lithium sulfate; phases: Liquid
Fixed: Pressure, kPa = 101
Property: Mass density, kg/m3 (Liquid); method: VIBTUB:UFactor:6
Temperature, K	Molality, mol/kg of lithium sulfate	Mass density, kg/m3	uncertainty
283.15	0.2142	1020	0.46
283.15	0.3987	1036.71	0.49
283.15	0.7939	1070.78	0.58
283.15	1.1787	1101.96	0.67
283.15	1.5748	1132.31	0.75
283.15	1.9713	1161.03	0.83
283.15	2.3607	1187.76	0.91
283.15	2.7455	1212.92	0.98
283.15	3.0903	1234.34	1.04
288.15	0.2142	1019.21	0.45
288.15	0.3987	1035.78	0.49
288.15	0.7939	1069.62	0.58
288.15	1.1787	1100.66	0.67
288.15	1.5748	1130.93	0.75
288.15	1.9713	1159.58	0.83
288.15	2.3607	1186.29	0.9
288.15	2.7455	1211.4	0.97
288.15	3.0903	1232.84	1.03
293.15	0.2142	1018.16	0.45
293.15	0.3987	1034.6	0.49
293.15	0.7939	1068.26	0.58
293.15	1.1787	1099.15	0.66
293.15	1.5748	1129.33	0.75
293.15	1.9713	1157.91	0.82
293.15	2.3607	1184.6	0.9
293.15	2.7455	1209.69	0.97
293.15	3.0903	1231.19	1.03
298.15	0.2142	1016.89	0.45
298.15	0.3987	1033.24	0.49
298.15	0.7939	1066.75	0.57
298.15	1.1787	1097.56	0.66
298.15	1.5748	1127.68	0.74
298.15	1.9713	1156.22	0.82
298.15	2.3607	1182.89	0.89
298.15	2.7455	1208.01	0.96
298.15	3.0903	1229.51	1.03

System: magnesium sulfate + water; phases: Liquid
Fixed: Pressure, kPa = 101
Property: Mass density, kg/m3 (Liquid); method: VIBTUB:UFactor:6
Temperature, K	Molality, mol/kg of magnesium sulfate	Mass density, kg/m3	uncertainty
283.15	0.1933	1023.24	0.47
283.15	0.3842	1045.58	0.52
283.15	0.7688	1089.17	0.64
283.15	1.1636	1131.93	0.76
283.15	1.5096	1167.67	0.85
283.15	1.9	1206.43	0.96
283.15	2.2691	1241.57	1.06
288.15	0.1933	1022.46	0.47
288.15	0.3842	1044.61	0.52
288.15	0.7688	1087.85	0.64
288.15	1.1636	1130.34	0.75
288.15	1.5096	1165.9	0.85
288.15	1.9	1204.52	0.96
288.15	2.2691	1239.58	1.06
293.15	0.1933	1021.38	0.47
293.15	0.3842	1043.39	0.52
293.15	0.7688	1086.38	0.63
293.15	1.1636	1128.69	0.75
293.15	1.5096	1164.13	0.84
293.15	1.9	1202.66	0.95
293.15	2.2691	1237.59	1.05
293.15	2.6781	1274.56	1.15
298.15	0.1933	1020.13	0.46
298.15	0.3842	1042.03	0.51
298.15	0.7688	1084.85	0.63
298.15	1.1636	1127.02	0.74
298.15	1.5096	1162.37	0.84
298.15	1.9	1200.8	0.95
298.15	2.2691	1235.75	1.05
298.15	2.6781	1272.67	1.15
298.15	3.044	1304.55	1.24

System: water + copper sulfate; phases: Liquid
Fixed: Pressure, kPa = 101
Property: Mass density, kg/m3 (Liquid); method: VIBTUB:UFactor:6
Temperature, K	Molality, mol/kg of copper sulfate	Mass density, kg/m3	uncertainty
283.15	0.1346	1021.88	0.48
283.15	0.3007	1048.45	0.54
283.15	0.4408	1070.55	0.6
283.15	0.5896	1093.72	0.66
283.15	0.7359	1116.1	0.72
283.15	0.859	1134.78	0.77
283.15	1.016	1158.27	0.84
283.15	1.1791	1182.45	0.9
288.15	0.1346	1021.12	0.48
288.15	0.3007	1047.51	0.54
288.15	0.4408	1069.47	0.6
288.15	0.5896	1092.5	0.66
288.15	0.7359	1114.77	0.72
288.15	0.859	1133.34	0.77
288.15	1.016	1156.7	0.83
288.15	1.1791	1180.77	0.9
288.15	1.3008	1198.32	0.95
293.15	0.1346	1020.08	0.47
293.15	0.3007	1046.29	0.53
293.15	0.4408	1068.13	0.59
293.15	0.5896	1091.04	0.65
293.15	0.7359	1113.18	0.71
293.15	0.859	1131.65	0.76
293.15	1.016	1154.9	0.83
293.15	1.1791	1178.8	0.89
293.15	1.3008	1196.32	0.94
298.15	0.1346	1018.79	0.47
298.15	0.3007	1044.85	0.53
298.15	0.4408	1066.56	0.59
298.15	0.5896	1089.33	0.65
298.15	0.7359	1111.35	0.71
298.15	0.859	1129.72	0.76
298.15	1.016	1152.85	0.82
298.15	1.1791	1176.68	0.89
298.15	1.3008	1194.09	0.93
298.15	1.4565	1216.25	1

System: ethanol + water + lithium sulfate; phases: Liquid
Fixed: Pressure, kPa = 101
Property: Mass density, kg/m3 (Liquid); method: VIBTUB:UFactor:6
Temperature, K	Mass fraction of ethanol	Molality, mol/kg of lithium sulfate	Mass density, kg/m3	uncertainty
283.15	0.04511	2.4445	1181.91	0.83
283.15	0.04628	2.1002	1158.83	0.76
283.15	0.04668	0.7056	1054.28	0.5
283.15	0.04679	0.3523	1023.9	0.44
283.15	0.04999	1.7485	1133.82	0.7
283.15	0.05244	1.051	1081.03	0.56
283.15	0.05348	1.3899	1106.87	0.63
283.15	0.10148	0.3307	1013.91	0.42
283.15	0.10279	0.6558	1041.4	0.47
283.15	0.10284	0.9789	1067.58	0.53
283.15	0.1035	1.9849	1141.39	0.72
283.15	0.10513	1.3216	1093.55	0.59
283.15	0.10603	1.6367	1116.4	0.65
283.15	0.15146	0.2694	1002.23	0.39
283.15	0.15208	0.5433	1025.53	0.43
283.15	0.15242	1.6306	1108.33	0.63
283.15	0.15366	0.8066	1046.6	0.48
283.15	0.15458	1.0806	1067.86	0.53
283.15	0.15512	1.3506	1087.89	0.58
283.15	0.19947	0.7565	1036.25	0.47
283.15	0.20052	1.009	1055.04	0.51
283.15	0.20116	1.2556	1072.83	0.55
283.15	0.20406	0.25	994.19	0.4
283.15	0.20468	0.5081	1015.63	0.43
283.15	0.24459	0.9586	1043.61	0.49
283.15	0.2456	0.5717	1014.58	0.43
283.15	0.24741	0.7687	1029.26	0.46
283.15	0.24859	0.3785	998.97	0.4
283.15	0.24907	0.1823	982.6	0.42
283.15	0.29691	0.1756	974.99	0.44
283.15	0.29784	0.3609	989.54	0.42
283.15	0.29999	0.7388	1017.25	0.44
283.15	0.30007	0.5605	1004.17	0.41
283.15	0.34632	0.4373	986.12	0.43
283.15	0.34771	0.1945	967.67	0.46
283.15	0.39232	0.3882	973.24	0.45
283.15	0.39363	0.2489	962.8	0.47
283.15	0.39673	0.1227	952.6	0.49
283.15	0.44079	0.2123	950.06	0.49
283.15	0.44611	0.1067	941.13	0.51
283.15	0.48852	0.1729	936.86	0.51
283.15	0.49094	0.0467	927.19	0.53
283.15	0.49109	0.1143	932.07	0.52
288.15	0.04511	2.4445	1180.74	0.83
288.15	0.04628	2.1002	1157.66	0.76
288.15	0.04668	0.7056	1053.16	0.5
288.15	0.04679	0.3523	1022.98	0.44
288.15	0.04999	1.7485	1132.41	0.7
288.15	0.05244	1.051	1079.76	0.56
288.15	0.05348	1.3899	1105.56	0.63
288.15	0.10148	0.3307	1012.74	0.42
288.15	0.10279	0.6558	1040.03	0.47
288.15	0.10284	0.9789	1066.16	0.53
288.15	0.1035	1.9849	1139.76	0.72
288.15	0.10513	1.3216	1091.98	0.59
288.15	0.10603	1.6367	1114.87	0.65
288.15	0.15146	0.2694	1000.7	0.39
288.15	0.15208	0.5433	1023.83	0.44
288.15	0.15242	1.6306	1106.44	0.63
288.15	0.15366	0.8066	1044.88	0.48
288.15	0.15458	1.0806	1066.02	0.53
288.15	0.15512	1.3506	1085.95	0.58
288.15	0.19947	0.7565	1034.03	0.47
288.15	0.20052	1.009	1052.76	0.51
288.15	0.20116	1.2556	1070.47	0.55
288.15	0.20406	0.25	992.12	0.4
288.15	0.20468	0.5081	1013.45	0.43
288.15	0.24459	0.9586	1040.97	0.48
288.15	0.2456	0.5717	1011.98	0.43
288.15	0.24741	0.7687	1026.57	0.46
288.15	0.24859	0.3785	996.38	0.41
288.15	0.24907	0.1823	980.07	0.43
288.15	0.29691	0.1756	972	0.44
288.15	0.29784	0.3609	986.5	0.43
288.15	0.29999	0.7388	1014.17	0.44
288.15	0.30007	0.5605	1001.1	0.41
288.15	0.34632	0.4373	982.77	0.44
288.15	0.34771	0.1945	964.32	0.47
288.15	0.39232	0.3882	969.68	0.46
288.15	0.39363	0.2489	959.19	0.48
288.15	0.39673	0.1227	949	0.49
288.15	0.44079	0.2123	946.32	0.5
288.15	0.44611	0.1067	937.35	0.51
288.15	0.48852	0.1729	933	0.52
288.15	0.49094	0.0467	923.28	0.54
288.15	0.49109	0.1143	928.17	0.53
293.15	0.04511	2.4445	1179.08	0.82
293.15	0.04628	2.1002	1156.12	0.76
293.15	0.04668	0.7056	1051.88	0.5
293.15	0.04679	0.3523	1021.82	0.44
293.15	0.04999	1.7485	1130.93	0.69
293.15	0.05244	1.051	1078.4	0.56
293.15	0.05348	1.3899	1104.07	0.62
293.15	0.10148	0.3307	1011.4	0.41
293.15	0.10279	0.6558	1038.55	0.47
293.15	0.10284	0.9789	1064.53	0.53
293.15	0.1035	1.9849	1137.97	0.71
293.15	0.10513	1.3216	1090.27	0.59
293.15	0.10603	1.6367	1113.07	0.65
293.15	0.15146	0.2694	999.01	0.39
293.15	0.15208	0.5433	1022.01	0.43
293.15	0.15242	1.6306	1104.12	0.63
293.15	0.15366	0.8066	1042.94	0.48
293.15	0.15458	1.0806	1063.98	0.53
293.15	0.15512	1.3506	1083.8	0.58
293.15	0.19947	0.7565	1031.72	0.46
293.15	0.20052	1.009	1050.35	0.5
293.15	0.20116	1.2556	1068.16	0.54
293.15	0.20406	0.25	990	0.41
293.15	0.20468	0.5081	1011.16	0.42
293.15	0.24459	0.9586	1038.32	0.48
293.15	0.2456	0.5717	1009.35	0.43
293.15	0.24741	0.7687	1023.82	0.45
293.15	0.24859	0.3785	993.78	0.52
293.15	0.24907	0.1823	977.52	0.43
293.15	0.29691	0.1756	969.03	0.44
293.15	0.29784	0.3609	974.29	10
293.15	0.29999	0.7388	1011.15	0.44
293.15	0.30007	0.5605	998.13	0.43
293.15	0.34632	0.4373	979.49	0.45
293.15	0.34771	0.1945	961.03	0.47
293.15	0.39232	0.3882	966.23	0.47
293.15	0.39363	0.2489	955.7	0.49
293.15	0.39673	0.1227	945.46	0.5
293.15	0.44079	0.2123	942.68	0.51
293.15	0.44611	0.1067	933.66	0.52
293.15	0.48852	0.1729	929.23	0.53
293.15	0.49094	0.0467	919.46	0.54
293.15	0.49109	0.1143	924.37	0.53
298.15	0.04511	2.4445	1177.19	0.82
298.15	0.04628	2.1002	1154.27	0.76
298.15	0.04668	0.7056	1050.34	0.49
298.15	0.04679	0.3523	1020.46	0.44
298.15	0.04999	1.7485	1129.08	0.69
298.15	0.05244	1.051	1076.73	0.55
298.15	0.05348	1.3899	1102.3	0.62
298.15	0.10148	0.3307	1009.75	0.41
298.15	0.10279	0.6558	1036.77	0.47
298.15	0.10284	0.9789	1062.67	0.52
298.15	0.1035	1.9849	1135.7	0.71
298.15	0.10513	1.3216	1088.26	0.59
298.15	0.10603	1.6367	1111.06	0.64
298.15	0.15146	0.2694	997.06	0.4
298.15	0.15208	0.5433	1019.92	0.43
298.15	0.15242	1.6306	1102.08	0.62
298.15	0.15366	0.8066	1040.76	0.48
298.15	0.15458	1.0806	1061.74	0.52
298.15	0.15512	1.3506	1081.51	0.57
298.15	0.19947	0.7565	1029.17	0.46
298.15	0.20052	1.009	1047.82	0.5
298.15	0.20116	1.2556	1065.48	0.54
298.15	0.20406	0.25	987.56	0.42
298.15	0.20468	0.5081	1008.71	0.42
298.15	0.24459	0.9586	1035.4	0.48
298.15	0.2456	0.5717	1006.41	0.42
298.15	0.24741	0.7687	1020.92	0.45
298.15	0.24859	0.3785	990.89	0.42
298.15	0.24907	0.1823	974.72	0.44
298.15	0.29691	0.1756	965.83	0.46
298.15	0.29784	0.3609	980.28	0.44
298.15	0.29999	0.7388	1007.85	0.43
298.15	0.30007	0.5605	994.8	0.42
298.15	0.34632	0.4373	976.01	0.45
298.15	0.34771	0.1945	957.53	0.48
298.15	0.39232	0.3882	962.56	0.47
298.15	0.39363	0.2489	952	0.49
298.15	0.39673	0.1227	941.77	0.51
298.15	0.44079	0.2123	938.83	0.51
298.15	0.44611	0.1067	929.78	0.53
298.15	0.48852	0.1729	925.29	0.53
298.15	0.49094	0.0467	915.45	0.55
298.15	0.49109	0.1143	920.41	0.54

System: ethanol + magnesium sulfate + water; phases: Liquid
Fixed: Pressure, kPa = 101
Property: Mass density, kg/m3 (Liquid); method: VIBTUB:UFactor:6
Temperature, K	Mass fraction of ethanol	Molality, mol/kg of magnesium sulfate	Mass density, kg/m3	uncertainty
283.15	0.02376	1.2831	1140.18	0.72
283.15	0.02456	2.1451	1226.02	0.95
283.15	0.02547	0.4269	1045.88	0.5
283.15	0.02566	0.8509	1093.51	0.6
283.15	0.02662	1.7127	1183.45	0.84
283.15	0.04867	0.7497	1078.07	0.56
283.15	0.04946	1.9025	1197.16	0.88
283.15	0.05059	1.5105	1157.98	0.77
283.15	0.05119	1.1275	1118.17	0.66
283.15	0.05212	0.368	1034.41	0.47
283.15	0.06944	1.092	1111.08	0.65
283.15	0.07538	1.571	1159.38	0.78
283.15	0.07557	0.7827	1076.96	0.56
283.15	0.07596	0.3762	1031.58	0.46
283.15	0.10053	0.353	1025.36	0.44
283.15	0.10061	1.4254	1140.4	0.72
283.15	0.10121	1.0651	1103.07	0.62
283.15	0.10165	0.7088	1064.88	0.53
283.15	0.12276	0.4622	1034.62	0.46
283.15	0.1251	0.9114	1082.97	0.56
283.15	0.12619	1.373	1130.58	0.7
283.15	0.14234	1.0765	1097.69	0.61
283.15	0.14808	0.5741	1043.49	0.48
283.15	0.14899	0.2883	1011.7	0.42
283.15	0.1494	0.8527	1073.1	0.55
283.15	0.17221	0.7325	1057.02	0.51
283.15	0.17559	0.3641	1016.8	0.42
283.15	0.19625	0.552	1034.48	0.46
283.15	0.19734	0.274	1004.01	0.4
283.15	0.22356	0.3538	1009.32	0.41
283.15	0.24766	0.234	993.01	0.41
283.15	0.24852	0.4583	1016.71	0.43
283.15	0.27243	0.2421	990.13	0.42
283.15	0.30013	0.1574	976.79	0.62
288.15	0.0237	2.553	1262.44	1.04
288.15	0.02376	1.2831	1138.82	0.72
288.15	0.02456	2.1451	1224.47	0.94
288.15	0.02547	0.4269	1044.95	0.5
288.15	0.02566	0.8509	1092.35	0.6
288.15	0.02662	1.7127	1181.97	0.83
288.15	0.04867	0.7497	1076.94	0.56
288.15	0.04868	2.2663	1230.7	0.97
288.15	0.04946	1.9025	1195.76	0.87
288.15	0.05059	1.5105	1156.66	0.76
288.15	0.05119	1.1275	1116.95	0.66
288.15	0.05212	0.368	1033.48	0.47
288.15	0.06944	1.092	1109.83	0.65
288.15	0.07402	1.9582	1196.41	0.87
288.15	0.07538	1.571	1157.93	0.77
288.15	0.07557	0.7827	1075.78	0.56
288.15	0.07596	0.3762	1030.64	0.46
288.15	0.10053	0.353	1024.26	0.44
288.15	0.10061	1.4254	1138.81	0.72
288.15	0.10104	1.7645	1172.45	0.81
288.15	0.10121	1.0651	1101.59	0.62
288.15	0.10165	0.7088	1063.55	0.53
288.15	0.12276	0.4622	1033.29	0.46
288.15	0.1251	0.9114	1081.39	0.56
288.15	0.12619	1.373	1128.82	0.69
288.15	0.14234	1.0765	1096	0.61
288.15	0.14808	0.5741	1041.89	0.48
288.15	0.14899	0.2883	1010.25	0.42
288.15	0.1494	0.8527	1071.42	0.55
288.15	0.17221	0.7325	1055.11	0.51
288.15	0.1739	1.085	1091.2	0.6
288.15	0.17559	0.3641	1015.03	0.42
288.15	0.19625	0.552	1032.44	0.46
288.15	0.19717	0.8195	1060.18	0.52
288.15	0.19734	0.274	1002.06	0.4
288.15	0.22305	0.6848	1041.79	0.48
288.15	0.22356	0.3538	1007.05	0.42
288.15	0.24766	0.234	990.55	0.41
288.15	0.24852	0.4583	1014.16	0.43
288.15	0.27243	0.2421	987.43	0.43
288.15	0.29823	0.2987	988.91	0.42
288.15	0.30013	0.1574	973.85	0.45
288.15	0.32441	0.208	974.7	0.4
293.15	0.0237	2.553	1260.51	1.04
293.15	0.02376	1.2831	1137.18	0.72
293.15	0.02456	2.1451	1222.6	0.94
293.15	0.02547	0.4269	1043.74	0.49
293.15	0.02566	0.8509	1090.9	0.6
293.15	0.02662	1.7127	1180.19	0.83
293.15	0.04867	0.7497	1075.59	0.56
293.15	0.04868	2.2663	1228.84	0.96
293.15	0.04946	1.9025	1193.96	0.86
293.15	0.05059	1.5105	1154.95	0.76
293.15	0.05119	1.1275	1115.38	0.66
293.15	0.05212	0.368	1032.28	0.46
293.15	0.06944	1.092	1108.2	0.64
293.15	0.07402	1.9582	1194.57	0.87
293.15	0.07538	1.571	1156.17	0.77
293.15	0.07557	0.7827	1074.29	0.56
293.15	0.07596	0.3762	1029.36	0.46
293.15	0.10053	0.353	1022.85	0.44
293.15	0.10061	1.4254	1136.98	0.71
293.15	0.10104	1.7645	1170.55	0.8
293.15	0.10121	1.0651	1099.87	0.62
293.15	0.10165	0.7088	1061.98	0.52
293.15	0.12276	0.4622	1031.72	0.46
293.15	0.1251	0.9114	1079.58	0.56
293.15	0.12619	1.373	1126.84	0.69
293.15	0.14234	1.0765	1093.86	0.61
293.15	0.14808	0.5741	1040.06	0.48
293.15	0.14899	0.2883	1008.55	0.42
293.15	0.1494	0.8527	1069.44	0.54
293.15	0.14999	1.4291	1127.93	0.7
293.15	0.17221	0.7325	1053.01	0.51
293.15	0.1739	1.085	1088.95	0.6
293.15	0.17559	0.3641	1013.06	0.42
293.15	0.19625	0.552	1030.07	0.46
293.15	0.19717	0.8195	1057.71	0.52
293.15	0.19734	0.274	999.87	0.4
293.15	0.22305	0.6848	1039.22	0.48
293.15	0.22356	0.3538	1004.59	0.42
293.15	0.24689	0.6878	1035.12	0.48
293.15	0.24766	0.234	987.86	0.42
293.15	0.24852	0.4583	1011.35	0.43
293.15	0.27243	0.2421	984.59	0.43
293.15	0.27274	0.4724	1008.31	0.43
293.15	0.29823	0.2987	985.86	0.43
293.15	0.30013	0.1574	970.83	0.46
293.15	0.32441	0.208	971.51	0.4
298.15	0.0237	2.553	1258.58	1.03
298.15	0.02376	1.2831	1135.46	0.71
298.15	0.02411	3.0154	1299.13	1.14
298.15	0.02456	2.1451	1220.72	0.93
298.15	0.02547	0.4269	1042.34	0.49
298.15	0.02566	0.8509	1089.33	0.59
298.15	0.02662	1.7127	1178.37	0.82
298.15	0.04845	2.694	1265.62	1.06
298.15	0.04867	0.7497	1074.06	0.55
298.15	0.04868	2.2663	1226.96	0.95
298.15	0.04946	1.9025	1192.2	0.86
298.15	0.05059	1.5105	1153.26	0.76
298.15	0.05119	1.1275	1113.79	0.65
298.15	0.05212	0.368	1030.86	0.46
298.15	0.06944	1.092	1106.58	0.64
298.15	0.07402	1.9582	1192.33	0.87
298.15	0.07516	2.3628	1229.6	0.97
298.15	0.07538	1.571	1154.26	0.77
298.15	0.07557	0.7827	1072.62	0.55
298.15	0.07596	0.3762	1027.85	0.46
298.15	0.09905	2.054	1195.91	0.87
298.15	0.10053	0.353	1021.24	0.44
298.15	0.10061	1.4254	1134.9	0.71
298.15	0.10104	1.7645	1168.15	0.8
298.15	0.10121	1.0651	1098.03	0.62
298.15	0.10165	0.7088	1060.28	0.52
298.15	0.12276	0.4622	1029.92	0.46
298.15	0.1251	0.9114	1077.61	0.56
298.15	0.12619	1.373	1124.7	0.69
298.15	0.14234	1.0765	1091.78	0.6
298.15	0.14769	1.682	1150.21	0.76
298.15	0.14808	0.5741	1038.03	0.47
298.15	0.14899	0.2883	1006.62	0.41
298.15	0.1494	0.8527	1067.29	0.54
298.15	0.14999	1.4291	1125.54	0.69
298.15	0.17221	0.7325	1050.74	0.5
298.15	0.1739	1.085	1086.58	0.59
298.15	0.17559	0.3641	1010.89	0.42
298.15	0.19625	0.552	1027.71	0.46
298.15	0.19649	1.0842	1081.84	0.59
298.15	0.19717	0.8195	1055.24	0.52
298.15	0.19734	0.274	997.56	0.41
298.15	0.20033	1.2927	1101.13	0.64
298.15	0.22305	0.6848	1036.53	0.48
298.15	0.22356	0.3538	1002	0.41
298.15	0.24611	0.7817	1041.46	0.49
298.15	0.24689	0.6878	1032.22	0.48
298.15	0.24766	0.234	985.22	0.43
298.15	0.24852	0.4583	1008.56	0.43
298.15	0.27243	0.2421	981.62	0.44
298.15	0.27274	0.4724	1005.28	0.43
298.15	0.29823	0.2987	982.73	0.44
298.15	0.29843	0.4412	997.04	0.42
298.15	0.30013	0.1574	967.67	0.46
298.15	0.32441	0.208	968.22	0.46

System: ethanol + water + copper sulfate; phases: Liquid
Fixed: Pressure, kPa = 101
Property: Mass density, kg/m3 (Liquid); method: VIBTUB:UFactor:6
Temperature, K	Mass fraction of ethanol	Molality, mol/kg of copper sulfate	Mass density, kg/m3	uncertainty
283.15	0.02435	0.8149	1123.86	0.7
283.15	0.02462	0.3327	1049.13	0.51
283.15	0.02475	0.6614	1100.36	0.64
283.15	0.02524	0.4959	1074.62	0.57
283.15	0.02643	0.1786	1024.1	0.47
283.15	0.05089	0.3071	1040.35	0.49
283.15	0.05113	0.4528	1063.07	0.54
283.15	0.05125	0.1471	1014.79	0.45
283.15	0.05142	0.6033	1086.19	0.6
283.15	0.07166	0.4517	1059.34	0.53
283.15	0.07523	0.1221	1007.11	0.43
283.15	0.07533	0.357	1044.11	0.5
283.15	0.07539	0.2387	1025.6	0.46
283.15	0.09923	0.2197	1019.13	0.45
283.15	0.09975	0.1143	1002.44	0.41
283.15	0.10053	0.3281	1035.93	0.48
283.15	0.11859	0.1667	1008.21	0.42
283.15	0.11887	0.2405	1019.73	0.45
283.15	0.11893	0.0834	995.02	0.42
283.15	0.14991	0.0735	989.76	0.42
283.15	0.15173	0.1644	1003.77	0.41
283.15	0.17534	0.0538	983.77	0.43
283.15	0.17588	0.1151	993.26	0.41
283.15	0.1997	0.062	982.21	0.39
288.15	0.02435	0.8149	1122.46	0.69
288.15	0.02462	0.3327	1048.15	0.51
288.15	0.02475	0.6614	1099.09	0.63
288.15	0.02494	0.9772	1146.71	0.75
288.15	0.02524	0.4959	1073.5	0.57
288.15	0.02643	0.1786	1023.28	0.47
288.15	0.05009	0.7539	1107.99	0.66
288.15	0.05089	0.3071	1039.37	0.49
288.15	0.05113	0.4528	1061.95	0.54
288.15	0.05125	0.1471	1013.96	0.44
288.15	0.05142	0.6033	1084.91	0.59
288.15	0.07166	0.4517	1058.12	0.53
288.15	0.07523	0.1221	1006.21	0.43
288.15	0.07533	0.357	1042.97	0.49
288.15	0.07539	0.2387	1024.58	0.46
288.15	0.07549	0.6047	1080.82	0.58
288.15	0.09923	0.2197	1018	0.45
288.15	0.09975	0.1143	1001.4	0.41
288.15	0.10033	0.4432	1052.2	0.52
288.15	0.10053	0.3281	1034.67	0.48
288.15	0.11859	0.1667	1006.98	0.42
288.15	0.11887	0.2405	1018.42	0.44
288.15	0.11893	0.0834	993.88	0.42
288.15	0.12549	0.3349	1031.98	0.47
288.15	0.14991	0.0735	988.35	0.42
288.15	0.15014	0.2427	1014.48	0.44
288.15	0.15173	0.1644	1002.25	0.41
288.15	0.17523	0.1728	1000.45	0.41
288.15	0.17534	0.0538	982.13	0.43
288.15	0.17588	0.1151	991.55	0.42
288.15	0.1997	0.062	980.3	0.44
288.15	0.20089	0.1226	989.38	0.43
293.15	0.02435	0.8149	1120.78	0.69
293.15	0.02462	0.3327	1046.91	0.51
293.15	0.02475	0.6614	1097.54	0.63
293.15	0.02494	0.9772	1144.86	0.75
293.15	0.02524	0.4959	1072.08	0.57
293.15	0.02643	0.1786	1022.18	0.46
293.15	0.05009	0.7539	1106.32	0.66
293.15	0.05089	0.3071	1038.09	0.49
293.15	0.05113	0.4528	1060.54	0.54
293.15	0.05125	0.1471	1012.85	0.44
293.15	0.05142	0.6033	1083.37	0.59
293.15	0.07166	0.4517	1056.63	0.53
293.15	0.07523	0.1221	1005.03	0.43
293.15	0.07533	0.357	1041.56	0.49
293.15	0.07539	0.2387	1023.28	0.46
293.15	0.07549	0.6047	1079.17	0.58
293.15	0.09923	0.2197	1016.58	0.45
293.15	0.09975	0.1143	1000.1	0.41
293.15	0.10033	0.4432	1050.57	0.51
293.15	0.10053	0.3281	1033.14	0.48
293.15	0.11859	0.1667	1005.49	0.42
293.15	0.11887	0.2405	1016.85	0.44
293.15	0.11893	0.0834	992.47	0.42
293.15	0.12549	0.3349	1030.28	0.47
293.15	0.14991	0.0735	986.71	0.43
293.15	0.15014	0.2427	1012.65	0.44
293.15	0.15173	0.1644	1000.51	0.41
293.15	0.17523	0.1728	998.46	0.41
293.15	0.17534	0.0538	980.26	0.44
293.15	0.17588	0.1151	989.62	0.43
293.15	0.1997	0.062	978.16	0.44
293.15	0.20089	0.1226	987.18	0.43
298.15	0.02435	0.8149	1118.93	0.68
298.15	0.02462	0.3327	1045.42	0.51
298.15	0.02475	0.6614	1095.78	0.63
298.15	0.02494	0.9772	1142.87	0.74
298.15	0.02524	0.4959	1070.47	0.56
298.15	0.02528	1.1943	1174.52	0.83
298.15	0.02643	0.1786	1020.83	0.46
298.15	0.05009	0.7539	1104.45	0.64
298.15	0.05089	0.3071	1036.57	0.49
298.15	0.05113	0.4528	1058.91	0.53
298.15	0.05125	0.1471	1011.48	0.44
298.15	0.05142	0.6033	1081.62	0.59
298.15	0.05495	0.9581	1133.7	0.72
298.15	0.07166	0.4517	1054.92	0.53
298.15	0.07523	0.1221	1003.57	0.43
298.15	0.07533	0.357	1039.94	0.49
298.15	0.07539	0.2387	1021.74	0.46
298.15	0.07549	0.6047	1077.32	0.58
298.15	0.0778	0.7385	1096.79	0.63
298.15	0.09923	0.2197	1014.93	0.45
298.15	0.09975	0.1143	998.55	0.42
298.15	0.10017	0.5503	1064.91	0.54
298.15	0.10033	0.4432	1048.72	0.51
298.15	0.10053	0.3281	1031.38	0.47
298.15	0.11859	0.1667	1003.76	0.42
298.15	0.11887	0.2405	1015.04	0.44
298.15	0.11893	0.0834	990.8	0.43
298.15	0.12465	0.4223	1041.64	0.49
298.15	0.12549	0.3349	1028.36	0.47
298.15	0.14991	0.0735	984.78	0.43
298.15	0.15014	0.2427	1010.59	0.43
298.15	0.15034	0.3242	1022.93	0.46
298.15	0.15173	0.1644	998.52	0.42
298.15	0.17494	0.2481	1007.59	0.43
298.15	0.17523	0.1728	996.27	0.42
298.15	0.17534	0.0538	978.16	0.44
298.15	0.17588	0.1151	987.47	0.43
298.15	0.1996	0.1806	993.67	0.42
298.15	0.1997	0.062	975.82	0.45
298.15	0.20089	0.1226	984.84	0.44
