Measured thermophysical data. Density and Surface Tension Variation with Temperature for Heptane + 1-Alkanol
Source: J. Chem. Eng. Data, 2006, 10.1021/je060179e
Compound 1: heptane, C7H16, InChI=1S/C7H16/c1-3-5-7-6-4-2/h3-7H2,1-2H3, purity 99.5%
Compound 2: butan-1-ol, C4H10O, InChI=1S/C4H10O/c1-2-3-4-5/h5H,2-4H2,1H3, purity 99.8%
Compound 3: hexan-1-ol, C6H14O, InChI=1S/C6H14O/c1-2-3-4-5-6-7/h7H,2-6H2,1H3, purity 99%
Compound 4: octan-1-ol, C8H18O, InChI=1S/C8H18O/c1-2-3-4-5-6-7-8-9/h9H,2-8H2,1H3, purity 99.5%

System: heptane; phases: Liquid, Gas
Property: Surface tension liquid-gas, N/m (Liquid); method: DROPV:UFactor:2
Temperature, K	Surface tension liquid-gas, N/m	uncertainty
288.15	0.02081	0.00027
293.15	0.02027	0.00027
298.15	0.01968	0.00027
303.15	0.01919	0.00026
308.15	0.01893	0.00026

System: heptane; phases: Liquid
Fixed: Pressure, kPa = 101.325
Property: Mass density, kg/m3 (Liquid); method: VIBTUB:UFactor:4
Temperature, K	Mass density, kg/m3	uncertainty
288.15	687.98	0.65
293.15	683.78	0.65
298.15	679.55	0.66
303.15	675.3	0.66
308.15	671	0.67

System: butan-1-ol; phases: Liquid, Gas
Property: Surface tension liquid-gas, N/m (Liquid); method: DROPV:UFactor:2
Temperature, K	Surface tension liquid-gas, N/m	uncertainty
288.15	0.02468	0.00029
293.15	0.02421	0.00029
298.15	0.02379	0.00029
303.15	0.02334	0.00028
308.15	0.02279	0.00028

System: butan-1-ol; phases: Liquid
Fixed: Pressure, kPa = 101.325
Property: Mass density, kg/m3 (Liquid); method: VIBTUB:UFactor:2
Temperature, K	Mass density, kg/m3	uncertainty
288.15	813.32	0.23
293.15	809.56	0.23
298.15	805.72	0.24
303.15	801.91	0.24
308.15	798.07	0.24

System: hexan-1-ol; phases: Liquid, Gas
Property: Surface tension liquid-gas, N/m (Liquid); method: DROPV:UFactor:2
Temperature, K	Surface tension liquid-gas, N/m	uncertainty
288.15	0.02608	0.00032
293.15	0.02561	0.00032
298.15	0.02519	0.00032
303.15	0.02474	0.00032
308.15	0.02419	0.00031

System: hexan-1-ol; phases: Liquid
Fixed: Pressure, kPa = 101.325
Property: Mass density, kg/m3 (Liquid); method: VIBTUB:UFactor:8
Temperature, K	Mass density, kg/m3	uncertainty
288.15	822.28	0.91
293.15	818.75	0.92
298.15	815.23	0.93
303.15	811.6	0.94
308.15	808	0.95

System: octan-1-ol; phases: Liquid, Gas
Property: Surface tension liquid-gas, N/m (Liquid); method: DROPV:UFactor:2
Temperature, K	Surface tension liquid-gas, N/m	uncertainty
288.15	0.02741	0.00031
293.15	0.02694	0.00031
298.15	0.02652	0.00031
303.15	0.02607	0.0003
308.15	0.02552	0.0003

System: octan-1-ol; phases: Liquid
Fixed: Pressure, kPa = 101.325
Property: Mass density, kg/m3 (Liquid); method: VIBTUB:UFactor:4
Temperature, K	Mass density, kg/m3	uncertainty
288.15	828.55	0.45
293.15	825.11	0.45
298.15	821.64	0.46
303.15	818.19	0.46
308.15	814.69	0.47

System: butan-1-ol + heptane; phases: Liquid, Gas
Property: Surface tension liquid-gas, N/m (Liquid); method: DROPV:UFactor:2
Mole fraction of heptane	Temperature, K	Surface tension liquid-gas, N/m	uncertainty
0.0491	303.15	0.02262	0.00028
0.0498	288.15	0.02431	0.00029
0.0503	293.15	0.02376	0.00028
0.0507	308.15	0.02235	0.00028
0.056	298.15	0.02317	0.00028
0.0937	298.15	0.02275	0.00028
0.0997	303.15	0.02216	0.00028
0.1007	288.15	0.02381	0.00029
0.1008	293.15	0.02326	0.00028
0.1017	308.15	0.02189	0.00027
0.2005	288.15	0.02299	0.00028
0.201	293.15	0.02244	0.00028
0.2052	303.15	0.02141	0.00027
0.2054	308.15	0.02098	0.00027
0.2085	298.15	0.02194	0.00028
0.2986	293.15	0.02185	0.00028
0.302	298.15	0.02135	0.00027
0.3025	308.15	0.02033	0.00027
0.3043	288.15	0.02237	0.00028
0.3051	303.15	0.02081	0.00027
0.3975	298.15	0.02086	0.00027
0.4002	293.15	0.02137	0.00027
0.4003	303.15	0.0203	0.00027
0.4017	308.15	0.01987	0.00026
0.4058	288.15	0.02188	0.00028
0.5009	293.15	0.02101	0.00027
0.504	303.15	0.01992	0.00027
0.5052	308.15	0.01953	0.00026
0.5054	288.15	0.02156	0.00027
0.5054	298.15	0.02044	0.00027
0.5966	303.15	0.01972	0.00026
0.599	288.15	0.02138	0.00027
0.5998	293.15	0.02079	0.00027
0.6007	308.15	0.01928	0.00026
0.6086	298.15	0.02017	0.00027
0.7034	293.15	0.02062	0.00027
0.7052	303.15	0.01948	0.00026
0.7072	288.15	0.02117	0.00027
0.7306	308.15	0.0192	0.00026
0.7971	293.15	0.02051	0.00027
0.8008	288.15	0.02103	0.00027
0.8014	303.15	0.01939	0.00026
0.806	298.15	0.01999	0.00027
0.8079	308.15	0.0191	0.00026
0.8982	288.15	0.02094	0.00027
0.902	293.15	0.02037	0.00027
0.9024	303.15	0.0193	0.00026
0.9082	298.15	0.01985	0.00027
0.9086	308.15	0.01899	0.00026
0.9502	298.15	0.01981	0.00027
0.9507	303.15	0.01927	0.00026
0.9511	293.15	0.02033	0.00027
0.9532	288.15	0.02087	0.00027
0.9532	308.15	0.0189	0.00026

System: butan-1-ol + heptane; phases: Liquid
Fixed: Pressure, kPa = 101
Property: Mass density, kg/m3 (Liquid); method: VIBTUB:UFactor:4
Mole fraction of heptane	Temperature, K	Mass density, kg/m3	uncertainty
0.051	288.15	803.35	0.44
0.051	293.15	799.52	0.45
0.051	298.15	795.66	0.45
0.051	303.15	791.77	0.46
0.051	308.15	787.85	0.47
0.0998	288.15	794.33	0.46
0.0998	293.15	790.46	0.46
0.0998	298.15	786.55	0.47
0.0998	303.15	782.61	0.47
0.0998	308.15	778.63	0.48
0.2067	288.15	776.12	0.49
0.2067	293.15	772.16	0.49
0.2067	298.15	768.15	0.5
0.2067	303.15	764.11	0.5
0.2067	308.15	760.04	0.51
0.3087	288.15	760.61	0.51
0.3087	293.15	756.57	0.52
0.3087	298.15	752.48	0.52
0.3087	303.15	748.35	0.53
0.3087	308.15	744.18	0.54
0.4059	288.15	747.14	0.53
0.4059	293.15	743	0.54
0.4059	298.15	738.85	0.55
0.4059	303.15	734.65	0.55
0.4059	308.15	730.42	0.56
0.5052	288.15	734.63	0.56
0.5052	293.15	730.46	0.56
0.5052	298.15	726.25	0.57
0.5052	303.15	722	0.57
0.5052	308.15	717.71	0.58
0.5986	288.15	724.01	0.57
0.5986	293.15	719.8	0.58
0.5986	298.15	715.56	0.59
0.5986	303.15	711.28	0.59
0.5986	308.15	706.95	0.6
0.7259	288.15	710.89	0.6
0.7259	293.15	706.65	0.6
0.7259	298.15	702.38	0.61
0.7259	303.15	698.07	0.61
0.7259	308.15	693.71	0.62
0.8066	288.15	703.39	0.61
0.8066	293.15	699.15	0.62
0.8066	298.15	694.86	0.62
0.8066	303.15	690.54	0.63
0.8066	308.15	686.18	0.63
0.908	288.15	694.8	0.62
0.908	293.15	690.55	0.63
0.908	298.15	686.27	0.64
0.908	303.15	681.95	0.64
0.908	308.15	677.61	0.65
0.9523	288.15	691.35	0.63
0.9523	293.15	687.11	0.64
0.9523	298.15	682.83	0.64
0.9523	303.15	678.52	0.65
0.9523	308.15	674.17	0.66

System: hexan-1-ol + heptane; phases: Liquid, Gas
Property: Surface tension liquid-gas, N/m (Liquid); method: DROPV:UFactor:2
Mole fraction of heptane	Temperature, K	Surface tension liquid-gas, N/m	uncertainty
0.0428	308.15	0.02364	0.00031
0.0488	303.15	0.0241	0.00031
0.0494	293.15	0.02501	0.00032
0.0497	298.15	0.02461	0.00031
0.0507	288.15	0.0256	0.00032
0.0987	298.15	0.02405	0.00031
0.1018	288.15	0.02501	0.00031
0.1025	308.15	0.02303	0.0003
0.1027	303.15	0.02355	0.0003
0.1036	293.15	0.02445	0.00031
0.1865	303.15	0.02262	0.0003
0.1986	308.15	0.022	0.00029
0.2001	288.15	0.02402	0.00031
0.201	293.15	0.02347	0.0003
0.2023	298.15	0.02292	0.0003
0.3037	293.15	0.02265	0.00029
0.3055	308.15	0.0211	0.00028
0.3087	288.15	0.02322	0.0003
0.3096	298.15	0.02209	0.00029
0.31	303.15	0.02159	0.00029
0.3949	288.15	0.02255	0.00029
0.403	308.15	0.02052	0.00028
0.4078	298.15	0.02145	0.00028
0.4122	303.15	0.02097	0.00028
0.4422	293.15	0.02175	0.00029
0.498	308.15	0.02011	0.00027
0.5021	288.15	0.02216	0.00029
0.5054	298.15	0.02104	0.00028
0.5056	293.15	0.02154	0.00028
0.5086	303.15	0.02049	0.00028
0.5979	293.15	0.02126	0.00028
0.6053	288.15	0.0218	0.00028
0.6099	298.15	0.02058	0.00028
0.6147	303.15	0.02	0.00027
0.6165	308.15	0.01957	0.00027
0.6999	293.15	0.0208	0.00028
0.7042	308.15	0.01935	0.00027
0.7075	298.15	0.02028	0.00027
0.7097	288.15	0.02146	0.00028
0.7097	303.15	0.01978	0.00027
0.8055	288.15	0.0212	0.00028
0.8089	303.15	0.01954	0.00027
0.8091	293.15	0.02054	0.00027
0.8118	308.15	0.01906	0.00026
0.8127	298.15	0.02004	0.00027
0.905	298.15	0.01993	0.00027
0.9054	308.15	0.01889	0.00026
0.9061	293.15	0.02043	0.00027
0.9066	288.15	0.02105	0.00028
0.9068	303.15	0.01926	0.00026
0.9503	308.15	0.01877	0.00026
0.951	293.15	0.02029	0.00027
0.9515	298.15	0.01974	0.00027
0.9517	288.15	0.02094	0.00027
0.9519	303.15	0.01913	0.00026

System: hexan-1-ol + heptane; phases: Liquid
Fixed: Pressure, kPa = 101
Property: Mass density, kg/m3 (Liquid); method: VIBTUB:UFactor:4
Mole fraction of heptane	Temperature, K	Mass density, kg/m3	uncertainty
0.05	288.15	814.76	0.58
0.05	293.15	811.17	0.58
0.05	298.15	807.56	0.58
0.05	303.15	803.92	0.59
0.05	308.15	800.26	0.59
0.0976	288.15	807.66	0.58
0.0976	293.15	804.03	0.58
0.0976	298.15	800.37	0.58
0.0976	303.15	796.68	0.59
0.0976	308.15	792.98	0.59
0.3197	288.15	775.17	0.58
0.3197	293.15	771.33	0.58
0.3197	298.15	767.46	0.59
0.3197	303.15	763.56	0.59
0.3197	308.15	759.64	0.6
0.3943	288.15	764.62	0.58
0.3943	293.15	760.72	0.59
0.3943	298.15	756.8	0.59
0.3943	303.15	752.84	0.6
0.3943	308.15	748.86	0.6
0.5088	288.15	748.93	0.59
0.5088	293.15	744.95	0.59
0.5088	298.15	740.94	0.6
0.5088	303.15	736.9	0.6
0.5088	308.15	732.83	0.61
0.6171	288.15	734.53	0.6
0.6171	293.15	730.47	0.6
0.6171	298.15	726.39	0.61
0.6171	303.15	722.28	0.61
0.6171	308.15	718.13	0.62
0.7045	288.15	723.24	0.61
0.7045	293.15	719.14	0.61
0.7045	298.15	715.01	0.62
0.7045	303.15	710.84	0.62
0.7045	308.15	706.64	0.63
0.808	288.15	710.42	0.62
0.808	293.15	706.27	0.62
0.808	298.15	702.07	0.63
0.808	303.15	697.85	0.63
0.808	308.15	693.59	0.64
0.9072	288.15	698.54	0.63
0.9072	293.15	694.33	0.63
0.9072	298.15	690.09	0.64
0.9072	303.15	685.82	0.64
0.9072	308.15	681.51	0.65

System: octan-1-ol + heptane; phases: Liquid, Gas
Property: Surface tension liquid-gas, N/m (Liquid); method: DROPV:UFactor:2
Mole fraction of heptane	Temperature, K	Surface tension liquid-gas, N/m	uncertainty
0.0504	303.15	0.02518	0.0003
0.0516	288.15	0.02675	0.00031
0.0541	298.15	0.02564	0.0003
0.0562	308.15	0.02454	0.00029
0.0564	293.15	0.02614	0.0003
0.0995	288.15	0.02618	0.0003
0.1017	308.15	0.02405	0.00029
0.1033	303.15	0.02457	0.00029
0.1057	293.15	0.02554	0.0003
0.1083	298.15	0.02503	0.0003
0.1845	288.15	0.02505	0.0003
0.2004	298.15	0.02391	0.00029
0.2052	303.15	0.02346	0.00029
0.2078	308.15	0.02286	0.00028
0.2084	293.15	0.02434	0.00029
0.3065	308.15	0.02192	0.00028
0.3108	303.15	0.02237	0.00028
0.3112	293.15	0.02338	0.00029
0.3137	298.15	0.02282	0.00028
0.3346	288.15	0.02374	0.00029
0.405	298.15	0.02209	0.00028
0.4066	293.15	0.02259	0.00028
0.4117	308.15	0.02111	0.00027
0.4134	303.15	0.02156	0.00028
0.4142	288.15	0.02312	0.00029
0.5034	288.15	0.0226	0.00028
0.5064	308.15	0.02053	0.00027
0.5089	298.15	0.02144	0.00028
0.5114	293.15	0.02196	0.00028
0.5153	303.15	0.02094	0.00027
0.6005	303.15	0.02046	0.00027
0.6065	308.15	0.02	0.00027
0.6074	288.15	0.02216	0.00028
0.6085	298.15	0.02094	0.00027
0.6092	293.15	0.02152	0.00028
0.6639	288.15	0.0219	0.00028
0.7067	303.15	0.01998	0.00027
0.7081	308.15	0.01961	0.00027
0.7107	298.15	0.02046	0.00027
0.7164	293.15	0.02099	0.00027
0.8	308.15	0.01927	0.00026
0.8043	303.15	0.01958	0.00027
0.8072	298.15	0.02015	0.00027
0.8124	293.15	0.02062	0.00027
0.8325	288.15	0.02124	0.00028
0.8965	293.15	0.02048	0.00027
0.9028	308.15	0.01888	0.00026
0.9047	303.15	0.01922	0.00026
0.9071	298.15	0.01982	0.00027
0.9105	288.15	0.02094	0.00027
0.9483	308.15	0.01882	0.00026
0.9486	303.15	0.01914	0.00026
0.9536	298.15	0.01964	0.00027
0.9561	288.15	0.02087	0.00027
0.9573	293.15	0.02026	0.00027

System: octan-1-ol + heptane; phases: Liquid
Fixed: Pressure, kPa = 101
Property: Mass density, kg/m3 (Liquid); method: VIBTUB:UFactor:4
Mole fraction of heptane	Temperature, K	Mass density, kg/m3	uncertainty
0.0514	288.15	822.18	0.45
0.0514	293.15	818.71	0.46
0.0514	298.15	815.21	0.46
0.0514	303.15	811.7	0.47
0.0514	308.15	808.16	0.47
0.1001	288.15	816.02	0.46
0.1001	293.15	812.51	0.47
0.1001	298.15	808.98	0.47
0.1001	303.15	805.43	0.47
0.1001	308.15	801.85	0.48
0.2015	288.15	802.93	0.48
0.2015	293.15	799.33	0.48
0.2015	298.15	795.72	0.49
0.2015	303.15	792.09	0.49
0.2015	308.15	788.43	0.5
0.3082	288.15	788.6	0.5
0.3082	293.15	784.92	0.5
0.3082	298.15	781.22	0.51
0.3082	303.15	777.49	0.51
0.3082	308.15	773.75	0.52
0.4054	288.15	775.17	0.52
0.4054	293.15	771.41	0.52
0.4054	298.15	767.63	0.53
0.4054	303.15	763.85	0.53
0.4054	308.15	760.1	0.54
0.517	288.15	759.5	0.54
0.517	293.15	755.65	0.54
0.517	298.15	751.77	0.55
0.517	303.15	747.87	0.55
0.517	308.15	743.94	0.56
0.6305	288.15	743.28	0.56
0.6305	293.15	739.34	0.56
0.6305	298.15	735.37	0.57
0.6305	303.15	731.38	0.58
0.6305	308.15	727.36	0.58
0.7114	288.15	731.48	0.58
0.7114	293.15	727.47	0.58
0.7114	298.15	723.44	0.59
0.7114	303.15	719.37	0.59
0.7114	308.15	715.28	0.6
0.8136	288.15	716.21	0.6
0.8136	293.15	712.11	0.6
0.8136	298.15	707.99	0.61
0.8136	303.15	703.84	0.61
0.8136	308.15	699.65	0.62
0.9061	288.15	702.2	0.62
0.9061	293.15	698.04	0.62
0.9061	298.15	693.84	0.63
0.9061	303.15	689.61	0.63
0.9061	308.15	685.35	0.64
0.9518	288.15	695.28	0.63
0.9518	293.15	691.08	0.63
0.9518	298.15	686.85	0.64
0.9518	303.15	682.59	0.64
0.9518	308.15	678.3	0.65
