Measured thermophysical data. Densities and Viscosities for the Ternary Systems of Methyl tert-Butyl Ether + Methanol + Benzene and Methyl tert-Butyl Ether + Methanol + Toluene and Their Sub-binary Systems at 298.15 K
Source: J. Chem. Eng. Data, 2006, 10.1021/je0600799
Compound 1: 2-methoxy-2-methylpropane, C5H12O, InChI=1S/C5H12O/c1-5(2,3)6-4/h1-4H3, purity 99.8%
Compound 2: methanol, CH4O, InChI=1S/CH4O/c1-2/h2H,1H3, purity 99.9%
Compound 3: benzene, C6H6, InChI=1S/C6H6/c1-2-4-6-5-3-1/h1-6H, purity 99.9%
Compound 4: toluene, C7H8, InChI=1S/C7H8/c1-7-5-3-2-4-6-7/h2-6H,1H3, purity 99.9%

System: 2-methoxy-2-methylpropane; phases: Liquid
Property: Viscosity, Pa*s (Liquid); method: CAPTUB:UFactor:2
Temperature, K	Pressure, kPa	Viscosity, Pa*s	uncertainty
298.15	101.325	0.000361	7e-06

System: 2-methoxy-2-methylpropane; phases: Liquid
Property: Mass density, kg/m3 (Liquid); method: VIBTUB:UFactor:2
Temperature, K	Pressure, kPa	Mass density, kg/m3	uncertainty
298.15	101.325	736.7	0.3

System: methanol; phases: Liquid
Property: Viscosity, Pa*s (Liquid); method: CAPTUB:UFactor:2
Temperature, K	Pressure, kPa	Viscosity, Pa*s	uncertainty
298.15	101.325	0.00055	1e-05

System: methanol; phases: Liquid
Property: Mass density, kg/m3 (Liquid); method: VIBTUB:UFactor:2
Temperature, K	Pressure, kPa	Mass density, kg/m3	uncertainty
298.15	101.325	786.7	0.3

System: benzene; phases: Liquid
Property: Viscosity, Pa*s (Liquid); method: CAPTUB:UFactor:2
Temperature, K	Pressure, kPa	Viscosity, Pa*s	uncertainty
298.15	101.325	0.000604	1.1e-05

System: benzene; phases: Liquid
Property: Mass density, kg/m3 (Liquid); method: VIBTUB:UFactor:2
Temperature, K	Pressure, kPa	Mass density, kg/m3	uncertainty
298.15	101.325	873.9	0.3

System: toluene; phases: Liquid
Property: Viscosity, Pa*s (Liquid); method: CAPTUB:UFactor:2
Temperature, K	Pressure, kPa	Viscosity, Pa*s	uncertainty
298.15	101.325	0.000556	1e-05

System: toluene; phases: Liquid
Property: Mass density, kg/m3 (Liquid); method: VIBTUB:UFactor:2
Temperature, K	Pressure, kPa	Mass density, kg/m3	uncertainty
298.15	101.325	862.3	0.3

System: methanol + 2-methoxy-2-methylpropane; phases: Liquid
Fixed: Temperature, K = 298.15
Fixed: Pressure, kPa = 101
Property: Viscosity, Pa*s (Liquid); method: CAPTUB:UFactor:2
Mole fraction of 2-methoxy-2-methylpropane	Viscosity, Pa*s	uncertainty
0.0512	0.000547	1e-05
0.0994	0.000536	1e-05
0.1991	0.000488	9e-06
0.3011	0.000455	8e-06
0.4015	0.000436	8e-06
0.4993	0.00042	8e-06
0.6001	0.000402	8e-06
0.7001	0.000387	7e-06
0.8007	0.000376	7e-06
0.8998	0.000366	7e-06
0.9494	0.00036	7e-06

System: methanol + 2-methoxy-2-methylpropane; phases: Liquid
Fixed: Pressure, kPa = 101
Fixed: Temperature, K = 298.15
Property: Mass density, kg/m3 (Liquid); method: VIBTUB:UFactor:2
Mole fraction of 2-methoxy-2-methylpropane	Mass density, kg/m3	uncertainty
0.0512	782.5	0.3
0.0994	779	0.3
0.1991	771.4	0.3
0.3011	765.4	0.3
0.4015	760.2	0.3
0.4993	755.7	0.3
0.6001	751.6	0.3
0.7001	747.7	0.3
0.8007	744.1	0.3
0.8998	740.3	0.3
0.9494	738.5	0.3

System: methanol + benzene; phases: Liquid
Fixed: Temperature, K = 298.15
Fixed: Pressure, kPa = 101
Property: Viscosity, Pa*s (Liquid); method: CAPTUB:UFactor:2
Mole fraction of methanol	Viscosity, Pa*s	uncertainty
0.0504	0.000581	1e-05
0.1	0.000563	1e-05
0.1998	0.000553	1e-05
0.2982	0.00056	1e-05
0.4	0.000561	1e-05
0.5	0.000566	1e-05
0.6	0.000565	1e-05
0.7	0.00056	1e-05
0.8009	0.000557	1e-05
0.9013	0.000553	1e-05
0.95	0.000551	1e-05

System: methanol + benzene; phases: Liquid
Fixed: Pressure, kPa = 101
Fixed: Temperature, K = 298.15
Property: Mass density, kg/m3 (Liquid); method: VIBTUB:UFactor:2
Mole fraction of methanol	Mass density, kg/m3	uncertainty
0.0504	871.7	0.3
0.1	869.5	0.3
0.1998	864.7	0.3
0.2982	859.1	0.3
0.4	853	0.3
0.5	846.2	0.3
0.6	838.5	0.3
0.7	829	0.3
0.8009	817.6	0.3
0.9013	803.7	0.3
0.95	795.7	0.3

System: benzene + 2-methoxy-2-methylpropane; phases: Liquid
Fixed: Temperature, K = 298.15
Fixed: Pressure, kPa = 101
Property: Viscosity, Pa*s (Liquid); method: CAPTUB:UFactor:4
Mole fraction of 2-methoxy-2-methylpropane	Viscosity, Pa*s	uncertainty
0.0502	0.000566	2e-05
0.0999	0.000551	1.9e-05
0.1994	0.000499	1.8e-05
0.3005	0.000473	1.7e-05
0.4006	0.000457	1.7e-05
0.5003	0.000437	1.6e-05
0.6	0.000422	1.6e-05
0.7003	0.000397	1.5e-05
0.8	0.000395	1.5e-05
0.8997	0.000376	1.5e-05
0.9497	0.000372	1.4e-05

System: benzene + 2-methoxy-2-methylpropane; phases: Liquid
Fixed: Pressure, kPa = 101
Fixed: Temperature, K = 298.15
Property: Mass density, kg/m3 (Liquid); method: VIBTUB:UFactor:2
Mole fraction of 2-methoxy-2-methylpropane	Mass density, kg/m3	uncertainty
0.0502	865.1	0.3
0.0999	856.7	0.3
0.1994	840.3	0.3
0.3005	824.9	0.3
0.4006	810.4	0.3
0.5003	796.7	0.3
0.6	783.8	0.3
0.7003	771.2	0.3
0.8	759.2	0.3
0.8997	747.9	0.3
0.9497	742	0.3

System: methanol + toluene; phases: Liquid
Fixed: Temperature, K = 298.15
Fixed: Pressure, kPa = 101
Property: Viscosity, Pa*s (Liquid); method: CAPTUB:UFactor:2
Mole fraction of methanol	Viscosity, Pa*s	uncertainty
0.0499	0.000551	1e-05
0.0998	0.000547	1e-05
0.1993	0.00054	1e-05
0.2998	0.000541	1e-05
0.4007	0.00055	1e-05
0.4998	0.000557	1e-05
0.6002	0.000562	1e-05
0.7	0.000572	1e-05
0.8	0.000569	1e-05
0.9	0.000561	1e-05
0.9501	0.000555	1e-05

System: methanol + toluene; phases: Liquid
Fixed: Pressure, kPa = 101
Fixed: Temperature, K = 298.15
Property: Mass density, kg/m3 (Liquid); method: VIBTUB:UFactor:2
Mole fraction of methanol	Mass density, kg/m3	uncertainty
0.0499	860.7	0.3
0.0998	859.1	0.3
0.1993	855.9	0.3
0.2998	852.1	0.3
0.4007	847.5	0.3
0.4998	842.1	0.3
0.6002	835.6	0.3
0.7	827.7	0.3
0.8	817.7	0.3
0.9	804.4	0.3
0.9501	796.3	0.3

System: toluene + 2-methoxy-2-methylpropane; phases: Liquid
Fixed: Temperature, K = 298.15
Fixed: Pressure, kPa = 101
Property: Viscosity, Pa*s (Liquid); method: CAPTUB:UFactor:2
Mole fraction of 2-methoxy-2-methylpropane	Viscosity, Pa*s	uncertainty
0.05	0.000541	1e-05
0.1	0.000528	9e-06
0.2001	0.000505	9e-06
0.3002	0.000479	9e-06
0.4001	0.000458	8e-06
0.5001	0.000438	8e-06
0.6001	0.000419	8e-06
0.6998	0.000398	8e-06
0.8	0.000383	7e-06
0.8999	0.000372	7e-06
0.9502	0.000365	7e-06

System: toluene + 2-methoxy-2-methylpropane; phases: Liquid
Fixed: Pressure, kPa = 101
Fixed: Temperature, K = 298.15
Property: Mass density, kg/m3 (Liquid); method: VIBTUB:UFactor:2
Mole fraction of 2-methoxy-2-methylpropane	Mass density, kg/m3	uncertainty
0.05	855.8	0.3
0.1	849.3	0.3
0.2001	836.5	0.3
0.3002	823.7	0.3
0.4001	811.2	0.3
0.5001	798.7	0.3
0.6001	785.7	0.3
0.6998	773.4	0.3
0.8	760.9	0.3
0.8999	748.6	0.3
0.9502	742.5	0.3

System: methanol + benzene + 2-methoxy-2-methylpropane; phases: Liquid
Fixed: Temperature, K = 298.15
Fixed: Pressure, kPa = 101
Property: Viscosity, Pa*s (Liquid); method: CAPTUB:UFactor:2
Mole fraction of 2-methoxy-2-methylpropane	Mole fraction of methanol	Viscosity, Pa*s	uncertainty
0.0201	0.7998	0.000559	1e-05
0.0212	0.1786	0.000562	1e-05
0.0295	0.2824	0.000549	1e-05
0.0299	0.9002	0.000542	1e-05
0.0301	0.6999	0.000551	1e-05
0.0303	0.0694	0.000555	1e-05
0.0402	0.5997	0.00054	1e-05
0.041	0.3596	0.000549	1e-05
0.0501	0.4496	0.000557	1e-05
0.0599	0.5405	0.000537	1e-05
0.0699	0.0305	0.00055	1e-05
0.0701	0.8999	0.000532	1e-05
0.0899	0.2101	0.000537	1e-05
0.0901	0.6999	0.000535	1e-05
0.0999	0.8001	0.000526	9e-06
0.1001	0.0999	0.000524	9e-06
0.1198	0.28	0.000531	9e-06
0.1199	0.5999	0.000526	9e-06
0.15	0.7	0.000533	1e-05
0.1503	0.1498	0.000509	9e-06
0.1503	0.4997	0.000532	1e-05
0.1541	0.3479	0.000514	9e-06
0.1798	0.4202	0.000508	9e-06
0.1799	0.8001	0.000501	9e-06
0.2	0.1995	0.000498	9e-06
0.2001	0.6001	0.000507	9e-06
0.2099	0.0896	0.000496	9e-06
0.2101	0.6999	0.000496	9e-06
0.2488	0.5023	0.000491	9e-06
0.2505	0.2498	0.000481	9e-06
0.2699	0.7001	0.000478	9e-06
0.2802	0.1196	0.000472	9e-06
0.2803	0.5998	0.000476	9e-06
0.3	0.2996	0.000471	9e-06
0.3001	0.3999	0.000471	9e-06
0.35	0.5	0.000459	8e-06
0.3502	0.1498	0.000461	9e-06
0.3599	0.0404	0.000554	1e-05
0.3602	0.5999	0.000452	8e-06
0.3999	0.0598	0.00046	9e-06
0.4001	0.1801	0.000448	8e-06
0.4002	0.2995	0.000446	8e-06
0.4204	0.3997	0.000437	8e-06
0.4501	0.4999	0.00044	8e-06
0.4998	0.2503	0.000419	8e-06
0.5	0.3501	0.000414	8e-06
0.5002	0.0493	0.000437	8e-06
0.5002	0.1494	0.000427	8e-06
0.54	0.4003	0.000418	8e-06
0.6	0.36	0.000395	8e-06
0.6001	0.0397	0.000415	8e-06
0.6001	0.1999	0.000401	8e-06
0.6003	0.2796	0.000401	8e-06
0.6006	0.1204	0.000409	8e-06
0.6994	0.0308	0.0004	8e-06
0.7	0.2698	0.000381	7e-06
0.7002	0.2097	0.00039	8e-06
0.7003	0.0895	0.0004	8e-06
0.7003	0.1498	0.000389	7e-06
0.8	0.1801	0.000371	7e-06
0.8001	0.0998	0.000377	7e-06
0.8008	0.0191	0.000393	8e-06
0.8998	0.0301	0.000378	7e-06
0.9003	0.0698	0.000375	7e-06

System: methanol + benzene + 2-methoxy-2-methylpropane; phases: Liquid
Fixed: Temperature, K = 298.15
Fixed: Pressure, kPa = 101
Property: Mass density, kg/m3 (Liquid); method: VIBTUB:UFactor:2
Mole fraction of 2-methoxy-2-methylpropane	Mole fraction of methanol	Mass density, kg/m3	uncertainty
0.0201	0.7998	812.5	0.3
0.0212	0.1786	861.4	0.3
0.0295	0.2824	854.4	0.3
0.0299	0.9002	796	0.3
0.0301	0.6999	821.2	0.3
0.0303	0.0694	864.8	0.3
0.0402	0.5997	829.2	0.3
0.041	0.3596	847.7	0.3
0.0501	0.4496	840	0.3
0.0599	0.5405	831.3	0.3
0.0699	0.0305	859.7	0.3
0.0701	0.8999	785.8	0.3
0.0899	0.2101	847.7	0.3
0.0901	0.6999	808.6	0.3
0.0999	0.8001	794	0.3
0.1001	0.0999	851.9	0.3
0.1198	0.28	838.4	0.3
0.1199	0.5999	813.2	0.3
0.15	0.7	795.6	0.3
0.1503	0.1498	840.8	0.3
0.1503	0.4997	816.4	0.3
0.1541	0.3479	827.9	0.3
0.1798	0.4202	817.8	0.3
0.1799	0.8001	775.6	0.3
0.2	0.1995	829.8	0.3
0.2001	0.6001	797.1	0.3
0.2099	0.0896	834.2	0.3
0.2101	0.6999	783.4	0.3
0.2488	0.5023	797.5	0.3
0.2505	0.2498	818.4	0.3
0.2699	0.7001	771.3	0.3
0.2802	0.1196	821.7	0.3
0.2803	0.5998	782	0.3
0.3	0.2996	806.9	0.3
0.3001	0.3999	798.3	0.3
0.35	0.5	780	0.3
0.3502	0.1498	809.2	0.3
0.3599	0.0404	809	0.3
0.3602	0.5999	767.3	0.3
0.3999	0.0598	807.1	0.3
0.4001	0.1801	800.2	0.3
0.4002	0.2995	790.7	0.3
0.4204	0.3997	778.3	0.3
0.4501	0.4999	763.7	0.3
0.4998	0.2503	779.8	0.3
0.5	0.3501	771.4	0.3
0.5002	0.0493	794.2	0.3
0.5002	0.1494	787.8	0.3
0.54	0.4003	760.1	0.3
0.6	0.36	755	0.3
0.6001	0.0397	776.7	0.3
0.6001	0.1999	769.9	0.3
0.6003	0.2796	765	0.3
0.6006	0.1204	774.9	0.3
0.6994	0.0308	769.2	0.3
0.7	0.2698	749.8	0.3
0.7002	0.2097	755.7	0.3
0.7003	0.0895	765.4	0.3
0.7003	0.1498	760.7	0.3
0.8	0.1801	745	0.3
0.8001	0.0998	752	0.3
0.8008	0.0191	757.8	0.3
0.8998	0.0301	746.4	0.3
0.9003	0.0698	742.7	0.3

System: methanol + toluene + 2-methoxy-2-methylpropane; phases: Liquid
Fixed: Temperature, K = 298.15
Fixed: Pressure, kPa = 101
Property: Viscosity, Pa*s (Liquid); method: CAPTUB:UFactor:2
Mole fraction of 2-methoxy-2-methylpropane	Mole fraction of methanol	Viscosity, Pa*s	uncertainty
0.0201	0.7998	0.000559	1e-05
0.0208	0.1809	0.000533	1e-05
0.0294	0.0711	0.000533	1e-05
0.0301	0.8999	0.000538	1e-05
0.0303	0.27	0.000532	1e-05
0.0377	0.873	0.000557	1e-05
0.04	0.5996	0.000553	1e-05
0.0412	0.3596	0.000536	1e-05
0.0499	0.4502	0.00055	1e-05
0.0598	0.54	0.000544	1e-05
0.0695	0.0331	0.000529	9e-06
0.0699	0.9001	0.00053	9e-06
0.0898	0.2097	0.000523	9e-06
0.0899	0.6999	0.000534	1e-05
0.0996	0.0989	0.000518	9e-06
0.1	0.8001	0.000526	9e-06
0.1199	0.2797	0.000515	9e-06
0.12	0.6	0.000535	1e-05
0.1499	0.5	0.00052	9e-06
0.15	0.1495	0.000503	9e-06
0.15	0.6999	0.000513	9e-06
0.1507	0.3497	0.000504	9e-06
0.1801	0.4197	0.000501	9e-06
0.1801	0.7999	0.000489	9e-06
0.1805	0.0193	0.000499	9e-06
0.2	0.2	0.000494	9e-06
0.2	0.6001	0.000516	9e-06
0.21	0.7	0.000494	9e-06
0.2107	0.0889	0.000492	9e-06
0.25	0.4996	0.000481	9e-06
0.2502	0.2495	0.000498	9e-06
0.2699	0.7	0.000461	9e-06
0.2702	0.0294	0.000486	9e-06
0.2801	0.6	0.000467	9e-06
0.2802	0.1191	0.000472	9e-06
0.3002	0.3998	0.000495	9e-06
0.3005	0.2994	0.000467	9e-06
0.35	0.4999	0.00045	8e-06
0.3563	0.1341	0.000459	8e-06
0.3601	0.5998	0.000443	8e-06
0.3602	0.0396	0.000462	9e-06
0.3999	0.0608	0.00046	8e-06
0.4	0.3	0.000446	8e-06
0.4006	0.1796	0.000449	8e-06
0.4207	0.4008	0.000442	8e-06
0.45	0.4999	0.000422	8e-06
0.4999	0.2504	0.000428	8e-06
0.5	0.35	0.00042	8e-06
0.5003	0.0497	0.000436	8e-06
0.5003	0.1496	0.000429	8e-06
0.5401	0.3999	0.000388	7e-06
0.6	0.28	0.000402	8e-06
0.6002	0.04	0.000417	8e-06
0.6004	0.1195	0.000411	8e-06
0.6005	0.1994	0.000406	8e-06
0.6005	0.3596	0.000396	8e-06
0.7	0.2099	0.000386	7e-06
0.7001	0.0901	0.000394	8e-06
0.7003	0.1494	0.000392	8e-06
0.7005	0.0294	0.000402	8e-06
0.7006	0.2693	0.000383	7e-06
0.7997	0.1802	0.000374	7e-06
0.7999	0.1	0.000382	7e-06
0.8006	0.0193	0.00039	8e-06
0.899	0.0711	0.000363	7e-06
0.9004	0.0294	0.000369	7e-06

System: methanol + toluene + 2-methoxy-2-methylpropane; phases: Liquid
Fixed: Temperature, K = 298.15
Fixed: Pressure, kPa = 101
Property: Mass density, kg/m3 (Liquid); method: VIBTUB:UFactor:2
Mole fraction of 2-methoxy-2-methylpropane	Mole fraction of methanol	Mass density, kg/m3	uncertainty
0.0201	0.7998	813.1	0.3
0.0208	0.1809	853.7	0.3
0.0294	0.0711	856.2	0.3
0.0301	0.8999	796.6	0.3
0.0303	0.27	848.9	0.3
0.0377	0.873	821.3	0.3
0.04	0.5996	828.4	0.3
0.0412	0.3596	842.9	0.3
0.0499	0.4502	836.8	0.3
0.0598	0.54	829.5	0.3
0.0695	0.0331	852.5	0.3
0.0699	0.9001	786.2	0.3
0.0898	0.2097	843.1	0.3
0.0899	0.6999	809.7	0.3
0.0996	0.0989	846.1	0.3
0.1	0.8001	794.7	0.3
0.1199	0.2797	835.7	0.3
0.12	0.6	813.7	0.3
0.1499	0.5	817	0.3
0.15	0.1495	836.5	0.3
0.15	0.6999	796.9	0.3
0.1507	0.3497	827.3	0.3
0.1801	0.4197	818.1	0.3
0.1801	0.7999	775.6	0.3
0.1805	0.0193	838.4	0.3
0.2	0.2	828.2	0.3
0.2	0.6001	798.6	0.3
0.21	0.7	784.2	0.3
0.2107	0.0889	831.9	0.3
0.25	0.4996	799.6	0.3
0.2502	0.2495	818.1	0.3
0.2699	0.7	771.4	0.3
0.2702	0.0294	826.5	0.3
0.2801	0.6	783.1	0.3
0.2802	0.1191	821	0.3
0.3002	0.3998	799.9	0.3
0.3005	0.2994	807.5	0.3
0.35	0.4999	781.2	0.3
0.3563	0.1341	809.7	0.3
0.3601	0.5998	767.3	0.3
0.3602	0.0396	814.9	0.3
0.3999	0.0608	808.2	0.3
0.4	0.3	792.4	0.3
0.4006	0.1796	801	0.3
0.4207	0.4008	780.4	0.3
0.45	0.4999	763.9	0.3
0.4999	0.2504	781.6	0.3
0.5	0.35	772.4	0.3
0.5003	0.0497	795.7	0.3
0.5003	0.1496	789.3	0.3
0.5401	0.3999	760.5	0.3
0.6	0.28	764.3	0.3
0.6002	0.04	783.8	0.3
0.6004	0.1195	778.1	0.3
0.6005	0.1994	771.9	0.3
0.6005	0.3596	755.5	0.3
0.7	0.2099	756.4	0.3
0.7001	0.0901	767	0.3
0.7003	0.1494	762	0.3
0.7005	0.0294	771.5	0.3
0.7006	0.2693	750.2	0.3
0.7997	0.1802	745.3	0.3
0.7999	0.1	753.1	0.3
0.8006	0.0193	759.7	0.3
0.899	0.0711	742.5	0.3
0.9004	0.0294	746.1	0.3
