Measured thermophysical data. Binary Mutual Diffusion Coefficients of Aqueous Solutions of Sucrose, Lactose, Glucose, and Fructose in the Temperature Range from (298.15 to 328.15) K
Source: J. Chem. Eng. Data, 2006, 10.1021/je0602061
Compound 1: 4-O-.beta.-D-galactopyranosyl-D-glucose, C12H22O11, InChI=1S/C12H22O11/c13-1-4(16)7(18)11(5(17)2-14)23-12-10(21)9(20)8(19)6(3-15)22-12/h1,4-12,14-21H,2-3H2/t4-,5+,6+,7+,8-,9-,10+,11+,12-/m0/s1
Compound 2: D-sucrose, C12H22O11, InChI=1S/C12H22O11/c13-1-4-6(16)8(18)9(19)11(21-4)23-12(3-15)10(20)7(17)5(2-14)22-12/h4-11,13-20H,1-3H2/t4-,5-,6-,7-,8+,9-,10+,11-,12+/m1/s1
Compound 3: D-glucose, C6H12O6, InChI=1S/C6H12O6/c7-1-3(9)5(11)6(12)4(10)2-8/h1,3-6,8-12H,2H2/t3-,4+,5+,6+/m0/s1
Compound 4: D-fructose, C6H12O6, InChI=1S/C6H12O6/c7-1-3(9)5(11)6(12)4(10)2-8/h3,5-9,11-12H,1-2H2/t3-,5-,6-/m1/s1
Compound 5: water, H2O, InChI=1S/H2O/h1H2

System: 4-O-.beta.-D-galactopyranosyl-D-glucose + water; phases: Liquid
Fixed: Pressure, kPa = 101
Property: Binary diffusion coefficient, m2/s (Liquid); method: Dispersion
Amount concentration (molarity), mol/dm3 of 4-O-.beta.-D-galactopyranosyl-D-glucose	Temperature, K	Binary diffusion coefficient, m2/s	uncertainty
0.001	298.15	5.68e-10	0.08
0.001	303.15	6.43e-10	0.037
0.001	308.15	7.23e-10	0.105
0.001	312.15	7.89e-10	0.072
0.001	318.15	8.62e-10	0.127
0.001	328.15	1.06e-09	0.215
0.005	298.15	5.65e-10	0.09
0.005	303.15	6.39e-10	0.038
0.005	308.15	7.2e-10	0.184
0.005	312.15	7.85e-10	0.062
0.005	318.15	8.55e-10	0.178
0.005	328.15	1.058e-09	0.163
0.01	298.15	5.61e-10	0.083
0.01	303.15	6.31e-10	0.039
0.01	308.15	7.08e-10	0.081
0.01	312.15	7.74e-10	0.091
0.01	318.15	8.5e-10	0.075
0.01	328.15	1.044e-09	0.046
0.1	298.15	5.41e-10	0.036
0.1	303.15	6.02e-10	0.03
0.1	308.15	6.77e-10	0.065
0.1	312.15	7.4e-10	0.076
0.1	318.15	7.85e-10	0.06
0.1	328.15	1.018e-09	0.046

System: D-sucrose + water; phases: Liquid
Fixed: Pressure, kPa = 101
Property: Binary diffusion coefficient, m2/s (Liquid); method: Dispersion
Amount concentration (molarity), mol/dm3 of D-sucrose	Temperature, K	Binary diffusion coefficient, m2/s	uncertainty
0.002	298.15	5.25e-10	0.034
0.002	303.15	6.11e-10	0.036
0.002	308.15	7.11e-10	0.039
0.002	312.15	8.04e-10	0.048
0.002	318.15	9.17e-10	0.057
0.005	298.15	5.21e-10	0.029
0.005	303.15	6.07e-10	0.032
0.005	308.15	7.06e-10	0.042
0.005	312.15	7.99e-10	0.042
0.005	318.15	9.11e-10	0.057
0.01	298.15	5.2e-10	0.03
0.01	303.15	6.05e-10	0.04
0.01	308.15	7.04e-10	0.05
0.01	312.15	7.93e-10	0.048
0.01	318.15	9.05e-10	0.043
0.1	298.15	5.04e-10	0.029
0.1	303.15	5.94e-10	0.047
0.1	308.15	6.92e-10	0.037
0.1	312.15	7.75e-10	0.042
0.1	318.15	8.88e-10	0.045

System: D-glucose + water; phases: Liquid
Fixed: Pressure, kPa = 101
Property: Binary diffusion coefficient, m2/s (Liquid); method: Dispersion
Amount concentration (molarity), mol/dm3 of D-glucose	Temperature, K	Binary diffusion coefficient, m2/s	uncertainty
0.002	298.15	6.78e-10	0.053
0.002	303.15	7.69e-10	0.072
0.002	308.15	8.57e-10	0.075
0.002	312.15	9.78e-10	0.097
0.005	298.15	6.77e-10	0.053
0.005	303.15	7.65e-10	0.054
0.005	308.15	8.54e-10	0.078
0.005	312.15	9.72e-10	0.079
0.01	298.15	6.76e-10	0.053
0.01	303.15	7.61e-10	0.054
0.01	308.15	8.5e-10	0.057
0.01	312.15	9.66e-10	0.062
0.1	298.15	6.51e-10	0.033
0.1	303.15	7.4e-10	0.037
0.1	308.15	8.32e-10	0.039
0.1	312.15	9.24e-10	0.043

System: D-fructose + water; phases: Liquid
Fixed: Pressure, kPa = 101
Property: Binary diffusion coefficient, m2/s (Liquid); method: Dispersion
Amount concentration (molarity), mol/dm3 of D-fructose	Temperature, K	Binary diffusion coefficient, m2/s	uncertainty
0.002	298.15	6.89e-10	0.071
0.002	303.15	7.7e-10	0.054
0.002	308.15	8.51e-10	0.074
0.002	312.15	9.43e-10	0.095
0.005	298.15	6.84e-10	0.053
0.005	303.15	7.67e-10	0.054
0.005	308.15	8.5e-10	0.048
0.005	312.15	9.39e-10	0.076
0.01	298.15	6.8e-10	0.053
0.01	303.15	7.65e-10	0.054
0.01	308.15	8.5e-10	0.056
0.01	312.15	9.36e-10	0.058
0.1	298.15	6.61e-10	0.035
0.1	303.15	7.44e-10	0.037
0.1	308.15	8.24e-10	0.042
0.1	312.15	9.15e-10	0.045
