Measured thermophysical data. Surface Tension of o-Xylene + Acetic Acid and m-Xylene + Acetic Acid Binary Mixtures from 303.15 K to 343.15 K
Source: J. Chem. Eng. Data, 2007, 10.1021/je060390q
Compound 1: 1,2-dimethylbenzene, C8H10, InChI=1S/C8H10/c1-7-5-3-4-6-8(7)2/h3-6H,1-2H3
Compound 2: 1,3-dimethylbenzene, C8H10, InChI=1S/C8H10/c1-7-4-3-5-8(2)6-7/h3-6H,1-2H3
Compound 3: acetic acid, C2H4O2, InChI=1S/C2H4O2/c1-2(3)4/h1H3,(H,3,4)

System: 1,2-dimethylbenzene; phases: Liquid, Gas
Property: Surface tension liquid-gas, N/m (Liquid); method: Maximal bubble pressure
Temperature, K	Surface tension liquid-gas, N/m	uncertainty
303.15	0.02898	0.00063
308.15	0.02843	0.00062
313.15	0.02788	0.00061
318.15	0.02733	0.00059
323.15	0.02678	0.00058
333.15	0.02568	0.00056
343.15	0.02458	0.00054

System: 1,3-dimethylbenzene; phases: Liquid, Gas
Property: Surface tension liquid-gas, N/m (Liquid); method: Maximal bubble pressure
Temperature, K	Surface tension liquid-gas, N/m	uncertainty
303.15	0.02758	0.0006
308.15	0.02704	0.00059
313.15	0.02649	0.00058
318.15	0.02594	0.00056
323.15	0.02538	0.00055
333.15	0.02427	0.00053
343.15	0.02318	0.00051

System: acetic acid; phases: Liquid, Gas
Property: Surface tension liquid-gas, N/m (Liquid); method: Maximal bubble pressure
Temperature, K	Surface tension liquid-gas, N/m	uncertainty
303.15	0.0264	0.00056
308.15	0.02591	0.00055
313.15	0.02541	0.00054
318.15	0.02491	0.00053
323.15	0.02442	0.00052
333.15	0.02344	0.0005
343.15	0.02245	0.00048

System: acetic acid + 1,2-dimethylbenzene; phases: Liquid, Gas
Property: Surface tension liquid-gas, N/m (Liquid); method: Maximal bubble pressure
Temperature, K	Mole fraction of acetic acid	Surface tension liquid-gas, N/m	uncertainty
303.15	0	0.02898	0.00063
303.15	0.1001	0.02881	0.00062
303.15	0.2001	0.02856	0.00062
303.15	0.3002	0.02832	0.00061
303.15	0.4	0.02807	0.0006
303.15	0.5	0.02781	0.0006
303.15	0.6213	0.0275	0.00059
303.15	0.7001	0.02729	0.00058
303.15	0.8	0.02703	0.00058
303.15	0.9	0.02674	0.00057
303.15	1	0.0264	0.00056
308.15	0	0.02843	0.00062
308.15	0.1001	0.02826	0.00061
308.15	0.2001	0.02803	0.00061
308.15	0.3002	0.02778	0.0006
308.15	0.4	0.02754	0.00059
308.15	0.5	0.02729	0.00059
308.15	0.6213	0.02698	0.00058
308.15	0.7001	0.02678	0.00057
308.15	0.8	0.0265	0.00057
308.15	0.9	0.02624	0.00056
308.15	1	0.02591	0.00055
313.15	0	0.02788	0.00061
313.15	0.1001	0.02771	0.0006
313.15	0.2001	0.02749	0.00059
313.15	0.3002	0.02725	0.00059
313.15	0.4	0.02701	0.00058
313.15	0.5	0.02677	0.00058
313.15	0.6213	0.02647	0.00057
313.15	0.7001	0.02626	0.00056
313.15	0.8	0.02599	0.00056
313.15	0.9	0.02574	0.00055
313.15	1	0.02541	0.00054
318.15	0	0.02733	0.00059
318.15	0.1001	0.02717	0.00059
318.15	0.2001	0.02694	0.00058
318.15	0.3002	0.0267	0.00058
318.15	0.4	0.02647	0.00057
318.15	0.5	0.02623	0.00056
318.15	0.6213	0.02594	0.00056
318.15	0.7001	0.02574	0.00055
318.15	0.8	0.02548	0.00055
318.15	0.9	0.02522	0.00054
318.15	1	0.02491	0.00053
323.15	0	0.02678	0.00058
323.15	0.1001	0.02662	0.00058
323.15	0.2001	0.0264	0.00057
323.15	0.3002	0.02617	0.00057
323.15	0.4	0.02595	0.00056
323.15	0.5	0.02571	0.00055
323.15	0.6213	0.02542	0.00055
323.15	0.7001	0.02522	0.00054
323.15	0.8	0.02497	0.00054
323.15	0.9	0.02472	0.00053
323.15	1	0.02442	0.00052
333.15	0	0.02568	0.00056
333.15	0.1001	0.02554	0.00055
333.15	0.2001	0.02532	0.00055
333.15	0.3002	0.02511	0.00054
333.15	0.4	0.02489	0.00054
333.15	0.5	0.02467	0.00053
333.15	0.6213	0.0244	0.00052
333.15	0.7001	0.0242	0.00052
333.15	0.8	0.02397	0.00051
333.15	0.9	0.02373	0.00051
333.15	1	0.02344	0.0005
343.15	0	0.02458	0.00054
343.15	0.1001	0.02445	0.00053
343.15	0.2001	0.02424	0.00053
343.15	0.3002	0.02404	0.00052
343.15	0.4	0.02384	0.00052
343.15	0.5	0.02363	0.00051
343.15	0.6213	0.02337	0.0005
343.15	0.7001	0.02318	0.0005
343.15	0.8	0.02295	0.00049
343.15	0.9	0.02273	0.00049
343.15	1	0.02245	0.00048

System: acetic acid + 1,3-dimethylbenzene; phases: Liquid, Gas
Property: Surface tension liquid-gas, N/m (Liquid); method: Maximal bubble pressure
Temperature, K	Mole fraction of acetic acid	Surface tension liquid-gas, N/m	uncertainty
303.15	0	0.02758	0.0006
303.15	0.1001	0.02751	0.0006
303.15	0.2001	0.0274	0.00059
303.15	0.3	0.0273	0.00059
303.15	0.4188	0.02717	0.00058
303.15	0.4999	0.02707	0.00058
303.15	0.5999	0.02695	0.00058
303.15	0.7018	0.02687	0.00057
303.15	0.7999	0.02671	0.00057
303.15	0.9	0.02656	0.00057
303.15	1	0.0264	0.00056
308.15	0	0.02704	0.00059
308.15	0.1001	0.02697	0.00058
308.15	0.2001	0.02687	0.00058
308.15	0.3	0.02677	0.00058
308.15	0.4188	0.02663	0.00057
308.15	0.4999	0.02655	0.00057
308.15	0.5999	0.02647	0.00057
308.15	0.7018	0.02636	0.00056
308.15	0.7999	0.02619	0.00056
308.15	0.9	0.02606	0.00056
308.15	1	0.02591	0.00055
313.15	0	0.02649	0.00058
313.15	0.1001	0.02642	0.00057
313.15	0.2001	0.02633	0.00057
313.15	0.3	0.02624	0.00057
313.15	0.4188	0.0261	0.00056
313.15	0.4999	0.02603	0.00056
313.15	0.5999	0.02595	0.00056
313.15	0.7018	0.02584	0.00055
313.15	0.7999	0.02568	0.00055
313.15	0.9	0.02556	0.00055
313.15	1	0.02541	0.00054
318.15	0	0.02594	0.00056
318.15	0.1001	0.02588	0.00056
318.15	0.2001	0.02578	0.00056
318.15	0.3	0.02569	0.00056
318.15	0.4188	0.02558	0.00055
318.15	0.4999	0.0255	0.00055
318.15	0.5999	0.02542	0.00055
318.15	0.7018	0.02532	0.00054
318.15	0.7999	0.02517	0.00054
318.15	0.9	0.02504	0.00054
318.15	1	0.02491	0.00053
323.15	0	0.02538	0.00055
323.15	0.1001	0.02532	0.00055
323.15	0.2001	0.02524	0.00055
323.15	0.3	0.02515	0.00054
323.15	0.4188	0.02504	0.00054
323.15	0.4999	0.02498	0.00054
323.15	0.5999	0.0249	0.00054
323.15	0.7018	0.02476	0.00053
323.15	0.7999	0.02465	0.00053
323.15	0.9	0.02455	0.00053
323.15	1	0.02442	0.00052
333.15	0	0.02427	0.00053
333.15	0.1001	0.02423	0.00053
333.15	0.2001	0.02416	0.00052
333.15	0.3	0.02408	0.00052
333.15	0.4188	0.02398	0.00052
333.15	0.4999	0.02392	0.00052
333.15	0.5999	0.02385	0.00051
333.15	0.7018	0.02374	0.00051
333.15	0.7999	0.02365	0.00051
333.15	0.9	0.02355	0.00051
333.15	1	0.02344	0.0005
343.15	0	0.02318	0.00051
343.15	0.1001	0.02315	0.00051
343.15	0.2001	0.02308	0.0005
343.15	0.3	0.02302	0.0005
343.15	0.4188	0.02293	0.0005
343.15	0.4999	0.02288	0.00049
343.15	0.5999	0.02282	0.00049
343.15	0.7018	0.02272	0.00049
343.15	0.7999	0.02263	0.00049
343.15	0.9	0.02255	0.00048
343.15	1	0.02245	0.00048
