Measured thermophysical data. Compressibility Studies of Binary Solutions Involving Water as a Solute in Nonaqueous Solvents at T ) 298.15 K
Source: J. Chem. Eng. Data, 2006, 10.1021/je0601098
Compound 1: methanol, CH4O, InChI=1S/CH4O/c1-2/h2H,1H3
Compound 2: ethanol, C2H6O, InChI=1S/C2H6O/c1-2-3/h3H,2H2,1H3
Compound 3: 1,4-dioxane, C4H8O2, InChI=1S/C4H8O2/c1-2-6-4-3-5-1/h1-4H2
Compound 4: propan-1-ol, C3H8O, InChI=1S/C3H8O/c1-2-3-4/h4H,2-3H2,1H3
Compound 5: butan-1-ol, C4H10O, InChI=1S/C4H10O/c1-2-3-4-5/h5H,2-4H2,1H3, purity 99%
Compound 6: acetonitrile, C2H3N, InChI=1S/C2H3N/c1-2-3/h1H3, purity 99%
Compound 7: tetrahydrofuran, C4H8O, InChI=1S/C4H8O/c1-2-4-5-3-1/h1-4H2
Compound 8: dimethylformamide, C3H7NO, InChI=1S/C3H7NO/c1-4(2)3-5/h3H,1-2H3
Compound 9: water, H2O, InChI=1S/H2O/h1H2

System: methanol; phases: Liquid
Property: Speed of sound, m/s (Liquid); method: Linear variable-path acoustic interferometer
Pressure, kPa	Temperature, K	Speed of sound, m/s	uncertainty
101	298.15	1103.8	1.8

System: methanol; phases: Liquid
Property: Mass density, kg/m3 (Liquid); method: VIBTUB::UFactor:4
Pressure, kPa	Temperature, K	Mass density, kg/m3	uncertainty
101	298.15	786.66	0.582

System: ethanol; phases: Liquid
Property: Speed of sound, m/s (Liquid); method: Linear variable-path acoustic interferometer
Pressure, kPa	Temperature, K	Speed of sound, m/s	uncertainty
101	298.15	1142.1	1.8

System: ethanol; phases: Liquid
Property: Mass density, kg/m3 (Liquid); method: VIBTUB::UFactor:4
Pressure, kPa	Temperature, K	Mass density, kg/m3	uncertainty
101	298.15	785.207	0.583

System: 1,4-dioxane; phases: Liquid
Property: Speed of sound, m/s (Liquid); method: Linear variable-path acoustic interferometer
Pressure, kPa	Temperature, K	Speed of sound, m/s	uncertainty
101	298.15	1346.3	1.9

System: 1,4-dioxane; phases: Liquid
Property: Mass density, kg/m3 (Liquid); method: VIBTUB::UFactor:4
Pressure, kPa	Temperature, K	Mass density, kg/m3	uncertainty
101	298.15	1028.337	0.381

System: propan-1-ol; phases: Liquid
Property: Speed of sound, m/s (Liquid); method: Linear variable-path acoustic interferometer
Pressure, kPa	Temperature, K	Speed of sound, m/s	uncertainty
101	298.15	1207	1.9

System: propan-1-ol; phases: Liquid
Property: Mass density, kg/m3 (Liquid); method: VIBTUB::UFactor:4
Pressure, kPa	Temperature, K	Mass density, kg/m3	uncertainty
101	298.15	799.683	0.565

System: butan-1-ol; phases: Liquid
Property: Speed of sound, m/s (Liquid); method: Linear variable-path acoustic interferometer
Pressure, kPa	Temperature, K	Speed of sound, m/s	uncertainty
101	298.15	1241.6	1.9

System: butan-1-ol; phases: Liquid
Property: Mass density, kg/m3 (Liquid); method: VIBTUB::UFactor:4
Pressure, kPa	Temperature, K	Mass density, kg/m3	uncertainty
101	298.15	806.024	0.558

System: acetonitrile; phases: Liquid
Property: Speed of sound, m/s (Liquid); method: Linear variable-path acoustic interferometer
Pressure, kPa	Temperature, K	Speed of sound, m/s	uncertainty
101	298.15	1281.3	1.9

System: acetonitrile; phases: Liquid
Property: Mass density, kg/m3 (Liquid); method: VIBTUB::UFactor:4
Pressure, kPa	Temperature, K	Mass density, kg/m3	uncertainty
101	298.15	776.389	0.594

System: tetrahydrofuran; phases: Liquid
Property: Speed of sound, m/s (Liquid); method: Linear variable-path acoustic interferometer
Pressure, kPa	Temperature, K	Speed of sound, m/s	uncertainty
101	298.15	1280.2	1.9

System: tetrahydrofuran; phases: Liquid
Property: Mass density, kg/m3 (Liquid); method: VIBTUB::UFactor:4
Pressure, kPa	Temperature, K	Mass density, kg/m3	uncertainty
101	298.15	882.056	0.465

System: dimethylformamide; phases: Liquid
Property: Speed of sound, m/s (Liquid); method: Linear variable-path acoustic interferometer
Pressure, kPa	Temperature, K	Speed of sound, m/s	uncertainty
101	298.15	1460.2	2

System: dimethylformamide; phases: Liquid
Property: Mass density, kg/m3 (Liquid); method: VIBTUB::UFactor:4
Pressure, kPa	Temperature, K	Mass density, kg/m3	uncertainty
101	298.15	944.076	0.391

System: methanol + water; phases: Liquid
Fixed: Pressure, kPa = 101
Fixed: Temperature, K = 298.15
Property: Speed of sound, m/s (Liquid); method: Linear variable-path acoustic interferometer
Molality, mol/kg of water	Speed of sound, m/s	uncertainty
0	1103.8	1.8
0.15659	1106	1.8
0.21426	1106.2	1.8
0.26413	1106.2	1.8
0.32112	1107.2	1.8
0.41209	1107.9	1.8
0.50853	1109.8	1.8
0.61591	1112.6	1.8
0.7089	1113.4	1.8
0.80742	1114.4	1.8
0.91358	1117.1	1.8
1.01803	1118	1.8

System: methanol + water; phases: Liquid
Fixed: Pressure, kPa = 101
Fixed: Temperature, K = 298.15
Property: Mass density, kg/m3 (Liquid); method: VIBTUB:UFactor:4
Molality, mol/kg of water	Mass density, kg/m3	uncertainty
0	786.66	0.582
0.15659	787.454	0.581
0.21426	787.724	0.58
0.26413	788.016	0.58
0.32112	788.308	0.58
0.41209	788.789	0.579
0.50853	789.27	0.578
0.61591	789.834	0.578
0.7089	790.308	0.577
0.80742	790.823	0.576
0.91358	791.368	0.576
1.01803	791.86	0.575

System: ethanol + water; phases: Liquid
Fixed: Pressure, kPa = 101
Fixed: Temperature, K = 298.15
Property: Speed of sound, m/s (Liquid); method: Linear variable-path acoustic interferometer
Molality, mol/kg of water	Speed of sound, m/s	uncertainty
0	1142.1	1.8
0.21398	1144.6	1.8
0.2705	1145.9	1.8
0.31985	1146.8	1.8
0.36588	1148.6	1.8
0.45432	1151	1.8
0.55413	1153.2	1.8
0.64373	1154.8	1.8
0.743	1156.4	1.8
0.83492	1157.7	1.8
0.92645	1159.5	1.8
1.01891	1160.1	1.8

System: ethanol + water; phases: Liquid
Fixed: Pressure, kPa = 101
Fixed: Temperature, K = 298.15
Property: Mass density, kg/m3 (Liquid); method: VIBTUB:UFactor:4
Molality, mol/kg of water	Mass density, kg/m3	uncertainty
0	785.207	0.583
0.21398	786.407	0.582
0.2705	786.72	0.582
0.31985	786.998	0.581
0.36588	787.262	0.581
0.45432	787.753	0.58
0.55413	788.3	0.58
0.64373	788.782	0.579
0.743	789.321	0.578
0.83492	789.775	0.578
0.92645	790.279	0.577
1.01891	790.734	0.576

System: propan-1-ol + water; phases: Liquid
Fixed: Pressure, kPa = 101
Fixed: Temperature, K = 298.15
Property: Speed of sound, m/s (Liquid); method: Linear variable-path acoustic interferometer
Molality, mol/kg of water	Speed of sound, m/s	uncertainty
0	1207	1.9
0.16267	1209	1.9
0.21698	1209.9	1.9
0.26347	1210.1	1.9
0.31291	1211.5	1.9
0.42093	1213	1.9
0.51368	1213.4	1.9
0.61958	1214.7	1.9
0.71831	1215.8	1.9
0.82045	1217.2	1.9
0.91914	1218.1	1.9
1.00508	1219.3	1.9

System: propan-1-ol + water; phases: Liquid
Fixed: Pressure, kPa = 101
Fixed: Temperature, K = 298.15
Property: Mass density, kg/m3 (Liquid); method: VIBTUB:UFactor:4
Molality, mol/kg of water	Mass density, kg/m3	uncertainty
0	799.683	0.565
0.16267	800.472	0.564
0.21698	800.732	0.564
0.26347	800.961	0.564
0.31291	801.185	0.564
0.42093	801.664	0.563
0.51368	802.083	0.562
0.61958	802.528	0.562
0.71831	802.982	0.561
0.82045	803.412	0.561
0.91914	803.833	0.56
1.00508	804.252	0.56

System: butan-1-ol + water; phases: Liquid
Fixed: Pressure, kPa = 101
Fixed: Temperature, K = 298.15
Property: Speed of sound, m/s (Liquid); method: Linear variable-path acoustic interferometer
Molality, mol/kg of water	Speed of sound, m/s	uncertainty
0	1241.6	1.9
0.1588	1242.9	1.9
0.20344	1243.3	1.9
0.25259	1243.2	1.9
0.30192	1243.6	1.9
0.39984	1244.5	1.9
0.50072	1246.2	1.9
0.60115	1247	1.9
0.70503	1248	1.9
0.80321	1248.8	1.9
0.90166	1249.7	1.9

System: butan-1-ol + water; phases: Liquid
Fixed: Pressure, kPa = 101
Fixed: Temperature, K = 298.15
Property: Mass density, kg/m3 (Liquid); method: VIBTUB:UFactor:4
Molality, mol/kg of water	Mass density, kg/m3	uncertainty
0	806.024	0.558
0.1588	806.701	0.557
0.20344	806.906	0.556
0.25259	807.034	0.556
0.30192	807.215	0.556
0.39984	807.558	0.556
0.50072	807.906	0.555
0.60115	808.262	0.555
0.70503	808.615	0.554
0.80321	808.946	0.554
0.90166	809.283	0.553

System: acetonitrile + water; phases: Liquid
Fixed: Pressure, kPa = 101
Fixed: Temperature, K = 298.15
Property: Speed of sound, m/s (Liquid); method: Linear variable-path acoustic interferometer
Molality, mol/kg of water	Speed of sound, m/s	uncertainty
0	1281.3	1.9
0.11973	1281.5	1.9
0.17293	1282	1.9
0.22443	1282.2	1.9
0.26743	1282.4	1.9
0.31916	1282.2	1.9
0.41884	1282.6	1.9
0.51979	1283	1.9
0.62105	1284	1.9
0.72172	1284.3	1.9
0.82122	1284.7	1.9
0.92053	1285.5	1.9
1.01978	1286.5	1.9

System: acetonitrile + water; phases: Liquid
Fixed: Pressure, kPa = 101
Fixed: Temperature, K = 298.15
Property: Mass density, kg/m3 (Liquid); method: VIBTUB:UFactor:4
Molality, mol/kg of water	Mass density, kg/m3	uncertainty
0	776.389	0.594
0.11973	776.819	0.594
0.17293	777.019	0.594
0.22443	777.174	0.593
0.26743	777.435	0.593
0.31916	777.518	0.593
0.41884	777.923	0.592
0.51979	778.218	0.592
0.62105	778.584	0.592
0.72172	778.921	0.591
0.82122	779.276	0.591
0.92053	779.631	0.59
1.01978	779.949	0.59

System: tetrahydrofuran + water; phases: Liquid
Fixed: Pressure, kPa = 101
Fixed: Temperature, K = 298.15
Property: Speed of sound, m/s (Liquid); method: Linear variable-path acoustic interferometer
Molality, mol/kg of water	Speed of sound, m/s	uncertainty
0	1280.2	1.9
0.13015	1281.2	1.9
0.1845	1281.7	1.9
0.22627	1282	1.9
0.24403	1282.4	1.9
0.32585	1282.9	1.9
0.42467	1283.2	1.9
0.52495	1283.9	1.9
0.6245	1284.6	1.9
0.73087	1285.1	1.9
0.82535	1286	1.9
0.92426	1287	1.9
1.02938	1288	1.9

System: tetrahydrofuran + water; phases: Liquid
Fixed: Pressure, kPa = 101
Fixed: Temperature, K = 298.15
Property: Mass density, kg/m3 (Liquid); method: VIBTUB:UFactor:4
Molality, mol/kg of water	Mass density, kg/m3	uncertainty
0	882.056	0.465
0.13015	882.394	0.464
0.1845	882.536	0.464
0.22627	882.674	0.464
0.24403	882.753	0.464
0.32585	882.981	0.463
0.42467	883.242	0.463
0.52495	883.543	0.463
0.6245	884.032	0.462
0.73087	884.381	0.462
0.82535	884.726	0.461
0.92426	885.015	0.461
1.02938	885.427	0.461

System: dimethylformamide + water; phases: Liquid
Fixed: Pressure, kPa = 101
Fixed: Temperature, K = 298.15
Property: Speed of sound, m/s (Liquid); method: Linear variable-path acoustic interferometer
Molality, mol/kg of water	Speed of sound, m/s	uncertainty
0	1460.2	2
0.08457	1461.1	2
0.13044	1461.8	2
0.17378	1462.4	2
0.23154	1463.9	2
0.27625	1464.1	2
0.32149	1464.2	2
0.41462	1465.5	2
0.51892	1467.4	2
0.61146	1468.1	2
0.71233	1469.4	2
0.81	1470.7	2
0.90439	1472.3	2
1.00129	1473.3	2

System: dimethylformamide + water; phases: Liquid
Fixed: Pressure, kPa = 101
Fixed: Temperature, K = 298.15
Property: Mass density, kg/m3 (Liquid); method: VIBTUB:UFactor:4
Molality, mol/kg of water	Mass density, kg/m3	uncertainty
0	944.076	0.391
0.08457	944.384	0.39
0.13044	944.54	0.39
0.17378	944.701	0.39
0.23154	944.826	0.39
0.27625	945.027	0.39
0.32149	945.143	0.39
0.41462	945.584	0.389
0.51892	945.835	0.389
0.61146	946.263	0.388
0.71233	946.49	0.388
0.81	946.853	0.388
0.90439	947.103	0.387
1.00129	947.417	0.387

System: 1,4-dioxane + water; phases: Liquid
Fixed: Pressure, kPa = 101
Fixed: Temperature, K = 298.15
Property: Speed of sound, m/s (Liquid); method: Linear variable-path acoustic interferometer
Molality, mol/kg of water	Speed of sound, m/s	uncertainty
0	1346.3	1.9
0.07165	1347.1	1.9
0.1214	1347.8	1.9
0.1625	1348.4	1.9
0.2272	1349.2	1.9
0.3262	1350	1.9
0.4214	1350.9	1.9
0.6512	1353	1.9
0.8375	1354.8	1.9
1.0222	1356.5	1.9

System: 1,4-dioxane + water; phases: Liquid
Fixed: Pressure, kPa = 101
Fixed: Temperature, K = 298.15
Property: Mass density, kg/m3 (Liquid); method: VIBTUB:UFactor:4
Molality, mol/kg of water	Mass density, kg/m3	uncertainty
0	1028.337	0.381
0.07165	1028.349	0.381
0.1214	1028.361	0.381
0.1625	1028.371	0.381
0.2272	1028.39	0.381
0.3262	1028.424	0.381
0.4214	1028.463	0.381
0.6512	1028.573	0.382
0.8375	1028.675	0.382
1.0222	1028.782	0.382
