Measured thermophysical data. Solubilities of Glycine and Its Oligopeptides in Aqueous Solutions
Source: J. Chem. Eng. Data, 2006, 10.1021/je0600754
Compound 1: 2-aminoacetic acid, C2H5NO2, InChI=1S/C2H5NO2/c3-1-2(4)5/h1,3H2,(H,4,5)
Compound 2: glycylglycine, C4H8N2O3, InChI=1S/C4H8N2O3/c5-1-3(7)6-2-4(8)9/h1-2,5H2,(H,6,7)(H,8,9)
Compound 3: glycylglycylglycine, C6H11N3O4, InChI=1S/C6H11N3O4/c7-1-4(10)8-2-5(11)9-3-6(12)13/h1-3,7H2,(H,8,10)(H,9,11)(H,12,13)
Compound 4: glycylglycylglycylglycine, C8H14N4O5, InChI=1S/C8H14N4O5/c9-1-5(13)10-2-6(14)11-3-7(15)12-4-8(16)17/h1-4,9H2,(H,10,13)(H,11,14)(H,12,15)(H,16,17)
Compound 5: glycylglycylglycylglycylglycine, C10H17N5O6, InChI=1S/C10H17N5O6/c11-1-6(16)12-2-7(17)13-3-8(18)14-4-9(19)15-5-10(20)21/h1-5,11H2,(H,12,16)(H,13,17)(H,14,18)(H,15,19)(H,20,21)
Compound 6: glycine, N-[N-[N-[N-(N-glycylglycyl)glycyl]glycyl]glycyl]-, C12H20N6O7, InChI=1S/C12H20N6O7/c13-1-7(19)14-2-8(20)15-3-9(21)16-4-10(22)17-5-11(23)18-6-12(24)25/h1-6,13H2,(H,14,19)(H,15,20)(H,16,21)(H,17,22)(H,18,23)(H,24,25)
Compound 7: water, H2O, InChI=1S/H2O/h1H2
Compound 8: ethanol, C2H6O, InChI=1S/C2H6O/c1-2-3/h3H,2H2,1H3

System: 2-aminoacetic acid + water; phases: Liquid, Crystal
Property: Mass concentration, kg/m3 (Liquid); method: gravimetric analysis
Temperature, K	Pressure, kPa	Mass concentration, kg/m3	uncertainty
298.15	101	206.41	20.64

System: 2-aminoacetic acid + water; phases: Liquid, Crystal
Property: Mass concentration, kg/m3 (Liquid); method: OTHER::sMethod:gravimetric analysis
Pressure, kPa	Temperature, K	Mass concentration, kg/m3	uncertainty
101	298.15	206.41	20.64

System: glycylglycine + water; phases: Liquid, Crystal
Property: Mass concentration, kg/m3 (Liquid); method: gravimetric analysis
Temperature, K	Pressure, kPa	Mass concentration, kg/m3	uncertainty
298.15	101	201.1	20.11

System: glycylglycylglycine + water; phases: Liquid, Crystal
Property: Mass concentration, kg/m3 (Liquid); method: gravimetric analysis
Temperature, K	Pressure, kPa	Mass concentration, kg/m3	uncertainty
298.15	101	72.35	7.24

System: glycylglycylglycylglycine + water; phases: Liquid, Crystal
Property: Mass concentration, kg/m3 (Liquid); method: gravimetric analysis
Temperature, K	Pressure, kPa	Mass concentration, kg/m3	uncertainty
298.15	101	5.25	0.53

System: glycylglycylglycylglycylglycine + water; phases: Liquid, Crystal
Property: Mass concentration, kg/m3 (Liquid); method: gravimetric analysis
Temperature, K	Pressure, kPa	Mass concentration, kg/m3	uncertainty
298.15	101	1.5	0.15

System: glycine, N-[N-[N-[N-(N-glycylglycyl)glycyl]glycyl]glycyl]- + water; phases: Liquid, Crystal
Property: Mass concentration, kg/m3 (Liquid); method: gravimetric analysis
Temperature, K	Pressure, kPa	Mass concentration, kg/m3	uncertainty
298.15	101	0.6	0.06

System: 2-aminoacetic acid + ethanol + water; phases: Liquid, Crystal
Fixed: Temperature, K = 298.15
Fixed: Pressure, kPa = 101
Property: Mass concentration, kg/m3 of 2-aminoacetic acid (Liquid); method: gravimetric analysis
Solvent: Volume fraction of ethanol	Mass concentration, kg/m3 of 2-aminoacetic acid	uncertainty
0	206.41	20.64
0.1	162.51	16.25
0.2	120.67	12.07
0.3	76.58	7.66
0.4	46.55	4.66
0.5	26.62	2.66
0.6	14.12	1.41

System: ethanol + glycylglycine + water; phases: Liquid, Crystal
Fixed: Temperature, K = 298.15
Fixed: Pressure, kPa = 101
Property: Mass concentration, kg/m3 of ethanol (Liquid); method: gravimetric analysis
Solvent: Volume fraction of ethanol	Mass concentration, kg/m3 of ethanol	uncertainty
0	201.1	20.11
0.1	137.34	13.73
0.2	93.39	9.34
0.3	46.08	4.61
0.4	21.37	2.14
0.5	11.54	1.15
0.6	5.88	0.59

System: ethanol + glycylglycylglycine + water; phases: Liquid, Crystal
Fixed: Temperature, K = 298.15
Fixed: Pressure, kPa = 101
Property: Mass concentration, kg/m3 of ethanol (Liquid); method: gravimetric analysis
Solvent: Volume fraction of ethanol	Mass concentration, kg/m3 of ethanol	uncertainty
0	72.35	7.24
0.1	41.7	4.17
0.2	22.31	2.23
0.3	12.3	1.23
0.4	6.02	0.6
0.5	3.12	0.31
0.6	1.59	0.16

System: ethanol + glycylglycylglycylglycine + water; phases: Liquid, Crystal
Fixed: Temperature, K = 298.15
Fixed: Pressure, kPa = 101
Property: Mass concentration, kg/m3 of ethanol (Liquid); method: gravimetric analysis
Solvent: Volume fraction of ethanol	Mass concentration, kg/m3 of ethanol	uncertainty
0	5.25	1.05
0.1	3.18	0.64
0.2	1.74	0.35
0.3	0.98	0.2
0.4	0.73	0.15
0.5	0.46	0.09
0.6	0.36	0.07

System: ethanol + glycylglycylglycylglycylglycine + water; phases: Liquid, Crystal
Fixed: Temperature, K = 298.15
Fixed: Pressure, kPa = 101
Property: Mass concentration, kg/m3 of ethanol (Liquid); method: gravimetric analysis
Solvent: Volume fraction of ethanol	Mass concentration, kg/m3 of ethanol	uncertainty
0	1.5	0.15
0.1	1.07	0.11
0.2	0.73	0.07
0.3	0.5	0.05
0.4	0.32	0.03
0.5	0.21	0.02
0.6	0.12	0.01

System: ethanol + glycine, N-[N-[N-[N-(N-glycylglycyl)glycyl]glycyl]glycyl]- + water; phases: Liquid, Crystal
Fixed: Temperature, K = 298.15
Fixed: Pressure, kPa = 101
Property: Mass concentration, kg/m3 of ethanol (Liquid); method: gravimetric analysis
Solvent: Volume fraction of ethanol	Mass concentration, kg/m3 of ethanol	uncertainty
0	0.6	0.06
0.1	0.42	0.04
0.2	0.3	0.03
0.3	0.22	0.02
0.4	0.17	0.02
0.5	0.13	0.01
0.6	0.1	0.01
