Measured thermophysical data. Thermochemistry of Some Derivatives of 2- and 4-Piperidone
Source: J. Chem. Eng. Data, 2006, 10.1021/je060046t
Compound 1: carbon dioxide, CO2, InChI=1S/CO2/c2-1-3
Compound 2: nitrogen, N2, InChI=1S/N2/c1-2
Compound 3: water, H2O, InChI=1S/H2O/h1H2
Compound 4: oxygen, O2, InChI=1S/O2/c1-2
Compound 5: 2-piperidone, C5H9NO, InChI=1S/C5H9NO/c7-5-3-1-2-4-6-5/h1-4H2,(H,6,7)
Compound 6: 1-methyl-2-piperidone, C6H11NO, InChI=1S/C6H11NO/c1-7-5-3-2-4-6(7)8/h2-5H2,1H3
Compound 7: 1-benzyl-2-piperidone, C12H15NO, InChI=1S/C12H15NO/c14-12-8-4-5-9-13(12)10-11-6-2-1-3-7-11/h1-3,6-7H,4-5,8-10H2
Compound 8: 1-methyl-4-oxopiperidine, C6H11NO, InChI=1S/C6H11NO/c1-7-4-2-6(8)3-5-7/h2-5H2,1H3
Compound 9: 1-ethyl-4-piperidone, C7H13NO, InChI=1S/C7H13NO/c1-2-8-5-3-7(9)4-6-8/h2-6H2,1H3
Compound 10: 1-benzyl-4-piperidone, C12H15NO, InChI=1S/C12H15NO/c14-12-6-8-13(9-7-12)10-11-4-2-1-3-5-11/h1-5H,6-10H2

System: 2-piperidone; phases: Gas
Property: Molar enthalpy, kJ/mol (Gas); method: vacuum sublimation drop microcalorimetry
Temperature, K	Pressure, kPa	Molar enthalpy, kJ/mol	uncertainty
334	101	82.87	0.91

System: 1-methyl-2-piperidone; phases: Gas
Property: Molar enthalpy, kJ/mol (Gas); method: vacuum sublimation drop microcalorimetry
Temperature, K	Pressure, kPa	Molar enthalpy, kJ/mol	uncertainty
355	101	68.08	0.14

System: 1-benzyl-2-piperidone; phases: Gas
Property: Molar enthalpy, kJ/mol (Gas); method: vacuum sublimation drop microcalorimetry
Temperature, K	Pressure, kPa	Molar enthalpy, kJ/mol	uncertainty
427	101	121.29	0.83

System: 1-methyl-4-oxopiperidine; phases: Gas
Property: Molar enthalpy, kJ/mol (Gas); method: vacuum sublimation drop microcalorimetry
Temperature, K	Pressure, kPa	Molar enthalpy, kJ/mol	uncertainty
334	101	59.01	0.66

System: 1-ethyl-4-piperidone; phases: Gas
Property: Molar enthalpy, kJ/mol (Gas); method: vacuum sublimation drop microcalorimetry
Temperature, K	Pressure, kPa	Molar enthalpy, kJ/mol	uncertainty
358	101	66.35	0.71

System: 1-benzyl-4-piperidone; phases: Gas
Property: Molar enthalpy, kJ/mol (Gas); method: vacuum sublimation drop microcalorimetry
Temperature, K	Pressure, kPa	Molar enthalpy, kJ/mol	uncertainty
358	101	90.79	0.81

Reaction: -1 2-piperidone + 5 carbon dioxide + .5 nitrogen + 4.5 water + -6.75 oxygen
Property: Specific internal energy of reaction at constant volume, J/g
-29698.4

Reaction: -1 1-methyl-2-piperidone + 6 carbon dioxide + .5 nitrogen + 5.5 water + -8.25 oxygen
Property: Specific internal energy of reaction at constant volume, J/g
-32128.6

Reaction: -1 1-benzyl-2-piperidone + 12 carbon dioxide + .5 nitrogen + 7.5 water + -15.25 oxygen
Property: Specific internal energy of reaction at constant volume, J/g
-35132.7

Reaction: -1 1-methyl-4-oxopiperidine + 6 carbon dioxide + .5 nitrogen + 5.5 water + -8.25 oxygen
Property: Specific internal energy of reaction at constant volume, J/g
-32820.3

Reaction: -1 1-ethyl-4-piperidone + 7 carbon dioxide + .5 nitrogen + 6.5 water + -9.75 oxygen
Property: Specific internal energy of reaction at constant volume, J/g
-34337

Reaction: -1 1-benzyl-4-piperidone + 12 carbon dioxide + .5 nitrogen + 7.5 water + -15.25 oxygen
Property: Specific internal energy of reaction at constant volume, J/g
-35558.9
