Measured thermophysical data. Solubility of D-(-)-p-Hydroxyphenylglycine Dane Salt in Mixtures of Methanol and Ethanol
Source: J. Chem. Eng. Data, 2006, 10.1021/je060294p
Compound 1: methanol, CH4O, InChI=1S/CH4O/c1-2/h2H,1H3
Compound 2: ethanol, C2H6O, InChI=1S/C2H6O/c1-2-3/h3H,2H2,1H3
Compound 3: potassium (R,E)-2-(4-hydroxyphenyl)-2-((4-methoxy-4-oxobut-2-en-2-yl)amino)acetate, C13H14KNO5, InChI=1S/C13H15NO5.K/c1-8(7-11(16)19-2)14-12(13(17)18)9-3-5-10(15)6-4-9;/h3-7,12,14-15H,1-2H3,(H,17,18);/q;+1/p-1/b8-7+;/t12-;/m1./s1

System: ethanol + methanol + potassium (R,E)-2-(4-hydroxyphenyl)-2-((4-methoxy-4-oxobut-2-en-2-yl)amino)acetate; phases: Liquid, Crystal
Fixed: Pressure, kPa = 101
Property: Mole fraction of potassium (R,E)-2-(4-hydroxyphenyl)-2-((4-methoxy-4-oxobut-2-en-2-yl)amino)acetate (Liquid); method: laser intensity
Solvent: Mole fraction of methanol	Temperature, K	Mole fraction of potassium (R,E)-2-(4-hydroxyphenyl)-2-((4-methoxy-4-oxobut-2-en-2-yl)amino)acetate	uncertainty
0	278.22	0.0003191	4.9e-06
0	283.26	0.0003421	5.2e-06
0	288.21	0.0003693	5.7e-06
0	293.04	0.0004004	6.1e-06
0	298.07	0.0004375	6.7e-06
0	303.29	0.0004811	7.4e-06
0	308.21	0.000527	8.1e-06
0	313.09	0.000577	8.8e-06
0	318.23	0.0006347	9.7e-06
0	323.11	0.000694	1.06e-05
0.1381	278.28	0.0003987	6.4e-06
0.1381	284.09	0.0004276	6.8e-06
0.1381	288.21	0.0004535	7.2e-06
0.1381	293.13	0.0004901	7.8e-06
0.1381	298.26	0.000535	8.6e-06
0.1381	303.91	0.0005924	9.5e-06
0.1381	308.02	0.0006393	1.02e-05
0.1381	312.82	0.0006997	1.12e-05
0.1381	318.18	0.0007742	1.24e-05
0.1381	322.43	0.0008386	1.34e-05
0.2649	278.11	0.0006174	1.03e-05
0.2649	283.39	0.0006573	1.09e-05
0.2649	288.02	0.0006975	1.16e-05
0.2649	293.04	0.0007467	1.24e-05
0.2649	298.22	0.0008034	1.34e-05
0.2649	303.16	0.0008633	1.44e-05
0.2649	308.33	0.0009319	1.55e-05
0.2649	312.91	0.0009977	1.66e-05
0.2649	318.24	0.0010804	1.8e-05
0.2649	323.03	0.0011603	1.93e-05
0.3819	278.34	0.0007718	1.34e-05
0.3819	283.41	0.0008412	1.46e-05
0.3819	288.23	0.0009083	1.57e-05
0.3819	293.38	0.0009813	1.7e-05
0.3819	298.4	0.0010536	1.83e-05
0.3819	303.46	0.0011263	1.95e-05
0.3819	308.18	0.001198	2.08e-05
0.3819	313.09	0.0012722	2.21e-05
0.3819	319.13	0.001365	2.37e-05
0.3819	323.01	0.0014256	2.47e-05
0.4901	278.12	0.0010104	1.82e-05
0.4901	283.05	0.0011016	1.98e-05
0.4901	288.34	0.0012013	2.16e-05
0.4901	292.98	0.0012901	2.32e-05
0.4901	298.39	0.0013954	2.51e-05
0.4901	303.37	0.0014939	2.69e-05
0.4901	308.02	0.0015874	2.86e-05
0.4901	312.91	0.0016871	3.04e-05
0.4901	318.19	0.0017965	3.24e-05
0.4901	322.31	0.001883	3.39e-05
0.5904	278.43	0.0012734	2.38e-05
0.5904	283.62	0.0013953	2.61e-05
0.5904	288.29	0.001505	2.81e-05
0.5904	293.33	0.0016232	3.03e-05
0.5904	298.03	0.0017334	3.24e-05
0.5904	303.16	0.0018536	3.46e-05
0.5904	308.08	0.0019688	3.68e-05
0.5904	313.38	0.0020929	3.91e-05
0.5904	318.17	0.0022049	4.12e-05
0.5904	323.22	0.002323	4.34e-05
0.6838	278.32	0.0015842	3.07e-05
0.6838	283.14	0.0017128	3.32e-05
0.6838	287.94	0.0018429	3.57e-05
0.6838	293.39	0.0019932	3.86e-05
0.6838	298.47	0.0021357	4.14e-05
0.6838	303.07	0.0022668	4.39e-05
0.6838	308.23	0.0024162	4.68e-05
0.6838	313.35	0.0025668	4.97e-05
0.6838	318.12	0.0027093	5.25e-05
0.6838	322.65	0.0028465	5.52e-05
0.7708	278.06	0.001824	3.65e-05
0.7708	283.34	0.0019899	3.99e-05
0.7708	288.04	0.0021425	4.29e-05
0.7708	293.08	0.0023114	4.63e-05
0.7708	298.38	0.0024948	5e-05
0.7708	303.33	0.0026714	5.36e-05
0.7708	308.11	0.0028469	5.71e-05
0.7708	313.32	0.0030437	6.1e-05
0.7708	317.94	0.003223	6.46e-05
0.7708	322.54	0.003406	6.83e-05
0.8502	278.39	0.0020401	4.22e-05
0.8502	283.12	0.0022336	4.62e-05
0.8502	288.01	0.0024365	5.04e-05
0.8502	293.33	0.0026607	5.51e-05
0.8502	298.38	0.0028767	5.96e-05
0.8502	303	0.003077	6.37e-05
0.8502	308.26	0.0033084	6.85e-05
0.8502	313.62	0.0035476	7.35e-05
0.8502	318.07	0.003749	7.77e-05
0.8502	323.27	0.0039874	8.27e-05
0.9283	278.46	0.0024972	5.34e-05
0.9283	283.24	0.0026785	5.73e-05
0.9283	288.26	0.0028551	6.11e-05
0.9283	293.33	0.0030506	6.53e-05
0.9283	298.13	0.0032517	6.96e-05
0.9283	303.22	0.0034819	7.45e-05
0.9283	308.36	0.003732	7.99e-05
0.9283	313.54	0.004002	8.57e-05
0.9283	318.03	0.0042507	9.11e-05
0.9283	322.17	0.0044919	9.62e-05
1	278.24	0.0028101	6.2e-05
1	283.28	0.0030322	6.69e-05
1	288.04	0.0032498	7.17e-05
1	293.35	0.0035016	7.73e-05
1	298.31	0.0037453	8.27e-05
1	302.97	0.0039818	8.8e-05
1	308.19	0.0042553	9.4e-05
1	313.32	0.0045331	0.0001002
1	318.11	0.0048004	0.0001061
1	322.45	0.0050491	0.0001116
