Measured thermophysical data. Density and Viscosity of Aqueous Solutions of (2-Piperidineethanol + Piperazine) from (288 to 333) K and Surface Tension of Aqueous Solutions of (N-Methyldiethanolamine + Piperazine), (2-Amino-2-methyl-1-propanol + Piperazine), and (2-Piperidineethanol + Piperazine) from (293 to 323) K
Source: J. Chem. Eng. Data, 2006, 10.1021/je0603271
Compound 1: 2-(2-hydroxyethyl)piperidine, C7H15NO, InChI=1S/C7H15NO/c9-6-4-7-3-1-2-5-8-7/h7-9H,1-6H2
Compound 2: piperazine, C4H10N2, InChI=1S/C4H10N2/c1-2-6-4-3-5-1/h5-6H,1-4H2
Compound 3: N-methyldiethanolamine, C5H13NO2, InChI=1S/C5H13NO2/c1-6(2-4-7)3-5-8/h7-8H,2-5H2,1H3
Compound 4: 2-amino-2-methylpropan-1-ol, C4H11NO, InChI=1S/C4H11NO/c1-4(2,5)3-6/h6H,3,5H2,1-2H3
Compound 5: water, H2O, InChI=1S/H2O/h1H2

System: N-methyldiethanolamine; phases: Liquid
Fixed: Pressure, kPa = 101.325
Property: Viscosity, Pa*s (Liquid); method: CAPTUB:UFactor:8
Temperature, K	Viscosity, Pa*s	uncertainty
288	0.142	0.0203
313	0.03473	0.00132
333	0.01466	0.00057

System: N-methyldiethanolamine; phases: Liquid
Fixed: Pressure, kPa = 101.325
Property: Mass density, kg/m3 (Liquid); method: PYCNOM:UFactor:4
Temperature, K	Mass density, kg/m3	uncertainty
288	1044.1	1.9
313	1027.2	2
333	1012.6	2.2

System: N-methyldiethanolamine + water; phases: Liquid, Gas
Property: Surface tension liquid-gas, N/m (Liquid); method: RINGTE:UFactor:2
Temperature, K	Mass fraction of N-methyldiethanolamine	Surface tension liquid-gas, N/m	uncertainty
293	0.1	0.06235	0.00164
293	0.2	0.05841	0.00155
293	0.3	0.05514	0.00148
313	0.1	0.05791	0.00153
313	0.2	0.05471	0.00146
313	0.3	0.05137	0.00139
333	0.1	0.05589	0.00149
333	0.2	0.05259	0.00141
333	0.3	0.05021	0.00136

System: N-methyldiethanolamine + water; phases: Liquid
Fixed: Pressure, kPa = 101
Property: Viscosity, Pa*s (Liquid); method: CAPTUB:UFactor:8
Temperature, K	Mass fraction of N-methyldiethanolamine	Viscosity, Pa*s	uncertainty
288	0.1	0.001703	8e-05
288	0.2	0.002624	0.00012
288	0.3	0.004399	0.000195
313	0.1	0.000899	4.6e-05
313	0.2	0.001305	6.3e-05
313	0.3	0.001929	9.1e-05
333	0.1	0.00063	3.4e-05
333	0.2	0.00086	4.4e-05
333	0.3	0.001218	6e-05

System: N-methyldiethanolamine + water; phases: Liquid
Fixed: Pressure, kPa = 101
Property: Mass density, kg/m3 (Liquid); method: PYCNOM:UFactor:4
Temperature, K	Mass fraction of N-methyldiethanolamine	Mass density, kg/m3	uncertainty
288	0.1	1007.9	1.4
288	0.2	1016.7	1.4
288	0.3	1030.7	1.5
313	0.1	1000.4	1.5
313	0.2	1008.6	1.5
313	0.3	1019.3	1.6
333	0.1	990.2	1.6
333	0.2	999.5	1.6
333	0.3	1007.1	1.7

System: piperazine + 2-(2-hydroxyethyl)piperidine + water; phases: Liquid, Gas
Fixed: Mass fraction of water = 0.7
Property: Surface tension liquid-gas, N/m (Liquid); method: RINGTE:UFactor:1.5
Temperature, K	Mass fraction of piperazine	Surface tension liquid-gas, N/m	uncertainty
293	0.03	0.04372	0.00099
293	0.06	0.04417	0.00099
293	0.09	0.04437	0.00098
293	0.12	0.04453	0.00097
298	0.03	0.04311	0.00098
298	0.06	0.04331	0.00097
298	0.09	0.04343	0.00096
298	0.12	0.04363	0.00095
303	0.03	0.0422	0.00096
303	0.06	0.04258	0.00095
303	0.09	0.04277	0.00095
303	0.12	0.04292	0.00094
308	0.03	0.04132	0.00094
308	0.06	0.04205	0.00094
308	0.09	0.04222	0.00094
308	0.12	0.04242	0.00093
313	0.03	0.04079	0.00093
313	0.06	0.04122	0.00093
313	0.09	0.04145	0.00092
313	0.12	0.04176	0.00092
318	0.03	0.04043	0.00092
318	0.06	0.04055	0.00091
318	0.09	0.04072	0.00091
318	0.12	0.04092	0.0009
323	0.03	0.03973	0.00091
323	0.06	0.03997	0.0009
323	0.09	0.04027	0.0009
323	0.12	0.04048	0.00089

System: piperazine + 2-(2-hydroxyethyl)piperidine + water; phases: Liquid
Fixed: Pressure, kPa = 101
Fixed: Mass fraction of water = 0.7
Property: Viscosity, Pa*s (Liquid); method: CAPTUB:UFactor:8
Temperature, K	Mass fraction of piperazine	Viscosity, Pa*s	uncertainty
288	0.03	0.005334	0.000235
288	0.06	0.00589	0.000254
288	0.09	0.006457	0.000273
288	0.12	0.0072	0.000297
293	0.03	0.004771	0.000215
293	0.06	0.004912	0.000221
293	0.09	0.00527	0.000233
293	0.12	0.00581	0.00025
298	0.03	0.003941	0.00018
298	0.06	0.004171	0.000189
298	0.09	0.004619	0.000207
298	0.12	0.005146	0.000228
303	0.03	0.003508	0.00016
303	0.06	0.003597	0.000164
303	0.09	0.00395	0.000179
303	0.12	0.004316	0.000194
308	0.03	0.003123	0.000144
308	0.06	0.003269	0.00015
308	0.09	0.003332	0.000152
308	0.12	0.003812	0.000172
313	0.03	0.002563	0.00012
313	0.06	0.002742	0.000127
313	0.09	0.002951	0.000136
313	0.12	0.003351	0.000153
318	0.03	0.002325	0.000109
318	0.06	0.002388	0.000112
318	0.09	0.002643	0.000122
318	0.12	0.002919	0.000135
323	0.03	0.001985	9.4e-05
323	0.06	0.002141	0.000101
323	0.09	0.002249	0.000105
323	0.12	0.002381	0.000111
328	0.03	0.001851	8.8e-05
328	0.06	0.001932	9.2e-05
328	0.09	0.002017	9.5e-05
328	0.12	0.002029	9.6e-05
333	0.03	0.001601	7.7e-05
333	0.06	0.001654	8e-05
333	0.09	0.001714	8.2e-05
333	0.12	0.001795	8.5e-05

System: piperazine + 2-(2-hydroxyethyl)piperidine + water; phases: Liquid
Fixed: Pressure, kPa = 101
Fixed: Mass fraction of water = 0.7
Property: Mass density, kg/m3 (Liquid); method: PYCNOM:UFactor:4
Temperature, K	Mass fraction of piperazine	Mass density, kg/m3	uncertainty
288	0.03	1018.8	1.9
288	0.06	1019.8	1.8
288	0.09	1020.9	1.8
288	0.12	1021.8	1.7
293	0.03	1015.7	1.9
293	0.06	1016.9	1.8
293	0.09	1018.1	1.7
293	0.12	1019.2	1.6
298	0.03	1013.9	1.9
298	0.06	1014.7	1.8
298	0.09	1015.8	1.7
298	0.12	1016.9	1.7
303	0.03	1010.3	2
303	0.06	1011.1	1.9
303	0.09	1012.5	1.8
303	0.12	1013.3	1.7
308	0.03	1007.5	2
308	0.06	1008.5	1.9
308	0.09	1009.5	1.8
308	0.12	1010.7	1.7
313	0.03	1004.1	2
313	0.06	1005.3	1.9
313	0.09	1006.4	1.8
313	0.12	1007.7	1.8
318	0.03	1001.5	2.1
318	0.06	1002.6	2
318	0.09	1003.9	1.9
318	0.12	1004.7	1.8
323	0.03	998.5	2.1
323	0.06	999.2	2
323	0.09	1000.9	1.9
323	0.12	1001.7	1.8
328	0.03	995.3	2.1
328	0.06	996.1	2
328	0.09	997.5	2
328	0.12	998.1	1.9
333	0.03	992.2	2.2
333	0.06	993.3	2.1
333	0.09	994.3	2
333	0.12	995.8	1.9

System: N-methyldiethanolamine + piperazine + water; phases: Liquid, Gas
Fixed: Mass fraction of water = 0.7
Property: Surface tension liquid-gas, N/m (Liquid); method: RINGTE:UFactor:1.5
Temperature, K	Mass fraction of piperazine	Surface tension liquid-gas, N/m	uncertainty
293	0.03	0.05566	0.00114
293	0.06	0.05589	0.00114
293	0.09	0.05642	0.00115
293	0.12	0.05688	0.00116
298	0.03	0.05486	0.00113
298	0.06	0.05504	0.00113
298	0.09	0.05557	0.00114
298	0.12	0.05583	0.00114
303	0.03	0.05414	0.00111
303	0.06	0.05474	0.00112
303	0.09	0.05505	0.00113
303	0.12	0.05528	0.00113
308	0.03	0.05305	0.00109
308	0.06	0.05328	0.0011
308	0.09	0.05425	0.00111
308	0.12	0.05473	0.00112
313	0.03	0.05243	0.00108
313	0.06	0.0528	0.00109
313	0.09	0.05333	0.00109
313	0.12	0.05403	0.00111
318	0.03	0.05126	0.00106
318	0.06	0.05199	0.00107
318	0.09	0.05243	0.00108
318	0.12	0.05313	0.00109
323	0.03	0.05078	0.00105
323	0.06	0.05114	0.00106
323	0.09	0.05185	0.00107
323	0.12	0.05245	0.00108

System: piperazine + 2-amino-2-methylpropan-1-ol + water; phases: Liquid, Gas
Fixed: Mass fraction of water = 0.7
Property: Surface tension liquid-gas, N/m (Liquid); method: RINGTE:UFactor:1.5
Temperature, K	Mass fraction of piperazine	Surface tension liquid-gas, N/m	uncertainty
293	0.03	0.04813	0.00102
293	0.06	0.04885	0.00103
293	0.09	0.04901	0.00103
293	0.12	0.04937	0.00103
298	0.03	0.04728	0.00101
298	0.06	0.04791	0.00102
298	0.09	0.04814	0.00102
298	0.12	0.04851	0.00102
303	0.03	0.04636	0.00099
303	0.06	0.04688	0.001
303	0.09	0.04722	0.001
303	0.12	0.0476	0.001
308	0.03	0.04531	0.00097
308	0.06	0.04606	0.00098
308	0.09	0.04622	0.00098
308	0.12	0.0467	0.00098
313	0.03	0.04462	0.00096
313	0.06	0.04528	0.00097
313	0.09	0.04544	0.00096
313	0.12	0.04593	0.00097
318	0.03	0.04334	0.00093
318	0.06	0.04421	0.00095
318	0.09	0.04429	0.00094
318	0.12	0.04489	0.00095
323	0.03	0.04213	0.00091
323	0.06	0.04322	0.00093
323	0.09	0.04359	0.00093
323	0.12	0.0439	0.00093
