Measured thermophysical data. Solubility of Benzoic Acid in Mixed Solvents
Source: J. Chem. Eng. Data, 2007, 10.1021/je060408x
Compound 1: water, H2O, InChI=1S/H2O/h1H2
Compound 2: benzoic acid, C7H6O2, InChI=1S/C7H6O2/c8-7(9)6-4-2-1-3-5-6/h1-5H,(H,8,9)
Compound 3: dimethylformamide, C3H7NO, InChI=1S/C3H7NO/c1-4(2)3-5/h3H,1-2H3
Compound 4: ethanol, C2H6O, InChI=1S/C2H6O/c1-2-3/h3H,2H2,1H3
Compound 5: 1,4-dioxane, C4H8O2, InChI=1S/C4H8O2/c1-2-6-4-3-5-1/h1-4H2

System: benzoic acid + water; phases: Liquid mixture 1, Crystal
Fixed: Pressure, kPa = 101
Property: Molality, mol/kg (Liquid mixture 1); method: titration with standardized 0.1M NaOH solution
Temperature, K	Molality, mol/kg	uncertainty
303.65	0.03	0.003
312.75	0.0431	0.0043
318.25	0.0482	0.0048
323.25	0.0554	0.0055
328.35	0.0595	0.006
333.65	0.0677	0.0068
338.35	0.0728	0.0073
343.15	0.0779	0.0078

System: benzoic acid + dimethylformamide + water; phases: Liquid mixture 1, Crystal
Fixed: Pressure, kPa = 101
Property: Molality, mol/kg of benzoic acid (Liquid mixture 1); method: titration with standardized 0.1M NaOH solution
Solvent: Mole fraction of dimethylformamide	Temperature, K	Molality, mol/kg of benzoic acid	uncertainty
0.02	303.65	0.0554	0.0111
0.02	313.31	0.0492	0.0098
0.02	318.1	0.0595	0.0119
0.02	322.6	0.0595	0.0119
0.02	327.66	0.0574	0.0115
0.02	332.25	0.0584	0.0117
0.02	342.2	0.0533	0.0107
0.034	304.2	0.0876	0.0175
0.034	313.73	0.1114	0.0223
0.034	318.34	0.1725	0.0345
0.034	323.06	0.1804	0.0362
0.034	328.46	0.2943	0.059
0.034	333.07	0.4015	0.0805
0.034	342.8	0.7205	0.1443

System: benzoic acid + 1,4-dioxane + water; phases: Liquid mixture 1, Crystal
Fixed: Pressure, kPa = 101
Property: Molality, mol/kg of benzoic acid (Liquid mixture 1); method: titration with standardized 0.1M NaOH solution
Solvent: Mole fraction of 1,4-dioxane	Temperature, K	Molality, mol/kg of benzoic acid	uncertainty
0.02	303.95	0.074	0.0148
0.02	313.75	0.099	0.0198
0.02	323.25	0.1663	0.0333
0.02	332.85	0.215	0.043
0.02	342.75	0.3193	0.0639
0.034	304.35	0.118	0.0236
0.034	313.85	0.1685	0.0337
0.034	323.05	0.25	0.0501
0.034	332.65	0.46	0.0921
0.034	342.8	0.557	0.1114

System: ethanol + benzoic acid + water; phases: Liquid mixture 1, Crystal
Fixed: Pressure, kPa = 101
Property: Molality, mol/kg of benzoic acid (Liquid mixture 1); method: titration with standardized 0.1M NaOH solution
Solvent: Mole fraction of ethanol	Temperature, K	Molality, mol/kg of benzoic acid	uncertainty
0.032	309.05	0.0502	0.005
0.032	317.95	0.0533	0.0053
0.032	322.85	0.0554	0.0055
0.032	327.85	0.0574	0.0057
0.032	332.35	0.0584	0.0058
0.032	338.65	0.0646	0.0065
0.032	347.75	0.0677	0.0068
0.032	355.65	0.0748	0.0075
0.054	309.15	0.0574	0.0057
0.054	317.95	0.0605	0.0061
0.054	322.95	0.0656	0.0066
0.054	328.05	0.0666	0.0067
0.054	332.65	0.0707	0.0071
0.054	339.25	0.0718	0.0072
0.054	347.95	0.0738	0.0074
