Measured thermophysical data. Vapor-Liquid Equilibrium Data of the Methane + Tetrafluoromethane System at Temperatures from (159.61 to 178.93) K
Source: J. Chem. Eng. Data, 2007, 10.1021/je0604030
Compound 1: methane, CH4, InChI=1S/CH4/h1H4, purity 99.995%
Compound 2: tetrafluoromethane, CF4, InChI=1S/CF4/c2-1(3,4)5, purity 99.97%

System: methane; phases: Liquid, Gas
Property: Vapor or sublimation pressure, kPa (Liquid); method: Ebulliometric method (Recirculating still)
Temperature, K	Vapor or sublimation pressure, kPa	uncertainty
159.61	1567	50
161.58	1695	54
169.38	2276	73
173.9	2672	86
178.93	3170	102

System: tetrafluoromethane; phases: Liquid, Gas
Property: Vapor or sublimation pressure, kPa (Liquid); method: Ebulliometric method (Recirculating still)
Temperature, K	Vapor or sublimation pressure, kPa	uncertainty
159.61	243	8
161.58	269	9
169.38	431	14
173.9	517	17
178.93	651	21

System: methane + tetrafluoromethane; phases: Gas, Liquid
Property: Mole fraction of methane (Gas); method: Chromatography
Mole fraction of methane	Temperature, K	Mole fraction of methane	uncertainty
0	159.61	0	
0.069	159.61	0.44	0.046
0.134	159.61	0.594	0.021
0.204	159.61	0.682	0.013
0.363	159.61	0.776	0.011
0.647	159.61	0.856	0.01
0.781	159.61	0.897	0.011
0.887	159.61	0.938	0.011
1	159.61	1	
0	161.58	0	
0.066	161.58	0.421	0.051
0.114	161.58	0.549	0.023
0.174	161.58	0.635	0.014
0.316	161.58	0.741	0.011
0.635	161.58	0.85	0.011
0.771	161.58	0.887	0.011
0.886	161.58	0.936	0.011
1	161.58	1	
0	169.38	0	
0.054	169.38	0.313	0.047
0.105	169.38	0.473	0.023
0.182	169.38	0.595	0.015
0.329	169.38	0.709	0.011
0.625	169.38	0.822	0.011
0.77	169.38	0.878	0.011
0.884	169.38	0.928	0.011
1	169.38	1	
0	173.9	0	
0.048	173.9	0.268	0.05
0.079	173.9	0.373	0.035
0.238	173.9	0.615	0.015
0.397	173.9	0.717	0.011
0.617	173.9	0.808	0.011
0.769	173.9	0.866	0.011
0.882	173.9	0.923	0.012
1	173.9	1	
0	178.93	0	
0.052	178.93	0.255	0.045
0.078	178.93	0.338	0.029
0.106	178.93	0.403	0.026
0.312	178.93	0.639	0.013
0.609	178.93	0.785	0.011
0.765	178.93	0.854	0.011
0.88	178.93	0.916	0.012
1	178.93	1	

System: methane + tetrafluoromethane; phases: Liquid, Gas
Property: Vapor or sublimation pressure, kPa (Liquid); method: Ebulliometric method (Recirculating still)
Mole fraction of methane	Temperature, K	Vapor or sublimation pressure, kPa	uncertainty
0	159.61	243	8
0.069	159.61	431	29
0.134	159.61	589	29
0.204	159.61	735	29
0.363	159.61	971	33
0.647	159.61	1202	39
0.781	159.61	1326	44
0.887	159.61	1429	47
1	159.61	1567	50
0	161.58	269	9
0.066	161.58	470	33
0.114	161.58	598	31
0.174	161.58	728	30
0.316	161.58	977	34
0.635	161.58	1330	44
0.771	161.58	1440	47
0.886	161.58	1528	50
1	161.58	1695	54
0	169.38	431	14
0.054	169.38	606	39
0.105	169.38	791	41
0.182	169.38	1020	40
0.329	169.38	1326	46
0.625	169.38	1791	59
0.77	169.38	1970	64
0.884	169.38	2112	69
1	169.38	2276	73
0	173.9	517	17
0.048	173.9	722	48
0.079	173.9	844	48
0.238	173.9	1332	51
0.397	173.9	1704	58
0.617	173.9	2062	68
0.769	173.9	2308	76
0.882	173.9	2481	81
1	173.9	2672	86
0	178.93	651	21
0.052	178.93	896	55
0.078	178.93	1016	52
0.106	178.93	1118	51
0.312	178.93	1790	63
0.609	178.93	2443	81
0.765	178.93	2726	89
0.88	178.93	2944	96
1	178.93	3170	102
