Measured thermophysical data. Thermodynamic Properties of Imidazolium-Based Ionic Liquids: Densities, Heat Capacities, and Enthalpies of Fusion of [bmim][PF6] and [bmim][NTf2]
Source: J. Chem. Eng. Data, 2006, 10.1021/je060222y
Compound 1: 1-butyl-3-methylimidazolium hexafluorophosphate, C8H15F6N2P, InChI=1S/C8H15N2.F6P/c1-3-4-5-10-7-6-9(2)8-10;1-7(2,3,4,5)6/h6-8H,3-5H2,1-2H3;/q+1;-1
Compound 2: 1-butyl-3-methylimidazolium bis(trifluoromethylsulfonyl)imide, C10H15F6N3O4S2, InChI=1S/C8H15N2.C2F6NO4S2/c1-3-4-5-10-7-6-9(2)8-10;3-1(4,5)14(10,11)9-15(12,13)2(6,7)8/h6-8H,3-5H2,1-2H3;/q+1;-1

System: 1-butyl-3-methylimidazolium hexafluorophosphate; phases: Crystal, Liquid, Air at 1 atmosphere
Property: Molar enthalpy of transition or fusion, kJ/mol (Crystal); method: DSC
Molar enthalpy of transition or fusion, kJ/mol	uncertainty
19.91	0.58

System: 1-butyl-3-methylimidazolium hexafluorophosphate; phases: Crystal, Liquid, Air at 1 atmosphere
Property: Triple point temperature, K (Crystal); method: DTA:UFactor:2
Triple point temperature, K	uncertainty
280.03	0.77

System: 1-butyl-3-methylimidazolium hexafluorophosphate; phases: Liquid
Fixed: Pressure, kPa = 101.325
Property: Molar heat capacity at constant pressure, J/K/mol (Liquid); method: Small sample (50 mg) DSC
Temperature, K	Molar heat capacity at constant pressure, J/K/mol	uncertainty
283.15	400.9	6.21
288.15	402.32	6.23
293.15	404.97	6.27
298.15	407.66	6.32
303.15	410.33	6.36
308.15	413.14	6.4
313.15	415.98	6.44
318.15	418.91	6.49
323.15	421.88	6.54

System: 1-butyl-3-methylimidazolium hexafluorophosphate; phases: Liquid
Fixed: Pressure, kPa = 101.325
Property: Mass density, kg/m3 (Liquid); method: VIBTUB:UFactor:8
Temperature, K	Mass density, kg/m3	uncertainty
283.15	1379.14	1.46
288.15	1374.83	1.45
293.15	1370.43	1.44
298.15	1366.12	1.42
303.15	1361.76	1.41
308.15	1357.52	1.4
313.15	1353.35	1.38
318.15	1349.16	1.37
323.15	1345.02	1.36

System: 1-butyl-3-methylimidazolium bis(trifluoromethylsulfonyl)imide; phases: Crystal, Liquid, Air at 1 atmosphere
Property: Molar enthalpy of transition or fusion, kJ/mol (Crystal); method: DSC:UFactor:2
Molar enthalpy of transition or fusion, kJ/mol	uncertainty
22.43	1.04

System: 1-butyl-3-methylimidazolium bis(trifluoromethylsulfonyl)imide; phases: Crystal, Liquid, Air at 1 atmosphere
Property: Triple point temperature, K (Crystal); method: DTA:UFactor:2
Triple point temperature, K	uncertainty
267.61	0.77

System: 1-butyl-3-methylimidazolium bis(trifluoromethylsulfonyl)imide; phases: Liquid
Fixed: Pressure, kPa = 101.325
Property: Molar heat capacity at constant pressure, J/K/mol (Liquid); method: Small sample (50 mg) DSC
Temperature, K	Molar heat capacity at constant pressure, J/K/mol	uncertainty
283.15	559.63	8.67
288.15	562.05	8.71
293.15	564.58	8.75
298.15	567.33	8.79
303.15	569.74	8.83
308.15	572.82	8.87
313.15	575.56	8.92
318.15	578.49	8.96
323.15	581.68	9.01
328.15	584.82	9.06

System: 1-butyl-3-methylimidazolium bis(trifluoromethylsulfonyl)imide; phases: Liquid
Fixed: Pressure, kPa = 101.325
Property: Mass density, kg/m3 (Liquid); method: VIBTUB:UFactor:8
Temperature, K	Mass density, kg/m3	uncertainty
278.15	1453.33	1.7
283.15	1448.52	1.68
288.15	1443.69	1.67
293.15	1438.89	1.65
298.15	1434.1	1.64
303.15	1429.31	1.63
308.15	1424.54	1.61
313.15	1419.78	1.6
318.15	1415.04	1.58
323.15	1410.31	1.57
328.15	1405.6	1.55
333.15	1400.92	1.54

System: 1-butyl-3-methylimidazolium bis(trifluoromethylsulfonyl)imide; phases: Crystal, Liquid, Air at 1 atmosphere
Property: Molar enthalpy of transition or fusion, kJ/mol (Crystal); method: DSC:UFactor:2
Molar enthalpy of transition or fusion, kJ/mol	uncertainty
24.53	1.12

System: 1-butyl-3-methylimidazolium bis(trifluoromethylsulfonyl)imide; phases: Crystal, Liquid, Air at 1 atmosphere
Property: Triple point temperature, K (Crystal); method: DTA:UFactor:2
Triple point temperature, K	uncertainty
268.51	0.77

System: 1-butyl-3-methylimidazolium bis(trifluoromethylsulfonyl)imide; phases: Liquid
Fixed: Pressure, kPa = 101.325
Property: Molar heat capacity at constant pressure, J/K/mol (Liquid); method: Small sample (50 mg) DSC
Temperature, K	Molar heat capacity at constant pressure, J/K/mol	uncertainty
283.15	558.99	8.66
288.15	561.29	8.7
293.15	564.02	8.74
298.15	566.47	8.78
303.15	569.01	8.82
308.15	572.11	8.86
313.15	575.03	8.91
318.15	577.84	8.95
323.15	581.06	9
328.15	584.36	9.05

System: 1-butyl-3-methylimidazolium bis(trifluoromethylsulfonyl)imide; phases: Liquid
Fixed: Pressure, kPa = 101.325
Property: Mass density, kg/m3 (Liquid); method: VIBTUB:UFactor:8
Temperature, K	Mass density, kg/m3	uncertainty
278.15	1454.98	1.74
283.15	1450.16	1.72
288.15	1445.33	1.71
293.15	1440.51	1.69
298.15	1435.73	1.68
303.15	1430.94	1.66
308.15	1426.17	1.65
313.15	1421.4	1.63
318.15	1416.66	1.62
323.15	1411.94	1.61
328.15	1407.23	1.59
333.15	1402.55	1.58
