Measured thermophysical data. Vapor Pressure Measurement and Prediction for Ethanol + Methanol and Ethanol + Water Systems Containing Ionic Liquids
Source: J. Chem. Eng. Data, 2006, 10.1021/je060163o
Compound 1: methanol, CH4O, InChI=1S/CH4O/c1-2/h2H,1H3
Compound 2: ethanol, C2H6O, InChI=1S/C2H6O/c1-2-3/h3H,2H2,1H3
Compound 3: water, H2O, InChI=1S/H2O/h1H2
Compound 4: 1-ethyl-3-methylimidazolium diethyl phosphate, C10H21N2O4P, InChI=1S/C6H11N2.C4H11O4P/c1-3-8-5-4-7(2)6-8;1-3-7-9(5,6)8-4-2/h4-6H,3H2,1-2H3;3-4H2,1-2H3,(H,5,6)/q+1;/p-1
Compound 5: 1-butyl-3-methylimidazolium dibutyl phosphate, C16H33N2O4P, InChI=1S/C8H15N2.C8H19O4P/c1-3-4-5-10-7-6-9(2)8-10;1-3-5-7-11-13(9,10)12-8-6-4-2/h6-8H,3-5H2,1-2H3;3-8H2,1-2H3,(H,9,10)/q+1;/p-1
Compound 6: 1,3-dimethylimidazolium dimethylphosphate, C7H15N2O4P, InChI=1S/C5H9N2.C2H7O4P/c1-6-3-4-7(2)5-6;1-5-7(3,4)6-2/h3-5H,1-2H3;1-2H3,(H,3,4)/q+1;/p-1

System: methanol; phases: Liquid
Property: Mass density, kg/m3 (Liquid); method: VIBTUB:UFactor:4
Temperature, K	Pressure, kPa	Mass density, kg/m3	uncertainty
298.15	101.325	786.59	0.62

System: methanol; phases: Liquid
Property: Refractive index (Na D-line) (Liquid); method: Standard Abbe refractometry
Temperature, K	Pressure, kPa	Refractive index (Na D-line)	uncertainty
298.15	101.325	1.3266	0.0004

System: ethanol; phases: Liquid
Property: Mass density, kg/m3 (Liquid); method: VIBTUB:UFactor:4
Temperature, K	Pressure, kPa	Mass density, kg/m3	uncertainty
298.15	101.325	785.04	0.62

System: ethanol; phases: Liquid
Property: Refractive index (Na D-line) (Liquid); method: Standard Abbe refractometry
Temperature, K	Pressure, kPa	Refractive index (Na D-line)	uncertainty
298.15	101.325	1.3596	0.0004

System: ethanol; phases: Liquid, Gas
Property: Vapor or sublimation pressure, kPa (Liquid); method: Twin ebulliometer
Temperature, K	Vapor or sublimation pressure, kPa	uncertainty
292.33	5.59	0.15
303.83	10.86	0.15
311.14	16.15	0.16
317.9	22.84	0.17
323.09	29.41	0.18
326.8	35.11	0.19
330.56	41.76	0.21
333.94	48.61	0.22
337.18	56.06	0.24
339.97	63.2	0.26
342.3	69.73	0.27

System: ethanol + methanol + 1,3-dimethylimidazolium dimethylphosphate; phases: Liquid, Gas
Property: Vapor or sublimation pressure, kPa (Liquid); method: EBULLIO:UFactor:2
Mole fraction of ethanol	Mole fraction of methanol	Temperature, K	Vapor or sublimation pressure, kPa	uncertainty
0.1284	0.7384	305.19	14.7	0.24
0.1284	0.7384	312.11	20.94	0.27
0.1284	0.7384	317.69	27.49	0.32
0.1284	0.7384	322.89	34.73	0.37
0.1284	0.7384	327.47	42.58	0.43
0.1284	0.7384	331.63	50.62	0.5
0.1284	0.7384	335.72	59.83	0.58
0.1284	0.7384	339.17	68.87	0.65
0.3186	0.5378	297.92	8.32	0.2
0.3186	0.5378	308.71	14.8	0.23
0.3186	0.5378	315.93	21.47	0.28
0.3186	0.5378	322.1	28.84	0.33
0.3186	0.5378	327.4	36.84	0.39
0.3186	0.5378	332	45.3	0.46
0.3186	0.5378	336.59	55.05	0.54
0.3186	0.5378	340.45	65.18	0.62
0.4688	0.3792	301.76	8.97	0.2
0.4688	0.3792	311.38	15.18	0.23
0.4688	0.3792	318.52	21.53	0.28
0.4688	0.3792	324.54	28.63	0.33
0.4688	0.3792	329.48	35.94	0.38
0.4688	0.3792	333.97	43.76	0.45
0.4688	0.3792	338.36	53.09	0.52
0.4688	0.3792	342.74	63.67	0.61
0.6375	0.2012	304.83	9.17	0.2
0.6375	0.2012	314.3	15.08	0.23
0.6375	0.2012	321.69	21.72	0.28
0.6375	0.2012	327.97	29.09	0.33
0.6375	0.2012	333.48	37.24	0.39
0.6375	0.2012	338.17	45.8	0.46
0.6375	0.2012	342.48	54.79	0.54
0.6375	0.2012	346.55	65.06	0.62
0.7837	0.047	304.94	7.9	0.19
0.7837	0.047	315.32	14.05	0.23
0.7837	0.047	322.78	20.54	0.27
0.7837	0.047	329.24	28.01	0.32
0.7837	0.047	334.72	35.68	0.38
0.7837	0.047	339.42	43.77	0.45
0.7837	0.047	343.5	52.29	0.52
0.7837	0.047	348.02	63.16	0.6

System: ethanol + methanol + 1-ethyl-3-methylimidazolium diethyl phosphate; phases: Liquid, Gas
Property: Vapor or sublimation pressure, kPa (Liquid); method: EBULLIO:UFactor:2
Mole fraction of ethanol	Mole fraction of methanol	Temperature, K	Vapor or sublimation pressure, kPa	uncertainty
0.1312	0.7544	294.55	8.7	0.2
0.1312	0.7544	303.7	14.29	0.23
0.1312	0.7544	311.08	20.73	0.27
0.1312	0.7544	316.55	27.08	0.32
0.1312	0.7544	322.19	35.03	0.37
0.1312	0.7544	327	43.2	0.44
0.1312	0.7544	331.29	51.96	0.52
0.1312	0.7544	335.87	63.2	0.6
0.326	0.5503	297.77	8.68	0.2
0.326	0.5503	307.5	14.85	0.23
0.326	0.5503	314.76	21.38	0.28
0.326	0.5503	321.25	29.14	0.33
0.326	0.5503	326.05	36.43	0.39
0.326	0.5503	330.8	45	0.46
0.326	0.5503	334.88	53.64	0.53
0.326	0.5503	339.01	64.04	0.61
0.4805	0.3886	302.37	9.68	0.2
0.4805	0.3886	310.98	15.29	0.24
0.4805	0.3886	317.92	21.63	0.28
0.4805	0.3886	323.89	28.91	0.33
0.4805	0.3886	329.41	37.26	0.39
0.4805	0.3886	333.66	45.06	0.46
0.4805	0.3886	337.71	53.78	0.53
0.4805	0.3886	342.16	64.46	0.61
0.6543	0.2065	303.19	8.66	0.2
0.6543	0.2065	313.08	14.84	0.23
0.6543	0.2065	320.36	21.32	0.28
0.6543	0.2065	326.25	28.29	0.32
0.6543	0.2065	331.59	36.22	0.38
0.6543	0.2065	336.42	45.01	0.46
0.6543	0.2065	340.52	53.89	0.53
0.6543	0.2065	344.6	64.15	0.61
0.8054	0.0483	307.24	9.39	0.2
0.8054	0.0483	316.46	15.39	0.24
0.8054	0.0483	323.61	21.99	0.28
0.8054	0.0483	329.34	28.82	0.33
0.8054	0.0483	334.42	36.41	0.39
0.8054	0.0483	339.04	44.92	0.46
0.8054	0.0483	343.55	54.83	0.54
0.8054	0.0483	347.61	64.91	0.62

System: ethanol + methanol + 1-butyl-3-methylimidazolium dibutyl phosphate; phases: Liquid, Gas
Property: Vapor or sublimation pressure, kPa (Liquid); method: EBULLIO:UFactor:2
Mole fraction of ethanol	Mole fraction of methanol	Temperature, K	Vapor or sublimation pressure, kPa	uncertainty
0.1349	0.7759	302.98	14.95	0.24
0.1349	0.7759	310.24	21.52	0.28
0.1349	0.7759	316.32	28.82	0.33
0.1349	0.7759	321.55	36.67	0.39
0.1349	0.7759	326.03	44.61	0.45
0.1349	0.7759	330.36	53.74	0.53
0.1349	0.7759	334.08	62.99	0.6
0.3361	0.5673	298.9	10.25	0.21
0.3361	0.5673	307.25	15.72	0.24
0.3361	0.5673	314.17	22.12	0.28
0.3361	0.5673	320.33	29.6	0.33
0.3361	0.5673	325.51	37.54	0.39
0.3361	0.5673	330.2	46.25	0.47
0.3361	0.5673	334.46	55.62	0.54
0.3361	0.5673	338.24	65.18	0.62
0.4962	0.4013	300.69	9.73	0.2
0.4962	0.4013	309.65	15.68	0.24
0.4962	0.4013	316.21	21.73	0.28
0.4962	0.4013	322.29	28.99	0.33
0.4962	0.4013	327.3	36.51	0.38
0.4962	0.4013	331.43	43.85	0.45
0.4962	0.4013	335.63	52.86	0.52
0.4962	0.4013	339.47	62.14	0.59
0.6771	0.2137	302.47	9	0.2
0.6771	0.2137	311.79	14.82	0.23
0.6771	0.2137	318.49	20.72	0.27
0.6771	0.2137	324.11	27.22	0.32
0.6771	0.2137	328.77	33.81	0.36
0.6771	0.2137	333.76	42.19	0.43
0.6771	0.2137	338.02	50.95	0.51
0.6771	0.2137	341.82	60.16	0.58
0.8349	0.05	305.84	9.24	0.2
0.8349	0.05	315.23	15.31	0.24
0.8349	0.05	322.12	21.62	0.28
0.8349	0.05	327.78	28.27	0.32
0.8349	0.05	333.1	36.02	0.38
0.8349	0.05	337.44	43.91	0.45
0.8349	0.05	341.73	53.32	0.53
0.8349	0.05	345.42	62.59	0.6

System: ethanol + water + 1,3-dimethylimidazolium dimethylphosphate; phases: Liquid, Gas
Property: Vapor or sublimation pressure, kPa (Liquid); method: EBULLIO:UFactor:2
Mole fraction of ethanol	Mole fraction of water	Temperature, K	Vapor or sublimation pressure, kPa	uncertainty
0.1003	0.813	307.2	8.06	0.2
0.1003	0.813	318.63	14.51	0.23
0.1003	0.813	326.57	21.36	0.28
0.1003	0.813	333.16	28.94	0.33
0.1003	0.813	339.19	37.9	0.4
0.1003	0.813	343.94	46.65	0.48
0.1003	0.813	348.51	56.4	0.56
0.1003	0.813	352.8	66.7	0.64
0.1866	0.7166	309.85	10.99	0.21
0.1866	0.7166	319.82	18.16	0.26
0.1866	0.7166	327.22	25.82	0.31
0.1866	0.7166	333.51	34.51	0.37
0.1866	0.7166	338.5	43.13	0.45
0.1866	0.7166	343.31	52.62	0.52
0.1866	0.7166	347.34	62.17	0.61
0.1866	0.7166	350.62	71.03	0.68
0.3798	0.5008	305.83	9.05	0.2
0.3798	0.5008	317.41	16.67	0.24
0.3798	0.5008	325.31	24.46	0.3
0.3798	0.5008	331.75	33.14	0.36
0.3798	0.5008	337.18	42.23	0.44
0.3798	0.5008	341.56	51.02	0.51
0.3798	0.5008	345.51	60.03	0.59
0.3798	0.5008	349.04	69.23	0.66
0.5266	0.3369	308.14	9.99	0.21
0.5266	0.3369	318.95	17.53	0.25
0.5266	0.3369	326.85	25.7	0.31
0.5266	0.3369	332.42	33.29	0.36
0.5266	0.3369	337.51	41.82	0.43
0.5266	0.3369	342.04	50.99	0.51
0.5266	0.3369	345.72	59.36	0.58
0.5266	0.3369	349.87	69.72	0.66
0.6906	0.1537	309.25	10.06	0.21
0.6906	0.1537	319.67	17.29	0.25
0.6906	0.1537	327.38	24.99	0.3
0.6906	0.1537	333.37	33.16	0.36
0.6906	0.1537	338.41	41.6	0.43
0.6906	0.1537	342.92	50.55	0.5
0.6906	0.1537	346.99	59.97	0.58
0.6906	0.1537	350.44	69	0.65
0.7912	0.0413	309.79	10.01	0.21
0.7912	0.0413	320.17	17.14	0.25
0.7912	0.0413	328.4	25.42	0.3
0.7912	0.0413	334.45	33.57	0.36
0.7912	0.0413	338.99	41.33	0.43
0.7912	0.0413	343.08	49.33	0.49
0.7912	0.0413	346.64	57.68	0.56
0.7912	0.0413	350.12	66.57	0.63
