Measured thermophysical data. Solubility of Artemisinin in Ethanol + Water from (278.2 to 343.2) K
Source: J. Chem. Eng. Data, 2007, 10.1021/je0603426
Compound 1: artemisinin, C15H22O5, InChI=1S/C15H22O5/c1-8-4-5-11-9(2)12(16)17-13-15(11)10(8)6-7-14(3,18-13)19-20-15/h8-11,13H,4-7H2,1-3H3/t8-,9-,10+,11+,13-,14-,15-/m1/s1, purity 99%
Compound 2: ethanol, C2H6O, InChI=1S/C2H6O/c1-2-3/h3H,2H2,1H3
Compound 3: water, H2O, InChI=1S/H2O/h1H2

System: ethanol + water + artemisinin; phases: Liquid, Crystal
Fixed: Pressure, kPa = 101
Property: Mole fraction of artemisinin (Liquid); method: HPLC coupled with UV detector
Temperature, K	Solvent: Mole fraction of ethanol	Mole fraction of artemisinin	uncertainty
278.2	0.138	4.08e-05	8.3e-06
278.2	0.273	9.87e-05	1.99e-05
278.2	0.467	0.000417	8.42e-05
278.2	0.771	0.0007	0.0001416
278.2	1	0.000998	0.0002011
286.2	0.138	7.19e-05	1.45e-05
286.2	0.273	0.0001728	3.48e-05
286.2	0.467	0.000702	0.0001413
286.2	0.771	0.001459	0.0002928
286.2	1	0.001811	0.0003633
303.2	0.138	0.0001483	3e-05
303.2	0.273	0.000355	7.15e-05
303.2	0.467	0.001422	0.000286
303.2	0.771	0.00214	0.0004295
303.2	1	0.002973	0.0005962
313.2	0.138	0.000232	4.69e-05
313.2	0.273	0.000533	0.0001075
313.2	0.467	0.00247	0.0004971
313.2	0.771	0.003588	0.0007207
313.2	1	0.004567	0.0009167
323.2	0.138	0.000316	6.38e-05
323.2	0.273	0.000884	0.0001781
323.2	0.467	0.004209	0.0008467
323.2	0.771	0.006063	0.001218
323.2	1	0.008006	0.001606
343.2	0.138	0.000538	0.0001086
343.2	0.273	0.001644	0.0003317
343.2	0.467	0.00821	0.00165
343.2	0.771	0.01278	0.002564
343.2	1	0.01588	0.003184
