Measured thermophysical data. Excess Molar Volumes and Viscosities for Binary Mixtures of Propylene Glycol Monomethyl Ether with Methacrylic Acid, Benzyl Methacrylate, and 2-Hydroxyethyl Methacrylate at (298.15, 308.15, and 318.15) K
Source: J. Chem. Eng. Data, 2006, 10.1021/je060288t
Compound 1: 2-methyl-2-propenoic acid, C4H6O2, InChI=1S/C4H6O2/c1-3(2)4(5)6/h1H2,2H3,(H,5,6)
Compound 2: benzyl methacrylate, C11H12O2, InChI=1S/C11H12O2/c1-9(2)11(12)13-8-10-6-4-3-5-7-10/h3-7H,1,8H2,2H3
Compound 3: 2-hydroxyethyl 2-methyl-2-propenoate, C6H10O3, InChI=1S/C6H10O3/c1-5(2)6(8)9-4-3-7/h7H,1,3-4H2,2H3
Compound 4: 1-methoxy-2-propanol, C4H10O2, InChI=1S/C4H10O2/c1-4(5)3-6-2/h4-5H,3H2,1-2H3, purity 99%

System: 2-methyl-2-propenoic acid; phases: Liquid
Fixed: Pressure, kPa = 101
Property: Viscosity, Pa*s (Liquid); method: Capillary tube (Ostwald; Ubbelohde) method
Temperature, K	Viscosity, Pa*s	uncertainty
298.15	0.001267	2.7e-05
308.15	0.001078	2.3e-05
318.15	0.000945	2e-05

System: 2-methyl-2-propenoic acid; phases: Liquid
Fixed: Pressure, kPa = 101
Property: Mass density, kg/m3 (Liquid); method: Pycnometric method
Temperature, K	Mass density, kg/m3	uncertainty
298.15	1009.5	2.1
308.15	999.4	2
318.15	989.2	2

System: benzyl methacrylate; phases: Liquid
Fixed: Pressure, kPa = 101
Property: Viscosity, Pa*s (Liquid); method: Capillary tube (Ostwald; Ubbelohde) method
Temperature, K	Viscosity, Pa*s	uncertainty
298.15	0.002302	5.4e-05
308.15	0.001885	4.4e-05
318.15	0.00158	3.7e-05

System: benzyl methacrylate; phases: Liquid
Fixed: Pressure, kPa = 101
Property: Mass density, kg/m3 (Liquid); method: Pycnometric method
Temperature, K	Mass density, kg/m3	uncertainty
298.15	1034.7	2.3
308.15	1025.8	2.3
318.15	1017	2.3

System: 2-hydroxyethyl 2-methyl-2-propenoate; phases: Liquid
Fixed: Pressure, kPa = 101
Property: Viscosity, Pa*s (Liquid); method: Capillary tube (Ostwald; Ubbelohde) method
Temperature, K	Viscosity, Pa*s	uncertainty
298.15	0.005784	0.000136
308.15	0.004194	0.0001
318.15	0.003181	7.6e-05

System: 2-hydroxyethyl 2-methyl-2-propenoate; phases: Liquid
Fixed: Pressure, kPa = 101
Property: Mass density, kg/m3 (Liquid); method: Pycnometric method
Temperature, K	Mass density, kg/m3	uncertainty
298.15	1067.1	2.4
308.15	1057.7	2.4
318.15	1048.6	2.4

System: 1-methoxy-2-propanol; phases: Liquid
Fixed: Pressure, kPa = 101
Property: Viscosity, Pa*s (Liquid); method: Capillary tube (Ostwald; Ubbelohde) method
Temperature, K	Viscosity, Pa*s	uncertainty
298.15	0.001707	3.7e-05
308.15	0.001306	2.9e-05
318.15	0.001069	2.3e-05

System: 1-methoxy-2-propanol; phases: Liquid
Fixed: Pressure, kPa = 101
Property: Mass density, kg/m3 (Liquid); method: Pycnometric method
Temperature, K	Mass density, kg/m3	uncertainty
298.15	915.9	1.9
308.15	907.1	1.9
318.15	896.9	1.8

System: 2-methyl-2-propenoic acid + 1-methoxy-2-propanol; phases: Liquid
Fixed: Pressure, kPa = 101
Property: Viscosity, Pa*s (Liquid); method: Capillary tube (Ostwald; Ubbelohde) method
Temperature, K	Mole fraction of 1-methoxy-2-propanol	Viscosity, Pa*s	uncertainty
298.15	0	0.001267	2.7e-05
298.15	0.1	0.001376	3e-05
298.15	0.2	0.001659	3.6e-05
298.15	0.3	0.001982	4.3e-05
298.15	0.4	0.002124	4.6e-05
298.15	0.5	0.002233	4.8e-05
298.15	0.6	0.002255	4.9e-05
298.15	0.7	0.00214	4.6e-05
298.15	0.8	0.001969	4.3e-05
298.15	0.9	0.001809	3.9e-05
298.15	1	0.001707	3.7e-05
308.15	0	0.001078	2.3e-05
308.15	0.1	0.001163	2.5e-05
308.15	0.2	0.001372	3e-05
308.15	0.3	0.001577	3.4e-05
308.15	0.4	0.001702	3.7e-05
308.15	0.5	0.001762	3.8e-05
308.15	0.6	0.00177	3.9e-05
308.15	0.7	0.001685	3.7e-05
308.15	0.8	0.001554	3.4e-05
308.15	0.9	0.001431	3.1e-05
308.15	1	0.001306	2.9e-05
318.15	0	0.000945	2e-05
318.15	0.1	0.001002	2.2e-05
318.15	0.2	0.001157	2.5e-05
318.15	0.3	0.001312	2.9e-05
318.15	0.4	0.001394	3e-05
318.15	0.5	0.001429	3.1e-05
318.15	0.6	0.001432	3.1e-05
318.15	0.7	0.001361	3e-05
318.15	0.8	0.001258	2.7e-05
318.15	0.9	0.001165	2.5e-05
318.15	1	0.001069	2.3e-05

System: 2-methyl-2-propenoic acid + 1-methoxy-2-propanol; phases: Liquid
Fixed: Pressure, kPa = 101
Property: Mass density, kg/m3 (Liquid); method: Pycnometric method
Temperature, K	Mole fraction of 1-methoxy-2-propanol	Mass density, kg/m3	uncertainty
298.15	0	1009.5	2.1
298.15	0.1	1000.9	2
298.15	0.2	992	2
298.15	0.3	983.5	2
298.15	0.4	975.3	2
298.15	0.5	966.6	2
298.15	0.6	957.5	2
298.15	0.7	947.3	1.9
298.15	0.8	936.9	1.9
298.15	0.9	926.2	1.9
298.15	1	915.9	1.9
308.15	0	999.4	2
308.15	0.1	991.8	2
308.15	0.2	983.2	2
308.15	0.3	974.9	2
308.15	0.4	966.5	2
308.15	0.5	957.8	2
308.15	0.6	948.7	1.9
308.15	0.7	938.6	1.9
308.15	0.8	928.3	1.9
308.15	0.9	917.8	1.9
308.15	1	907.1	1.9
318.15	0	989.2	2
318.15	0.1	982.4	2
318.15	0.2	974.2	2
318.15	0.3	966.1	2
318.15	0.4	957.5	2
318.15	0.5	948.9	1.9
318.15	0.6	940.2	1.9
318.15	0.7	930.3	1.9
318.15	0.8	919.9	1.9
318.15	0.9	909.1	1.9
318.15	1	896.9	1.8

System: 1-methoxy-2-propanol + benzyl methacrylate; phases: Liquid
Fixed: Pressure, kPa = 101
Property: Viscosity, Pa*s (Liquid); method: Capillary tube (Ostwald; Ubbelohde) method
Temperature, K	Mole fraction of 1-methoxy-2-propanol	Viscosity, Pa*s	uncertainty
298.15	0	0.002302	5.4e-05
298.15	0.1	0.002194	5.1e-05
298.15	0.2	0.00209	4.8e-05
298.15	0.3	0.00199	4.5e-05
298.15	0.4	0.001895	4.3e-05
298.15	0.5	0.0018	4e-05
298.15	0.6	0.001731	3.8e-05
298.15	0.7	0.001677	3.7e-05
298.15	0.8	0.001633	3.6e-05
298.15	0.9	0.00164	3.6e-05
298.15	1	0.001707	3.7e-05
308.15	0	0.001885	4.4e-05
308.15	0.1	0.001806	4.2e-05
308.15	0.2	0.001716	3.9e-05
308.15	0.3	0.001628	3.7e-05
308.15	0.4	0.001538	3.5e-05
308.15	0.5	0.001465	3.3e-05
308.15	0.6	0.001406	3.1e-05
308.15	0.7	0.001354	3e-05
308.15	0.8	0.001312	2.9e-05
308.15	0.9	0.001308	2.9e-05
308.15	1	0.001306	2.9e-05
318.15	0	0.00158	3.7e-05
318.15	0.1	0.00152	3.5e-05
318.15	0.2	0.001441	3.3e-05
318.15	0.3	0.001364	3.1e-05
318.15	0.4	0.001291	2.9e-05
318.15	0.5	0.001228	2.8e-05
318.15	0.6	0.001166	2.6e-05
318.15	0.7	0.001115	2.5e-05
318.15	0.8	0.001084	2.4e-05
318.15	0.9	0.001077	2.4e-05
318.15	1	0.001069	2.3e-05

System: 1-methoxy-2-propanol + benzyl methacrylate; phases: Liquid
Fixed: Pressure, kPa = 101
Property: Mass density, kg/m3 (Liquid); method: Pycnometric method
Temperature, K	Mole fraction of 1-methoxy-2-propanol	Mass density, kg/m3	uncertainty
298.15	0	1034.7	2.3
298.15	0.1	1026.8	2.3
298.15	0.2	1018.6	2.2
298.15	0.3	1009.8	2.2
298.15	0.4	1000.2	2.1
298.15	0.5	989.7	2.1
298.15	0.6	978.1	2
298.15	0.7	965.2	2
298.15	0.8	950.9	2
298.15	0.9	934.6	1.9
298.15	1	915.9	1.9
308.15	0	1025.8	2.3
308.15	0.1	1018.1	2.2
308.15	0.2	1010.1	2.2
308.15	0.3	1001.4	2.1
308.15	0.4	991.8	2.1
308.15	0.5	981.3	2.1
308.15	0.6	969.7	2
308.15	0.7	956.8	2
308.15	0.8	942.3	1.9
308.15	0.9	925.9	1.9
308.15	1	907.1	1.9
318.15	0	1017	2.3
318.15	0.1	1009.5	2.2
318.15	0.2	1001.4	2.2
318.15	0.3	992.5	2.1
318.15	0.4	982.8	2.1
318.15	0.5	972.2	2.1
318.15	0.6	960.5	2
318.15	0.7	947.5	2
318.15	0.8	932.7	1.9
318.15	0.9	916	1.9
318.15	1	896.9	1.8

System: 1-methoxy-2-propanol + 2-hydroxyethyl 2-methyl-2-propenoate; phases: Liquid
Fixed: Pressure, kPa = 101
Property: Viscosity, Pa*s (Liquid); method: Capillary tube (Ostwald; Ubbelohde) method
Temperature, K	Mole fraction of 1-methoxy-2-propanol	Viscosity, Pa*s	uncertainty
298.15	0	0.005784	0.000136
298.15	0.1	0.00512	0.00012
298.15	0.2	0.004607	0.000106
298.15	0.3	0.00413	9.5e-05
298.15	0.4	0.003656	8.3e-05
298.15	0.5	0.003256	7.3e-05
298.15	0.6	0.002869	6.4e-05
298.15	0.7	0.002496	5.5e-05
298.15	0.8	0.002208	4.8e-05
298.15	0.9	0.001933	4.2e-05
298.15	1	0.001707	3.7e-05
308.15	0	0.004194	0.0001
308.15	0.1	0.003747	8.8e-05
308.15	0.2	0.003408	7.9e-05
308.15	0.3	0.003065	7.1e-05
308.15	0.4	0.002757	6.3e-05
308.15	0.5	0.002477	5.6e-05
308.15	0.6	0.002208	4.9e-05
308.15	0.7	0.001944	4.3e-05
308.15	0.8	0.00173	3.8e-05
308.15	0.9	0.001528	3.3e-05
308.15	1	0.001306	2.9e-05
318.15	0	0.003181	7.6e-05
318.15	0.1	0.002869	6.7e-05
318.15	0.2	0.002623	6.1e-05
318.15	0.3	0.002373	5.5e-05
318.15	0.4	0.002148	4.9e-05
318.15	0.5	0.001947	4.4e-05
318.15	0.6	0.001753	3.9e-05
318.15	0.7	0.001559	3.5e-05
318.15	0.8	0.001395	3.1e-05
318.15	0.9	0.001237	2.7e-05
318.15	1	0.001069	2.3e-05

System: 1-methoxy-2-propanol + 2-hydroxyethyl 2-methyl-2-propenoate; phases: Liquid
Fixed: Pressure, kPa = 101
Property: Mass density, kg/m3 (Liquid); method: Pycnometric method
Temperature, K	Mole fraction of 1-methoxy-2-propanol	Mass density, kg/m3	uncertainty
298.15	0	1067.1	2.4
298.15	0.1	1055.2	2.3
298.15	0.2	1042.8	2.3
298.15	0.3	1029.9	2.2
298.15	0.4	1016.3	2.2
298.15	0.5	1001.7	2.1
298.15	0.6	986.2	2.1
298.15	0.7	969.8	2
298.15	0.8	952.7	2
298.15	0.9	934.8	1.9
298.15	1	915.9	1.9
308.15	0	1057.7	2.4
308.15	0.1	1046.2	2.3
308.15	0.2	1034.1	2.3
308.15	0.3	1021.2	2.2
308.15	0.4	1007.5	2.1
308.15	0.5	993	2.1
308.15	0.6	977.6	2
308.15	0.7	961.5	2
308.15	0.8	944.5	1.9
308.15	0.9	926.6	1.9
308.15	1	907.1	1.9
318.15	0	1048.6	2.4
318.15	0.1	1037.8	2.3
318.15	0.2	1025.5	2.2
318.15	0.3	1012.6	2.2
318.15	0.4	998.9	2.1
318.15	0.5	984.4	2.1
318.15	0.6	969	2
318.15	0.7	952.8	2
318.15	0.8	935.5	1.9
318.15	0.9	917.3	1.9
318.15	1	896.9	1.8
