Measured thermophysical data. Solubility of H2 in the Ionic Liquid [hmim][Tf2N]
Source: J. Chem. Eng. Data, 2006, 10.1021/je060087p
Compound 1: hydrogen, H2, InChI=1S/H2/h1H, purity 99.999%
Compound 2: 1-hexyl-3-methylimidazolium bis[(trifluoromethyl)sulfonyl]imide, C12H19F6N3O4S2, InChI=1S/C10H19N2.C2F6NO4S2/c1-3-4-5-6-7-12-9-8-11(2)10-12;3-1(4,5)14(10,11)9-15(12,13)2(6,7)8/h8-10H,3-7H2,1-2H3;/q+1;-1, purity 99%

System: hydrogen + 1-hexyl-3-methylimidazolium bis[(trifluoromethyl)sulfonyl]imide; phases: Liquid, Gas
Property: Vapor or sublimation pressure, kPa (Liquid); method: visual observation of bubble point
Temperature, K	Molality, mol/kg of hydrogen	Vapor or sublimation pressure, kPa	uncertainty
293.2	0.01713	1476	43
293.2	0.02984	2557	63
293.2	0.04684	4048	73
293.2	0.06284	5337	81
293.2	0.08051	6822	105
293.2	0.09812	8307	116
293.2	0.11526	9819	128
333.2	0.03213	2264	45
333.2	0.0506	3544	68
333.2	0.06678	4720	77
333.2	0.08695	6157	92
333.2	0.10752	7601	103
333.2	0.13135	9305	117
373.15	0.02641	1591	38
373.15	0.04718	2866	61
373.15	0.07446	4499	79
373.15	0.10165	6179	90
373.15	0.12777	7746	101
373.15	0.1488	9077	113
413.2	0.0307	1620	38
413.2	0.05729	3050	41
413.2	0.09234	4918	79
413.2	0.12509	6638	92
413.2	0.15232	8098	120
413.2	0.17841	9508	129
