Measured thermophysical data. Surface Tension of Liquid Fluorocompounds
Source: J. Chem. Eng. Data, 2006, 10.1021/je060199g
Compound 1: perfluorohexane, C6F14, InChI=1S/C6F14/c7-1(8,3(11,12)5(15,16)17)2(9,10)4(13,14)6(18,19)20, purity 99.11%
Compound 2: octadecafluorooctane, C8F18, InChI=1S/C8F18/c9-1(10,3(13,14)5(17,18)7(21,22)23)2(11,12)4(15,16)6(19,20)8(24,25)26, purity 98.36%
Compound 3: eicosafluorononane, C9F20, InChI=1S/C9F20/c10-1(11,2(12,13)4(16,17)6(20,21)8(24,25)26)3(14,15)5(18,19)7(22,23)9(27,28)29, purity 99.18%
Compound 4: hexadecafluoroheptane, C7F16, InChI=1S/C7F16/c8-1(9,2(10,11)4(14,15)6(18,19)20)3(12,13)5(16,17)7(21,22)23, purity 99.92%
Compound 5: perfluoro(methylcyclohexane), C7F14, InChI=1S/C7F14/c8-1(7(19,20)21)2(9,10)4(13,14)6(17,18)5(15,16)3(1,11)12, purity 99.98%
Compound 6: perfluorodecalin, C10F18, InChI=1S/C10F18/c11-1-2(12,5(17,18)9(25,26)7(21,22)3(1,13)14)6(19,20)10(27,28)8(23,24)4(1,15)16, purity 97.75%
Compound 7: hexafluorobenzene, C6F6, InChI=1S/C6F6/c7-1-2(8)4(10)6(12)5(11)3(1)9, purity 99.99%
Compound 8: octafluorotoluene, C7F8, InChI=1S/C7F8/c8-2-1(7(13,14)15)3(9)5(11)6(12)4(2)10, purity 99.9%
Compound 9: 1-bromoperfluorooctane, C8BrF17, InChI=1S/C8BrF17/c9-7(22,23)5(18,19)3(14,15)1(10,11)2(12,13)4(16,17)6(20,21)8(24,25)26, purity 99.9%

System: perfluorohexane; phases: Liquid, Air at 1 atmosphere
Property: Surface tension liquid-gas, N/m (Liquid); method: RINGTE:UFactor:0.5
Temperature, K	Surface tension liquid-gas, N/m	uncertainty
283.15	0.01413	0.00017
288.15	0.01344	0.00015
293.15	0.01297	0.00017
298.15	0.01223	0.00014
303.15	0.0117	0.00016
308.15	0.01125	0.00012

System: octadecafluorooctane; phases: Liquid, Air at 1 atmosphere
Property: Surface tension liquid-gas, N/m (Liquid); method: RINGTE:UFactor:0.5
Temperature, K	Surface tension liquid-gas, N/m	uncertainty
288.05	0.01539	0.0002
293.15	0.01492	0.00019
298.35	0.01447	0.00018
303.45	0.0141	0.00029
308.45	0.01356	0.00017
318.75	0.01268	0.00016
323.85	0.01222	0.00017

System: eicosafluorononane; phases: Liquid, Air at 1 atmosphere
Property: Surface tension liquid-gas, N/m (Liquid); method: RINGTE:UFactor:0.5
Temperature, K	Surface tension liquid-gas, N/m	uncertainty
287.15	0.01632	0.00018
292.75	0.01582	0.00015
298.25	0.01539	0.00016
303.45	0.01491	0.00014
308.75	0.01446	0.00017
313.85	0.01396	0.00014
319.15	0.01351	0.00014

System: hexadecafluoroheptane; phases: Liquid, Air at 1 atmosphere
Property: Surface tension liquid-gas, N/m (Liquid); method: RINGTE:UFactor:0.5
Temperature, K	Surface tension liquid-gas, N/m	uncertainty
289.05	0.01446	0.00012
293.25	0.01409	0.00014
298.25	0.01355	0.00012
303.45	0.01304	0.00012
308.45	0.01262	0.00012
313.45	0.01217	0.00014
318.45	0.01173	0.00011

System: perfluoro(methylcyclohexane); phases: Liquid, Air at 1 atmosphere
Property: Surface tension liquid-gas, N/m (Liquid); method: RINGTE:UFactor:0.5
Temperature, K	Surface tension liquid-gas, N/m	uncertainty
286.75	0.01633	0.00017
293.25	0.01565	0.00018
298.35	0.0151	0.00015
303.35	0.01454	0.00013
308.55	0.01395	0.00015
313.65	0.01338	0.00015

System: perfluorodecalin; phases: Liquid, Air at 1 atmosphere
Property: Surface tension liquid-gas, N/m (Liquid); method: RINGTE:UFactor:0.5
Temperature, K	Surface tension liquid-gas, N/m	uncertainty
288.15	0.02034	0.00016
293.15	0.01985	0.0002
298.15	0.01941	0.00015
303.15	0.01899	0.00015
308.15	0.01853	0.00016
318.15	0.01761	0.00021
327.15	0.0168	0.00016

System: hexafluorobenzene; phases: Liquid, Air at 1 atmosphere
Property: Surface tension liquid-gas, N/m (Liquid); method: RINGTE:UFactor:0.5
Temperature, K	Surface tension liquid-gas, N/m	uncertainty
288.05	0.02338	0.00018
293.35	0.02276	0.0002
298.45	0.02202	0.00018
303.45	0.0214	0.00016
308.55	0.02081	0.00016
313.65	0.02019	0.00016
318.75	0.01952	0.00018

System: octafluorotoluene; phases: Liquid, Air at 1 atmosphere
Property: Surface tension liquid-gas, N/m (Liquid); method: RINGTE:UFactor:0.5
Temperature, K	Surface tension liquid-gas, N/m	uncertainty
287.15	0.02302	0.00018
293.15	0.02229	0.00018
298.25	0.02176	0.00019
303.35	0.02112	0.00018
308.55	0.02051	0.00017
313.75	0.01992	0.00016
318.85	0.01935	0.00016

System: 1-bromoperfluorooctane; phases: Liquid, Air at 1 atmosphere
Property: Surface tension liquid-gas, N/m (Liquid); method: RINGTE:UFactor:0.5
Temperature, K	Surface tension liquid-gas, N/m	uncertainty
287.15	0.01842	0.00015
292.75	0.01792	0.00015
298.35	0.01743	0.00019
303.35	0.01701	0.00014
308.45	0.01654	0.00014
313.45	0.01604	0.00014
318.55	0.01566	0.00016
