Measured thermophysical data. Phase Equilibria Involved in Extractive Distillation of Dipropyl Ether + 1-Propyl Alcohol Using N,N-Dimethylformamide as Entrainer
Source: J. Chem. Eng. Data, 2007, 10.1021/je0604479
Compound 1: propan-1-ol, C3H8O, InChI=1S/C3H8O/c1-2-3-4/h4H,2-3H2,1H3
Compound 2: dipropyl ether, C6H14O, InChI=1S/C6H14O/c1-3-5-7-6-4-2/h3-6H2,1-2H3
Compound 3: dimethylformamide, C3H7NO, InChI=1S/C3H7NO/c1-4(2)3-5/h3H,1-2H3

System: propan-1-ol; phases: Liquid
Property: Refractive index (Na D-line) (Liquid); method: Standard Abbe refractometry
Temperature, K	Pressure, kPa	Refractive index (Na D-line)	uncertainty
298.15	101.325	1.3836	0.0008

System: propan-1-ol; phases: Liquid
Property: Mass density, kg/m3 (Liquid); method: VIBTUB:UFactor:4
Temperature, K	Pressure, kPa	Mass density, kg/m3	uncertainty
298.15	101.325	799.62	0.57

System: propan-1-ol; phases: Liquid, Gas
Property: Vapor or sublimation pressure, kPa (Liquid); method: EBULLIO:UFactor:2
Temperature, K	Vapor or sublimation pressure, kPa	uncertainty
369.75	101.3	0.8

System: dipropyl ether; phases: Liquid
Property: Refractive index (Na D-line) (Liquid); method: Standard Abbe refractometry
Temperature, K	Pressure, kPa	Refractive index (Na D-line)	uncertainty
298.15	101.325	1.3784	0.0008

System: dipropyl ether; phases: Liquid
Property: Mass density, kg/m3 (Liquid); method: VIBTUB:UFactor:4
Temperature, K	Pressure, kPa	Mass density, kg/m3	uncertainty
298.15	101.325	741.81	0.65

System: dipropyl ether; phases: Liquid, Gas
Property: Vapor or sublimation pressure, kPa (Liquid); method: EBULLIO:UFactor:2
Temperature, K	Vapor or sublimation pressure, kPa	uncertainty
363.16	101.3	0.8

System: dimethylformamide; phases: Liquid
Property: Refractive index (Na D-line) (Liquid); method: Standard Abbe refractometry
Temperature, K	Pressure, kPa	Refractive index (Na D-line)	uncertainty
298.15	101.325	1.4265	0.0008

System: dimethylformamide; phases: Liquid
Property: Mass density, kg/m3 (Liquid); method: VIBTUB:UFactor:6
Temperature, K	Pressure, kPa	Mass density, kg/m3	uncertainty
298.15	101.325	948.72	0.49

System: dimethylformamide; phases: Liquid, Gas
Property: Vapor or sublimation pressure, kPa (Liquid); method: EBULLIO:UFactor:2
Temperature, K	Vapor or sublimation pressure, kPa	uncertainty
425.63	101.3	0.8

System: dimethylformamide + dipropyl ether; phases: Liquid, Gas
Fixed: Pressure, kPa = 101.3
Property: Boiling temperature at pressure P, K (Liquid); method: EBULLIO:UFactor:2
Mole fraction of dipropyl ether	Boiling temperature at pressure P, K	uncertainty
0	425.63	0.17
0.002	423.99	0.93
0.009	420.79	0.98
0.016	417.24	0.88
0.025	413.81	0.74
0.034	410.79	0.69
0.051	405.08	0.55
0.105	391.86	0.43
0.158	384.08	0.28
0.222	378.87	0.22
0.296	374.67	0.2
0.34	373.08	0.19
0.391	371.77	0.18
0.439	370.62	0.18
0.489	369.55	0.18
0.54	368.76	0.18
0.625	367.65	0.18
0.682	366.87	0.18
0.738	366.18	0.18
0.8	365.43	0.18
0.871	364.57	0.18
0.939	363.77	0.18
1	363.16	0.17

System: dimethylformamide + dipropyl ether; phases: Gas, Liquid
Fixed: Pressure, kPa = 101.3
Property: Mole fraction of dipropyl ether (Gas); method: Chromatography
Mole fraction of dipropyl ether	Mole fraction of dipropyl ether	uncertainty
0	0	0.001
0.002	0.038	0.031
0.009	0.148	0.027
0.016	0.228	0.019
0.025	0.303	0.017
0.034	0.38	0.015
0.051	0.495	0.01
0.105	0.687	0.007
0.158	0.775	0.004
0.222	0.82	0.004
0.296	0.854	0.003
0.34	0.865	0.003
0.391	0.876	0.003
0.439	0.884	0.003
0.489	0.895	0.003
0.54	0.899	0.003
0.625	0.904	0.003
0.682	0.911	0.003
0.738	0.919	0.002
0.8	0.929	0.002
0.871	0.945	0.002
0.939	0.968	0.002
1	1	0.001

System: dimethylformamide + propan-1-ol; phases: Liquid, Gas
Fixed: Pressure, kPa = 101.3
Property: Boiling temperature at pressure P, K (Liquid); method: EBULLIO:UFactor:2
Mole fraction of propan-1-ol	Boiling temperature at pressure P, K	uncertainty
0	425.63	0.17
0.064	419.92	0.18
0.115	414.9	0.18
0.172	409.78	0.18
0.226	405.38	0.18
0.285	401.23	0.18
0.338	397.57	0.18
0.391	394.27	0.18
0.445	390.98	0.18
0.499	388.02	0.18
0.553	385.37	0.18
0.603	383.06	0.18
0.656	380.85	0.18
0.707	378.82	0.18
0.755	377.02	0.18
0.802	375.4	0.18
0.847	373.95	0.18
0.892	372.69	0.18
0.933	371.58	0.18
0.969	370.71	0.18
1	369.75	0.17

System: dimethylformamide + propan-1-ol; phases: Gas, Liquid
Fixed: Pressure, kPa = 101.3
Property: Mole fraction of propan-1-ol (Gas); method: Chromatography
Mole fraction of propan-1-ol	Mole fraction of propan-1-ol	uncertainty
0	0	0.001
0.064	0.218	0.003
0.115	0.372	0.004
0.172	0.5	0.006
0.226	0.602	0.005
0.285	0.686	0.004
0.338	0.742	0.004
0.391	0.79	0.003
0.445	0.833	0.003
0.499	0.869	0.002
0.553	0.896	0.002
0.603	0.919	0.001
0.656	0.937	0.001
0.707	0.952	0.001
0.755	0.965	0.001
0.802	0.975	0.001
0.847	0.982	0.001
0.892	0.988	0.001
0.933	0.993	0.001
0.969	0.997	0.001
1	1	0.001

System: dimethylformamide + propan-1-ol + dipropyl ether; phases: Liquid, Gas
Fixed: Pressure, kPa = 101.3
Property: Mole fraction of propan-1-ol (Liquid); method: Chromatography
Property: Mole fraction of propan-1-ol (Gas); method: Chromatography
Property: Mole fraction of dipropyl ether (Gas); method: Chromatography
Temperature, K	Mole fraction of dipropyl ether	Mole fraction of propan-1-ol	uncertainty	Mole fraction of propan-1-ol	uncertainty	Mole fraction of dipropyl ether	uncertainty
359.12	0.404	0.55	0.004	0.637	0.005	0.354	
359.51	0.188	0.772	0.003	0.754	0.004	0.23	
360.26	0.599	0.36	0.004	0.537	0.006	0.459	
360.27	0.296	0.613	0.004	0.698	0.005	0.281	
360.83	0.507	0.4	0.004	0.585	0.006	0.403	
361.49	0.185	0.696	0.004	0.767	0.004	0.199	
362.16	0.058	0.878	0.003	0.878	0.003	0.086	
362.28	0.104	0.787	0.003	0.829	0.003	0.129	
362.69	0.3	0.507	0.005	0.704	0.005	0.261	
362.7	0.402	0.403	0.004	0.644	0.005	0.328	
363.73	0.702	0.203	0.003	0.428	0.005	0.564	
364.02	0.507	0.295	0.003	0.565	0.006	0.411	
364.24	0.102	0.696	0.004	0.83	0.003	0.11	
364.42	0.208	0.53	0.004	0.759	0.004	0.187	
365.05	0.302	0.403	0.004	0.697	0.005	0.254	
365.28	0.585	0.221	0.003	0.491	0.006	0.487	
365.88	0.404	0.295	0.003	0.623	0.005	0.335	
366.06	0.092	0.594	0.004	0.83	0.003	0.094	
366.52	0.049	0.642	0.004	0.862	0.003	0.057	
366.92	0.212	0.418	0.004	0.75	0.004	0.183	
367.46	0.799	0.094	0.003	0.273	0.004	0.716	
368.02	0.304	0.304	0.003	0.679	0.005	0.259	
368.04	0.504	0.196	0.003	0.516	0.006	0.444	
368.3	0.092	0.482	0.005	0.823	0.004	0.088	
368.4	0.899	0.047	0.002	0.162	0.003	0.833	
370.17	0.211	0.31	0.003	0.732	0.004	0.185	
370.27	0.044	0.442	0.004	0.851	0.003	0.05	
370.36	0.401	0.196	0.003	0.57	0.006	0.369	
370.73	0.091	0.368	0.004	0.81	0.004	0.086	
371.39	0.569	0.121	0.003	0.401	0.005	0.56	
373.27	0.3	0.193	0.003	0.627	0.005	0.292	
373.4	0.702	0.045	0.002	0.208	0.003	0.759	
374.31	0.097	0.263	0.003	0.785	0.004	0.094	
375.13	0.209	0.203	0.003	0.687	0.005	0.205	
377.58	0.394	0.101	0.003	0.446	0.005	0.469	
378.53	0.052	0.213	0.003	0.796	0.004	0.054	
379.66	0.501	0.046	0.002	0.27	0.004	0.655	
380.27	0.1	0.18	0.003	0.737	0.004	0.11	
384.31	0.183	0.109	0.003	0.568	0.006	0.271	
388.08	0.097	0.12	0.003	0.652	0.005	0.136	
388.31	0.289	0.047	0.002	0.355	0.004	0.485	
406.24	0.055	0.053	0.002	0.477	0.006	0.131	
