Measured thermophysical data. Liquid-Liquid Equilibrium Diagrams of Ethanol + Water + (Ethyl Acetate or 1-Pentanol) at Several Temperatures
Source: J. Chem. Eng. Data, 2006, 10.1021/je060054+
Compound 1: ethanol, C2H6O, InChI=1S/C2H6O/c1-2-3/h3H,2H2,1H3, purity 99.5%
Compound 2: water, H2O, InChI=1S/H2O/h1H2, purity 99.7%
Compound 3: ethyl acetate, C4H8O2, InChI=1S/C4H8O2/c1-3-6-4(2)5/h3H2,1-2H3, purity 99.9%
Compound 4: pentan-1-ol, C5H12O, InChI=1S/C5H12O/c1-2-3-4-5-6/h6H,2-5H2,1H3, purity 99.5%

System: ethanol; phases: Liquid
Property: Refractive index (Na D-line) (Liquid); method: Standard Abbe refractometry
Temperature, K	Pressure, kPa	Refractive index (Na D-line)	uncertainty
298.15	101.325	1.35941	0.00073

System: water; phases: Liquid
Property: Refractive index (Na D-line) (Liquid); method: Standard Abbe refractometry
Temperature, K	Pressure, kPa	Refractive index (Na D-line)	uncertainty
298.15	101.325	1.3325	0.00072

System: ethyl acetate; phases: Liquid
Property: Refractive index (Na D-line) (Liquid); method: Standard Abbe refractometry
Temperature, K	Pressure, kPa	Refractive index (Na D-line)	uncertainty
298.15	101.325	1.36978	0.00072

System: pentan-1-ol; phases: Liquid
Property: Refractive index (Na D-line) (Liquid); method: Standard Abbe refractometry
Temperature, K	Pressure, kPa	Refractive index (Na D-line)	uncertainty
298.15	101.325	1.4077	0.00073

System: pentan-1-ol + water; phases: Liquid mixture 1, Liquid mixture 2
Fixed: Pressure, kPa = 101
Property: Mole fraction of water (Liquid mixture 1); method: Density calibration data
Temperature, K	Mole fraction of water	uncertainty
298.15	0.995	0.004
308.15	0.998	0.002
318.15	0.992	0.004

System: pentan-1-ol + water; phases: Liquid mixture 2, Liquid mixture 1
Fixed: Pressure, kPa = 101
Property: Mole fraction of water (Liquid mixture 2); method: Density calibration data
Temperature, K	Mole fraction of water	uncertainty
298.15	0.363	0.02
308.15	0.348	0.02
318.15	0.347	0.02

System: ethanol + ethyl acetate + water; phases: Liquid mixture 2, Liquid mixture 1
Fixed: Pressure, kPa = 101
Property: Mole fraction of ethanol (Liquid mixture 2); method: Density calibration data
Property: Mole fraction of water (Liquid mixture 1); method: Density calibration data
Property: Mole fraction of ethanol (Liquid mixture 1); method: Density calibration data
Temperature, K	Mole fraction of water	Mole fraction of ethanol	uncertainty	Mole fraction of water	uncertainty	Mole fraction of ethanol	uncertainty
298.15	0.162	0.015	0.002	0.997	0.002	0.002	
298.15	0.178	0.034	0.002	0.984	0.002	0.015	
298.15	0.188	0.043	0.001	0.978	0.002	0.021	
298.15	0.2	0.054	0.001	0.97	0.002	0.029	
298.15	0.296	0.107	0.001	0.931	0.002	0.063	
298.15	0.374	0.139	0.001	0.915	0.003	0.072	
298.15	0.478	0.172	0.001	0.888	0.003	0.086	
308.15	0.168	0.012	0.002	0.997	0.002	0.002	
308.15	0.187	0.034	0.001	0.98	0.002	0.019	
308.15	0.217	0.057	0.001	0.963	0.002	0.035	
308.15	0.257	0.08	0.001	0.946	0.002	0.05	
308.15	0.359	0.126	0.001	0.926	0.003	0.064	
308.15	0.418	0.148	0.001	0.914	0.003	0.071	
308.15	0.523	0.172	0.001	0.888	0.003	0.085	
318.15	0.175	0.009	0.001	0.982	0.002	0.013	
318.15	0.204	0.032	0.001	0.979	0.002	0.018	
318.15	0.245	0.06	0.001	0.962	0.002	0.034	
318.15	0.298	0.087	0.001	0.947	0.002	0.046	
318.15	0.407	0.137	0.001	0.925	0.002	0.062	
318.15	0.459	0.153	0.001	0.916	0.003	0.068	
318.15	0.564	0.166	0.001	0.882	0.003	0.084	

System: ethanol + pentan-1-ol + water; phases: Liquid mixture 1, Liquid mixture 2
Fixed: Pressure, kPa = 101
Property: Mole fraction of water (Liquid mixture 1); method: Density calibration data
Property: Mole fraction of water (Liquid mixture 2); method: Density calibration data
Property: Mole fraction of ethanol (Liquid mixture 2); method: Density calibration data
Temperature, K	Mole fraction of ethanol	Mole fraction of water	uncertainty	Mole fraction of water	uncertainty	Mole fraction of ethanol	uncertainty
298.15	0.005	0.985	0.004	0.357	0.02	0.081	
298.15	0.011	0.981	0.005	0.345	0.02	0.11	
298.15	0.038	0.94	0.005	0.505	0.02	0.22	
298.15	0.029	0.95	0.005	0.48	0.02	0.2	
298.15	0.047	0.924	0.005	0.589	0.02	0.24	
298.15	0	0.995	0.004	0.363	0.02	0	
308.15	0.019	0.98	0.004	0.367	0.02	0.023	
308.15	0.03	0.969	0.004	0.41	0.02	0.06	
308.15	0.053	0.945	0.004	0.462	0.02	0.119	
308.15	0.058	0.94	0.004	0.489	0.02	0.127	
308.15	0.062	0.936	0.004	0.548	0.02	0.169	
308.15	0	0.998	0.002	0.348	0.02	0	
318.15	0.026	0.973	0.004	0.353	0.02	0.047	
318.15	0.036	0.963	0.004	0.364	0.02	0.086	
318.15	0.054	0.944	0.005	0.448	0.02	0.159	
318.15	0.056	0.941	0.005	0.49	0.02	0.2	
318.15	0.056	0.942	0.004	0.522	0.02	0.224	
318.15	0	0.992	0.004	0.347	0.02	0	
