Measured thermophysical data. Temperature and Pressure Dependence of the Viscosity of the Ionic Liquids 1-Methyl-3-octylimidazolium Hexafluorophosphate and 1-Methyl-3-octylimidazolium Tetrafluoroborate
Source: J. Chem. Eng. Data, 2006, 10.1021/je060082s
Compound 1: 1-octyl-3-methylimidazolium hexafluorophosphate, C12H23F6N2P, InChI=1S/C12H23N2.F6P/c1-3-4-5-6-7-8-9-14-11-10-13(2)12-14;1-7(2,3,4,5)6/h10-12H,3-9H2,1-2H3;/q+1;-1
Compound 2: 1-methyl-3-octylimidazolium tetrafluoroborate, C12H23BF4N2, InChI=1S/C12H23N2.BF4/c1-3-4-5-6-7-8-9-14-11-10-13(2)12-14;2-1(3,4)5/h10-12H,3-9H2,1-2H3;/q+1;-1

System: 1-octyl-3-methylimidazolium hexafluorophosphate; phases: Liquid
Fixed: Pressure, kPa = 101.325
Property: Mass density, kg/m3 (Liquid); method: Vibrating tube method
Temperature, K	Mass density, kg/m3	uncertainty
273.1	1256.13	3.31
278.1	1252.25	3.3
283.1	1248.38	3.29
288.15	1244.52	3.28
293.15	1240.68	3.27
298.15	1236.84	3.26
303.15	1233.01	3.25
313.15	1225.34	3.23
323.15	1217.7	3.21
333.15	1210.29	3.19
343.15	1202.88	3.17
353.15	1195.49	3.15
363.15	1188.13	3.13

System: 1-octyl-3-methylimidazolium hexafluorophosphate; phases: Liquid
Property: Viscosity, Pa*s (Liquid); method: OTHER
Temperature, K	Pressure, kPa	Viscosity, Pa*s	uncertainty
323.15	100	0.158	0.0045
323.15	26300	0.222	0.0059
323.15	49900	0.295	0.0077
323.15	74800	0.395	0.0102
323.15	100	0.158	0.0045
323.15	100	0.159	0.0045
323.15	100	0.159	0.0045
333.15	100	0.097	0.0032
333.15	100	0.097	0.0032
343.15	100	0.064	0.0026
343.15	10000	0.07	0.0027
343.15	100	0.063	0.0026
343.15	100	0.063	0.0025
343.15	100	0.063	0.0025
353.15	100	0.043	0.0023
353.15	100	0.043	0.0023

System: 1-octyl-3-methylimidazolium hexafluorophosphate; phases: Liquid
Fixed: Pressure, kPa = 101.325
Property: Mass density, kg/m3 (Liquid); method: Vibrating tube method
Temperature, K	Mass density, kg/m3	uncertainty
298.15	1236.75	3.26
323.15	1217.68	3.21

System: 1-octyl-3-methylimidazolium hexafluorophosphate; phases: Liquid
Property: Viscosity, Pa*s (Liquid); method: OTHER
Temperature, K	Pressure, kPa	Viscosity, Pa*s	uncertainty
273.15	100	6.41	0.16
278.15	100	3.889	0.097
283.15	100	2.439	0.061
293.15	100	1.065	0.027
298.15	100	0.7344	0.0185
298.15	10200	0.8537	0.0214
298.15	24600	1.041	0.026
298.15	39900	1.299	0.033
298.15	100	0.7316	0.0184
303.15	100	0.5193	0.0131
308.15	100	0.3746	0.0096
308.15	5500	0.4043	0.0103
308.15	9900	0.4302	0.0109
308.15	25600	0.5312	0.0134
308.15	48400	0.7163	0.018
308.15	74900	1.008	0.025
308.15	100	0.3709	0.0095
313.15	100	0.2768	0.0072
323.15	100	0.1592	0.0045
323.15	24800	0.2175	0.0058
323.15	60500	0.3489	0.009
323.15	76000	0.4042	0.0103
323.15	99700	0.5246	0.0133
333.15	100	0.0979	0.0032
333.15	13500	0.1152	0.0035
333.15	30300	0.1406	0.004
333.15	50400	0.1762	0.0048
333.15	75100	0.2304	0.0061
333.15	100400	0.3007	0.0078
333.15	125200	0.3873	0.0099
333.15	100	0.0978	0.0032
333.15	100	0.0979	0.0032
333.15	100	0.0978	0.0032
343.15	100	0.0637	0.0026
343.15	21300	0.081	0.0028
343.15	51800	0.1127	0.0035
343.15	72900	0.1387	0.004
343.15	100300	0.1826	0.005
343.15	125900	0.2337	0.0062
343.15	148800	0.2962	0.0077
343.15	175900	0.3784	0.0097

System: 1-methyl-3-octylimidazolium tetrafluoroborate; phases: Liquid
Fixed: Pressure, kPa = 101.325
Property: Mass density, kg/m3 (Liquid); method: Vibrating tube method
Temperature, K	Mass density, kg/m3	uncertainty
273.1	1120.96	2.95
278.1	1117.48	2.94
283.1	1114.01	2.93
288.15	1110.55	2.92
293.15	1107.11	2.91
293.15	1107.11	2.91
298.15	1103.68	2.91
303.15	1100.24	2.9
313.15	1093.37	2.88
323.15	1086.56	2.86
333.15	1079.83	2.84
343.15	1073.18	2.82
353.15	1066.6	2.81
363.15	1060.08	2.79

System: 1-methyl-3-octylimidazolium tetrafluoroborate; phases: Liquid
Property: Viscosity, Pa*s (Liquid); method: OTHER
Temperature, K	Pressure, kPa	Viscosity, Pa*s	uncertainty
273.15	100	2.291	0.057
273.150001	100	2.289	0.057
278.15	100	1.477	0.037
278.15	100	1.478	0.037
283.15	100	0.982	0.025
283.15	100	0.982	0.025
288.15	100	0.673	0.017
288.15	100	0.673	0.017
293.15	100	0.473	0.012
293.15	100	0.473	0.012
298.15	100	0.341	0.009
298.15	11200	0.393	0.01
298.15	26200	0.4757	0.0121
298.15	50500	0.6383	0.0161
298.15	51500	0.6459	0.0163
298.15	60800	0.7201	0.0181
298.15	80200	0.9023	0.0227
298.15	100200	1.13	0.028
298.15	116700	1.359	0.034
298.15	117500	1.371	0.034
303.15	100	0.251	0.007
303.15	100	0.251	0.007
308.15	100	0.1884	0.0051
308.15	800	0.1901	0.0052
308.15	2900	0.1949	0.0053
308.15	5600	0.2043	0.0055
308.15	10900	0.2142	0.0057
308.15	26000	0.2551	0.0067
308.15	50700	0.3371	0.0087
308.15	76200	0.444	0.0113
308.15	100300	0.5711	0.0144
308.15	124400	0.7317	0.0184
308.15	150200	0.9455	0.0237
308.15	200100	1.527	0.038
308.15	100	0.1882	0.0051
308.15	100	0.1883	0.0051
308.15	100	0.1887	0.0051
308.15	100	0.1885	0.0051
313.15	100	0.1441	0.0041
323.15	100	0.0888	0.003
323.15	700	0.0892	0.003
323.15	4900	0.0935	0.0031
323.15	10500	0.0993	0.0032
323.15	25800	0.1182	0.0036
323.15	50800	0.1501	0.0043
323.15	75700	0.1912	0.0052
323.15	100600	0.2418	0.0064
323.15	125500	0.3031	0.0078
323.15	149900	0.3765	0.0096
323.15	175500	0.4698	0.0119
323.15	199800	0.5773	0.0146
323.15	100	0.0887	0.003
323.15	100	0.0887	0.003
333.15	100	0.0578	0.0025
333.15	10800	0.0644	0.0026
333.15	25700	0.0746	0.0027
333.15	50300	0.0943	0.0031
333.15	75600	0.1187	0.0036
333.15	100500	0.1477	0.0042
333.15	125300	0.1825	0.005
333.15	150200	0.2243	0.006
333.15	175100	0.2744	0.0071
333.15	200000	0.3341	0.0086
333.15	100	0.0578	0.0025
343.15	100	0.0394	0.0022
348.15	100	0.0328	0.0022
348.15	300	0.0327	0.0022
348.15	1600	0.0332	0.0022
348.15	3100	0.0337	0.0022
348.15	5400	0.0344	0.0022
348.15	10200	0.036	0.0022
348.15	25600	0.0414	0.0023
348.15	50300	0.0515	0.0024
348.15	75600	0.0636	0.0026
348.15	100500	0.0777	0.0028
348.15	125400	0.0943	0.0031
348.15	150400	0.1143	0.0035
348.15	175300	0.1368	0.004
348.15	200200	0.1636	0.0046
348.15	224200	0.1937	0.0052
353.15	100	0.0281	0.0021
