Measured thermophysical data. Isobaric Vapor-Liquid Equilibrium Data and Excess Properties of Binary Systems Comprised of Alkyl Methanoates + Hexane
Source: J. Chem. Eng. Data, 2007, 10.1021/je060355j
Compound 1: methyl methanoate, C2H4O2, InChI=1S/C2H4O2/c1-4-2-3/h2H,1H3
Compound 2: ethyl methanoate, C3H6O2, InChI=1S/C3H6O2/c1-2-5-3-4/h3H,2H2,1H3
Compound 3: propyl methanoate, C4H8O2, InChI=1S/C4H8O2/c1-2-3-6-4-5/h4H,2-3H2,1H3
Compound 4: butyl methanoate, C5H10O2, InChI=1S/C5H10O2/c1-2-3-4-7-5-6/h5H,2-4H2,1H3
Compound 5: hexane, C6H14, InChI=1S/C6H14/c1-3-5-6-4-2/h3-6H2,1-2H3

System: methyl methanoate; phases: Liquid, Gas
Property: Vapor or sublimation pressure, kPa (Liquid); method: EBULLIO:UFactor:2
Temperature, K	Vapor or sublimation pressure, kPa	uncertainty
304.7	101.32	1

System: methyl methanoate; phases: Liquid
Fixed: Pressure, kPa = 101.325
Property: Refractive index (Na D-line) (Liquid); method: ABBE:UFactor:2
Temperature, K	Refractive index (Na D-line)	uncertainty
291.15	1.3452	0.001
298.15	1.3415	0.001

System: methyl methanoate; phases: Liquid
Fixed: Pressure, kPa = 101.32
Property: Mass density, kg/m3 (Liquid); method: VIBTUB:UFactor:12
Temperature, K	Mass density, kg/m3	uncertainty
291.15	976.9	0.67
298.15	966.54	0.72

System: ethyl methanoate; phases: Liquid, Gas
Property: Vapor or sublimation pressure, kPa (Liquid); method: EBULLIO:UFactor:2
Temperature, K	Vapor or sublimation pressure, kPa	uncertainty
327.33	101.32	1

System: ethyl methanoate; phases: Liquid
Fixed: Pressure, kPa = 101.325
Property: Refractive index (Na D-line) (Liquid); method: ABBE:UFactor:2
Temperature, K	Refractive index (Na D-line)	uncertainty
291.15	1.3614	0.0011
298.15	1.358	0.0011
318.15	1.3474	0.0011

System: ethyl methanoate; phases: Liquid
Fixed: Pressure, kPa = 101.32
Property: Mass density, kg/m3 (Liquid); method: VIBTUB:UFactor:12
Temperature, K	Mass density, kg/m3	uncertainty
291.15	924.7	2.31
298.15	915.16	2.32
308.15	902.07	2.34
318.15	888.42	2.36

System: propyl methanoate; phases: Liquid, Gas
Property: Vapor or sublimation pressure, kPa (Liquid); method: EBULLIO:UFactor:2
Temperature, K	Vapor or sublimation pressure, kPa	uncertainty
353.92	101.32	1

System: propyl methanoate; phases: Liquid
Fixed: Pressure, kPa = 101.325
Property: Refractive index (Na D-line) (Liquid); method: ABBE:UFactor:2
Temperature, K	Refractive index (Na D-line)	uncertainty
291.15	1.3778	0.0011
298.15	1.375	0.0011
318.15	1.365	0.0011

System: propyl methanoate; phases: Liquid
Fixed: Pressure, kPa = 101.32
Property: Mass density, kg/m3 (Liquid); method: VIBTUB:UFactor:12
Temperature, K	Mass density, kg/m3	uncertainty
291.15	907.8	2.33
298.15	899.08	2.34
308.15	888.36	2.36
318.15	875.32	2.38

System: butyl methanoate; phases: Liquid, Gas
Property: Vapor or sublimation pressure, kPa (Liquid); method: EBULLIO:UFactor:4
Temperature, K	Vapor or sublimation pressure, kPa	uncertainty
380.13	101.32	1.06

System: butyl methanoate; phases: Liquid
Fixed: Pressure, kPa = 101.325
Property: Refractive index (Na D-line) (Liquid); method: ABBE:UFactor:2
Temperature, K	Refractive index (Na D-line)	uncertainty
291.15	1.3904	0.0011
298.15	1.3872	0.0011
318.15	1.3776	0.0011

System: butyl methanoate; phases: Liquid
Fixed: Pressure, kPa = 101.32
Property: Mass density, kg/m3 (Liquid); method: VIBTUB:UFactor:12
Temperature, K	Mass density, kg/m3	uncertainty
291.15	896	2.35
298.15	888.66	2.36
308.15	878.24	2.37
318.15	867.21	2.39

System: hexane; phases: Liquid, Gas
Property: Vapor or sublimation pressure, kPa (Liquid); method: EBULLIO:UFactor:2
Temperature, K	Vapor or sublimation pressure, kPa	uncertainty
341.76	101.32	1.02

System: hexane; phases: Liquid
Fixed: Pressure, kPa = 101.325
Property: Refractive index (Na D-line) (Liquid); method: ABBE:UFactor:2
Temperature, K	Refractive index (Na D-line)	uncertainty
291.15	1.3765	0.001
298.15	1.372	0.001
318.15	1.3618	0.001

System: hexane; phases: Liquid
Fixed: Pressure, kPa = 101.32
Property: Mass density, kg/m3 (Liquid); method: VIBTUB:UFactor:12
Temperature, K	Mass density, kg/m3	uncertainty
291.15	661.2	2.05
298.15	654.89	2.08
308.15	646.07	2.12
318.15	636.43	2.16

System: methyl methanoate + hexane; phases: Liquid, Gas
Fixed: Pressure, kPa = 101.32
Property: Boiling temperature at pressure P, K (Liquid); method: EBULLIO:UFactor:2
Mole fraction of methyl methanoate	Boiling temperature at pressure P, K	uncertainty
0	341.76	0.17
0.022	333.45	1.36
0.0325	331	0.79
0.0634	325.36	0.71
0.1218	315.65	0.5
0.1809	311.55	0.3
0.242	308.2	0.25
0.289	306.72	0.2
0.3342	305.93	0.19
0.4008	304.76	0.18
0.4699	303.99	0.18
0.5404	303.53	0.18
0.5945	303.3	0.18
0.6592	303.08	0.18
0.7253	302.91	0.18
0.7969	302.77	0.18
0.8429	302.73	0.17
0.8811	302.75	0.18
0.916	302.88	0.18
0.9367	303.07	0.18
0.9585	303.36	0.19
0.9781	303.85	0.2
0.9872	304.11	0.23
0.9979	304.55	0.2
1	304.7	0.17

System: methyl methanoate + hexane; phases: Gas, Liquid
Fixed: Pressure, kPa = 101.32
Property: Mole fraction of methyl methanoate (Gas); method: Density calibration data
Mole fraction of methyl methanoate	Mole fraction of methyl methanoate	uncertainty
0	0	0.0001
0.022	0.2663	0.0425
0.0325	0.3347	0.0204
0.0634	0.4771	0.0138
0.1218	0.6286	0.0091
0.1809	0.6971	0.0062
0.242	0.738	0.0054
0.289	0.7615	0.005
0.3342	0.7711	0.0048
0.4008	0.791	0.0047
0.4699	0.802	0.0046
0.5404	0.8095	0.0046
0.5945	0.8146	0.0045
0.6592	0.8204	0.0045
0.7253	0.8257	0.0045
0.7969	0.8369	0.0045
0.8429	0.8473	0.0045
0.8811	0.8597	0.0046
0.916	0.8763	0.0048
0.9367	0.8903	0.0057
0.9585	0.9172	0.0071
0.9781	0.9501	0.0079
0.9872	0.9657	0.0094
0.9979	0.9921	0.0065
1	1	0.0001

System: methyl methanoate + hexane; phases: Liquid
Fixed: Temperature, K = 291.15
Fixed: Pressure, kPa = 101.32
Property: Excess molar enthalpy (molar enthalpy of mixing), kJ/mol (Liquid); method: CALVET:UFactor:2
Mole fraction of methyl methanoate	Excess molar enthalpy (molar enthalpy of mixing), kJ/mol	uncertainty
0.1408	1.0599	0.0187
0.252	1.6259	0.0271
0.3379	1.9346	0.0317
0.4008	2.0582	0.0335
0.4618	2.1105	0.0342
0.5094	2.0986	0.0341
0.5501	2.0632	0.0335
0.5862	2.0134	0.0328
0.6157	1.9318	0.0316
0.6568	1.8364	0.0301
0.7033	1.7134	0.0283
0.7517	1.5467	0.0258
0.7971	1.382	0.0233
0.845	1.1754	0.0204
0.8923	0.9169	0.017
0.9292	0.6401	0.0136
0.9665	0.3748	0.0102

System: methyl methanoate + hexane; phases: Liquid
Fixed: Pressure, kPa = 101.32
Property: Mass density, kg/m3 (Liquid); method: VIBTUB:UFactor:12
Temperature, K	Mole fraction of methyl methanoate	Mass density, kg/m3	uncertainty
291.15	0	661.2	2.05
291.15	0.019	663	2.04
291.15	0.0499	666.3	2.03
291.15	0.0863	670.6	2.01
291.15	0.1013	672.6	2
291.15	0.1209	675.3	1.99
291.15	0.2033	687.1	1.94
291.15	0.2986	702.6	1.87
291.15	0.3828	718.9	1.81
291.15	0.4841	742.3	1.71
291.15	0.5462	759.1	1.64
291.15	0.6061	777.4	1.57
291.15	0.6987	810.1	1.44
291.15	0.7445	829.1	1.38
291.15	0.7956	851.5	1.3
291.15	0.8392	872.6	1.24
291.15	0.903	908.4	1.13
291.15	0.9539	939.9	1.09
291.15	1	976.9	0.67
298.15	0	654.89	2.08
298.15	0.0376	659.63	2.06
298.15	0.0816	664.26	2.04
298.15	0.1327	670.55	2.01
298.15	0.1642	674.8	1.99
298.15	0.2352	685.32	1.95
298.15	0.2936	695.29	1.91
298.15	0.3903	714.41	1.83
298.15	0.4987	740.05	1.72
298.15	0.5979	768.9	1.61
298.15	0.7062	806.5	1.45
298.15	0.7433	821.74	1.41
298.15	0.7972	845.31	1.33
298.15	0.8497	871.94	1.24
298.15	0.905	902.05	1.16
298.15	0.9582	936.28	1.08
298.15	1	966.54	0.72

System: ethyl methanoate + hexane; phases: Liquid, Gas
Fixed: Pressure, kPa = 101.32
Property: Boiling temperature at pressure P, K (Liquid); method: EBULLIO:UFactor:2
Mole fraction of ethyl methanoate	Boiling temperature at pressure P, K	uncertainty
0	341.76	0.17
0.0028	341.41	0.35
0.0431	337.13	0.45
0.0569	335.9	0.34
0.0747	334.85	0.3
0.082	334.37	0.32
0.0849	334.12	0.32
0.1033	332.97	0.3
0.126	331.63	0.28
0.1497	330.46	0.25
0.1799	329.3	0.23
0.1959	328.72	0.23
0.2022	328.48	0.24
0.2481	327.17	0.2
0.3113	326.06	0.19
0.3324	325.85	0.19
0.3595	325.6	0.19
0.4048	324.84	0.19
0.4694	324.22	0.19
0.5308	323.81	0.19
0.5895	323.53	0.19
0.6478	323.38	0.19
0.7054	323.31	0.2
0.7656	323.39	0.2
0.8236	323.66	0.2
0.8749	324.11	0.21
0.9134	324.67	0.22
0.9463	325.38	0.23
0.9657	325.93	0.24
0.9835	326.56	0.25
0.9938	326.94	0.28
1	327.33	0.21

System: ethyl methanoate + hexane; phases: Gas, Liquid
Fixed: Pressure, kPa = 101.32
Property: Mole fraction of ethyl methanoate (Gas); method: Density calibration data
Mole fraction of ethyl methanoate	Mole fraction of ethyl methanoate	uncertainty
0	0	0.0001
0.0028	0.0134	0.0122
0.0431	0.1796	0.0153
0.0569	0.2058	0.0113
0.0747	0.262	0.0123
0.082	0.2763	0.0089
0.0849	0.2867	0.0088
0.1033	0.3178	0.0086
0.126	0.3608	0.0085
0.1497	0.3964	0.0079
0.1799	0.4361	0.0081
0.1959	0.4535	0.0081
0.2022	0.4603	0.0082
0.2481	0.4991	0.0086
0.3113	0.5365	0.0086
0.3324	0.5455	0.0085
0.3595	0.5566	0.0086
0.4048	0.5823	0.0087
0.4694	0.6114	0.0086
0.5308	0.6366	0.0086
0.5895	0.658	0.0085
0.6478	0.6798	0.0084
0.7054	0.7038	0.0083
0.7656	0.7323	0.0082
0.8236	0.7667	0.008
0.8749	0.8078	0.0079
0.9134	0.8483	0.0079
0.9463	0.892	0.0081
0.9657	0.9271	0.0089
0.9835	0.9619	0.0092
0.9938	0.9847	0.01
1	1	0.0001

System: ethyl methanoate + hexane; phases: Liquid
Fixed: Pressure, kPa = 101.32
Property: Excess molar enthalpy (molar enthalpy of mixing), kJ/mol (Liquid); method: CALVET:UFactor:2
Temperature, K	Mole fraction of ethyl methanoate	Excess molar enthalpy (molar enthalpy of mixing), kJ/mol	uncertainty
291.15	0.092	0.4488	0.0095
291.15	0.209	0.9555	0.0168
291.15	0.3175	1.2742	0.0214
291.15	0.4075	1.4475	0.024
291.15	0.4677	1.5229	0.0252
291.15	0.5161	1.5399	0.0254
291.15	0.5681	1.5253	0.0252
291.15	0.6185	1.4376	0.0239
291.15	0.6714	1.3358	0.0224
291.15	0.7272	1.1986	0.0203
291.15	0.7841	1.0159	0.0177
291.15	0.843	0.7871	0.0143
291.15	0.9022	0.5311	0.0107
291.15	0.9514	0.3052	0.0078
318.15	0.1003	0.6223	0.012
318.15	0.1895	1.0194	0.0178
318.15	0.2842	1.352	0.0227
318.15	0.3713	1.5342	0.0254
318.15	0.4495	1.6279	0.0268
318.15	0.5137	1.647	0.0271
318.15	0.5599	1.6191	0.0266
318.15	0.5991	1.5658	0.0259
318.15	0.6795	1.4099	0.0235
318.15	0.7593	1.1752	0.02
318.15	0.8299	0.9023	0.0161
318.15	0.8814	0.6468	0.0126
318.15	0.9215	0.4398	0.0098
318.15	0.966	0.2132	0.007

System: ethyl methanoate + hexane; phases: Liquid
Fixed: Pressure, kPa = 101.32
Property: Mass density, kg/m3 (Liquid); method: VIBTUB:UFactor:12
Temperature, K	Mole fraction of ethyl methanoate	Mass density, kg/m3	uncertainty
291.15	0	661.2	2.05
291.15	0.0495	667.8	2.04
291.15	0.1025	675.4	2.03
291.15	0.1497	682.8	2.02
291.15	0.2049	692.1	2.01
291.15	0.2531	700.4	2.01
291.15	0.3068	710.6	2
291.15	0.3937	728.2	2
291.15	0.5016	753	2.01
291.15	0.6039	780	2.03
291.15	0.6996	808.2	2.06
291.15	0.7504	824.6	2.09
291.15	0.8029	842.4	2.15
291.15	0.8259	860.9	15
291.15	0.9016	880.3	2.22
291.15	0.9065	882.4	2.23
291.15	0.9522	901.9	2.31
291.15	0.958	905	2.31
291.15	1	924.7	2.31
298.15	0	654.89	2.08
298.15	0.0777	665.63	2.06
298.15	0.1291	673.25	2.05
298.15	0.1715	679.95	2.05
298.15	0.2501	693.44	2.04
298.15	0.327	707.73	2.03
298.15	0.4765	739.84	2.03
298.15	0.5354	754.13	2.04
298.15	0.5955	769.95	2.05
298.15	0.6441	783.83	2.06
298.15	0.6993	800.39	2.08
298.15	0.7956	832.38	2.14
298.15	0.884	865.42	2.21
298.15	0.9643	898.98	2.31
298.15	1	915.16	2.32
308.15	0	646.07	2.12
308.15	0.0485	651.9	2.11
308.15	0.1103	660.5	2.1
308.15	0.1539	667.2	2.09
308.15	0.2548	683.8	2.08
308.15	0.3998	711.6	2.07
308.15	0.4915	731.9	2.07
308.15	0.5935	757.8	2.08
308.15	0.6998	788	2.12
308.15	0.7971	819.9	2.17
308.15	0.9063	860.7	2.26
308.15	0.9488	878.7	2.32
308.15	1	902.07	2.34
318.15	0	636.43	2.16
318.15	0.0476	642.18	2.15
318.15	0.0875	647.84	2.14
318.15	0.1044	649.54	2.14
318.15	0.1471	655.88	2.14
318.15	0.2199	667.46	2.12
318.15	0.3041	681.93	2.11
318.15	0.4061	701.97	2.11
318.15	0.5293	729.7	2.11
318.15	0.5869	744.1	2.12
318.15	0.6984	775.52	2.15
318.15	0.7476	790.78	2.17
318.15	0.7932	805.56	2.2
318.15	0.8873	840.19	2.27
318.15	0.9692	874.21	2.36
318.15	1	888.42	2.36

System: hexane + propyl methanoate; phases: Liquid, Gas
Fixed: Pressure, kPa = 101.32
Property: Boiling temperature at pressure P, K (Liquid); method: EBULLIO:UFactor:2
Mole fraction of propyl methanoate	Boiling temperature at pressure P, K	uncertainty
0	341.76	0.17
0.0261	341.25	0.19
0.0523	340.72	0.19
0.081	340.25	0.18
0.1243	339.74	0.18
0.1753	339.35	0.18
0.2371	339.12	0.18
0.301	339.1	0.18
0.3598	339.2	0.18
0.4139	339.37	0.19
0.4643	339.64	0.19
0.5286	340.07	0.19
0.566	340.42	0.19
0.6041	340.85	0.2
0.6421	341.25	0.2
0.6923	341.82	0.21
0.7229	342.56	0.22
0.7894	344	0.22
0.827	345.05	0.23
0.8549	346.01	0.25
0.8844	347.25	0.27
0.9116	348.45	0.27
0.9347	349.55	0.3
0.9533	350.67	0.33
0.9813	352.6	0.35
1	353.92	0.21

System: hexane + propyl methanoate; phases: Gas, Liquid
Fixed: Pressure, kPa = 101.32
Property: Mole fraction of propyl methanoate (Gas); method: Density calibration data
Mole fraction of propyl methanoate	Mole fraction of propyl methanoate	uncertainty
0	0	0.0001
0.0261	0.0413	0.0073
0.0523	0.0796	0.0067
0.081	0.1159	0.0061
0.1243	0.1623	0.0056
0.1753	0.2085	0.0052
0.2371	0.2532	0.005
0.301	0.2924	0.005
0.3598	0.3243	0.0052
0.4139	0.3524	0.0054
0.4643	0.3777	0.0057
0.5286	0.4084	0.0062
0.566	0.43	0.0067
0.6041	0.449	0.0071
0.6421	0.4725	0.0077
0.6923	0.5007	0.0086
0.7229	0.528	0.009
0.7894	0.5875	0.0093
0.827	0.6324	0.0098
0.8549	0.6698	0.0102
0.8844	0.7163	0.0104
0.9116	0.7641	0.0107
0.9347	0.8115	0.0111
0.9533	0.8545	0.0125
0.9813	0.937	0.0133
1	1	0.0001

System: hexane + propyl methanoate; phases: Liquid
Fixed: Pressure, kPa = 101.32
Property: Excess molar enthalpy (molar enthalpy of mixing), kJ/mol (Liquid); method: CALVET:UFactor:2
Temperature, K	Mole fraction of propyl methanoate	Excess molar enthalpy (molar enthalpy of mixing), kJ/mol	uncertainty
291.15	0.0969	0.4925	0.0097
291.15	0.186	0.7826	0.014
291.15	0.2656	0.9832	0.0169
291.15	0.3316	1.1053	0.0187
291.15	0.3921	1.1781	0.0198
291.15	0.4458	1.2102	0.0203
291.15	0.4941	1.215	0.0204
291.15	0.5356	1.2005	0.0202
291.15	0.5758	1.1483	0.0194
291.15	0.6321	1.0807	0.0184
291.15	0.6905	0.964	0.0166
291.15	0.7533	0.8147	0.0144
291.15	0.8171	0.6432	0.0119
291.15	0.885	0.4154	0.0087
291.15	0.9453	0.1916	0.0059
318.15	0.0848	0.4728	0.0096
318.15	0.1889	0.8457	0.015
318.15	0.2934	1.1226	0.0191
318.15	0.3854	1.2757	0.0214
318.15	0.4624	1.3409	0.0223
318.15	0.521	1.3386	0.0223
318.15	0.5945	1.2919	0.0216
318.15	0.6631	1.1903	0.0201
318.15	0.7368	1.0251	0.0176
318.15	0.8154	0.7937	0.0142
318.15	0.8906	0.518	0.0104
318.15	0.9523	0.2486	0.007

System: hexane + propyl methanoate; phases: Liquid
Fixed: Pressure, kPa = 101.32
Property: Mass density, kg/m3 (Liquid); method: VIBTUB:UFactor:12
Temperature, K	Mole fraction of propyl methanoate	Mass density, kg/m3	uncertainty
291.15	0	661.2	2.05
291.15	0.0544	670.1	2.04
291.15	0.0893	676	2.03
291.15	0.1509	687.4	2.01
291.15	0.2001	696.5	2
291.15	0.248	705.8	1.99
291.15	0.2521	706.6	1.98
291.15	0.3979	737.6	1.97
291.15	0.5017	761.8	1.98
291.15	0.6122	789.6	2
291.15	0.6985	813.1	2.04
291.15	0.7473	827	2.07
291.15	0.8013	842.8	2.11
291.15	0.8499	857.8	2.16
291.15	0.9057	875.5	2.22
291.15	0.9568	892.9	2.29
291.15	1	907.8	2.33
298.15	0	654.89	2.08
298.15	0.0787	668.91	2.05
298.15	0.1478	681.52	2.03
298.15	0.2237	695.63	2.01
298.15	0.2941	709.36	2
298.15	0.3597	722.93	1.99
298.15	0.4297	738.37	1.99
298.15	0.4878	751.68	2
298.15	0.5453	765.36	2.01
298.15	0.6019	779.74	2.02
298.15	0.6599	794.74	2.04
298.15	0.7154	810	2.07
298.15	0.765	824.15	2.1
298.15	0.812	838.34	2.14
298.15	0.8656	854.66	2.19
298.15	0.921	872.18	2.26
298.15	0.9567	884.05	2.3
298.15	1	899.08	2.34
308.15	0	646.07	2.12
308.15	0.0693	657.5	2.1
308.15	0.1125	665.1	2.08
308.15	0.1993	680.76	2.06
308.15	0.3036	701.12	2.04
308.15	0.3975	720.81	2.03
308.15	0.5069	745.56	2.03
308.15	0.5902	765.82	2.05
308.15	0.7035	795.66	2.1
308.15	0.8034	824.55	2.16
308.15	0.9002	854.72	2.25
308.15	0.9482	870.44	2.31
308.15	1	888.36	2.36
318.15	0	636.43	2.16
318.15	0.0796	648.93	2.14
318.15	0.1547	661.76	2.12
318.15	0.2278	674.93	2.1
318.15	0.2909	687.08	2.09
318.15	0.3611	701.46	2.08
318.15	0.4273	715.75	2.07
318.15	0.487	729.26	2.07
318.15	0.5747	750.24	2.08
318.15	0.6031	757.34	2.09
318.15	0.6617	772.47	2.11
318.15	0.7118	785.91	2.13
318.15	0.7661	801.18	2.16
318.15	0.8123	814.59	2.2
318.15	0.8602	829.22	2.24
318.15	0.9109	845.53	2.29
318.15	0.9581	860.97	2.34
318.15	1	875.32	2.38

System: hexane + butyl methanoate; phases: Liquid, Gas
Fixed: Pressure, kPa = 101.32
Property: Boiling temperature at pressure P, K (Liquid); method: EBULLIO:UFactor:4
Mole fraction of butyl methanoate	Boiling temperature at pressure P, K	uncertainty
0	341.76	0.34
0.0198	342.03	0.35
0.0481	342.36	0.35
0.0948	342.84	0.35
0.137	343.43	0.35
0.2194	344.42	0.35
0.2995	345.84	0.35
0.3863	347.23	0.36
0.4556	348.83	0.36
0.5182	349.97	0.36
0.5828	351.93	0.37
0.623	353.35	0.38
0.6807	355.27	0.39
0.7269	357.4	0.4
0.7569	358.87	0.41
0.7888	360.6	0.43
0.8226	362.78	0.44
0.8631	365.52	0.46
0.898	368.22	0.5
0.9357	371.76	0.53
0.9605	374.24	0.55
0.977	376.08	0.59
0.9869	377.36	0.64
0.9951	378.49	0.89
1	380.13	0.36

System: hexane + butyl methanoate; phases: Gas, Liquid
Fixed: Pressure, kPa = 101.32
Property: Mole fraction of butyl methanoate (Gas); method: Density calibration data
Mole fraction of butyl methanoate	Mole fraction of butyl methanoate	uncertainty
0	0	0.0001
0.0198	0.0133	0.0047
0.0481	0.0288	0.0045
0.0948	0.0531	0.0045
0.137	0.0736	0.0044
0.2194	0.1071	0.0043
0.2995	0.1373	0.0043
0.3863	0.1661	0.0043
0.4556	0.1986	0.0044
0.5182	0.2216	0.0046
0.5828	0.2609	0.0049
0.623	0.2872	0.0051
0.6807	0.3218	0.0055
0.7269	0.3649	0.0064
0.7569	0.3941	0.0072
0.7888	0.434	0.0083
0.8226	0.4801	0.0098
0.8631	0.5498	0.0114
0.898	0.6258	0.0132
0.9357	0.7322	0.0145
0.9605	0.8169	0.016
0.977	0.8824	0.0179
0.9869	0.9299	0.0203
0.9951	0.9718	0.0217
1	1	0.0001

System: hexane + butyl methanoate; phases: Liquid
Fixed: Pressure, kPa = 101.32
Property: Excess molar enthalpy (molar enthalpy of mixing), kJ/mol (Liquid); method: CALVET:UFactor:2
Temperature, K	Mole fraction of butyl methanoate	Excess molar enthalpy (molar enthalpy of mixing), kJ/mol	uncertainty
291.15	0.0865	0.3217	0.0073
291.15	0.1588	0.5624	0.0107
291.15	0.2303	0.7642	0.0136
291.15	0.2973	0.9052	0.0157
291.15	0.3551	0.9897	0.0169
291.15	0.4081	1.0379	0.0176
291.15	0.454	1.0569	0.0179
291.15	0.5114	1.0512	0.0178
291.15	0.5606	1.0177	0.0173
291.15	0.6177	0.9532	0.0164
291.15	0.6775	0.8598	0.015
291.15	0.7406	0.738	0.0132
291.15	0.8067	0.5845	0.0109
291.15	0.873	0.4012	0.0083
291.15	0.94	0.2128	0.0056
318.15	0.0808	0.4403	0.009
318.15	0.1626	0.7048	0.0128
318.15	0.2415	0.9076	0.0158
318.15	0.311	1.0356	0.0177
318.15	0.3823	1.1198	0.0189
318.15	0.4464	1.1509	0.0194
318.15	0.4882	1.1477	0.0193
318.15	0.5104	1.1515	0.0194
318.15	0.5661	1.1149	0.0188
318.15	0.63	1.0462	0.0178
318.15	0.7075	0.9161	0.0159
318.15	0.7904	0.7306	0.0131
318.15	0.868	0.5057	0.0099
318.15	0.9412	0.27	0.0066

System: hexane + butyl methanoate; phases: Liquid
Fixed: Pressure, kPa = 101.32
Property: Mass density, kg/m3 (Liquid); method: VIBTUB:UFactor:12
Temperature, K	Mole fraction of butyl methanoate	Mass density, kg/m3	uncertainty
291.15	0	661.2	2.05
291.15	0.0445	669.6	2.04
291.15	0.09	678.6	2.02
291.15	0.1461	689.8	2
291.15	0.1928	699.5	1.98
291.15	0.249	711.4	1.97
291.15	0.3018	722.7	1.96
291.15	0.4025	745.2	1.95
291.15	0.5021	768.3	1.95
291.15	0.5957	790.7	1.98
291.15	0.6963	815.7	2.03
291.15	0.7541	830.4	2.07
291.15	0.802	842.7	2.11
291.15	0.8532	856.1	2.16
291.15	0.8987	868.2	2.22
291.15	0.9575	884.3	2.3
291.15	1	896	2.35
298.15	0	654.89	2.08
298.15	0.0729	669.39	2.05
298.15	0.1321	681.03	2.03
298.15	0.1967	694.2	2
298.15	0.2658	708.76	1.99
298.15	0.336	723.94	1.97
298.15	0.3698	731.4	1.97
298.15	0.4886	758.31	1.97
298.15	0.5876	781.81	2
298.15	0.6855	805.81	2.04
298.15	0.7677	826.55	2.1
298.15	0.8136	838.26	2.14
298.15	0.8574	849.77	2.18
298.15	0.8986	860.63	2.23
298.15	0.9227	867.09	2.26
298.15	0.9714	880.08	2.33
298.15	1	888.66	2.36
308.15	0	646.07	2.12
308.15	0.047	654.6	2.1
308.15	0.1095	666.7	2.08
308.15	0.1485	674.6	2.06
308.15	0.2005	685.2	2.04
308.15	0.2579	697.2	2.03
308.15	0.2981	705.7	2.02
308.15	0.4033	728.8	2.01
308.15	0.5098	753.1	2.01
308.15	0.6081	776.4	2.04
308.15	0.7112	801.8	2.08
308.15	0.7576	813.5	2.12
308.15	0.8073	826.3	2.16
308.15	0.8511	837.7	2.2
308.15	0.9081	852.9	2.26
308.15	0.9598	867.3	2.33
308.15	1	878.24	2.37
318.15	0	636.43	2.16
318.15	0.0493	645.6	2.14
318.15	0.0857	652.7	2.13
318.15	0.1192	659.1	2.11
318.15	0.1589	666.9	2.1
318.15	0.1975	674.7	2.09
318.15	0.2452	684.5	2.07
318.15	0.3006	696.2	2.06
318.15	0.4015	718	2.04
318.15	0.495	739.2	2.05
318.15	0.5929	762.2	2.06
318.15	0.705	789.5	2.11
318.15	0.746	799.7	2.14
318.15	0.8134	817.05	2.19
318.15	0.9067	841.5	2.28
318.15	0.9647	857.1	2.35
318.15	1	867.21	2.39
