Measured thermophysical data. Density, Speed of Sound, and Derived Thermodynamic Properties of Ionic Liquids over an Extended Pressure Range. 4. [C3mim][NTf2] and [C5mim][NTf2]
Source: J. Chem. Eng. Data, 2006, 10.1021/je060203o
Compound 1: 1-methyl-3-propylimidazolium bis[(trifluoromethyl)sulfonyl]imide, C9H13F6N3O4S2, InChI=1S/C7H13N2.C2F6NO4S2/c1-3-4-9-6-5-8(2)7-9;3-1(4,5)14(10,11)9-15(12,13)2(6,7)8/h5-7H,3-4H2,1-2H3;/q+1;-1
Compound 2: 1-methyl-3-pentylimidazolium bis(trifluoromethylsulfonyl)imide, C11H17F6N3O4S2, InChI=1S/C9H17N2.C2F6NO4S2/c1-3-4-5-6-11-8-7-10(2)9-11;3-1(4,5)14(10,11)9-15(12,13)2(6,7)8/h7-9H,3-6H2,1-2H3;/q+1;-1

System: 1-methyl-3-propylimidazolium bis[(trifluoromethyl)sulfonyl]imide; phases: Liquid
Property: Speed of sound, m/s (Liquid); method: Pulse-echo method
Temperature, K	Pressure, kPa	Speed of sound, m/s	uncertainty
298.15	500	1236.4	3.11
298.15	3500	1246.48	3.11
298.15	7000	1258.18	3.11
298.15	10000	1268.01	3.11
298.15	13500	1279.22	3.12
298.15	17000	1290.02	3.12
298.15	20000	1299.22	3.12
298.15	30000	1329.19	3.18
298.15	40000	1357.52	3.17
298.15	50000	1384.47	3.17
298.15	60000	1410.3	3.17
298.15	70000	1435.09	3.18
298.15	80000	1459.03	3.18
298.15	90000	1482.12	3.18
298.15	100000	1504.51	3.18
298.15	112500	1531.68	3.18
298.15	125000	1557.56	3.18
298.15	137510	1582.75	3.18
298.15	150000	1605.96	3.19
298.15	162500	1629.62	3.19
298.15	175000	1652.47	3.19
298.15	187500	1674.5	3.19
298.15	200000	1695.88	3.2
308.15	500	1214.02	3.11
308.15	3500	1224.39	3.11
308.15	7000	1236.21	3.11
308.15	10000	1246.21	3.11
308.15	13500	1257.57	3.11
308.15	17000	1268.63	3.11
308.15	20000	1278.04	3.12
308.15	30000	1308.64	3.17
308.15	40000	1337.09	3.17
308.15	50000	1364.73	3.17
308.15	60000	1391.01	3.17
308.15	70000	1416.15	3.17
308.15	80000	1440.33	3.17
308.15	90000	1463.69	3.18
308.15	100000	1486.41	3.18
308.15	112500	1513.63	3.18
308.15	125000	1539.91	3.18
308.15	137510	1565.16	3.18
308.15	150000	1589.56	3.18
308.15	162500	1613.29	3.19
308.15	175000	1636.28	3.19
308.15	187500	1658.62	3.19
308.15	200000	1680.42	3.19
318.15	500	1192.26	3.1
318.15	3500	1202.88	3.11
318.15	7000	1214.97	3.11
318.15	10000	1225.22	3.11
318.15	13500	1236.83	3.11
318.15	17000	1248.18	3.11
318.15	20000	1257.69	3.11
318.15	30000	1288.68	3.17
318.15	40000	1317.81	3.17
318.15	50000	1345.72	3.17
318.15	60000	1372.24	3.17
318.15	70000	1397.82	3.17
318.15	80000	1422.3	3.17
318.15	90000	1446.35	3.17
318.15	100000	1468.93	3.17
318.15	112500	1496.47	3.18
318.15	125000	1523.2	3.18
318.15	137510	1548.43	3.18
318.15	150000	1572.88	3.18
318.15	162500	1596.63	3.18
318.15	175000	1619.97	3.19
318.15	187500	1642.7	3.19
318.15	200000	1664.6	3.19
328.15	500	1170.93	3.1
328.15	3500	1181.79	3.1
328.15	7000	1194.19	3.11
328.15	10000	1204.67	3.11
328.15	13500	1216.44	3.11
328.15	17000	1228.01	3.11
328.15	20000	1237.74	3.11
328.15	30000	1269.23	3.17
328.15	40000	1299.09	3.17
328.15	50000	1327.29	3.17
328.15	60000	1354.21	3.17
328.15	70000	1380.11	3.17
328.15	80000	1405.14	3.17
328.15	90000	1429.1	3.17
328.15	100000	1452.23	3.17
328.15	112500	1480.06	3.17
328.15	125000	1506.92	3.18
328.15	137510	1532.75	3.18
328.15	150000	1557.03	3.18
328.15	162500	1581.2	3.18
328.15	175000	1604.64	3.18
328.15	187500	1627.34	3.19
328.15	200000	1649.56	3.19
338.15	1420	1153.52	3.1
338.15	3500	1161.22	3.1
338.15	7000	1173.83	3.1
338.15	10000	1184.36	3.1
338.15	13500	1196.58	3.11
338.15	17000	1208.31	3.11
338.15	20000	1218.25	3.11
338.15	30000	1250.4	3.17
338.15	40000	1280.66	3.17
338.15	50000	1309.19	3.17
338.15	60000	1336.67	3.17
338.15	70000	1362.89	3.17
338.15	80000	1388.1	3.17
338.15	90000	1412.3	3.17
338.15	100000	1435.77	3.17
338.15	112500	1463.88	3.17
338.15	125000	1491.1	3.17
338.15	137510	1517.04	3.18
338.15	150000	1541.44	3.18
338.15	162500	1565.97	3.18
338.15	175000	1589.49	3.18

System: 1-methyl-3-propylimidazolium bis[(trifluoromethyl)sulfonyl]imide; phases: Liquid
Property: Mass density, kg/m3 (Liquid); method: Vibrating tube method
Temperature, K	Pressure, kPa	Mass density, kg/m3	uncertainty
298.15	100	1475.7	2.55
298.15	1830	1476.98	2.59
298.15	10020	1483.13	2.81
298.15	14980	1486.69	2.95
298.15	19750	1490.06	3.08
298.15	25860	1494.22	3.25
298.15	31480	1497.95	3.41
298.15	37770	1502.01	3.59
298.15	44170	1506.01	3.77
298.15	50750	1509.97	3.96
298.15	59590	1515.1	4.23
299.15	100	1474.62	2.54
299.15	1830	1475.87	2.59
299.15	10020	1482.12	2.81
299.15	14980	1485.68	2.95
299.15	19750	1489.01	3.08
299.15	25860	1493.18	3.25
299.15	31480	1496.89	3.4
299.15	37770	1500.95	3.58
299.15	44170	1504.95	3.77
299.15	50750	1509.07	3.96
299.15	59590	1514.22	4.22
300.15	100	1473.66	2.54
300.15	1830	1474.94	2.59
300.15	10020	1481.1	2.81
300.15	14980	1484.68	2.94
300.15	19750	1488.07	3.07
300.15	25860	1492.27	3.24
300.15	31480	1496.03	3.4
300.15	37770	1500.11	3.58
300.15	44170	1504.13	3.76
300.15	50750	1508.14	3.95
300.15	59590	1513.35	4.21
301.15	100	1472.79	2.54
301.15	1830	1474.07	2.58
301.15	10020	1480.19	2.8
301.15	14980	1483.74	2.94
301.15	19750	1487.1	3.07
301.15	25860	1491.35	3.24
301.15	31480	1495.08	3.39
301.15	37770	1499.16	3.57
301.15	44170	1503.18	3.76
301.15	50750	1507.27	3.95
301.15	59590	1512.51	4.21
302.15	100	1471.92	2.53
302.15	1830	1473.15	2.58
302.15	10020	1479.27	2.8
302.15	14980	1482.84	2.93
302.15	19750	1486.21	3.06
302.15	25860	1490.42	3.23
302.15	31480	1494.19	3.39
302.15	37770	1498.29	3.57
302.15	44170	1502.37	3.75
302.15	50750	1506.46	3.94
302.15	59590	1511.74	4.2
303.15	100	1471.14	2.53
303.15	1830	1472.39	2.58
303.15	10020	1478.49	2.8
303.15	14980	1482	2.93
303.15	19750	1485.41	3.06
303.15	25860	1489.57	3.23
303.15	31480	1493.32	3.39
303.15	37770	1497.43	3.56
303.15	44170	1501.5	3.75
303.15	50750	1505.6	3.94
303.15	59590	1510.93	4.2
308.15	100	1466.83	2.52
308.15	1830	1468.1	2.56
308.15	10020	1474.12	2.78
308.15	14980	1477.65	2.91
308.15	19750	1480.89	3.04
308.15	25860	1485.18	3.21
308.15	31480	1489	3.36
308.15	37770	1493.05	3.54
308.15	44170	1497.15	3.72
308.15	50750	1501.36	3.91
308.15	59590	1506.81	4.17
313.15	100	1462.07	2.5
313.15	1830	1463.28	2.54
313.15	10020	1469.31	2.76
313.15	14980	1472.86	2.89
313.15	19750	1476.15	3.02
313.15	25860	1480.43	3.18
313.15	31480	1484.36	3.34
313.15	37770	1488.4	3.51
313.15	44170	1492.56	3.7
313.15	50750	1496.83	3.88
313.15	59590	1502.49	4.14
318.15	100	1457.05	2.48
318.15	1830	1458.31	2.53
318.15	10020	1464.41	2.74
318.15	14980	1467.91	2.87
318.15	19750	1471.3	3
318.15	25860	1475.51	3.16
318.15	31480	1479.58	3.31
318.15	37770	1483.63	3.49
318.15	44170	1487.95	3.67
318.15	50750	1492.22	3.86
318.15	59590	1498.46	4.12
323.15	100	1451.66	2.46
323.15	1830	1452.94	2.51
323.15	10020	1459.11	2.72
323.15	14980	1462.75	2.85
323.15	19750	1466.15	2.97
323.15	25860	1470.44	3.14
323.15	31480	1474.24	3.29
323.15	37770	1478.57	3.46
323.15	44170	1482.86	3.64
323.15	50750	1487.24	3.83
323.15	59590	1493.03	4.08
325.15	100	1449.44	2.46
325.15	1830	1450.74	2.5
325.15	10020	1456.98	2.71
325.15	14980	1460.64	2.84
325.15	19750	1464.08	2.96
325.15	25860	1468.44	3.13
325.15	31480	1472.46	3.28
325.15	37770	1476.81	3.45
325.15	44170	1481.18	3.63
325.15	50750	1485.62	3.82
325.15	59590	1491.56	4.07
327.15	100	1447.19	2.45
327.15	1830	1448.52	2.49
327.15	10020	1454.88	2.7
327.15	14980	1458.57	2.83
327.15	19750	1461.98	2.95
327.15	25860	1466.38	3.12
327.15	31480	1470.37	3.27
327.15	37770	1474.75	3.44
327.15	44170	1479.18	3.62
327.15	50750	1483.65	3.8
327.15	59590	1489.6	4.06
329.15	100	1444.85	2.44
329.15	1830	1446.17	2.48
329.15	10020	1452.55	2.69
329.15	14980	1456.27	2.82
329.15	19750	1459.81	2.94
329.15	25860	1464.24	3.11
329.15	31480	1468.26	3.26
329.15	37770	1472.67	3.43
329.15	44170	1477.09	3.61
329.15	50750	1481.63	3.79
329.15	59590	1487.58	4.04
331.15	100	1442.53	2.43
331.15	1830	1443.83	2.47
331.15	10020	1450.37	2.68
331.15	14980	1454.12	2.81
331.15	19750	1457.75	2.93
331.15	25860	1462.22	3.1
331.15	31480	1466.27	3.25
331.15	37770	1470.7	3.42
331.15	44170	1475.13	3.59
331.15	50750	1479.63	3.78
331.15	59590	1485.58	4.03
333.15	100	1440.12	2.42
333.15	1830	1441.48	2.47
333.15	10020	1448.04	2.67
333.15	14980	1451.88	2.8
333.15	19750	1455.51	2.92
333.15	25860	1460.01	3.09
333.15	31480	1464.11	3.24
333.15	37770	1468.58	3.41
333.15	44170	1473.05	3.58
333.15	50750	1477.56	3.77
333.15	59590	1483.54	4.02

System: 1-methyl-3-pentylimidazolium bis(trifluoromethylsulfonyl)imide; phases: Liquid
Property: Speed of sound, m/s (Liquid); method: Pulse-echo method
Temperature, K	Pressure, kPa	Speed of sound, m/s	uncertainty
288.15	500	1255.48	3.11
288.15	3500	1265.99	3.11
288.15	7000	1278.1	3.12
288.15	10000	1288.26	3.12
288.15	13500	1299.89	3.12
288.15	16990	1311.16	3.12
288.15	20000	1320.7	3.12
288.15	30000	1351.71	3.18
288.15	40000	1380.9	3.18
288.15	50000	1408.96	3.18
288.15	60000	1435.57	3.18
288.15	70000	1461.25	3.18
288.15	80000	1486.05	3.18
288.15	90000	1509.92	3.18
288.15	100000	1533	3.18
288.15	112500	1560.88	3.19
288.15	125000	1587.89	3.19
288.15	137510	1613.55	3.19
288.15	150000	1637.77	3.19
298.15	500	1232.13	3.11
298.15	3500	1242.66	3.11
298.15	7000	1255.05	3.11
298.15	10000	1265.48	3.11
298.15	13500	1277.35	3.12
298.15	16990	1288.92	3.12
298.15	20000	1298.58	3.12
298.15	30000	1330.55	3.18
298.15	40000	1360.43	3.18
298.15	50000	1388.86	3.18
298.15	60000	1415.93	3.18
298.15	70000	1441.9	3.18
298.15	80000	1466.98	3.18
298.15	90000	1491.13	3.18
298.15	100000	1514.5	3.18
298.15	112500	1542.58	3.18
298.15	125000	1569.71	3.19
298.15	137510	1595.72	3.19
298.15	150000	1620.35	3.19
308.15	500	1209.44	3.11
308.15	3500	1220.44	3.11
308.15	7000	1233.11	3.11
308.15	10000	1243.73	3.11
308.15	13500	1255.85	3.11
308.15	16990	1267.53	3.11
308.15	20000	1277.47	3.12
308.15	30000	1310.04	3.18
308.15	40000	1340.39	3.18
308.15	50000	1369.13	3.18
308.15	60000	1396.71	3.18
308.15	70000	1423.15	3.18
308.15	80000	1448.6	3.18
308.15	90000	1472.99	3.18
308.15	100000	1496.64	3.18
308.15	112500	1525.22	3.18
308.15	125000	1552.6	3.18
308.15	137510	1579.04	3.19
308.15	150000	1603.65	3.19
318.15	500	1187.33	3.1
318.15	3500	1198.61	3.11
318.15	7000	1211.5	3.11
318.15	10000	1222.41	3.11
318.15	13500	1234.77	3.11
318.15	16990	1246.87	3.11
318.15	20000	1256.99	3.11
318.15	30000	1290.01	3.18
318.15	40000	1320.98	3.18
318.15	50000	1350.24	3.18
318.15	60000	1378.19	3.18
318.15	70000	1404.93	3.18
318.15	80000	1430.7	3.18
318.15	90000	1455.47	3.18
318.15	100000	1479.47	3.18
318.15	112500	1508.03	3.18
318.15	125000	1535.89	3.18
318.15	137510	1562.58	3.18
318.15	150000	1587.43	3.19
328.15	500	1165.79	3.1
328.15	3500	1177.44	3.1
328.15	7000	1190.61	3.1
328.15	10000	1201.76	3.11
328.15	13500	1214.21	3.11
328.15	16990	1226.6	3.11
328.15	20000	1236.94	3.11
328.15	30000	1270.51	3.18
328.15	40000	1301.88	3.18
328.15	50000	1331.71	3.18
328.15	60000	1360.08	3.18
328.15	70000	1387.2	3.18
328.15	80000	1413.4	3.18
328.15	90000	1438.39	3.18
328.15	100000	1462.6	3.18
328.15	112500	1491.61	3.18
328.15	125000	1519.63	3.18
328.15	137510	1546.57	3.18
328.15	150000	1571.5	3.18
338.15	500	1144.76	3.1
338.15	3500	1156.45	3.1
338.15	7000	1170.04	3.1
338.15	10000	1181.37	3.1
338.15	13500	1194.26	3.11
338.15	16990	1206.68	3.11
338.15	20000	1217.24	3.11
338.15	30000	1251.27	3.18
338.15	40000	1283.34	3.18
338.15	50000	1313.61	3.18
338.15	60000	1342.37	3.17
338.15	70000	1369.79	3.17
338.15	80000	1396.26	3.17
338.15	90000	1421.64	3.18
338.15	100000	1446.3	3.17
338.15	112500	1475.29	3.18
338.15	125000	1503.68	3.18
338.15	137510	1530.89	3.18
338.15	150000	1556.18	3.18

System: 1-methyl-3-pentylimidazolium bis(trifluoromethylsulfonyl)imide; phases: Liquid
Property: Mass density, kg/m3 (Liquid); method: Vibrating tube method
Temperature, K	Pressure, kPa	Mass density, kg/m3	uncertainty
298.15	100	1404.45	2.3
298.15	1830	1405.67	2.34
298.15	10020	1411.85	2.53
298.15	14980	1415.45	2.65
298.15	19750	1418.8	2.76
298.15	25860	1422.94	2.91
298.15	31480	1426.64	3.04
298.15	37770	1430.64	3.2
298.15	44170	1434.54	3.36
298.15	50750	1438.46	3.53
298.15	59590	1443.56	3.76
299.15	100	1403.5	2.3
299.15	1830	1404.78	2.33
299.15	10020	1410.92	2.52
299.15	14980	1414.53	2.64
299.15	19750	1417.87	2.76
299.15	25860	1422.01	2.9
299.15	31480	1425.7	3.04
299.15	37770	1429.73	3.2
299.15	44170	1433.68	3.36
299.15	50750	1437.64	3.52
299.15	59590	1442.74	3.75
300.15	100	1402.62	2.29
300.15	1830	1403.85	2.33
300.15	10020	1410.01	2.52
300.15	14980	1413.57	2.64
300.15	19750	1416.91	2.75
300.15	25860	1421.12	2.9
300.15	31480	1424.81	3.04
300.15	37770	1428.87	3.19
300.15	44170	1432.84	3.35
300.15	50750	1436.83	3.52
300.15	59590	1441.99	3.75
301.15	100	1401.81	2.29
301.15	1830	1403.07	2.33
301.15	10020	1409.19	2.52
301.15	14980	1412.71	2.63
301.15	19750	1416.05	2.75
301.15	25860	1420.19	2.89
301.15	31480	1423.9	3.03
301.15	37770	1427.94	3.19
301.15	44170	1431.88	3.35
301.15	50750	1435.89	3.51
301.15	59590	1441.12	3.74
302.15	100	1400.89	2.29
302.15	1830	1402.16	2.33
302.15	10020	1408.28	2.51
302.15	14980	1411.85	2.63
302.15	19750	1415.2	2.74
302.15	25860	1419.36	2.89
302.15	31480	1423.08	3.03
302.15	37770	1427.17	3.18
302.15	44170	1431.17	3.34
302.15	50750	1435.18	3.51
302.15	59590	1440.42	3.74
303.15	100	1399.89	2.28
303.15	1830	1401.18	2.32
303.15	10020	1407.27	2.51
303.15	14980	1410.82	2.63
303.15	19750	1414.3	2.74
303.15	25860	1418.46	2.89
303.15	31480	1422.18	3.02
303.15	37770	1426.25	3.18
303.15	44170	1430.26	3.34
303.15	50750	1434.31	3.5
303.15	59590	1439.59	3.73
308.15	100	1395.34	2.27
308.15	1830	1396.59	2.31
308.15	10020	1402.73	2.49
308.15	14980	1406.29	2.61
308.15	19750	1409.65	2.72
308.15	25860	1413.83	2.86
308.15	31480	1417.59	3
308.15	37770	1421.72	3.15
308.15	44170	1425.82	3.31
308.15	50750	1429.95	3.48
308.15	59590	1435.35	3.7
313.15	100	1390.55	2.25
313.15	1830	1391.88	2.29
313.15	10020	1397.99	2.47
313.15	14980	1401.57	2.59
313.15	19750	1404.95	2.7
313.15	25860	1409.15	2.84
313.15	31480	1412.95	2.98
313.15	37770	1417.13	3.13
313.15	44170	1421.26	3.29
313.15	50750	1425.48	3.45
313.15	59590	1431.06	3.68
318.15	100	1385.75	2.23
318.15	1830	1387.09	2.27
318.15	10020	1393.29	2.46
318.15	14980	1396.9	2.57
318.15	19750	1400.31	2.68
318.15	25860	1404.59	2.82
318.15	31480	1408.43	2.95
318.15	37770	1412.65	3.1
318.15	44170	1416.86	3.26
318.15	50750	1421.15	3.42
318.15	59590	1426.81	3.65
323.15	100	1381.45	2.22
323.15	1830	1382.69	2.26
323.15	10020	1388.89	2.44
323.15	14980	1392.55	2.55
323.15	19750	1395.96	2.66
323.15	25860	1400.22	2.8
323.15	31480	1404.06	2.93
323.15	37770	1408.3	3.08
323.15	44170	1412.52	3.24
323.15	50750	1416.77	3.4
323.15	59590	1422.52	3.62
325.15	100	1379.56	2.21
325.15	1830	1380.89	2.25
325.15	10020	1387.23	2.43
325.15	14980	1390.89	2.54
325.15	19750	1394.39	2.65
325.15	25860	1398.72	2.79
325.15	31480	1402.63	2.92
325.15	37770	1406.92	3.07
325.15	44170	1411.19	3.23
325.15	50750	1415.51	3.39
325.15	59590	1421.18	3.61
327.15	100	1377.56	2.21
327.15	1830	1378.86	2.24
327.15	10020	1385.24	2.42
327.15	14980	1388.96	2.54
327.15	19750	1392.45	2.64
327.15	25860	1396.84	2.78
327.15	31480	1400.77	2.92
327.15	37770	1405.12	3.06
327.15	44170	1409.39	3.22
327.15	50750	1413.81	3.38
327.15	59590	1419.56	3.6
329.15	100	1375.46	2.2
329.15	1830	1376.78	2.24
329.15	10020	1383.2	2.42
329.15	14980	1386.93	2.53
329.15	19750	1390.47	2.63
329.15	25860	1394.89	2.77
329.15	31480	1398.85	2.91
329.15	37770	1403.2	3.05
329.15	44170	1407.56	3.21
329.15	50750	1411.94	3.37
329.15	59590	1417.73	3.59
331.15	100	1373.32	2.19
331.15	1830	1374.64	2.23
331.15	10020	1381.17	2.41
331.15	14980	1384.96	2.52
331.15	19750	1388.53	2.63
331.15	25860	1392.98	2.77
331.15	31480	1396.98	2.9
331.15	37770	1401.34	3.04
331.15	44170	1405.67	3.2
331.15	50750	1410.08	3.36
331.15	59590	1415.87	3.58
333.15	100	1371	2.19
333.15	1830	1372.46	2.22
333.15	10020	1379.05	2.4
333.15	14980	1382.89	2.51
333.15	19750	1386.48	2.62
333.15	25860	1390.95	2.76
333.15	31480	1395.01	2.89
333.15	37770	1399.42	3.03
333.15	44170	1403.81	3.19
333.15	50750	1408.2	3.35
333.15	59590	1414.01	3.57
