Measured thermophysical data. Quinacridone Solubility in Hot-Compressed Water
Source: J. Chem. Eng. Data, 2007, 10.1021/je060466i
Compound 1: 5,12-dihydroquino[2,3-b]acridine-7,14-dione, C20H12N2O2, InChI=1S/C20H12N2O2/c23-19-11-5-1-3-7-15(11)21-17-10-14-18(9-13(17)19)22-16-8-4-2-6-12(16)20(14)24/h1-10H,(H,21,23)(H,22,24)
Compound 2: water, H2O, InChI=1S/H2O/h1H2

System: 5,12-dihydroquino[2,3-b]acridine-7,14-dione + water; phases: Liquid, Crystal
Fixed: Pressure, kPa = 24000
Property: Molality, mol/kg (Liquid); method: gravimetric analysis
Temperature, K	Molality, mol/kg	uncertainty
453.4	1.07e-05	2.1e-06
462.9	1.59e-05	3.2e-06
473.9	2.14e-05	4.3e-06
498.6	4.93e-05	9.9e-06
508.2	9.32e-05	1.87e-05
522.5	0.0002404	4.81e-05
549	0.000535	0.0001071
563.5	0.0011171	0.0002237
573	0.001899	0.0003803
583.5	0.0030398	0.0006093
592.9	0.0058876	0.001179
