Measured thermophysical data. Critical Point and Vapor Pressure Measurements for Seven Compounds by a Low Residence Time Flow Method
Source: J. Chem. Eng. Data, 2006, 10.1021/je060088h
Compound 1: 2-phenylethanol, C8H10O, InChI=1S/C8H10O/c9-7-6-8-4-2-1-3-5-8/h1-5,9H,6-7H2, purity 99.9%
Compound 2: 1-(1,1-dimethylethoxy)-2-propanol, C7H16O2, InChI=1S/C7H16O2/c1-6(8)5-9-7(2,3)4/h6,8H,5H2,1-4H3, purity 99.7%
Compound 3: 2-propenol, C3H6O, InChI=1S/C3H6O/c1-2-3-4/h2,4H,1,3H2, purity 99.5%
Compound 4: 1-dodecanethiol, C12H26S, InChI=1S/C12H26S/c1-2-3-4-5-6-7-8-9-10-11-12-13/h13H,2-12H2,1H3, purity 99.2%
Compound 5: 1-phenyl-1-thiaethane, C7H8S, InChI=1S/C7H8S/c1-8-7-5-3-2-4-6-7/h2-6H,1H3, purity 99.8%
Compound 6: naphthalene, C10H8, InChI=1S/C10H8/c1-2-6-10-8-4-3-7-9(10)5-1/h1-8H, purity 99.9%
Compound 7: triacontane, C30H62, InChI=1S/C30H62/c1-3-5-7-9-11-13-15-17-19-21-23-25-27-29-30-28-26-24-22-20-18-16-14-12-10-8-6-4-2/h3-30H2,1-2H3, purity 99.6%

System: 2-phenylethanol; phases: Liquid, Gas
Property: Critical pressure, kPa (Liquid); method: flow method with low res time
Critical pressure, kPa	uncertainty
3990	160

System: 2-phenylethanol; phases: Liquid, Gas
Property: Critical temperature, K (Liquid); method: flow method with low res time
Critical temperature, K	uncertainty
723.5	4

System: 2-phenylethanol; phases: Liquid, Gas
Property: Vapor or sublimation pressure, kPa (Liquid); method: flow method with low res time
Temperature, K	Vapor or sublimation pressure, kPa	uncertainty
488.7	91.7	3.72
515.5	174.9	7
547.5	340.6	13.7
587.4	692.9	27.8
634.4	1382	55
689.8	2762	111
711.2	3451	138
719.2	3793	152
722.5	3966	159

System: 1-(1,1-dimethylethoxy)-2-propanol; phases: Liquid, Gas
Property: Critical pressure, kPa (Liquid); method: flow method with low res time
Critical pressure, kPa	uncertainty
2720	110

System: 1-(1,1-dimethylethoxy)-2-propanol; phases: Liquid, Gas
Property: Critical temperature, K (Liquid); method: flow method with low res time
Critical temperature, K	uncertainty
600.7	4

System: 1-(1,1-dimethylethoxy)-2-propanol; phases: Liquid, Gas
Property: Vapor or sublimation pressure, kPa (Liquid); method: flow method with low res time
Temperature, K	Vapor or sublimation pressure, kPa	uncertainty
450.5	200.9	8.1
472.9	337.8	13.6
510.2	689.5	27.7
553.3	1380	55
592.7	2414	97
597.5	2586	105
598.5	2668	108

System: 2-propenol; phases: Liquid, Gas
Property: Critical pressure, kPa (Liquid); method: flow method with low res time
Critical pressure, kPa	uncertainty
5640	330

System: 2-propenol; phases: Liquid, Gas
Property: Critical temperature, K (Liquid); method: flow method with low res time
Critical temperature, K	uncertainty
547.1	4

System: 2-propenol; phases: Liquid, Gas
Property: Vapor or sublimation pressure, kPa (Liquid); method: flow method with low res time
Temperature, K	Vapor or sublimation pressure, kPa	uncertainty
438.1	759.8	81.9
465.2	1383	149
498.5	2595	280
531.5	4482	483
545.4	5516	594
546.5	5599	603

System: 1-dodecanethiol; phases: Liquid, Gas
Property: Critical pressure, kPa (Liquid); method: flow method with low res time
Critical pressure, kPa	uncertainty
1810	70

System: 1-dodecanethiol; phases: Liquid, Gas
Property: Critical temperature, K (Liquid); method: flow method with low res time
Critical temperature, K	uncertainty
733.7	4

System: 1-dodecanethiol; phases: Liquid, Gas
Property: Vapor or sublimation pressure, kPa (Liquid); method: flow method with low res time
Temperature, K	Vapor or sublimation pressure, kPa	uncertainty
544.5	89.98	3.64
577.8	178.6	7.2
614.7	348.2	14
659.9	694.3	27.8
688.6	1039	42
712.4	1384	55
729.8	1726	69

System: 1-phenyl-1-thiaethane; phases: Liquid, Gas
Property: Critical pressure, kPa (Liquid); method: flow method with low res time
Critical pressure, kPa	uncertainty
4050	160

System: 1-phenyl-1-thiaethane; phases: Liquid, Gas
Property: Critical temperature, K (Liquid); method: flow method with low res time
Critical temperature, K	uncertainty
705.9	4

System: 1-phenyl-1-thiaethane; phases: Liquid, Gas
Property: Vapor or sublimation pressure, kPa (Liquid); method: flow method with low res time
Temperature, K	Vapor or sublimation pressure, kPa	uncertainty
463.7	90.87	3.69
492.1	177.3	7.1
526.3	354.1	14.2
566.1	696.4	28
613.6	1383	55
671.1	2765	111
691.7	3454	138
699.9	3799	152
704.3	3964	159

System: naphthalene; phases: Liquid, Gas
Property: Critical pressure, kPa (Liquid); method: flow method with low res time
Critical pressure, kPa	uncertainty
4130	170

System: naphthalene; phases: Liquid, Gas
Property: Critical temperature, K (Liquid); method: flow method with low res time
Critical temperature, K	uncertainty
750	4

System: naphthalene; phases: Liquid, Gas
Property: Vapor or sublimation pressure, kPa (Liquid); method: flow method with low res time
Temperature, K	Vapor or sublimation pressure, kPa	uncertainty
502.2	128.9	5.2
552.2	337.8	13.6
646.6	1338	54
731.8	3445	138
741.5	3793	152
745.9	3958	158

System: triacontane; phases: Liquid, Gas
Property: Vapor or sublimation pressure, kPa (Liquid); method: flow method with low res time
Temperature, K	Vapor or sublimation pressure, kPa	uncertainty
713.5	82.32	3.31
737.8	127.8	5.1
761.2	190.2	7.6
786	282.4	11.3
809.6	414.1	16.6
