Measured thermophysical data. Solubilities of Triphenylphosphine in Ethanol, 2-Propanol, Acetone, Benzene, and Toluene
Source: J. Chem. Eng. Data, 2007, 10.1021/je060350m
Compound 1: triphenylphosphine, C18H15P, InChI=1S/C18H15P/c1-4-10-16(11-5-1)19(17-12-6-2-7-13-17)18-14-8-3-9-15-18/h1-15H
Compound 2: ethanol, C2H6O, InChI=1S/C2H6O/c1-2-3/h3H,2H2,1H3
Compound 3: propan-2-ol, C3H8O, InChI=1S/C3H8O/c1-3(2)4/h3-4H,1-2H3
Compound 4: benzene, C6H6, InChI=1S/C6H6/c1-2-4-6-5-3-1/h1-6H
Compound 5: toluene, C7H8, InChI=1S/C7H8/c1-7-5-3-2-4-6-7/h2-6H,1H3
Compound 6: acetone, C3H6O, InChI=1S/C3H6O/c1-3(2)4/h1-2H3

System: ethanol + triphenylphosphine; phases: Liquid, Crystal
Fixed: Pressure, kPa = 101
Property: Mole fraction of triphenylphosphine (Liquid); method: gravimetric method
Temperature, K	Mole fraction of triphenylphosphine	uncertainty
303.5	0.0095	0.0004
308.3	0.012	0.001
313.3	0.016	0.001
318.6	0.022	0.001
323.2	0.028	0.001
327.9	0.038	0.002
333	0.05	0.002

System: propan-2-ol + triphenylphosphine; phases: Liquid, Crystal
Fixed: Pressure, kPa = 101
Property: Mole fraction of triphenylphosphine (Liquid); method: gravimetric method
Temperature, K	Mole fraction of triphenylphosphine	uncertainty
303.1	0.0077	0.0003
308.4	0.01	0.001
313.3	0.014	0.001
318.2	0.019	0.001
322.9	0.025	0.001
328.4	0.033	0.001
333.2	0.045	0.002

System: benzene + triphenylphosphine; phases: Liquid, Crystal
Fixed: Pressure, kPa = 101
Property: Mole fraction of triphenylphosphine (Liquid); method: gravimetric method
Temperature, K	Mole fraction of triphenylphosphine	uncertainty
303.3	0.069	0.003
308.6	0.095	0.004
312.9	0.12	0.01
318.1	0.16	0.01
323.2	0.22	0.01
328.1	0.28	0.01
333.2	0.37	0.02

System: toluene + triphenylphosphine; phases: Liquid, Crystal
Fixed: Pressure, kPa = 101
Property: Mole fraction of triphenylphosphine (Liquid); method: gravimetric method
Temperature, K	Mole fraction of triphenylphosphine	uncertainty
302.4	0.05	0.002
308.2	0.07	0.003
313.7	0.1	0.01
318.2	0.13	0.01
323.3	0.18	0.01
328.3	0.24	0.01
333.4	0.32	0.01

System: acetone + triphenylphosphine; phases: Liquid, Crystal
Fixed: Pressure, kPa = 101
Property: Mole fraction of triphenylphosphine (Liquid); method: gravimetric method
Temperature, K	Mole fraction of triphenylphosphine	uncertainty
303.2	0.089	0.004
308.1	0.12	0.01
313.4	0.14	0.01
318.2	0.19	0.01
323.5	0.25	0.01
327.8	0.33	0.02
333.1	0.42	0.02
