Measured thermophysical data. Enthalpies of Dilution for myo-Inositol in Aqueous Alkali Metal Salt and Alkaline Earth Metal Salt Solutions
Source: J. Chem. Eng. Data, 2007, 10.1021/je060492g
Compound 1: cis-1,2,3,5-trans-4,6-cyclohexanehexol, C6H12O6, InChI=1S/C6H12O6/c7-1-2(8)4(10)6(12)5(11)3(1)9/h1-12H/t1-,2-,3-,4+,5-,6-
Compound 2: lithium chloride, ClLi, InChI=1S/ClH.Li/h1H;/q;+1/p-1
Compound 3: sodium chloride, ClNa, InChI=1S/ClH.Na/h1H;/q;+1/p-1
Compound 4: potassium chloride, ClK, InChI=1S/ClH.K/h1H;/q;+1/p-1
Compound 5: magnesium chloride, Cl2Mg, InChI=1S/2ClH.Mg/h2*1H;/q;;+2/p-2
Compound 6: calcium chloride, CaCl2, InChI=1S/Ca.2ClH/h;2*1H/q+2;;/p-2
Compound 7: strontium chloride, Cl2Sr, InChI=1S/2ClH.Sr/h2*1H;/q;;+2/p-2
Compound 8: barium chloride, BaCl2, InChI=1S/Ba.2ClH/h;2*1H/q+2;;/p-2
Compound 9: water, H2O, InChI=1S/H2O/h1H2

System: cis-1,2,3,5-trans-4,6-cyclohexanehexol + water; phases: Liquid
Fixed: Temperature, K = 298.15
Fixed: Pressure, kPa = 101.3
Property: Molar enthalpy of dilution, kJ/mol (Liquid); method: Flow calorimetry
Initial molality of solute, mol/kg	Final molality of solute, mol/kg	Molar enthalpy of dilution, kJ/mol	uncertainty
0.1199	0.0612	0.04573	0.00139
0.1482	0.0757	0.05436	0.00185
0.175	0.0892	0.06303	0.00172
0.2039	0.1039	0.07123	0.00188
0.2314	0.1177	0.07958	0.00204
0.2622	0.1329	0.08862	0.00223
0.2883	0.1465	0.09617	0.00238
0.3158	0.16	0.10403	0.00254
0.3452	0.1744	0.11218	0.0027
0.3773	0.1902	0.12116	0.00289
0.4046	0.2041	0.12817	0.00305
0.4357	0.2194	0.13574	0.0032
0.4671	0.2343	0.14369	0.00338
0.4996	0.2512	0.15053	0.0035

System: cis-1,2,3,5-trans-4,6-cyclohexanehexol + lithium chloride + water; phases: Liquid
Fixed: Temperature, K = 298.15
Fixed: Solvent: Molality, mol/kg of lithium chloride = 0.2
Fixed: Pressure, kPa = 101.3
Property: Molar enthalpy of dilution, kJ/mol (Liquid); method: Flow calorimetry
Initial molality of solute, mol/kg	Final molality of solute, mol/kg	Molar enthalpy of dilution, kJ/mol	uncertainty
0.1208	0.0623	0.04364	0.00135
0.1466	0.0754	0.05183	0.0015
0.1745	0.0895	0.06009	0.00187
0.2029	0.104	0.0688	0.00183
0.2292	0.1172	0.07666	0.00198
0.258	0.1319	0.08462	0.00302
0.2873	0.147	0.09205	0.00254
0.3172	0.162	0.10058	0.00251
0.3463	0.1763	0.10852	0.00263
0.3753	0.1906	0.11675	0.00317
0.4032	0.2046	0.12388	0.00294
0.4286	0.2174	0.12977	0.00307
0.4629	0.234	0.13879	0.00356
0.4968	0.2508	0.14646	0.00341

System: cis-1,2,3,5-trans-4,6-cyclohexanehexol + sodium chloride + water; phases: Liquid
Fixed: Temperature, K = 298.15
Fixed: Solvent: Molality, mol/kg of sodium chloride = 0.2
Fixed: Pressure, kPa = 101.3
Property: Molar enthalpy of dilution, kJ/mol (Liquid); method: Flow calorimetry
Initial molality of solute, mol/kg	Final molality of solute, mol/kg	Molar enthalpy of dilution, kJ/mol	uncertainty
0.1126	0.0565	0.03658	0.00122
0.1416	0.0709	0.04561	0.00138
0.1676	0.0839	0.05319	0.00153
0.1952	0.0977	0.06082	0.00167
0.2268	0.1131	0.06929	0.00184
0.2541	0.1267	0.07649	0.00427
0.281	0.14	0.08272	0.0021
0.311	0.1549	0.08993	0.00233
0.3405	0.1687	0.09809	0.00252
0.3658	0.1812	0.1041	0.00254
0.3997	0.197	0.11332	0.0028
0.4313	0.2133	0.11988	0.00286
0.499	0.2464	0.13391	0.00315

System: cis-1,2,3,5-trans-4,6-cyclohexanehexol + potassium chloride + water; phases: Liquid
Fixed: Temperature, K = 298.15
Fixed: Solvent: Molality, mol/kg of potassium chloride = 0.2
Fixed: Pressure, kPa = 101.3
Property: Molar enthalpy of dilution, kJ/mol (Liquid); method: Flow calorimetry
Initial molality of solute, mol/kg	Final molality of solute, mol/kg	Molar enthalpy of dilution, kJ/mol	uncertainty
0.1218	0.0602	0.03972	0.00128
0.1462	0.0724	0.04694	0.00141
0.1745	0.0863	0.05506	0.00185
0.2045	0.1014	0.06289	0.00171
0.2302	0.114	0.06961	0.00184
0.2603	0.1287	0.07754	0.002
0.2896	0.1429	0.08528	0.00216
0.3162	0.1557	0.0917	0.00228
0.3463	0.1705	0.09851	0.00256
0.3758	0.1844	0.10626	0.00287
0.4035	0.1979	0.11232	0.00271
0.4369	0.2139	0.1194	0.00285
0.4988	0.2434	0.13249	0.00312

System: cis-1,2,3,5-trans-4,6-cyclohexanehexol + water + magnesium chloride; phases: Liquid
Fixed: Temperature, K = 298.15
Fixed: Solvent: Molality, mol/kg of magnesium chloride = 0.1
Fixed: Pressure, kPa = 101.3
Property: Molar enthalpy of dilution, kJ/mol (Liquid); method: Flow calorimetry
Initial molality of solute, mol/kg	Final molality of solute, mol/kg	Molar enthalpy of dilution, kJ/mol	uncertainty
0.1074	0.0539	0.03825	0.00125
0.1351	0.0676	0.04787	0.00299
0.1635	0.0818	0.05685	0.0016
0.1909	0.0956	0.06488	0.00209
0.2189	0.1095	0.07255	0.0019
0.2486	0.1242	0.08075	0.00207
0.2774	0.1385	0.08892	0.00223
0.3063	0.1521	0.09704	0.00251
0.3371	0.1673	0.10454	0.00255
0.3632	0.1802	0.11101	0.00268
0.3935	0.1947	0.1189	0.00284
0.4239	0.2092	0.12606	0.00304
0.4555	0.225	0.13262	0.00312
0.5026	0.2481	0.14289	0.00334

System: cis-1,2,3,5-trans-4,6-cyclohexanehexol + water + calcium chloride; phases: Liquid
Fixed: Temperature, K = 298.15
Fixed: Solvent: Molality, mol/kg of calcium chloride = 0.1
Fixed: Pressure, kPa = 101.3
Property: Molar enthalpy of dilution, kJ/mol (Liquid); method: Flow calorimetry
Initial molality of solute, mol/kg	Final molality of solute, mol/kg	Molar enthalpy of dilution, kJ/mol	uncertainty
0.1102	0.0554	0.03747	0.00124
0.1354	0.068	0.04572	0.00139
0.1647	0.0824	0.05543	0.00157
0.1903	0.0949	0.06271	0.00171
0.2189	0.1092	0.07085	0.00268
0.2484	0.1237	0.07814	0.00201
0.2758	0.137	0.08558	0.00216
0.3047	0.1512	0.09253	0.00242
0.3343	0.1654	0.10019	0.00258
0.3633	0.1798	0.10689	0.0026
0.3914	0.1934	0.11316	0.00272
0.424	0.2094	0.12094	0.00288
0.4999	0.246	0.13614	0.0032

System: cis-1,2,3,5-trans-4,6-cyclohexanehexol + water + strontium chloride; phases: Liquid
Fixed: Temperature, K = 298.15
Fixed: Solvent: Molality, mol/kg of strontium chloride = 0.1
Fixed: Pressure, kPa = 101.3
Property: Molar enthalpy of dilution, kJ/mol (Liquid); method: Flow calorimetry
Initial molality of solute, mol/kg	Final molality of solute, mol/kg	Molar enthalpy of dilution, kJ/mol	uncertainty
0.1147	0.0581	0.03944	0.00127
0.1428	0.0721	0.0488	0.00144
0.1707	0.086	0.05765	0.00161
0.1955	0.0986	0.0641	0.00174
0.224	0.1128	0.07089	0.00187
0.2529	0.1272	0.07884	0.00209
0.2816	0.1416	0.08477	0.00214
0.313	0.1571	0.09281	0.00231
0.342	0.1714	0.0995	0.00244
0.3722	0.1863	0.10677	0.00259
0.405	0.2024	0.11353	0.00273
0.4338	0.2161	0.12024	0.00287
0.4999	0.2485	0.13449	0.00316

System: cis-1,2,3,5-trans-4,6-cyclohexanehexol + water + barium chloride; phases: Liquid
Fixed: Temperature, K = 298.15
Fixed: Solvent: Molality, mol/kg of barium chloride = 0.1
Fixed: Pressure, kPa = 101.3
Property: Molar enthalpy of dilution, kJ/mol (Liquid); method: Flow calorimetry
Initial molality of solute, mol/kg	Final molality of solute, mol/kg	Molar enthalpy of dilution, kJ/mol	uncertainty
0.1239	0.0616	0.03912	0.00127
0.1479	0.0735	0.04837	0.00144
0.1786	0.0886	0.05739	0.00161
0.2039	0.101	0.06405	0.00204
0.2298	0.1135	0.07038	0.00186
0.2606	0.1288	0.07748	0.002
0.2905	0.1434	0.08436	0.00245
0.3213	0.158	0.09259	0.0023
0.3485	0.171	0.09881	0.00265
0.3781	0.1856	0.10454	0.00258
0.4081	0.1998	0.1109	0.00273
0.4382	0.2145	0.11674	0.0028
0.5018	0.2453	0.12926	0.00305
