Measured thermophysical data. Isothermal Vapor-Liquid Equilibria and Excess Enthalpies of (Propyl Ethanoate + Heptane), (Propyl Ethanoate + Cyclohexane), and (Propyl Ethanoate + 1-Hexene)
Source: J. Chem. Eng. Data, 2007, 10.1021/je060184i
Compound 1: heptane, C7H16, InChI=1S/C7H16/c1-3-5-7-6-4-2/h3-7H2,1-2H3
Compound 2: propyl ethanoate, C5H10O2, InChI=1S/C5H10O2/c1-3-4-7-5(2)6/h3-4H2,1-2H3
Compound 3: cyclohexane, C6H12, InChI=1S/C6H12/c1-2-4-6-5-3-1/h1-6H2
Compound 4: hex-1-ene, C6H12, InChI=1S/C6H12/c1-3-5-6-4-2/h3H,1,4-6H2,2H3

System: heptane; phases: Liquid, Gas
Property: Vapor or sublimation pressure, kPa (Liquid); method: Closed cell (Static) method
Temperature, K	Vapor or sublimation pressure, kPa	uncertainty
273.15	1.5312	0.0204
283.15	2.7597	0.0248
293.15	4.7364	0.0337
298.15	6.1035	0.0403
303.15	7.787	0.0485
313.15	12.324	0.0704
323.15	18.854	0.1025
333.15	27.986	0.1474
343.15	40.4285	0.2087
353.15	56.9935	0.2904
363.15	78.5915	0.396

System: propyl ethanoate; phases: Liquid, Gas
Property: Vapor or sublimation pressure, kPa (Liquid); method: Closed cell (Static) method
Temperature, K	Vapor or sublimation pressure, kPa	uncertainty
263.15	0.4981	0.0103
273.15	1.0061	0.0178
283.15	1.9091	0.0219
293.15	3.43	0.0286
298.15	4.514	0.034
298.15	4.5141	0.034
303.15	5.8745	0.041
313.15	9.645	0.0605
313.15	9.6451	0.0605
323.15	15.2537	0.0901
323.15	15.2538	0.0901
333.15	23.3323	0.133
333.15	23.3324	0.133
343.15	34.6401	0.1931
353.15	50.0674	0.2751
353.15	50.0676	0.2751
363.15	70.6374	0.3837
363.15	70.6376	0.3837

System: cyclohexane; phases: Liquid, Gas
Property: Vapor or sublimation pressure, kPa (Liquid); method: Closed cell (Static) method
Temperature, K	Vapor or sublimation pressure, kPa	uncertainty
263.15	2.0818	0.0226
273.15	3.7302	0.0301
283.15	6.3567	0.0434
293.15	10.3663	0.0642
298.15	13.0432	0.0784
303.15	16.2626	0.0957
313.15	24.6518	0.14
323.15	36.2446	0.2015
333.15	51.8539	0.2845
343.15	72.3903	0.3936
353.15	98.8545	0.5342
363.15	132.3272	0.711

System: hex-1-ene; phases: Liquid, Gas
Property: Vapor or sublimation pressure, kPa (Liquid); method: Closed cell (Static) method
Temperature, K	Vapor or sublimation pressure, kPa	uncertainty
273.15	7.6868	0.0507
283.15	12.645	0.0764
293.15	19.977	0.115
298.15	24.7696	0.1407
303.15	30.456	0.1713
313.15	44.985	0.2482
323.15	64.596	0.3525
333.15	90.442	0.4899
343.15	123.788	0.667
353.15	165.994	0.891
363.15	218.501	1.1685

System: propyl ethanoate + heptane; phases: Liquid
Fixed: Pressure, kPa = 101
Fixed: Temperature, K = 298.15
Property: Excess molar enthalpy (molar enthalpy of mixing), kJ/mol (Liquid); method: Flow calorimetry
Mole fraction of propyl ethanoate	Excess molar enthalpy (molar enthalpy of mixing), kJ/mol	uncertainty
0.1087	0.5043	0.011
0.1348	0.599	0.0112
0.2399	0.8937	0.0123
0.3594	1.084	0.0131
0.457	1.142	0.0133
0.5004	1.144	0.0133
0.5217	1.136	0.0133
0.5427	1.128	0.0132
0.5634	1.115	0.0132
0.5838	1.098	0.0131
0.6544	1.021	0.0128
0.7495	0.8456	0.0121
0.8346	0.6283	0.0113
0.92	0.3378	0.0106
0.9526	0.2072	0.0104

System: propyl ethanoate + heptane; phases: Liquid, Gas
Property: Vapor or sublimation pressure, kPa (Liquid); method: Closed cell (Static) method
Temperature, K	Mole fraction of propyl ethanoate	Vapor or sublimation pressure, kPa	uncertainty
273.15	0	1.5312	0.0204
273.15	0.1278	1.6826	0.0209
273.15	0.2425	1.7325	0.0211
273.15	0.3762	1.7326	0.0211
273.15	0.4793	1.7104	0.0211
273.15	0.6179	1.6523	0.0209
273.15	0.7441	1.5534	0.0206
273.15	0.8996	1.321	0.0199
273.15	1	1.0061	0.0178
283.15	0	2.7597	0.0248
283.15	0.1278	3.0354	0.026
283.15	0.2425	3.1279	0.0265
283.15	0.3762	3.1335	0.0266
283.15	0.4793	3.0962	0.0265
283.15	0.6179	2.9988	0.0261
283.15	0.7441	2.8286	0.0255
283.15	0.8996	2.4314	0.0238
283.15	1	1.9091	0.0219
293.15	0	4.7364	0.0337
293.15	0.1278	5.2096	0.036
293.15	0.2425	5.3722	0.0369
293.15	0.3762	5.3914	0.0371
293.15	0.4793	5.3331	0.037
293.15	0.6179	5.1778	0.0364
293.15	0.7441	4.8996	0.0353
293.15	0.8996	4.2553	0.0325
293.15	1	3.43	0.0286
298.15	0	6.1035	0.0403
298.15	0.1278	6.7114	0.0433
298.15	0.2425	6.9232	0.0444
298.15	0.3762	6.9543	0.0448
298.15	0.4793	6.8832	0.0446
298.15	0.6179	6.6904	0.044
298.15	0.7441	6.3408	0.0426
298.15	0.8996	5.5345	0.039
298.15	1	4.514	0.034
303.15	0	7.787	0.0485
303.15	0.1278	8.5578	0.0524
303.15	0.2425	8.8306	0.0539
303.15	0.3762	8.8786	0.0544
303.15	0.4793	8.7934	0.0542
303.15	0.6179	8.5564	0.0535
303.15	0.7441	8.1219	0.0517
303.15	0.8996	7.1235	0.0473
303.15	1	5.8745	0.041
313.15	0	12.324	0.0704
313.15	0.1278	13.5244	0.0765
313.15	0.2425	13.9638	0.0789
313.15	0.3762	14.066	0.0799
313.15	0.4793	13.9495	0.0798
313.15	0.6179	13.6017	0.0787
313.15	0.7441	12.95	0.0762
313.15	0.8996	11.4647	0.0696
313.15	1	9.645	0.0605
323.15	0	18.854	0.1025
323.15	0.1278	20.6521	0.1117
323.15	0.2425	21.3346	0.1154
323.15	0.3762	21.5312	0.1172
323.15	0.4793	21.3823	0.1171
323.15	0.6179	20.8894	0.1158
323.15	0.7441	19.9467	0.1122
323.15	0.8996	17.817	0.1028
323.15	1	15.2537	0.0901
333.15	0	27.986	0.1474
333.15	0.1278	30.5853	0.1608
333.15	0.2425	31.6119	0.1665
333.15	0.3762	31.963	0.1693
333.15	0.4793	31.7869	0.1695
333.15	0.6179	31.1101	0.1679
333.15	0.7441	29.7903	0.163
333.15	0.8996	26.836	0.1502
333.15	1	23.3323	0.133
343.15	0	40.4285	0.2087
343.15	0.1278	44.0717	0.2275
343.15	0.2425	45.572	0.2358
343.15	0.3762	46.1634	0.2404
343.15	0.4793	45.9752	0.241
343.15	0.6179	45.0718	0.239
343.15	0.7441	43.2776	0.2326
343.15	0.8996	39.3018	0.2157
343.15	1	34.6401	0.1931
353.15	0	56.9935	0.2904
353.15	0.1278	61.9596	0.316
353.15	0.2425	64.0963	0.3278
353.15	0.3762	65.0462	0.3348
353.15	0.4793	64.8746	0.3362
353.15	0.6179	63.7	0.334
353.15	0.7441	61.325	0.3258
353.15	0.8996	56.1215	0.3041
353.15	1	50.0674	0.2751
363.15	0	78.5915	0.396
363.15	0.1278	85.1933	0.4298
363.15	0.2425	88.1663	0.4463
363.15	0.3762	89.6324	0.4568
363.15	0.4793	89.5249	0.4595
363.15	0.6179	88.0338	0.457
363.15	0.7441	84.9662	0.4468
363.15	0.8996	78.3294	0.4198
363.15	1	70.6374	0.3837

System: propyl ethanoate + cyclohexane; phases: Liquid
Fixed: Pressure, kPa = 101
Fixed: Temperature, K = 298.15
Property: Excess molar enthalpy (molar enthalpy of mixing), kJ/mol (Liquid); method: Flow calorimetry
Mole fraction of propyl ethanoate	Excess molar enthalpy (molar enthalpy of mixing), kJ/mol	uncertainty
0.1031	0.5318	0.011
0.1888	0.8139	0.012
0.2926	1.021	0.0128
0.3829	1.107	0.0132
0.4249	1.122	0.0132
0.4667	1.124	0.0132
0.4876	1.119	0.0132
0.5084	1.11	0.0132
0.5827	1.053	0.0129
0.6881	0.9	0.0123
0.7883	0.6824	0.0115
0.8945	0.3771	0.0106

System: propyl ethanoate + cyclohexane; phases: Liquid, Gas
Property: Vapor or sublimation pressure, kPa (Liquid); method: Closed cell (Static) method
Temperature, K	Mole fraction of propyl ethanoate	Vapor or sublimation pressure, kPa	uncertainty
263.15	0	2.0818	0.0226
263.15	0.1288	2.0551	0.0225
263.15	0.2626	1.9753	0.0222
263.15	0.3875	1.8905	0.0219
263.15	0.5425	1.7419	0.0214
263.15	0.6437	1.6032	0.0209
263.15	0.7938	1.303	0.0198
263.15	0.9004	0.9786	0.0187
263.15	1	0.4981	0.0103
273.15	0	3.7302	0.0301
273.15	0.1288	3.6899	0.0299
273.15	0.2626	3.5515	0.0292
273.15	0.3875	3.395	0.0285
273.15	0.5425	3.1239	0.0271
273.15	0.6437	2.875	0.026
273.15	0.7938	2.3553	0.0235
273.15	0.9004	1.804	0.0217
273.15	1	1.0061	0.0178
283.15	0	6.3567	0.0434
283.15	0.1288	6.3012	0.0431
283.15	0.2626	6.0747	0.042
283.15	0.3875	5.8045	0.0406
283.15	0.5425	5.3401	0.0382
283.15	0.6437	4.9187	0.0361
283.15	0.7938	4.0626	0.0318
283.15	0.9004	3.17	0.0277
283.15	1	1.9091	0.0219
293.15	0	10.3663	0.0642
293.15	0.1288	10.2981	0.0638
293.15	0.2626	9.9453	0.0619
293.15	0.3875	9.5046	0.0596
293.15	0.5425	8.7504	0.0557
293.15	0.6437	8.0727	0.0522
293.15	0.7938	6.7227	0.0453
293.15	0.9004	5.3382	0.0386
293.15	1	3.43	0.0286
298.15	0	13.0432	0.0784
298.15	0.1288	12.9713	0.078
298.15	0.2626	12.5385	0.0758
298.15	0.3875	11.9862	0.0728
298.15	0.5425	11.042	0.0679
298.15	0.6437	10.1971	0.0635
298.15	0.7938	8.5268	0.0548
298.15	0.9004	6.8279	0.0464
298.15	1	4.514	0.034
303.15	0	16.2626	0.0957
303.15	0.1288	16.1904	0.0953
303.15	0.2626	15.665	0.0926
303.15	0.3875	14.9806	0.0889
303.15	0.5425	13.8113	0.0827
303.15	0.6437	12.7688	0.0773
303.15	0.7938	10.7211	0.0666
303.15	0.9004	8.6552	0.0563
303.15	1	5.8745	0.041
313.15	0	24.6518	0.14
313.15	0.1288	24.5949	0.1397
313.15	0.2626	23.8428	0.1357
313.15	0.3875	22.8243	0.1303
313.15	0.5425	21.0837	0.1211
313.15	0.6437	19.5422	0.113
313.15	0.7938	16.5426	0.0973
313.15	0.9004	13.566	0.0822
313.15	1	9.6451	0.0605
323.15	0	36.2446	0.2015
323.15	0.1288	36.2374	0.2015
323.15	0.2626	35.1985	0.196
323.15	0.3875	33.7387	0.1883
323.15	0.5425	31.2392	0.1751
323.15	0.6437	29.0388	0.1636
323.15	0.7938	24.7798	0.1411
323.15	0.9004	20.6249	0.1199
323.15	1	15.2538	0.0901
333.15	0	51.8539	0.2845
333.15	0.1288	51.9512	0.2851
333.15	0.2626	50.5621	0.2777
333.15	0.3875	48.5387	0.267
333.15	0.5425	45.0628	0.2486
333.15	0.6437	42.0198	0.2327
333.15	0.7938	36.1408	0.2017
333.15	0.9004	30.5072	0.1728
333.15	1	23.3324	0.133
343.15	0	72.3903	0.3936
343.15	0.1288	72.6733	0.3952
343.15	0.2626	70.8708	0.3856
343.15	0.3875	68.1491	0.3713
343.15	0.5425	63.453	0.3464
343.15	0.6437	59.3637	0.325
343.15	0.7938	51.4538	0.2833
343.15	0.9004	44.0172	0.245
343.15	1	34.6401	0.1931
353.15	0	98.8545	0.5342
353.15	0.1288	99.4373	0.5373
353.15	0.2626	97.1622	0.5253
353.15	0.3875	93.5996	0.5065
353.15	0.5425	87.4188	0.4737
353.15	0.6437	82.0656	0.4458
353.15	0.7938	71.6687	0.3909
353.15	0.9004	62.0938	0.3415
353.15	1	50.0676	0.2751
363.15	0	132.3272	0.711
363.15	0.1288	133.3636	0.7163
363.15	0.2626	130.5664	0.7017
363.15	0.3875	126.0174	0.6777
363.15	0.5425	118.0743	0.6357
363.15	0.6437	111.2333	0.5998
363.15	0.7938	97.8571	0.5294
363.15	0.9004	85.8134	0.4669
363.15	1	70.6376	0.3837

System: propyl ethanoate + hex-1-ene; phases: Liquid
Fixed: Pressure, kPa = 101
Fixed: Temperature, K = 298.15
Property: Excess molar enthalpy (molar enthalpy of mixing), kJ/mol (Liquid); method: Flow calorimetry
Mole fraction of propyl ethanoate	Excess molar enthalpy (molar enthalpy of mixing), kJ/mol	uncertainty
0.0943	0.2592	0.0103
0.2122	0.4753	0.0108
0.3238	0.5897	0.0111
0.418	0.6306	0.0113
0.4609	0.6367	0.0113
0.4822	0.6349	0.0113
0.5032	0.6329	0.0113
0.5241	0.6278	0.0112
0.5449	0.6202	0.0112
0.6178	0.5811	0.0111
0.7186	0.4889	0.0108
0.8117	0.3656	0.0105
0.9076	0.1988	0.0102

System: propyl ethanoate + hex-1-ene; phases: Liquid, Gas
Property: Vapor or sublimation pressure, kPa (Liquid); method: Closed cell (Static) method
Temperature, K	Mole fraction of propyl ethanoate	Vapor or sublimation pressure, kPa	uncertainty
273.15	0	7.6868	0.0507
273.15	0.154	6.8002	0.046
273.15	0.2625	6.2226	0.043
273.15	0.409	5.5228	0.0394
273.15	0.529	4.8634	0.036
273.15	0.6682	4.0652	0.032
273.15	0.8082	2.9943	0.0268
273.15	0.9362	1.7626	0.0218
273.15	1	1.0061	0.0178
283.15	0	12.645	0.0764
283.15	0.154	11.1823	0.0687
283.15	0.2625	10.2703	0.0639
283.15	0.409	9.1266	0.0579
283.15	0.529	8.0645	0.0524
283.15	0.6682	6.7717	0.0457
283.15	0.8082	5.0526	0.0371
283.15	0.9362	3.0963	0.0277
283.15	1	1.9091	0.0219
293.15	0	19.977	0.115
293.15	0.154	17.68	0.1029
293.15	0.2625	16.2736	0.0955
293.15	0.409	14.5059	0.0861
293.15	0.529	12.8548	0.0774
293.15	0.6682	10.84	0.0669
293.15	0.8082	8.197	0.0534
293.15	0.9362	5.2336	0.0387
293.15	1	3.43	0.0286
298.15	0	24.7696	0.1407
298.15	0.154	21.9475	0.1259
298.15	0.2625	20.217	0.1166
298.15	0.409	18.0399	0.105
298.15	0.529	16.0126	0.0943
298.15	0.6682	13.535	0.0814
298.15	0.8082	10.302	0.0647
298.15	0.9362	6.6974	0.0466
298.15	1	4.5141	0.034
303.15	0	30.456	0.1713
303.15	0.154	27.0266	0.1533
303.15	0.2625	24.909	0.1419
303.15	0.409	22.2497	0.1277
303.15	0.529	19.7816	0.1147
303.15	0.6682	16.7614	0.0988
303.15	0.8082	12.8409	0.0785
303.15	0.9362	8.4932	0.0564
303.15	1	5.8745	0.041
313.15	0	44.985	0.2482
313.15	0.154	40.0748	0.2224
313.15	0.2625	36.9528	0.2057
313.15	0.409	33.075	0.1851
313.15	0.529	29.5025	0.1662
313.15	0.6682	25.122	0.1431
313.15	0.8082	19.4952	0.1138
313.15	0.9362	13.3175	0.0822
313.15	1	9.6451	0.0605
323.15	0	64.596	0.3525
323.15	0.154	57.8222	0.3169
323.15	0.2625	53.3092	0.2928
323.15	0.409	47.8092	0.2635
323.15	0.529	42.7845	0.2369
323.15	0.6682	36.6153	0.2044
323.15	0.8082	28.7757	0.1636
323.15	0.9362	20.2487	0.1196
323.15	1	15.2538	0.0901
333.15	0	90.442	0.4899
333.15	0.154	81.4055	0.4424
333.15	0.2625	75.0005	0.4083
333.15	0.409	67.3912	0.3678
333.15	0.529	60.5036	0.3313
333.15	0.6682	52.046	0.2868
333.15	0.8082	41.4084	0.2312
333.15	0.9362	29.9447	0.1719
333.15	1	23.3324	0.133
343.15	0	123.788	0.667
343.15	0.154	112.0949	0.6056
343.15	0.2625	103.161	0.5581
343.15	0.409	92.8661	0.5033
343.15	0.529	83.6406	0.4545
343.15	0.6682	72.3065	0.3948
343.15	0.8082	58.2322	0.3212
343.15	0.9362	43.1868	0.2431
343.15	1	34.6401	0.1931
353.15	0	165.994	0.891
353.15	0.154	151.2853	0.814
353.15	0.2625	139.0269	0.7488
353.15	0.409	125.3762	0.6762
353.15	0.529	113.2747	0.6122
353.15	0.6682	98.4164	0.5339
353.15	0.8082	80.1985	0.4386
353.15	0.9362	60.8843	0.338
353.15	1	50.0676	0.2751
363.15	0	218.501	1.1685
363.15	0.154	200.4853	1.074
363.15	0.2625	183.9246	0.9867
363.15	0.409	166.1514	0.8919
363.15	0.529	150.5741	0.8096
363.15	0.6682	131.472	0.7088
363.15	0.8082	108.3694	0.5879
363.15	0.9362	84.0764	0.4616
363.15	1	70.6376	0.3837
