Measured thermophysical data. Heat Capacities and Thermodynamic Functions of the Aqueous Li2B4O7 Solution in the Temperature Range from 80 K to 355 K
Source: J. Chem. Eng. Data, 2007, 10.1021/je060462d
Compound 1: water, H2O, InChI=1S/H2O/h1H2
Compound 2: lithium borate, B4Li2O7, InChI=1S/B4O7.2Li/c5-3-7-1-8-4(6,11-3)10-2-9-3;;/q-2;2*+1

System: water + lithium borate; phases: Liquid
Fixed: Pressure, kPa = 101
Fixed: Molality, mol/kg of lithium borate = 0.0187
Property: Molar heat capacity at constant pressure, J/K/mol (Liquid); method: Vacuum adiabatic calorimetry
Temperature, K	Molar heat capacity at constant pressure, J/K/mol	uncertainty
277.21	77.24	0.65
279.41	77.34	0.65
281.36	77.3	0.65
319.24	77.38	0.65
320.54	77.21	0.65
321.84	77.36	0.65
323.17	77.27	0.65
324.48	77.45	0.65
325.74	77.48	0.65
327.04	77.38	0.65
328.36	77.21	0.65
329.65	77.36	0.65
330.97	77.43	0.65
332.21	77.49	0.65
333.55	77.22	0.65
334.87	77.32	0.65
336.18	77.36	0.65
337.45	77.42	0.65
338.72	77.16	0.65
340.04	77.37	0.65
341.31	77.21	0.65
342.64	77.31	0.65
343.93	77.25	0.65
345.27	77.44	0.65
346.59	77.28	0.65
347.81	77.18	0.65
349.14	77.21	0.65
350.48	77.44	0.65
351.76	77.25	0.65
353.04	77.44	0.65
354.31	77.37	0.65

System: water + lithium borate; phases: Crystal
Fixed: Pressure, kPa = 101
Fixed: Molality, mol/kg of lithium borate = 0.0187
Property: Molar heat capacity at constant pressure, J/K/mol (Crystal); method: VADIAC:UFactor:2
Temperature, K	Molar heat capacity at constant pressure, J/K/mol	uncertainty
79.85	13.2	0.14
81.58	13.55	0.14
84.21	14	0.15
86.77	14.39	0.15
89.27	14.78	0.15
91.73	15.14	0.33
94.13	15.51	0.33
96.97	15.97	0.33
100.24	16.45	0.34
103.43	16.89	0.34
106.55	17.32	0.34
109.62	17.72	0.34
112.63	18.1	0.34
115.58	18.56	0.34
118.45	19.01	0.35
121.27	19.41	0.35
124.05	19.79	0.35
126.79	20.17	0.35
129.49	20.54	0.35
132.16	20.95	0.35
134.79	21.26	0.36
137.39	21.52	0.36
139.96	21.83	0.36
142.55	22.08	0.36
145.12	22.39	0.36
147.48	22.78	0.36
149.93	23.02	0.37
152.36	23.38	0.37
154.76	23.68	0.37
157.14	23.94	0.37
159.49	24.24	0.37
161.82	24.54	0.37
164.13	24.83	0.37
166.42	25.23	0.38
168.69	25.51	0.38
170.93	25.73	0.38
173.16	26	0.38
175.36	26.27	0.38
177.55	26.55	0.38
179.72	26.83	0.39
182.42	27.21	0.39
185.66	27.66	0.39
188.87	28.02	0.39
192.03	28.38	0.39
195.15	28.8	0.4
198.24	29.17	0.4
201.29	29.58	0.4
204.32	29.97	0.4
207.27	30.37	0.41
210.21	30.82	0.41
213.11	31.14	0.41
215.99	31.55	0.41
218.84	31.94	0.42
221.65	32.31	0.42
224.43	32.76	0.42
227.19	33.21	0.42
229.89	33.71	0.43
232.51	34.3	0.43
235.12	34.63	0.43
237.75	35.08	0.44
240.35	35.34	0.44
242.91	35.69	0.44
245.55	36.18	0.44
248.33	36.58	0.44
