Measured thermophysical data. Viscosities and Interfacial Properties of I-Methyl-3-butylimidazolium Hexafluorophosphate and 1-Isobutenyl-3-methylimidazolium Tetrafluoroborate Ionic Liquids
Source: J. Chem. Eng. Data, 2007, 10.1021/je0604277
Compound 1: 1-butyl-3-methylimidazolium hexafluorophosphate, C8H15F6N2P, InChI=1S/C8H15N2.F6P/c1-3-4-5-10-7-6-9(2)8-10;1-7(2,3,4,5)6/h6-8H,3-5H2,1-2H3;/q+1;-1
Compound 2: 1-isobutenyl-3-methylimidazolium tetrafluoroborate, C8H13BF4N2, InChI=1S/C8H13N2.BF4/c1-8(2)6-10-5-4-9(3)7-10;2-1(3,4)5/h4-7H,1-3H3;/q+1;-1
Compound 3: pentane, C5H12, InChI=1S/C5H12/c1-3-5-4-2/h3-5H2,1-2H3, purity 99%
Compound 4: hexane, C6H14, InChI=1S/C6H14/c1-3-5-6-4-2/h3-6H2,1-2H3, purity 99%
Compound 5: octane, C8H18, InChI=1S/C8H18/c1-3-5-7-8-6-4-2/h3-8H2,1-2H3, purity 99%
Compound 6: cyclohexane, C6H12, InChI=1S/C6H12/c1-2-4-6-5-3-1/h1-6H2, purity 99%
Compound 7: hex-1-ene, C6H12, InChI=1S/C6H12/c1-3-5-6-4-2/h3H,1,4-6H2,2H3, purity 99%
Compound 8: benzene, C6H6, InChI=1S/C6H6/c1-2-4-6-5-3-1/h1-6H, purity 99%
Compound 9: toluene, C7H8, InChI=1S/C7H8/c1-7-5-3-2-4-6-7/h2-6H,1H3, purity 99%
Compound 10: ethylbenzene, C8H10, InChI=1S/C8H10/c1-2-8-6-4-3-5-7-8/h3-7H,2H2,1H3, purity 99%
Compound 11: styrene, C8H8, InChI=1S/C8H8/c1-2-8-6-4-3-5-7-8/h2-7H,1H2, purity 99%
Compound 12: water, H2O, InChI=1S/H2O/h1H2, purity 99%
Compound 13: propanoic acid, C3H6O2, InChI=1S/C3H6O2/c1-2-3(4)5/h2H2,1H3,(H,4,5), purity 99%
Compound 14: ethanol, C2H6O, InChI=1S/C2H6O/c1-2-3/h3H,2H2,1H3, purity 99%
Compound 15: butan-1-ol, C4H10O, InChI=1S/C4H10O/c1-2-3-4-5/h5H,2-4H2,1H3, purity 99%
Compound 16: pentan-1-ol, C5H12O, InChI=1S/C5H12O/c1-2-3-4-5-6/h6H,2-5H2,1H3, purity 99%
Compound 17: hexan-1-ol, C6H14O, InChI=1S/C6H14O/c1-2-3-4-5-6-7/h7H,2-6H2,1H3, purity 99%
Compound 18: heptan-1-ol, C7H16O, InChI=1S/C7H16O/c1-2-3-4-5-6-7-8/h8H,2-7H2,1H3, purity 99%
Compound 19: octan-1-ol, C8H18O, InChI=1S/C8H18O/c1-2-3-4-5-6-7-8-9/h9H,2-8H2,1H3, purity 99%
Compound 20: decan-1-ol, C10H22O, InChI=1S/C10H22O/c1-2-3-4-5-6-7-8-9-10-11/h11H,2-10H2,1H3, purity 99%
Compound 21: dodecan-1-ol, C12H26O, InChI=1S/C12H26O/c1-2-3-4-5-6-7-8-9-10-11-12-13/h13H,2-12H2,1H3, purity 99%
Compound 22: ethyl acetate, C4H8O2, InChI=1S/C4H8O2/c1-3-6-4(2)5/h3H2,1-2H3, purity 99%
Compound 23: butyl ethanoate, C6H12O2, InChI=1S/C6H12O2/c1-3-4-5-8-6(2)7/h3-5H2,1-2H3, purity 99%

System: 1-butyl-3-methylimidazolium hexafluorophosphate; phases: Liquid, Gas
Property: Surface tension liquid-gas, N/m (Liquid); method: Pendant drop shape
Temperature, K	Surface tension liquid-gas, N/m	uncertainty
298.15	0.0531	0.0025

System: 1-butyl-3-methylimidazolium hexafluorophosphate; phases: Liquid
Fixed: Pressure, kPa = 101.325
Property: Viscosity, Pa*s (Liquid); method: rotational viscometer
Temperature, K	Viscosity, Pa*s	uncertainty
288.15	0.4002	0.0155
293.15	0.294	0.0123
296.15	0.2458	0.01
298.15	0.2179	0.0086
301.15	0.1827	0.0074
303.15	0.1629	0.0065
305.15	0.1451	0.0056
308.15	0.1232	0.0048
311.15	0.104	0.0041
313.15	0.095	0.0036

System: 1-isobutenyl-3-methylimidazolium tetrafluoroborate; phases: Liquid, Gas
Property: Surface tension liquid-gas, N/m (Liquid); method: Pendant drop shape
Temperature, K	Surface tension liquid-gas, N/m	uncertainty
298.15	0.0518	0.0022

System: 1-isobutenyl-3-methylimidazolium tetrafluoroborate; phases: Liquid
Fixed: Pressure, kPa = 101.325
Property: Viscosity, Pa*s (Liquid); method: rotational viscometer
Temperature, K	Viscosity, Pa*s	uncertainty
288.15	0.2142	0.0082
293.15	0.1587	0.0065
296.15	0.1334	0.0054
298.15	0.1185	0.0046
301.15	0.1004	0.004
303.15	0.0889	0.0035
305.15	0.0798	0.0031
308.15	0.068	0.0026
311.15	0.0586	0.0022
313.15	0.0534	0.002

System: pentane + 1-butyl-3-methylimidazolium hexafluorophosphate; phases: Liquid mixture 1, Liquid mixture 2
Property: Interfacial tension, N/m (Liquid mixture 1); method: rotated drop method
Temperature, K	Pressure, kPa	Interfacial tension, N/m	uncertainty
298.15	101	0.01365	0.00027

System: hexane + 1-butyl-3-methylimidazolium hexafluorophosphate; phases: Liquid mixture 1, Liquid mixture 2
Property: Interfacial tension, N/m (Liquid mixture 1); method: rotated drop method
Temperature, K	Pressure, kPa	Interfacial tension, N/m	uncertainty
298.15	101	0.01339	0.00027

System: octane + 1-butyl-3-methylimidazolium hexafluorophosphate; phases: Liquid mixture 1, Liquid mixture 2
Property: Interfacial tension, N/m (Liquid mixture 1); method: rotated drop method
Temperature, K	Pressure, kPa	Interfacial tension, N/m	uncertainty
298.15	101	0.01429	0.00028

System: cyclohexane + 1-butyl-3-methylimidazolium hexafluorophosphate; phases: Liquid mixture 1, Liquid mixture 2
Property: Interfacial tension, N/m (Liquid mixture 1); method: rotated drop method
Temperature, K	Pressure, kPa	Interfacial tension, N/m	uncertainty
298.15	101	0.01315	0.00026

System: hex-1-ene + 1-butyl-3-methylimidazolium hexafluorophosphate; phases: Liquid mixture 1, Liquid mixture 2
Property: Interfacial tension, N/m (Liquid mixture 1); method: rotated drop method
Temperature, K	Pressure, kPa	Interfacial tension, N/m	uncertainty
298.15	101	0.01042	0.00021

System: benzene + 1-butyl-3-methylimidazolium hexafluorophosphate; phases: Liquid mixture 1, Liquid mixture 2
Property: Interfacial tension, N/m (Liquid mixture 1); method: rotated drop method
Temperature, K	Pressure, kPa	Interfacial tension, N/m	uncertainty
298.15	101	0.002209	4.4e-05

System: toluene + 1-butyl-3-methylimidazolium hexafluorophosphate; phases: Liquid mixture 1, Liquid mixture 2
Property: Interfacial tension, N/m (Liquid mixture 1); method: rotated drop method
Temperature, K	Pressure, kPa	Interfacial tension, N/m	uncertainty
298.15	101	0.003	6e-05

System: ethylbenzene + 1-butyl-3-methylimidazolium hexafluorophosphate; phases: Liquid mixture 1, Liquid mixture 2
Property: Interfacial tension, N/m (Liquid mixture 1); method: rotated drop method
Temperature, K	Pressure, kPa	Interfacial tension, N/m	uncertainty
298.15	101	0.003995	8e-05

System: styrene + 1-butyl-3-methylimidazolium hexafluorophosphate; phases: Liquid mixture 1, Liquid mixture 2
Property: Interfacial tension, N/m (Liquid mixture 1); method: rotated drop method
Temperature, K	Pressure, kPa	Interfacial tension, N/m	uncertainty
298.15	101	0.001793	3.6e-05

System: water + 1-butyl-3-methylimidazolium hexafluorophosphate; phases: Liquid mixture 1, Liquid mixture 2
Property: Interfacial tension, N/m (Liquid mixture 1); method: rotated drop method
Temperature, K	Pressure, kPa	Interfacial tension, N/m	uncertainty
298.15	101	0.01006	0.0002

System: propanoic acid + 1-butyl-3-methylimidazolium hexafluorophosphate; phases: Liquid mixture 1, Liquid mixture 2
Property: Interfacial tension, N/m (Liquid mixture 1); method: rotated drop method
Temperature, K	Pressure, kPa	Interfacial tension, N/m	uncertainty
298.15	101	0.003292	6.6e-05

System: ethanol + 1-butyl-3-methylimidazolium hexafluorophosphate; phases: Liquid mixture 1, Liquid mixture 2
Property: Interfacial tension, N/m (Liquid mixture 1); method: rotated drop method
Temperature, K	Pressure, kPa	Interfacial tension, N/m	uncertainty
298.15	101	0.001222	2.4e-05

System: butan-1-ol + 1-butyl-3-methylimidazolium hexafluorophosphate; phases: Liquid mixture 1, Liquid mixture 2
Property: Interfacial tension, N/m (Liquid mixture 1); method: rotated drop method
Temperature, K	Pressure, kPa	Interfacial tension, N/m	uncertainty
298.15	101	0.004706	9.4e-05

System: pentan-1-ol + 1-butyl-3-methylimidazolium hexafluorophosphate; phases: Liquid mixture 1, Liquid mixture 2
Property: Interfacial tension, N/m (Liquid mixture 1); method: rotated drop method
Temperature, K	Pressure, kPa	Interfacial tension, N/m	uncertainty
298.15	101	0.005325	0.000106

System: hexan-1-ol + 1-butyl-3-methylimidazolium hexafluorophosphate; phases: Liquid mixture 1, Liquid mixture 2
Property: Interfacial tension, N/m (Liquid mixture 1); method: rotated drop method
Temperature, K	Pressure, kPa	Interfacial tension, N/m	uncertainty
298.15	101	0.005556	0.000111

System: heptan-1-ol + 1-butyl-3-methylimidazolium hexafluorophosphate; phases: Liquid mixture 1, Liquid mixture 2
Property: Interfacial tension, N/m (Liquid mixture 1); method: rotated drop method
Temperature, K	Pressure, kPa	Interfacial tension, N/m	uncertainty
298.15	101	0.00641	0.000128

System: octan-1-ol + 1-butyl-3-methylimidazolium hexafluorophosphate; phases: Liquid mixture 1, Liquid mixture 2
Property: Interfacial tension, N/m (Liquid mixture 1); method: rotated drop method
Temperature, K	Pressure, kPa	Interfacial tension, N/m	uncertainty
298.15	101	0.007385	0.000147

System: decan-1-ol + 1-butyl-3-methylimidazolium hexafluorophosphate; phases: Liquid mixture 1, Liquid mixture 2
Property: Interfacial tension, N/m (Liquid mixture 1); method: rotated drop method
Temperature, K	Pressure, kPa	Interfacial tension, N/m	uncertainty
298.15	101	0.007516	0.00015

System: dodecan-1-ol + 1-butyl-3-methylimidazolium hexafluorophosphate; phases: Liquid mixture 1, Liquid mixture 2
Property: Interfacial tension, N/m (Liquid mixture 1); method: rotated drop method
Temperature, K	Pressure, kPa	Interfacial tension, N/m	uncertainty
298.15	101	0.008788	0.000175

System: ethyl acetate + 1-butyl-3-methylimidazolium hexafluorophosphate; phases: Liquid mixture 1, Liquid mixture 2
Property: Interfacial tension, N/m (Liquid mixture 1); method: rotated drop method
Temperature, K	Pressure, kPa	Interfacial tension, N/m	uncertainty
298.15	101	0.01169	0.00023

System: butyl ethanoate + 1-butyl-3-methylimidazolium hexafluorophosphate; phases: Liquid mixture 1, Liquid mixture 2
Property: Interfacial tension, N/m (Liquid mixture 1); method: rotated drop method
Temperature, K	Pressure, kPa	Interfacial tension, N/m	uncertainty
298.15	101	0.0004344	8.7e-06
