Measured thermophysical data. Liquid-Liquid Equilibria for the Ternary System Methyl Isobutyl Ketone + Water + Hydroquinone
Source: J. Chem. Eng. Data, 2006, 10.1021/je060245c
Compound 1: 1,4-benzenediol, C6H6O2, InChI=1S/C6H6O2/c7-5-1-2-6(8)4-3-5/h1-4,7-8H
Compound 2: 4-methylpentan-2-one, C6H12O, InChI=1S/C6H12O/c1-5(2)4-6(3)7/h5H,4H2,1-3H3
Compound 3: water, H2O, InChI=1S/H2O/h1H2

System: 4-methylpentan-2-one + water; phases: Liquid mixture 2, Liquid mixture 1
Fixed: Pressure, kPa = 101.3
Property: Mass fraction of 4-methylpentan-2-one (Liquid mixture 2); method: Chromatography
Temperature, K	Mass fraction of 4-methylpentan-2-one	uncertainty
298.15	0.0171	0.001
313.15	0.0148	0.0009
323.15	0.0136	0.0008

System: 4-methylpentan-2-one + water; phases: Liquid mixture 1, Liquid mixture 2
Fixed: Pressure, kPa = 101.3
Property: Mass fraction of water (Liquid mixture 1); method: Chromatography
Temperature, K	Mass fraction of water	uncertainty
298.15	0.0194	0.0012
313.15	0.0244	0.0015
323.15	0.0278	0.0017

System: 4-methylpentan-2-one + 1,4-benzenediol + water; phases: Liquid mixture 2, Liquid mixture 1
Fixed: Pressure, kPa = 101.3
Property: Mass fraction of 4-methylpentan-2-one (Liquid mixture 2); method: Chromatography
Property: Mass fraction of water (Liquid mixture 1); method: Chromatography
Property: Mass fraction of 4-methylpentan-2-one (Liquid mixture 1); method: Chromatography
Temperature, K	Mass fraction of water	Mass fraction of 4-methylpentan-2-one	uncertainty	Mass fraction of water	uncertainty	Mass fraction of 4-methylpentan-2-one	uncertainty
298.15	0.9828	0.0172	0.0087	0.0194	0.0042	0.9806	
298.15	0.9829	0.017	0.017	0.0199	0.0032	0.9782	
298.15	0.9826	0.0169	0.0064	0.0205	0.0031	0.9729	
298.15	0.9819	0.0168	0.0045	0.0216	0.0051	0.9622	
298.15	0.9814	0.0166	0.0034	0.0232	0.0069	0.9523	
298.15	0.9798	0.0164	0.0164	0.0259	0.0072	0.9321	
298.15	0.9796	0.0161	0.0161	0.0264	0.0071	0.9263	
298.15	0.9781	0.0158	0.0036	0.0287	0.009	0.9092	
298.15	0.9759	0.0155	0.0026	0.0326	0.0089	0.8876	
298.15	0.9723	0.0152	0.0025	0.0368	0.0081	0.8597	
313.15	0.9852	0.0148	0.0009	0.0244	0.0063	0.9756	
313.15	0.9849	0.0148	0.0027	0.0251	0.0063	0.9728	
313.15	0.9846	0.0147	0.0022	0.0262	0.0049	0.9675	
313.15	0.9835	0.0146	0.0014	0.0274	0.0052	0.9566	
313.15	0.9828	0.0145	0.0022	0.0283	0.0057	0.9493	
313.15	0.9805	0.0144	0.0016	0.0305	0.0079	0.9302	
313.15	0.9799	0.0142	0.0034	0.0317	0.0171	0.9259	
313.15	0.9779	0.014	0.002	0.0347	0.0076	0.9076	
313.15	0.9749	0.0138	0.0018	0.0371	0.0067	0.8857	
313.15	0.9718	0.0136	0.0012	0.0394	0.0091	0.8683	
323.15	0.9864	0.0136	0.0008	0.0278	0.0058	0.9722	
323.15	0.9861	0.0136	0.0022	0.0283	0.0062	0.9697	
323.15	0.9857	0.0135	0.0018	0.0292	0.006	0.9651	
323.15	0.9845	0.0134	0.0017	0.0307	0.0093	0.9554	
323.15	0.9836	0.0133	0.0012	0.0328	0.0076	0.9477	
323.15	0.981	0.0132	0.0013	0.0342	0.0072	0.932	
323.15	0.98	0.0131	0.0014	0.0358	0.0085	0.9246	
323.15	0.9777	0.013	0.0011	0.0376	0.0064	0.9097	
323.15	0.974	0.0129	0.0013	0.0395	0.008	0.8909	
323.15	0.9702	0.0127	0.0017	0.0432	0.0096	0.8701	
