Measured thermophysical data. Vapor-Liquid Equilibrium in r-Methylbenzenemethanol + Water
Source: J. Chem. Eng. Data, 2006, 10.1021/je060157s
Compound 1: 1-phenylethanol, C8H10O, InChI=1S/C8H10O/c1-7(9)8-5-3-2-4-6-8/h2-7,9H,1H3
Compound 2: water, H2O, InChI=1S/H2O/h1H2

System: 1-phenylethanol; phases: Liquid, Gas
Property: Vapor or sublimation pressure, kPa (Liquid); method: CCELL:UFactor:4
Temperature, K	Vapor or sublimation pressure, kPa	uncertainty
293.15	0.006	0.006
293.33	0.009952	0.003503
293.34	0.009956	0.003503
303.15	0.016	0.007
303.35	0.02451	0.00471
303.35	0.0219	0.00464
313.15	0.041	0.009
313.37	0.06281	0.00614
313.37	0.06414	0.0062
323.15	0.095	0.014
323.39	0.1472	0.0127
323.39	0.136	0.0125
323.39	0.1419	0.0126
333.15	0.203	0.021
333.39	0.2635	0.0164
333.39	0.2649	0.0164
343.15	0.404	0.033
343.42	0.515	0.0219
343.42	0.5189	0.0219
353.15	0.759	0.055
353.43	0.902	0.032
353.43	0.9053	0.0321
363.15	1.352	0.079
363.43	1.556	0.041
363.43	1.556	0.041

System: water; phases: Liquid, Gas
Property: Vapor or sublimation pressure, kPa (Liquid); method: CCELL:UFactor:4
Temperature, K	Vapor or sublimation pressure, kPa	uncertainty
293.15	2.333	0.091
303.15	4.24	0.115
313.15	7.376	0.154
323.15	12.338	0.217
333.15	19.924	0.312
343.15	31.169	0.453
353.15	47.382	0.657
363.15	70.18	0.943

System: 1-phenylethanol + water; phases: Liquid mixture 1, Liquid mixture 2, Gas
Property: Vapor or sublimation pressure, kPa (Liquid mixture 1); method: CCELL:UFactor:4
Temperature, K	Vapor or sublimation pressure, kPa	uncertainty
293.15	2.394	0.092
293.15	2.291	0.091
293.15	2.33	0.091
293.15	2.343	0.091
293.15	2.356	0.091
293.15	2.366	0.092
293.15	2.394	0.092
293.15	2.38	0.092
293.15	2.361	0.091
293.15	2.273	0.09
293.15	2.407	0.092
293.15	2.187	0.089
303.15	4.329	0.116
303.15	4.19	0.114
303.15	4.25	0.115
303.15	4.253	0.115
303.15	4.267	0.115
303.15	4.278	0.115
303.15	4.307	0.116
303.15	4.306	0.116
303.15	4.269	0.115
303.15	4.241	0.115
303.15	4.187	0.114
303.15	4.349	0.116
313.15	7.497	0.156
313.15	7.324	0.154
313.15	7.409	0.155
313.15	7.394	0.155
313.15	7.407	0.155
313.15	7.416	0.155
313.15	7.468	0.156
313.15	7.46	0.156
313.15	7.398	0.155
313.15	7.345	0.154
313.15	7.474	0.156
323.15	12.491	0.219
323.15	12.299	0.216
323.15	12.409	0.218
323.15	12.372	0.217
323.15	12.375	0.217
323.15	12.379	0.217
323.15	12.448	0.218
323.15	12.45	0.218
323.15	12.345	0.217
323.15	12.316	0.217
323.15	12.339	0.217
333.15	20.1	0.315
333.15	19.919	0.312
333.15	20.049	0.314
333.15	19.999	0.314
333.15	19.975	0.313
333.15	19.972	0.313
333.15	20.063	0.314
333.15	20.07	0.314
333.15	19.911	0.312
333.15	19.886	0.312
333.15	19.946	0.313
343.15	31.347	0.457
343.15	31.232	0.455
343.15	31.365	0.457
343.15	31.334	0.456
343.15	31.256	0.455
343.15	31.248	0.455
343.15	31.371	0.457
343.15	31.4	0.457
343.15	31.14	0.454
343.15	31.152	0.454
353.15	47.524	0.66
353.15	47.557	0.661
353.15	47.658	0.662
353.15	47.728	0.663
353.15	47.552	0.661
353.15	47.547	0.661
353.15	47.72	0.663
353.15	47.6	0.661
353.15	47.363	0.658
353.15	47.344	0.658
353.15	47.178	0.656
363.15	70.221	0.946
363.15	70.521	0.95
363.15	70.531	0.95
363.15	70.858	0.954
363.15	70.519	0.95
363.15	70.536	0.95
363.15	70.79	0.953
363.15	70.6	0.951
363.15	70.233	0.946
363.15	70.197	0.946

System: 1-phenylethanol + water; phases: Liquid, Gas
Property: Azeotropic pressure, kPa (Liquid); method: By P(X) extreme
Temperature, K	Azeotropic pressure, kPa	uncertainty
293.15	2.353	0.166
303.15	4.27	0.175
313.15	7.414	0.19
323.15	12.387	0.213
333.15	19.998	0.249
343.15	31.286	0.301

System: 1-phenylethanol + water; phases: Liquid mixture 1, Liquid mixture 2
Fixed: Pressure, kPa = 101
Property: Liquid-liquid equilibrium temperature, K (Liquid mixture 1); method: VISOBS
Mole fraction of 1-phenylethanol	Liquid-liquid equilibrium temperature, K	uncertainty
0.0097	365.87	0.16
0.4588	401.08	0.16
0.5457	379.11	0.19
0.5646	368.05	0.19
0.7624	293	0.16
0.7896	287.73	0.16

System: 1-phenylethanol + water; phases: Liquid, Gas
Property: Azeotropic composition: mole fraction of 1-phenylethanol (Liquid); method: By T or P extreme
Temperature, K	Azeotropic composition: mole fraction of 1-phenylethanol	uncertainty
293.15	0.0022	0.0021
303.15	0.0028	0.0021
313.15	0.0032	0.0021
323.15	0.004	0.002
333.15	0.005	0.002
343.15	0.006	0.002

System: 1-phenylethanol + water; phases: Liquid, Gas
Property: Vapor or sublimation pressure, kPa (Liquid); method: CCELL:UFactor:4
Temperature, K	Mole fraction of 1-phenylethanol	Vapor or sublimation pressure, kPa	uncertainty
293.15	0	2.333	0.091
293.15	0.8722	1.447	0.08
293.15	1	0.006	0.006
303.15	0	4.24	0.115
303.15	0.7629	3.833	0.11
303.15	0.872	2.528	0.094
303.15	1	0.016	0.007
313.15	0	7.376	0.154
313.15	0.7635	6.43	0.143
313.15	0.8723	4.217	0.116
313.15	1	0.041	0.009
323.15	0	12.338	0.217
323.15	0.6609	12.29	0.217
323.15	0.7645	10.376	0.193
323.15	0.8731	6.75	0.149
323.15	1	0.095	0.014
333.15	0	19.924	0.312
333.15	0.6623	19.437	0.308
333.15	0.7659	16.172	0.267
333.15	0.8743	10.423	0.197
333.15	1	0.203	0.021
343.15	0	31.169	0.453
343.15	0.6643	29.698	0.438
343.15	0.7678	24.438	0.372
343.15	0.876	15.584	0.266
343.15	1	0.404	0.033
353.15	0	47.382	0.657
353.15	0.6668	44.001	0.619
353.15	0.7702	35.914	0.518
353.15	0.8782	22.642	0.359
353.15	1	0.759	0.055
363.15	0	70.18	0.943
363.15	0.5855	69.496	0.938
363.15	0.6698	63.42	0.863
363.15	0.773	51.469	0.716
363.15	0.8809	32.061	0.484
363.15	1	1.352	0.079
