Measured thermophysical data. Hydroxyl Ammonium Ionic Liquids: Synthesis, Properties, and Solubility of SO2
Source: J. Chem. Eng. Data, 2007, 10.1021/je060479w
Compound 1: 2-hydroxyethylammonium formate, C3H9NO3, InChI=1S/C2H7NO.CH2O2/c3-1-2-4;2-1-3/h4H,1-3H2;1H,(H,2,3)
Compound 2: 2-hydroxyethylammonium acetate, C4H11NO3, InChI=1S/C2H7NO.C2H4O2/c3-1-2-4;1-2(3)4/h4H,1-3H2;1H3,(H,3,4)
Compound 3: 2-hydroxyethylammonium lactate, C5H13NO4, InChI=1S/C3H6O3.C2H7NO/c1-2(4)3(5)6;3-1-2-4/h2,4H,1H3,(H,5,6);4H,1-3H2
Compound 4: triethanolamine formate, C7H17NO5, InChI=1S/C6H15NO3.CH2O2/c8-4-1-7(2-5-9)3-6-10;2-1-3/h8-10H,1-6H2;1H,(H,2,3)
Compound 5: triethanolammonium acetate, C8H19NO5, InChI=1S/C6H15NO3.C2H4O2/c8-4-1-7(2-5-9)3-6-10;1-2(3)4/h8-10H,1-6H2;1H3,(H,3,4)
Compound 6: triethanolamine lactate, C9H21NO6, InChI=1S/C6H15NO3.C3H6O3/c8-4-1-7(2-5-9)3-6-10;1-2(4)3(5)6/h8-10H,1-6H2;2,4H,1H3,(H,5,6)
Compound 7: 2-(2-hydroxyethoxy)ammonium formate, C5H13NO4, InChI=1S/C4H11NO2.CH2O2/c5-1-3-7-4-2-6;2-1-3/h6H,1-5H2;1H,(H,2,3)
Compound 8: 2-(2-aminoethoxy)ethanol acetate, C6H15NO4, InChI=1S/C4H11NO2.C2H4O2/c5-1-3-7-4-2-6;1-2(3)4/h6H,1-5H2;1H3,(H,3,4)
Compound 9: 2-(2-hydroxyethoxy)ammonium lactate, C7H17NO5, InChI=1S/C4H11NO2.C3H6O3/c5-1-3-7-4-2-6;1-2(4)3(5)6/h6H,1-5H2;2,4H,1H3,(H,5,6)

System: 2-hydroxyethylammonium formate; phases: Crystal, Liquid, Air at 1 atmosphere
Property: Normal melting temperature, K (Crystal); method: DTA
Normal melting temperature, K	uncertainty
190.9	0.5

System: 2-hydroxyethylammonium formate; phases: Glass, Liquid, Air at 1 atmosphere
Property: Triple point temperature, K (Glass); method: DTA:corrimp
Triple point temperature, K	uncertainty
187.2	5

System: 2-hydroxyethylammonium formate; phases: Liquid
Property: Electrical conductivity, S/m (Liquid); method: Alternating current cell with electrodes
Temperature, K	Pressure, kPa	Electrical conductivity, S/m	uncertainty
298.2	101.325	0.3291	0.0001

System: 2-hydroxyethylammonium formate; phases: Liquid
Property: Mass density, kg/m3 (Liquid); method: Pycnometric method
Temperature, K	Pressure, kPa	Mass density, kg/m3	uncertainty
298.2	101.325	1204	26

System: 2-hydroxyethylammonium formate; phases: Liquid
Property: Viscosity, Pa*s (Liquid); method: rotary viscometer
Temperature, K	Pressure, kPa	Viscosity, Pa*s	uncertainty
298.2	101.325	0.118	0.083

System: 2-hydroxyethylammonium acetate; phases: Crystal, Liquid, Air at 1 atmosphere
Property: Normal melting temperature, K (Crystal); method: DTA
Normal melting temperature, K	uncertainty
202.2	0.5

System: 2-hydroxyethylammonium acetate; phases: Glass, Liquid, Air at 1 atmosphere
Property: Triple point temperature, K (Glass); method: DTA:corrimp
Triple point temperature, K	uncertainty
197.3	5

System: 2-hydroxyethylammonium acetate; phases: Liquid
Property: Electrical conductivity, S/m (Liquid); method: Alternating current cell with electrodes
Temperature, K	Pressure, kPa	Electrical conductivity, S/m	uncertainty
298.2	101.325	0.0692	0.0001

System: 2-hydroxyethylammonium acetate; phases: Liquid
Property: Mass density, kg/m3 (Liquid); method: Pycnometric method
Temperature, K	Pressure, kPa	Mass density, kg/m3	uncertainty
298.2	101.325	1120	26

System: 2-hydroxyethylammonium acetate; phases: Liquid
Property: Viscosity, Pa*s (Liquid); method: rotary viscometer
Temperature, K	Pressure, kPa	Viscosity, Pa*s	uncertainty
298.2	101.325	0.64	0.451

System: 2-hydroxyethylammonium lactate; phases: Crystal, Liquid, Air at 1 atmosphere
Property: Normal melting temperature, K (Crystal); method: DTA
Normal melting temperature, K	uncertainty
214.6	0.5

System: 2-hydroxyethylammonium lactate; phases: Glass, Liquid, Air at 1 atmosphere
Property: Triple point temperature, K (Glass); method: DTA:corrimp
Triple point temperature, K	uncertainty
209.4	5

System: 2-hydroxyethylammonium lactate; phases: Liquid
Property: Electrical conductivity, S/m (Liquid); method: Alternating current cell with electrodes
Temperature, K	Pressure, kPa	Electrical conductivity, S/m	uncertainty
298.2	101.325	0.03775	1e-05

System: 2-hydroxyethylammonium lactate; phases: Liquid
Property: Mass density, kg/m3 (Liquid); method: Pycnometric method
Temperature, K	Pressure, kPa	Mass density, kg/m3	uncertainty
298.2	101.325	1202	26

System: 2-hydroxyethylammonium lactate; phases: Liquid
Property: Viscosity, Pa*s (Liquid); method: rotary viscometer
Temperature, K	Pressure, kPa	Viscosity, Pa*s	uncertainty
298.2	101.325	1.2	0.849

System: triethanolamine formate; phases: Crystal, Liquid, Air at 1 atmosphere
Property: Normal melting temperature, K (Crystal); method: DTA
Normal melting temperature, K	uncertainty
340.7	0.5

System: triethanolammonium acetate; phases: Crystal, Liquid, Air at 1 atmosphere
Property: Normal melting temperature, K (Crystal); method: DTA
Normal melting temperature, K	uncertainty
200.9	0.5

System: triethanolammonium acetate; phases: Glass, Liquid, Air at 1 atmosphere
Property: Triple point temperature, K (Glass); method: DTA:corrimp
Triple point temperature, K	uncertainty
194.3	5

System: triethanolammonium acetate; phases: Liquid
Property: Electrical conductivity, S/m (Liquid); method: Alternating current cell with electrodes
Temperature, K	Pressure, kPa	Electrical conductivity, S/m	uncertainty
298.2	101.325	0.04958	1e-05

System: triethanolammonium acetate; phases: Liquid
Property: Mass density, kg/m3 (Liquid); method: Pycnometric method
Temperature, K	Pressure, kPa	Mass density, kg/m3	uncertainty
298.2	101.325	1120	26

System: triethanolammonium acetate; phases: Liquid
Property: Viscosity, Pa*s (Liquid); method: rotary viscometer
Temperature, K	Pressure, kPa	Viscosity, Pa*s	uncertainty
298.2	101.325	0.342	0.24

System: triethanolamine lactate; phases: Crystal, Liquid, Air at 1 atmosphere
Property: Normal melting temperature, K (Crystal); method: DTA
Normal melting temperature, K	uncertainty
218.3	0.5

System: triethanolamine lactate; phases: Glass, Liquid, Air at 1 atmosphere
Property: Triple point temperature, K (Glass); method: DTA:corrimp
Triple point temperature, K	uncertainty
213.7	5

System: triethanolamine lactate; phases: Liquid
Property: Electrical conductivity, S/m (Liquid); method: Alternating current cell with electrodes
Temperature, K	Pressure, kPa	Electrical conductivity, S/m	uncertainty
298.2	101.325	0.009	0.001

System: triethanolamine lactate; phases: Liquid
Property: Mass density, kg/m3 (Liquid); method: Pycnometric method
Temperature, K	Pressure, kPa	Mass density, kg/m3	uncertainty
298.2	101.325	1222	26

System: triethanolamine lactate; phases: Liquid
Property: Viscosity, Pa*s (Liquid); method: rotary viscometer
Temperature, K	Pressure, kPa	Viscosity, Pa*s	uncertainty
298.2	101.325	0.455	0.32

System: 2-(2-hydroxyethoxy)ammonium formate; phases: Crystal, Liquid, Air at 1 atmosphere
Property: Normal melting temperature, K (Crystal); method: DTA
Normal melting temperature, K	uncertainty
198.3	0.5

System: 2-(2-hydroxyethoxy)ammonium formate; phases: Glass, Liquid, Air at 1 atmosphere
Property: Triple point temperature, K (Glass); method: DTA:corrimp
Triple point temperature, K	uncertainty
194.4	5

System: 2-(2-hydroxyethoxy)ammonium formate; phases: Liquid
Property: Electrical conductivity, S/m (Liquid); method: Alternating current cell with electrodes
Temperature, K	Pressure, kPa	Electrical conductivity, S/m	uncertainty
298.2	101.325	0.01944	1e-05

System: 2-(2-hydroxyethoxy)ammonium formate; phases: Liquid
Property: Mass density, kg/m3 (Liquid); method: Pycnometric method
Temperature, K	Pressure, kPa	Mass density, kg/m3	uncertainty
298.2	101.325	1133	26

System: 2-(2-hydroxyethoxy)ammonium formate; phases: Liquid
Property: Viscosity, Pa*s (Liquid); method: rotary viscometer
Temperature, K	Pressure, kPa	Viscosity, Pa*s	uncertainty
298.2	101.325	0.371	0.261

System: 2-(2-aminoethoxy)ethanol acetate; phases: Crystal, Liquid, Air at 1 atmosphere
Property: Normal melting temperature, K (Crystal); method: DTA
Normal melting temperature, K	uncertainty
212.4	0.5

System: 2-(2-aminoethoxy)ethanol acetate; phases: Glass, Liquid, Air at 1 atmosphere
Property: Triple point temperature, K (Glass); method: DTA:corrimp
Triple point temperature, K	uncertainty
208.5	5

System: 2-(2-aminoethoxy)ethanol acetate; phases: Liquid
Property: Electrical conductivity, S/m (Liquid); method: Alternating current cell with electrodes
Temperature, K	Pressure, kPa	Electrical conductivity, S/m	uncertainty
298.2	101.325	0.02892	1e-05

System: 2-(2-aminoethoxy)ethanol acetate; phases: Liquid
Property: Mass density, kg/m3 (Liquid); method: Pycnometric method
Temperature, K	Pressure, kPa	Mass density, kg/m3	uncertainty
298.2	101.325	1119	26

System: 2-(2-aminoethoxy)ethanol acetate; phases: Liquid
Property: Viscosity, Pa*s (Liquid); method: rotary viscometer
Temperature, K	Pressure, kPa	Viscosity, Pa*s	uncertainty
298.2	101.325	2.893	2.077

System: 2-(2-hydroxyethoxy)ammonium lactate; phases: Crystal, Liquid, Air at 1 atmosphere
Property: Normal melting temperature, K (Crystal); method: DTA
Normal melting temperature, K	uncertainty
217.6	0.5

System: 2-(2-hydroxyethoxy)ammonium lactate; phases: Glass, Liquid, Air at 1 atmosphere
Property: Triple point temperature, K (Glass); method: DTA:corrimp
Triple point temperature, K	uncertainty
213.2	5

System: 2-(2-hydroxyethoxy)ammonium lactate; phases: Liquid
Property: Electrical conductivity, S/m (Liquid); method: Alternating current cell with electrodes
Temperature, K	Pressure, kPa	Electrical conductivity, S/m	uncertainty
298.2	101.325	0.17841	1e-05

System: 2-(2-hydroxyethoxy)ammonium lactate; phases: Liquid
Property: Mass density, kg/m3 (Liquid); method: Pycnometric method
Temperature, K	Pressure, kPa	Mass density, kg/m3	uncertainty
298.2	101.325	1149	26

System: 2-(2-hydroxyethoxy)ammonium lactate; phases: Liquid
Property: Viscosity, Pa*s (Liquid); method: rotary viscometer
Temperature, K	Pressure, kPa	Viscosity, Pa*s	uncertainty
298.2	101.325	3.04	2.185
