Measured thermophysical data. Excess Molar Enthalpies, Molar Heat Capacities, Densities, Viscosities, and Refractive Indices of Dimethyl Sulfoxide + 1-Propanol at (288.15, 298.15, and 308.15) K and at Normal Pressure
Source: J. Chem. Eng. Data, 2006, 10.1021/je0601513
Compound 1: dimethyl sulfoxide, C2H6OS, InChI=1S/C2H6OS/c1-4(2)3/h1-2H3
Compound 2: propan-1-ol, C3H8O, InChI=1S/C3H8O/c1-2-3-4/h4H,2-3H2,1H3

System: dimethyl sulfoxide; phases: Liquid
Fixed: Pressure, kPa = 101.325
Property: Molar heat capacity at constant pressure, J/K/mol (Liquid); method: Small sample (50 mg) DSC
Temperature, K	Molar heat capacity at constant pressure, J/K/mol	uncertainty
288.15	146.8	2.3
298.15	152.4	2.4
308.15	154.6	2.4

System: dimethyl sulfoxide; phases: Liquid
Fixed: Pressure, kPa = 101.325
Property: Viscosity, Pa*s (Liquid); method: Capillary tube (Ostwald; Ubbelohde) method
Temperature, K	Viscosity, Pa*s	uncertainty
288.15	0.002473	2.9e-05
298.15	0.001989	2.3e-05
308.15	0.001644	1.9e-05

System: dimethyl sulfoxide; phases: Liquid
Fixed: Pressure, kPa = 101.325
Property: Refractive index (Na D-line) (Liquid); method: Standard Abbe refractometry
Temperature, K	Refractive index (Na D-line)	uncertainty
288.15	1.4835	0.0007
298.15	1.4778	0.0006
308.15	1.473	0.0006

System: dimethyl sulfoxide; phases: Liquid
Fixed: Pressure, kPa = 101.325
Property: Mass density, kg/m3 (Liquid); method: VIBTUB:UFactor:4
Temperature, K	Mass density, kg/m3	uncertainty
288.15	1105.39	0.47
298.15	1095.36	0.45
308.15	1085.31	0.43

System: propan-1-ol; phases: Liquid
Fixed: Pressure, kPa = 101.325
Property: Molar heat capacity at constant pressure, J/K/mol (Liquid); method: Small sample (50 mg) DSC
Temperature, K	Molar heat capacity at constant pressure, J/K/mol	uncertainty
288.15	139	2
293.15	142.3	2.2
298.15	144.9	2.2
303.15	148.2	2.3
308.15	151	2.3
313.15	153.7	2.4
318.15	157.1	2.4
323.15	160.1	2.5
328.15	164.5	2.6
333.15	167.8	2.6

System: propan-1-ol; phases: Liquid
Fixed: Pressure, kPa = 101.325
Property: Viscosity, Pa*s (Liquid); method: Capillary tube (Ostwald; Ubbelohde) method
Temperature, K	Viscosity, Pa*s	uncertainty
288.15	0.002498	2.8e-05
298.15	0.001952	2.2e-05
308.15	0.001564	1.8e-05

System: propan-1-ol; phases: Liquid
Fixed: Pressure, kPa = 101.325
Property: Refractive index (Na D-line) (Liquid); method: Standard Abbe refractometry
Temperature, K	Refractive index (Na D-line)	uncertainty
288.15	1.3893	0.0007
298.15	1.3837	0.0006
308.15	1.3795	0.0005

System: propan-1-ol; phases: Liquid
Fixed: Pressure, kPa = 101.325
Property: Mass density, kg/m3 (Liquid); method: VIBTUB:UFactor:2
Temperature, K	Mass density, kg/m3	uncertainty
288.15	807.51	0.28
298.15	799.54	0.29
308.15	791.41	0.3

System: dimethyl sulfoxide + propan-1-ol; phases: Liquid
Fixed: Pressure, kPa = 101
Property: Molar heat capacity at constant pressure, J/K/mol (Liquid); method: Small sample (50 mg) DSC
Temperature, K	Mole fraction of dimethyl sulfoxide	Molar heat capacity at constant pressure, J/K/mol	uncertainty
288.15	0.0514	138.1	2.1
288.15	0.1127	137.3	2.1
288.15	0.2114	136.2	2.1
288.15	0.3163	135.5	2.1
288.15	0.418	135.3	2.1
288.15	0.5029	135.7	2.1
288.15	0.6216	136.7	2.1
288.15	0.7068	138.1	2.1
288.15	0.7975	140	2.2
288.15	0.8537	141.7	2.2
288.15	0.8994	143.1	2.2
288.15	0.9429	144.6	2.2
298.15	0.0514	143.6	2.2
298.15	0.1127	142.3	2.2
298.15	0.2114	140.3	2.2
298.15	0.3163	139.1	2.2
298.15	0.418	138.6	2.1
298.15	0.5029	138.6	2.1
298.15	0.6216	139.7	2.2
298.15	0.7068	141.1	2.2
298.15	0.7975	143.5	2.2
298.15	0.8537	145.4	2.3
298.15	0.8994	147.4	2.3
298.15	0.9429	149.4	2.3
308.15	0.0514	149.7	2.3
308.15	0.1127	147.9	2.3
308.15	0.2114	145.2	2.3
308.15	0.3163	143	2.2
308.15	0.418	141.4	2.2
308.15	0.5029	140.9	2.2
308.15	0.6216	141.2	2.2
308.15	0.7068	142.4	2.2
308.15	0.7975	144.7	2.2
308.15	0.8537	146.8	2.3
308.15	0.8994	148.7	2.3
308.15	0.9429	151	2.3

System: dimethyl sulfoxide + propan-1-ol; phases: Liquid
Fixed: Pressure, kPa = 101
Property: Excess molar enthalpy (molar enthalpy of mixing), kJ/mol (Liquid); method: FLOW:UFactor:2
Temperature, K	Mole fraction of dimethyl sulfoxide	Excess molar enthalpy (molar enthalpy of mixing), kJ/mol	uncertainty
288.15	0.042	0.215	0.01
288.15	0.0807	0.375	0.011
288.15	0.1163	0.493	0.011
288.15	0.1493	0.581	0.012
288.15	0.2084	0.701	0.014
288.15	0.2598	0.76	0.014
288.15	0.3449	0.818	0.015
288.15	0.4124	0.822	0.015
288.15	0.5129	0.792	0.015
288.15	0.6124	0.724	0.014
288.15	0.6781	0.661	0.013
288.15	0.7595	0.537	0.011
288.15	0.8456	0.389	0.009
288.15	0.8634	0.344	0.008
288.15	0.8939	0.283	0.008
288.15	0.9267	0.204	0.007
288.15	0.9619	0.111	0.006
298.15	0.0422	0.207	0.009
298.15	0.0809	0.366	0.011
298.15	0.1166	0.491	0.012
298.15	0.1497	0.589	0.012
298.15	0.2089	0.697	0.014
298.15	0.2604	0.762	0.015
298.15	0.3456	0.831	0.016
298.15	0.4131	0.839	0.016
298.15	0.5137	0.81	0.015
298.15	0.6131	0.732	0.014
298.15	0.6787	0.671	0.013
298.15	0.7602	0.561	0.011
298.15	0.8086	0.464	0.01
298.15	0.8638	0.357	0.009
298.15	0.8942	0.282	0.008
298.15	0.9269	0.206	0.007
298.15	0.9621	0.111	0.006
308.15	0.0421	0.212	0.009
308.15	0.0808	0.365	0.01
308.15	0.1234	0.509	0.012
308.15	0.1495	0.586	0.012
308.15	0.2087	0.698	0.014
308.15	0.2601	0.765	0.015
308.15	0.3454	0.829	0.016
308.15	0.4128	0.833	0.016
308.15	0.5134	0.807	0.015
308.15	0.612	0.733	0.014
308.15	0.6784	0.668	0.013
308.15	0.7599	0.541	0.011
308.15	0.8084	0.465	0.01
308.15	0.8636	0.343	0.008
308.15	0.8941	0.292	0.008
308.15	0.9268	0.205	0.007
308.15	0.962	0.113	0.006

System: dimethyl sulfoxide + propan-1-ol; phases: Liquid
Fixed: Pressure, kPa = 101
Property: Viscosity, Pa*s (Liquid); method: Capillary tube (Ostwald; Ubbelohde) method
Temperature, K	Mole fraction of dimethyl sulfoxide	Viscosity, Pa*s	uncertainty
288.15	0.0533	0.002251	2.5e-05
288.15	0.0938	0.0021	2.4e-05
288.15	0.1708	0.001937	2.2e-05
288.15	0.2592	0.001835	2.1e-05
288.15	0.346	0.00181	2.1e-05
288.15	0.4294	0.001819	2.1e-05
288.15	0.5115	0.001864	2.1e-05
288.15	0.5981	0.001927	2.2e-05
288.15	0.6853	0.001999	2.3e-05
288.15	0.7596	0.002086	2.4e-05
288.15	0.8438	0.002206	2.5e-05
288.15	0.9368	0.002348	2.7e-05
298.15	0.0554	0.001799	2e-05
298.15	0.1366	0.001635	1.9e-05
298.15	0.22	0.001522	1.7e-05
298.15	0.2987	0.001486	1.7e-05
298.15	0.4289	0.001487	1.7e-05
298.15	0.5022	0.001517	1.7e-05
298.15	0.5992	0.001575	1.8e-05
298.15	0.677	0.001633	1.9e-05
298.15	0.7656	0.00171	2e-05
298.15	0.8358	0.001786	2.1e-05
298.15	0.9181	0.001881	2.2e-05
298.15	0.9646	0.001942	2.2e-05
308.15	0.0537	0.001439	1.6e-05
308.15	0.1336	0.001319	1.5e-05
308.15	0.2147	0.001264	1.4e-05
308.15	0.2987	0.001237	1.4e-05
308.15	0.3876	0.001243	1.4e-05
308.15	0.4707	0.001265	1.5e-05
308.15	0.5552	0.001296	1.5e-05
308.15	0.6418	0.001343	1.5e-05
308.15	0.7191	0.001401	1.6e-05
308.15	0.7998	0.001474	1.7e-05
308.15	0.877	0.001545	1.8e-05
308.15	0.965	0.001621	1.9e-05

System: dimethyl sulfoxide + propan-1-ol; phases: Liquid
Fixed: Pressure, kPa = 101
Property: Refractive index (Na D-line) (Liquid); method: Standard Abbe refractometry
Temperature, K	Mole fraction of dimethyl sulfoxide	Refractive index (Na D-line)	uncertainty
288.15	0.0533	1.3942	0.0007
288.15	0.0938	1.3979	0.0007
288.15	0.1708	1.405	0.0006
288.15	0.2592	1.4132	0.0006
288.15	0.346	1.4212	0.0006
288.15	0.4294	1.429	0.0006
288.15	0.5115	1.4367	0.0006
288.15	0.5981	1.4449	0.0006
288.15	0.6853	1.4532	0.0006
288.15	0.7596	1.4603	0.0006
288.15	0.8438	1.4685	0.0006
288.15	0.9368	1.4774	0.0006
298.15	0.0554	1.3889	0.0006
298.15	0.1366	1.3966	0.0006
298.15	0.22	1.4045	0.0006
298.15	0.2987	1.4119	0.0006
298.15	0.4289	1.4239	0.0006
298.15	0.5022	1.4307	0.0006
298.15	0.5992	1.4398	0.0006
298.15	0.677	1.4472	0.0006
298.15	0.7656	1.4558	0.0006
298.15	0.8358	1.4627	0.0006
298.15	0.9181	1.4705	0.0006
298.15	0.9646	1.4747	0.0006
308.15	0.0537	1.3843	0.0006
308.15	0.1336	1.3916	0.0006
308.15	0.2147	1.3991	0.0006
308.15	0.2987	1.407	0.0006
308.15	0.3876	1.4152	0.0006
308.15	0.4707	1.4229	0.0006
308.15	0.5552	1.4308	0.0006
308.15	0.6418	1.4389	0.0006
308.15	0.7191	1.4462	0.0006
308.15	0.7998	1.454	0.0006
308.15	0.877	1.4614	0.0006
308.15	0.965	1.4698	0.0006

System: dimethyl sulfoxide + propan-1-ol; phases: Liquid
Fixed: Pressure, kPa = 101
Property: Mass density, kg/m3 (Liquid); method: VIBTUB:UFactor:2
Temperature, K	Mole fraction of dimethyl sulfoxide	Mass density, kg/m3	uncertainty
288.15	0.0533	822.73	0.29
288.15	0.0938	834.33	0.28
288.15	0.1708	856.51	0.26
288.15	0.2592	882.15	0.25
288.15	0.346	907.54	0.24
288.15	0.4294	932.12	0.23
288.15	0.5115	956.49	0.23
288.15	0.5981	982.38	0.23
288.15	0.6853	1008.66	0.24
288.15	0.7596	1031.23	0.27
288.15	0.8438	1057.01	0.3
288.15	0.9368	1085.71	0.33
298.15	0.0554	815.18	0.29
298.15	0.1366	838.3	0.28
298.15	0.22	862.21	0.26
298.15	0.2987	884.95	0.25
298.15	0.4289	922.94	0.23
298.15	0.5022	944.55	0.23
298.15	0.5992	973.37	0.23
298.15	0.677	996.69	0.24
298.15	0.7656	1023.43	0.26
298.15	0.8358	1044.81	0.29
298.15	0.9181	1070.04	0.32
298.15	0.9646	1084.38	0.34
308.15	0.0537	806.44	0.3
308.15	0.1336	828.96	0.28
308.15	0.2147	852.03	0.27
308.15	0.2987	876.11	0.25
308.15	0.3876	901.81	0.24
308.15	0.4707	926.08	0.24
308.15	0.5552	950.93	0.23
308.15	0.6418	976.65	0.24
308.15	0.7191	999.78	0.24
308.15	0.7998	1024.11	0.27
308.15	0.877	1047.58	0.3
308.15	0.965	1074.53	0.33
