Measured thermophysical data. Excess Molar Enthalpies of 1,2-Propanediol + Alkan-1-ols (C1-C6) and Their Correlations at 298.15 K and Ambient Pressure (81.5 kPa)
Source: J. Chem. Eng. Data, 2006, 10.1021/je060086x
Compound 1: 1,2-propanediol, C3H8O2, InChI=1S/C3H8O2/c1-3(5)2-4/h3-5H,2H2,1H3, purity 99.5%
Compound 2: methanol, CH4O, InChI=1S/CH4O/c1-2/h2H,1H3, purity 99.5%
Compound 3: ethanol, C2H6O, InChI=1S/C2H6O/c1-2-3/h3H,2H2,1H3, purity 99.8%
Compound 4: propan-1-ol, C3H8O, InChI=1S/C3H8O/c1-2-3-4/h4H,2-3H2,1H3, purity 99.8%
Compound 5: butan-1-ol, C4H10O, InChI=1S/C4H10O/c1-2-3-4-5/h5H,2-4H2,1H3, purity 99.8%
Compound 6: pentan-1-ol, C5H12O, InChI=1S/C5H12O/c1-2-3-4-5-6/h6H,2-5H2,1H3, purity 99%
Compound 7: hexan-1-ol, C6H14O, InChI=1S/C6H14O/c1-2-3-4-5-6-7/h7H,2-6H2,1H3, purity 98%

System: 1,2-propanediol; phases: Liquid
Property: Refractive index (Na D-line) (Liquid); method: Standard Abbe refractometry
Temperature, K	Pressure, kPa	Refractive index (Na D-line)	uncertainty
298.15	101.325	1.4323	0.0005

System: 1,2-propanediol; phases: Liquid
Property: Mass density, kg/m3 (Liquid); method: VIBTUB:UFactor:4
Temperature, K	Pressure, kPa	Mass density, kg/m3	uncertainty
298.15	101.325	1032.61	0.31

System: methanol; phases: Liquid
Property: Refractive index (Na D-line) (Liquid); method: Standard Abbe refractometry
Temperature, K	Pressure, kPa	Refractive index (Na D-line)	uncertainty
298.15	101.325	1.327	0.0005

System: methanol; phases: Liquid
Property: Mass density, kg/m3 (Liquid); method: VIBTUB:UFactor:4
Temperature, K	Pressure, kPa	Mass density, kg/m3	uncertainty
298.15	101.325	786.5	0.51

System: ethanol; phases: Liquid
Property: Refractive index (Na D-line) (Liquid); method: Standard Abbe refractometry
Temperature, K	Pressure, kPa	Refractive index (Na D-line)	uncertainty
298.15	101.325	1.3595	0.0005

System: ethanol; phases: Liquid
Property: Mass density, kg/m3 (Liquid); method: VIBTUB:UFactor:2
Temperature, K	Pressure, kPa	Mass density, kg/m3	uncertainty
298.15	101.325	785.15	0.25

System: propan-1-ol; phases: Liquid
Property: Refractive index (Na D-line) (Liquid); method: Standard Abbe refractometry
Temperature, K	Pressure, kPa	Refractive index (Na D-line)	uncertainty
298.15	101.325	1.3833	0.0005

System: propan-1-ol; phases: Liquid
Property: Mass density, kg/m3 (Liquid); method: VIBTUB:UFactor:2
Temperature, K	Pressure, kPa	Mass density, kg/m3	uncertainty
298.15	101.325	799.51	0.24

System: butan-1-ol; phases: Liquid
Property: Refractive index (Na D-line) (Liquid); method: Standard Abbe refractometry
Temperature, K	Pressure, kPa	Refractive index (Na D-line)	uncertainty
298.15	101.325	1.3974	0.0005

System: butan-1-ol; phases: Liquid
Property: Mass density, kg/m3 (Liquid); method: VIBTUB:UFactor:2
Temperature, K	Pressure, kPa	Mass density, kg/m3	uncertainty
298.15	101.325	805.75	0.23

System: pentan-1-ol; phases: Liquid
Property: Refractive index (Na D-line) (Liquid); method: Standard Abbe refractometry
Temperature, K	Pressure, kPa	Refractive index (Na D-line)	uncertainty
298.15	101.325	1.4089	0.0005

System: pentan-1-ol; phases: Liquid
Property: Mass density, kg/m3 (Liquid); method: VIBTUB:UFactor:8
Temperature, K	Pressure, kPa	Mass density, kg/m3	uncertainty
298.15	101.325	810.88	0.94

System: hexan-1-ol; phases: Liquid
Property: Refractive index (Na D-line) (Liquid); method: Standard Abbe refractometry
Temperature, K	Pressure, kPa	Refractive index (Na D-line)	uncertainty
298.15	101.325	1.4166	0.0006

System: hexan-1-ol; phases: Liquid
Property: Mass density, kg/m3 (Liquid); method: VIBTUB:UFactor:16
Temperature, K	Pressure, kPa	Mass density, kg/m3	uncertainty
298.15	101.325	815.2	1.87

System: 1,2-propanediol + methanol; phases: Liquid
Fixed: Temperature, K = 298.15
Fixed: Pressure, kPa = 101
Property: Excess molar enthalpy (molar enthalpy of mixing), kJ/mol (Liquid); method: FLOW:UFactor:4
Mole fraction of 1,2-propanediol	Excess molar enthalpy (molar enthalpy of mixing), kJ/mol	uncertainty
0.0787	-0.0253	0.0039
0.1565	-0.042	0.0044
0.2336	-0.0532	0.0047
0.3099	-0.0598	0.005
0.3885	-0.0632	0.0051
0.3952	-0.0586	0.0049
0.4998	-0.0567	0.0049
0.6004	-0.0518	0.0047
0.7015	-0.0425	0.0044
0.8026	-0.0311	0.0041
0.9	-0.0164	0.0036

System: 1,2-propanediol + ethanol; phases: Liquid
Fixed: Temperature, K = 298.15
Fixed: Pressure, kPa = 101
Property: Excess molar enthalpy (molar enthalpy of mixing), kJ/mol (Liquid); method: FLOW:UFactor:4
Mole fraction of 1,2-propanediol	Excess molar enthalpy (molar enthalpy of mixing), kJ/mol	uncertainty
0.0997	0.0899	0.0059
0.1948	0.1436	0.0076
0.2875	0.1757	0.0086
0.381	0.1897	0.009
0.4756	0.1886	0.009
0.4952	0.1985	0.0093
0.5972	0.1787	0.0087
0.6991	0.1476	0.0077
0.8005	0.1059	0.0064
0.9004	0.0569	0.0049

System: 1,2-propanediol + propan-1-ol; phases: Liquid
Fixed: Temperature, K = 298.15
Fixed: Pressure, kPa = 101
Property: Excess molar enthalpy (molar enthalpy of mixing), kJ/mol (Liquid); method: FLOW:UFactor:4
Mole fraction of 1,2-propanediol	Excess molar enthalpy (molar enthalpy of mixing), kJ/mol	uncertainty
0.1008	0.2277	0.0103
0.201	0.3641	0.015
0.3036	0.4396	0.0176
0.4025	0.4663	0.0185
0.5001	0.446	0.0179
0.5049	0.4559	0.0182
0.6007	0.4073	0.0165
0.7015	0.338	0.0141
0.8011	0.2463	0.011
0.9009	0.1323	0.0072

System: 1,2-propanediol + butan-1-ol; phases: Liquid
Fixed: Temperature, K = 298.15
Fixed: Pressure, kPa = 101
Property: Excess molar enthalpy (molar enthalpy of mixing), kJ/mol (Liquid); method: FLOW:UFactor:4
Mole fraction of 1,2-propanediol	Excess molar enthalpy (molar enthalpy of mixing), kJ/mol	uncertainty
0.1007	0.3085	0.0131
0.1971	0.476	0.0189
0.2945	0.5647	0.0219
0.3853	0.5965	0.023
0.4758	0.5922	0.0229
0.5644	0.5567	0.0217
0.6047	0.5195	0.0204
0.7062	0.4336	0.0174
0.8047	0.3233	0.0136
0.9026	0.1796	0.0087

System: 1,2-propanediol + pentan-1-ol; phases: Liquid
Fixed: Temperature, K = 298.15
Fixed: Pressure, kPa = 101
Property: Excess molar enthalpy (molar enthalpy of mixing), kJ/mol (Liquid); method: FLOW:UFactor:4
Mole fraction of 1,2-propanediol	Excess molar enthalpy (molar enthalpy of mixing), kJ/mol	uncertainty
0.0914	0.324	0.0137
0.1843	0.5185	0.0203
0.2821	0.6279	0.0241
0.3755	0.6782	0.0259
0.4761	0.68	0.0259
0.577	0.6405	0.0246
0.6082	0.6092	0.0235
0.7027	0.5275	0.0207
0.802	0.4028	0.0164
0.9014	0.2299	0.0104

System: 1,2-propanediol + hexan-1-ol; phases: Liquid
Fixed: Temperature, K = 298.15
Fixed: Pressure, kPa = 101
Property: Excess molar enthalpy (molar enthalpy of mixing), kJ/mol (Liquid); method: FLOW:UFactor:4
Mole fraction of 1,2-propanediol	Excess molar enthalpy (molar enthalpy of mixing), kJ/mol	uncertainty
0.0905	0.3487	0.0145
0.1929	0.5773	0.0224
0.2872	0.6911	0.0263
0.3828	0.7465	0.0282
0.4778	0.7564	0.0286
0.5711	0.7235	0.0274
0.6718	0.6564	0.0251
0.7021	0.6117	0.0236
0.7996	0.4848	0.0192
0.904	0.2816	0.0122
