Measured thermophysical data. Solubilities of Gallic Acid and Its Esters in Water
Source: J. Chem. Eng. Data, 2007, 10.1021/je0601661
Compound 1: 3,4,5-trihydroxybenzoic acid, C7H6O5, InChI=1S/C7H6O5/c8-4-1-3(7(11)12)2-5(9)6(4)10/h1-2,8-10H,(H,11,12)
Compound 2: benzoic acid, 3,4,5-trihydroxy-, methyl ester, C8H8O5, InChI=1S/C8H8O5/c1-13-8(12)4-2-5(9)7(11)6(10)3-4/h2-3,9-11H,1H3
Compound 3: propyl 3,4,5-trihydroxybenzoate, C10H12O5, InChI=1S/C10H12O5/c1-2-3-15-10(14)6-4-7(11)9(13)8(12)5-6/h4-5,11-13H,2-3H2,1H3
Compound 4: benzoic acid, 3,4,5-trihydroxy-, octyl ester, C15H22O5, InChI=1S/C15H22O5/c1-2-3-4-5-6-7-8-20-15(19)11-9-12(16)14(18)13(17)10-11/h9-10,16-18H,2-8H2,1H3
Compound 5: water, H2O, InChI=1S/H2O/h1H2

System: 3,4,5-trihydroxybenzoic acid + water; phases: Liquid, Crystal
Fixed: Pressure, kPa = 101
Property: Mass ratio of solute to solvent (Liquid); method: static analytical method
Temperature, K	Mass ratio of solute to solvent	uncertainty
273.15	0.0072	0.0014
293.15	0.0096	0.0019
298.15	0.01	0.002
303.15	0.0138	0.0028
308.15	0.0179	0.0036
313.15	0.0236	0.0047
318.15	0.0307	0.0061
323.15	0.0402	0.008
328.15	0.0515	0.0103
333.15	0.0686	0.0137
338.15	0.0823	0.0165
343.15	0.1146	0.0229
348.15	0.1366	0.0273
353.15	0.1927	0.0385
358.15	0.256	0.0512
363.15	0.2909	0.0582

System: benzoic acid, 3,4,5-trihydroxy-, methyl ester + water; phases: Liquid, Crystal
Fixed: Pressure, kPa = 101
Property: Mass ratio of solute to solvent (Liquid); method: static analytical method
Temperature, K	Mass ratio of solute to solvent	uncertainty
273.15	0.003	0.0006
293.15	0.0099	0.002
298.15	0.0106	0.0021
303.15	0.0126	0.0025
308.15	0.0179	0.0036
313.15	0.0253	0.0051
318.15	0.0324	0.0065
323.15	0.0491	0.0098
328.15	0.0866	0.0173
333.15	0.1214	0.0243
338.15	0.1671	0.0334
343.15	0.2408	0.0482

System: propyl 3,4,5-trihydroxybenzoate + water; phases: Liquid, Crystal
Fixed: Pressure, kPa = 101
Property: Mass ratio of solute to solvent (Liquid); method: static analytical method
Temperature, K	Mass ratio of solute to solvent	uncertainty
273.15	0.0012	0.0002
293.15	0.0028	0.0006
298.15	0.0035	0.0007
303.15	0.0038	0.0008
308.15	0.007	0.0014
313.15	0.0104	0.0021
318.15	0.0151	0.003
323.15	0.0252	0.005
328.15	0.0518	0.0104
333.15	0.1672	0.0334
338.15	0.3084	0.0617

System: benzoic acid, 3,4,5-trihydroxy-, octyl ester + water; phases: Liquid, Crystal
Fixed: Pressure, kPa = 101
Property: Mass ratio of solute to solvent (Liquid); method: static analytical method
Temperature, K	Mass ratio of solute to solvent	uncertainty
303.15	2e-05	4e-06
308.15	2.4e-05	5e-06
313.15	3.2e-05	6e-06
318.15	5.1e-05	1e-05
323.15	8.9e-05	1.8e-05
328.15	0.000119	2.4e-05
333.15	0.000133	2.7e-05
338.15	0.000143	2.9e-05
