Measured thermophysical data. Critical Point and Vapor Pressure Measurements for 17 Compounds by a Low Residence Time Flow Method
Source: J. Chem. Eng. Data, 2006, 10.1021/je060269j
Compound 1: .gamma.-butyrolactone, C4H6O2, InChI=1S/C4H6O2/c5-4-2-1-3-6-4/h1-3H2, purity 99.4%
Compound 2: 4-oxa-1,7-heptanediol, C6H14O3, InChI=1S/C6H14O3/c7-3-1-5-9-6-2-4-8/h7-8H,1-6H2, purity 99.98%
Compound 3: 1,3-butanediol, C4H10O2, InChI=1S/C4H10O2/c1-4(6)2-3-5/h4-6H,2-3H2,1H3, purity 99.74%
Compound 4: N-methyldiethanolamine, C5H13NO2, InChI=1S/C5H13NO2/c1-6(2-4-7)3-5-8/h7-8H,2-5H2,1H3, purity 99.4%
Compound 5: N-formylmorpholine, C5H9NO2, InChI=1S/C5H9NO2/c7-5-6-1-3-8-4-2-6/h5H,1-4H2, purity 99.9%
Compound 6: 2,2-dimethyloxirane, C4H8O, InChI=1S/C4H8O/c1-4(2)3-5-4/h3H2,1-2H3, purity 99%
Compound 7: diethyl ethanedioate, C6H10O4, InChI=1S/C6H10O4/c1-3-9-5(7)6(8)10-4-2/h3-4H2,1-2H3, purity 99.9%
Compound 8: butyl 2-propenoate, C7H12O2, InChI=1S/C7H12O2/c1-3-5-6-9-7(8)4-2/h4H,2-3,5-6H2,1H3, purity 99.9%
Compound 9: 5,6-dithiadecane, C8H18S2, InChI=1S/C8H18S2/c1-3-5-7-9-10-8-6-4-2/h3-8H2,1-2H3, purity 97.8%
Compound 10: 2-(2-aminoethoxy)ethanol, C4H11NO2, InChI=1S/C4H11NO2/c5-1-3-7-4-2-6/h6H,1-5H2, purity 99%
Compound 11: 1,1-dimethylethyl ethanoate, C6H12O2, InChI=1S/C6H12O2/c1-5(7)8-6(2,3)4/h1-4H3, purity 99.9%
Compound 12: ethylidene diethanoate, C6H10O4, InChI=1S/C6H10O4/c1-4(7)9-6(3)10-5(2)8/h6H,1-3H3, purity 99.5%
Compound 13: 1,4-diisopropylbenzene, C12H18, InChI=1S/C12H18/c1-9(2)11-5-7-12(8-6-11)10(3)4/h5-10H,1-4H3, purity 99.7%
Compound 14: 2,3-dithiabutane, C2H6S2, InChI=1S/C2H6S2/c1-3-4-2/h1-2H3, purity 99.4%
Compound 15: 1,3-oxazole, C3H3NO, InChI=1S/C3H3NO/c1-2-5-3-4-1/h1-3H, purity 99.9%
Compound 16: phenyl isocyanate, C7H5NO, InChI=1S/C7H5NO/c9-6-8-7-4-2-1-3-5-7/h1-5H, purity 99.4%
Compound 17: sulfolane, C4H8O2S, InChI=1S/C4H8O2S/c5-7(6)3-1-2-4-7/h1-4H2, purity 99.9%

System: .gamma.-butyrolactone; phases: Liquid, Gas
Property: Critical pressure, kPa (Liquid); method: Flow apparatus with low residence time
Critical pressure, kPa	uncertainty
5100	200

System: .gamma.-butyrolactone; phases: Liquid, Gas
Property: Critical temperature, K (Liquid); method: Flow apparatus with low residence time
Critical temperature, K	uncertainty
732.5	4

System: .gamma.-butyrolactone; phases: Liquid, Gas
Property: Vapor or sublimation pressure, kPa (Liquid); method: Flow apparatus with low residence time
Temperature, K	Vapor or sublimation pressure, kPa	uncertainty
474.9	93.29	3.78
501.8	174.7	7
532.5	325.8	13.1
562.6	558.5	22.4
600	1005	40
639	1723	69
673.8	2643	106
696.7	3454	138
713.8	4147	166
726.8	4779	192
730.8	5013	201

System: 4-oxa-1,7-heptanediol; phases: Liquid, Gas
Property: Critical pressure, kPa (Liquid); method: Flow apparatus with low residence time
Critical pressure, kPa	uncertainty
3380	140

System: 4-oxa-1,7-heptanediol; phases: Liquid, Gas
Property: Critical temperature, K (Liquid); method: Flow apparatus with low residence time
Critical temperature, K	uncertainty
705.2	4

System: 4-oxa-1,7-heptanediol; phases: Liquid, Gas
Property: Vapor or sublimation pressure, kPa (Liquid); method: Flow apparatus with low residence time
Temperature, K	Vapor or sublimation pressure, kPa	uncertainty
505	100.7	4.1
534.3	208.2	8.4
564.2	395.8	15.9
607.2	854.3	34.3
649.8	1631	65
689.9	2779	111
699.1	3123	125
703.4	3296	132

System: 1,3-butanediol; phases: Liquid, Gas
Property: Critical pressure, kPa (Liquid); method: Flow apparatus with low residence time
Critical pressure, kPa	uncertainty
5180	210

System: 1,3-butanediol; phases: Liquid, Gas
Property: Critical temperature, K (Liquid); method: Flow apparatus with low residence time
Critical temperature, K	uncertainty
692.4	4

System: 1,3-butanediol; phases: Liquid, Gas
Property: Vapor or sublimation pressure, kPa (Liquid); method: Flow apparatus with low residence time
Temperature, K	Vapor or sublimation pressure, kPa	uncertainty
481.4	100.2	4.1
508.1	209.6	8.5
537.8	418.5	16.9
576	898.4	36.1
614.7	1719	69
646.7	2774	111
662.5	3462	139
676.7	4158	167
688.2	4840	194

System: N-methyldiethanolamine; phases: Liquid, Gas
Property: Critical pressure, kPa (Liquid); method: Flow apparatus with low residence time
Critical pressure, kPa	uncertainty
4160	170

System: N-methyldiethanolamine; phases: Liquid, Gas
Property: Critical temperature, K (Liquid); method: Flow apparatus with low residence time
Critical temperature, K	uncertainty
741.9	4

System: N-methyldiethanolamine; phases: Liquid, Gas
Property: Vapor or sublimation pressure, kPa (Liquid); method: Flow apparatus with low residence time
Temperature, K	Vapor or sublimation pressure, kPa	uncertainty
519.7	98.59	4
543.3	175.1	7.1
574.8	346.1	13.9
617.1	743.9	29.9
657.1	1389	56
707.5	2785	112
728.1	3475	139
735.4	3799	152
738.4	3985	160

System: N-formylmorpholine; phases: Liquid, Gas
Property: Critical pressure, kPa (Liquid); method: Flow apparatus with low residence time
Critical pressure, kPa	uncertainty
5080	310

System: N-formylmorpholine; phases: Liquid, Gas
Property: Critical temperature, K (Liquid); method: Flow apparatus with low residence time
Critical temperature, K	uncertainty
779.3	4

System: N-formylmorpholine; phases: Liquid, Gas
Property: Vapor or sublimation pressure, kPa (Liquid); method: Flow apparatus with low residence time
Temperature, K	Vapor or sublimation pressure, kPa	uncertainty
507.5	91.7	9.87
538	174.8	18.8
573.2	343.4	36.9
614.6	688.1	74
663.6	1379	148
664.7	1382	149
723.7	2761	297
745.2	3447	371
762.7	4137	445
775.2	4826	519
777.7	4999	538

System: 2,2-dimethyloxirane; phases: Liquid, Gas
Property: Critical pressure, kPa (Liquid); method: Flow apparatus with low residence time
Critical pressure, kPa	uncertainty
4350	170

System: 2,2-dimethyloxirane; phases: Liquid, Gas
Property: Critical temperature, K (Liquid); method: Flow apparatus with low residence time
Critical temperature, K	uncertainty
499.9	4

System: 2,2-dimethyloxirane; phases: Liquid, Gas
Property: Vapor or sublimation pressure, kPa (Liquid); method: Flow apparatus with low residence time
Temperature, K	Vapor or sublimation pressure, kPa	uncertainty
320.1	87.08	3.58
339.1	165.1	6.7
365.6	348.9	14.1
393.2	678.4	27.3
428.2	1381	56
469.4	2760	111
496.4	4141	166
499.2	4306	173

System: diethyl ethanedioate; phases: Liquid, Gas
Property: Critical pressure, kPa (Liquid); method: Flow apparatus with low residence time
Critical pressure, kPa	uncertainty
3060	120

System: diethyl ethanedioate; phases: Liquid, Gas
Property: Critical temperature, K (Liquid); method: Flow apparatus with low residence time
Critical temperature, K	uncertainty
645.8	4

System: diethyl ethanedioate; phases: Liquid, Gas
Property: Vapor or sublimation pressure, kPa (Liquid); method: Flow apparatus with low residence time
Temperature, K	Vapor or sublimation pressure, kPa	uncertainty
454.6	90.67	3.69
481.8	182.4	7.4
512.9	359.9	14.5
547.3	690.9	27.8
590.1	1381	55
638.8	2761	111
642.5	2934	118
644.4	3013	121

System: butyl 2-propenoate; phases: Liquid, Gas
Property: Critical pressure, kPa (Liquid); method: Flow apparatus with low residence time
Critical pressure, kPa	uncertainty
2840	110

System: butyl 2-propenoate; phases: Liquid, Gas
Property: Critical temperature, K (Liquid); method: Flow apparatus with low residence time
Critical temperature, K	uncertainty
601.2	4

System: butyl 2-propenoate; phases: Liquid, Gas
Property: Vapor or sublimation pressure, kPa (Liquid); method: Flow apparatus with low residence time
Temperature, K	Vapor or sublimation pressure, kPa	uncertainty
441.9	178.6	7.2
471.9	351.6	14.2
506.5	689.5	27.7
549.3	1380	55
599.1	2761	111

System: 5,6-dithiadecane; phases: Liquid, Gas
Property: Vapor or sublimation pressure, kPa (Liquid); method: Flow apparatus with low residence time
Temperature, K	Vapor or sublimation pressure, kPa	uncertainty
504.2	90.32	3.67
535.7	180.3	7.3
571.7	349.6	14.1
614.9	695.7	28

System: 2-(2-aminoethoxy)ethanol; phases: Liquid, Gas
Property: Critical pressure, kPa (Liquid); method: Flow apparatus with low residence time
Critical pressure, kPa	uncertainty
4800	190

System: 2-(2-aminoethoxy)ethanol; phases: Liquid, Gas
Property: Critical temperature, K (Liquid); method: Flow apparatus with low residence time
Critical temperature, K	uncertainty
721.2	4

System: 2-(2-aminoethoxy)ethanol; phases: Liquid, Gas
Property: Vapor or sublimation pressure, kPa (Liquid); method: Flow apparatus with low residence time
Temperature, K	Vapor or sublimation pressure, kPa	uncertainty
500.9	117.3	4.8
526.9	225.2	9.1
564.9	496.6	19.9
594.2	842.6	33.8
625.9	1395	56
653.9	2085	84
685	3130	125
716.5	4521	181
719.4	4729	190

System: 1,1-dimethylethyl ethanoate; phases: Liquid, Gas
Property: Critical pressure, kPa (Liquid); method: Flow apparatus with low residence time
Critical pressure, kPa	uncertainty
3040	120

System: 1,1-dimethylethyl ethanoate; phases: Liquid, Gas
Property: Critical temperature, K (Liquid); method: Flow apparatus with low residence time
Critical temperature, K	uncertainty
541.2	4

System: 1,1-dimethylethyl ethanoate; phases: Liquid, Gas
Property: Vapor or sublimation pressure, kPa (Liquid); method: Flow apparatus with low residence time
Temperature, K	Vapor or sublimation pressure, kPa	uncertainty
472.7	1053	42
495	1527	61
514.5	2074	83
533.7	2722	109
535.7	2802	112
535.9	2801	113
536.4	2835	114
537.3	2868	115
537.7	2903	117
538.6	2949	118

System: ethylidene diethanoate; phases: Liquid, Gas
Property: Critical pressure, kPa (Liquid); method: Flow apparatus with low residence time
Critical pressure, kPa	uncertainty
2970	120

System: ethylidene diethanoate; phases: Liquid, Gas
Property: Critical temperature, K (Liquid); method: Flow apparatus with low residence time
Critical temperature, K	uncertainty
618.2	4

System: ethylidene diethanoate; phases: Liquid, Gas
Property: Vapor or sublimation pressure, kPa (Liquid); method: Flow apparatus with low residence time
Temperature, K	Vapor or sublimation pressure, kPa	uncertainty
461.6	177.6	7.2
486.4	314.3	12.7
514.2	555.5	22.3
541.2	902.2	36.3
571.5	1457	59
601.1	2286	92
608.2	2561	103
612	2697	108

System: 1,4-diisopropylbenzene; phases: Liquid, Gas
Property: Critical pressure, kPa (Liquid); method: Flow apparatus with low residence time
Critical pressure, kPa	uncertainty
2360	90

System: 1,4-diisopropylbenzene; phases: Liquid, Gas
Property: Critical temperature, K (Liquid); method: Flow apparatus with low residence time
Critical temperature, K	uncertainty
676.2	4

System: 1,4-diisopropylbenzene; phases: Liquid, Gas
Property: Vapor or sublimation pressure, kPa (Liquid); method: Flow apparatus with low residence time
Temperature, K	Vapor or sublimation pressure, kPa	uncertainty
518	217.1	8.8
552.6	416.3	16.7
596.8	837.8	33.6
648.1	1669	67
648.1	1667	67
666.2	2078	83
672.3	2258	90
675.9	2325	93

System: 2,3-dithiabutane; phases: Liquid, Gas
Property: Critical pressure, kPa (Liquid); method: Flow apparatus with low residence time
Critical pressure, kPa	uncertainty
5070	200

System: 2,3-dithiabutane; phases: Liquid, Gas
Property: Critical temperature, K (Liquid); method: Flow apparatus with low residence time
Critical temperature, K	uncertainty
607.8	4

System: 2,3-dithiabutane; phases: Liquid, Gas
Property: Vapor or sublimation pressure, kPa (Liquid); method: Flow apparatus with low residence time
Temperature, K	Vapor or sublimation pressure, kPa	uncertainty
466.3	690	27.8
500.8	1244	50
533.1	2002	80
561	2897	116
591.4	4205	169
604.8	4902	197
607.2	5037	202

System: 1,3-oxazole; phases: Liquid, Gas
Property: Critical pressure, kPa (Liquid); method: Flow apparatus with low residence time
Critical pressure, kPa	uncertainty
6770	270

System: 1,3-oxazole; phases: Liquid, Gas
Property: Critical temperature, K (Liquid); method: Flow apparatus with low residence time
Critical temperature, K	uncertainty
550.8	4

System: 1,3-oxazole; phases: Liquid, Gas
Property: Vapor or sublimation pressure, kPa (Liquid); method: Flow apparatus with low residence time
Temperature, K	Vapor or sublimation pressure, kPa	uncertainty
479	2424	97
494.6	3116	125
514.9	4146	166
535.5	5523	221
547.4	6492	260

System: phenyl isocyanate; phases: Liquid, Gas
Property: Critical pressure, kPa (Liquid); method: Flow apparatus with low residence time
Critical pressure, kPa	uncertainty
4000	400

System: phenyl isocyanate; phases: Liquid, Gas
Property: Critical temperature, K (Liquid); method: Flow apparatus with low residence time
Critical temperature, K	uncertainty
656.9	10

System: phenyl isocyanate; phases: Liquid, Gas
Property: Vapor or sublimation pressure, kPa (Liquid); method: Flow apparatus with low residence time
Temperature, K	Vapor or sublimation pressure, kPa	uncertainty
479.7	278.9	11.3
553.2	1038	42
588.3	1724	69
618.6	2551	102
653	3795	152
653.1	3793	152

System: sulfolane; phases: Liquid, Gas
Property: Vapor or sublimation pressure, kPa (Liquid); method: Flow apparatus with low residence time
Temperature, K	Vapor or sublimation pressure, kPa	uncertainty
560.2	103.6	4.2
594.4	203.9	8.2
626.3	350.2	14.1
656.3	556.8	22.3
685.1	829.2	33.2
713.2	1181	47
742	1665	67
773.4	2363	95
802.7	3185	128
829	4144	166
