Measured thermophysical data. Studies on Thermodynamic and Transport Properties of Binary Mixtures of Acetonitrile with Some Cyclic Ethers at Different Temperatures by Volumetric, Viscometric, and Interferometric Techniques
Source: J. Chem. Eng. Data, 2006, 10.1021/je060311a
Compound 1: acetonitrile, C2H3N, InChI=1S/C2H3N/c1-2-3/h1H3
Compound 2: 1,4-dioxane, C4H8O2, InChI=1S/C4H8O2/c1-2-6-4-3-5-1/h1-4H2
Compound 3: tetrahydrofuran, C4H8O, InChI=1S/C4H8O/c1-2-4-5-3-1/h1-4H2
Compound 4: 1,3-dioxolane, C3H6O2, InChI=1S/C3H6O2/c1-2-5-3-4-1/h1-3H2

System: acetonitrile; phases: Liquid
Fixed: Pressure, kPa = 101
Property: Viscosity, Pa*s (Liquid); method: Capillary tube (Ostwald; Ubbelohde) method
Temperature, K	Viscosity, Pa*s	uncertainty
298.15	0.0003443	9e-06
308.15	0.0003124	8.2e-06
318.15	0.000289	7.6e-06
318.15	0.0002891	7.6e-06

System: acetonitrile; phases: Liquid
Property: Speed of sound, m/s (Liquid); method: FPINT::UFactor:800
Pressure, kPa	Temperature, K	Speed of sound, m/s	uncertainty
101	298.15	1713.2	654.8

System: acetonitrile; phases: Liquid
Fixed: Pressure, kPa = 101
Property: Mass density, kg/m3 (Liquid); method: Pycnometric method
Temperature, K	Mass density, kg/m3	uncertainty
298.15	776.8	3.4
308.15	765.4	3.3
318.15	754.7	3.3

System: 1,4-dioxane; phases: Liquid
Fixed: Pressure, kPa = 101
Property: Viscosity, Pa*s (Liquid); method: Capillary tube (Ostwald; Ubbelohde) method
Temperature, K	Viscosity, Pa*s	uncertainty
298.15	0.001178	3.03e-05
308.15	0.0009985	2.57e-05
318.15	0.0008909	2.3e-05

System: 1,4-dioxane; phases: Liquid
Property: Speed of sound, m/s (Liquid); method: FPINT::UFactor:800
Pressure, kPa	Temperature, K	Speed of sound, m/s	uncertainty
101	298.15	1344.4	540.5

System: 1,4-dioxane; phases: Liquid
Fixed: Pressure, kPa = 101
Property: Mass density, kg/m3 (Liquid); method: Pycnometric method
Temperature, K	Mass density, kg/m3	uncertainty
298.15	1028.7	5.9
308.15	1016.8	5.8
318.15	1004.7	5.7

System: tetrahydrofuran; phases: Liquid
Fixed: Pressure, kPa = 101
Property: Viscosity, Pa*s (Liquid); method: Capillary tube (Ostwald; Ubbelohde) method
Temperature, K	Viscosity, Pa*s	uncertainty
298.15	0.0004631	1.2e-05
308.15	0.0004276	1.11e-05
318.15	0.0003903	1.02e-05

System: tetrahydrofuran; phases: Liquid
Property: Speed of sound, m/s (Liquid); method: FPINT::UFactor:800
Pressure, kPa	Temperature, K	Speed of sound, m/s	uncertainty
101	298.15	1292.2	524.3

System: tetrahydrofuran; phases: Liquid
Fixed: Pressure, kPa = 101
Property: Mass density, kg/m3 (Liquid); method: Pycnometric method
Temperature, K	Mass density, kg/m3	uncertainty
298.15	880.8	4.4
308.15	871.5	4.3
318.15	860.8	4.2

System: 1,3-dioxolane; phases: Liquid
Fixed: Pressure, kPa = 101
Property: Viscosity, Pa*s (Liquid); method: Capillary tube (Ostwald; Ubbelohde) method
Temperature, K	Viscosity, Pa*s	uncertainty
298.15	0.0005878	1.52e-05
308.15	0.0005128	1.33e-05
318.15	0.000458	1.19e-05

System: 1,3-dioxolane; phases: Liquid
Property: Speed of sound, m/s (Liquid); method: FPINT::UFactor:800
Pressure, kPa	Temperature, K	Speed of sound, m/s	uncertainty
101	298.15	1338.2	538.6

System: 1,3-dioxolane; phases: Liquid
Fixed: Pressure, kPa = 101
Property: Mass density, kg/m3 (Liquid); method: Pycnometric method
Temperature, K	Mass density, kg/m3	uncertainty
298.15	1057.7	6.3
308.15	1046.3	6.2
318.15	1034.4	6

System: acetonitrile + tetrahydrofuran; phases: Liquid
Fixed: Pressure, kPa = 101
Fixed: Temperature, K = 298.15
Property: Speed of sound, m/s (Liquid); method: FPINT:UFactor:800
Mole fraction of acetonitrile	Speed of sound, m/s	uncertainty
0	1292.2	524.3
0.1633	1344.3	540.5
0.3052	1395.2	556.2
0.4295	1443.9	571.3
0.5394	1490.4	585.7
0.6372	1533.8	599.2
0.7249	1573.6	611.5
0.8039	1610.3	622.9
0.8754	1645.5	633.8
0.9405	1679	644.2
1	1713.2	654.8

System: acetonitrile + tetrahydrofuran; phases: Liquid
Fixed: Pressure, kPa = 101
Property: Viscosity, Pa*s (Liquid); method: Capillary tube (Ostwald; Ubbelohde) method
Temperature, K	Mole fraction of acetonitrile	Viscosity, Pa*s	uncertainty
298.15	0	0.0004631	1.2e-05
298.15	0.1633	0.0004419	1.15e-05
298.15	0.3052	0.0004236	1.1e-05
298.15	0.4295	0.0004075	1.06e-05
298.15	0.5394	0.0003932	1.02e-05
298.15	0.6372	0.0003808	9.9e-06
298.15	0.7249	0.0003701	9.7e-06
298.15	0.8039	0.0003611	9.4e-06
298.15	0.8754	0.0003539	9.2e-06
298.15	0.9405	0.0003481	9.1e-06
298.15	1	0.0003443	9e-06
308.15	0	0.0004276	1.11e-05
308.15	0.1633	0.0004066	1.06e-05
308.15	0.3052	0.0003875	1.01e-05
308.15	0.4295	0.0003701	9.7e-06
308.15	0.5394	0.000355	9.3e-06
308.15	0.6372	0.0003425	9e-06
308.15	0.7249	0.0003321	8.7e-06
308.15	0.8039	0.0003242	8.5e-06
308.15	0.8754	0.0003184	8.3e-06
308.15	0.9405	0.0003145	8.2e-06
308.15	1	0.0003124	8.2e-06
318.15	0	0.0003903	1.02e-05
318.15	0.1633	0.0003683	9.6e-06
318.15	0.3052	0.0003497	9.1e-06
318.15	0.4295	0.000334	8.7e-06
318.15	0.5394	0.0003202	8.4e-06
318.15	0.6372	0.0003089	8.1e-06
318.15	0.7249	0.0003001	7.9e-06
318.15	0.8039	0.0002938	7.7e-06
318.15	0.8754	0.0002901	7.6e-06
318.15	0.9405	0.0002879	7.6e-06
318.15	1	0.000289	7.6e-06

System: acetonitrile + tetrahydrofuran; phases: Liquid
Fixed: Pressure, kPa = 101
Property: Mass density, kg/m3 (Liquid); method: Pycnometric method
Temperature, K	Mole fraction of acetonitrile	Mass density, kg/m3	uncertainty
298.15	0	880.8	4.4
298.15	0.1633	870.3	4.3
298.15	0.3052	859.5	4.2
298.15	0.4295	848.6	4.1
298.15	0.5394	837.6	4
298.15	0.6372	826.8	3.9
298.15	0.7249	816.2	3.8
298.15	0.8039	805.8	3.7
298.15	0.8754	795.9	3.6
298.15	0.9405	786.2	3.5
298.15	1	776.8	3.4
308.15	0	871.5	4.3
308.15	0.1633	860.4	4.2
308.15	0.3052	849.2	4.1
308.15	0.4295	838	4
308.15	0.5394	827	3.9
308.15	0.6372	816.2	3.8
308.15	0.7249	805.7	3.7
308.15	0.8039	795.3	3.6
308.15	0.8754	785.2	3.5
308.15	0.9405	775.2	3.4
308.15	1	765.4	3.3
318.15	0	860.8	4.2
318.15	0.1633	851	4.1
318.15	0.3052	840.5	4
318.15	0.4295	829.6	3.9
318.15	0.5394	818.4	3.8
318.15	0.6372	807.3	3.7
318.15	0.7249	796.3	3.6
318.15	0.8039	785.5	3.5
318.15	0.8754	775	3.4
318.15	0.9405	764.7	3.4
318.15	1	754.7	3.3

System: acetonitrile + 1,3-dioxolane; phases: Liquid
Fixed: Pressure, kPa = 101
Fixed: Temperature, K = 298.15
Property: Speed of sound, m/s (Liquid); method: FPINT:UFactor:800
Mole fraction of acetonitrile	Speed of sound, m/s	uncertainty
0	1338.2	538.6
0.167	1388.9	554.3
0.3109	1436.2	568.9
0.4361	1481.5	583
0.5461	1524.4	596.3
0.6435	1563.5	608.4
0.7302	1597.8	619
0.8081	1628.8	628.6
0.8783	1658.2	637.7
0.942	1686.4	646.5
1	1713.2	654.8

System: acetonitrile + 1,3-dioxolane; phases: Liquid
Fixed: Pressure, kPa = 101
Property: Viscosity, Pa*s (Liquid); method: Capillary tube (Ostwald; Ubbelohde) method
Temperature, K	Mole fraction of acetonitrile	Viscosity, Pa*s	uncertainty
298.15	0	0.0005878	1.52e-05
298.15	0.167	0.0005233	1.36e-05
298.15	0.3109	0.0004737	1.23e-05
298.15	0.4361	0.000436	1.13e-05
298.15	0.5461	0.0004046	1.05e-05
298.15	0.6435	0.0003783	9.9e-06
298.15	0.7302	0.0003591	9.4e-06
298.15	0.8081	0.0003444	9e-06
298.15	0.8783	0.000338	8.8e-06
298.15	0.942	0.0003366	8.8e-06
298.15	1	0.0003443	9e-06
308.15	0	0.0005128	1.33e-05
308.15	0.167	0.0004618	1.2e-05
308.15	0.3109	0.0004235	1.1e-05
308.15	0.4361	0.0003913	1.02e-05
308.15	0.5461	0.0003646	9.5e-06
308.15	0.6435	0.0003419	8.9e-06
308.15	0.7302	0.0003251	8.5e-06
308.15	0.8081	0.0003134	8.2e-06
308.15	0.8783	0.0003077	8.1e-06
308.15	0.942	0.000307	8.1e-06
308.15	1	0.0003124	8.2e-06
318.15	0	0.000458	1.19e-05
318.15	0.167	0.0004132	1.08e-05
318.15	0.3109	0.0003791	9.9e-06
318.15	0.4361	0.0003502	9.2e-06
318.15	0.5461	0.0003263	8.5e-06
318.15	0.6435	0.0003065	8e-06
318.15	0.7302	0.000291	7.6e-06
318.15	0.8081	0.0002817	7.4e-06
318.15	0.8783	0.000278	7.3e-06
318.15	0.942	0.0002797	7.4e-06
318.15	1	0.0002891	7.6e-06

System: acetonitrile + 1,3-dioxolane; phases: Liquid
Fixed: Pressure, kPa = 101
Property: Mass density, kg/m3 (Liquid); method: Pycnometric method
Temperature, K	Mole fraction of acetonitrile	Mass density, kg/m3	uncertainty
298.15	0	1057.7	6.3
298.15	0.167	1022.7	5.9
298.15	0.3109	989.9	5.5
298.15	0.4361	958.5	5.2
298.15	0.5461	928.2	4.8
298.15	0.6435	899.4	4.6
298.15	0.7302	872.1	4.3
298.15	0.8081	846.5	4
298.15	0.8783	822.1	3.8
298.15	0.942	798.9	3.6
298.15	1	776.8	3.4
308.15	0	1046.3	6.2
308.15	0.167	1011.6	5.8
308.15	0.3109	979.2	5.4
308.15	0.4361	947.8	5.1
308.15	0.5461	917.7	4.8
308.15	0.6435	889	4.5
308.15	0.7302	861.9	4.2
308.15	0.8081	836.1	4
308.15	0.8783	811.6	3.7
308.15	0.942	788.2	3.5
308.15	1	765.4	3.3
318.15	0	1034.4	6
318.15	0.167	1000.3	5.7
318.15	0.3109	967.9	5.3
318.15	0.4361	936.6	5
318.15	0.5461	906.5	4.7
318.15	0.6435	878	4.4
318.15	0.7302	851.1	4.1
318.15	0.8081	825.5	3.9
318.15	0.8783	800.9	3.7
318.15	0.942	777.5	3.5
318.15	1	754.7	3.3

System: acetonitrile + 1,4-dioxane; phases: Liquid
Fixed: Pressure, kPa = 101
Fixed: Temperature, K = 298.15
Property: Speed of sound, m/s (Liquid); method: FPINT:UFactor:800
Mole fraction of acetonitrile	Speed of sound, m/s	uncertainty
0	1344.4	540.5
0.1926	1399.3	557.5
0.3492	1451	573.5
0.4791	1498.4	588.2
0.5886	1540.2	601.2
0.6822	1575.7	612.2
0.763	1606.5	621.7
0.8336	1633.5	630.1
0.8957	1660.1	638.3
0.9508	1686.3	646.4
1	1713.2	654.8

System: acetonitrile + 1,4-dioxane; phases: Liquid
Fixed: Pressure, kPa = 101
Property: Viscosity, Pa*s (Liquid); method: Capillary tube (Ostwald; Ubbelohde) method
Temperature, K	Mole fraction of acetonitrile	Viscosity, Pa*s	uncertainty
298.15	0	0.001178	3.03e-05
298.15	0.1926	0.0009468	2.44e-05
298.15	0.3492	0.000772	1.99e-05
298.15	0.4791	0.0006349	1.64e-05
298.15	0.5886	0.0005315	1.38e-05
298.15	0.6822	0.0004573	1.19e-05
298.15	0.763	0.0004099	1.07e-05
298.15	0.8336	0.0003679	9.6e-06
298.15	0.8957	0.0003482	9.1e-06
298.15	0.9508	0.0003389	8.9e-06
298.15	1	0.0003443	9e-06
308.15	0	0.0009985	2.57e-05
308.15	0.1926	0.0008244	2.13e-05
308.15	0.3492	0.0006862	1.77e-05
308.15	0.4791	0.0005802	1.5e-05
308.15	0.5886	0.000503	1.31e-05
308.15	0.6822	0.0004477	1.16e-05
308.15	0.763	0.0004079	1.06e-05
308.15	0.8336	0.0003775	9.8e-06
308.15	0.8957	0.0003531	9.2e-06
308.15	0.9508	0.000334	8.7e-06
308.15	1	0.0003124	8.2e-06
318.15	0	0.0008909	2.3e-05
318.15	0.1926	0.0007189	1.86e-05
318.15	0.3492	0.0005994	1.55e-05
318.15	0.4791	0.0005014	1.3e-05
318.15	0.5886	0.0004305	1.12e-05
318.15	0.6822	0.0003854	1.01e-05
318.15	0.763	0.0003542	9.3e-06
318.15	0.8336	0.0003354	8.8e-06
318.15	0.8957	0.0003194	8.4e-06
318.15	0.9508	0.0003076	8.1e-06
318.15	1	0.0002891	7.6e-06

System: acetonitrile + 1,4-dioxane; phases: Liquid
Fixed: Pressure, kPa = 101
Property: Mass density, kg/m3 (Liquid); method: Pycnometric method
Temperature, K	Mole fraction of acetonitrile	Mass density, kg/m3	uncertainty
298.15	0	1028.7	5.9
298.15	0.1926	997.6	5.6
298.15	0.3492	968.6	5.3
298.15	0.4791	941	5
298.15	0.5886	914.6	4.7
298.15	0.6822	889.1	4.5
298.15	0.763	864.5	4.2
298.15	0.8336	841.2	4
298.15	0.8957	818.5	3.8
298.15	0.9508	797.2	3.6
298.15	1	776.8	3.4
308.15	0	1016.8	5.8
308.15	0.1926	981.2	5.4
308.15	0.3492	948.4	5.1
308.15	0.4791	918.7	4.8
308.15	0.5886	891.4	4.5
308.15	0.6822	866.1	4.3
308.15	0.763	843	4
308.15	0.8336	821.2	3.8
308.15	0.8957	801.4	3.7
308.15	0.9508	782.8	3.5
308.15	1	765.4	3.3
318.15	0	1004.7	5.7
318.15	0.1926	975.5	5.4
318.15	0.3492	946.8	5.1
318.15	0.4791	919.4	4.8
318.15	0.5886	893	4.5
318.15	0.6822	867.5	4.3
318.15	0.763	843	4.1
318.15	0.8336	819.3	3.8
318.15	0.8957	796.8	3.6
318.15	0.9508	775.2	3.4
318.15	1	754.7	3.3
