Measured thermophysical data. Density, Speed of Sound, Surface Tension, and Refractive Index of AOT + 2,2,4-Trimethylpentane + Water Mixtures from (5 to 60) deg C
Source: J. Chem. Eng. Data, 2006, 10.1021/je060144e
Compound 1: sodium bis(2-ethylhexyl) sulfosuccinate, C20H37NaO7S, InChI=1S/C20H38O7S.Na/c1-5-9-11-16(7-3)14-26-19(21)13-18(28(23,24)25)20(22)27-15-17(8-4)12-10-6-2;/h16-18H,5-15H2,1-4H3,(H,23,24,25);/q;+1/p-1
Compound 2: 2,2,4-trimethylpentane, C8H18, InChI=1S/C8H18/c1-7(2)6-8(3,4)5/h7H,6H2,1-5H3
Compound 3: water, H2O, InChI=1S/H2O/h1H2

System: 2,2,4-trimethylpentane + sodium bis(2-ethylhexyl) sulfosuccinate + water; phases: Liquid, Gas
Property: Surface tension liquid-gas, N/m (Liquid); method: Wilhelmy plate principle
Amount concentration (molarity), mol/dm3 of water	Temperature, K	Amount concentration (molarity), mol/dm3 of sodium bis(2-ethylhexyl) sulfosuccinate	Surface tension liquid-gas, N/m	uncertainty
2.22	278.1	0.1	0.02	0.0002
2.22	283.1	0.1	0.0196	0.0002
2.22	288.15	0.1	0.0192	0.0002
2.22	293.15	0.1	0.0188	0.0002
2.22	298.15	0.1	0.0184	0.0002
2.22	303.15	0.1	0.0181	0.0002
2.22	308.15	0.1	0.0177	0.0002
2.22	313.15	0.1	0.0173	0.0002
2.22	318.15	0.1	0.0169	0.0002
2.22	323.15	0.1	0.0165	0.0002
2.22	328.15	0.1	0.0161	0.0002
2.22	333.15	0.1	0.0158	0.0002
4.44	278.1	0.2	0.0201	0.0002
4.44	283.1	0.2	0.0197	0.0002
4.44	288.15	0.2	0.0193	0.0002
4.44	293.15	0.2	0.0189	0.0002
4.44	298.15	0.2	0.0184	0.0002
4.44	303.15	0.2	0.0181	0.0002
4.44	308.15	0.2	0.0177	0.0002
4.44	313.15	0.2	0.0174	0.0002
4.44	318.15	0.2	0.017	0.0002
4.44	323.15	0.2	0.0166	0.0002
4.44	328.15	0.2	0.0162	0.0002
4.44	333.15	0.2	0.0159	0.0002
6.66	278.1	0.3	0.0202	0.0002
6.66	283.1	0.3	0.0198	0.0002
6.66	288.15	0.3	0.0194	0.0002
6.66	293.15	0.3	0.019	0.0002
6.66	298.15	0.3	0.0185	0.0002
6.66	303.15	0.3	0.0182	0.0002
6.66	308.15	0.3	0.0179	0.0002
6.66	313.15	0.3	0.0175	0.0002
6.66	318.15	0.3	0.0171	0.0002
6.66	323.15	0.3	0.0167	0.0002
6.66	328.15	0.3	0.0164	0.0002
6.66	333.15	0.3	0.016	0.0002
8.88	278.1	0.4	0.0203	0.0002
8.88	283.1	0.4	0.0199	0.0002
8.88	288.15	0.4	0.0195	0.0002
8.88	293.15	0.4	0.0191	0.0002
8.88	298.15	0.4	0.0187	0.0002
8.88	303.15	0.4	0.0183	0.0002
8.88	308.15	0.4	0.018	0.0002
8.88	313.15	0.4	0.0177	0.0002
8.88	318.15	0.4	0.0173	0.0002
8.88	323.15	0.4	0.0169	0.0002
8.88	328.15	0.4	0.0167	0.0002
8.88	333.15	0.4	0.0163	0.0002
11.1	278.1	0.5	0.0204	0.0002
11.1	283.1	0.5	0.02	0.0002
11.1	288.15	0.5	0.0196	0.0002
11.1	293.15	0.5	0.0193	0.0002
11.1	298.15	0.5	0.019	0.0002
11.1	303.15	0.5	0.0186	0.0002
11.1	308.15	0.5	0.0182	0.0002
11.1	313.15	0.5	0.0179	0.0002
11.1	318.15	0.5	0.0175	0.0002
11.1	323.15	0.5	0.0171	0.0002
11.1	328.15	0.5	0.0168	0.0002
11.1	333.15	0.5	0.0165	0.0002
13.32	278.1	0.6	0.0205	0.0002
13.32	283.1	0.6	0.0201	0.0002
13.32	288.15	0.6	0.0199	0.0002
13.32	293.15	0.6	0.0195	0.0002
13.32	298.15	0.6	0.0191	0.0002
13.32	303.15	0.6	0.0187	0.0002
13.32	308.15	0.6	0.0185	0.0002
13.32	313.15	0.6	0.0181	0.0002
13.32	318.15	0.6	0.0177	0.0002
13.32	323.15	0.6	0.0173	0.0002
13.32	328.15	0.6	0.0171	0.0002
13.32	333.15	0.6	0.0168	0.0002
15.54	278.1	0.7	0.0208	0.0002
15.54	283.1	0.7	0.0204	0.0002
15.54	288.15	0.7	0.0202	0.0002
15.54	293.15	0.7	0.0198	0.0002
15.54	298.15	0.7	0.0194	0.0002
15.54	303.15	0.7	0.019	0.0002
15.54	308.15	0.7	0.0187	0.0002
15.54	313.15	0.7	0.0183	0.0002
15.54	318.15	0.7	0.018	0.0002
15.54	323.15	0.7	0.0176	0.0002
15.54	328.15	0.7	0.0173	0.0002
15.54	333.15	0.7	0.017	0.0002

System: 2,2,4-trimethylpentane + sodium bis(2-ethylhexyl) sulfosuccinate + water; phases: Liquid
Fixed: Pressure, kPa = 101
Property: Refractive index (Na D-line) (Liquid); method: ABBE:UFactor:3
Amount concentration (molarity), mol/dm3 of water	Temperature, K	Amount concentration (molarity), mol/dm3 of sodium bis(2-ethylhexyl) sulfosuccinate	Refractive index (Na D-line)	uncertainty
2.22	278.1	0.1	1.3991	0.001
2.22	283.1	0.1	1.3969	0.001
2.22	288.15	0.1	1.3946	0.001
2.22	293.15	0.1	1.3923	0.001
2.22	298.15	0.1	1.3901	0.001
2.22	303.15	0.1	1.3879	0.001
2.22	308.15	0.1	1.3859	0.001
2.22	313.15	0.1	1.383	0.001
2.22	318.15	0.1	1.381	0.001
2.22	323.15	0.1	1.3786	0.001
2.22	328.15	0.1	1.3766	0.001
2.22	333.15	0.1	1.3747	0.001
4.44	278.1	0.2	1.3996	0.001
4.44	283.1	0.2	1.3976	0.001
4.44	288.15	0.2	1.3954	0.001
4.44	293.15	0.2	1.3931	0.001
4.44	298.15	0.2	1.3919	0.001
4.44	303.15	0.2	1.3894	0.001
4.44	308.15	0.2	1.3867	0.001
4.44	313.15	0.2	1.3848	0.001
4.44	318.15	0.2	1.3821	0.001
4.44	323.15	0.2	1.3798	0.001
4.44	328.15	0.2	1.378	0.001
4.44	333.15	0.2	1.3762	0.001
6.66	278.1	0.3	1.4001	0.001
6.66	283.1	0.3	1.3982	0.001
6.66	288.15	0.3	1.396	0.001
6.66	293.15	0.3	1.3941	0.001
6.66	298.15	0.3	1.3924	0.001
6.66	303.15	0.3	1.3908	0.001
6.66	308.15	0.3	1.3881	0.001
6.66	313.15	0.3	1.386	0.001
6.66	318.15	0.3	1.384	0.001
6.66	323.15	0.3	1.3816	0.001
6.66	328.15	0.3	1.3795	0.001
6.66	333.15	0.3	1.3775	0.001
8.88	278.1	0.4	1.4006	0.001
8.88	283.1	0.4	1.3986	0.001
8.88	288.15	0.4	1.3967	0.001
8.88	293.15	0.4	1.3949	0.001
8.88	298.15	0.4	1.3931	0.001
8.88	303.15	0.4	1.3915	0.001
8.88	308.15	0.4	1.3887	0.001
8.88	313.15	0.4	1.3867	0.001
8.88	318.15	0.4	1.3848	0.001
8.88	323.15	0.4	1.3825	0.001
8.88	328.15	0.4	1.3806	0.001
8.88	333.15	0.4	1.3786	0.001
11.1	278.1	0.5	1.4012	0.001
11.1	283.1	0.5	1.3992	0.001
11.1	288.15	0.5	1.3973	0.001
11.1	293.15	0.5	1.3952	0.001
11.1	298.15	0.5	1.3935	0.001
11.1	303.15	0.5	1.3915	0.001
11.1	308.15	0.5	1.3899	0.001
11.1	313.15	0.5	1.3875	0.001
11.1	318.15	0.5	1.3855	0.001
11.1	323.15	0.5	1.3835	0.001
11.1	328.15	0.5	1.3816	0.001
11.1	333.15	0.5	1.3796	0.001
13.32	278.1	0.6	1.4018	0.001
13.32	283.1	0.6	1.4003	0.001
13.32	288.15	0.6	1.3979	0.001
13.32	293.15	0.6	1.3961	0.001
13.32	298.15	0.6	1.3941	0.001
13.32	303.15	0.6	1.3921	0.001
13.32	308.15	0.6	1.3909	0.001
13.32	313.15	0.6	1.3885	0.001
13.32	318.15	0.6	1.3867	0.001
13.32	323.15	0.6	1.3847	0.001
13.32	328.15	0.6	1.3831	0.001
13.32	333.15	0.6	1.3816	0.001
15.54	278.1	0.7	1.4024	0.001
15.54	283.1	0.7	1.4008	0.001
15.54	288.15	0.7	1.3989	0.001
15.54	293.15	0.7	1.3974	0.001
15.54	298.15	0.7	1.3961	0.001
15.54	303.15	0.7	1.3941	0.001
15.54	308.15	0.7	1.3927	0.001
15.54	313.15	0.7	1.3904	0.001
15.54	318.15	0.7	1.3893	0.001
15.54	323.15	0.7	1.3874	0.001
15.54	328.15	0.7	1.3859	0.001
15.54	333.15	0.7	1.3844	0.001

System: 2,2,4-trimethylpentane + sodium bis(2-ethylhexyl) sulfosuccinate + water; phases: Liquid
Fixed: Pressure, kPa = 101
Property: Speed of sound, m/s (Liquid); method: FPINT:UFactor:2
Amount concentration (molarity), mol/dm3 of water	Temperature, K	Amount concentration (molarity), mol/dm3 of sodium bis(2-ethylhexyl) sulfosuccinate	Speed of sound, m/s	uncertainty
2.22	278.1	0.1	1158	1.9
2.22	283.1	0.1	1137.7	1.8
2.22	288.15	0.1	1117.8	1.8
2.22	293.15	0.1	1097.2	1.8
2.22	298.15	0.1	1076.8	1.8
2.22	303.15	0.1	1056.7	1.8
2.22	308.15	0.1	1036.6	1.8
2.22	313.15	0.1	1016.5	1.8
2.22	318.15	0.1	996.6	1.8
2.22	323.15	0.1	976.69	1.77
2.22	328.15	0.1	956.77	1.76
2.22	333.15	0.1	937.01	1.75
4.44	278.1	0.2	1154.2	1.9
4.44	283.1	0.2	1135.1	1.8
4.44	288.15	0.2	1115.7	1.8
4.44	293.15	0.2	1096.2	1.8
4.44	298.15	0.2	1076.7	1.8
4.44	303.15	0.2	1057.2	1.8
4.44	308.15	0.2	1037.7	1.8
4.44	313.15	0.2	1018.1	1.8
4.44	318.15	0.2	998.73	1.78
4.44	323.15	0.2	979.27	1.77
4.44	328.15	0.2	959.76	1.76
4.44	333.15	0.2	940.37	1.75
6.66	278.1	0.3	1155.8	1.9
6.66	283.1	0.3	1137.6	1.8
6.66	288.15	0.3	1119.1	1.8
6.66	293.15	0.3	1100.4	1.8
6.66	298.15	0.3	1081.5	1.8
6.66	303.15	0.3	1062.6	1.8
6.66	308.15	0.3	1043.6	1.8
6.66	313.15	0.3	1024.6	1.8
6.66	318.15	0.3	1005.5	1.8
6.66	323.15	0.3	986.53	1.78
6.66	328.15	0.3	967.35	1.77
6.66	333.15	0.3	948.25	1.76
8.88	278.1	0.4	1162.2	1.9
8.88	283.1	0.4	1144.8	1.9
8.88	288.15	0.4	1127.1	1.8
8.88	293.15	0.4	1109.1	1.8
8.88	298.15	0.4	1090.9	1.8
8.88	303.15	0.4	1072.5	1.8
8.88	308.15	0.4	1054.1	1.8
8.88	313.15	0.4	1035.5	1.8
8.88	318.15	0.4	1016.9	1.8
8.88	323.15	0.4	998.22	1.78
8.88	328.15	0.4	979.43	1.77
8.88	333.15	0.4	960.55	1.76
11.1	278.1	0.5	1175.8	1.9
11.1	283.1	0.5	1159.3	1.9
11.1	288.15	0.5	1142.4	1.9
11.1	293.15	0.5	1125.2	1.8
11.1	298.15	0.5	1107.6	1.8
11.1	303.15	0.5	1089.8	1.8
11.1	308.15	0.5	1071.7	1.8
11.1	313.15	0.5	1053.8	1.8
11.1	318.15	0.5	1035.6	1.8
11.1	323.15	0.5	1017.3	1.8
11.1	328.15	0.5	998.91	1.78
11.1	333.15	0.5	980.88	1.77
13.32	278.1	0.6	1194.9	1.9
13.32	283.1	0.6	1180	1.9
13.32	288.15	0.6	1164.4	1.9
13.32	293.15	0.6	1148.4	1.9
13.32	298.15	0.6	1131.9	1.8
13.32	303.15	0.6	1115.1	1.8
13.32	308.15	0.6	1098	1.8
13.32	313.15	0.6	1080.6	1.8
13.32	318.15	0.6	1063.1	1.8
13.32	323.15	0.6	1045.4	1.8
13.32	328.15	0.6	1027.5	1.8
13.32	333.15	0.6	1009.2	1.8
15.54	278.1	0.7	1218.4	1.9
15.54	283.1	0.7	1204.3	1.9
15.54	288.15	0.7	1189.4	1.9
15.54	293.15	0.7	1174	1.9
15.54	298.15	0.7	1158	1.9
15.54	303.15	0.7	1141.7	1.9
15.54	308.15	0.7	1125.1	1.8
15.54	313.15	0.7	1108.3	1.8
15.54	318.15	0.7	1091.2	1.8
15.54	323.15	0.7	1073.9	1.8
15.54	328.15	0.7	1056.5	1.8
15.54	333.15	0.7	1038.9	1.8

System: 2,2,4-trimethylpentane + sodium bis(2-ethylhexyl) sulfosuccinate + water; phases: Liquid
Fixed: Pressure, kPa = 101
Property: Mass density, kg/m3 (Liquid); method: VIBTUB:UFactor:32
Amount concentration (molarity), mol/dm3 of water	Temperature, K	Amount concentration (molarity), mol/dm3 of sodium bis(2-ethylhexyl) sulfosuccinate	Mass density, kg/m3	uncertainty
2.22	278.1	0.1	734.2	4.3
2.22	283.1	0.1	732.3	4.4
2.22	288.15	0.1	731.6	4.4
2.22	293.15	0.1	728.9	4.4
2.22	298.15	0.1	725.5	4.4
2.22	303.15	0.1	722	4.5
2.22	308.15	0.1	719	4.5
2.22	313.15	0.1	715.9	4.6
2.22	318.15	0.1	713.1	4.6
2.22	323.15	0.1	710.2	4.6
2.22	328.15	0.1	707.2	4.7
2.22	333.15	0.1	704.1	4.7
4.44	278.1	0.2	763.2	4
4.44	283.1	0.2	759.2	4
4.44	288.15	0.2	755.2	4.1
4.44	293.15	0.2	751.2	4.1
4.44	298.15	0.2	748.8	4.2
4.44	303.15	0.2	743.2	4.2
4.44	308.15	0.2	740	4.3
4.44	313.15	0.2	737.9	4.3
4.44	318.15	0.2	736	4.3
4.44	323.15	0.2	730.9	4.4
4.44	328.15	0.2	729	4.4
4.44	333.15	0.2	726.2	4.4
6.66	278.1	0.3	792.5	3.6
6.66	283.1	0.3	788.6	3.7
6.66	288.15	0.3	784.6	3.7
6.66	293.15	0.3	780.6	3.8
6.66	298.15	0.3	776.6	3.8
6.66	303.15	0.3	772.5	3.9
6.66	308.15	0.3	768.4	3.9
6.66	313.15	0.3	764.2	4
6.66	318.15	0.3	760	4
6.66	323.15	0.3	755.8	4.1
6.66	328.15	0.3	751.5	4.1
6.66	333.15	0.3	747.2	4.2
8.88	278.1	0.4	821.4	3.3
8.88	283.1	0.4	817.5	3.3
8.88	288.15	0.4	813.6	3.4
8.88	293.15	0.4	809.7	3.4
8.88	298.15	0.4	805.7	3.5
8.88	303.15	0.4	801.7	3.5
8.88	308.15	0.4	797.6	3.6
8.88	313.15	0.4	793.5	3.6
8.88	318.15	0.4	789.4	3.7
8.88	323.15	0.4	785.2	3.7
8.88	328.15	0.4	780.9	3.8
8.88	333.15	0.4	776.6	3.8
11.1	278.1	0.5	854.6	2.9
11.1	283.1	0.5	850.8	2.9
11.1	288.15	0.5	847	2.9
11.1	293.15	0.5	843.2	3
11.1	298.15	0.5	839.2	3
11.1	303.15	0.5	835.3	3.1
11.1	308.15	0.5	831.3	3.1
11.1	313.15	0.5	827.3	3.2
11.1	318.15	0.5	823.2	3.2
11.1	323.15	0.5	819.1	3.3
11.1	328.15	0.5	814.9	3.3
11.1	333.15	0.5	810.3	3.4
13.32	278.1	0.6	887.6	2.5
13.32	283.1	0.6	884	2.5
13.32	288.15	0.6	880.3	2.5
13.32	293.15	0.6	876.6	2.6
13.32	298.15	0.6	872.8	2.6
13.32	303.15	0.6	869	2.7
13.32	308.15	0.6	865.2	2.7
13.32	313.15	0.6	861.2	2.8
13.32	318.15	0.6	857.2	2.8
13.32	323.15	0.6	853.2	2.9
13.32	328.15	0.6	849.1	2.9
13.32	333.15	0.6	845	3
15.54	278.1	0.7	917	2.1
15.54	283.1	0.7	913.5	2.1
15.54	288.15	0.7	909.9	2.2
15.54	293.15	0.7	906.2	2.2
15.54	298.15	0.7	902.5	2.3
15.54	303.15	0.7	898.8	2.3
15.54	308.15	0.7	895	2.4
15.54	313.15	0.7	891.1	2.4
15.54	318.15	0.7	887.2	2.5
15.54	323.15	0.7	883.3	2.5
15.54	328.15	0.7	879.2	2.6
15.54	333.15	0.7	875.2	2.6
