Measured thermophysical data. Measurement and Modeling of Liquid-Liquid Equilibrium for Ternary and Quaternary Mixtures of Water, Methanol, 2-Propanol, and 2,2,4-Trimethylpentane at 293.2 K
Source: J. Chem. Eng. Data, 2011, 10.1021/je100916h
Compound 1: methanol, CH4O, InChI=1S/CH4O/c1-2/h2H,1H3
Compound 2: 2,2,4-trimethylpentane, C8H18, InChI=1S/C8H18/c1-7(2)6-8(3,4)5/h7H,6H2,1-5H3
Compound 3: water, H2O, InChI=1S/H2O/h1H2
Compound 4: propan-2-ol, C3H8O, InChI=1S/C3H8O/c1-3(2)4/h3-4H,1-2H3

System: methanol + 2,2,4-trimethylpentane; phases: Liquid mixture 2, Liquid mixture 1
Property: Mass fraction of 2,2,4-trimethylpentane (Liquid mixture 2); method: CHROM:UFactor:4
Temperature, K	Pressure, kPa	Mass fraction of 2,2,4-trimethylpentane	uncertainty
293.2	101.3	0.2228	0.0069

System: methanol + 2,2,4-trimethylpentane; phases: Liquid mixture 1, Liquid mixture 2
Property: Mass fraction of 2,2,4-trimethylpentane (Liquid mixture 1); method: CHROM:UFactor:4
Temperature, K	Pressure, kPa	Mass fraction of 2,2,4-trimethylpentane	uncertainty
293.2	101.3	0.9431	0.0026

System: methanol + 2,2,4-trimethylpentane + water; phases: Liquid mixture 2, Liquid mixture 1
Fixed: Temperature, K = 293.2
Fixed: Pressure, kPa = 1
Property: Mass fraction of methanol (Liquid mixture 2); method: CHROM:UFactor:4
Property: Mass fraction of water (Liquid mixture 1); method: CHROM:UFactor:4
Property: Mass fraction of methanol (Liquid mixture 1); method: CHROM:UFactor:4
Mass fraction of water	Mass fraction of methanol	uncertainty	Mass fraction of water	uncertainty	Mass fraction of methanol	uncertainty
1	0		0		0	
0.7389	0.2611	0.0083	0		0	
0.4209	0.5791	0.0132	0		0	
0.2602	0.7322	0.0085	0		0.005	
0.1359	0.8283	0.0055	0		0.0112	
0.0818	0.8495	0.0048	0		0.017	
0	0.7772	0.0069	0		0.0569	

System: propan-2-ol + 2,2,4-trimethylpentane + water; phases: Liquid mixture 1, Liquid mixture 2
Fixed: Temperature, K = 293.2
Fixed: Pressure, kPa = 1
Property: Mass fraction of water (Liquid mixture 1); method: CHROM:UFactor:4
Property: Mass fraction of water (Liquid mixture 2); method: CHROM:UFactor:4
Property: Mass fraction of propan-2-ol (Liquid mixture 2); method: CHROM:UFactor:4
Mass fraction of propan-2-ol	Mass fraction of water	uncertainty	Mass fraction of water	uncertainty	Mass fraction of propan-2-ol	uncertainty
0	0		1		0	
0.0185	0.001	0.001	0.7941	0.0067	0.2058	
0.0298	0.0027	0.002	0.7572	0.0078	0.2424	
0.0923	0.0046	0.002	0.5532	0.014	0.4389	
0.164	0.0119	0.0021	0.409	0.0133	0.5563	
0.3038	0.0452	0.0024	0.2176	0.012	0.5948	

System: methanol + propan-2-ol + 2,2,4-trimethylpentane; phases: Liquid mixture 2, Liquid mixture 1
Fixed: Temperature, K = 293.2
Fixed: Pressure, kPa = 1
Property: Mass fraction of propan-2-ol (Liquid mixture 2); method: CHROM:UFactor:4
Property: Mass fraction of propan-2-ol (Liquid mixture 1); method: CHROM:UFactor:4
Property: Mass fraction of methanol (Liquid mixture 1); method: CHROM:UFactor:4
Mass fraction of methanol	Mass fraction of propan-2-ol	uncertainty	Mass fraction of propan-2-ol	uncertainty	Mass fraction of methanol	uncertainty
0.7772	0		0		0.0569	
0.6806	0.0342	0.0023	0.0062	0.0021	0.0724	
0.5911	0.0621	0.0027	0.0165	0.0022	0.1013	
