Measured thermophysical data. Crystal Structure, Low-Temperature Heat Capacities, and Thermodynamic Properties of Bis(dodecylammonium) Tetrachlorocuprate (C12H28N)2CuCl4(s)
Source: J. Chem. Eng. Data, 2010, 10.1021/je100699g
Compound 1: bis(dodecylammonium) tetrachlorocuprate(II), C24H56Cl4CuN2, InChI=1S/2C12H27N.4ClH.Cu/c2*1-2-3-4-5-6-7-8-9-10-11-12-13;;;;;/h2*2-13H2,1H3;4*1H;/q;;;;;;+2/p-2, purity 99.5%

System: bis(dodecylammonium) tetrachlorocuprate(II); phases: Crystal 3, Crystal 2, Gas
Property: Molar enthalpy of transition or fusion, kJ/mol (Crystal 3); method: Adiabatic calorimetry
Molar enthalpy of transition or fusion, kJ/mol	uncertainty
64.51	1.28

System: bis(dodecylammonium) tetrachlorocuprate(II); phases: Crystal 2, Crystal 1, Gas
Property: Molar enthalpy of transition or fusion, kJ/mol (Crystal 2); method: Adiabatic calorimetry
Molar enthalpy of transition or fusion, kJ/mol	uncertainty
21.29	0.92

System: bis(dodecylammonium) tetrachlorocuprate(II); phases: Crystal 2, Crystal 1, Gas
Property: Triple point temperature, K (Crystal 2); method: Adiabatic calorimetry
Triple point temperature, K	uncertainty
337.11	0.5

System: bis(dodecylammonium) tetrachlorocuprate(II); phases: Crystal 3, Crystal 2, Gas
Property: Triple point temperature, K (Crystal 3); method: Adiabatic calorimetry
Triple point temperature, K	uncertainty
328.96	0.5

System: bis(dodecylammonium) tetrachlorocuprate(II); phases: Crystal 3
Fixed: Pressure, kPa = 101.325
Property: Molar heat capacity at constant pressure, J/K/mol (Crystal 3); method: Vacuum adiabatic calorimetry
Temperature, K	Molar heat capacity at constant pressure, J/K/mol	uncertainty
78.387	111.8	0.7
79.914	118.05	0.74
82.326	128	0.8
84.737	139.69	0.87
87.069	150.4	0.94
89.319	160.03	1
91.49	170.39	1.06
94.705	179.63	1.11
95.809	186.83	1.16
97.921	197.2	1.22
99.93	206.49	1.28
102.02	216.14	1.33
103.95	225.43	1.39
105.96	232.58	1.43
107.89	242.23	1.49
109.82	250.45	1.54
111.7	260.09	1.6
113.6	265.45	1.63
115.41	274.44	1.68
117.21	280.32	1.72
119.13	289.12	1.77
121.96	299.76	1.84
123.97	310.6	1.9
127.1	322.5	1.97
129.67	334.08	2.04
132.25	344.22	2.1
134.98	354.22	2.16
137.55	365.16	2.23
140.2	375.6	2.29
142.86	384.98	2.35
145.44	395.22	2.41
148.56	407.69	2.48
150.62	415.89	2.53
153.31	424.42	2.59
155.87	433.11	2.64
158.42	443.83	2.7
161.04	452.35	2.75
163.52	460.77	2.8
166.14	470.35	2.86
168.62	479.87	2.92
171.32	489.04	2.98
173.94	498.63	3.03
176.46	507.04	3.08
179.26	518.48	3.15
183.21	531.78	3.23
185.82	540.74	3.29
189.61	552.87	3.36
192.29	563.53	3.42
195.15	573.38	3.48
197.99	582.6	3.54
200.69	592.18	3.6
203.55	600.09	3.65
206.2	608.31	3.69
209	618.02	3.75
211.69	626.93	3.81
214.24	635.62	3.86
216.87	644.56	3.91
219.49	652.38	3.96
221.97	659.15	4
224.45	667.49	4.05
227	676.24	4.1
229.62	682.51	4.14
232.17	690.37	4.19
234.66	697.78	4.24
237.42	706.81	4.29
239.75	713.72	4.33
242.81	723.65	4.39
246.31	734	4.45
249.85	744.21	4.52
252.65	753.2	4.57
255.4	760.63	4.61
258.27	769.29	4.67
261.11	777.83	4.72
264.02	786.84	4.77
266.94	795.42	4.82
269.85	803.96	4.88
272.7	813.67	4.93
275.61	821.89	4.98
278.53	831.56	5.04
281.37	840.57	5.1
284.43	849.1	5.15
287.42	858.43	5.21
290.35	868.32	5.26
293.37	877.08	5.32
296.55	891.68	5.41
298.99	903.94	5.48
301.93	911.53	5.53
304.78	924.38	5.6
307.64	939.56	5.7
310.58	962.92	5.84
313.43	992.7	6.02
316.33	1031.21	6.26
319.21	1099.83	6.68
322.12	1166.67	7.25
324.9	1557.67	20.23
327.16	5825.15	66.66
328.47	12075.74	120.13

System: bis(dodecylammonium) tetrachlorocuprate(II); phases: Crystal 2
Fixed: Pressure, kPa = 101.325
Property: Molar heat capacity at constant pressure, J/K/mol (Crystal 2); method: Vacuum adiabatic calorimetry
Temperature, K	Molar heat capacity at constant pressure, J/K/mol	uncertainty
329.57	10709.23	128.07
330.52	5459.73	65.97
332.68	1243.98	18.91
334.98	1542.24	9.69

System: bis(dodecylammonium) tetrachlorocuprate(II); phases: Crystal 1
Fixed: Pressure, kPa = 101.325
Property: Molar heat capacity at constant pressure, J/K/mol (Crystal 1); method: Vacuum adiabatic calorimetry
Temperature, K	Molar heat capacity at constant pressure, J/K/mol	uncertainty
337.53	3790.91	31.22
340.2	960.71	10.47
343.69	968.44	5.87
346.62	978.04	5.93
349.56	988.26	5.99
352.5	998.48	6.05
355.51	1009.93	6.12
358.53	1019.74	6.18
361.63	1029.96	6.24
364.65	1038.35	6.29
367.75	1047.74	6.35
370.76	1058.57	6.41
373.86	1069.4	6.48
376.88	1078.8	6.54
379.9	1088.82	6.6
383	1098.63	6.66
386.02	1107.62	6.71
389.03	1117.02	6.77
