Measured thermophysical data. Thermophysical Study of Several Barbituric Acid Derivatives by Differential Scanning Calorimetry (DSC)
Source: J. Chem. Eng. Data, 2011, 10.1021/je1008944
Compound 1: 1,3-dimethylbarbituric acid, C6H8N2O3, InChI=1S/C6H8N2O3/c1-7-4(9)3-5(10)8(2)6(7)11/h3H2,1-2H3, purity 99.99%
Compound 2: 5,5-dimethylbarbituric acid, C6H8N2O3, InChI=1S/C6H8N2O3/c1-6(2)3(9)7-5(11)8-4(6)10/h1-2H3,(H2,7,8,9,10,11), purity 99.99%
Compound 3: 1,3-diethylbarbituric acid, C8H12N2O3, InChI=1S/C8H12N2O3/c1-3-9-6(11)5-7(12)10(4-2)8(9)13/h3-5H2,1-2H3, purity 99.99%
Compound 4: 1,3,5-trimethylbarbituric acid, C7H10N2O3, InChI=1S/C7H10N2O3/c1-4-5(10)8(2)7(12)9(3)6(4)11/h4H,1-3H3
Compound 5: 1,5,5-trimethylbarbituric acid, C7H10N2O3, InChI=1S/C7H10N2O3/c1-7(2)4(10)8-6(12)9(3)5(7)11/h1-3H3,(H,8,10,12)
Compound 6: 1,3,5,5-tetramethylpyrimidine-2,4,6(1H,3H,5H)-trione, C8H12N2O3, InChI=1S/C8H12N2O3/c1-8(2)5(11)9(3)7(13)10(4)6(8)12/h1-4H3

System: 1,3-dimethylbarbituric acid; phases: Crystal, Liquid, Air at 1 atmosphere
Property: Molar enthalpy of transition or fusion, kJ/mol (Crystal); method: DSC
Molar enthalpy of transition or fusion, kJ/mol	uncertainty
17.7	0.4

System: 1,3-dimethylbarbituric acid; phases: Crystal, Liquid, Air at 1 atmosphere
Property: Normal melting temperature, K (Crystal); method: DTA
Normal melting temperature, K	uncertainty
396.1	0.7

System: 1,3-dimethylbarbituric acid; phases: Crystal
Fixed: Pressure, kPa = 101.325
Property: Molar heat capacity at constant pressure, J/K/mol (Crystal); method: Small sample (50 mg) DSC
Temperature, K	Molar heat capacity at constant pressure, J/K/mol	uncertainty
268.15	175.7	4.3
270.15	176.7	4.3
275.15	178.7	4.4
280.15	180.8	4.4
285.15	182.6	4.5
290.15	185.3	4.5
295.15	187.4	4.6
298.15	188.5	4.6
300.15	189.5	4.6
305.15	191.6	4.7
310.15	193.9	4.7
315.15	197.5	4.8
320.15	199.9	4.9
325.15	202.7	5
330.15	204.9	5
335.15	206.8	5.1
340.15	208.9	5.1
345.15	211.5	5.2
350.15	214.3	5.2
355.15	216.9	5.3
360.15	219.7	5.4
365.15	223.5	5.5
370.15	227.2	5.6

System: 5,5-dimethylbarbituric acid; phases: Crystal, Liquid, Air at 1 atmosphere
Property: Molar enthalpy of transition or fusion, kJ/mol (Crystal); method: DSC
Molar enthalpy of transition or fusion, kJ/mol	uncertainty
37.9	1

System: 5,5-dimethylbarbituric acid; phases: Crystal, Liquid, Air at 1 atmosphere
Property: Normal melting temperature, K (Crystal); method: DTA
Normal melting temperature, K	uncertainty
549.3	1.8

System: 5,5-dimethylbarbituric acid; phases: Crystal
Fixed: Pressure, kPa = 101.325
Property: Molar heat capacity at constant pressure, J/K/mol (Crystal); method: Small sample (50 mg) DSC
Temperature, K	Molar heat capacity at constant pressure, J/K/mol	uncertainty
268.15	173.9	4.3
270.15	175.5	4.3
275.15	179.2	4.4
280.15	182.2	4.5
285.15	184.4	4.5
290.15	187	4.6
295.15	188.8	4.6
298.15	190.5	4.7
300.15	191.4	4.7
305.15	194.5	4.8
310.15	196.5	4.8
315.15	199.1	4.9
320.15	201.5	4.9
325.15	203.3	5
330.15	205.3	5
335.15	207.5	5.1
340.15	208.9	5.1
345.15	211.2	5.2
350.15	214.3	5.2
355.15	217.5	5.3
360.15	219.2	5.4
365.15	220.9	5.4
370.15	222.4	5.4
375.15	226.2	5.5
380.15	228.2	5.6
385.15	228.4	5.6
390.15	232	5.7
395.15	233.8	5.7
400.15	236	5.8
405.15	238.4	5.8
410.15	240.2	5.9
415.15	242.3	5.9
420.15	246.2	6
425.15	247.9	6.1
430.15	250.7	6.1
435.15	253.7	6.2
440.15	255	6.2
445.15	258.9	6.3
450.15	261.5	6.4
455.15	264.4	6.5
460.15	266.9	6.5
465.15	270	6.6
470.15	273.4	6.7
475.15	275.8	6.8
480.15	278.7	6.8
485.15	282.3	6.9
490.15	285.4	7
495.15	288.2	7.1
500.15	292.4	7.2
505.15	296.6	7.3
510.15	298.4	7.3
515.15	301.5	7.4
520.15	304.5	7.5
525.15	308	7.5

System: 1,3-diethylbarbituric acid; phases: Crystal, Liquid, Air at 1 atmosphere
Property: Molar enthalpy of transition or fusion, kJ/mol (Crystal); method: DSC
Molar enthalpy of transition or fusion, kJ/mol	uncertainty
19.6	0.5

System: 1,3-diethylbarbituric acid; phases: Crystal, Liquid, Air at 1 atmosphere
Property: Normal melting temperature, K (Crystal); method: DTA
Normal melting temperature, K	uncertainty
326.8	0.5

System: 1,3-diethylbarbituric acid; phases: Crystal
Fixed: Pressure, kPa = 101.325
Property: Molar heat capacity at constant pressure, J/K/mol (Crystal); method: Small sample (50 mg) DSC
Temperature, K	Molar heat capacity at constant pressure, J/K/mol	uncertainty
268.15	223.4	5.5
270.15	225.6	5.5
275.15	230.7	5.7
280.15	234.5	5.7
285.15	238.2	5.8
290.15	242.1	5.9
295.15	246.1	6
298.15	248.5	6.1
300.15	250.3	6.1
305.15	254.2	6.2
310.15	259.8	6.4

System: 1,3,5-trimethylbarbituric acid; phases: Crystal, Liquid, Air at 1 atmosphere
Property: Molar enthalpy of transition or fusion, kJ/mol (Crystal); method: DSC
Molar enthalpy of transition or fusion, kJ/mol	uncertainty
13.7	1.2

System: 1,3,5-trimethylbarbituric acid; phases: Crystal, Liquid, Air at 1 atmosphere
Property: Normal melting temperature, K (Crystal); method: DTA
Normal melting temperature, K	uncertainty
362.6	1.1

System: 1,3,5-trimethylbarbituric acid; phases: Crystal
Fixed: Pressure, kPa = 101.325
Property: Molar heat capacity at constant pressure, J/K/mol (Crystal); method: Small sample (50 mg) DSC
Temperature, K	Molar heat capacity at constant pressure, J/K/mol	uncertainty
268.15	207.8	5.1
270.15	209.3	5.1
275.15	213	5.2
280.15	217	5.3
285.15	220.6	5.4
290.15	224.7	5.5
295.15	228.5	5.6
298.15	230.9	5.7
300.15	232.6	5.7
305.15	236.6	5.8
310.15	241.1	5.9
315.15	244.1	6
320.15	249.4	6.1
325.15	253.2	6.2
330.15	258.1	6.3
335.15	265.1	6.5
340.15	272.4	6.7

System: 1,5,5-trimethylbarbituric acid; phases: Crystal, Liquid, Air at 1 atmosphere
Property: Molar enthalpy of transition or fusion, kJ/mol (Crystal); method: DSC
Molar enthalpy of transition or fusion, kJ/mol	uncertainty
30.2	0.7

System: 1,5,5-trimethylbarbituric acid; phases: Crystal, Liquid, Air at 1 atmosphere
Property: Normal melting temperature, K (Crystal); method: DTA
Normal melting temperature, K	uncertainty
434.5	0.5

System: 1,5,5-trimethylbarbituric acid; phases: Crystal
Fixed: Pressure, kPa = 101.325
Property: Molar heat capacity at constant pressure, J/K/mol (Crystal); method: Small sample (50 mg) DSC
Temperature, K	Molar heat capacity at constant pressure, J/K/mol	uncertainty
268.15	199.9	4.9
270.15	200.9	4.9
275.15	203.2	5
280.15	205.3	5
285.15	207.5	5.1
290.15	209.8	5.1
295.15	212.2	5.2
298.15	213.6	5.2
300.15	214.6	5.3
305.15	216.7	5.3
310.15	218.9	5.4
315.15	221.4	5.4
320.15	223.9	5.5
325.15	225.6	5.5
330.15	227.8	5.6
335.15	230.3	5.6
340.15	233	5.7
345.15	235.5	5.8
350.15	237.8	5.8
355.15	241	5.9
360.15	243	6
365.15	246	6
370.15	249.2	6.1
375.15	251.1	6.2
380.15	253.4	6.2
385.15	256.3	6.3
390.15	259.8	6.4
395.15	264.2	6.5
400.15	267.3	6.5
405.15	273.2	6.7
410.15	276.5	6.8
415.15	279.4	6.8

System: 1,3,5,5-tetramethylpyrimidine-2,4,6(1H,3H,5H)-trione; phases: Crystal, Liquid, Air at 1 atmosphere
Property: Molar enthalpy of transition or fusion, kJ/mol (Crystal); method: DSC
Molar enthalpy of transition or fusion, kJ/mol	uncertainty
18.5	1.6

System: 1,3,5,5-tetramethylpyrimidine-2,4,6(1H,3H,5H)-trione; phases: Crystal, Liquid, Air at 1 atmosphere
Property: Normal melting temperature, K (Crystal); method: DTA
Normal melting temperature, K	uncertainty
382.2	0.5

System: 1,3,5,5-tetramethylpyrimidine-2,4,6(1H,3H,5H)-trione; phases: Crystal
Fixed: Pressure, kPa = 101.325
Property: Molar heat capacity at constant pressure, J/K/mol (Crystal); method: Small sample (50 mg) DSC
Temperature, K	Molar heat capacity at constant pressure, J/K/mol	uncertainty
268.15	217.2	5.3
270.15	218.1	5.3
275.15	221	5.4
280.15	223.6	5.5
285.15	226.4	5.5
290.15	229.3	5.6
295.15	232.2	5.7
298.15	234.2	5.7
300.15	235.4	5.8
305.15	238.6	5.8
310.15	243	6
315.15	246.5	6
320.15	249.6	6.1
325.15	252.3	6.2
330.15	255	6.2
335.15	258.8	6.3
340.15	261.8	6.4
345.15	264.8	6.5
350.15	268.6	6.6
355.15	272.1	6.7
360.15	276.3	6.8
365.15	280	6.9
370.15	285.1	7
