Measured thermophysical data. Synthesis, Crystal Structure, and Thermal Properties of a Holmium(III) Benzoate Complex with 1,10-Phenanthroline
Source: J. Chem. Eng. Data, 2010, 10.1021/je100561t
Compound 1: tetrakis[.mu.-(benzoato-.kappa.O:.kappa.O')]bis(benzoato-.kappa.O,.kappa.O')bis(1,10-phenanthroline-.kappa.N1,.kappa.N10)diholmium, C66H46Ho2N4O12, InChI=1S/2C12H8N2.6C7H6O2.2Ho/c2*1-3-9-5-6-10-4-2-8-14-12(10)11(9)13-7-1;6*8-7(9)6-4-2-1-3-5-6;;/h2*1-8H;6*1-5H,(H,8,9);;/q;;;;;;;;2*+3/p-6

System: tetrakis[.mu.-(benzoato-.kappa.O:.kappa.O')]bis(benzoato-.kappa.O,.kappa.O')bis(1,10-phenanthroline-.kappa.N1,.kappa.N10)diholmium; phases: Crystal
Fixed: Pressure, kPa = 101.325
Property: Molar heat capacity at constant pressure, J/K/mol (Crystal); method: Small sample (50 mg) DSC
Temperature, K	Molar heat capacity at constant pressure, J/K/mol	uncertainty
254	1052.746	17.105
257	1065.475	17.312
260	1078.444	17.523
263	1091.825	17.74
266	1104.157	17.941
269	1118.907	18.18
272	1130.488	18.368
275	1143.311	18.577
278	1156.29	18.79
281	1167.201	18.965
284	1178.343	19.146
287	1190.854	19.349
290	1203.073	19.548
293	1217.809	19.787
296	1229.928	19.984
299	1243.885	20.211
302	1260.312	20.478
305	1273.707	20.695
308	1285.396	20.885
311	1297.431	21.081
314	1308.469	21.26
317	1321.226	21.468
320	1333.756	21.671
323	1340.983	21.788
326	1347.33	21.89
329	1362.954	22.146
332	1372.268	22.297
335	1379.863	22.42
338	1390.183	22.588
341	1399.393	22.738
344	1408.901	22.892
347	1416.17	23.01
350	1425.767	23.166
353	1437.66	23.36
356	1447.895	23.526
359	1459.126	23.708
362	1468.648	23.863
365	1482.954	24.095
368	1493.449	24.266
371	1497.062	24.324
374	1516.172	24.635
377	1526.293	24.799
380	1538.394	24.996
383	1550.117	25.187
386	1558.869	25.329
389	1570.776	25.522
392	1579.825	25.669
395	1593.564	25.892
398	1605.301	26.083
401	1614.719	26.236
404	1626.565	26.429
407	1639.199	26.634
410	1649.434	26.8
413	1660.647	26.982
416	1668.841	27.116
419	1680.668	27.308
422	1693.51	27.52
425	1702.848	27.668
428	1716.101	27.883
431	1730.624	28.119
434	1742.021	28.305
437	1750.046	28.435
440	1766.992	28.71
443	1778.866	28.903
446	1789.191	29.071
449	1798.948	29.229
452	1805.925	29.343
455	1815.588	29.5
458	1822.229	29.608
461	1829.479	29.726
464	1837.56	29.86
467	1844.862	29.976
470	1855.04	30.14
