Measured thermophysical data. Densities, partial molar volumes at infinite dilution, side  chain partial molar volumes and transfer volumes of  dipeptides in sucrose and 2,3- butanediol aqueous solutions  at T = (283.15 - 333.15) K
Source: J. Chem. Eng. Data, 2011, 10.1021/je100703r
Compound 1: D-sucrose, C12H22O11, InChI=1S/C12H22O11/c13-1-4-6(16)8(18)9(19)11(21-4)23-12(3-15)10(20)7(17)5(2-14)22-12/h4-11,13-20H,1-3H2/t4-,5-,6-,7-,8+,9-,10+,11-,12+/m1/s1, purity 99%
Compound 2: glycylglycine, C4H8N2O3, InChI=1S/C4H8N2O3/c5-1-3(7)6-2-4(8)9/h1-2,5H2,(H,6,7)(H,8,9), purity 98%
Compound 3: water, H2O, InChI=1S/H2O/h1H2, purity 99.5%
Compound 4: glycyl-L-valine, C7H14N2O3, InChI=1S/C7H14N2O3/c1-4(2)6(7(11)12)9-5(10)3-8/h4,6H,3,8H2,1-2H3,(H,9,10)(H,11,12)/t6-/m0/s1, purity 99%
Compound 5: glycyl-L-leucine, C8H16N2O3, InChI=1S/C8H16N2O3/c1-5(2)3-6(8(12)13)10-7(11)4-9/h5-6H,3-4,9H2,1-2H3,(H,10,11)(H,12,13)/t6-/m0/s1, purity 99%
Compound 6: Glycylphenylalanine, C11H14N2O3, InChI=1S/C11H14N2O3/c12-7-10(14)13-9(11(15)16)6-8-4-2-1-3-5-8/h1-5,9H,6-7,12H2,(H,13,14)(H,15,16), purity 99%
Compound 7: lithium sulfate, Li2O4S, InChI=1S/2Li.H2O4S/c;;1-5(2,3)4/h;;(H2,1,2,3,4)/q2*+1;/p-2, purity 99%
Compound 8: 2,3-butanediol, C4H10O2, InChI=1S/C4H10O2/c1-3(5)4(2)6/h3-6H,1-2H3, purity 97%

System: D-sucrose + glycylglycine + water; phases: Liquid
Fixed: Pressure, kPa = 101
Property: Mass density, kg/m3 (Liquid); method: VIBTUB:UFactor:6
Temperature, K	Molality, mol/kg of glycylglycine	Solvent: Mass fraction of D-sucrose	Mass density, kg/m3	uncertainty
283.15	0.0098	0.2	1084.336	0.703
283.15	0.0101	0.05	1021.218	0.52
283.15	0.0103	0.1	1041.001	0.576
283.15	0.0491	0.2	1086.441	0.709
283.15	0.0503	0.05	1023.467	0.527
283.15	0.0515	0.1	1043.27	0.583
283.15	0.1473	0.2	1091.622	0.724
283.15	0.1509	0.05	1029.002	0.542
283.15	0.1545	0.1	1048.847	0.6
283.15	0.2455	0.2	1096.689	0.739
283.15	0.2516	0.05	1034.414	0.558
283.15	0.2575	0.1	1054.29	0.615
283.15	0.491	0.2	1108.874	0.775
283.15	0.5032	0.05	1047.381	0.595
283.15	0.5149	0.1	1067.315	0.653
283.15	0.982	0.2	1131.295	0.841
283.15	1.0063	0.05	1071.06	0.664
283.15	1.0298	0.1	1091.038	0.722
293.15	0.0098	0.2	1080.971	0.693
293.15	0.0101	0.05	1019.403	0.516
293.15	0.0103	0.1	1038.904	0.571
293.15	0.0491	0.2	1083.05	0.699
293.15	0.0503	0.05	1021.613	0.521
293.15	0.0515	0.1	1041.143	0.577
293.15	0.1473	0.2	1088.166	0.714
293.15	0.1509	0.05	1027.052	0.537
293.15	0.1545	0.1	1046.647	0.593
293.15	0.2455	0.2	1093.174	0.729
293.15	0.2516	0.05	1032.371	0.552
293.15	0.2575	0.1	1052.019	0.609
293.15	0.491	0.2	1105.232	0.764
293.15	0.5032	0.05	1045.122	0.589
293.15	0.5149	0.1	1064.886	0.646
293.15	0.982	0.2	1127.479	0.829
293.15	1.0063	0.05	1068.435	0.656
293.15	1.0298	0.1	1088.351	0.714
303.15	0.0098	0.2	1077.624	0.683
303.15	0.0101	0.05	1016.594	0.507
303.15	0.0103	0.1	1035.871	0.562
303.15	0.0491	0.2	1079.652	0.689
303.15	0.0503	0.05	1018.765	0.513
303.15	0.0515	0.1	1038.063	0.568
303.15	0.1473	0.2	1084.647	0.704
303.15	0.1509	0.05	1024.111	0.528
303.15	0.1545	0.1	1043.453	0.584
303.15	0.2455	0.2	1089.536	0.718
303.15	0.2516	0.05	1029.341	0.543
303.15	0.2575	0.1	1048.715	0.599
303.15	0.491	0.2	1101.312	0.752
303.15	0.5032	0.05	1041.889	0.579
303.15	0.5149	0.1	1061.322	0.635
303.15	0.982	0.2	1123.06	0.816
303.15	1.0063	0.05	1064.874	0.646
303.15	1.0298	0.1	1084.348	0.703
313.16	0.0098	0.2	1074.232	0.673
313.16	0.0101	0.05	1012.973	0.497
313.16	0.0103	0.1	1031.973	0.55
313.16	0.0491	0.2	1076.197	0.679
313.16	0.0503	0.05	1015.124	0.502
313.16	0.0515	0.1	1034.127	0.557
313.16	0.1473	0.2	1081.032	0.693
313.16	0.1509	0.05	1020.422	0.518
313.16	0.1545	0.1	1039.422	0.572
313.16	0.2455	0.2	1085.767	0.707
313.16	0.2516	0.05	1025.606	0.532
313.16	0.2575	0.1	1044.593	0.587
313.16	0.491	0.2	1097.175	0.74
313.16	0.5032	0.05	1038.055	0.568
313.16	0.5149	0.1	1056.991	0.623
313.16	0.982	0.2	1118.263	0.802
313.16	1.0063	0.05	1060.899	0.634
313.16	1.0298	0.1	1079.667	0.689
323.15	0.0098	0.2	1070.896	0.664
323.15	0.0101	0.05	1008.631	0.484
323.15	0.0103	0.1	1027.195	0.536
323.15	0.0491	0.2	1072.834	0.669
323.15	0.0503	0.05	1010.748	0.49
323.15	0.0515	0.1	1029.318	0.543
323.15	0.1473	0.2	1077.604	0.683
323.15	0.1509	0.05	1015.963	0.505
323.15	0.1545	0.1	1034.54	0.558
323.15	0.2455	0.2	1082.275	0.697
323.15	0.2516	0.05	1021.068	0.519
323.15	0.2575	0.1	1039.639	0.573
323.15	0.491	0.2	1093.53	0.729
323.15	0.5032	0.05	1033.329	0.554
323.15	0.5149	0.1	1051.867	0.608
323.15	0.982	0.2	1114.334	0.791
323.15	1.0063	0.05	1055.848	0.62
323.15	1.0298	0.1	1074.239	0.673
333.15	0.0098	0.2	1067.572	0.654
333.15	0.0101	0.05	1003.487	0.469
333.15	0.0103	0.1	1021.241	0.517
333.15	0.0491	0.2	1069.452	0.659
333.15	0.0503	0.05	1005.572	0.475
333.15	0.0515	0.1	1023.322	0.525
333.15	0.1473	0.2	1074.082	0.673
333.15	0.1509	0.05	1010.712	0.49
333.15	0.1545	0.1	1028.438	0.54
333.15	0.2455	0.2	1078.614	0.686
333.15	0.2516	0.05	1015.748	0.504
333.15	0.2575	0.1	1033.435	0.555
333.15	0.491	0.2	1089.527	0.718
333.15	0.5032	0.05	1027.865	0.539
333.15	0.5149	0.1	1045.413	0.589
333.15	0.982	0.2	1109.68	0.777
333.15	1.0063	0.05	1050.21	0.603
333.15	1.0298	0.1	1067.32	0.653

System: D-sucrose + glycyl-L-valine + water; phases: Liquid
Fixed: Pressure, kPa = 101
Property: Mass density, kg/m3 (Liquid); method: VIBTUB:UFactor:6
Temperature, K	Molality, mol/kg of glycyl-L-valine	Solvent: Mass fraction of D-sucrose	Mass density, kg/m3	uncertainty
283.15	0.01	0.05	1021.218	0.19
283.15	0.0101	0.1	1040.983	0.195
283.15	0.0104	0.2	1084.34	0.231
283.15	0.025	0.05	1022.063	0.191
283.15	0.0253	0.1	1041.812	0.203
283.15	0.026	0.2	1085.134	0.231
283.15	0.0399	0.05	1022.897	0.191
283.15	0.0405	0.1	1042.638	0.202
283.15	0.0416	0.2	1085.925	0.231
283.15	0.0749	0.05	1024.84	0.192
283.15	0.0759	0.1	1044.544	0.206
283.15	0.078	0.2	1087.753	0.233
283.15	0.0998	0.05	1026.207	0.193
283.15	0.1012	0.1	1045.893	0.205
283.15	0.104	0.2	1089.045	0.233
283.15	0.1298	0.05	1027.839	0.194
283.15	0.1315	0.1	1047.493	0.215
283.15	0.1352	0.2	1090.58	0.234
293.15	0.01	0.05	1019.406	0.197
293.15	0.0101	0.1	1038.882	0.198
293.15	0.0104	0.2	1080.987	0.228
293.15	0.025	0.05	1020.244	0.19
293.15	0.0253	0.1	1039.692	0.202
293.15	0.026	0.2	1081.781	0.229
293.15	0.0399	0.05	1021.071	0.191
293.15	0.0405	0.1	1040.499	0.201
293.15	0.0416	0.2	1082.571	0.229
293.15	0.0749	0.05	1022.999	0.191
293.15	0.0759	0.1	1042.361	0.203
293.15	0.078	0.2	1084.399	0.23
293.15	0.0998	0.05	1024.356	0.192
293.15	0.1012	0.1	1043.679	0.204
293.15	0.104	0.2	1085.691	0.231
293.15	0.1298	0.05	1025.976	0.19
293.15	0.1315	0.1	1045.242	0.207
293.15	0.1352	0.2	1087.227	0.232
303.15	0.01	0.05	1016.595	0.193
303.15	0.0101	0.1	1035.855	0.196
303.15	0.0104	0.2	1077.63	0.226
303.15	0.025	0.05	1017.418	0.188
303.15	0.0253	0.1	1036.664	0.2
303.15	0.026	0.2	1078.403	0.226
303.15	0.0399	0.05	1018.23	0.189
303.15	0.0405	0.1	1037.468	0.199
303.15	0.0416	0.2	1079.172	0.227
303.15	0.0749	0.05	1020.122	0.189
303.15	0.0759	0.1	1039.326	0.201
303.15	0.078	0.2	1080.951	0.228
303.15	0.0998	0.05	1021.455	0.19
303.15	0.1012	0.1	1040.641	0.202
303.15	0.104	0.2	1082.209	0.229
303.15	0.1298	0.05	1023.046	0.188
303.15	0.1315	0.1	1042.201	0.204
303.15	0.1352	0.2	1083.705	0.229
313.16	0.01	0.05	1012.968	0.19
313.16	0.0101	0.1	1031.954	0.191
313.16	0.0104	0.2	1074.231	0.223
313.16	0.025	0.05	1013.774	0.185
313.16	0.0253	0.1	1032.738	0.197
313.16	0.026	0.2	1074.968	0.223
313.16	0.0399	0.05	1014.571	0.186
313.16	0.0405	0.1	1033.519	0.196
313.16	0.0416	0.2	1075.702	0.224
313.16	0.0749	0.05	1016.426	0.186
313.16	0.0759	0.1	1035.323	0.199
313.16	0.078	0.2	1077.398	0.225
313.16	0.0998	0.05	1017.733	0.187
313.16	0.1012	0.1	1036.6	0.199
313.16	0.104	0.2	1078.597	0.226
313.16	0.1298	0.05	1019.294	0.186
313.16	0.1315	0.1	1038.115	0.203
313.16	0.1352	0.2	1080.023	0.227
323.15	0.01	0.05	1008.616	0.187
323.15	0.0101	0.1	1027.166	0.187
323.15	0.0104	0.2	1070.882	0.22
323.15	0.025	0.05	1009.393	0.182
323.15	0.0253	0.1	1027.924	0.193
323.15	0.026	0.2	1071.59	0.221
323.15	0.0399	0.05	1010.162	0.183
323.15	0.0405	0.1	1028.678	0.192
323.15	0.0416	0.2	1072.294	0.221
323.15	0.0749	0.05	1011.953	0.183
323.15	0.0759	0.1	1030.42	0.195
323.15	0.078	0.2	1073.923	0.222
323.15	0.0998	0.05	1013.214	0.184
323.15	0.1012	0.1	1031.653	0.195
323.15	0.104	0.2	1075.075	0.223
323.15	0.1298	0.05	1014.72	0.183
323.15	0.1315	0.1	1033.116	0.202
323.15	0.1352	0.2	1076.444	0.224
333.15	0.01	0.05	1003.467	0.178
333.15	0.0101	0.1	1021.204	0.21
333.15	0.0104	0.2	1067.55	0.218
333.15	0.025	0.05	1004.226	0.178
333.15	0.0253	0.1	1021.939	0.189
333.15	0.026	0.2	1068.224	0.218
333.15	0.0399	0.05	1004.976	0.179
333.15	0.0405	0.1	1022.671	0.185
333.15	0.0416	0.2	1068.895	0.219
333.15	0.0749	0.05	1006.723	0.18
333.15	0.0759	0.1	1024.361	0.192
333.15	0.078	0.2	1070.448	0.22
333.15	0.0998	0.05	1007.955	0.18
333.15	0.1012	0.1	1025.557	0.19
333.15	0.104	0.2	1071.546	0.22
333.15	0.1298	0.05	1009.424	0.181
333.15	0.1315	0.1	1026.977	0.223
333.15	0.1352	0.2	1072.851	0.221

System: D-sucrose + glycyl-L-leucine + water; phases: Liquid
Fixed: Pressure, kPa = 101
Property: Mass density, kg/m3 (Liquid); method: VIBTUB:UFactor:6
Temperature, K	Molality, mol/kg of glycyl-L-leucine	Solvent: Mass fraction of D-sucrose	Mass density, kg/m3	uncertainty
303.15	0.01	0.05	1016.519	0.369
303.15	0.01	0.1	1035.778	0.417
303.15	0.0101	0.2	1077.513	0.528
303.15	0.02	0.05	1016.993	0.37
303.15	0.02	0.1	1036.225	0.419
303.15	0.0201	0.2	1077.91	0.529
303.15	0.04	0.05	1017.936	1.106
303.15	0.04	0.1	1037.113	0.423
303.15	0.0402	0.2	1078.698	0.531
303.15	0.06	0.05	1018.871	0.641
303.15	0.06	0.1	1037.992	0.425
303.15	0.0602	0.2	1079.479	0.533
303.15	0.08	0.05	1019.799	0.378
303.15	0.08	0.1	1038.865	0.427
303.15	0.0803	0.2	1080.252	0.535
303.15	0.1	0.05	1020.719	0.38
303.15	0.1	0.1	1039.73	0.434
303.15	0.1004	0.2	1081.018	0.537
313.16	0.01	0.05	1012.898	0.364
313.16	0.01	0.1	1031.884	0.407
313.16	0.0101	0.2	1074.135	0.519
313.16	0.02	0.05	1013.365	0.361
313.16	0.02	0.1	1032.327	0.409
313.16	0.0201	0.2	1074.527	0.52
313.16	0.04	0.05	1014.295	0.363
313.16	0.04	0.1	1033.206	0.412
313.16	0.0402	0.2	1075.306	0.522
313.16	0.06	0.05	1015.217	0.366
313.16	0.06	0.1	1034.077	0.415
313.16	0.0602	0.2	1076.075	0.524
313.16	0.08	0.05	1016.132	0.368
313.16	0.08	0.1	1034.941	0.417
313.16	0.0803	0.2	1076.837	0.526
313.16	0.1	0.05	1017.039	0.369
313.16	0.1	0.1	1035.796	0.421
313.16	0.1004	0.2	1077.589	0.528
323.15	0.01	0.05	1008.56	0.353
323.15	0.01	0.1	1027.107	0.394
323.15	0.0101	0.2	1070.797	0.51
323.15	0.02	0.05	1009.024	0.35
323.15	0.02	0.1	1027.546	0.397
323.15	0.0201	0.2	1071.182	0.511
323.15	0.04	0.05	1009.944	0.352
323.15	0.04	0.1	1028.418	0.4
323.15	0.0402	0.2	1071.944	0.513
323.15	0.06	0.05	1010.857	0.354
323.15	0.06	0.1	1029.281	0.402
323.15	0.0602	0.2	1072.698	0.515
323.15	0.08	0.05	1011.762	0.357
323.15	0.08	0.1	1030.136	0.404
323.15	0.0803	0.2	1073.443	0.517
323.15	0.1	0.05	1012.66	0.357
323.15	0.1	0.1	1030.983	0.41
323.15	0.1004	0.2	1074.179	0.519
333.15	0.01	0.05	1003.415	0.335
333.15	0.01	0.1	1021.158	0.423
333.15	0.0101	0.2	1067.471	0.502
333.15	0.02	0.05	1003.87	0.336
333.15	0.02	0.1	1021.59	0.38
333.15	0.0201	0.2	1067.841	0.503
333.15	0.04	0.05	1004.775	0.858
333.15	0.04	0.1	1022.446	0.384
333.15	0.0402	0.2	1068.575	0.505
333.15	0.06	0.05	1005.672	0.948
333.15	0.06	0.1	1023.294	0.386
333.15	0.0602	0.2	1069.301	0.506
333.15	0.08	0.05	1006.562	0.343
333.15	0.08	0.1	1024.134	0.389
333.15	0.0803	0.2	1070.017	0.508
333.15	0.1	0.05	1007.444	0.345
333.15	0.1	0.1	1024.966	0.419
333.15	0.1004	0.2	1070.724	0.51

System: D-sucrose + Glycylphenylalanine + water; phases: Liquid
Fixed: Pressure, kPa = 101
Property: Mass density, kg/m3 (Liquid); method: VIBTUB:UFactor:6
Temperature, K	Molality, mol/kg of Glycylphenylalanine	Solvent: Mass fraction of D-sucrose	Mass density, kg/m3	uncertainty
283.15	0.0095	0.2	1084.387	0.548
283.15	0.01	0.05	1021.367	0.385
283.15	0.01	0.1	1041.117	0.431
283.15	0.0189	0.2	1084.956	0.55
283.15	0.02	0.05	1022.08	0.387
283.15	0.02	0.1	1041.799	0.436
283.15	0.0379	0.2	1086.1	0.553
283.15	0.04	0.05	1023.497	0.391
283.15	0.04	0.1	1043.155	0.441
283.15	0.0568	0.2	1087.226	0.556
283.15	0.0599	0.1	1044.493	0.444
283.15	0.0601	0.05	1024.911	0.394
283.15	0.0758	0.2	1088.347	0.558
283.15	0.0799	0.1	1045.828	0.448
283.15	0.0801	0.05	1026.306	0.398
283.15	0.0947	0.2	1089.452	0.561
283.15	0.0999	0.1	1047.151	0.458
283.15	0.1001	0.05	1027.691	0.401
293.15	0.0095	0.2	1081.015	0.539
293.15	0.01	0.05	1019.536	0.388
293.15	0.01	0.1	1039.002	0.427
293.15	0.0189	0.2	1081.566	0.541
293.15	0.02	0.05	1020.227	0.383
293.15	0.02	0.1	1039.655	0.431
293.15	0.0379	0.2	1082.671	0.543
293.15	0.04	0.05	1021.6	0.385
293.15	0.04	0.1	1040.955	0.435
293.15	0.0568	0.2	1083.76	0.546
293.15	0.0599	0.1	1042.237	0.438
293.15	0.0601	0.05	1022.968	0.389
293.15	0.0758	0.2	1084.844	0.549
293.15	0.0799	0.1	1043.514	0.441
293.15	0.0801	0.05	1024.32	0.392
293.15	0.0947	0.2	1085.911	0.552
293.15	0.0999	0.1	1044.781	0.445
293.15	0.1001	0.05	1025.66	0.393
303.15	0.0095	0.2	1077.657	0.53
303.15	0.01	0.05	1016.719	0.379
303.15	0.01	0.1	1035.958	0.419
303.15	0.0189	0.2	1078.186	0.531
303.15	0.02	0.05	1017.394	0.375
303.15	0.02	0.1	1036.586	0.423
303.15	0.0379	0.2	1079.249	0.534
303.15	0.04	0.05	1018.735	0.378
303.15	0.04	0.1	1037.836	0.426
303.15	0.0568	0.2	1080.295	0.537
303.15	0.0599	0.1	1039.068	0.429
303.15	0.0601	0.05	1020.072	0.381
303.15	0.0758	0.2	1081.335	0.54
303.15	0.0799	0.1	1040.296	0.433
303.15	0.0801	0.05	1021.392	0.384
303.15	0.0947	0.2	1082.36	0.542
303.15	0.0999	0.1	1041.514	0.437
303.15	0.1001	0.05	1022.701	0.386
313.16	0.0095	0.2	1074.277	0.521
313.16	0.01	0.05	1013.082	0.368
313.16	0.01	0.1	1032.059	0.408
313.16	0.0189	0.2	1074.801	0.522
313.16	0.02	0.05	1013.733	0.365
313.16	0.02	0.1	1032.68	0.412
313.16	0.0379	0.2	1075.851	0.525
313.16	0.04	0.05	1015.027	0.368
313.16	0.04	0.1	1033.914	0.416
313.16	0.0568	0.2	1076.885	0.528
313.16	0.0599	0.1	1035.13	0.419
313.16	0.0601	0.05	1016.317	0.371
313.16	0.0758	0.2	1077.914	0.53
313.16	0.0799	0.1	1036.342	0.422
313.16	0.0801	0.05	1017.589	0.374
313.16	0.0947	0.2	1078.926	0.533
313.16	0.0999	0.1	1037.544	0.427
313.16	0.1001	0.05	1018.852	0.376
323.15	0.0095	0.2	1070.935	0.512
323.15	0.01	0.05	1008.743	0.358
323.15	0.01	0.1	1027.279	0.394
323.15	0.0189	0.2	1071.449	0.514
323.15	0.02	0.05	1009.389	0.354
323.15	0.02	0.1	1027.893	0.399
323.15	0.0379	0.2	1072.478	0.516
323.15	0.04	0.05	1010.672	0.357
323.15	0.04	0.1	1029.111	0.403
323.15	0.0568	0.2	1073.491	0.519
323.15	0.0599	0.1	1030.313	0.406
323.15	0.0601	0.05	1011.951	0.36
323.15	0.0758	0.2	1074.498	0.521
323.15	0.0799	0.1	1031.51	0.409
323.15	0.0801	0.05	1013.214	0.363
323.15	0.0947	0.2	1075.49	0.524
323.15	0.0999	0.1	1032.696	0.416
323.15	0.1001	0.05	1014.465	0.364
333.15	0.0095	0.2	1067.621	0.504
333.15	0.01	0.05	1003.607	0.339
333.15	0.01	0.1	1021.341	0.417
333.15	0.0189	0.2	1068.132	0.505
333.15	0.02	0.05	1004.253	0.34
333.15	0.02	0.1	1021.959	0.382
333.15	0.0379	0.2	1069.157	0.508
333.15	0.04	0.05	1005.538	0.344
333.15	0.04	0.1	1023.186	0.388
333.15	0.0568	0.2	1070.165	0.51
333.15	0.0599	0.1	1024.397	0.391
333.15	0.0601	0.05	1006.818	0.347
333.15	0.0758	0.2	1071.168	0.513
333.15	0.0799	0.1	1025.603	0.394
333.15	0.0801	0.05	1008.081	0.35
333.15	0.0947	0.2	1072.154	0.515
333.15	0.0999	0.1	1026.798	0.427
333.15	0.1001	0.05	1009.334	0.353

System: D-sucrose + water + lithium sulfate; phases: Liquid
Fixed: Pressure, kPa = 101
Property: Mass density, kg/m3 (Liquid); method: VIBTUB:UFactor:6
Temperature, K	Molality, mol/kg of lithium sulfate	Solvent: Mass fraction of D-sucrose	Mass density, kg/m3	uncertainty
303.15	0.01	0.05	1016.519	0.367
303.15	0.01	0.1	1035.778	0.418
303.15	0.01	0.2	1077.813	0.532
303.15	0.02	0.1	1036.225	0.421
303.15	0.025	0.05	1016.993	0.37
303.15	0.025	0.2	1078.858	0.535
303.15	0.04	0.05	1017.936	0.371
303.15	0.04	0.1	1037.113	1.867
303.15	0.04	0.2	1079.898	0.537
303.15	0.06	0.1	1037.992	0.425
303.15	0.075	0.05	1018.871	0.374
303.15	0.075	0.2	1082.299	0.544
303.15	0.08	0.1	1038.865	0.426
303.15	0.1	0.05	1019.799	0.376
303.15	0.1	0.1	1039.73	0.437
303.15	0.1	0.2	1083.994	0.548
303.15	0.13	0.05	1020.719	0.378
303.15	0.13	0.2	1086.005	0.553
313.16	0.01	0.05	1012.898	0.36
313.16	0.01	0.1	1031.884	0.406
313.16	0.01	0.2	1074.424	0.523
313.16	0.02	0.1	1032.327	0.412
313.16	0.025	0.05	1013.365	0.361
313.16	0.025	0.2	1075.453	0.526
313.16	0.04	0.05	1014.295	0.362
313.16	0.04	0.1	1033.206	0.412
313.16	0.04	0.2	1076.474	0.528
313.16	0.06	0.1	1034.077	0.414
313.16	0.075	0.05	1015.217	0.364
313.16	0.075	0.2	1078.834	0.534
313.16	0.08	0.1	1034.941	0.415
313.16	0.1	0.05	1016.132	0.367
313.16	0.1	0.1	1035.796	0.422
313.16	0.1	0.2	1080.498	0.539
313.16	0.13	0.05	1017.039	0.368
313.16	0.13	0.2	1082.472	0.544
323.15	0.01	0.05	1008.56	0.349
323.15	0.01	0.1	1027.107	0.394
323.15	0.01	0.2	1071.089	0.514
323.15	0.02	0.1	1027.546	0.401
323.15	0.025	0.05	1009.024	0.35
323.15	0.025	0.2	1072.104	0.517
323.15	0.04	0.05	1009.944	0.351
323.15	0.04	0.1	1028.418	0.4
323.15	0.04	0.2	1073.113	0.519
323.15	0.06	0.1	1029.281	0.402
323.15	0.075	0.05	1010.857	0.352
323.15	0.075	0.2	1075.442	0.525
323.15	0.08	0.1	1030.136	0.403
323.15	0.1	0.05	1011.762	0.355
323.15	0.1	0.1	1030.983	0.412
323.15	0.1	0.2	1077.085	0.53
323.15	0.13	0.05	1012.66	0.357
323.15	0.13	0.2	1079.032	0.535
333.15	0.01	0.05	1003.415	0.333
333.15	0.01	0.1	1021.158	0.426
333.15	0.01	0.2	1067.771	0.506
333.15	0.02	0.1	1021.59	0.384
333.15	0.025	0.05	1003.87	0.336
333.15	0.025	0.2	1068.776	0.508
333.15	0.04	0.05	1004.775	0.337
333.15	0.04	0.1	1022.446	2.882
333.15	0.04	0.2	1069.773	0.511
333.15	0.06	0.1	1023.294	0.386
333.15	0.075	0.05	1005.672	0.339
333.15	0.075	0.2	1072.075	0.517
333.15	0.08	0.1	1024.134	0.387
333.15	0.1	0.05	1006.562	0.342
333.15	0.1	0.1	1024.966	0.424
333.15	0.1	0.2	1073.698	0.521
333.15	0.13	0.05	1007.444	0.344
333.15	0.13	0.2	1075.621	0.526

System: 2,3-butanediol + glycylglycine + water; phases: Liquid
Fixed: Solvent: Mass fraction of 2,3-butanediol = 0.05
Fixed: Pressure, kPa = 101
Property: Mass density, kg/m3 (Liquid); method: VIBTUB:UFactor:6
Temperature, K	Molality, mol/kg of glycylglycine	Mass density, kg/m3	uncertainty
283.15	0.0098	1002.548	0.873
283.15	0.049	1004.746	0.881
283.15	0.1469	1010.154	0.901
283.15	0.2448	1015.445	0.92
283.15	0.4896	1028.185	0.967
283.15	0.9791	1051.649	1.055
293.15	0.0098	1000.868	0.867
293.15	0.049	1003.035	0.874
293.15	0.1469	1008.368	0.894
293.15	0.2448	1013.589	0.913
293.15	0.4896	1026.165	0.96
293.15	0.9791	1049.358	1.047
303.15	0.0098	998.137	0.865
303.15	0.049	1000.264	0.864
303.15	0.1469	1005.498	0.883
303.15	0.2448	1010.623	0.902
303.15	0.4896	1022.975	0.948
303.15	0.9791	1045.785	1.033
313.16	0.0098	994.537	0.869
313.16	0.049	996.643	0.866
313.16	0.1469	1001.827	0.87
313.16	0.2448	1006.904	0.888
313.16	0.4896	1019.144	0.934
313.16	0.9791	1041.768	1.018
323.15	0.0098	990.18	0.873
323.15	0.049	992.228	0.871
323.15	0.1469	997.272	0.866
323.15	0.2448	1002.212	0.871
323.15	0.4896	1014.126	0.915
323.15	0.9791	1036.169	0.997
333.15	0.0098	985.18	0.878
333.15	0.049	987.191	0.876
333.15	0.1469	992.139	0.871
333.15	0.2448	996.986	0.866
333.15	0.4896	1008.672	0.895
333.15	0.9791	1030.282	0.975

System: 2,3-butanediol + glycyl-L-valine + water; phases: Liquid
Fixed: Solvent: Mass fraction of 2,3-butanediol = 0.05
Fixed: Pressure, kPa = 101
Property: Mass density, kg/m3 (Liquid); method: VIBTUB:UFactor:6
Temperature, K	Molality, mol/kg of glycyl-L-valine	Mass density, kg/m3	uncertainty
283.15	0.01	1002.555	0.646
283.15	0.025	1003.399	0.648
283.15	0.0401	1004.244	0.651
283.15	0.0752	1006.192	0.657
283.15	0.1003	1007.572	0.662
283.15	0.1304	1009.213	0.667
293.15	0.01	1000.892	0.643
293.15	0.025	1001.746	0.643
293.15	0.0401	1002.603	0.646
293.15	0.0752	1004.577	0.652
293.15	0.1003	1005.976	0.657
293.15	0.1304	1007.639	0.661
303.15	0.01	998.161	0.642
303.15	0.025	998.999	0.639
303.15	0.0401	999.838	0.638
303.15	0.0752	1001.774	0.643
303.15	0.1003	1003.146	0.648
303.15	0.1304	1004.776	0.652
313.16	0.01	994.555	0.647
313.16	0.025	995.376	0.644
313.16	0.0401	996.199	0.643
313.16	0.0752	998.098	0.64
313.16	0.1003	999.442	0.638
313.16	0.1304	1001.041	0.64
323.15	0.01	990.184	0.653
323.15	0.025	990.969	0.65
323.15	0.0401	991.755	0.649
323.15	0.0752	993.568	0.646
323.15	0.1003	994.852	0.645
323.15	0.1304	996.379	0.642
333.15	0.01	985.18	0.659
333.15	0.025	985.943	0.658
333.15	0.0401	986.708	0.657
333.15	0.0752	988.472	0.654
333.15	0.1003	989.722	0.652
333.15	0.1304	991.209	0.65

System: 2,3-butanediol + glycyl-L-leucine + water; phases: Liquid
Fixed: Solvent: Mass fraction of 2,3-butanediol = 0.05
Fixed: Pressure, kPa = 101
Property: Mass density, kg/m3 (Liquid); method: VIBTUB:UFactor:6
Temperature, K	Molality, mol/kg of glycyl-L-leucine	Mass density, kg/m3	uncertainty
303.15	0.01	998.101	0.64
303.15	0.02	998.6	0.639
303.15	0.04	999.593	0.638
303.15	0.0599	1000.573	0.639
303.15	0.0799	1001.551	0.642
303.15	0.0999	1002.521	0.645
313.16	0.01	994.493	0.647
313.16	0.02	994.979	0.644
313.16	0.04	995.945	0.643
313.16	0.0599	996.898	0.641
313.16	0.0799	997.849	0.64
313.16	0.0999	998.792	0.638
323.15	0.01	990.144	0.653
323.15	0.02	990.628	0.651
323.15	0.04	991.589	0.649
323.15	0.0599	992.538	0.648
323.15	0.0799	993.484	0.646
323.15	0.0999	994.422	0.644
333.15	0.01	985.147	0.659
333.15	0.02	985.623	0.658
333.15	0.04	986.569	0.656
333.15	0.0599	987.503	0.655
333.15	0.0799	988.433	0.654
333.15	0.0999	989.356	0.652

System: 2,3-butanediol + Glycylphenylalanine + water; phases: Liquid
Fixed: Solvent: Mass fraction of 2,3-butanediol = 0.05
Fixed: Pressure, kPa = 101
Property: Mass density, kg/m3 (Liquid); method: VIBTUB:UFactor:6
Temperature, K	Molality, mol/kg of Glycylphenylalanine	Mass density, kg/m3	uncertainty
283.15	0.01	1002.761	0.648
283.15	0.0199	1003.509	0.651
283.15	0.0398	1005.006	0.656
283.15	0.0597	1006.492	0.66
283.15	0.0796	1007.969	0.665
283.15	0.0995	1009.435	0.67
293.15	0.01	1001.067	0.648
293.15	0.0199	1001.796	0.646
293.15	0.0398	1003.253	0.65
293.15	0.0597	1004.7	0.654
293.15	0.0796	1006.136	0.659
293.15	0.0995	1007.563	0.662
303.15	0.01	998.335	0.645
303.15	0.0199	999.045	0.641
303.15	0.0398	1000.466	0.64
303.15	0.0597	1001.877	0.645
303.15	0.0796	1003.277	0.649
303.15	0.0995	1004.667	0.653
313.16	0.01	994.719	0.65
313.16	0.0199	995.411	0.646
313.16	0.0398	996.795	0.643
313.16	0.0597	998.168	0.641
313.16	0.0796	999.53	0.639
313.16	0.0995	1000.883	0.64
323.15	0.01	990.36	0.655
323.15	0.0199	991.042	0.652
323.15	0.0398	992.405	0.65
323.15	0.0597	993.757	0.648
323.15	0.0796	995.099	0.646
323.15	0.0995	996.431	0.643
333.15	0.01	985.367	0.66
333.15	0.0199	986.045	0.659
333.15	0.0398	987.4	0.657
333.15	0.0597	988.744	0.655
333.15	0.0796	990.077	0.653
333.15	0.0995	991.4	0.651

System: 2,3-butanediol + water + lithium sulfate; phases: Liquid
Fixed: Solvent: Mass fraction of 2,3-butanediol = 0.05
Fixed: Pressure, kPa = 101
Property: Mass density, kg/m3 (Liquid); method: VIBTUB:UFactor:6
Temperature, K	Molality, mol/kg of lithium sulfate	Mass density, kg/m3	uncertainty
303.15	0.01	998.383	0.642
303.15	0.0249	999.528	0.64
303.15	0.0399	1000.674	0.642
303.15	0.0748	1003.32	0.65
303.15	0.0998	1005.197	0.656
303.15	0.1297	1007.423	0.663
313.16	0.01	994.775	0.649
313.16	0.0249	995.903	0.645
313.16	0.0399	997.033	0.644
313.16	0.0748	999.641	0.64
313.16	0.0998	1001.49	0.644
313.16	0.1297	1003.681	0.65
323.15	0.01	990.423	0.655
323.15	0.0249	991.542	0.652
323.15	0.0399	992.662	0.65
323.15	0.0748	995.248	0.646
323.15	0.0998	997.081	0.644
323.15	0.1297	999.253	0.64
333.15	0.01	985.425	0.661
333.15	0.0249	986.531	0.659
333.15	0.0399	987.639	0.657
333.15	0.0748	990.193	0.654
333.15	0.0998	992.004	0.651
333.15	0.1297	994.148	0.648
