Measured thermophysical data. PpT Property Measurements for trans-1,3,3,3-Tetrafluoropropene (HFO-1234ze(E)) in the Gaseous Phase
Source: J. Chem. Eng. Data, 2010, 10.1021/je100707s
Compound 1: trans-1,3,3,3-tetrafluoropropene, C3H2F4, InChI=1S/C3H2F4/c4-2-1-3(5,6)7/h1-2H/b2-1+, purity 99.96%

System: trans-1,3,3,3-tetrafluoropropene; phases: Gas
Property: Mass density, kg/m3 (Gas); method: Bellows volumetry
Temperature, K	Pressure, kPa	Mass density, kg/m3	uncertainty
310	657	34.36	0.45
310	669	35.06	0.38
310	681	35.86	0.48
310	695	36.78	0.48
320	691	34.42	0.47
320	701	35.05	0.45
320	716	35.92	0.46
320	730	36.8	0.46
320	743	37.6	0.48
320	759	38.61	0.49
320	775	39.62	0.51
320	791	40.64	0.53
320	808	41.76	0.53
320	823	42.77	0.55
320	837	43.67	0.53
320	851	44.36	0.45
320	866	45.45	0.49
320	881	46.49	0.49
320	899	47.75	0.51
320	910	48.63	0.53
330	718	34.26	0.45
330	731	34.99	0.45
330	746	35.85	0.46
330	762	36.76	0.46
330	778	37.66	0.48
330	792	38.48	0.48
330	810	39.52	0.5
330	828	40.65	0.52
330	844	41.61	0.52
330	866	42.95	0.53
330	893	44.43	0.45
330	908	45.39	0.47
330	927	46.54	0.46
330	943	47.55	0.48
330	961	48.73	0.48
330	981	50.03	0.51
330	1001	51.36	0.52
330	1020	52.67	0.54
330	1041	54.12	0.55
330	1063	55.64	0.55
330	1075	56.44	0.57
330	1097	57.98	0.48
330	1113	59.21	0.49
330	1139	61.03	0.51
330	1165	63.02	0.52
340	747	34.24	0.44
340	762	35.03	0.44
340	778	35.89	0.45
340	794	36.75	0.46
340	810	37.63	0.47
340	827	38.54	0.47
340	845	39.55	0.49
340	864	40.55	0.51
340	882	41.66	0.52
340	903	42.85	0.53
340	921	43.82	0.53
340	933	44.41	0.43
340	953	45.51	0.46
340	971	46.56	0.46
340	989	47.62	0.48
340	1008	48.82	0.48
340	1030	50.12	0.5
340	1049	51.33	0.51
340	1069	52.63	0.53
340	1090	53.99	0.53
340	1117	55.66	0.54
340	1134	56.71	0.57
340	1154	58.04	0.46
340	1175	59.4	0.47
340	1196	60.76	0.46
340	1218	62.25	0.49
340	1238	63.68	0.51
340	1262	65.39	0.53
340	1284	67.01	0.55
340	1305	68.59	0.55
340	1308	68.83	0.5
340	1331	70.6	0.57
340	1354	72.27	0.52
340	1356	72.51	0.59
340	1378	74.19	0.51
340	1384	74.55	0.6
340	1398	75.77	0.55
340	1420	77.51	0.56
340	1441	79.28	0.58
340	1465	81.46	0.6
340	1482	83.02	0.6
340	1490	83.71	0.61
340	1331	70.59	0.5
350	777	34.25	0.43
350	794	35.1	0.43
350	809	35.85	0.45
350	824	36.66	0.45
350	841	37.55	0.47
350	861	38.6	0.47
350	880	39.57	0.49
350	899	40.59	0.51
350	921	41.8	0.51
350	943	42.97	0.52
350	974	44.44	0.43
350	992	45.42	0.46
350	1009	46.4	0.46
350	1033	47.69	0.48
350	1050	48.68	0.48
350	1073	49.96	0.5
350	1081	50.42	0.5
350	1097	51.34	0.49
350	1118	52.57	0.52
350	1146	54.28	0.54
350	1166	55.47	0.54
350	1184	56.54	0.55
350	1212	58.14	0.47
350	1228	59.18	0.46
350	1253	60.74	0.47
350	1281	62.46	0.5
350	1299	63.7	0.5
350	1325	65.31	0.52
350	1352	67.13	0.54
350	1374	68.68	0.54
350	1376	68.87	0.49
350	1400	70.45	0.48
350	1403	70.69	0.56
350	1422	72.01	0.49
350	1434	72.82	0.59
350	1451	74.02	0.46
350	1460	74.47	0.61
350	1474	75.65	0.52
350	1499	77.45	0.53
350	1526	79.54	0.53
350	1552	81.57	0.57
350	1580	83.73	0.59
350	1611	86.28	0.58
350	1645	88.62	0.5
350	1667	90.44	0.54
350	1692	92.58	0.54
350	1722	95.16	0.56
350	1748	97.5	0.59
350	1773	99.83	0.77
350	1798	102.24	0.62
350	1822	104.65	0.65
350	1850	107.61	0.69
350	1869	109.92	0.71
360	806	34.26	0.42
360	822	35.02	0.43
360	838	35.83	0.45
360	858	36.81	0.45
360	872	37.5	0.46
360	893	38.54	0.46
360	914	39.59	0.48
360	934	40.62	0.5
360	957	41.79	0.48
360	980	42.97	0.52
360	996	43.76	0.51
360	1013	44.41	0.42
360	1032	45.38	0.45
360	1053	46.47	0.45
360	1076	47.64	0.47
360	1093	48.62	0.47
360	1123	50.21	0.49
360	1142	51.25	0.49
360	1164	52.52	0.51
360	1190	53.97	0.51
360	1217	55.45	0.53
360	1246	56.97	0.54
360	1249	57.15	0.54
360	1263	57.94	0.45
360	1285	59.28	0.46
360	1310	60.71	0.42
360	1335	62.17	0.48
360	1359	63.66	0.48
360	1386	65.23	0.5
360	1414	66.98	0.52
360	1438	68.45	0.53
360	1441	68.77	0.47
360	1466	70.29	0.54
360	1493	72.04	0.49
360	1502	72.6	0.56
360	1523	73.94	0.48
360	1535	74.54	0.57
360	1545	75.43	0.52
360	1580	77.76	0.53
360	1607	79.57	0.54
360	1634	81.53	0.56
360	1665	83.71	0.58
360	1695	85.89	0.58
360	1725	87.95	0.58
360	1737	88.54	0.49
360	1760	90.28	0.52
360	1787	92.36	0.52
360	1815	94.55	0.54
360	1850	97.28	0.56
360	1886	100.24	0.59
360	1926	103.58	0.61
360	1936	104.54	0.62
360	1964	107.1	0.62
360	1999	110.25	0.64
360	2157	125.99	0.63
360	2180	128.5	0.65
360	2212	132.17	0.66
360	2224	133.7	0.69
360	2247	136.47	0.7
360	2279	140.52	0.73
360	2287	141.76	0.78
360	2300	143.52	0.76
360	1466	70.3	0.47
