Measured thermophysical data. Thermodynamic Study of Benzamide, N-Methylbenzamide, and N,N-Dimethylbenzamide: Vapor Pressures, Phase Diagrams, and Hydrogen Bond Enthalpy
Source: J. Chem. Eng. Data, 2010, 10.1021/je100175j
Compound 1: benzamide, C7H7NO, InChI=1S/C7H7NO/c8-7(9)6-4-2-1-3-5-6/h1-5H,(H2,8,9), purity 99.99%
Compound 2: N-methylbenzamide, C8H9NO, InChI=1S/C8H9NO/c1-9-8(10)7-5-3-2-4-6-7/h2-6H,1H3,(H,9,10), purity 99.6%
Compound 3: N,N-dimethylbenzamide, C9H11NO, InChI=1S/C9H11NO/c1-10(2)9(11)8-6-4-3-5-7-8/h3-7H,1-2H3, purity 99.8%

System: benzamide; phases: Crystal, Liquid, Air at 1 atmosphere
Property: Molar enthalpy of transition or fusion, kJ/mol (Crystal); method: DSC
Molar enthalpy of transition or fusion, kJ/mol	uncertainty
23.18	0.53

System: benzamide; phases: Crystal, Liquid, Air at 1 atmosphere
Property: Triple point temperature, K (Crystal); method: DTA
Triple point temperature, K	uncertainty
401.34	0.49

System: benzamide; phases: Crystal, Gas
Property: Vapor or sublimation pressure, kPa (Crystal); method: Calculated from knudsen effusion weight loss
Temperature, K	Vapor or sublimation pressure, kPa	uncertainty
324.11	0.000108	2e-05
326.19	0.000136	2.1e-05
328.19	0.000169	2.1e-05
330.1	0.000215	2.1e-05
332.16	0.000267	2.2e-05
334.18	0.000332	2.3e-05
336.1	0.000415	2.5e-05
338.17	0.000513	2.7e-05
340.19	0.000634	3e-05
342.11	0.000794	3.5e-05
344.18	0.000981	4e-05
346.18	0.001205	9.7e-05

System: benzamide; phases: Crystal, Gas
Property: Vapor or sublimation pressure, kPa (Crystal); method: Closed cell (Static) method
Temperature, K	Vapor or sublimation pressure, kPa	uncertainty
344.8	0.0011	0.00012
346.78	0.00135	0.00013
348.77	0.00166	0.00013
350.76	0.00204	0.00014
352.74	0.00247	0.00015
354.72	0.00301	0.00017
356.71	0.00366	0.00019
358.69	0.00438	0.00021
360.68	0.00534	0.00024
362.68	0.00631	0.00028
364.64	0.00769	0.00033
366.62	0.00906	0.00038
368.6	0.01095	0.00045
370.59	0.01299	0.00052
372.59	0.01556	0.00056
374.55	0.01829	0.0006
376.53	0.02177	0.00065
378.52	0.02586	0.00072
380.48	0.03068	0.00079
382.47	0.03596	0.00087
384.44	0.04227	0.00097
386.42	0.04949	0.00108
388.4	0.058	0.00121
390.38	0.06796	0.00137
392.32	0.07856	0.00153
394.32	0.09224	0.00174

System: benzamide; phases: Liquid, Gas
Property: Vapor or sublimation pressure, kPa (Liquid); method: Closed cell (Static) method
Temperature, K	Vapor or sublimation pressure, kPa	uncertainty
380.43	0.04263	0.00097
382.43	0.0481	0.00106
384.38	0.05455	0.00116
386.56	0.06285	0.00128
388.3	0.0702	0.0014
390.51	0.08051	0.00156
392.28	0.0897	0.0017
394.51	0.102	0.0019
396.37	0.1144	0.0021
398.34	0.129	0.0023
400.4	0.1453	0.0021
402.25	0.1597	0.0023
404.42	0.1805	0.0024
406.32	0.1992	0.0026
408.4	0.2257	0.0028
410.17	0.2479	0.003
412.21	0.279	0.0032
414.31	0.3088	0.0035
416.23	0.3462	0.0038
418.37	0.3819	0.0041
420.28	0.4246	0.0045
422.2	0.4667	0.0048
424.23	0.5208	0.0053
426.18	0.5676	0.0057
428.17	0.6262	0.0062
430.15	0.6836	0.0067
432.17	0.7596	0.0074
434.17	0.8264	0.008
436.2	0.922	0.0088
438.2	1.002	0.009

System: N-methylbenzamide; phases: Crystal, Liquid, Air at 1 atmosphere
Property: Molar enthalpy of transition or fusion, kJ/mol (Crystal); method: DSC
Molar enthalpy of transition or fusion, kJ/mol	uncertainty
18.62	0.57

System: N-methylbenzamide; phases: Crystal, Liquid, Air at 1 atmosphere
Property: Triple point temperature, K (Crystal); method: DTA
Triple point temperature, K	uncertainty
347.41	0.39

System: N-methylbenzamide; phases: Crystal, Gas
Property: Vapor or sublimation pressure, kPa (Crystal); method: CCELL:UFactor:0.5
Temperature, K	Vapor or sublimation pressure, kPa	uncertainty
324.88	0.0005	0.00011
326.83	0.00063	0.00011
328.93	0.0008	0.00011
330.82	0.00098	0.00011
332.75	0.00121	0.00012
334.8	0.00152	0.00012
336.82	0.00189	0.00012
338.85	0.00235	0.00012
340.81	0.00284	0.00013
342.75	0.00348	0.00013
344.79	0.00426	0.00014
345.79	0.00471	0.00015
346.8	0.00528	0.00016
347.77	0.00575	0.00016
348.76	0.00631	0.00017

System: N-methylbenzamide; phases: Liquid, Gas
Property: Vapor or sublimation pressure, kPa (Liquid); method: Closed cell (Static) method
Temperature, K	Vapor or sublimation pressure, kPa	uncertainty
322.88	0.00067	0.00011
324.94	0.00083	0.00012
326.92	0.00099	0.00012
328.89	0.00117	0.00012
330.88	0.0014	0.00012
332.86	0.00166	0.00013
334.86	0.00201	0.00014
336.84	0.00241	0.00015
338.82	0.00284	0.00016
340.8	0.00336	0.00018
342.8	0.00398	0.0002
344.8	0.0047	0.00022
346.77	0.00547	0.00024
348.77	0.0064	0.00028
350.75	0.00753	0.00032
352.74	0.00861	0.00036
354.74	0.01013	0.00041
356.7	0.01168	0.00047
358.72	0.01359	0.00053
360.66	0.01572	0.00056
362.68	0.01812	0.0006
364.63	0.02093	0.00064
366.62	0.02394	0.00068
368.59	0.0275	0.00074
370.59	0.03148	0.0008
372.57	0.03612	0.00087
374.56	0.04095	0.00095
376.53	0.04725	0.00104
378.51	0.05325	0.00114
380.49	0.06051	0.00125
382.47	0.06884	0.00138
384.46	0.07804	0.00152
386.43	0.08821	0.00168
388.4	0.101	0.0019

System: N,N-dimethylbenzamide; phases: Crystal, Liquid, Air at 1 atmosphere
Property: Molar enthalpy of transition or fusion, kJ/mol (Crystal); method: DSC
Molar enthalpy of transition or fusion, kJ/mol	uncertainty
21.22	0.49

System: N,N-dimethylbenzamide; phases: Crystal, Liquid, Air at 1 atmosphere
Property: Triple point temperature, K (Crystal); method: DTA
Triple point temperature, K	uncertainty
316.9	0.41

System: N,N-dimethylbenzamide; phases: Crystal, Gas
Property: Vapor or sublimation pressure, kPa (Crystal); method: CCELL:UFactor:0.5
Temperature, K	Vapor or sublimation pressure, kPa	uncertainty
297.04	0.00054	0.0001
299.03	0.00069	0.0001
301.02	0.00086	0.0001
303.02	0.0011	0.00011
305	0.00138	0.00011
307	0.00171	0.00011
308.98	0.00215	0.00011
310.98	0.00269	0.00012
312.98	0.00336	0.00012
314.98	0.00418	0.00013

System: N,N-dimethylbenzamide; phases: Liquid, Gas
Property: Vapor or sublimation pressure, kPa (Liquid); method: Closed cell (Static) method
Temperature, K	Vapor or sublimation pressure, kPa	uncertainty
301.98	0.00134	0.00012
303.99	0.00162	0.00012
305.97	0.00195	0.00013
307.96	0.00232	0.00014
310.43	0.00289	0.00016
312.3	0.00343	0.00017
314	0.00399	0.00019
316	0.00472	0.00021
317.97	0.0056	0.00025
319.95	0.00658	0.00028
321.94	0.00776	0.00032
323.93	0.00909	0.00037
325.88	0.01066	0.00043
327.91	0.01239	0.0005
329.85	0.01439	0.00054
331.88	0.01676	0.00057
333.84	0.01949	0.00061
335.85	0.02238	0.00066
337.8	0.02598	0.00071
339.82	0.02969	0.00077
341.77	0.03432	0.00084
343.8	0.03916	0.00092
345.73	0.04503	0.00101
347.77	0.05151	0.00111
349.68	0.05866	0.00122
351.75	0.06697	0.00135
353.64	0.07571	0.00148
355.7	0.08611	0.00164
357.62	0.09722	0.00182
359.68	0.1102	0.002
361.66	0.1244	0.0022
