Measured thermophysical data. Simultaneous Viscosity-Density Measurements on Ethane and Propane over a Wide Range of Temperature and Pressure Including the Near-Critical Region
Source: J. Chem. Eng. Data, 2011, 10.1021/je101178u
Compound 1: ethane, C2H6, InChI=1S/C2H6/c1-2/h1-2H3, purity 99.95%
Compound 2: propane, C3H8, InChI=1S/C3H8/c1-3-2/h3H2,1-2H3, purity 99.95%

System: ethane; phases: Fluid (supercritical or subcritical phases)
Property: Viscosity, Pa*s (Fluid (supercritical or subcritical phases)); method: vibrating wire
Temperature, K	Pressure, kPa	Viscosity, Pa*s	uncertainty
293.15	64.366	9.075e-06	5.5e-08
293.15	80.367	9.076e-06	5.5e-08
293.15	80.425	9.075e-06	5.5e-08
293.15	80.483	9.073e-06	5.5e-08
293.15	160.1	9.082e-06	5.5e-08
293.15	160.16	9.082e-06	5.5e-08
293.15	315.97	9.102e-06	5.5e-08
293.15	316.05	9.099e-06	5.5e-08
293.15	467.91	9.118e-06	5.5e-08
293.15	467.96	9.119e-06	5.5e-08
293.15	468.01	9.118e-06	5.5e-08
293.15	615.93	9.139e-06	5.5e-08
293.15	616.03	9.137e-06	5.5e-08
293.15	759.69	9.162e-06	5.5e-08
293.15	889.73	9.183e-06	5.5e-08
293.15	889.87	9.183e-06	5.5e-08
293.15	1036.2	9.212e-06	5.5e-08
293.15	1036.3	9.213e-06	5.5e-08
293.15	1167.2	9.246e-06	5.6e-08
293.15	1167.3	9.243e-06	5.6e-08
293.15	1293.6	9.274e-06	5.6e-08
293.15	1293.8	9.275e-06	5.6e-08
293.15	1420.8	9.305e-06	5.6e-08
293.15	1421	9.31e-06	5.6e-08
293.15	1992.4	9.506e-06	5.7e-08
293.15	1992.5	9.506e-06	5.7e-08
293.15	1992.6	9.505e-06	5.7e-08
293.15	2477.2	9.749e-06	5.9e-08
293.15	2477.4	9.748e-06	5.9e-08
293.15	2477.6	9.748e-06	5.9e-08
293.15	2879.7	1.0035e-05	6e-08
293.15	2879.9	1.0033e-05	6e-08
293.15	3212.1	1.0363e-05	6.2e-08
293.15	3212.2	1.0364e-05	6.2e-08
293.15	3212.3	1.0363e-05	6.2e-08
293.15	3471.9	1.0726e-05	6.5e-08
293.15	3472	1.073e-05	6.5e-08
293.15	3472.2	1.073e-05	6.5e-08
293.15	3577.6	1.0928e-05	6.6e-08
293.15	3577.8	1.0924e-05	6.6e-08
293.15	64.366	9.074e-06	5.5e-08
293.15	160.1	9.083e-06	5.5e-08
293.15	316.05	9.098e-06	5.5e-08
293.15	615.93	9.137e-06	5.5e-08
293.15	759.69	9.165e-06	5.5e-08
293.15	889.73	9.184e-06	5.5e-08
293.15	1036.2	9.213e-06	5.5e-08
293.15	1167.3	9.243e-06	5.6e-08
293.15	1293.8	9.275e-06	5.6e-08
293.15	1420.8	9.308e-06	5.6e-08
293.15	759.69	9.162e-06	5.5e-08
307.15	92.554	9.492e-06	5.7e-08
307.15	92.621	9.489e-06	5.7e-08
307.15	160.18	9.508e-06	5.7e-08
307.15	332.45	9.543e-06	5.8e-08
307.15	493.91	9.573e-06	5.8e-08
307.15	493.97	9.572e-06	5.8e-08
307.15	649.95	9.604e-06	5.8e-08
307.15	650.01	9.604e-06	5.8e-08
307.15	800.35	9.635e-06	5.8e-08
307.15	800.41	9.636e-06	5.8e-08
307.15	959.13	9.675e-06	5.8e-08
307.15	959.2	9.674e-06	5.8e-08
307.15	1094.4	9.709e-06	5.9e-08
307.15	1094.5	9.71e-06	5.9e-08
307.15	1233.8	9.746e-06	5.9e-08
307.15	1233.9	9.746e-06	5.9e-08
307.15	1343.4	9.778e-06	5.9e-08
307.15	1502.4	9.828e-06	5.9e-08
307.15	2134.4	1.0066e-05	6e-08
307.15	2134.5	1.0065e-05	6e-08
307.15	2674.2	1.0341e-05	6.2e-08
307.15	2674.3	1.034e-05	6.2e-08
307.15	3138.1	1.0662e-05	6.5e-08
307.15	3138.2	1.0663e-05	6.5e-08
307.15	3138.4	1.066e-05	6.5e-08
307.15	3539.6	1.1027e-05	7e-08
307.15	3539.8	1.1031e-05	7e-08
307.15	3889	1.1452e-05	8e-08
307.15	3892.4	1.1456e-05	8e-08
307.15	4150.5	1.1883e-05	9.7e-08
307.15	4151.6	1.1891e-05	9.8e-08
307.15	4152	1.1889e-05	9.8e-08
307.15	4152.4	1.1887e-05	9.7e-08
307.15	4328.6	1.2258e-05	1.27e-07
307.15	4329.5	1.226e-05	1.27e-07
307.15	4330.1	1.2266e-05	1.27e-07
307.15	4330.4	1.2265e-05	1.27e-07
307.15	4331.5	1.2265e-05	1.27e-07
307.15	4514.6	1.2775e-05	1.91e-07
307.15	4516.2	1.2783e-05	1.91e-07
307.15	4517.4	1.2786e-05	1.91e-07
307.15	4518.3	1.2789e-05	1.91e-07
307.15	4519.2	1.2791e-05	1.91e-07
307.15	4736.3	1.3711e-05	3.72e-07
307.15	4736.7	1.3711e-05	3.71e-07
307.15	4939.2	1.552e-05	8.11e-07
307.15	4939.3	1.5516e-05	8.11e-07
307.15	5019.4	1.766e-05	3.429e-06
307.15	5019.5	1.7665e-05	3.428e-06
307.15	5042.9	1.9321e-05	6.754e-06
307.15	5043	1.9326e-05	6.754e-06
307.15	5051	2.0258e-05	6.677e-06
307.15	5051.1	2.028e-05	6.674e-06
307.15	5058.7	2.1325e-05	6.612e-06
307.15	5058.8	2.1368e-05	6.611e-06
307.15	5060.3	2.1585e-05	6.608e-06
307.15	5060.4	2.1592e-05	6.608e-06
307.15	5064.1	2.2148e-05	6.614e-06
307.15	5064.2	2.219e-05	6.615e-06
307.15	5105	2.5788e-05	4.31e-06
307.15	5105.1	2.579e-05	4.311e-06
307.15	5105.2	2.5797e-05	4.312e-06
307.15	5160.6	2.7812e-05	1.262e-06
307.15	5160.9	2.7815e-05	1.263e-06
307.15	5161	2.7809e-05	1.264e-06
307.15	5348.1	3.1092e-05	6.45e-07
307.15	5348.3	3.1093e-05	6.46e-07
307.15	5348.5	3.1102e-05	6.45e-07
307.15	5348.6	3.1098e-05	6.46e-07
307.15	5648.1	3.389e-05	2.73e-07
307.15	5648.3	3.3885e-05	2.73e-07
307.15	5648.7	3.3923e-05	2.73e-07
307.15	5648.8	3.3907e-05	2.73e-07
307.15	6326.2	3.7731e-05	2.3e-07
307.15	6328.2	3.7738e-05	2.3e-07
307.15	6328.5	3.772e-05	2.3e-07
307.15	6328.9	3.7765e-05	2.3e-07
307.15	7598.2	4.2256e-05	3.01e-07
307.15	7602.2	4.2297e-05	3.01e-07
307.15	7603	4.2298e-05	3.01e-07
307.15	9627.4	4.7259e-05	3.82e-07
307.15	9628.1	4.7281e-05	3.82e-07
307.15	12507	5.2569e-05	4.53e-07
307.15	12508	5.257e-05	4.53e-07
307.15	12509	5.2554e-05	4.53e-07
307.15	15941	5.7682e-05	7.24e-07
307.15	15981	5.7679e-05	7.91e-07
307.15	15985	5.7653e-05	9.12e-07
307.15	15986	5.7672e-05	8.21e-07
307.15	15987	5.7694e-05	7.24e-07
307.15	160.18	9.51e-06	5.7e-08
307.15	332.45	9.542e-06	5.8e-08
307.15	800.41	9.639e-06	5.8e-08
307.15	959.2	9.674e-06	5.8e-08
307.15	1343.4	9.778e-06	5.9e-08
307.15	1502.4	9.83e-06	5.9e-08
307.15	2674.2	1.0344e-05	6.2e-08
307.15	2674.3	1.0344e-05	6.2e-08
307.15	4939.3	1.5516e-05	8.11e-07
307.15	5019.4	1.7664e-05	3.429e-06
307.15	5043	1.9323e-05	6.755e-06
307.15	5051	2.0258e-05	6.677e-06
307.15	5051.1	2.0275e-05	6.675e-06
307.15	5058.7	2.1324e-05	6.612e-06
307.15	5058.8	2.1358e-05	6.611e-06
307.15	5060.3	2.1576e-05	6.608e-06
307.15	5064.1	2.2155e-05	6.614e-06
307.15	5064.2	2.2194e-05	6.615e-06
307.15	5105	2.5792e-05	4.309e-06
307.15	5161	2.7795e-05	1.265e-06
307.15	5058.8	2.1326e-05	6.613e-06
307.15	5064.1	2.2147e-05	6.614e-06

System: ethane; phases: Fluid (supercritical or subcritical phases)
Property: Mass density, kg/m3 (Fluid (supercritical or subcritical phases)); method: Buoyancy - hydrostatic balance with magnetic suspension - one sinker
Temperature, K	Pressure, kPa	Mass density, kg/m3	uncertainty
293.15	64.366	0.79811	0.00276
293.15	80.367	0.99778	0.00304
293.15	80.425	0.99851	0.00304
293.15	80.483	0.99923	0.00304
293.15	160.1	2.0005	0.0048
293.15	160.16	2.0012	0.0048
293.15	315.97	3.9991	0.0087
293.15	316.05	4.0002	0.0087
293.15	467.91	5.9992	0.0127
293.15	467.96	5.9999	0.0127
293.15	468.01	6.0006	0.0127
293.15	615.93	8.0004	0.0168
293.15	616.03	8.0018	0.0169
293.15	759.69	9.9972	0.021
293.15	889.73	11.852	0.025
293.15	889.87	11.854	0.025
293.15	1036.2	14.001	0.029
293.15	1036.3	14.002	0.029
293.15	1167.2	15.979	0.033
293.15	1167.3	15.98	0.033
293.15	1293.6	17.943	0.038
293.15	1293.8	17.946	0.038
293.15	1420.8	19.979	0.042
293.15	1421	19.983	0.042
293.15	1992.4	30.002	0.063
293.15	1992.5	30.004	0.063
293.15	1992.6	30.006	0.063
293.15	2477.2	40.017	0.085
293.15	2477.4	40.022	0.085
293.15	2477.6	40.026	0.085
293.15	2879.7	49.983	0.106
293.15	2879.9	49.988	0.106
293.15	3212.1	60.071	0.128
293.15	3212.2	60.073	0.128
293.15	3212.3	60.079	0.128
293.15	3471.9	70.014	0.149
293.15	3472	70.02	0.149
293.15	3472.2	70.027	0.149
293.15	3577.6	74.947	0.159
293.15	3577.8	74.957	0.159
293.15	64.366	0.79811	0.00276
293.15	160.1	2.0005	0.0048
293.15	316.05	4.0002	0.0087
293.15	615.93	8.0004	0.0168
293.15	759.69	9.9972	0.021
293.15	889.73	11.852	0.025
293.15	1036.2	14.001	0.029
293.15	1167.3	15.981	0.033
293.15	1293.8	17.946	0.038
293.15	1420.8	19.979	0.042
293.15	759.69	9.9972	0.021
307.15	92.554	1.0967	0.0032
307.15	92.621	1.0975	0.0032
307.15	160.18	1.907	0.0046
307.15	332.45	4.0065	0.0087
307.15	493.91	6.0228	0.0128
307.15	493.97	6.0235	0.0128
307.15	649.95	8.0188	0.017
307.15	650.01	8.0195	0.017
307.15	800.35	9.9895	0.0211
307.15	800.41	9.9903	0.0211
307.15	959.13	12.123	0.026
307.15	959.2	12.124	0.026
307.15	1094.4	13.987	0.03
307.15	1094.5	13.988	0.03
307.15	1233.8	15.953	0.034
307.15	1233.9	15.955	0.034
307.15	1343.4	17.536	0.038
307.15	1502.4	19.889	0.044
307.15	2134.4	30.049	0.067
307.15	2134.5	30.051	0.067
307.15	2674.2	40.038	0.096
307.15	2674.3	40.04	0.096
307.15	3138.1	50.006	0.132
307.15	3138.2	50.008	0.132
307.15	3138.4	50.012	0.132
307.15	3539.6	60.147	0.181
307.15	3539.8	60.154	0.181
307.15	3889	70.711	0.246
307.15	3892.4	70.823	0.246
307.15	4150.5	80.267	0.33
307.15	4151.6	80.309	0.33
307.15	4152	80.328	0.33
307.15	4152.4	80.342	0.33
307.15	4328.6	88.031	0.452
307.15	4329.5	88.072	0.452
307.15	4330.1	88.099	0.452
307.15	4330.4	88.116	0.452
307.15	4331.5	88.167	0.452
307.15	4514.6	97.86	0.669
307.15	4516.2	97.954	0.669
307.15	4517.4	98.024	0.669
307.15	4518.3	98.079	0.669
307.15	4519.2	98.129	0.669
307.15	4736.3	113.82	1.211
307.15	4736.7	113.852	1.211
307.15	4939.2	140.104	2.375
307.15	4939.3	140.112	2.375
307.15	5019.4	165.625	8.27
307.15	5019.5	165.654	8.267
307.15	5042.9	182.964	14.677
307.15	5043	183.065	14.676
307.15	5051	192.154	14.531
307.15	5051.1	192.228	14.531
307.15	5058.7	202.521	14.43
307.15	5058.8	202.654	14.43
307.15	5060.3	204.743	14.432
307.15	5060.4	204.805	14.433
307.15	5064.1	209.963	14.467
307.15	5064.2	210.139	14.468
307.15	5105	242.924	8.54
307.15	5105.1	243	8.543
307.15	5105.2	243.012	8.547
307.15	5160.6	259.321	1.86
307.15	5160.9	259.389	1.86
307.15	5161	259.401	1.86
307.15	5348.1	282.102	0.81
307.15	5348.3	282.116	0.81
307.15	5348.5	282.128	0.81
307.15	5348.6	282.136	0.81
307.15	5648.1	299.179	0.686
307.15	5648.3	299.189	0.686
307.15	5648.7	299.204	0.686
307.15	5648.8	299.208	0.686
307.15	6326.2	319.788	0.884
307.15	6328.2	319.833	0.884
307.15	6328.5	319.84	0.884
307.15	6328.9	319.85	0.884
307.15	7598.2	341.1	1.049
307.15	7602.2	341.152	1.049
307.15	7603	341.162	1.049
307.15	9627.4	361.481	1.171
307.15	9628.1	361.486	1.171
307.15	12507	380.383	1.263
307.15	12508	380.388	1.263
307.15	12509	380.392	1.263
307.15	15941	396.414	1.339
307.15	15981	396.579	1.337
307.15	15985	396.595	1.338
307.15	15986	396.599	1.338
307.15	15987	396.601	1.34
307.15	160.18	1.907	0.0046
307.15	332.45	4.0065	0.0087
307.15	800.41	9.9903	0.0211
307.15	959.2	12.124	0.026
307.15	1343.4	17.536	0.038
307.15	1502.4	19.889	0.044
307.15	2674.2	40.039	0.096
307.15	2674.3	40.04	0.096
307.15	4939.3	140.112	2.375
307.15	5019.4	165.641	8.27
307.15	5043	183.021	14.678
307.15	5051	192.131	14.532
307.15	5051.1	192.185	14.533
307.15	5058.7	202.456	14.431
307.15	5058.8	202.599	14.43
307.15	5060.3	204.709	14.432
307.15	5064.1	209.982	14.467
307.15	5064.2	210.11	14.468
307.15	5105	242.96	8.54
307.15	5161	259.396	1.861
307.15	5058.8	202.583	14.431
307.15	5064.1	209.961	14.467

System: ethane; phases: Fluid (supercritical or subcritical phases)
Property: Viscosity, Pa*s (Fluid (supercritical or subcritical phases)); method: vibrating wire
Temperature, K	Pressure, kPa	Viscosity, Pa*s	uncertainty
307.15	97.81	9.507e-06	5.7e-08
307.15	166.71	9.531e-06	5.7e-08
307.15	166.77	9.529e-06	5.7e-08
307.15	327.38	9.566e-06	5.7e-08
307.15	788.48	9.663e-06	5.8e-08
307.15	788.7	9.665e-06	5.8e-08
307.15	1469.3	9.855e-06	5.9e-08
307.15	1469.5	9.856e-06	5.9e-08
307.15	2653.6	1.038e-05	6.2e-08
307.15	2653.7	1.0379e-05	6.2e-08
307.15	3815.6	1.1419e-05	6.9e-08
307.15	3821.7	1.143e-05	6.9e-08
307.15	4557.7	1.3021e-05	8.1e-08
307.15	4558.1	1.3022e-05	8.1e-08
307.15	5008.9	1.7292e-05	1.04e-07
307.15	5050.1	2.0218e-05	1.22e-07
307.15	5050.2	2.023e-05	1.22e-07
307.15	5060.1	2.1675e-05	1.31e-07
307.15	5060.2	2.1675e-05	1.31e-07
307.15	5062	2.1995e-05	1.33e-07
307.15	5062.1	2.1985e-05	1.33e-07
307.15	5062.2	2.2e-05	1.33e-07
307.15	5065.4	2.2547e-05	1.36e-07
307.15	5065.5	2.2553e-05	1.36e-07
307.15	5187.1	2.8524e-05	1.73e-07
307.15	5187.4	2.8525e-05	1.73e-07
307.15	5187.6	2.8524e-05	1.73e-07
307.15	5367.9	3.1404e-05	1.9e-07
307.15	5368.5	3.1399e-05	1.9e-07
307.15	5369.1	3.1439e-05	1.91e-07
307.15	5369.4	3.1413e-05	1.9e-07
307.15	5673.9	3.4198e-05	2.07e-07
307.15	5674	3.4158e-05	2.07e-07
307.15	5674.2	3.4172e-05	2.07e-07
307.15	6343.9	3.7808e-05	2.29e-07
307.15	6344.7	3.783e-05	2.3e-07
307.15	6346	3.7839e-05	2.3e-07
307.15	6347.2	3.7831e-05	2.3e-07
307.15	7700.1	4.2562e-05	2.58e-07
307.15	7700.8	4.2568e-05	2.58e-07
307.15	7701.7	4.2566e-05	2.58e-07
307.15	9703.1	4.7427e-05	2.88e-07
307.15	9703.6	4.7421e-05	2.88e-07
307.15	9705	4.7377e-05	2.88e-07
307.15	12544	5.2758e-05	3.21e-07
307.15	12545	5.2681e-05	3.2e-07
307.15	12549	5.2624e-05	3.2e-07
307.15	12554	5.2578e-05	3.2e-07
307.15	12558	5.2634e-05	3.2e-07
307.15	12559	5.2629e-05	3.2e-07
307.15	16874	5.8882e-05	3.59e-07
307.15	16875	5.8855e-05	3.58e-07
307.15	16876	5.8845e-05	3.58e-07
307.15	16877	5.8844e-05	3.58e-07
307.15	19746	6.2384e-05	3.8e-07
307.15	19749	6.2362e-05	3.8e-07
307.15	19750	6.2419e-05	3.8e-07
307.15	19751	6.2403e-05	3.8e-07
307.15	23209	6.633e-05	4.05e-07
307.15	23210	6.6334e-05	4.05e-07
307.15	24530	6.7755e-05	4.14e-07
307.15	24531	6.7737e-05	4.13e-07
307.15	25875	6.9129e-05	4.22e-07
307.15	25877	6.914e-05	4.22e-07
307.15	25879	6.9064e-05	4.21e-07
307.15	25881	6.9106e-05	4.22e-07
307.15	29053	7.2346e-05	4.42e-07
307.15	29057	7.2318e-05	4.42e-07
307.15	29063	7.227e-05	4.41e-07
307.15	29978	7.3168e-05	4.47e-07
307.15	29979	7.3234e-05	4.47e-07
307.15	29980	7.3137e-05	4.47e-07
307.15	97.81	9.508e-06	5.7e-08
307.15	327.38	9.566e-06	5.7e-08
307.15	5008.9	1.7294e-05	1.04e-07
307.15	5060.2	2.1679e-05	1.31e-07
307.15	5065.4	2.2552e-05	1.36e-07
307.15	5673.9	3.4176e-05	2.07e-07
307.15	12554	5.26e-05	3.2e-07
307.15	16874	5.8816e-05	3.58e-07
307.15	16875	5.8869e-05	3.58e-07
307.15	16876	5.8846e-05	3.58e-07
307.15	19746	6.2406e-05	3.8e-07
307.15	23210	6.6295e-05	4.05e-07
307.15	24530	6.7777e-05	4.14e-07
307.15	24531	6.7751e-05	4.14e-07
307.15	29978	7.3251e-05	4.48e-07
307.15	29980	7.3185e-05	4.47e-07
307.15	16875	5.8813e-05	3.58e-07
307.15	23210	6.6344e-05	4.05e-07
307.15	24530	6.7807e-05	4.14e-07
307.15	16875	5.8946e-05	3.59e-07
307.15	24530	6.7805e-05	4.14e-07
423.15	95.748	1.2766e-05	7.7e-08
423.15	95.833	1.2763e-05	7.7e-08
423.15	117.47	1.2774e-05	7.7e-08
423.15	117.64	1.2769e-05	7.7e-08
423.15	117.73	1.2767e-05	7.7e-08
423.15	226.59	1.2796e-05	7.7e-08
423.15	226.76	1.2798e-05	7.7e-08
423.15	459.37	1.2843e-05	7.7e-08
423.15	459.46	1.2842e-05	7.7e-08
423.15	691.62	1.2898e-05	7.8e-08
423.15	691.95	1.2891e-05	7.8e-08
423.15	915.95	1.294e-05	7.8e-08
423.15	916.03	1.2935e-05	7.8e-08
423.15	1136.5	1.2976e-05	7.8e-08
423.15	1136.7	1.2976e-05	7.8e-08
423.15	1357.6	1.3025e-05	7.8e-08
423.15	1357.9	1.3025e-05	7.8e-08
423.15	1576.5	1.3064e-05	7.9e-08
423.15	1794.4	1.3117e-05	7.9e-08
423.15	1795	1.3114e-05	7.9e-08
423.15	2007.1	1.3167e-05	7.9e-08
423.15	2007.2	1.3167e-05	7.9e-08
423.15	2209.1	1.3218e-05	8e-08
423.15	2209.2	1.3217e-05	7.9e-08
423.15	3243	1.352e-05	8.1e-08
423.15	3244.5	1.3509e-05	8.1e-08
423.15	4164.4	1.3816e-05	8.3e-08
423.15	4164.5	1.3816e-05	8.3e-08
423.15	4551.5	1.3954e-05	8.4e-08
423.15	4555.3	1.3962e-05	8.4e-08
423.15	5910.6	1.4544e-05	8.7e-08
423.15	5914.3	1.4551e-05	8.7e-08
423.15	6746.2	1.497e-05	9e-08
423.15	6746.9	1.4972e-05	9e-08
423.15	7528	1.5418e-05	9.3e-08
423.15	7530.1	1.5418e-05	9.3e-08
423.15	8298.5	1.59e-05	9.6e-08
423.15	8300.8	1.5904e-05	9.6e-08
423.15	9235.9	1.6557e-05	1e-07
423.15	9238.5	1.6555e-05	1e-07
423.15	10732	1.7739e-05	1.07e-07
423.15	10733	1.7751e-05	1.07e-07
423.15	12215	1.9096e-05	1.15e-07
423.15	12218	1.9091e-05	1.15e-07
423.15	13727	2.062e-05	1.25e-07
423.15	13728	2.0615e-05	1.25e-07
423.15	15325	2.234e-05	1.35e-07
423.15	15327	2.234e-05	1.35e-07
423.15	16990	2.4199e-05	1.47e-07
423.15	16991	2.4207e-05	1.47e-07
423.15	16992	2.4203e-05	1.47e-07
423.15	18872	2.6315e-05	1.59e-07
423.15	18874	2.6315e-05	1.59e-07
423.15	18878	2.6333e-05	1.6e-07
423.15	21034	2.87e-05	1.74e-07
423.15	23414	3.1192e-05	1.89e-07
423.15	23415	3.1196e-05	1.89e-07
423.15	26527	3.4251e-05	2.07e-07
423.15	26529	3.4243e-05	2.07e-07
423.15	30162	3.7567e-05	2.27e-07
423.15	30174	3.757e-05	2.27e-07
423.15	30181	3.7562e-05	2.27e-07
423.15	30183	3.7578e-05	2.27e-07
423.15	226.76	1.2798e-05	7.7e-08
423.15	1576.5	1.3066e-05	7.9e-08
423.15	21034	2.8703e-05	1.74e-07

System: ethane; phases: Fluid (supercritical or subcritical phases)
Property: Mass density, kg/m3 (Fluid (supercritical or subcritical phases)); method: Buoyancy - hydrostatic balance with magnetic suspension - one sinker
Temperature, K	Pressure, kPa	Mass density, kg/m3	uncertainty
307.15	97.81	1.1594	0.0033
307.15	166.71	1.9856	0.0047
307.15	166.77	1.9863	0.0047
307.15	327.38	3.9439	0.0086
307.15	788.48	9.8322	0.0207
307.15	788.7	9.8351	0.0207
307.15	1469.3	19.394	0.041
307.15	1469.5	19.396	0.041
307.15	2653.6	39.629	0.085
307.15	2653.7	39.631	0.085
307.15	3815.6	68.316	0.149
307.15	3821.7	68.511	0.149
307.15	4557.7	100.499	0.331
307.15	4558.1	100.521	0.331
307.15	5008.9	160.457	0.355
307.15	5050.1	191.037	0.418
307.15	5050.2	191.169	0.418
307.15	5060.1	204.501	0.444
307.15	5060.2	204.534	0.445
307.15	5062	207.173	0.45
307.15	5062.1	207.31	0.45
307.15	5062.2	207.441	0.45
307.15	5065.4	211.657	0.458
307.15	5065.5	211.805	0.459
307.15	5187.1	264.206	0.569
307.15	5187.4	264.252	0.569
307.15	5187.6	264.291	0.57
307.15	5367.9	283.622	0.615
307.15	5368.5	283.666	0.615
307.15	5369.1	283.708	0.615
307.15	5369.4	283.73	0.615
307.15	5673.9	300.263	0.651
307.15	5674	300.27	0.651
307.15	5674.2	300.276	0.651
307.15	6343.9	320.187	0.694
307.15	6344.7	320.206	0.694
307.15	6346	320.235	0.695
307.15	6347.2	320.26	0.695
307.15	7700.1	342.393	0.748
307.15	7700.8	342.402	0.748
307.15	7701.7	342.413	0.748
307.15	9703.1	362.086	0.802
307.15	9703.6	362.09	0.802
307.15	9705	362.101	0.802
307.15	12544	380.585	0.859
307.15	12545	380.588	0.859
307.15	12549	380.613	0.859
307.15	12554	380.638	0.86
307.15	12558	380.661	0.86
307.15	12559	380.663	0.86
307.15	16874	400.063	0.978
307.15	16875	400.066	0.978
307.15	16876	400.071	0.978
307.15	16877	400.075	0.978
307.15	19746	410.021	1.047
307.15	19749	410.03	1.047
307.15	19750	410.034	1.047
307.15	19751	410.039	1.047
307.15	23209	420.154	1.158
307.15	23210	420.157	1.158
307.15	24530	423.617	1.187
307.15	24531	423.619	1.187
307.15	25875	426.955	1.202
307.15	25877	426.961	1.202
307.15	25879	426.966	1.202
307.15	25881	426.969	1.202
307.15	29053	434.215	1.313
307.15	29057	434.225	1.313
307.15	29063	434.238	1.314
307.15	29978	436.186	1.34
307.15	29979	436.187	1.34
307.15	29980	436.189	1.34
307.15	97.81	1.1594	0.0033
307.15	327.38	3.9439	0.0086
307.15	5008.9	160.473	0.355
307.15	5060.2	204.598	0.445
307.15	5065.4	211.736	0.459
307.15	5673.9	300.265	0.651
307.15	12554	380.638	0.86
307.15	16874	400.065	0.978
307.15	16875	400.066	0.978
307.15	16876	400.073	0.978
307.15	19746	410.023	1.047
307.15	23210	420.156	1.158
307.15	24530	423.617	1.187
307.15	24531	423.619	1.187
307.15	29978	436.185	1.34
307.15	29980	436.189	1.34
307.15	16875	400.067	0.978
307.15	23210	420.157	1.158
307.15	24530	423.615	1.187
307.15	16875	400.068	0.978
307.15	24530	423.617	1.187
423.15	95.748	0.82018	0.00279
423.15	95.833	0.82091	0.00279
423.15	117.47	1.0068	0.0031
423.15	117.64	1.0082	0.0031
423.15	117.73	1.009	0.0031
423.15	226.59	1.947	0.0047
423.15	226.76	1.9485	0.0047
423.15	459.37	3.9693	0.0086
423.15	459.46	3.9701	0.0086
423.15	691.62	6.0097	0.0128
423.15	691.95	6.0126	0.0128
423.15	915.95	8.0024	0.0169
423.15	916.03	8.0031	0.0169
423.15	1136.5	9.9828	0.021
423.15	1136.7	9.9843	0.021
423.15	1357.6	11.99	0.025
423.15	1357.9	11.993	0.025
423.15	1576.5	13.999	0.03
423.15	1794.4	16.02	0.034
423.15	1795	16.025	0.034
423.15	2007.1	18.014	0.038
423.15	2007.2	18.015	0.038
423.15	2209.1	19.928	0.042
423.15	2209.2	19.929	0.042
423.15	3243	30.033	0.064
423.15	3244.5	30.048	0.064
423.15	4164.4	39.494	0.086
423.15	4164.5	39.495	0.086
423.15	4551.5	43.602	0.1
423.15	4555.3	43.642	0.1
423.15	5910.6	58.665	0.131
423.15	5914.3	58.707	0.131
423.15	6746.2	68.424	0.155
423.15	6746.9	68.432	0.155
423.15	7528	77.889	0.179
423.15	7530.1	77.915	0.18
423.15	8298.5	87.517	0.205
423.15	8300.8	87.546	0.205
423.15	9235.9	99.586	0.237
423.15	9238.5	99.621	0.237
423.15	10732	119.465	0.291
423.15	10733	119.476	0.291
423.15	12215	139.509	0.345
423.15	12218	139.549	0.345
423.15	13727	159.706	0.399
423.15	13728	159.722	0.399
423.15	15325	180.142	0.449
423.15	15327	180.168	0.45
423.15	16990	199.904	0.494
423.15	16991	199.911	0.494
423.15	16992	199.925	0.494
423.15	18872	220.003	0.537
423.15	18874	220.02	0.537
423.15	18878	220.065	0.537
423.15	21034	240.207	0.579
423.15	23414	259.265	0.613
423.15	23415	259.275	0.613
423.15	26527	280.132	0.656
423.15	26529	280.144	0.657
423.15	30162	300.101	0.716
423.15	30174	300.162	0.716
423.15	30181	300.195	0.716
423.15	30183	300.204	0.716
423.15	226.76	1.9485	0.0047
423.15	1576.5	13.999	0.03
423.15	21034	240.204	0.579

System: propane; phases: Fluid (supercritical or subcritical phases)
Property: Viscosity, Pa*s (Fluid (supercritical or subcritical phases)); method: vibrating wire
Temperature, K	Pressure, kPa	Viscosity, Pa*s	uncertainty
273.15	40.934	7.44e-06	4.5e-08
273.15	51.054	7.443e-06	4.5e-08
273.15	100.76	7.443e-06	4.5e-08
273.15	149.62	7.435e-06	4.5e-08
273.15	196.97	7.431e-06	4.5e-08
273.15	243.87	7.424e-06	4.5e-08
273.15	289.3	7.419e-06	4.5e-08
273.15	333.56	7.415e-06	4.5e-08
273.15	376.67	7.41e-06	4.5e-08
273.15	420.03	7.406e-06	4.5e-08
273.15	459.55	7.404e-06	4.5e-08
273.15	459.58	7.403e-06	4.5e-08
273.15	420.03	7.406e-06	4.5e-08
298.15	44.704	8.128e-06	4.9e-08
298.15	55.551	8.133e-06	4.9e-08
298.15	110.39	8.13e-06	4.9e-08
298.15	164.09	8.127e-06	4.9e-08
298.15	164.66	8.126e-06	4.9e-08
298.15	217.05	8.127e-06	4.9e-08
298.15	217.09	8.128e-06	4.9e-08
298.15	268.78	8.125e-06	4.9e-08
298.15	318.03	8.125e-06	4.9e-08
298.15	369.4	8.13e-06	4.9e-08
298.15	418.44	8.126e-06	4.9e-08
298.15	464.73	8.128e-06	4.9e-08
298.15	498.81	8.126e-06	4.9e-08
298.15	513.59	8.121e-06	4.9e-08
298.15	559.93	8.129e-06	4.9e-08
298.15	600.75	8.132e-06	4.9e-08
298.15	604	8.127e-06	4.9e-08
298.15	646.36	8.128e-06	4.9e-08
298.15	691.04	8.132e-06	4.9e-08
298.15	692.19	8.133e-06	4.9e-08
298.15	783.49	8.144e-06	4.9e-08
298.15	849.03	8.15e-06	4.9e-08
298.15	875.16	8.155e-06	4.9e-08
298.15	878.68	8.158e-06	4.9e-08
298.15	646.36	8.13e-06	4.9e-08
366.15	68.968	9.907e-06	6e-08
366.15	136.86	9.923e-06	6e-08
366.15	270.35	9.941e-06	6e-08
366.15	400.53	9.956e-06	6e-08
366.15	527.04	9.974e-06	6e-08
366.15	649.96	9.996e-06	6e-08
366.15	772.49	1.0021e-05	6e-08
366.15	897.82	1.0047e-05	6.1e-08
366.15	1004.8	1.0069e-05	6.1e-08
366.15	1119.8	1.0101e-05	6.1e-08
366.15	1222.3	1.0133e-05	6.1e-08
366.15	1738.7	1.0317e-05	6.2e-08
366.15	2181.8	1.0553e-05	6.4e-08
366.15	2559.1	1.0828e-05	6.5e-08
366.15	2883	1.1141e-05	6.7e-08
366.15	3154.4	1.1494e-05	6.9e-08
366.15	3381.1	1.1896e-05	7.2e-08
366.15	3559.5	1.2323e-05	7.5e-08
366.15	3704.1	1.2817e-05	7.8e-08
366.15	3704.9	1.2823e-05	7.8e-08
373.15	70.003	1.0081e-05	6.1e-08
373.15	139.24	1.0097e-05	6.1e-08
373.15	275.58	1.012e-05	6.1e-08
373.15	408.76	1.0144e-05	6.1e-08
373.15	538.6	1.0173e-05	6.1e-08
373.15	666.93	1.0198e-05	6.2e-08
373.15	733.66	1.0214e-05	6.2e-08
373.15	917.57	1.0262e-05	6.2e-08
373.15	1023.3	1.0287e-05	6.2e-08
373.15	1147.8	1.0326e-05	6.2e-08
373.15	1248	1.0356e-05	6.2e-08
373.15	1781.8	1.0576e-05	6.4e-08
373.15	1781.9	1.0576e-05	6.4e-08
373.15	2244.2	1.0832e-05	6.6e-08
373.15	2244.5	1.0835e-05	6.6e-08
373.15	2640.8	1.1126e-05	6.7e-08
373.15	2640.9	1.1128e-05	6.7e-08
373.15	2984.3	1.1464e-05	6.9e-08
373.15	2984.4	1.1462e-05	6.9e-08
373.15	3288.7	1.1861e-05	7.1e-08
373.15	3289	1.1859e-05	7.1e-08
373.15	3531.3	1.2269e-05	7.4e-08
373.15	3531.6	1.2269e-05	7.4e-08
373.15	3739.8	1.2731e-05	7.7e-08
373.15	3740.2	1.273e-05	7.7e-08
373.15	3909.1	1.3233e-05	8.1e-08
373.15	3909.3	1.3228e-05	8.1e-08
373.15	4152.5	1.4312e-05	9.3e-08
373.15	4152.6	1.4308e-05	9.3e-08
373.15	4314.6	1.5607e-05	9.7e-08
373.15	4400.6	1.6909e-05	1.1e-07
373.15	4400.7	1.6918e-05	1.1e-07
373.15	4432.9	1.7731e-05	1.26e-07
373.15	4458.2	1.8761e-05	1.39e-07
373.15	4477.3	2.0022e-05	1.44e-07
373.15	4477.4	2.003e-05	1.44e-07
373.15	4491.9	2.1348e-05	1.52e-07
373.15	4492	2.1351e-05	1.52e-07
373.15	4502.7	2.2474e-05	1.61e-07
373.15	4512.2	2.3471e-05	1.67e-07
373.15	4515	2.3763e-05	1.69e-07
373.15	4515.1	2.3775e-05	1.69e-07
373.15	4530.1	2.5178e-05	1.78e-07
373.15	4530.2	2.5191e-05	1.78e-07
373.15	4556	2.7014e-05	1.91e-07
373.15	4556.1	2.7e-05	1.91e-07
373.15	4576.2	2.8046e-05	1.98e-07
373.15	4576.3	2.8061e-05	1.98e-07
373.15	4606.1	2.9254e-05	2.07e-07
373.15	4657.2	3.078e-05	2.18e-07
373.15	4657.5	3.0782e-05	2.18e-07
373.15	4809.3	3.3692e-05	2.23e-07
373.15	4809.5	3.3668e-05	2.23e-07
373.15	5105.6	3.7051e-05	2.43e-07
373.15	5105.8	3.7057e-05	2.43e-07
373.15	5614.7	4.0755e-05	2.66e-07
373.15	5616.4	4.0767e-05	2.66e-07
373.15	5652.1	4.0963e-05	2.67e-07
373.15	5664.6	4.1038e-05	2.67e-07
373.15	5665.9	4.1053e-05	2.68e-07
373.15	6602.8	4.5547e-05	2.96e-07
373.15	6603.5	4.5529e-05	2.96e-07
373.15	8140.1	5.0769e-05	3.26e-07
373.15	8140.4	5.0761e-05	3.26e-07
373.15	10482	5.6734e-05	3.56e-07
373.15	10483	5.6742e-05	3.56e-07
373.15	13841	6.3465e-05	3.92e-07
373.15	18565	7.1275e-05	4.38e-07
373.15	18567	7.1274e-05	4.38e-07
373.15	25008	8.0057e-05	4.89e-07
373.15	25010	8.022e-05	4.9e-07
373.15	28973	8.5263e-05	5.2e-07
373.15	28975	8.5313e-05	5.2e-07
373.15	29829	8.6263e-05	5.26e-07
373.15	29830	8.6257e-05	5.26e-07
373.15	4314.6	1.5605e-05	9.7e-08
373.15	4432.9	1.772e-05	1.26e-07
373.15	4458.2	1.8759e-05	1.39e-07
373.15	4502.7	2.2468e-05	1.61e-07
373.15	4512.2	2.3467e-05	1.67e-07
373.15	4606.1	2.9261e-05	2.07e-07
373.15	13841	6.3427e-05	3.92e-07
373.15	25008	8.0241e-05	4.9e-07
373.15	25010	8.0134e-05	4.9e-07
373.15	28975	8.5365e-05	5.21e-07
373.15	4432.9	1.772e-05	1.26e-07
373.15	28975	8.5301e-05	5.2e-07
423.15	79.366	1.1356e-05	6.8e-08
423.15	158.25	1.137e-05	6.8e-08
423.15	313.56	1.1398e-05	6.9e-08
423.15	466.92	1.1423e-05	6.9e-08
423.15	467.03	1.1427e-05	6.9e-08
423.15	611.2	1.1451e-05	6.9e-08
423.15	611.47	1.1451e-05	6.9e-08
423.15	763.44	1.148e-05	6.9e-08
423.15	763.61	1.1482e-05	6.9e-08
423.15	920.8	1.1514e-05	6.9e-08
423.15	1060.2	1.1552e-05	7e-08
423.15	1061.3	1.1553e-05	7e-08
423.15	1192.7	1.1582e-05	7e-08
423.15	1193.5	1.1582e-05	7e-08
423.15	1334.7	1.1625e-05	7e-08
423.15	1335.7	1.1623e-05	7e-08
423.15	1454.8	1.166e-05	7e-08
423.15	2110	1.189e-05	7.2e-08
423.15	2110.7	1.1888e-05	7.2e-08
423.15	2704.3	1.2168e-05	7.3e-08
423.15	2704.8	1.2167e-05	7.3e-08
423.15	3242.6	1.2477e-05	7.5e-08
423.15	3243.3	1.2478e-05	7.5e-08
423.15	3747.9	1.2835e-05	7.7e-08
423.15	3749.2	1.2838e-05	7.7e-08
423.15	4207.4	1.3232e-05	8e-08
423.15	4207.9	1.3229e-05	8e-08
423.15	4616.7	1.3649e-05	1.03e-07
423.15	4617.3	1.3651e-05	1.03e-07
423.15	5007.5	1.4125e-05	1.25e-07
423.15	5008.6	1.4124e-05	1.25e-07
423.15	5358.6	1.4621e-05	1.27e-07
423.15	5360.2	1.4622e-05	1.27e-07
423.15	5989.5	1.5732e-05	1.41e-07
423.15	5989.8	1.5732e-05	1.41e-07
423.15	6545.1	1.6998e-05	1.53e-07
423.15	6545.3	1.7e-05	1.53e-07
423.15	7033	1.8381e-05	1.6e-07
423.15	7033.7	1.8381e-05	1.6e-07
423.15	7520.1	2.0023e-05	1.68e-07
423.15	7520.8	2.002e-05	1.68e-07
423.15	7992.2	2.1824e-05	1.76e-07
423.15	7992.6	2.1825e-05	1.76e-07
423.15	8516	2.3954e-05	1.86e-07
423.15	8516.4	2.3945e-05	1.86e-07
423.15	9079.6	2.6241e-05	1.97e-07
423.15	9079.9	2.6232e-05	1.97e-07
423.15	9738.4	2.8773e-05	2.03e-07
423.15	9738.5	2.8779e-05	2.03e-07
423.15	10543	3.1605e-05	2.18e-07
423.15	10544	3.1599e-05	2.18e-07
423.15	11566	3.4767e-05	2.34e-07
423.15	12882	3.8267e-05	2.5e-07
423.15	12884	3.8283e-05	2.5e-07
423.15	14693	4.2355e-05	2.72e-07
423.15	17064	4.6937e-05	2.97e-07
423.15	17065	4.6911e-05	2.97e-07
423.15	20192	5.209e-05	3.26e-07
423.15	20193	5.2089e-05	3.26e-07
423.15	24333	5.7983e-05	3.6e-07
423.15	24334	5.7951e-05	3.6e-07
423.15	29700	6.4637e-05	3.99e-07
423.15	29703	6.4662e-05	3.99e-07
423.15	920.8	1.1516e-05	6.9e-08
423.15	1454.8	1.1658e-05	7e-08
423.15	11566	3.4766e-05	2.34e-07
423.15	14693	4.2344e-05	2.72e-07

System: propane; phases: Fluid (supercritical or subcritical phases)
Property: Mass density, kg/m3 (Fluid (supercritical or subcritical phases)); method: Buoyancy - hydrostatic balance with magnetic suspension - one sinker
Temperature, K	Pressure, kPa	Mass density, kg/m3	uncertainty
273.15	40.934	0.80164	0.00276
273.15	51.054	1.002	0.003
273.15	100.76	1.999	0.0048
273.15	149.62	3.0011	0.0067
273.15	196.97	3.9945	0.0087
273.15	243.87	5.0016	0.0107
273.15	289.3	6.0007	0.0128
273.15	333.56	6.9977	0.0149
273.15	376.67	7.9933	0.017
273.15	420.03	9.0207	0.0191
273.15	459.55	9.9815	0.0211
273.15	459.58	9.9822	0.0211
273.15	420.03	9.0207	0.0191
298.15	44.704	0.80087	0.00276
298.15	55.551	0.99693	0.00304
298.15	110.39	1.9989	0.0048
298.15	164.09	2.9981	0.0067
298.15	164.66	3.0089	0.0067
298.15	217.05	4.0022	0.0087
298.15	217.09	4.0029	0.0087
298.15	268.78	5.0013	0.0107
298.15	318.03	5.9708	0.0127
298.15	369.4	7.0017	0.0149
298.15	418.44	8.0059	0.0169
298.15	464.73	8.9725	0.019
298.15	498.81	9.6967	0.0205
298.15	513.59	10.014	0.021
298.15	559.93	11.023	0.023
298.15	600.75	11.93	0.025
298.15	604	12.003	0.025
298.15	646.36	12.965	0.027
298.15	691.04	14.002	0.03
298.15	692.19	14.029	0.03
298.15	783.49	16.228	0.034
298.15	849.03	17.879	0.038
298.15	875.16	18.556	0.039
298.15	878.68	18.648	0.04
298.15	646.36	12.965	0.027
366.15	68.968	1.0047	0.003
366.15	136.86	2.0051	0.0048
366.15	270.35	4.0067	0.0087
366.15	400.53	6.0046	0.0128
366.15	527.04	7.9924	0.0169
366.15	649.96	9.9702	0.0211
366.15	772.49	11.99	0.025
366.15	897.82	14.109	0.03
366.15	1004.8	15.963	0.034
366.15	1119.8	18.006	0.038
366.15	1222.3	19.872	0.042
366.15	1738.7	30.044	0.065
366.15	2181.8	40.086	0.089
366.15	2559.1	50.015	0.113
366.15	2883	60.029	0.141
366.15	3154.4	70.033	0.172
366.15	3381.1	80.175	0.204
366.15	3559.5	90.05	0.25
366.15	3704.1	100.205	0.292
366.15	3704.9	100.267	0.293
373.15	70.003	1.0004	0.003
373.15	139.24	2.0008	0.0048
373.15	275.58	4.0037	0.0087
373.15	408.76	6.0045	0.0128
373.15	538.6	7.9996	0.0169
373.15	666.93	10.017	0.021
373.15	733.66	11.085	0.023
373.15	917.57	14.099	0.03
373.15	1023.3	15.881	0.034
373.15	1147.8	18.031	0.038
373.15	1248	19.801	0.042
373.15	1781.8	29.954	0.064
373.15	1781.9	29.957	0.064
373.15	2244.2	39.982	0.087
373.15	2244.5	39.99	0.087
373.15	2640.8	49.856	0.111
373.15	2640.9	49.858	0.111
373.15	2984.3	59.751	0.137
373.15	2984.4	59.753	0.137
373.15	3288.7	70.03	0.17
373.15	3289	70.041	0.17
373.15	3531.3	79.736	0.205
373.15	3531.6	79.746	0.205
373.15	3739.8	89.698	0.246
373.15	3740.2	89.72	0.246
373.15	3909.1	99.505	0.304
373.15	3909.3	99.518	0.304
373.15	4152.5	118.628	0.418
373.15	4152.6	118.636	0.418
373.15	4314.6	139.148	0.409
373.15	4400.6	157.919	0.531
373.15	4400.7	157.947	0.531
373.15	4432.9	169.087	0.664
373.15	4458.2	181.487	0.746
373.15	4477.3	194.68	0.747
373.15	4477.4	194.74	0.747
373.15	4491.9	207.584	0.776
373.15	4492	207.643	0.776
373.15	4502.7	218.113	0.814
373.15	4512.2	227.14	0.831
373.15	4515	229.692	0.837
373.15	4515.1	229.821	0.837
373.15	4530.1	241.836	0.866
373.15	4530.2	241.88	0.866
373.15	4556	256.611	0.908
373.15	4556.1	256.634	0.908
373.15	4576.2	264.588	0.93
373.15	4576.3	264.609	0.93
373.15	4606.1	273.294	0.965
373.15	4657.2	283.68	0.977
373.15	4657.5	283.727	0.977
373.15	4809.3	301.877	0.712
373.15	4809.5	301.894	0.712
373.15	5105.6	320.889	0.712
373.15	5105.8	320.902	0.712
373.15	5614.7	339.536	0.737
373.15	5616.4	339.584	0.737
373.15	5652.1	340.592	0.74
373.15	5664.6	340.939	0.74
373.15	5665.9	340.974	0.74
373.15	6602.8	360.84	0.766
373.15	6603.5	360.852	0.766
373.15	8140.1	381.197	0.792
373.15	8140.4	381.2	0.792
373.15	10482	401.46	0.819
373.15	10483	401.469	0.819
373.15	13841	421.334	0.853
373.15	18565	441.166	0.893
373.15	18567	441.173	0.893
373.15	25008	460.907	0.936
373.15	25010	460.912	0.936
373.15	28973	470.682	0.956
373.15	28975	470.686	0.956
373.15	29829	472.623	0.961
373.15	29830	472.624	0.961
373.15	4314.6	139.152	0.409
373.15	4432.9	169.072	0.664
373.15	4458.2	181.456	0.746
373.15	4502.7	218.095	0.814
373.15	4512.2	227.171	0.831
373.15	4606.1	273.287	0.965
373.15	13841	421.333	0.853
373.15	25008	460.907	0.936
373.15	25010	460.912	0.936
373.15	28975	470.686	0.956
373.15	4432.9	169.051	0.664
373.15	28975	470.686	0.956
423.15	79.366	0.99883	0.00304
423.15	158.25	1.9998	0.0048
423.15	313.56	3.9954	0.0087
423.15	466.92	5.9988	0.0128
423.15	467.03	6.0003	0.0128
423.15	611.2	7.9148	0.0168
423.15	611.47	7.9184	0.0168
423.15	763.44	9.9704	0.0211
423.15	763.61	9.9726	0.0211
423.15	920.8	12.133	0.026
423.15	1060.2	14.082	0.03
423.15	1061.3	14.098	0.03
423.15	1192.7	15.966	0.034
423.15	1193.5	15.977	0.034
423.15	1334.7	18.018	0.038
423.15	1335.7	18.032	0.038
423.15	1454.8	19.782	0.042
423.15	2110	29.905	0.064
423.15	2110.7	29.916	0.064
423.15	2704.3	39.922	0.087
423.15	2704.8	39.931	0.087
423.15	3242.6	49.821	0.111
423.15	3243.3	49.834	0.111
423.15	3747.9	59.965	0.138
423.15	3749.2	59.991	0.138
423.15	4207.4	70.041	0.169
423.15	4207.9	70.052	0.169
423.15	4616.7	79.819	0.3
423.15	4617.3	79.834	0.3
423.15	5007.5	89.97	0.35
423.15	5008.6	90.002	0.35
423.15	5358.6	99.87	0.369
423.15	5360.2	99.917	0.369
423.15	5989.5	119.759	0.409
423.15	5989.8	119.769	0.409
423.15	6545.1	139.717	0.445
423.15	6545.3	139.725	0.445
423.15	7033	159.017	0.493
423.15	7033.7	159.048	0.493
423.15	7520.1	179.397	0.515
423.15	7520.8	179.425	0.516
423.15	7992.2	199.277	0.556
423.15	7992.6	199.294	0.556
423.15	8516	220.253	0.589
423.15	8516.4	220.267	0.589
423.15	9079.6	240.483	0.612
423.15	9079.9	240.492	0.612
423.15	9738.4	260.609	0.615
423.15	9738.5	260.612	0.615
423.15	10543	280.635	0.638
423.15	10544	280.644	0.638
423.15	11566	300.645	0.663
423.15	12882	320.474	0.685
423.15	12884	320.488	0.685
423.15	14693	341.059	0.72
423.15	17064	361.23	0.753
423.15	17065	361.234	0.753
423.15	20192	381.227	0.791
423.15	20193	381.229	0.791
423.15	24333	401.231	0.831
423.15	24334	401.235	0.831
423.15	29700	421.002	0.882
423.15	29703	421.011	0.882
423.15	920.8	12.133	0.026
423.15	1454.8	19.781	0.042
423.15	11566	300.654	0.663
423.15	14693	341.059	0.72
