Measured thermophysical data. Vapor Pressure Measurement of the Ternary Systems H2O + LiBr + [Dmim]Cl, H2O + LiBr + [Dmim]BF4, H2O + LiCl + [Dmim]Cl, and H2O + LiCl + [Dmim]BF4
Source: J. Chem. Eng. Data, 2011, 10.1021/je1009202
Compound 1: lithium bromide, BrLi, InChI=1S/BrH.Li/h1H;/q;+1/p-1, purity 99.5%
Compound 2: lithium chloride, ClLi, InChI=1S/ClH.Li/h1H;/q;+1/p-1, purity 99.5%
Compound 3: 1,3-dimethylimidazolium chloride, C5H9ClN2, InChI=1S/C5H9N2.ClH/c1-6-3-4-7(2)5-6;/h3-5H,1-2H3;1H/q+1;/p-1
Compound 4: 1,3-dimethyl-1H-imidazolium tetrafluoroborate, C5H9BF4N2, InChI=1S/C5H9N2.BF4/c1-6-3-4-7(2)5-6;2-1(3,4)5/h3-5H,1-2H3;/q+1;-1, purity 99%
Compound 5: water, H2O, InChI=1S/H2O/h1H2, purity 99.9%

System: lithium bromide + water + 1,3-dimethylimidazolium chloride; phases: Liquid, Gas
Property: Vapor or sublimation pressure, kPa (Liquid); method: Manometric method
Temperature, K	Mass fraction of water	Mass fraction of lithium bromide	Vapor or sublimation pressure, kPa	uncertainty
308.63	0.7	0.23	4.89	0.22
309.76	0.6	0.3	4.18	0.22
314.74	0.5	0.38	3.66	0.22
315.78	0.7	0.23	6.88	0.22
319.94	0.6	0.3	6.84	0.22
322.89	0.7	0.23	9.74	0.23
325.56	0.5	0.38	6.19	0.22
327.01	0.6	0.3	9.59	0.22
327.8	0.4	0.45	3.43	0.22
329.42	0.7	0.23	13.41	0.23
333.57	0.5	0.38	8.85	0.22
333.93	0.6	0.3	13.3	0.23
336.53	0.7	0.23	18.46	0.24
340.73	0.5	0.38	12.31	0.23
341.16	0.6	0.3	18.29	0.24
342.05	0.4	0.45	6.61	0.22
342.28	0.7	0.23	23.77	0.29
347.63	0.5	0.38	16.63	0.24
348.76	0.6	0.3	25.4	0.3
349.36	0.7	0.23	32.16	0.38
350.27	0.4	0.45	9.53	0.22
352.15	0.31	0.52	3.69	0.22
354.55	0.5	0.38	22.28	0.27
356.41	0.6	0.3	34.75	0.4
356.9	0.7	0.23	43.84	0.5
360.01	0.4	0.45	14.71	0.23
361.56	0.5	0.38	29.59	0.35
363.65	0.6	0.3	46.17	0.53
364.33	0.31	0.52	6.4	0.22
366.37	0.7	0.23	63.03	0.71
368.23	0.4	0.45	20.49	0.25
368.39	0.5	0.38	38.75	0.44
372.22	0.31	0.52	9.04	0.22
373.16	0.6	0.3	65.83	0.74
375.09	0.5	0.38	49.57	0.56
377.3	0.4	0.45	29.12	0.34
379.82	0.7	0.23	102.5	1.11
381.44	0.5	0.38	62.32	0.7
383.13	0.31	0.52	14.28	0.23
385.61	0.6	0.3	102.08	1.1
386.31	0.4	0.45	40.67	0.46
393.14	0.31	0.52	21.36	0.26
396.05	0.5	0.38	102.49	1.1
396.28	0.4	0.45	57.54	0.65
401.98	0.31	0.52	29.71	0.34
411.48	0.31	0.52	41.4	0.47
413.9	0.4	0.45	102.02	1.09
421.49	0.31	0.52	58.39	0.65
439.42	0.31	0.52	101.81	1.09

System: lithium bromide + water + 1,3-dimethyl-1H-imidazolium tetrafluoroborate; phases: Liquid, Gas
Property: Vapor or sublimation pressure, kPa (Liquid); method: Manometric method
Temperature, K	Mass fraction of water	Mass fraction of lithium bromide	Vapor or sublimation pressure, kPa	uncertainty
310.65	0.6	0.27	4.75	0.22
310.88	0.5	0.33	3.69	0.22
316.33	0.7	0.2	7.48	0.22
321.96	0.5	0.33	6.52	0.22
322.23	0.7	0.2	9.91	0.23
322.75	0.6	0.27	8.73	0.22
330.65	0.7	0.2	14.77	0.24
331.49	0.4	0.4	6.15	0.22
331.74	0.6	0.27	13.36	0.23
332.31	0.5	0.33	10.53	0.23
339.92	0.7	0.2	22.46	0.27
340.44	0.6	0.27	19.83	0.24
340.49	0.5	0.33	15.2	0.24
342.84	0.4	0.4	10.32	0.23
346.38	0.7	0.2	29.65	0.35
346.51	0.6	0.27	25.82	0.31
350.4	0.5	0.33	23.27	0.28
352	0.4	0.4	15.33	0.24
354.32	0.3	0.47	7.52	0.22
355.18	0.7	0.2	42.77	0.49
355.36	0.6	0.27	37.18	0.43
358.25	0.5	0.33	31.92	0.37
361.91	0.4	0.4	23	0.27
364.44	0.7	0.2	61.37	0.69
364.95	0.6	0.27	54.17	0.61
366.63	0.3	0.47	12.74	0.23
367.87	0.5	0.33	46.31	0.52
369.79	0.4	0.4	31.19	0.36
373.39	0.7	0.2	85.68	0.94
374.54	0.6	0.27	77.53	0.85
375.38	0.5	0.33	60.99	0.68
377.2	0.3	0.47	19.48	0.24
378.24	0.7	0.2	101.5	1.11
379.04	0.4	0.4	43.92	0.5
382.24	0.6	0.27	100.59	1.09
385.41	0.5	0.33	86.49	0.94
387.18	0.3	0.47	28.33	0.33
387.44	0.4	0.4	59.36	0.66
390.02	0.5	0.33	100.69	1.09
396.83	0.3	0.47	40.29	0.46
398.04	0.4	0.4	84.52	0.92
403.41	0.4	0.4	100.14	1.08
406.44	0.3	0.47	56.34	0.63
416.86	0.3	0.47	79.92	0.87
424.02	0.3	0.47	100.11	1.08

System: lithium chloride + water + 1,3-dimethylimidazolium chloride; phases: Liquid, Gas
Property: Vapor or sublimation pressure, kPa (Liquid); method: Manometric method
Temperature, K	Mass fraction of water	Mass fraction of lithium chloride	Vapor or sublimation pressure, kPa	uncertainty
303.6	0.8	0.13	3.63	0.22
309.15	0.7	0.2	3.83	0.22
310.56	0.8	0.13	5.44	0.22
316.8	0.7	0.2	5.78	0.22
318.26	0.8	0.13	7.99	0.22
321.83	0.6	0.27	4.68	0.22
327.83	0.8	0.13	12.7	0.23
330.69	0.6	0.27	7.26	0.22
331.28	0.7	0.2	11.65	0.23
334.63	0.45	0.37	3.39	0.22
337.88	0.8	0.13	20.06	0.25
337.99	0.5	0.33	5.63	0.22
342.71	0.7	0.2	19.36	0.24
344.01	0.6	0.27	13.33	0.23
345.17	0.45	0.37	5.71	0.22
346.1	0.8	0.13	28.6	0.34
346.64	0.5	0.33	8.43	0.22
351.24	0.7	0.2	27.79	0.33
353.59	0.6	0.27	20.18	0.25
354.46	0.8	0.13	40.49	0.47
356.03	0.45	0.37	9.37	0.22
359.26	0.5	0.33	14.68	0.23
360.22	0.7	0.2	39.88	0.46
361.56	0.6	0.27	27.93	0.33
363.34	0.8	0.13	57.2	0.64
366.34	0.45	0.37	14.72	0.23
367.2	0.5	0.33	20.43	0.25
368.88	0.7	0.2	55.59	0.63
371.22	0.6	0.27	40.76	0.46
372.63	0.8	0.13	81.49	0.9
375.28	0.45	0.37	21.19	0.26
375.29	0.5	0.33	28.35	0.33
378.57	0.8	0.13	99.81	1.08
379.05	0.7	0.2	80.25	0.88
379.8	0.6	0.27	55.99	0.63
383.14	0.45	0.37	28.93	0.34
385.17	0.5	0.33	41.24	0.47
385.53	0.7	0.2	100.12	1.09
390.08	0.6	0.27	80.77	0.88
392.59	0.45	0.37	41.15	0.47
394.04	0.5	0.33	56.84	0.65
396.83	0.6	0.27	101.12	1.09
401.88	0.45	0.37	57.36	0.64
411.15	0.5	0.33	101.22	1.09
411.99	0.45	0.37	80.72	0.88
419.26	0.45	0.37	101.69	1.1

System: lithium chloride + water + 1,3-dimethyl-1H-imidazolium tetrafluoroborate; phases: Liquid, Gas
Property: Vapor or sublimation pressure, kPa (Liquid); method: Manometric method
Temperature, K	Mass fraction of water	Mass fraction of lithium chloride	Vapor or sublimation pressure, kPa	uncertainty
299.93	0.8	0.13	3.26	0.22
309	0.8	0.13	5.17	0.22
311.73	0.7	0.2	4.55	0.22
318.67	0.8	0.13	8.22	0.22
320.29	0.6	0.27	4.61	0.22
322.27	0.7	0.2	7.86	0.22
325.84	0.5	0.33	3.6	0.22
328.38	0.6	0.27	7.16	0.22
328.57	0.8	0.13	13.32	0.23
332.05	0.7	0.2	12.52	0.23
337.08	0.5	0.33	6.41	0.22
338.4	0.8	0.13	20.84	0.26
339.73	0.43	0.38	4.95	0.22
339.88	0.6	0.27	12.18	0.23
342.39	0.7	0.2	19.86	0.25
347.46	0.8	0.13	30.82	0.36
350.14	0.43	0.38	8.53	0.22
350.24	0.5	0.33	11.76	0.23
350.49	0.6	0.27	19.38	0.24
351.41	0.7	0.2	29.23	0.34
357.14	0.8	0.13	45.78	0.52
359.85	0.6	0.27	28.62	0.34
360.37	0.7	0.2	41.85	0.48
360.81	0.5	0.33	18.4	0.24
362.49	0.43	0.38	14.19	0.23
366.34	0.8	0.13	65.28	0.73
369.17	0.6	0.27	41.33	0.47
369.92	0.7	0.2	60.34	0.68
370.54	0.5	0.33	27.46	0.32
371.97	0.43	0.38	21.05	0.26
374.91	0.8	0.13	90.02	0.98
378.6	0.6	0.27	58.75	0.66
378.6	0.8	0.13	101.62	1.1
379.43	0.7	0.2	85.13	0.93
380.43	0.43	0.38	29.31	0.34
380.49	0.5	0.33	40.4	0.46
384.62	0.7	0.2	101.7	1.11
388.74	0.6	0.27	83.9	0.92
389.55	0.5	0.33	56.29	0.63
389.92	0.43	0.38	41.92	0.47
394.41	0.6	0.27	101.5	1.1
399.36	0.43	0.38	57.86	0.64
399.97	0.5	0.33	80.82	0.88
406.68	0.5	0.33	100.42	1.09
409.3	0.43	0.38	80.98	0.88
416.47	0.43	0.38	100.61	1.08
