Measured thermophysical data. Dissolution Properties of 1,2,4-Triazole Nitrate in N-Methyl Pyrrolidone
Source: J. Chem. Eng. Data, 2011, 10.1021/je100838m
Compound 1: 1H-1,2,4-triazolium nitrate, C2H4N4O3, InChI=1S/C2H3N3.NO3/c1-3-2-5-4-1;2-1(3)4/h1-2H,(H,3,4,5);/q;-1/p+1, purity 99.5%
Compound 2: N-methylpyrrolidone, C5H9NO, InChI=1S/C5H9NO/c1-6-4-2-3-5(6)7/h2-4H2,1H3, purity 99.9%

System: N-methylpyrrolidone + 1H-1,2,4-triazolium nitrate; phases: Liquid
Fixed: Pressure, kPa = 101.3
Fixed: Mole fraction of 1H-1,2,4-triazolium nitrate = 0
Property: Molar enthalpy of solution, kJ/mol (Liquid); method: Calvet calorimetry
Temperature, K	Molar enthalpy of solution, kJ/mol	uncertainty
298.15	10.86	1.15
303.15	11.1	1.77
308.15	11.2	0.93
313.15	11.28	0.35
