Measured thermophysical data. Liquid-Liquid Coexistence Curves of Dimethyl Carbonate + Hexadecane and Dimethyl Carbonate + Octadecane in the Critical Region
Source: J. Chem. Eng. Data, 2010, 10.1021/je1005533
Compound 1: dimethyl carbonate, C3H6O3, InChI=1S/C3H6O3/c1-5-3(4)6-2/h1-2H3, purity 99%
Compound 2: hexadecane, C16H34, InChI=1S/C16H34/c1-3-5-7-9-11-13-15-16-14-12-10-8-6-4-2/h3-16H2,1-2H3, purity 99%
Compound 3: octadecane, C18H38, InChI=1S/C18H38/c1-3-5-7-9-11-13-15-17-18-16-14-12-10-8-6-4-2/h3-18H2,1-2H3, purity 99%

System: dimethyl carbonate; phases: Liquid
Fixed: Pressure, kPa = 101.3
Fixed: Wavelength, nm = 632.8
Property: Refractive index (other wavelength) (Liquid); method: Standard Abbe refractometry
Temperature, K	Refractive index (other wavelength)	uncertainty
308.249	1.3607	0.0006
309.26	1.3602	0.0006
310.321	1.3597	0.0006
311.364	1.3592	0.0006
312.438	1.3587	0.0006
313.486	1.3582	0.0006
314.534	1.3577	0.0006
315.56	1.3572	0.0006
316.664	1.3567	0.0006
317.666	1.3562	0.0006
318.717	1.3557	0.0006
327.67	1.3514	0.0006

System: hexadecane; phases: Liquid
Fixed: Pressure, kPa = 101.3
Fixed: Wavelength, nm = 632.8
Property: Refractive index (other wavelength) (Liquid); method: Standard Abbe refractometry
Temperature, K	Refractive index (other wavelength)	uncertainty
308.208	1.427	0.0007
309.244	1.4265	0.0007
310.207	1.4261	0.0007
311.24	1.4256	0.0007
312.302	1.4252	0.0007
313.342	1.4248	0.0007
314.442	1.4244	0.0007
315.535	1.4239	0.0007
316.549	1.4235	0.0007
317.556	1.4231	0.0007
318.613	1.4226	0.0007

System: octadecane; phases: Liquid
Property: Refractive index (other wavelength) (Liquid); method: Standard Abbe refractometry
Temperature, K	Pressure, kPa	Wavelength, nm	Refractive index (other wavelength)	uncertainty
327.67	101.3	632.8	1.4231	0.0007

System: hexadecane + dimethyl carbonate; phases: Liquid mixture 1, Liquid mixture 2
Fixed: Pressure, kPa = 101
Property: Refractive index (Na D-line) (Liquid mixture 1); method: Standard Abbe refractometry
Temperature, K	Refractive index (Na D-line)	uncertainty
306.84	1.4075	0.0004
307.849	1.4063	0.0004
309.257	1.4048	0.0004
310.451	1.4029	0.0004
311.549	1.4012	0.0004
312.557	1.3996	0.0004
313.341	1.3982	0.0004
313.97	1.3969	0.0004
314.546	1.3955	0.0004
314.953	1.3943	0.0004
315.254	1.3934	0.0004
315.462	1.3927	0.0004
315.625	1.3921	0.0004
315.775	1.3914	0.0004
315.892	1.3908	0.0004
315.977	1.3904	0.0004
316.049	1.39	0.0004
316.115	1.3896	0.0004
316.173	1.389	0.0004
316.219	1.3887	0.0004
316.26	1.3883	0.0004
316.293	1.3879	0.0004
316.32	1.3877	0.0004
316.344	1.3874	0.0004
316.364	1.3871	0.0004
316.387	1.3865	0.0004
316.403	1.3863	0.0004
316.415	1.3861	0.0004
316.426	1.3858	0.0005
316.439	1.3852	0.0005
316.444	1.3849	0.0005
316.447	1.3847	0.0005
316.451	1.3842	0.0005

System: hexadecane + dimethyl carbonate; phases: Liquid mixture 2, Liquid mixture 1
Fixed: Pressure, kPa = 101
Property: Refractive index (Na D-line) (Liquid mixture 2); method: Standard Abbe refractometry
Temperature, K	Refractive index (Na D-line)	uncertainty
306.84	1.3698	0.0004
307.849	1.3698	0.0004
309.257	1.37	0.0004
310.451	1.3702	0.0004
311.549	1.3706	0.0004
312.557	1.371	0.0004
313.341	1.3715	0.0004
313.97	1.372	0.0004
314.546	1.3728	0.0004
314.953	1.3732	0.0004
315.254	1.3738	0.0004
315.462	1.3742	0.0004
315.625	1.3747	0.0004
315.775	1.3752	0.0004
315.892	1.3755	0.0004
315.977	1.3759	0.0004
316.049	1.3762	0.0004
316.115	1.3765	0.0004
316.173	1.3769	0.0004
316.219	1.3773	0.0004
316.26	1.3775	0.0004
316.293	1.3778	0.0004
316.32	1.3781	0.0004
316.344	1.3783	0.0004
316.364	1.3786	0.0004
316.387	1.3791	0.0004
316.403	1.3793	0.0004
316.415	1.3796	0.0004
316.426	1.3799	0.0005
316.439	1.3805	0.0005
316.444	1.3808	0.0005
316.447	1.3809	0.0005
316.451	1.3815	0.0005

System: hexadecane + dimethyl carbonate; phases: Liquid mixture 1, Liquid mixture 2
Property: Upper consolute temperature, K (Liquid mixture 1); method: Derived from index of refraction data
Pressure, kPa	Upper consolute temperature, K	uncertainty
101.3	316.5	0.2

System: hexadecane + dimethyl carbonate; phases: Liquid mixture 1, Liquid mixture 2
Fixed: Pressure, kPa = 101
Property: Mole fraction of dimethyl carbonate (Liquid mixture 1); method: Index of refraction calibration data
Temperature, K	Mole fraction of dimethyl carbonate	uncertainty
306.84	0.517	0.001
307.849	0.531	0.001
309.257	0.547	0.001
310.451	0.571	0.001
311.549	0.592	0.001
312.557	0.61	0.001
313.341	0.627	0.001
313.97	0.642	0.001
314.546	0.659	0.001
314.953	0.673	0.001
315.254	0.684	0.001
315.462	0.692	0.001
315.625	0.699	0.001
315.775	0.707	0.001
315.892	0.714	0.001
315.977	0.719	0.001
316.049	0.723	0.001
316.115	0.728	0.001
316.173	0.735	0.001
316.219	0.738	0.001
316.26	0.743	0.001
316.293	0.747	0.001
316.32	0.749	0.001
316.344	0.753	0.001
316.364	0.756	0.001
316.387	0.763	0.001
316.403	0.765	0.002
316.415	0.767	0.002
316.426	0.77	0.002
316.439	0.777	0.003
316.444	0.78	0.003
316.447	0.782	0.003
316.451	0.788	0.004

System: hexadecane + dimethyl carbonate; phases: Liquid mixture 2, Liquid mixture 1
Fixed: Pressure, kPa = 101
Property: Mole fraction of dimethyl carbonate (Liquid mixture 2); method: Index of refraction calibration data
Temperature, K	Mole fraction of dimethyl carbonate	uncertainty
306.84	0.947	0.001
307.849	0.944	0.001
309.257	0.938	0.001
310.451	0.933	0.001
311.549	0.926	0.001
312.557	0.92	0.001
313.341	0.913	0.001
313.97	0.907	0.001
314.546	0.899	0.001
314.953	0.894	0.001
315.254	0.888	0.001
315.462	0.884	0.001
315.625	0.88	0.001
315.775	0.875	0.001
315.892	0.872	0.001
315.977	0.868	0.001
316.049	0.865	0.001
316.115	0.863	0.001
316.173	0.859	0.001
316.219	0.855	0.001
316.26	0.853	0.001
316.293	0.85	0.001
316.32	0.848	0.001
316.344	0.846	0.001
316.364	0.843	0.001
316.387	0.838	0.001
316.403	0.836	0.002
316.415	0.834	0.002
316.426	0.831	0.002
316.439	0.825	0.003
316.444	0.822	0.003
316.447	0.821	0.003
316.451	0.815	0.003

System: hexadecane + dimethyl carbonate; phases: Liquid mixture 1, Liquid mixture 2
Property: Upper consolute composition: mole fraction of dimethyl carbonate (Liquid mixture 1); method: Derived from index of refraction data
Pressure, kPa	Upper consolute composition: mole fraction of dimethyl carbonate	uncertainty
101.3	0.804	0.002

System: hexadecane + dimethyl carbonate; phases: Liquid
Fixed: Pressure, kPa = 101.3
Fixed: Wavelength, nm = 632.8
Property: Refractive index (other wavelength) (Liquid); method: Standard Abbe refractometry
Mole fraction of dimethyl carbonate	Temperature, K	Refractive index (other wavelength)	uncertainty
0	308.208	1.427	0.0007
0	309.244	1.4265	0.0007
0	310.207	1.4261	0.0007
0	311.24	1.4256	0.0007
0	312.302	1.4252	0.0007
0	313.342	1.4248	0.0007
0	314.442	1.4244	0.0007
0	315.535	1.4239	0.0007
0	316.549	1.4235	0.0007
0	317.556	1.4231	0.0007
0	318.613	1.4226	0.0007
0.132	308.192	1.4228	0.0007
0.132	309.248	1.4224	0.0007
0.132	310.327	1.4219	0.0007
0.132	311.386	1.4214	0.0007
0.132	312.433	1.421	0.0007
0.132	313.513	1.4206	0.0007
0.132	314.548	1.4201	0.0007
0.132	315.575	1.4197	0.0007
0.132	316.645	1.4192	0.0007
0.132	317.665	1.4188	0.0007
0.132	318.743	1.4183	0.0007
0.219	308.35	1.4197	0.0007
0.219	309.657	1.4191	0.0007
0.219	311.09	1.4185	0.0007
0.219	312.535	1.4179	0.0007
0.219	313.947	1.4173	0.0007
0.219	315.587	1.4166	0.0007
0.219	317.082	1.416	0.0007
0.219	318.501	1.4154	0.0007
0.291	308.398	1.417	0.0007
0.291	309.538	1.4164	0.0007
0.291	310.826	1.4158	0.0007
0.291	312.086	1.4153	0.0007
0.291	313.335	1.4147	0.0007
0.291	314.63	1.4142	0.0007
0.291	315.922	1.4136	0.0007
0.291	317.198	1.4131	0.0007
0.291	318.492	1.4125	0.0007
0.397	308.286	1.4128	0.0007
0.397	309.322	1.4123	0.0007
0.397	310.377	1.4118	0.0007
0.397	311.417	1.4113	0.0007
0.397	312.464	1.4108	0.0007
0.397	313.528	1.4104	0.0007
0.397	314.616	1.41	0.0007
0.397	315.707	1.4094	0.0007
0.397	316.731	1.409	0.0007
0.397	317.807	1.4085	0.0007
0.397	318.895	1.408	0.0007
0.517	312.202	1.4052	0.0007
0.517	313.159	1.4048	0.0007
0.517	314.256	1.4043	0.0007
0.517	315.336	1.4038	0.0007
0.517	316.417	1.4033	0.0007
0.517	317.506	1.4028	0.0007
0.6	312.176	1.4005	0.0007
0.6	313.32	1.3999	0.0007
0.6	314.442	1.3994	0.0007
0.6	315.501	1.3989	0.0007
0.6	316.559	1.3984	0.0007
0.6	317.673	1.3979	0.0007
0.689	316.188	1.3925	0.0007
0.689	317.024	1.3921	0.0007
0.689	317.89	1.3917	0.0007
0.689	318.844	1.3913	0.0007
0.689	319.741	1.3909	0.0007
0.804	316.452	1.3827	0.0007
0.804	317.248	1.3823	0.0007
0.804	318.056	1.3819	0.0007
0.804	318.911	1.3815	0.0007
0.804	319.787	1.381	0.0007
0.804	320.642	1.3806	0.0007
0.872	316.858	1.3751	0.0007
0.872	317.737	1.3747	0.0007
0.872	318.552	1.3743	0.0007
0.872	319.4	1.3739	0.0007
0.872	320.277	1.3735	0.0007
1	308.249	1.3607	0.0007
1	309.26	1.3602	0.0007
1	310.321	1.3597	0.0007
1	311.364	1.3592	0.0007
1	312.438	1.3587	0.0007
1	313.486	1.3582	0.0007
1	314.534	1.3577	0.0007
1	315.56	1.3572	0.0007
1	316.664	1.3567	0.0007
1	317.666	1.3562	0.0007
1	318.717	1.3557	0.0007

System: octadecane + dimethyl carbonate; phases: Liquid mixture 1, Liquid mixture 2
Fixed: Pressure, kPa = 101
Property: Refractive index (Na D-line) (Liquid mixture 1); method: Standard Abbe refractometry
Temperature, K	Refractive index (Na D-line)	uncertainty
315.21	1.4055	0.0004
316.784	1.4034	0.0004
318.192	1.4015	0.0004
319.405	1.3995	0.0004
320.401	1.3978	0.0004
321.253	1.3962	0.0004
321.957	1.3946	0.0004
322.517	1.3932	0.0004
322.882	1.3921	0.0004
323.184	1.3912	0.0004
323.389	1.3904	0.0004
323.566	1.3896	0.0004
323.716	1.389	0.0004
323.819	1.3884	0.0004
323.906	1.388	0.0004
323.984	1.3874	0.0004
324.043	1.3871	0.0004
324.089	1.3867	0.0004
324.131	1.3864	0.0004
324.164	1.386	0.0004
324.195	1.3857	0.0004
324.223	1.3854	0.0004
324.25	1.3851	0.0004
324.278	1.3846	0.0004
324.303	1.3842	0.0004
324.317	1.384	0.0004
324.344	1.3832	0.0005
324.353	1.383	0.0005
324.365	1.3824	0.0005
324.369	1.3821	0.0005

System: octadecane + dimethyl carbonate; phases: Liquid mixture 2, Liquid mixture 1
Fixed: Pressure, kPa = 101
Property: Refractive index (Na D-line) (Liquid mixture 2); method: Standard Abbe refractometry
Temperature, K	Refractive index (Na D-line)	uncertainty
315.21	1.366	0.0004
316.784	1.3661	0.0004
318.192	1.3663	0.0004
319.405	1.3667	0.0004
320.401	1.3672	0.0004
321.253	1.3678	0.0004
321.957	1.3685	0.0004
322.517	1.3691	0.0004
322.882	1.3697	0.0004
323.184	1.3704	0.0004
323.389	1.3708	0.0004
323.566	1.3713	0.0004
323.716	1.3718	0.0004
323.819	1.3722	0.0004
323.906	1.3725	0.0004
323.984	1.373	0.0004
324.043	1.3733	0.0004
324.089	1.3736	0.0004
324.131	1.3737	0.0004
324.164	1.3741	0.0004
324.195	1.3744	0.0004
324.223	1.3747	0.0004
324.25	1.3749	0.0004
324.278	1.3753	0.0004
324.303	1.3758	0.0004
324.317	1.376	0.0004
324.344	1.3767	0.0005
324.353	1.377	0.0005
324.365	1.3776	0.0005
324.369	1.3779	0.0005

System: octadecane + dimethyl carbonate; phases: Liquid
Fixed: Temperature, K = 327.67
Fixed: Pressure, kPa = 101.3
Fixed: Wavelength, nm = 632.8
Property: Refractive index (other wavelength) (Liquid); method: Standard Abbe refractometry
Mole fraction of dimethyl carbonate	Refractive index (other wavelength)	uncertainty
0	1.4231	0.0007
0.099	1.4203	0.0007
0.202	1.4169	0.0007
0.299	1.4132	0.0007
0.399	1.4089	0.0007
0.509	1.4034	0.0007
0.601	1.3979	0.0007
0.701	1.3907	0.0007
0.807	1.3806	0.0007
0.902	1.3685	0.0007
1	1.3514	0.0007

System: octadecane + dimethyl carbonate; phases: Liquid mixture 1, Liquid mixture 2
Property: Upper consolute temperature, K (Liquid mixture 1); method: Derived from index of refraction data
Pressure, kPa	Upper consolute temperature, K	uncertainty
101.3	324.4	0.2

System: octadecane + dimethyl carbonate; phases: Liquid mixture 2, Liquid mixture 1
Fixed: Pressure, kPa = 101
Property: Mole fraction of dimethyl carbonate (Liquid mixture 2); method: Index of refraction calibration data
Temperature, K	Mole fraction of dimethyl carbonate	uncertainty
315.21	0.955	0.001
316.784	0.95	0.001
318.192	0.945	0.001
319.405	0.939	0.001
320.401	0.933	0.001
321.253	0.927	0.001
321.957	0.92	0.001
322.517	0.914	0.001
322.882	0.909	0.001
323.184	0.904	0.001
323.389	0.9	0.001
323.566	0.896	0.001
323.716	0.892	0.001
323.819	0.889	0.001
323.906	0.887	0.001
323.984	0.883	0.001
324.043	0.881	0.001
324.089	0.878	0.001
324.131	0.877	0.001
324.164	0.874	0.001
324.195	0.872	0.001
324.223	0.87	0.001
324.25	0.868	0.001
324.278	0.865	0.001
324.303	0.861	0.001
324.317	0.859	0.001
324.344	0.854	0.002
324.353	0.851	0.002
324.365	0.847	0.002
324.369	0.844	0.002

System: octadecane + dimethyl carbonate; phases: Liquid mixture 1, Liquid mixture 2
Fixed: Pressure, kPa = 101
Property: Mole fraction of dimethyl carbonate (Liquid mixture 1); method: Index of refraction calibration data
Temperature, K	Mole fraction of dimethyl carbonate	uncertainty
315.21	0.57	0.001
316.784	0.593	0.001
318.192	0.613	0.001
319.405	0.634	0.001
320.401	0.652	0.001
321.253	0.668	0.001
321.957	0.685	0.001
322.517	0.699	0.001
322.882	0.711	0.001
323.184	0.72	0.001
323.389	0.728	0.001
323.566	0.736	0.001
323.716	0.742	0.001
323.819	0.748	0.001
323.906	0.752	0.001
323.984	0.758	0.001
324.043	0.761	0.001
324.089	0.765	0.001
324.131	0.768	0.001
324.164	0.771	0.001
324.195	0.774	0.001
324.223	0.777	0.001
324.25	0.78	0.001
324.278	0.785	0.001
324.303	0.789	0.001
324.317	0.79	0.001
324.344	0.798	0.002
324.353	0.8	0.002
324.365	0.805	0.002
324.369	0.808	0.002

System: octadecane + dimethyl carbonate; phases: Liquid mixture 1, Liquid mixture 2
Property: Upper consolute composition: mole fraction of dimethyl carbonate (Liquid mixture 1); method: Derived from index of refraction data
Pressure, kPa	Upper consolute composition: mole fraction of dimethyl carbonate	uncertainty
101.3	0.829	0.002
