Measured thermophysical data. Apparent Molar Volumes and Viscosity B-Coefficients of Carbohydrates in Aqueous Cetrimonium Bromide Solutions at (298.15, 308.15, and 318.15) K
Source: J. Chem. Eng. Data, 2010, 10.1021/je100211s
Compound 1: N,N,N-trimethyl-1-hexadecanaminium bromide, C19H42BrN, InChI=1S/C19H42N.BrH/c1-5-6-7-8-9-10-11-12-13-14-15-16-17-18-19-20(2,3)4;/h5-19H2,1-4H3;1H/q+1;/p-1
Compound 2: water, H2O, InChI=1S/H2O/h1H2
Compound 3: D-glucose, C6H12O6, InChI=1S/C6H12O6/c7-1-3(9)5(11)6(12)4(10)2-8/h1,3-6,8-12H,2H2/t3-,4+,5+,6+/m0/s1
Compound 4: D-mannitol, C6H14O6, InChI=1S/C6H14O6/c7-1-3(9)5(11)6(12)4(10)2-8/h3-12H,1-2H2/t3-,4-,5-,6-/m1/s1
Compound 5: D-sucrose, C12H22O11, InChI=1S/C12H22O11/c13-1-4-6(16)8(18)9(19)11(21-4)23-12(3-15)10(20)7(17)5(2-14)22-12/h4-11,13-20H,1-3H2/t4-,5-,6-,7-,8+,9-,10+,11-,12+/m1/s1

System: N,N,N-trimethyl-1-hexadecanaminium bromide + water; phases: Liquid
Fixed: Pressure, kPa = 101
Property: Viscosity, Pa*s (Liquid); method: Capillary tube (Ostwald; Ubbelohde) method
Molality, mol/kg of N,N,N-trimethyl-1-hexadecanaminium bromide	Temperature, K	Viscosity, Pa*s	uncertainty
0.001	298.15	0.000899	9e-06
0.001	308.15	0.000744	8e-06
0.001	318.15	0.000617	8e-06
0.003	298.15	0.00091	9e-06
0.003	308.15	0.000752	8e-06
0.003	318.15	0.000622	8e-06
0.005	298.15	0.000921	9e-06
0.005	308.15	0.00076	8e-06
0.005	318.15	0.000635	8e-06

System: N,N,N-trimethyl-1-hexadecanaminium bromide + water; phases: Liquid
Fixed: Pressure, kPa = 101
Property: Mass density, kg/m3 (Liquid); method: Vibrating tube method
Temperature, K	Molality, mol/kg of N,N,N-trimethyl-1-hexadecanaminium bromide	Mass density, kg/m3	uncertainty
298.15	0.001	997.2	0.5
298.15	0.003	997.3	0.5
298.15	0.005	997.4	0.5
308.15	0.001	994.2	0.5
308.15	0.003	994.3	0.5
308.15	0.005	994.4	0.5
318.15	0.001	990.4	0.5
318.15	0.003	990.5	0.5
318.15	0.005	990.6	0.5

System: D-glucose + N,N,N-trimethyl-1-hexadecanaminium bromide + water; phases: Liquid
Fixed: Pressure, kPa = 101
Property: Viscosity, Pa*s (Liquid); method: Capillary tube (Ostwald; Ubbelohde) method
Molality, mol/kg of D-glucose	Temperature, K	Solvent: Molality, mol/kg of N,N,N-trimethyl-1-hexadecanaminium bromide	Viscosity, Pa*s	uncertainty
0.0121	298.15	0.001	0.000907	1.2e-05
0.0242	298.15	0.001	0.000913	1.2e-05
0.0403	298.15	0.001	0.000921	1.2e-05
0.0566	298.15	0.001	0.000928	1.2e-05
0.0729	298.15	0.001	0.000936	1.3e-05
0.0852	298.15	0.001	0.000942	1.3e-05
0.0121	308.15	0.001	0.000751	1e-05
0.0242	308.15	0.001	0.000756	1e-05
0.0403	308.15	0.001	0.000762	1e-05
0.0566	308.15	0.001	0.000769	1.1e-05
0.0729	308.15	0.001	0.000775	1.1e-05
0.0852	308.15	0.001	0.00078	1.1e-05
0.0121	318.15	0.001	0.000622	9e-06
0.0242	318.15	0.001	0.000626	9e-06
0.0403	318.15	0.001	0.000631	9e-06
0.0566	318.15	0.001	0.000637	9e-06
0.0729	318.15	0.001	0.000642	9e-06
0.0852	318.15	0.001	0.000646	9e-06
0.0121	298.15	0.003	0.000919	1.2e-05
0.0241	298.15	0.003	0.000925	1.2e-05
0.0403	298.15	0.003	0.000933	1.3e-05
0.0565	298.15	0.003	0.000941	1.3e-05
0.0728	298.15	0.003	0.000948	1.3e-05
0.0851	298.15	0.003	0.000953	1.3e-05
0.0121	308.15	0.003	0.000759	1e-05
0.0241	308.15	0.003	0.000765	1e-05
0.0403	308.15	0.003	0.000771	1.1e-05
0.0565	308.15	0.003	0.000778	1.1e-05
0.0728	308.15	0.003	0.000784	1.1e-05
0.0851	308.15	0.003	0.000789	1.1e-05
0.0121	318.15	0.003	0.000627	9e-06
0.0241	318.15	0.003	0.000631	9e-06
0.0403	318.15	0.003	0.000637	9e-06
0.0565	318.15	0.003	0.000642	9e-06
0.0728	318.15	0.003	0.000648	9e-06
0.0851	318.15	0.003	0.000652	9e-06
0.012	298.15	0.005	0.000929	1.2e-05
0.0241	298.15	0.005	0.000936	1.3e-05
0.0403	298.15	0.005	0.000944	1.3e-05
0.0565	298.15	0.005	0.000951	1.3e-05
0.0728	298.15	0.005	0.000959	1.3e-05
0.0851	298.15	0.005	0.000965	1.3e-05
0.012	308.15	0.005	0.000766	1e-05
0.0241	308.15	0.005	0.000772	1.1e-05
0.0403	308.15	0.005	0.000779	1.1e-05
0.0565	308.15	0.005	0.000785	1.1e-05
0.0728	308.15	0.005	0.000792	1.1e-05
0.0851	308.15	0.005	0.000797	1.1e-05
0.012	318.15	0.005	0.00064	9e-06
0.0241	318.15	0.005	0.000644	9e-06
0.0403	318.15	0.005	0.00065	9e-06
0.0565	318.15	0.005	0.000656	9e-06
0.0728	318.15	0.005	0.000661	9e-06
0.0851	318.15	0.005	0.000665	9e-06

System: D-glucose + N,N,N-trimethyl-1-hexadecanaminium bromide + water; phases: Liquid
Fixed: Pressure, kPa = 101
Property: Mass density, kg/m3 (Liquid); method: Vibrating tube method
Molality, mol/kg of D-glucose	Temperature, K	Solvent: Molality, mol/kg of N,N,N-trimethyl-1-hexadecanaminium bromide	Mass density, kg/m3	uncertainty
0.0121	298.15	0.001	997.9	1.1
0.0242	298.15	0.001	998.6	1.1
0.0403	298.15	0.001	999.6	1.1
0.0566	298.15	0.001	1000.6	1.1
0.0729	298.15	0.001	1001.6	1.1
0.0852	298.15	0.001	1002.3	1.1
0.0121	308.15	0.001	994.9	1.1
0.0242	308.15	0.001	995.6	1.1
0.0403	308.15	0.001	996.5	1.1
0.0566	308.15	0.001	997.5	1.1
0.0729	308.15	0.001	998.5	1.1
0.0852	308.15	0.001	999.2	1.1
0.0121	318.15	0.001	991.1	1.1
0.0242	318.15	0.001	991.8	1.1
0.0403	318.15	0.001	992.7	1.1
0.0566	318.15	0.001	993.7	1.1
0.0729	318.15	0.001	994.7	1.1
0.0852	318.15	0.001	995.4	1.1
0.0121	298.15	0.003	998	1.1
0.0241	298.15	0.003	998.7	1.1
0.0403	298.15	0.003	999.7	1.3
0.0565	298.15	0.003	1000.7	1.1
0.0728	298.15	0.003	1001.7	1.1
0.0851	298.15	0.003	1002.4	1.1
0.0121	308.15	0.003	995	1.1
0.0241	308.15	0.003	995.7	1.1
0.0403	308.15	0.003	996.6	1.1
0.0565	308.15	0.003	997.6	1.1
0.0728	308.15	0.003	998.6	1.1
0.0851	308.15	0.003	999.3	1.1
0.0121	318.15	0.003	991.2	1.1
0.0241	318.15	0.003	991.9	1.1
0.0403	318.15	0.003	992.8	1.3
0.0565	318.15	0.003	993.8	1.1
0.0728	318.15	0.003	994.8	1.1
0.0851	318.15	0.003	995.5	1.1
0.012	298.15	0.005	998.1	1.1
0.0241	298.15	0.005	998.8	1.1
0.0403	298.15	0.005	999.8	1.1
0.0565	298.15	0.005	1000.8	1.1
0.0728	298.15	0.005	1001.8	1.1
0.0851	298.15	0.005	1002.5	1.1
0.012	308.15	0.005	995.1	1.1
0.0241	308.15	0.005	995.8	1.1
0.0403	308.15	0.005	996.7	1.1
0.0565	308.15	0.005	997.7	1.1
0.0728	308.15	0.005	998.6	1.1
0.0851	308.15	0.005	999.4	1.1
0.012	318.15	0.005	991.3	1.1
0.0241	318.15	0.005	991.9	1.1
0.0403	318.15	0.005	992.9	1.1
0.0565	318.15	0.005	993.8	1.1
0.0728	318.15	0.005	994.8	1.1
0.0851	318.15	0.005	995.6	1.1

System: N,N,N-trimethyl-1-hexadecanaminium bromide + D-mannitol + water; phases: Liquid
Fixed: Pressure, kPa = 101
Property: Viscosity, Pa*s (Liquid); method: Capillary tube (Ostwald; Ubbelohde) method
Molality, mol/kg of D-mannitol	Temperature, K	Solvent: Molality, mol/kg of N,N,N-trimethyl-1-hexadecanaminium bromide	Viscosity, Pa*s	uncertainty
0.0121	298.15	0.001	0.000907	1.2e-05
0.0243	298.15	0.001	0.000913	1.2e-05
0.0405	298.15	0.001	0.000922	1.2e-05
0.0569	298.15	0.001	0.00093	1.2e-05
0.0732	298.15	0.001	0.000937	1.3e-05
0.0856	298.15	0.001	0.000943	1.3e-05
0.0121	308.15	0.001	0.000751	1e-05
0.0243	308.15	0.001	0.000756	1e-05
0.0405	308.15	0.001	0.000763	1e-05
0.0569	308.15	0.001	0.00077	1.1e-05
0.0732	308.15	0.001	0.000776	1.1e-05
0.0856	308.15	0.001	0.000781	1.1e-05
0.0121	318.15	0.001	0.000621	9e-06
0.0243	318.15	0.001	0.000626	9e-06
0.0405	318.15	0.001	0.000631	9e-06
0.0569	318.15	0.001	0.000636	9e-06
0.0732	318.15	0.001	0.000642	9e-06
0.0856	318.15	0.001	0.000646	9e-06
0.0121	298.15	0.003	0.000918	1.2e-05
0.0241	298.15	0.003	0.000924	1.2e-05
0.0403	298.15	0.003	0.000932	1.3e-05
0.0566	298.15	0.003	0.00094	1.3e-05
0.0729	298.15	0.003	0.000948	1.3e-05
0.0851	298.15	0.003	0.000953	1.3e-05
0.0121	308.15	0.003	0.000759	1e-05
0.0241	308.15	0.003	0.000764	1e-05
0.0403	308.15	0.003	0.000771	1.1e-05
0.0566	308.15	0.003	0.000778	1.1e-05
0.0729	308.15	0.003	0.000784	1.1e-05
0.0851	308.15	0.003	0.000789	1.1e-05
0.0121	318.15	0.003	0.000627	9e-06
0.0241	318.15	0.003	0.000632	9e-06
0.0403	318.15	0.003	0.000637	9e-06
0.0566	318.15	0.003	0.000643	9e-06
0.0729	318.15	0.003	0.000648	9e-06
0.0851	318.15	0.003	0.000653	9e-06
0.0121	298.15	0.005	0.000929	1.2e-05
0.0242	298.15	0.005	0.000935	1.3e-05
0.0403	298.15	0.005	0.000943	1.3e-05
0.0566	298.15	0.005	0.00095	1.3e-05
0.0729	298.15	0.005	0.000958	1.3e-05
0.0851	298.15	0.005	0.000965	1.3e-05
0.0121	308.15	0.005	0.000766	1e-05
0.0242	308.15	0.005	0.000771	1.1e-05
0.0403	308.15	0.005	0.000778	1.1e-05
0.0566	308.15	0.005	0.000785	1.1e-05
0.0729	308.15	0.005	0.000791	1.1e-05
0.0851	308.15	0.005	0.000796	1.1e-05
0.0121	318.15	0.005	0.00064	9e-06
0.0242	318.15	0.005	0.000645	9e-06
0.0403	318.15	0.005	0.00065	9e-06
0.0566	318.15	0.005	0.000656	9e-06
0.0729	318.15	0.005	0.000662	9e-06
0.0851	318.15	0.005	0.000667	9e-06

System: N,N,N-trimethyl-1-hexadecanaminium bromide + D-mannitol + water; phases: Liquid
Fixed: Pressure, kPa = 101
Property: Mass density, kg/m3 (Liquid); method: Vibrating tube method
Molality, mol/kg of D-mannitol	Temperature, K	Solvent: Molality, mol/kg of N,N,N-trimethyl-1-hexadecanaminium bromide	Mass density, kg/m3	uncertainty
0.0121	298.15	0.001	997.9	1.1
0.0243	298.15	0.001	998.7	1.1
0.0405	298.15	0.001	999.7	1.1
0.0569	298.15	0.001	1000.7	1.1
0.0732	298.15	0.001	1001.7	1.1
0.0856	298.15	0.001	1002.5	1.1
0.0121	308.15	0.001	994.9	1.1
0.0243	308.15	0.001	995.6	1.1
0.0405	308.15	0.001	996.6	1.1
0.0569	308.15	0.001	997.6	1.1
0.0732	308.15	0.001	998.6	1.1
0.0856	308.15	0.001	999.4	1.1
0.0121	318.15	0.001	991.1	1.1
0.0243	318.15	0.001	991.7	1.1
0.0405	318.15	0.001	992.7	1.1
0.0569	318.15	0.001	993.7	1.1
0.0732	318.15	0.001	994.8	1.1
0.0856	318.15	0.001	995.6	1.1
0.0121	298.15	0.003	998	1.1
0.0241	298.15	0.003	998.7	1.1
0.0403	298.15	0.003	999.7	1.1
0.0566	298.15	0.003	1000.8	1.1
0.0729	298.15	0.003	1001.8	1.1
0.0851	298.15	0.003	1002.6	1.1
0.0121	308.15	0.003	995	1.1
0.0241	308.15	0.003	995.7	1.1
0.0403	308.15	0.003	996.7	1.1
0.0566	308.15	0.003	997.7	1.1
0.0729	308.15	0.003	998.7	1.1
0.0851	308.15	0.003	999.5	1.1
0.0121	318.15	0.003	991.1	1.1
0.0241	318.15	0.003	991.8	1.1
0.0403	318.15	0.003	992.8	1.1
0.0566	318.15	0.003	993.8	1.1
0.0729	318.15	0.003	994.8	1.1
0.0851	318.15	0.003	995.6	1.1
0.0121	298.15	0.005	998.1	1.1
0.0242	298.15	0.005	998.8	1.1
0.0403	298.15	0.005	999.8	1.1
0.0566	298.15	0.005	1000.8	1.1
0.0729	298.15	0.005	1001.9	1.1
0.0851	298.15	0.005	1002.7	1.1
0.0121	308.15	0.005	995	1.1
0.0242	308.15	0.005	995.7	1.1
0.0403	308.15	0.005	996.7	1.1
0.0566	308.15	0.005	997.7	1.1
0.0729	308.15	0.005	998.8	1.1
0.0851	308.15	0.005	999.6	1.1
0.0121	318.15	0.005	991.2	1.1
0.0242	318.15	0.005	991.9	1.1
0.0403	318.15	0.005	992.9	1.1
0.0566	318.15	0.005	993.9	1.1
0.0729	318.15	0.005	994.9	1.1
0.0851	318.15	0.005	995.7	1.1

System: N,N,N-trimethyl-1-hexadecanaminium bromide + D-sucrose + water; phases: Liquid
Fixed: Pressure, kPa = 101
Property: Viscosity, Pa*s (Liquid); method: Capillary tube (Ostwald; Ubbelohde) method
Molality, mol/kg of D-sucrose	Temperature, K	Solvent: Molality, mol/kg of N,N,N-trimethyl-1-hexadecanaminium bromide	Viscosity, Pa*s	uncertainty
0.0121	298.15	0.001	0.000903	1.2e-05
0.0242	298.15	0.001	0.000909	1.2e-05
0.0405	298.15	0.001	0.000918	1.2e-05
0.0569	298.15	0.001	0.000928	1.2e-05
0.0734	298.15	0.001	0.000937	1.3e-05
0.0858	298.15	0.001	0.000946	1.3e-05
0.0121	308.15	0.001	0.000747	1e-05
0.0242	308.15	0.001	0.000752	1e-05
0.0405	308.15	0.001	0.00076	1e-05
0.0569	308.15	0.001	0.000769	1.1e-05
0.0734	308.15	0.001	0.000777	1.1e-05
0.0858	308.15	0.001	0.000783	1.1e-05
0.0121	318.15	0.001	0.000619	9e-06
0.0242	318.15	0.001	0.000623	9e-06
0.0405	318.15	0.001	0.00063	9e-06
0.0569	318.15	0.001	0.000636	9e-06
0.0734	318.15	0.001	0.000643	9e-06
0.0858	318.15	0.001	0.000649	9e-06
0.0121	298.15	0.003	0.000914	1.2e-05
0.0242	298.15	0.003	0.000921	1.2e-05
0.0405	298.15	0.003	0.000931	1.3e-05
0.0569	298.15	0.003	0.00094	1.3e-05
0.0734	298.15	0.003	0.00095	1.3e-05
0.0859	298.15	0.003	0.000958	1.3e-05
0.0121	308.15	0.003	0.000755	1e-05
0.0242	308.15	0.003	0.00076	1e-05
0.0405	308.15	0.003	0.000767	1e-05
0.0569	308.15	0.003	0.000776	1.1e-05
0.0734	308.15	0.003	0.000785	1.1e-05
0.0859	308.15	0.003	0.000792	1.1e-05
0.0121	318.15	0.003	0.000624	9e-06
0.0242	318.15	0.003	0.000628	9e-06
0.0405	318.15	0.003	0.000635	9e-06
0.0569	318.15	0.003	0.000642	9e-06
0.0734	318.15	0.003	0.000649	9e-06
0.0859	318.15	0.003	0.000655	9e-06
0.0121	298.15	0.005	0.000924	1.2e-05
0.0242	298.15	0.005	0.000931	1.3e-05
0.0405	298.15	0.005	0.00094	1.3e-05
0.0569	298.15	0.005	0.00095	1.3e-05
0.0734	298.15	0.005	0.00096	1.3e-05
0.0858	298.15	0.005	0.000968	1.3e-05
0.0121	308.15	0.005	0.000762	1e-05
0.0242	308.15	0.005	0.000767	1e-05
0.0405	308.15	0.005	0.000775	1.1e-05
0.0569	308.15	0.005	0.000784	1.1e-05
0.0734	308.15	0.005	0.000793	1.1e-05
0.0858	308.15	0.005	0.000799	1.1e-05
0.0121	318.15	0.005	0.000636	9e-06
0.0242	318.15	0.005	0.000641	9e-06
0.0405	318.15	0.005	0.000648	9e-06
0.0569	318.15	0.005	0.000655	9e-06
0.0734	318.15	0.005	0.000663	9e-06
0.0858	318.15	0.005	0.000669	9e-06

System: N,N,N-trimethyl-1-hexadecanaminium bromide + D-sucrose + water; phases: Liquid
Fixed: Pressure, kPa = 101
Property: Mass density, kg/m3 (Liquid); method: Vibrating tube method
Molality, mol/kg of D-sucrose	Temperature, K	Solvent: Molality, mol/kg of N,N,N-trimethyl-1-hexadecanaminium bromide	Mass density, kg/m3	uncertainty
0.0121	298.15	0.001	998.6	1.1
0.0242	298.15	0.001	1000.1	1.1
0.0405	298.15	0.001	1002.1	1.1
0.0569	298.15	0.001	1004.1	1.1
0.0734	298.15	0.001	1006.2	1.1
0.0858	298.15	0.001	1007.8	1.1
0.0121	308.15	0.001	995.6	1.1
0.0242	308.15	0.001	997.1	1.1
0.0405	308.15	0.001	999.1	1.1
0.0569	308.15	0.001	1001.1	1.1
0.0734	308.15	0.001	1003.2	1.1
0.0858	308.15	0.001	1004.8	1.1
0.0121	318.15	0.001	991.8	1.1
0.0242	318.15	0.001	993.3	1.1
0.0405	318.15	0.001	995.3	1.1
0.0569	318.15	0.001	997.3	1.1
0.0734	318.15	0.001	999.4	1.1
0.0858	318.15	0.001	1001	1.1
0.0121	298.15	0.003	998.7	1.1
0.0242	298.15	0.003	1000.2	1.1
0.0405	298.15	0.003	1002.2	1.1
0.0569	298.15	0.003	1004.2	1.1
0.0734	298.15	0.003	1006.3	1.1
0.0859	298.15	0.003	1007.9	1.1
0.0121	308.15	0.003	995.7	1.1
0.0242	308.15	0.003	997.2	1.1
0.0405	308.15	0.003	999.2	1.1
0.0569	308.15	0.003	1001.2	1.1
0.0734	308.15	0.003	1003.3	1.1
0.0859	308.15	0.003	1004.9	1.1
0.0121	318.15	0.003	991.9	1.1
0.0242	318.15	0.003	993.3	1.1
0.0405	318.15	0.003	995.3	1.1
0.0569	318.15	0.003	997.4	1.1
0.0734	318.15	0.003	999.5	1.1
0.0859	318.15	0.003	1001.1	1.1
0.0121	298.15	0.005	998.8	1.1
0.0242	298.15	0.005	1000.3	1.1
0.0405	298.15	0.005	1002.3	1.1
0.0569	298.15	0.005	1004.5	1.1
0.0734	298.15	0.005	1006.7	1.1
0.0858	298.15	0.005	1008.4	1.1
0.0121	308.15	0.005	995.8	1.1
0.0242	308.15	0.005	997.4	1.1
0.0405	308.15	0.005	999.4	1.1
0.0569	308.15	0.005	1001.5	1.1
0.0734	308.15	0.005	1003.7	1.1
0.0858	308.15	0.005	1005.4	1.1
0.0121	318.15	0.005	992	1.1
0.0242	318.15	0.005	993.5	1.1
0.0405	318.15	0.005	995.6	1.1
0.0569	318.15	0.005	997.7	1.1
0.0734	318.15	0.005	999.9	1.1
0.0858	318.15	0.005	1001.5	1.1
