Measured thermophysical data. Influence of Anion Structure on the Liquid-Liquid Equilibria of 1-Ethyl-3-methyl-imidazolium Cation Based Ionic Liquid-Hydrocarbon Binary Systems
Source: J. Chem. Eng. Data, 2011, 10.1021/je101114r
Compound 1: 1-ethyl-3-methylimidazolium thiocyanate, C7H11N3S, InChI=1S/C6H11N2.CHNS/c1-3-8-5-4-7(2)6-8;2-1-3/h4-6H,3H2,1-2H3;3H/q+1;/p-1, purity 99%
Compound 2: 1-ethyl-3-methylimidazolium trifluoroacetate, C8H11F3N2O2, InChI=1S/C6H11N2.C2HF3O2/c1-3-8-5-4-7(2)6-8;3-2(4,5)1(6)7/h4-6H,3H2,1-2H3;(H,6,7)/q+1;/p-1, purity 99.6%
Compound 3: 1-ethyl-3-methylimidazolium trifluoromethanesulfonate, C7H11F3N2O3S, InChI=1S/C6H11N2.CHF3O3S/c1-3-8-5-4-7(2)6-8;2-1(3,4)8(5,6)7/h4-6H,3H2,1-2H3;(H,5,6,7)/q+1;/p-1, purity 99.8%
Compound 4: hexane, C6H14, InChI=1S/C6H14/c1-3-5-6-4-2/h3-6H2,1-2H3, purity 99.7%
Compound 5: heptane, C7H16, InChI=1S/C7H16/c1-3-5-7-6-4-2/h3-7H2,1-2H3, purity 99.5%
Compound 6: cyclohexane, C6H12, InChI=1S/C6H12/c1-2-4-6-5-3-1/h1-6H2, purity 99.7%
Compound 7: benzene, C6H6, InChI=1S/C6H6/c1-2-4-6-5-3-1/h1-6H, purity 99.9%
Compound 8: toluene, C7H8, InChI=1S/C7H8/c1-7-5-3-2-4-6-7/h2-6H,1H3, purity 99.9%

System: hexane + 1-ethyl-3-methylimidazolium thiocyanate; phases: Liquid mixture 1, Liquid mixture 2
Fixed: Pressure, kPa = 101
Property: Liquid-liquid equilibrium temperature, K (Liquid mixture 1); method: VISOBS:UFactor:8
Mole fraction of 1-ethyl-3-methylimidazolium thiocyanate	Liquid-liquid equilibrium temperature, K	uncertainty
0.9929	340.6	1.7
0.9946	335.4	2.5
0.9958	324.1	8
0.9962	298.7	25.4

System: heptane + 1-ethyl-3-methylimidazolium thiocyanate; phases: Liquid mixture 1, Liquid mixture 2
Fixed: Pressure, kPa = 101
Property: Liquid-liquid equilibrium temperature, K (Liquid mixture 1); method: VISOBS:UFactor:8
Mole fraction of 1-ethyl-3-methylimidazolium thiocyanate	Liquid-liquid equilibrium temperature, K	uncertainty
0.9942	358.6	2.5
0.9957	350.3	2.7
0.9965	345	3.5
0.9974	336.4	5.7
0.9988	313.3	6.3
0.9993	307.5	4.8

System: cyclohexane + 1-ethyl-3-methylimidazolium thiocyanate; phases: Liquid mixture 1, Liquid mixture 2
Fixed: Pressure, kPa = 101
Property: Liquid-liquid equilibrium temperature, K (Liquid mixture 1); method: VISOBS:UFactor:8
Mole fraction of 1-ethyl-3-methylimidazolium thiocyanate	Liquid-liquid equilibrium temperature, K	uncertainty
0.9774	353.8	1.6
0.9788	350.4	1.6
0.9804	346.4	2.1
0.9834	331.6	2.4
0.9856	319.7	2.3
0.9876	311.8	2.2
0.9898	300.7	2.4

System: benzene + 1-ethyl-3-methylimidazolium thiocyanate; phases: Liquid mixture 1, Liquid mixture 2
Fixed: Pressure, kPa = 101
Property: Liquid-liquid equilibrium temperature, K (Liquid mixture 1); method: VISOBS:UFactor:8
Mole fraction of 1-ethyl-3-methylimidazolium thiocyanate	Liquid-liquid equilibrium temperature, K	uncertainty
0.5453	289.5	1.4
0.5488	294.6	1.3
0.5539	300	1.3
0.5585	306.3	1.3
0.5634	312.3	1.3
0.5709	322.2	1.4
0.5752	328.2	1.4
0.5833	343.5	1.5
0.5861	348.8	1.4
0.5888	353.2	1.4

System: toluene + 1-ethyl-3-methylimidazolium thiocyanate; phases: Liquid mixture 1, Liquid mixture 2
Fixed: Pressure, kPa = 101
Property: Liquid-liquid equilibrium temperature, K (Liquid mixture 1); method: VISOBS:UFactor:8
Mole fraction of 1-ethyl-3-methylimidazolium thiocyanate	Liquid-liquid equilibrium temperature, K	uncertainty
0.7793	296	4
0.7811	312.9	3.5
0.7834	329.6	3.7
0.7844	342.5	5.3

System: hexane + 1-ethyl-3-methylimidazolium trifluoroacetate; phases: Liquid mixture 1, Liquid mixture 2
Fixed: Pressure, kPa = 101
Property: Liquid-liquid equilibrium temperature, K (Liquid mixture 1); method: VISOBS:UFactor:8
Mole fraction of 1-ethyl-3-methylimidazolium trifluoroacetate	Liquid-liquid equilibrium temperature, K	uncertainty
0.9713	341.1	1.3
0.9754	335.7	1.5
0.9809	320.5	1.7
0.9854	306.3	1.6
0.9894	297.8	1.5

System: heptane + 1-ethyl-3-methylimidazolium trifluoroacetate; phases: Liquid mixture 1, Liquid mixture 2
Fixed: Pressure, kPa = 101
Property: Liquid-liquid equilibrium temperature, K (Liquid mixture 1); method: VISOBS:UFactor:8
Mole fraction of 1-ethyl-3-methylimidazolium trifluoroacetate	Liquid-liquid equilibrium temperature, K	uncertainty
0.9786	360.3	1.4
0.9798	358.1	1.7
0.9808	353.9	1.7
0.9842	344.2	2.3
0.985	340.3	2.6
0.986	334.1	2.5
0.9885	321.3	2.4

System: cyclohexane + 1-ethyl-3-methylimidazolium trifluoroacetate; phases: Liquid mixture 1, Liquid mixture 2
Fixed: Pressure, kPa = 101
Property: Liquid-liquid equilibrium temperature, K (Liquid mixture 1); method: VISOBS:UFactor:8
Mole fraction of 1-ethyl-3-methylimidazolium trifluoroacetate	Liquid-liquid equilibrium temperature, K	uncertainty
0.941	353.7	1.4
0.944	349.2	1.5
0.9476	340.4	1.6
0.9525	328.9	1.5
0.9552	324.3	1.5
0.9597	314.6	1.5
0.9646	305.1	1.5

System: benzene + 1-ethyl-3-methylimidazolium trifluoroacetate; phases: Liquid mixture 1, Liquid mixture 2
Fixed: Pressure, kPa = 101
Property: Liquid-liquid equilibrium temperature, K (Liquid mixture 1); method: VISOBS:UFactor:8
Mole fraction of 1-ethyl-3-methylimidazolium trifluoroacetate	Liquid-liquid equilibrium temperature, K	uncertainty
0.4803	353.2	3.3
0.4822	338.8	3.4
0.4841	323.2	4.1
0.4856	305.7	6.5
0.4863	286.1	11.3

System: toluene + 1-ethyl-3-methylimidazolium trifluoroacetate; phases: Liquid mixture 1, Liquid mixture 2
Fixed: Pressure, kPa = 101
Property: Liquid-liquid equilibrium temperature, K (Liquid mixture 1); method: VISOBS:UFactor:8
Mole fraction of 1-ethyl-3-methylimidazolium trifluoroacetate	Liquid-liquid equilibrium temperature, K	uncertainty
0.6564	366.5	1.5
0.6612	355.4	1.7
0.6621	352.8	2.6
0.6655	331.7	2.8
0.6678	317.7	3.6
0.6693	298.3	5.3

System: hexane + 1-ethyl-3-methylimidazolium trifluoromethanesulfonate; phases: Liquid mixture 1, Liquid mixture 2
Fixed: Pressure, kPa = 101
Property: Liquid-liquid equilibrium temperature, K (Liquid mixture 1); method: VISOBS:UFactor:8
Mole fraction of 1-ethyl-3-methylimidazolium trifluoromethanesulfonate	Liquid-liquid equilibrium temperature, K	uncertainty
0.9646	341.4	1.3
0.9673	338.5	1.4
0.9716	331.4	1.4
0.9746	326.5	1.4
0.9772	321.5	1.5
0.9798	316.7	1.5
0.9822	310.3	1.7
0.9842	304.1	1.8

System: heptane + 1-ethyl-3-methylimidazolium trifluoromethanesulfonate; phases: Liquid mixture 1, Liquid mixture 2
Fixed: Pressure, kPa = 101
Property: Liquid-liquid equilibrium temperature, K (Liquid mixture 1); method: VISOBS:UFactor:8
Mole fraction of 1-ethyl-3-methylimidazolium trifluoromethanesulfonate	Liquid-liquid equilibrium temperature, K	uncertainty
0.9739	367.2	1.5
0.9787	356.2	1.7
0.9816	345.7	1.8
0.9843	337.2	1.8
0.9877	325.6	2.1
0.9891	316.2	2.8
0.9903	309.2	2.5
0.9924	298.2	2.4

System: cyclohexane + 1-ethyl-3-methylimidazolium trifluoromethanesulfonate; phases: Liquid mixture 1, Liquid mixture 2
Fixed: Pressure, kPa = 101
Property: Liquid-liquid equilibrium temperature, K (Liquid mixture 1); method: VISOBS:UFactor:8
Mole fraction of 1-ethyl-3-methylimidazolium trifluoromethanesulfonate	Liquid-liquid equilibrium temperature, K	uncertainty
0.9433	352	1.5
0.9494	340.4	1.4
0.9558	328.7	1.5
0.9606	317.7	1.6
0.9649	306.5	1.7
0.9685	295.8	1.7

System: benzene + 1-ethyl-3-methylimidazolium trifluoromethanesulfonate; phases: Liquid mixture 1, Liquid mixture 2
Fixed: Pressure, kPa = 101
Property: Liquid-liquid equilibrium temperature, K (Liquid mixture 1); method: VISOBS:UFactor:8
Mole fraction of 1-ethyl-3-methylimidazolium trifluoromethanesulfonate	Liquid-liquid equilibrium temperature, K	uncertainty
0.4106	289.2	1.3
0.4194	298.7	1.3
0.423	304.7	1.4
0.4264	311.3	1.5
0.4316	324.2	1.7
0.4329	332.2	3.2
0.4349	348.2	3.4

System: toluene + 1-ethyl-3-methylimidazolium trifluoromethanesulfonate; phases: Liquid mixture 1, Liquid mixture 2
Fixed: Pressure, kPa = 101
Property: Liquid-liquid equilibrium temperature, K (Liquid mixture 1); method: VISOBS:UFactor:8
Mole fraction of 1-ethyl-3-methylimidazolium trifluoromethanesulfonate	Liquid-liquid equilibrium temperature, K	uncertainty
0.6231	283.4	1.4
0.625	286	1.4
0.6268	288.9	1.4
0.6294	292.6	1.4
0.6312	295.8	1.4
0.6332	299.6	1.5
0.6417	356.5	3
