Measured thermophysical data. Dynamic Interfacial Tension between Water and n-Octane plus Sorbitan Monolaurate at (274.2 to 293.2) K
Source: J. Chem. Eng. Data, 2011, 10.1021/je101094u
Compound 1: water, H2O, InChI=1S/H2O/h1H2
Compound 2: octane, C8H18, InChI=1S/C8H18/c1-3-5-7-8-6-4-2/h3-8H2,1-2H3, purity 99.9%
Compound 3: sorbitan laurate, C18H34O6, InChI=1S/C18H34O6/c1-2-3-4-5-6-7-8-9-10-11-16(21)23-13-15(20)18-17(22)14(19)12-24-18/h14-15,17-20,22H,2-13H2,1H3/t14-,15+,17+,18+/m0/s1, purity 99.9%

System: octane + water; phases: Liquid mixture 1, Liquid
Fixed: Pressure, kPa = 1e-07
Property: Interfacial tension, N/m (Liquid mixture 1); method: Drop weight
Temperature, K	Interfacial tension, N/m	uncertainty
274.2	0.05314	0.00059
278.2	0.05268	0.00059
282.2	0.05221	0.00059
293.2	0.05092	0.00058

System: octane + sorbitan laurate + water; phases: Liquid mixture 1, Liquid
Fixed: Pressure, kPa = 1e-07
Property: Interfacial tension, N/m (Liquid mixture 1); method: Drop weight
Temperature, K	Mass fraction of sorbitan laurate	Interfacial tension, N/m	uncertainty
274.2	0	0.05314	0.00059
274.2	1.4e-05	0.02524	0.00064
274.2	2.8e-05	0.02245	0.00046
274.2	4.2e-05	0.01919	0.00045
274.2	5.6e-05	0.01801	0.00044
274.2	7e-05	0.01677	0.00044
274.2	8.4e-05	0.0155	0.00044
274.2	9.8e-05	0.0146	0.00044
274.2	0.00014	0.01325	0.00043
274.2	0.00028	0.0098	0.00043
274.2	0.00042	0.00854	0.00042
274.2	0.00056	0.00787	0.00042
274.2	0.0007	0.00786	0.00042
274.2	0.00084	0.00787	0.00042
274.2	0.00141	0.00786	0.00042
278.2	0	0.05268	0.00059
278.2	1.4e-05	0.02469	0.00046
278.2	2.8e-05	0.02143	0.00045
278.2	4.2e-05	0.01838	0.00044
278.2	5.6e-05	0.01736	0.00044
278.2	7e-05	0.01564	0.00044
278.2	8.4e-05	0.01446	0.00043
278.2	9.8e-05	0.0134	0.00043
278.2	0.00014	0.01203	0.00043
278.2	0.00028	0.00893	0.00042
278.2	0.00042	0.00741	0.00042
278.2	0.00056	0.0074	0.00042
278.2	0.0007	0.00741	0.00042
278.2	0.00084	0.00741	0.00042
278.2	0.00141	0.00741	0.00042
282.2	0	0.05221	0.00059
282.2	1.4e-05	0.02426	0.00047
282.2	2.8e-05	0.02161	0.00045
282.2	4.2e-05	0.01787	0.00044
282.2	5.6e-05	0.01687	0.00044
282.2	7e-05	0.01472	0.00043
282.2	8.4e-05	0.01353	0.00043
282.2	9.8e-05	0.01265	0.00043
282.2	0.00014	0.01056	0.00042
282.2	0.00028	0.00813	0.00042
282.2	0.00042	0.00667	0.00041
282.2	0.00056	0.00667	0.00041
282.2	0.0007	0.00666	0.00041
282.2	0.00084	0.00667	0.00041
282.2	0.00141	0.00666	0.00041
293.2	0	0.05092	0.00058
293.2	1.4e-05	0.02301	0.00047
293.2	2.8e-05	0.0194	0.00045
293.2	4.2e-05	0.01638	0.00044
293.2	5.6e-05	0.01512	0.00043
293.2	7e-05	0.01285	0.00043
293.2	8.4e-05	0.01148	0.00042
293.2	9.8e-05	0.01051	0.00042
293.2	0.00014	0.00836	0.00042
293.2	0.00028	0.00565	0.00041
293.2	0.00042	0.00565	0.00041
293.2	0.00056	0.00566	0.00041
293.2	0.0007	0.00565	0.00041
293.2	0.00084	0.00566	0.00041
293.2	0.00141	0.00565	0.00041
