Measured thermophysical data. Excess Molar Enthalpies of Dipropyl Ether + Dibutyl Ether + (1-Hexene or Tetrahydrofuran) at 298.15 K
Source: J. Chem. Eng. Data, 2011, 10.1021/je100897y
Compound 1: dipropyl ether, C6H14O, InChI=1S/C6H14O/c1-3-5-7-6-4-2/h3-6H2,1-2H3
Compound 2: dibutyl ether, C8H18O, InChI=1S/C8H18O/c1-3-5-7-9-8-6-4-2/h3-8H2,1-2H3
Compound 3: hex-1-ene, C6H12, InChI=1S/C6H12/c1-3-5-6-4-2/h3H,1,4-6H2,2H3
Compound 4: tetrahydrofuran, C4H8O, InChI=1S/C4H8O/c1-2-4-5-3-1/h1-4H2

System: dipropyl ether; phases: Liquid
Property: Mass density, kg/m3 (Liquid); method: VIBTUB:UFactor:4
Temperature, K	Pressure, kPa	Mass density, kg/m3	uncertainty
298.15	101.325	741.997	0.833

System: dibutyl ether; phases: Liquid
Property: Mass density, kg/m3 (Liquid); method: VIBTUB:UFactor:2
Temperature, K	Pressure, kPa	Mass density, kg/m3	uncertainty
298.15	101.325	763.806	0.327

System: hex-1-ene; phases: Liquid
Property: Mass density, kg/m3 (Liquid); method: VIBTUB:UFactor:4
Temperature, K	Pressure, kPa	Mass density, kg/m3	uncertainty
298.15	101.325	668.762	0.957

System: tetrahydrofuran; phases: Liquid
Property: Mass density, kg/m3 (Liquid); method: VIBTUB:UFactor:2
Temperature, K	Pressure, kPa	Mass density, kg/m3	uncertainty
298.15	101.325	882.078	0.209

System: dipropyl ether + dibutyl ether; phases: Liquid
Fixed: Pressure, kPa = 101
Fixed: Temperature, K = 298.15
Property: Excess molar enthalpy (molar enthalpy of mixing), kJ/mol (Liquid); method: Flow calorimetry
Mole fraction of dipropyl ether	Excess molar enthalpy (molar enthalpy of mixing), kJ/mol	uncertainty
0.05	0.00223	0.00079
0.1	0.00427	0.00081
0.15	0.00586	0.00082
0.2001	0.00732	0.00083
0.25	0.00856	0.00084
0.3	0.00957	0.00085
0.35	0.01031	0.00086
0.3998	0.01094	0.00086
0.4497	0.01152	0.00087
0.4998	0.01185	0.00087
0.5004	0.01185	0.00087
0.55	0.01188	0.00087
0.6001	0.01176	0.00087
0.65	0.01132	0.00087
0.6999	0.01057	0.00086
0.75	0.00955	0.00085
0.8	0.00818	0.00084
0.8503	0.00666	0.00083
0.9	0.00463	0.00082
0.95	0.00256	0.0008

System: dipropyl ether + hex-1-ene; phases: Liquid
Fixed: Pressure, kPa = 101
Fixed: Temperature, K = 298.15
Property: Excess molar enthalpy (molar enthalpy of mixing), kJ/mol (Liquid); method: Flow calorimetry
Mole fraction of dipropyl ether	Excess molar enthalpy (molar enthalpy of mixing), kJ/mol	uncertainty
0.0529	0.0066	0.00084
0.1001	0.01208	0.00088
0.15	0.01649	0.00091
0.2001	0.0201	0.00094
0.25	0.02282	0.00096
0.3002	0.02491	0.00097
0.3499	0.02645	0.00098
0.4001	0.02735	0.00099
0.4501	0.02809	0.001
0.5001	0.028	0.001
0.5001	0.028	0.001
0.55	0.02765	0.00099
0.5998	0.02683	0.00099
0.6499	0.02548	0.00098
0.6996	0.02385	0.00097
0.75	0.02154	0.00095
0.8003	0.01883	0.00093
0.85	0.01538	0.0009
0.9	0.01133	0.00087
0.95	0.0061	0.00083

System: tetrahydrofuran + dipropyl ether; phases: Liquid
Fixed: Pressure, kPa = 101
Fixed: Temperature, K = 298.15
Property: Excess molar enthalpy (molar enthalpy of mixing), kJ/mol (Liquid); method: Flow calorimetry
Mole fraction of dipropyl ether	Excess molar enthalpy (molar enthalpy of mixing), kJ/mol	uncertainty
0.05	0.05228	0.00149
0.1	0.09688	0.00189
0.1501	0.1361	0.0023
0.2	0.1682	0.0026
0.2498	0.1959	0.0029
0.2998	0.2169	0.0031
0.3503	0.2328	0.0033
0.3998	0.2426	0.0034
0.45	0.2473	0.0035
0.4998	0.2483	0.0035
0.4998	0.2486	0.0035
0.5499	0.2446	0.0035
0.5999	0.2363	0.0034
0.6502	0.2237	0.0032
0.7003	0.2062	0.003
0.7499	0.1845	0.0028
0.7999	0.1594	0.0025
0.85	0.1277	0.0022
0.9	0.09047	0.00181
0.95	0.04808	0.00143

System: tetrahydrofuran + dibutyl ether; phases: Liquid
Fixed: Pressure, kPa = 101
Fixed: Temperature, K = 298.15
Property: Excess molar enthalpy (molar enthalpy of mixing), kJ/mol (Liquid); method: Flow calorimetry
Mole fraction of dibutyl ether	Excess molar enthalpy (molar enthalpy of mixing), kJ/mol	uncertainty
0.05	0.07875	0.00198
0.0998	0.1436	0.0025
0.1502	0.1984	0.0031
0.2	0.2434	0.0035
0.2	0.2434	0.0035
0.25	0.2787	0.0039
0.3	0.3058	0.0042
0.3499	0.3249	0.0044
0.4	0.3368	0.0046
0.4502	0.3415	0.0046
0.4998	0.339	0.0046
0.4998	0.3393	0.0046
0.5498	0.3319	0.0045
0.6002	0.3182	0.0044
0.6499	0.2979	0.0041
0.7	0.2727	0.0038
0.7501	0.2404	0.0035
0.8	0.2041	0.0031
0.85	0.1622	0.0026
0.9	0.1121	0.0021
0.95	0.05948	0.00165

System: dipropyl ether + dibutyl ether + hex-1-ene; phases: Liquid
Fixed: Temperature, K = 298.15
Fixed: Pressure, kPa = 101
Property: Excess molar enthalpy (molar enthalpy of mixing), kJ/mol (Liquid); method: Flow calorimetry
Mole fraction of dipropyl ether	Solvent: Amount ratio of component to other component of binary solvent of dibutyl ether	Excess molar enthalpy (molar enthalpy of mixing), kJ/mol	uncertainty
0.05	0.3333	0.00517	0.00082
0.05	0.9996	0.00431	0.00081
0.05	3	0.00303	0.0008
0.1	0.3333	0.00958	0.00086
0.1	0.9996	0.00818	0.00084
0.1	3	0.00583	0.00082
0.1499	0.9996	0.01167	0.00087
0.15	0.3333	0.01358	0.00089
0.15	3	0.00845	0.00084
0.1998	0.3333	0.017	0.00091
0.1999	3	0.01066	0.00086
0.2001	0.9996	0.01473	0.00089
0.2499	0.9996	0.01733	0.00091
0.2501	0.3333	0.02003	0.00093
0.2501	3	0.01275	0.00088
0.2999	0.9996	0.0195	0.00093
0.3001	0.3333	0.02234	0.00095
0.3001	3	0.01443	0.00089
0.3499	3	0.01585	0.0009
0.3501	0.3333	0.02431	0.00097
0.3502	0.9996	0.02117	0.00094
0.4	3	0.01689	0.00091
0.4001	0.3333	0.02556	0.00098
0.4001	0.9996	0.02265	0.00095
0.4496	0.3333	0.02642	0.00098
0.4501	3	0.01762	0.00091
0.4502	0.9996	0.0234	0.00096
0.4996	3	0.01812	0.00092
0.4997	3	0.01816	0.00092
0.5	0.9996	0.02387	0.00096
0.5	0.9996	0.02392	0.00096
0.5002	0.3333	0.02674	0.00098
0.5002	0.3333	0.02676	0.00098
0.5497	3	0.01828	0.00092
0.55	0.9996	0.02394	0.00096
0.5503	0.3333	0.02663	0.00098
0.5999	0.3333	0.02601	0.00098
0.6001	3	0.01808	0.00092
0.6003	0.9996	0.02352	0.00096
0.6497	3	0.01751	0.00091
0.65	0.9996	0.02251	0.00095
0.6501	0.3333	0.02491	0.00097
0.6997	3	0.01676	0.00091
0.7001	0.9996	0.02129	0.00094
0.7003	0.3333	0.02337	0.00096
0.7497	3	0.01543	0.0009
0.7499	0.9996	0.01961	0.00093
0.75	0.3333	0.02138	0.00094
0.7998	0.3333	0.01898	0.00093
0.7998	3	0.01394	0.00089
0.8001	0.9996	0.01729	0.00091
0.8497	3	0.01206	0.00087
0.85	0.3333	0.01579	0.0009
0.85	0.9996	0.01471	0.00089
0.9	0.3333	0.01219	0.00088
0.9	0.9996	0.01165	0.00087
0.9	3	0.00972	0.00085
0.95	0.3333	0.00712	0.00084
0.95	0.9996	0.00781	0.00084
0.95	3	0.00639	0.00083

System: tetrahydrofuran + dipropyl ether + dibutyl ether; phases: Liquid
Fixed: Temperature, K = 298.15
Fixed: Pressure, kPa = 101
Property: Excess molar enthalpy (molar enthalpy of mixing), kJ/mol (Liquid); method: Flow calorimetry
Mole fraction of dipropyl ether	Solvent: Amount ratio of component to other component of binary solvent of dibutyl ether	Excess molar enthalpy (molar enthalpy of mixing), kJ/mol	uncertainty
0.05	0.3333	0.02123	0.001
0.05	1.0004	0.00653	0.00083
0.05	3	0.00193	0.00079
0.1	0.3333	0.03877	0.00113
0.1	1.0004	0.01261	0.00088
0.1	3	0.00352	0.0008
0.15	0.3333	0.05528	0.00127
0.15	1.0004	0.01785	0.00092
0.1555	3	0.00501	0.00081
0.2	1.0004	0.02278	0.00096
0.2	3	0.00595	0.00082
0.2002	0.3333	0.06921	0.00141
0.2498	3	0.00689	0.00083
0.2502	0.3333	0.08089	0.00153
0.2503	1.0004	0.02702	0.00099
0.2999	3	0.00755	0.00083
0.3	0.3333	0.09083	0.00164
0.3002	1.0004	0.03021	0.00101
0.3499	0.3333	0.09835	0.00172
0.3499	1.0004	0.0329	0.00103
0.3502	3	0.00816	0.00084
0.4002	0.3333	0.1042	0.0018
0.4002	1.0004	0.03513	0.00105
0.4002	3	0.0085	0.00084
0.4497	0.3333	0.1068	0.0018
0.4502	1.0004	0.03649	0.00106
0.4503	3	0.0088	0.00084
0.5001	0.3333	0.1081	0.0018
0.5001	1.0004	0.03729	0.00106
0.5001	3	0.00891	0.00084
0.5001	0.3333	0.1081	0.0018
0.5001	3	0.00891	0.00084
0.5002	1.0004	0.03733	0.00106
0.5501	0.3333	0.1072	0.0018
0.5501	1.0004	0.03725	0.00106
0.5501	3	0.00889	0.00084
0.5998	1.0004	0.03664	0.00106
0.5999	0.3333	0.1046	0.0018
0.6	3	0.00868	0.00084
0.65	1.0004	0.03514	0.00105
0.6501	3	0.00835	0.00084
0.6503	0.3333	0.09889	0.00173
0.7	1.0004	0.03319	0.00103
0.7001	3	0.0078	0.00084
0.7016	0.3333	0.09132	0.00164
0.7498	1.0004	0.03026	0.00101
0.7498	3	0.00711	0.00083
0.7501	0.3333	0.08275	0.00155
0.8	0.3333	0.07077	0.00142
0.8	3	0.00625	0.00082
0.8001	1.0004	0.02665	0.00099
0.85	0.3333	0.05822	0.00129
0.85	1.0004	0.02186	0.00095
0.85	3	0.00513	0.00082
0.9	1.0004	0.01593	0.00091
0.9	3	0.00375	0.00081
0.9001	0.3333	0.04252	0.00116
0.95	0.3333	0.02411	0.00103
0.95	1.0004	0.00869	0.00084
0.95	3	0.00203	0.00079
