Measured thermophysical data. High Pressure Phase Behavior of Carbon Dioxide in Carbon Disulfide and Carbon Tetrachloride
Source: J. Chem. Eng. Data, 2011, 10.1021/je101225a
Compound 1: carbon dioxide, CO2, InChI=1S/CO2/c2-1-3, purity 99.998%
Compound 2: carbon disulfide, CS2, InChI=1S/CS2/c2-1-3, purity 99.9%
Compound 3: tetrachloromethane, CCl4, InChI=1S/CCl4/c2-1(3,4)5, purity 99.9%

System: carbon disulfide + carbon dioxide; phases: Liquid, Gas
Property: Vapor or sublimation pressure, kPa (Liquid); method: CCELL:UFactor:4
Mole fraction of carbon dioxide	Temperature, K	Vapor or sublimation pressure, kPa	uncertainty
0.05	293.32	970	10
0.05	313.33	1360	20
0.05	333.21	1750	20
0.1	293.24	1930	20
0.1	313.28	2550	30
0.1	333.18	3180	40
0.2	293.32	3220	40
0.2	313.21	4340	50
0.2	332.97	5440	70
0.3	293.36	3870	50
0.3	313.36	5370	70
0.3	333.12	6920	90
0.4	293.29	4090	50
0.4	313.25	5900	70
0.4	333.17	7810	100
0.5	293.25	4130	50
0.5	313.23	6110	80
0.5	333.16	8300	100
0.6	293.18	4070	50
0.6	313.24	6120	80
0.6	333.12	8520	110
0.68	293.2	4080	50
0.68	313.16	6190	80
0.89	293.16	4590	60
0.89	313.53	7110	90
0.93	293.19	4740	60
0.93	313.39	7390	90
0.96	293.33	4910	60

System: tetrachloromethane + carbon dioxide; phases: Liquid, Gas
Property: Vapor or sublimation pressure, kPa (Liquid); method: CCELL:UFactor:4
Mole fraction of carbon dioxide	Temperature, K	Vapor or sublimation pressure, kPa	uncertainty
0.16	293.22	1090	10
0.16	313.25	1570	20
0.16	333.26	2100	30
0.2	293.2	1380	20
0.2	313.21	2000	30
0.2	333.26	2670	30
0.3	293.22	2040	30
0.3	313.2	2930	40
0.3	333.18	3870	50
0.4	293.16	2610	30
0.4	313.31	3790	50
0.4	333.17	5020	60
0.5	293.2	3070	40
0.5	313.29	4490	60
0.5	333.27	6040	80
0.6	293.23	3510	40
0.6	313.26	5150	60
0.6	333.23	7020	90
0.7	293.3	3840	50
0.7	313.28	5730	70
0.7	333.17	7850	100
