Measured thermophysical data. Excess Molar Enthalpies of 2-Methyl-2-butanol (1) + 1-Alkanols (C1-C5) (2) at 298.15 K
Source: J. Chem. Eng. Data, 2011, 10.1021/je101031j
Compound 1: 2-methylbutan-2-ol, C5H12O, InChI=1S/C5H12O/c1-4-5(2,3)6/h6H,4H2,1-3H3, purity 99%
Compound 2: methanol, CH4O, InChI=1S/CH4O/c1-2/h2H,1H3, purity 99%
Compound 3: ethanol, C2H6O, InChI=1S/C2H6O/c1-2-3/h3H,2H2,1H3, purity 99%
Compound 4: propan-1-ol, C3H8O, InChI=1S/C3H8O/c1-2-3-4/h4H,2-3H2,1H3, purity 99%
Compound 5: butan-1-ol, C4H10O, InChI=1S/C4H10O/c1-2-3-4-5/h5H,2-4H2,1H3, purity 99%
Compound 6: pentan-1-ol, C5H12O, InChI=1S/C5H12O/c1-2-3-4-5-6/h6H,2-5H2,1H3, purity 99%

System: 2-methylbutan-2-ol; phases: Liquid
Property: Refractive index (Na D-line) (Liquid); method: Standard Abbe refractometry
Temperature, K	Pressure, kPa	Refractive index (Na D-line)	uncertainty
298.15	101.325	1.4019	0.0005

System: 2-methylbutan-2-ol; phases: Liquid
Property: Mass density, kg/m3 (Liquid); method: Vibrating tube method
Temperature, K	Pressure, kPa	Mass density, kg/m3	uncertainty
298.15	101.325	804.8	0.31

System: methanol; phases: Liquid
Property: Refractive index (Na D-line) (Liquid); method: Standard Abbe refractometry
Temperature, K	Pressure, kPa	Refractive index (Na D-line)	uncertainty
298.15	101.325	1.3264	0.0005

System: methanol; phases: Liquid
Property: Mass density, kg/m3 (Liquid); method: Vibrating tube method
Temperature, K	Pressure, kPa	Mass density, kg/m3	uncertainty
298.15	101.325	786.42	0.31

System: ethanol; phases: Liquid
Property: Refractive index (Na D-line) (Liquid); method: Standard Abbe refractometry
Temperature, K	Pressure, kPa	Refractive index (Na D-line)	uncertainty
298.15	101.325	1.3591	0.0005

System: ethanol; phases: Liquid
Property: Mass density, kg/m3 (Liquid); method: Vibrating tube method
Temperature, K	Pressure, kPa	Mass density, kg/m3	uncertainty
298.15	101.325	785.22	0.31

System: propan-1-ol; phases: Liquid
Property: Refractive index (Na D-line) (Liquid); method: Standard Abbe refractometry
Temperature, K	Pressure, kPa	Refractive index (Na D-line)	uncertainty
298.15	101.325	1.383	0.0005

System: propan-1-ol; phases: Liquid
Property: Mass density, kg/m3 (Liquid); method: Vibrating tube method
Temperature, K	Pressure, kPa	Mass density, kg/m3	uncertainty
298.15	101.325	799.46	0.31

System: butan-1-ol; phases: Liquid
Property: Refractive index (Na D-line) (Liquid); method: Standard Abbe refractometry
Temperature, K	Pressure, kPa	Refractive index (Na D-line)	uncertainty
298.15	101.325	1.3973	0.0005

System: butan-1-ol; phases: Liquid
Property: Mass density, kg/m3 (Liquid); method: Vibrating tube method
Temperature, K	Pressure, kPa	Mass density, kg/m3	uncertainty
298.15	101.325	805.61	0.31

System: pentan-1-ol; phases: Liquid
Property: Refractive index (Na D-line) (Liquid); method: Standard Abbe refractometry
Temperature, K	Pressure, kPa	Refractive index (Na D-line)	uncertainty
298.15	101.325	1.4086	0.0005

System: pentan-1-ol; phases: Liquid
Property: Mass density, kg/m3 (Liquid); method: Vibrating tube method
Temperature, K	Pressure, kPa	Mass density, kg/m3	uncertainty
298.15	101.325	810.82	0.31

System: methanol + 2-methylbutan-2-ol; phases: Liquid
Fixed: Temperature, K = 298.15
Fixed: Pressure, kPa = 101.3
Property: Excess molar enthalpy (molar enthalpy of mixing), kJ/mol (Liquid); method: Calvet calorimetry
Mole fraction of 2-methylbutan-2-ol	Excess molar enthalpy (molar enthalpy of mixing), kJ/mol	uncertainty
0.0908	-0.2563	0.0028
0.1814	-0.5223	0.0048
0.2731	-0.8036	0.007
0.3644	-1.0447	0.0089
0.4608	-1.2	0.0101
0.5513	-1.268	0.011
0.6416	-1.2156	0.0102
0.7319	-1.0696	0.0091
0.8195	-0.7997	0.007
0.9101	-0.4219	0.004

System: ethanol + 2-methylbutan-2-ol; phases: Liquid
Fixed: Temperature, K = 298.15
Fixed: Pressure, kPa = 101.3
Property: Excess molar enthalpy (molar enthalpy of mixing), kJ/mol (Liquid); method: Calvet calorimetry
Mole fraction of 2-methylbutan-2-ol	Excess molar enthalpy (molar enthalpy of mixing), kJ/mol	uncertainty
0.0898	-0.2486	0.0027
0.1796	-0.4719	0.0044
0.2807	-0.7056	0.0062
0.3707	-0.853	0.0074
0.4607	-0.95	0.0081
0.5507	-0.973	0.0083
0.6406	-0.9114	0.0078
0.7306	-0.7709	0.0067
0.8205	-0.5446	0.005
0.9103	-0.271	0.0029

System: propan-1-ol + 2-methylbutan-2-ol; phases: Liquid
Fixed: Temperature, K = 298.15
Fixed: Pressure, kPa = 101.3
Property: Excess molar enthalpy (molar enthalpy of mixing), kJ/mol (Liquid); method: Calvet calorimetry
Mole fraction of 2-methylbutan-2-ol	Excess molar enthalpy (molar enthalpy of mixing), kJ/mol	uncertainty
0.09	-0.2543	0.0027
0.1801	-0.4585	0.0043
0.2802	-0.6561	0.0059
0.3701	-0.786	0.0069
0.4599	-0.8588	0.0074
0.5497	-0.8538	0.0074
0.6395	-0.8037	0.007
0.7292	-0.6715	0.006
0.8189	-0.4732	0.0044
0.9088	-0.2328	0.0026

System: butan-1-ol + 2-methylbutan-2-ol; phases: Liquid
Fixed: Temperature, K = 298.15
Fixed: Pressure, kPa = 101.3
Property: Excess molar enthalpy (molar enthalpy of mixing), kJ/mol (Liquid); method: Calvet calorimetry
Mole fraction of 2-methylbutan-2-ol	Excess molar enthalpy (molar enthalpy of mixing), kJ/mol	uncertainty
0.09	-0.2676	0.0028
0.1801	-0.4779	0.0045
0.2702	-0.6497	0.0058
0.3707	-0.75	0.0066
0.4609	-0.8	0.007
0.551	-0.7874	0.0069
0.6412	-0.7304	0.0064
0.7313	-0.6067	0.0055
0.8198	-0.4267	0.0041
0.9099	-0.2128	0.0024

System: pentan-1-ol + 2-methylbutan-2-ol; phases: Liquid
Fixed: Temperature, K = 298.15
Fixed: Pressure, kPa = 101.3
Property: Excess molar enthalpy (molar enthalpy of mixing), kJ/mol (Liquid); method: Calvet calorimetry
Mole fraction of 2-methylbutan-2-ol	Excess molar enthalpy (molar enthalpy of mixing), kJ/mol	uncertainty
0.0899	-0.2089	0.0024
0.18	-0.4128	0.004
0.27	-0.5687	0.0052
0.3664	-0.649	0.0058
0.4566	-0.6845	0.0061
0.5468	-0.6768	0.006
0.6372	-0.634	0.0057
0.7278	-0.5306	0.0049
0.8185	-0.3864	0.0038
0.9091	-0.2064	0.0024
