Measured thermophysical data. Enthalpies of Dilution of (2S,3R,4R,5R)-Hexane-1,2,3,4,5,6-hexol in Water and Aqueous Sodium Halide Solutions at T = (293.15 to 318.15) K
Source: J. Chem. Eng. Data, 2010, 10.1021/je1007394
Compound 1: D-sorbitol, C6H14O6, InChI=1S/C6H14O6/c7-1-3(9)5(11)6(12)4(10)2-8/h3-12H,1-2H2/t3-,4+,5-,6-/m1/s1
Compound 2: sodium chloride, ClNa, InChI=1S/ClH.Na/h1H;/q;+1/p-1
Compound 3: sodium bromide, BrNa, InChI=1S/BrH.Na/h1H;/q;+1/p-1
Compound 4: sodium iodide, INa, InChI=1S/HI.Na/h1H;/q;+1/p-1
Compound 5: water, H2O, InChI=1S/H2O/h1H2
Compound 6: sodium fluoride, FNa, InChI=1S/FH.Na/h1H;/q;+1/p-1

System: D-sorbitol + water; phases: Liquid
Fixed: Pressure, kPa = 101.325
Property: Molar enthalpy of dilution, kJ/mol (Liquid); method: Measuring Cylinder - Thermometric 2277 Thermal Activity monitor
Temperature, K	Initial molality of solute, mol/kg	Final molality of solute, mol/kg	Molar enthalpy of dilution, kJ/mol	uncertainty
293.15	0.1393	0.0676	0.0042	0.0008
293.15	0.1666	0.0813	0.00507	0.00082
293.15	0.1921	0.0937	0.00535	0.00082
293.15	0.2208	0.1074	0.00615	0.00082
293.15	0.2484	0.1208	0.00621	0.00082
293.15	0.2764	0.1348	0.00646	0.00083
293.15	0.3047	0.1487	0.00641	0.00083
293.15	0.3335	0.1638	0.00665	0.00083
293.15	0.3639	0.1791	0.00688	0.00083
293.15	0.3969	0.1948	0.0071	0.0008
293.15	0.4293	0.2108	0.00728	0.00083
293.15	0.4696	0.2302	0.00759	0.00084
298.15	0.1337	0.0651	0.00119	0.00079
298.15	0.158	0.0773	0.00093	0.00078
298.15	0.1832	0.0894	0.00075	0.00078
298.15	0.2059	0.1007	0.00061	0.00078
298.15	0.2336	0.1143	0.00049	0.00078
298.15	0.2557	0.1249	0.00037	0.00078
298.15	0.2798	0.1369	0.00026	0.00078
298.15	0.305	0.1492	0.00013	0.00078
298.15	0.3285	0.1611	3e-05	0.00078
298.15	0.3571	0.1751	-0.00014	0.00078
298.15	0.3908	0.1914	-0.00021	0.00078
298.15	0.4253	0.2084	-0.00027	0.00078
303.15	0.1148	0.0572	-0.00056	0.00078
303.15	0.1448	0.072	-0.00135	0.00079
303.15	0.1748	0.0868	-0.0019	0.0008
303.15	0.2046	0.1011	-0.00249	0.0008
303.15	0.2351	0.1162	-0.00306	0.0008
303.15	0.267	0.1318	-0.00364	0.0008
303.15	0.2969	0.1465	-0.00424	0.00081
303.15	0.3317	0.1635	-0.00501	0.00082
303.15	0.3656	0.179	-0.00581	0.00082
303.15	0.3998	0.1963	-0.00677	0.00083
303.15	0.4357	0.2131	-0.00771	0.00084
303.15	0.4637	0.2269	-0.00853	0.00084
308.15	0.1056	0.056	-0.00241	0.0008
308.15	0.1366	0.073	-0.00386	0.00081
308.15	0.1708	0.0909	-0.00471	0.00081
308.15	0.2033	0.1082	-0.00623	0.00082
308.15	0.2369	0.1258	-0.00755	0.00083
308.15	0.272	0.1441	-0.00883	0.00084
308.15	0.3061	0.1619	-0.01017	0.00086
308.15	0.3429	0.1809	-0.01159	0.00087
308.15	0.3814	0.2008	-0.01286	0.00088
308.15	0.4216	0.2217	-0.01493	0.00089
308.15	0.469	0.2459	-0.01697	0.00091
308.15	0.4854	0.2541	-0.0177	0.0009
318.15	0.103	0.0523	-0.00331	0.0008
318.15	0.138	0.0699	-0.00506	0.00082
318.15	0.1673	0.0848	-0.00662	0.00083
318.15	0.199	0.1003	-0.00808	0.00084
318.15	0.2332	0.1177	-0.00996	0.00085
318.15	0.2647	0.1334	-0.01124	0.00086
318.15	0.2991	0.1506	-0.01289	0.00088
318.15	0.3093	0.1557	-0.01317	0.00088
318.15	0.3422	0.1715	-0.01486	0.00089
318.15	0.3739	0.1876	-0.01642	0.0009
318.15	0.4215	0.211	-0.01888	0.00092
318.15	0.4649	0.2322	-0.02104	0.00096

System: D-sorbitol + sodium fluoride + water; phases: Liquid
Fixed: Solvent: Molality, mol/kg of sodium fluoride = 0.5
Fixed: Pressure, kPa = 101.3
Property: Molar enthalpy of dilution, kJ/mol (Liquid); method: Thermal Activity Monitor
Temperature, K	Initial molality of solute, mol/kg	Final molality of solute, mol/kg	Molar enthalpy of dilution, kJ/mol	uncertainty
293.15	0.1413	0.0686	-0.00565	0.00082
293.15	0.1703	0.0826	-0.00634	0.00083
293.15	0.1924	0.0937	-0.0072	0.0008
293.15	0.2185	0.1067	-0.00797	0.00084
293.15	0.2472	0.1208	-0.00896	0.00085
293.15	0.2737	0.1335	-0.01009	0.00086
293.15	0.3032	0.1483	-0.01111	0.00086
293.15	0.3312	0.1617	-0.01215	0.00087
293.15	0.3606	0.176	-0.01341	0.00088
293.15	0.3902	0.1906	-0.01419	0.00089
293.15	0.426	0.2074	-0.01561	0.0009
293.15	0.4703	0.2286	-0.01729	0.00091
298.15	0.133	0.0657	-0.00395	0.00081
298.15	0.1592	0.0783	-0.00527	0.00082
298.15	0.1871	0.0917	-0.00682	0.00083
298.15	0.2034	0.0998	-0.00714	0.00083
298.15	0.2365	0.1144	-0.00897	0.00085
298.15	0.2617	0.1268	-0.01051	0.00086
298.15	0.2845	0.1377	-0.01098	0.00086
298.15	0.3117	0.1497	-0.01359	0.00088
298.15	0.3403	0.1624	-0.01394	0.00089
298.15	0.3772	0.1794	-0.01676	0.00091
298.15	0.4131	0.1959	-0.01747	0.00091
298.15	0.4515	0.2126	-0.01946	0.00093
303.15	0.1046	0.0521	-0.01071	0.00086
303.15	0.1345	0.067	-0.0115	0.0009
303.15	0.1576	0.0785	-0.0123	0.0009
303.15	0.1927	0.0957	-0.01522	0.0009
303.15	0.225	0.1118	-0.01549	0.0009
303.15	0.2566	0.1271	-0.01646	0.0009
303.15	0.2803	0.1387	-0.01787	0.00092
303.15	0.3197	0.1577	-0.0204	0.0009
303.15	0.3528	0.1741	-0.02305	0.00099
303.15	0.3863	0.1895	-0.02402	0.001
303.15	0.4197	0.2062	-0.02538	0.00102
303.15	0.4635	0.2269	-0.02797	0.00107
308.15	0.1064	0.0588	-0.01065	0.00086
308.15	0.1383	0.0765	-0.01239	0.00087
308.15	0.1711	0.0946	-0.01366	0.00088
308.15	0.2037	0.1127	-0.01472	0.00089
308.15	0.2332	0.1283	-0.01696	0.00091
308.15	0.2661	0.1466	-0.01872	0.00092
308.15	0.2999	0.1651	-0.02064	0.00095
308.15	0.333	0.1829	-0.02269	0.00098
308.15	0.3654	0.1999	-0.02432	0.00101
308.15	0.3998	0.2189	-0.02633	0.00104
308.15	0.4338	0.2369	-0.02864	0.00108
308.15	0.47	0.2563	-0.03067	0.00111
318.15	0.1094	0.0574	-0.00941	0.00085
318.15	0.1308	0.0686	-0.0108	0.0009
318.15	0.1586	0.0833	-0.01228	0.00087
318.15	0.1904	0.0998	-0.01406	0.00089
318.15	0.2179	0.1143	-0.01492	0.00089
318.15	0.2438	0.1278	-0.01662	0.00091
318.15	0.2731	0.1428	-0.01806	0.00092
318.15	0.3011	0.1575	-0.02087	0.00095
318.15	0.3288	0.171	-0.02287	0.00098
318.15	0.3576	0.1862	-0.02484	0.00102
318.15	0.3965	0.206	-0.02693	0.00105
318.15	0.4308	0.2239	-0.02957	0.00109

System: D-sorbitol + sodium chloride + water; phases: Liquid
Fixed: Solvent: Molality, mol/kg of sodium chloride = 0.5
Fixed: Pressure, kPa = 101.3
Property: Molar enthalpy of dilution, kJ/mol (Liquid); method: Thermal Activity Monitor
Temperature, K	Initial molality of solute, mol/kg	Final molality of solute, mol/kg	Molar enthalpy of dilution, kJ/mol	uncertainty
293.15	0.1459	0.0708	-0.0033	0.0008
293.15	0.1695	0.0826	-0.00423	0.00081
293.15	0.1943	0.0947	-0.0048	0.0008
293.15	0.2229	0.1091	-0.00575	0.00082
293.15	0.251	0.1227	-0.0064	0.0008
293.15	0.2817	0.1373	-0.00739	0.00083
293.15	0.3094	0.1506	-0.00814	0.00084
293.15	0.3376	0.1643	-0.00917	0.00085
293.15	0.3674	0.1789	-0.01021	0.00086
293.15	0.3979	0.1934	-0.01111	0.00086
293.15	0.4354	0.2119	-0.01235	0.00087
293.15	0.4778	0.2326	-0.01379	0.00088
298.15	0.1381	0.067	-0.00353	0.00081
298.15	0.1659	0.0805	-0.0047	0.0008
298.15	0.192	0.0931	-0.00559	0.00082
298.15	0.2193	0.1067	-0.00684	0.00083
298.15	0.2455	0.1199	-0.00807	0.00084
298.15	0.2743	0.1338	-0.00923	0.00085
298.15	0.3019	0.147	-0.0102	0.0009
298.15	0.3329	0.1617	-0.01163	0.00087
298.15	0.3628	0.1763	-0.01281	0.00088
298.15	0.3938	0.1914	-0.01424	0.00089
298.15	0.4249	0.2065	-0.01524	0.0009
298.15	0.4614	0.2239	-0.01667	0.00091
303.15	0.0987	0.049	-0.00498	0.00082
303.15	0.1276	0.0629	-0.00627	0.00083
303.15	0.155	0.076	-0.00771	0.00084
303.15	0.1856	0.0913	-0.00901	0.00085
303.15	0.2177	0.107	-0.01064	0.00086
303.15	0.2505	0.1229	-0.01229	0.00087
303.15	0.2843	0.1393	-0.01402	0.00089
303.15	0.3184	0.156	-0.01578	0.0009
303.15	0.3511	0.1711	-0.01749	0.00091
303.15	0.385	0.188	-0.01928	0.00093
303.15	0.4132	0.201	-0.02099	0.00096
303.15	0.4502	0.2186	-0.02303	0.00099
308.15	0.1412	0.0784	-0.00963	0.00085
308.15	0.174	0.0964	-0.01086	0.00086
308.15	0.2063	0.1138	-0.01244	0.00087
308.15	0.2406	0.1327	-0.01415	0.00089
308.15	0.278	0.1534	-0.01595	0.0009
308.15	0.3135	0.1735	-0.01839	0.00092
308.15	0.3458	0.1905	-0.01967	0.00094
308.15	0.3761	0.2067	-0.02131	0.00096
308.15	0.4095	0.2247	-0.02314	0.00099
308.15	0.4439	0.2431	-0.02508	0.00102
308.15	0.4744	0.2594	-0.02699	0.00105
308.15	0.4984	0.2721	-0.02895	0.00108
318.15	0.0965	0.0481	-0.00659	0.00083
318.15	0.1237	0.0621	-0.00859	0.00084
318.15	0.154	0.0771	-0.0105	0.0009
318.15	0.1831	0.0919	-0.01194	0.00087
318.15	0.2123	0.1064	-0.01342	0.00088
318.15	0.2412	0.1205	-0.01553	0.0009
318.15	0.272	0.1361	-0.01718	0.00091
318.15	0.3004	0.1501	-0.01949	0.00093
318.15	0.3342	0.1663	-0.02183	0.00097
318.15	0.3719	0.1846	-0.02445	0.00101
318.15	0.4186	0.2077	-0.02749	0.00106
318.15	0.4543	0.2253	-0.03005	0.0011

System: D-sorbitol + sodium bromide + water; phases: Liquid
Fixed: Solvent: Molality, mol/kg of sodium bromide = 0.5
Fixed: Pressure, kPa = 101.3
Property: Molar enthalpy of dilution, kJ/mol (Liquid); method: Thermal Activity Monitor
Temperature, K	Initial molality of solute, mol/kg	Final molality of solute, mol/kg	Molar enthalpy of dilution, kJ/mol	uncertainty
293.15	0.1434	0.0686	-0.00327	0.0008
293.15	0.1727	0.0831	-0.0041	0.0008
293.15	0.2033	0.0981	-0.0051	0.0008
293.15	0.2312	0.1122	-0.00582	0.00082
293.15	0.256	0.1245	-0.00656	0.00083
293.15	0.2863	0.1395	-0.00755	0.00084
293.15	0.3162	0.1539	-0.00847	0.00084
293.15	0.3452	0.1685	-0.00938	0.00085
293.15	0.3747	0.1826	-0.01021	0.00086
293.15	0.4049	0.1972	-0.01126	0.00086
293.15	0.4378	0.2137	-0.01228	0.00087
293.15	0.4797	0.2338	-0.01371	0.00088
298.15	0.1364	0.0664	-0.00434	0.00081
298.15	0.1658	0.0809	-0.00579	0.00082
298.15	0.1911	0.0932	-0.0069	0.0008
298.15	0.2182	0.1063	-0.00824	0.00084
298.15	0.2449	0.1192	-0.00935	0.00085
298.15	0.2744	0.1338	-0.01081	0.00086
298.15	0.3036	0.1481	-0.01183	0.00087
298.15	0.333	0.1626	-0.01323	0.00088
298.15	0.3465	0.1692	-0.01428	0.00089
298.15	0.377	0.1838	-0.0153	0.0009
298.15	0.4103	0.2006	-0.01637	0.0009
298.15	0.4477	0.219	-0.01792	0.00092
303.15	0.1079	0.0527	-0.00492	0.00082
303.15	0.14	0.0687	-0.00681	0.00083
303.15	0.1712	0.0834	-0.00839	0.00084
303.15	0.2045	0.0994	-0.00998	0.00085
303.15	0.2375	0.1151	-0.01188	0.00087
303.15	0.2704	0.1307	-0.01372	0.00088
303.15	0.3087	0.1492	-0.01567	0.0009
303.15	0.3449	0.166	-0.01801	0.00092
303.15	0.381	0.1835	-0.02008	0.00094
303.15	0.4177	0.2001	-0.0221	0.001
303.15	0.4617	0.2212	-0.02431	0.00101
303.15	0.4822	0.2302	-0.02561	0.00103
308.15	0.1096	0.0597	-0.00242	0.0008
308.15	0.143	0.0777	-0.00435	0.00081
308.15	0.1676	0.09114	-0.00597	0.00082
308.15	0.1984	0.1077	-0.00787	0.00084
308.15	0.2248	0.12178	-0.0096	0.0009
308.15	0.2545	0.1375	-0.0114	0.0009
308.15	0.2854	0.1538	-0.01343	0.00088
308.15	0.3197	0.1723	-0.01559	0.0009
308.15	0.3511	0.1887	-0.01769	0.00091
308.15	0.3867	0.2071	-0.02001	0.00094
308.15	0.4216	0.2263	-0.02247	0.00098
308.15	0.46	0.246	-0.02474	0.00101
318.15	0.1032	0.0526	-0.00628	0.00083
318.15	0.1318	0.0677	-0.00829	0.00084
318.15	0.1617	0.0828	-0.01023	0.00086
318.15	0.1925	0.0984	-0.01264	0.00088
318.15	0.2241	0.1143	-0.01483	0.00089
318.15	0.2564	0.1303	-0.01718	0.00091
318.15	0.2857	0.1449	-0.01926	0.00093
318.15	0.3204	0.1625	-0.02172	0.00097
318.15	0.349	0.1769	-0.02382	0.001
318.15	0.3851	0.1946	-0.02651	0.00104
318.15	0.4224	0.2134	-0.0292	0.0011
318.15	0.4579	0.2308	-0.03175	0.00113

System: D-sorbitol + sodium iodide + water; phases: Liquid
Fixed: Solvent: Molality, mol/kg of sodium iodide = 0.5
Fixed: Pressure, kPa = 101.3
Property: Molar enthalpy of dilution, kJ/mol (Liquid); method: Thermal Activity Monitor
Temperature, K	Initial molality of solute, mol/kg	Final molality of solute, mol/kg	Molar enthalpy of dilution, kJ/mol	uncertainty
293.15	0.1478	0.0718	-0.0034	0.0008
293.15	0.1779	0.0862	-0.00479	0.00081
293.15	0.2054	0.0996	-0.00545	0.00082
293.15	0.2339	0.1134	-0.00618	0.00083
293.15	0.2618	0.1267	-0.00769	0.00084
293.15	0.2922	0.1423	-0.00856	0.00084
293.15	0.3214	0.1562	-0.00958	0.00085
293.15	0.3524	0.1712	-0.01045	0.00086
293.15	0.3869	0.1879	-0.01171	0.00087
293.15	0.417	0.2031	-0.01268	0.00088
293.15	0.4538	0.2216	-0.01381	0.00088
293.15	0.4754	0.2324	-0.01441	0.00089
298.15	0.1402	0.0684	-0.00551	0.00082
298.15	0.1643	0.0803	-0.0064	0.0008
298.15	0.19	0.0928	-0.0078	0.0008
298.15	0.2155	0.1051	-0.00909	0.00085
298.15	0.2443	0.1194	-0.01022	0.00086
298.15	0.2688	0.1312	-0.01146	0.00087
298.15	0.2953	0.1438	-0.0128	0.0009
298.15	0.3222	0.1577	-0.01382	0.00088
298.15	0.3512	0.1723	-0.01517	0.00089
298.15	0.381	0.1865	-0.01673	0.00091
298.15	0.4158	0.203	-0.01855	0.00092
298.15	0.4542	0.2221	-0.02004	0.00094
303.15	0.1019	0.0494	-0.00486	0.00082
303.15	0.1303	0.063	-0.00665	0.00083
303.15	0.1607	0.0775	-0.00845	0.00084
303.15	0.1897	0.0915	-0.01041	0.00086
303.15	0.2187	0.1053	-0.01211	0.00087
303.15	0.2477	0.119	-0.01397	0.00089
303.15	0.2779	0.1334	-0.01602	0.0009
303.15	0.3085	0.1475	-0.01812	0.00092
303.15	0.3311	0.1584	-0.01928	0.00093
303.15	0.3877	0.1847	-0.02325	0.00099
303.15	0.4335	0.2058	-0.02619	0.00104
303.15	0.4665	0.2207	-0.02838	0.00107
308.15	0.1398	0.0724	-0.00929	0.00085
308.15	0.173	0.0895	-0.01168	0.00087
308.15	0.2031	0.1049	-0.0138	0.0009
308.15	0.2315	0.1192	-0.01623	0.0009
308.15	0.2665	0.1368	-0.01847	0.00092
308.15	0.2974	0.1528	-0.02066	0.00095
308.15	0.3289	0.169	-0.02297	0.00099
308.15	0.3605	0.1847	-0.02548	0.00103
308.15	0.3941	0.2015	-0.02799	0.00107
308.15	0.4301	0.2191	-0.03095	0.00112
308.15	0.4545	0.2313	-0.03275	0.00115
308.15	0.4812	0.2305	-0.03851	0.00125
318.15	0.0953	0.0486	-0.00646	0.00083
318.15	0.125	0.0637	-0.00898	0.00085
318.15	0.1552	0.079	-0.01116	0.00086
318.15	0.1836	0.0933	-0.0133	0.0009
318.15	0.2125	0.1078	-0.01534	0.0009
318.15	0.2436	0.1231	-0.01776	0.00091
318.15	0.2717	0.137	-0.01987	0.00094
318.15	0.3067	0.1546	-0.02238	0.00098
318.15	0.3388	0.1704	-0.02487	0.00102
318.15	0.3668	0.1844	-0.02692	0.00105
318.15	0.411	0.2055	-0.0305	0.0011
318.15	0.4483	0.224	-0.03325	0.00116
