Measured thermophysical data. Solubility of Form III Piracetam in a Range of Solvents
Source: J. Chem. Eng. Data, 2010, 10.1021/je1003934
Compound 1: 2-oxo-1-pyrrolidineacetamide, C6H10N2O2, InChI=1S/C6H10N2O2/c7-5(9)4-8-3-1-2-6(8)10/h1-4H2,(H2,7,9)
Compound 2: methanol, CH4O, InChI=1S/CH4O/c1-2/h2H,1H3
Compound 3: ethanol, C2H6O, InChI=1S/C2H6O/c1-2-3/h3H,2H2,1H3
Compound 4: propan-2-ol, C3H8O, InChI=1S/C3H8O/c1-3(2)4/h3-4H,1-2H3
Compound 5: 1,4-dioxane, C4H8O2, InChI=1S/C4H8O2/c1-2-6-4-3-5-1/h1-4H2
Compound 6: acetone, C3H6O, InChI=1S/C3H6O/c1-3(2)4/h1-2H3

System: methanol + 2-oxo-1-pyrrolidineacetamide; phases: Liquid, Crystal
Fixed: Pressure, kPa = 101
Property: Mass ratio of solute to solvent (Liquid); method: Gravimetric
Temperature, K	Mass ratio of solute to solvent	uncertainty
278.1	0.0796	0.0023
278.1	0.0798	0.0026
283.1	0.0972	0.0004
283.1	0.0978	0.002
288.15	0.1195	0.0003
288.15	0.12	0.0024
293.15	0.1481	0.0005
293.15	0.1482	0.0004
298.15	0.1796	0.0024
298.15	0.1801	0.0004
303.15	0.216	0.0005
303.15	0.2158	0.0021
308.15	0.2631	0.0027
308.15	0.2626	0.0021
313.15	0.323	0.012
313.15	0.3229	0.0646
318.15	0.3947	0.0022
318.15	0.3939	0.0022
323.15	0.4804	0.0009
323.15	0.4801	0.0031

System: ethanol + 2-oxo-1-pyrrolidineacetamide; phases: Liquid, Crystal
Fixed: Pressure, kPa = 101
Property: Mass ratio of solute to solvent (Liquid); method: Gravimetric
Temperature, K	Mass ratio of solute to solvent	uncertainty
278.1	0.0161	0.0004
283.1	0.0205	0.0002
288.15	0.026	0.0025
293.15	0.0324	0.0005
298.15	0.0408	0.0016
303.15	0.0511	0.0026
308.15	0.0631	0.0008
313.15	0.0792	0.0024
318.15	0.0982	0.0025
323.15	0.1248	0.0024

System: propan-2-ol + 2-oxo-1-pyrrolidineacetamide; phases: Liquid, Crystal
Fixed: Pressure, kPa = 101
Property: Mass ratio of solute to solvent (Liquid); method: Gravimetric
Temperature, K	Mass ratio of solute to solvent	uncertainty
278.1	0.0073	0.002
283.1	0.0091	0.0004
288.15	0.012	0.0023
293.15	0.015	0.0004
298.15	0.019	0.0008
303.15	0.0245	0.0027
308.15	0.0312	0.0005
313.15	0.04	0.0017
318.15	0.0513	0.0023
323.15	0.0649	0.0005

System: 1,4-dioxane + 2-oxo-1-pyrrolidineacetamide; phases: Liquid, Crystal
Fixed: Pressure, kPa = 101
Property: Mass ratio of solute to solvent (Liquid); method: Gravimetric
Temperature, K	Mass ratio of solute to solvent	uncertainty
288.15	0.00256	0.00218
293.15	0.00291	0.00018
298.15	0.00345	0.00081
303.15	0.00423	0.00238
308.15	0.00526	0.00083
313.15	0.00674	0.00105
318.15	0.00836	0.00242
323.15	0.01045	0.00059

System: acetone + 2-oxo-1-pyrrolidineacetamide; phases: Liquid, Crystal
Fixed: Pressure, kPa = 101
Property: Mass ratio of solute to solvent (Liquid); method: Gravimetric
Temperature, K	Mass ratio of solute to solvent	uncertainty
278.1	0.0038	0.0004
283.1	0.0042	0.0003
288.15	0.0051	0.0005
293.15	0.0063	0.0003
298.15	0.0077	0.0001
303.15	0.0094	0.0025
308.15	0.0116	0.0008
313.15	0.0141	0.001
318.15	0.0166	0.0027
323.15	0.02	0.0004
