Measured thermophysical data. Vapor-Liquid Equilibrium for Binary Systems of Cyclohexane + Cyclohexanone and + Cyclohexanol at Temperatures from (414.0 to 433.7) K
Source: J. Chem. Eng. Data, 2010, 10.1021/je100028s
Compound 1: cyclohexane, C6H12, InChI=1S/C6H12/c1-2-4-6-5-3-1/h1-6H2, purity 99.5%
Compound 2: cyclohexanone, C6H10O, InChI=1S/C6H10O/c7-6-4-2-1-3-5-6/h1-5H2, purity 99.5%
Compound 3: cyclohexanol, C6H12O, InChI=1S/C6H12O/c7-6-4-2-1-3-5-6/h6-7H,1-5H2, purity 99%

System: cyclohexane; phases: Liquid
Property: Mass density, kg/m3 (Liquid); method: Pycnometric method
Temperature, K	Pressure, kPa	Mass density, kg/m3	uncertainty
293.1	101.325	778.2	0.7

System: cyclohexane; phases: Liquid, Gas
Property: Vapor or sublimation pressure, kPa (Liquid); method: Closed cell (Static) method
Temperature, K	Vapor or sublimation pressure, kPa	uncertainty
414	457.667	20.993
423.4	555.246	21.163
433.7	677.813	21.335

System: cyclohexanone; phases: Liquid
Property: Mass density, kg/m3 (Liquid); method: Pycnometric method
Temperature, K	Pressure, kPa	Mass density, kg/m3	uncertainty
293.1	101.325	947.6	0.9

System: cyclohexanol; phases: Liquid
Property: Mass density, kg/m3 (Liquid); method: Pycnometric method
Temperature, K	Pressure, kPa	Mass density, kg/m3	uncertainty
293.1	101.325	941.4	0.9

System: cyclohexanol + cyclohexane; phases: Liquid, Gas
Property: Vapor or sublimation pressure, kPa (Liquid); method: Closed cell (Static) method
Mole fraction of cyclohexanol	Temperature, K	Vapor or sublimation pressure, kPa	uncertainty
0	414	457.667	20.993
0	423.4	555.246	21.163
0	433.7	677.813	21.335
0.0183	433.7	670.112	21.19
0.0205	423.4	554.538	21.084
0.0324	414	457.085	21.002
0.0356	433.7	661.574	21.157
0.0414	414	454.123	21.052
0.0443	423.4	549.61	21.102
0.046	414	451.423	21.158
0.0609	433.7	658.508	21.328
0.0661	423.4	536.895	21.363
0.086	414	440.254	20.998
0.0881	423.4	531.718	21.195
0.0987	433.7	637.392	21.621
0.1117	414	434.413	21.078
0.1201	414	429.593	21.253
0.1247	423.4	517.629	21.283
0.1263	433.7	629.176	21.806
0.1338	414	426.325	21.016
0.1456	423.4	515.255	21.028
0.1613	433.7	610.125	21.999
0.1705	423.4	509.592	21.342
0.1795	433.7	607.643	21.273
0.1844	414	416.235	21.205
0.2048	423.4	499.5	21.385
0.2384	423.4	493.942	21.181
0.2413	433.7	592.967	21.679
0.2478	414	402.831	21.48

System: cyclohexanol + cyclohexane; phases: Gas, Liquid
Property: Mole fraction of cyclohexanol (Gas); method: Chromatography
Mole fraction of cyclohexanol	Temperature, K	Mole fraction of cyclohexanol	uncertainty
0.0183	433.7	0.0089	0.0013
0.0205	423.4	0.0102	0.0014
0.0324	414	0.0136	0.0023
0.0356	433.7	0.0177	0.0023
0.0414	414	0.0186	0.0034
0.0443	423.4	0.0206	0.0029
0.046	414	0.0233	0.0053
0.0609	433.7	0.0272	0.0037
0.0661	423.4	0.0307	0.0038
0.086	414	0.0327	0.0039
0.0881	423.4	0.0355	0.0047
0.0987	433.7	0.0434	0.0058
0.1117	414	0.0399	0.0055
0.1201	414	0.045	0.0067
0.1247	423.4	0.0504	0.007
0.1263	433.7	0.0522	0.0071
0.1338	414	0.0492	0.007
0.1456	423.4	0.0574	0.0071
0.1613	433.7	0.0671	0.0098
0.1705	423.4	0.0633	0.0076
0.1795	433.7	0.0757	0.0093
0.1844	414	0.0685	0.0084
0.2048	423.4	0.0698	0.0098
0.2384	423.4	0.086	0.0129
0.2413	433.7	0.0916	0.0111
0.2478	414	0.0792	0.009

System: cyclohexanone + cyclohexane; phases: Liquid, Gas
Property: Vapor or sublimation pressure, kPa (Liquid); method: Closed cell (Static) method
Mole fraction of cyclohexanone	Temperature, K	Vapor or sublimation pressure, kPa	uncertainty
0	414	457.667	20.155
0	423.4	555.246	20.195
0	433.7	677.813	20.245
0.0052	433.7	674.445	20.242
0.0194	433.7	672.117	20.236
0.0211	414	456.05	20.16
0.0259	423.4	555.185	20.202
0.0302	414	455.039	20.163
0.0418	414	453.482	20.171
0.0482	433.7	657.795	20.333
0.0632	423.4	539.009	20.21
0.0684	414	448.588	20.202
0.0715	423.4	534.454	20.335
0.077	433.7	646.325	20.557
0.0826	423.4	531.759	20.222
0.0947	433.7	634.757	20.461
0.0949	414	440.481	20.336
0.104	423.4	528.45	20.433
0.1167	414	434.153	20.487
0.1185	433.7	631.494	20.412
0.1345	414	427.621	20.44
0.1373	433.7	623.838	20.834
0.1485	423.4	513.243	21.823
0.1562	423.4	510.11	20.166
0.166	414	420.828	20.446
0.1737	433.7	610.784	21.271
0.1948	423.4	497.955	20.522
0.1991	414	413.604	20.582
0.2105	433.7	595.647	21.961
0.2458	423.4	491.44	20.392

System: cyclohexanone + cyclohexane; phases: Gas, Liquid
Property: Mole fraction of cyclohexanone (Gas); method: Chromatography
Mole fraction of cyclohexanone	Temperature, K	Mole fraction of cyclohexanone	uncertainty
0	433.7	0	0.0001
0.0052	433.7	0.0022	0.0003
0.0194	433.7	0.0083	0.0013
0.0211	414	0.0107	0.0013
0.0259	423.4	0.0129	0.0018
0.0302	414	0.0138	0.0023
0.0418	414	0.0232	0.003
0.0482	433.7	0.0231	0.0034
0.0632	423.4	0.0301	0.0045
0.0684	414	0.0324	0.0042
0.0715	423.4	0.0341	0.0048
0.077	433.7	0.0383	0.0053
0.0826	423.4	0.0392	0.0053
0.0947	433.7	0.0448	0.006
0.0949	414	0.0433	0.0062
0.104	423.4	0.048	0.0064
0.1167	414	0.0552	0.0089
0.1185	433.7	0.0557	0.0084
0.1345	414	0.067	0.0084
0.1373	433.7	0.0676	0.0093
0.1485	423.4	0.066	0.0068
0.1562	423.4	0.07	0.0115
0.166	414	0.0747	0.0078
0.1737	433.7	0.082	0.0098
0.1948	423.4	0.0826	0.0108
0.1991	414	0.076	0.0077
0.2105	433.7	0.0903	0.0102
0.2458	423.4	0.1021	0.0139
