Measured thermophysical data. Measurement of Heat Capacity by Adiabatic Calorimetry and Calculation of Thermodynamic Functions of Standard Substances: Copper, Benzoic Acid, and Heptane (For Calibration of an Adiabatic Calorimeter)
Source: J. Chem. Eng. Data, 2011, 10.1021/je100658y
Compound 1: copper, Cu, InChI=1S/Cu
Compound 2: benzoic acid, C7H6O2, InChI=1S/C7H6O2/c8-7(9)6-4-2-1-3-5-6/h1-5H,(H,8,9)
Compound 3: heptane, C7H16, InChI=1S/C7H16/c1-3-5-7-6-4-2/h3-7H2,1-2H3

System: copper; phases: Crystal
Fixed: Pressure, kPa = 101.325
Property: Molar heat capacity at constant pressure, J/K/mol (Crystal); method: Vacuum adiabatic calorimetry
Temperature, K	Molar heat capacity at constant pressure, J/K/mol	uncertainty
4.3374	0.00667233	0.007816158
4.3712	0.007053606	0.007816158
4.389	0.007498428	0.007816158
4.7371	0.008388072	0.007816158
4.7386	0.008451618	0.007816158
4.7619	0.008388072	0.007816158
5.0908	0.009786084	0.007816158
5.1185	0.009786084	0.007816158
5.1473	0.009913176	0.007816158
5.323	0.010993458	0.007816158
5.3634	0.011184096	0.007816158
5.3896	0.011374734	0.007816158
5.5427	0.01207374	0.007816158
5.5983	0.012518562	0.007816158
5.6176	0.012582108	0.007816158
5.7613	0.013217568	0.007816158
5.8373	0.013471752	0.007816158
5.8507	0.013725936	0.007816158
5.9866	0.014107212	0.007816158
6.082	0.014679126	0.007816158
6.0877	0.014869764	0.007816158
6.3051	0.016013592	0.007879704
6.4194	0.017030328	0.007879704
6.4206	0.016903236	0.007879704
6.7127	0.019127346	0.007879704
6.8423	0.020271174	0.007879704
6.8512	0.02001699	0.007879704
7.1324	0.022431738	0.007879704
7.2772	0.023702658	0.007879704
7.2877	0.023575566	0.007879704
7.5563	0.026117406	0.00794325
7.7125	0.02732478	0.00794325
7.7286	0.027515418	0.00794325
7.986	0.030120804	0.00794325
8.1521	0.031518816	0.00794325
8.1722	0.031773	0.00794325
8.4213	0.034823208	0.00794325
8.5934	0.036411858	0.008006796
8.619	0.036602496	0.008006796
8.8586	0.039525612	0.008006796
9.0363	0.041686176	0.008006796
9.0675	0.041686176	0.008006796
9.2984	0.04511766	0.008006796
9.4823	0.047278224	0.008070342
9.5152	0.047723046	0.008070342
9.7411	0.051218076	0.008070342
9.9282	0.053569278	0.008070342
9.9635	0.054586014	0.008070342
10.184	0.054522468	0.008070342
10.599	0.065579472	0.008133888
10.641	0.066278478	0.008133888
10.83	0.069455778	0.008133888
11.503	0.082863984	0.00826098
11.549	0.08388072	0.00826098
11.715	0.08705802	0.00826098
12.413	0.10326225	0.008324526
12.464	0.104469624	0.008324526
12.615	0.108282384	0.008388072
13.329	0.127092	0.008451618
13.383	0.129252564	0.008451618
13.524	0.132938232	0.008515164
14.245	0.157085712	0.00857871
14.305	0.15918273	0.008642256
14.433	0.163694496	0.008642256
15.168	0.191781828	0.008769348
15.231	0.193306932	0.008769348
15.35	0.19858125	0.008769348
16.097	0.229464606	0.008959986
16.159	0.231879354	0.008959986
16.27	0.237090126	0.008959986
17.031	0.272485248	0.009277716
17.094	0.27578964	0.009341262
17.199	0.28150878	0.0095319
17.966	0.325546158	0.00984963
18.028	0.329676648	0.009913176
18.128	0.3336165	0.009913176
18.901	0.384072024	0.01048509
18.964	0.389092158	0.01048509
19.057	0.394048746	0.010612182
19.841	0.4479993	0.011184096
19.904	0.454226808	0.011311188
19.992	0.460772046	0.011374734
20.5	0.498327732	0.011819556
21.238	0.562763376	0.012582108
21.31	0.570452442	0.0127092
21.397	0.575663214	0.012772746
22.076	0.634888086	0.013471752
23.18	0.744377844	0.014869764
23.26	0.753210738	0.01525104
23.947	0.826987644	0.0158865
25.053	0.957066306	0.017729334
25.83	1.055880336	0.019127346
26.933	1.206293718	0.021224364
27.72	1.322328714	0.022685922
28.822	1.489327602	0.02478294
29.621	1.618643712	0.026879958
30.719	1.813348656	0.041177808
31.571	1.877974938	0.04194036
32.63	2.162597472	0.045371844
33.431	2.320318644	0.047214678
33.485	2.315743332	0.047087586
34.551	2.54025135	0.049820064
35.338	2.69689224	0.05178999
35.487	2.714176752	0.05210772
36.481	2.943260082	0.05528502
37.278	3.106573302	0.057127854
37.418	3.136884744	0.05750913
39.215	3.548154456	0.06291054
39.353	3.57986391	0.063418908
41.155	4.005495018	0.038890152
41.291	4.03707738	0.03876306
43.101	4.46696607	0.040478802
43.237	4.49937453	0.04066944
45.052	4.939938948	0.042321636
45.189	4.9756518	0.042385182
46.956	5.406239496	0.04384674
47.09	5.43921987	0.044100924
48.739	5.854111704	0.045689574
48.863	5.884423146	0.045816666
50.397	6.27866253	0.047278224
50.515	6.305542488	0.047468862
51.954	6.66120945	0.048803328
52.064	6.68376828	0.04893042
53.423	7.018719246	0.050328432
53.528	7.052716356	0.050391978
54.819	7.37610195	0.051726444
54.919	7.408637502	0.051917082
56.153	7.70685888	0.053124456
56.25	7.734437844	0.053188002
57.435	8.00774919	0.054268284
57.529	8.030498658	0.054395376
58.67	8.305589292	0.055475658
58.762	8.318362038	0.05560275
59.863	8.612516472	0.05687367
59.947	8.630436444	0.05687367
61.016	8.888369658	0.05782686
61.093	8.896185816	0.05782686
62.134	9.148526982	0.05909778
62.209	9.15411903	0.05909778
63.22	9.395403192	0.060114516
63.294	9.40067751	0.060178062
64.279	9.622071774	0.061131252
64.351	9.64977783	0.06132189
65.311	9.861513102	0.062084442
65.382	9.883817748	0.06227508
66.32	10.101017976	0.06322827
66.39	10.119192132	0.06322827
67.306	10.318218204	0.064117914
67.375	10.332833784	0.06418146
68.272	10.520294484	0.065007558
68.341	10.543298136	0.065071104
69.219	10.736986344	0.065960748
69.286	10.75611369	0.066024294
70.149	10.935885324	0.066786846
70.216	10.94452758	0.066850392
72.114	11.338639872	0.068566134
72.182	11.354526372	0.06862968
75.13	11.961771948	0.07117152
75.201	11.974798878	0.071362158
78.155	12.542836572	0.07371336
78.229	12.558850164	0.073967544
79.462	12.785328108	0.07498428
81.187	13.109412708	0.076445838
82.428	13.324261734	0.07752612
85.402	13.841081352	0.07975023
88.272	14.316024156	0.081847248
91.052	14.753665458	0.1663570734
93.752	15.164426802	0.166681158
96.384	15.536107356	0.16712598
98.954	15.8833227	0.167253072
101.47	16.214016084	0.167507256
103.93	16.532572182	0.16776144
106.36	16.822024212	0.167952078
108.74	17.095526196	0.1682126166
111.08	17.356064796	0.1683969
113.39	17.599827252	0.168587538
115.66	17.836980924	0.168778176
117.91	18.056977176	0.1689116226
120.13	18.265789332	0.169095906
122.32	18.466022778	0.169222998
124.49	18.65901198	0.1694072814
126.63	18.848950974	0.169540728
128.76	19.02027099	0.16966782
130.86	19.191972282	0.1697885574
132.95	19.345372326	0.169922004
135.02	19.493815782	0.170049096
137.06	19.6452459	0.170112642
139.1	19.789050498	0.170239734
141.11	19.923768018	0.170366826
143.11	20.06306085	0.1704875634
145.1	20.17935003	0.170557464
147.08	20.299515516	0.17062101
149.04	20.418028806	0.170748102
150.99	20.54060904	0.170811648
152.93	20.641710726	0.17093874
154.86	20.74427397	0.17093874
156.77	20.847726858	0.1710721866
158.68	20.944189686	0.171129378
160.58	21.042241164	0.171192924
162.46	21.136479882	0.171320016
164.34	21.21959805	0.1713772074
166.21	21.317395344	0.171447108
168.08	21.391744164	0.171510654
169.93	21.474226872	0.1715678454
171.78	21.552706182	0.171637746
173.62	21.637794276	0.171701292
175.45	21.71207955	0.1717584834
177.28	21.780518592	0.1717584834
179.1	21.84489069	0.171828384
180.91	21.93671466	0.17189193
182.73	21.989521386	0.1719618306
184.53	22.051923558	0.172019022
186.33	22.11051297	0.172019022
188.12	22.177172724	0.172082568
189.91	22.239447804	0.1721524686
191.69	22.297084026	0.17220966
193.47	22.379693826	0.1722668514
195.26	22.413182568	0.1722668514
197.03	22.464654828	0.1723431066
198.81	22.547645904	0.172400298
200.59	22.602168372	0.172400298
202.38	22.631717262	0.1724574894
204.15	22.682045694	0.1724574894
205.92	22.735614972	0.17252739
207.69	22.784291208	0.172590936
209.46	22.82635866	0.172590936
211.25	22.896132168	0.1726481274
213.02	22.926634248	0.1726481274
214.78	22.972450914	0.172718028
216.54	23.02779948	0.172781574
218.3	23.053154334	0.172781574
220.06	23.111235378	0.1728514746
221.81	23.138560158	0.1728514746
223.56	23.17459074	0.1728514746
225.3	23.229939306	0.172908666
227.04	23.26546152	0.172972212
228.78	23.289418362	0.172972212
230.51	23.336569494	0.172972212
232.24	23.38079751	0.1730421126
233.96	23.408058744	0.1730421126
235.68	23.439958836	0.173099304
237.4	23.483297208	0.173099304
239.16	23.51805687	0.17316285
240.87	23.556565746	0.17316285
242.58	23.59113477	0.17316285
244.29	23.618014728	0.1732327506
246	23.647309434	0.1732327506
247.7	23.678764704	0.173289942
249.4	23.711999262	0.173289942
251.1	23.750889414	0.173289942
252.8	23.787682548	0.1733471334
254.49	23.813291586	0.1733471334
256.19	23.846399052	0.173417034
257.88	23.861141724	0.173417034
259.58	23.888974872	0.173417034
261.27	23.95398243	0.17348058
262.97	23.957096184	0.17348058
264.66	23.967708366	0.17348058
266.39	24.009330996	0.1735377714
268.08	24.031317912	0.1735377714
269.77	24.084505914	0.1735377714
271.47	24.089081226	0.173607672
273.15	24.105920916	0.173607672
274.84	24.127971378	0.173607672
276.52	24.149577018	0.173607672
278.2	24.18052392	0.173671218
279.88	24.202510836	0.173671218
281.55	24.22723023	0.173671218
283.23	24.257541672	0.1737284094
284.9	24.279401496	0.1737284094
286.57	24.297512106	0.1737284094
288.24	24.319880298	0.1737284094
289.91	24.339833742	0.17379831
291.58	24.363981222	0.17379831
293.31	24.372687024	0.17379831
294.98	24.414818022	0.173861856
296.66	24.451928886	0.173861856
298.34	24.473661618	0.173861856
300.02	24.492344142	0.173861856
301.71	24.512361132	0.1739317566
303.39	24.526341252	0.1739317566
305.07	24.515220702	0.1739317566
306.73	24.512996592	0.1739317566
308.4	24.554936952	0.1739317566
310.06	24.607298856	0.173988948
311.74	24.643901352	0.173988948
313.43	24.656102184	0.173988948
315.11	24.63710193	0.173988948
316.78	24.690671208	0.174052494
318.46	24.720792012	0.174052494
320.22	24.700203108	0.174052494
321.89	24.713801952	0.174052494
323.56	24.746909418	0.1741223946

System: copper; phases: Crystal
Fixed: Pressure, kPa = 101.325
Property: Molar heat capacity at constant pressure, J/K/mol (Crystal); method: Vacuum adiabatic calorimetry
Temperature, K	Molar heat capacity at constant pressure, J/K/mol	uncertainty
5	0.0094	0.0078
10	0.0552	0.0081
15	0.184	0.009
20	0.461	0.011
25	0.952	0.018
30	1.684	0.04
35	2.63	0.051
40	3.728	0.038
45	4.927	0.042
50	6.173	0.047
55	7.421	0.052
60	8.633	0.057
65	9.797	0.062
70	10.9	0.07
75	11.94	0.07
80	12.89	0.08
85	13.77	0.08
90	14.59	0.17
95	15.34	0.17
100	16.03	0.17
110	17.24	0.17
120	18.25	0.17
130	19.12	0.17
140	19.85	0.17
150	20.48	0.17
160	21.01	0.17
170	21.48	0.17
180	21.89	0.17
190	22.25	0.17
200	22.57	0.17
210	22.85	0.17
220	23.1	0.17
230	23.32	0.17
240	23.53	0.17
250	23.73	0.17
260	23.91	0.17
270	24.07	0.17
273.15	24.11	0.17
280	24.21	0.17
290	24.34	0.17
298.15	24.45	0.17
300	24.48	0.17
310	24.6	0.17
320	24.71	0.17

System: copper; phases: Crystal
Fixed: Pressure, kPa = 101.325
Property: Molar enthalpy, kJ/mol (Crystal); method: Vacuum adiabatic calorimetry
Temperature, K	Molar enthalpy, kJ/mol	uncertainty
5	1.6e-05	3.88e-05
10	0.0001543	7.84e-05
15	0.0007055	0.0001199
20	0.0022391	0.0001649
25	0.0056696	0.0002143
30	0.01216	0.000949
35	0.022871	0.001121
40	0.038713	0.001301
45	0.060321	0.001491
50	0.088064	0.00169
55	0.12206	0.0019
60	0.16222	0.00212
65	0.20831	0.00235
70	0.26009	0.00264
75	0.31721	0.00296
80	0.37931	0.00331
85	0.446	0.00367
90	0.51694	0.01435
95	0.59179	0.01518
100	0.67023	0.01601
110	0.83674	0.01769
120	1.0143	0.0194
130	1.2013	0.0211
140	1.3963	0.0228
150	1.598	0.0245
160	1.8055	0.0262
170	2.018	0.0279
180	2.2349	0.0296
190	2.4556	0.0313
200	2.6797	0.0331
210	2.9068	0.0348
220	3.1366	0.0365
230	3.3687	0.0382
240	3.603	0.04
250	3.8394	0.0417
260	4.0776	0.0434
270	4.3174	0.0452
273.15	4.3933	0.0457
280	4.5588	0.0469
290	4.8016	0.0486
298.15	5.0004	0.0501
300	5.0457	0.0504
310	5.2911	0.0521
320	5.5376	0.0539

System: copper; phases: Crystal
Fixed: Pressure, kPa = 101.325
Property: Molar entropy, J/K/mol (Crystal); method: Vacuum adiabatic calorimetry
Temperature, K	Molar entropy, J/K/mol	uncertainty
5	0.0054	0.0117
10	0.0228	0.0118
15	0.0658	0.0121
20	0.152	0.013
25	0.303	0.014
30	0.538	0.048
35	0.866	0.049
40	1.288	0.05
45	1.795	0.051
50	2.379	0.052
55	3.026	0.054
60	3.724	0.057
65	4.461	0.06
70	5.228	0.065
75	6.016	0.069
80	6.817	0.074
85	7.625	0.079
90	8.436	0.242
95	9.245	0.243
100	10.05	0.24
110	11.64	0.25
120	13.18	0.25
130	14.68	0.25
140	16.12	0.25
150	17.51	0.25
160	18.85	0.25
170	20.14	0.26
180	21.38	0.26
190	22.57	0.26
200	23.72	0.26
210	24.83	0.26
220	25.9	0.26
230	26.93	0.26
240	27.93	0.26
250	28.89	0.27
260	29.83	0.27
270	30.73	0.27
273.15	31.01	0.27
280	31.61	0.27
290	32.46	0.27
298.15	33.14	0.27
300	33.29	0.27
310	34.09	0.27
320	34.88	0.27

System: benzoic acid; phases: Crystal, Gas
Property: Molar heat capacity at saturation pressure, J/K/mol (Crystal); method: Vacuum adiabatic calorimetry
Temperature, K	Molar heat capacity at saturation pressure, J/K/mol	uncertainty
4.2675	0.11247375414	0.0091591005
4.318	0.15057561222	0.00952546452
4.3192	0.14434742388	0.00940334318
4.5825	0.18965444102	0.0097697072
4.6791	0.19856929884	0.0109909206
4.6844	0.19942414822	0.0109909206
4.9621	0.22152811076	0.0109909206
5.1022	0.24986026164	0.01196789132
5.109	0.27147573882	0.012199921866
5.137	0.2558442073	0.01196789132
5.2912	0.2839321155	0.01257849802
5.3545	0.29724334156	0.0128227407
5.4466	0.31189790236	0.01318910472
5.5913	0.34047429592	0.01392183276
5.6042	0.3431609654	0.0134333474
5.7627	0.37344705772	0.01477668214
5.8318	0.38883434656	0.0152651675
5.9236	0.40519860612	0.01563153152
6.0769	0.43878197462	0.01660850224
6.0855	0.43951470266	0.01673062358
6.3817	0.51425296274	0.01856244368
6.4137	0.52255721386	0.01880668636
6.81	0.63613006006	0.0219818412
6.8421	0.64553340324	0.02222608388
7.2428	0.77754657178	0.0256454814
7.2746	0.78682779362	0.0262560881
7.6808	0.93630431378	0.030530335
7.7109	0.9476615984	0.03089669902
8.1219	1.1125254074	0.03553730994
8.1506	1.12669148284	0.0354151886
8.565	1.30999561418	0.04127701292
8.5941	1.32147502014	0.04164337694
9.0399	1.53701918524	0.04787156528
9.4871	1.78321580668	0.054954603
9.9387	2.05322608942	0.06264824742
10.621	2.48895503054	0.04445216776
11.539	3.08380807768	0.05361126826
12.462	3.76353545612	0.06423582484
13.394	4.51958867206	0.07583735214
14.334	5.35025802674	0.08866009284
15.28	6.26714504746	0.102594137734
16.239	7.12590231034	0.1154046663
17.203	8.05890934794	0.12981498442
18.168	9.10072649948	0.14556863728
19.138	10.13936849618	0.16107804746
20.112	11.16274532538	0.1764653363
21.585	12.80710916848	0.2008896043
23.564	14.94618655992	0.2326411527
25.564	17.15389614444	0.26512542914
27.567	19.38847242376	0.2979760696
29.577	21.56943743482	0.32984973934
31.592	23.63511990092	0.36038007434
33.608	25.6173934918	0.3901776813
35.622	27.55155127472	0.41912043888
36.172	28.08277910372	0.42718044732
37.634	29.47935874796	0.44806319646
37.989	29.79308847042	0.45282592872
39.643	31.33071826236	0.47578474064
39.992	31.62234402228	0.48018110888
41.997	33.31396882396	0.1715804827
44.002	34.93561809782	0.17915200578
46.008	36.41621722398	0.18611292216
48.012	37.8521199397	0.1929517172
50.014	39.32636875618	0.19991263358
52.015	40.83762033868	0.20711779264
54.016	42.30551884548	0.21407870902
56.017	43.4733652199	0.21945204798
58.022	44.33566400164	0.22360417354
60.025	45.70183543222	0.2301987259
62.024	46.9391688491	0.23606055022
64.026	48.09529157488	0.24155601052
66.033	49.01901739064	0.24583025742
67.591	49.78813758996	0.24961601896
68.038	50.05375150446	0.25083723236
69.596	50.75436163204	0.25413450854
70.046	51.01289250882	0.25547784328
72.105	52.0566636018	0.26048481822
72.558	52.29931870438	0.26158391028
75.125	53.45275476068	0.26707937058
75.583	53.65486557838	0.2680563413
78.157	54.77825978504	0.27342968026
78.62	54.95057299578	0.2741624083
81.193	56.10877178434	0.27977998994
81.436	56.32675837624	0.280879082
81.661	56.31063835936	0.28075696066
84.57	57.69842526712	0.28735151302
87.63	59.05617032524	0.29394606538
90.696	60.33783378854	0.2271456924
93.771	61.5894554022	0.22946599786
96.852	62.8393673171	0.23178630332
99.94	64.05532949948	0.23410660878
103.04	65.22329799524	0.2363047929
106.14	66.40885196396	0.23850297702
109.25	67.60796140142	0.24082328248
112.37	68.73306530684	0.24289934526
115.49	69.90616289888	0.24521965072
118.62	71.15900572594	0.24766207752
121.75	72.21621016632	0.2497381403
124.89	73.4260662817	0.25205844576
128.04	74.6130857065	0.25437875122
131.2	75.88754401074	0.25682117802
134.36	76.98981122558	0.25901936214
137.52	78.16242033226	0.2613396676
140.68	79.31194850568	0.26365997306
143.85	80.57456103994	0.2662245212
147.02	81.84108145708	0.268666948
150.19	83.00257752182	0.27098725346
153.36	84.43603781074	0.27391816562
156.54	85.59863296754	0.27623847108
159.73	86.78223299482	0.27855877654
162.92	87.95325452408	0.280879082
166.11	89.39074481722	0.2839321155
169.3	90.46651170128	0.28613029962
172.5	91.88702712816	0.28906121178
175.69	92.95473400378	0.29113727456
178.89	94.17594740378	0.2937018227
182.06	95.49204908496	0.29638849218
185.26	96.9411409054	0.29944152568
188.45	98.33198084666	0.3022503165
191.64	99.41434228308	0.30444850062
194.85	100.8374222581	0.30750153412
198.06	102.70331421196	0.311409417
201.29	104.07742352964	0.31421820782
204.56	105.4389543493	0.31702699864
207.86	106.53023064354	0.3193473041
211.18	107.91398754708	0.32227821626
214.52	109.08989392994	0.32472064306
217.87	110.50381480446	0.32765155522
221.21	111.93898479214	0.33070458872
224.56	113.30002712644	0.33351337954
227.9	114.50328868946	0.33620004902
231.24	116.38493429618	0.3401079319
234.61	117.78688727938	0.3431609654
237.96	119.30143613806	0.34633612024
241.3	120.86703171686	0.34963339642
244.64	122.3246720311	0.35280855126
247.98	123.56066211324	0.3553730994
251.31	125.25595055512	0.3590367396
254.65	126.92144139004	0.36257825846
257.99	128.35062743206	0.36563129196
261.33	129.9804588357	0.36917281082
264.68	131.51955408372	0.372470087
268.04	133.02384474984	0.37576736318
271.39	134.5648939393	0.37906463936
274.75	136.10215736722	0.38236191554
278.11	137.59093862316	0.38565919172
281.47	139.27096189754	0.38932283192
284.81	140.86562235526	0.39274222944
288.19	142.49875103508	0.3962837483
291.54	143.77394206736	0.39897041778
294.87	145.35871069654	0.4023898153
298.18	146.34618385178	0.40458799942
301.46	148.33810502852	0.40898436766
304.75	149.87634542716	0.41228164384
308.03	151.31004995876	0.41545679868
311.3	152.74412085438	0.41863195352
314.57	154.10992592094	0.42156286568
317.82	155.4940491885	0.42461589918
321.07	156.834330895	0.42754681134

System: benzoic acid; phases: Crystal, Gas
Property: Molar heat capacity at saturation pressure, J/K/mol (Crystal); method: Vacuum adiabatic calorimetry
Temperature, K	Molar heat capacity at saturation pressure, J/K/mol	uncertainty
5	0.239	0.014
10	2.081	0.029
15	5.951	0.053
20	11.06	0.08
25	16.56	0.09
30	22	0.09
35	27.02	0.1
40	31.57	0.1
45	35.68	0.11
50	39.36	0.12
55	42.81	0.13
60	45.83	0.13
65	48.54	0.14
70	51.01	0.14
75	53.35	0.15
80	55.63	0.15
85	57.88	0.16
90	60.03	0.26
95	62.09	0.26
100	64.07	0.26
110	67.88	0.27
120	71.6	0.27
130	75.35	0.28
140	79.14	0.28
150	82.99	0.28
160	86.91	0.29
170	90.78	0.29
180	94.74	0.29
190	98.83	0.3
200	103.05	0.3
210	107.31	0.31
220	111.48	0.31
230	115.73	0.32
240	120.21	0.32
250	124.73	0.32
260	129.32	0.33
270	133.95	0.33
273.15	135.41	0.34
280	138.58	0.34
290	143.18	0.34
298.15	146.88	0.4
300	147.72	0.35
310	152.14	0.35
320	156.42	0.36

System: benzoic acid; phases: Crystal
Fixed: Pressure, kPa = 101.325
Property: Molar enthalpy, kJ/mol (Crystal); method: Vacuum adiabatic calorimetry
Temperature, K	Molar enthalpy, kJ/mol	uncertainty
5	0.0003025	4.51e-05
10	0.0051225	0.0001343
15	0.02452	0.000447
20	0.066684	0.001102
25	0.13568	0.00215
30	0.23218	0.0037
35	0.35489	0.00555
40	0.50155	0.00302
45	0.66987	0.00386
50	0.85764	0.0048
55	1.0633	0.0058
60	1.285	0.0069
65	1.5211	0.0081
70	1.77	0.0094
75	2.0309	0.0106
80	2.3034	0.012
85	2.5872	0.0134
90	2.882	0.0162
95	3.1873	0.0172
100	3.5028	0.0184
110	4.1627	0.0207
120	4.86	0.0231
130	5.5948	0.0256
140	6.3671	0.0281
150	7.1777	0.0307
160	8.0271	0.0334
170	8.9155	0.0362
180	9.843	0.039
190	10.8107	0.042
200	11.8199	0.045
210	12.8721	0.0481
220	13.966	0.0513
230	15.102	0.0546
240	16.2815	0.0579
250	17.5061	0.0614
260	18.7763	0.0649
270	20.0926	0.0686
273.15	20.5169	0.0698
280	21.4553	0.0724
290	22.8642	0.0762
298.15	24.0462	0.0794
300	24.3187	0.0802
310	25.8181	0.0842
320	27.361	0.0884

System: benzoic acid; phases: Crystal
Fixed: Pressure, kPa = 101.325
Property: Molar entropy, J/K/mol (Crystal); method: Vacuum adiabatic calorimetry
Temperature, K	Molar entropy, J/K/mol	uncertainty
5	0.081	0.013
10	0.678	0.023
15	2.198	0.057
20	4.589	0.111
25	7.645	0.179
30	11.15	0.26
35	14.92	0.34
40	18.83	0.15
45	22.79	0.18
50	26.75	0.21
55	30.66	0.24
60	34.52	0.27
65	38.3	0.29
70	41.99	0.32
75	45.59	0.34
80	49.1	0.37
85	52.54	0.39
90	55.91	0.33
95	59.21	0.34
100	62.45	0.35
110	68.73	0.36
120	74.8	0.38
130	80.68	0.4
140	86.4	0.42
150	91.99	0.43
160	97.47	0.45
170	102.86	0.47
180	108.16	0.48
190	113.39	0.5
200	118.56	0.52
210	123.7	0.53
220	128.79	0.55
230	133.83	0.57
240	138.85	0.58
250	143.85	0.6
260	148.83	0.62
270	153.8	0.63
273.15	155.36	0.64
280	158.76	0.65
290	163.7	0.66
298.15	167.72	0.68
300	168.63	0.68
310	173.55	0.7
320	178.44	0.71

System: heptane; phases: Crystal, Liquid, Air at 1 atmosphere
Property: Molar enthalpy of transition or fusion, kJ/mol (Crystal); method: Adiabatic calorimetry
Molar enthalpy of transition or fusion, kJ/mol	uncertainty
14.0607	0.0644

System: heptane; phases: Crystal, Liquid, Gas
Property: Triple point temperature, K (Crystal); method: Adiabatic calorimetry
Triple point temperature, K	uncertainty
182.55	0.05

System: heptane; phases: Crystal, Gas
Property: Molar heat capacity at saturation pressure, J/K/mol (Crystal); method: Vacuum adiabatic calorimetry
Temperature, K	Molar heat capacity at saturation pressure, J/K/mol	uncertainty
4.2749	0.1072160758	0.00911837654
4.2951	0.12465121336	0.0090181746
4.5206	0.17425117366	0.010020194
4.5566	0.17565400082	0.01012039594
4.8144	0.1933897442	0.0105212037
4.9055	0.20561438088	0.01072160758
5.0005	0.22124588352	0.01092201146
5.0889	0.23607577064	0.01132281922
5.1602	0.24779939762	0.01162342504
5.2482	0.26613635264	0.01212443474
5.317	0.27765957574	0.01242504056
5.4074	0.29489430942	0.01282584832
5.4739	0.30671813834	0.01312645414
5.5671	0.3246542856	0.0135272619
5.6328	0.33748013392	0.01392806966
5.728	0.3562178967	0.01432887742
5.7928	0.36693950428	0.01462948324
5.8899	0.3862784787	0.01513049294
5.9537	0.40040695224	0.01543109876
6.0535	0.41964572472	0.0160323104
6.2492	0.46654023264	0.01733493562
6.3508	0.490989506	0.01793614726
6.6773	0.57876640544	0.02044119576
6.7794	0.60832597774	0.02124281128
7.1083	0.71023135072	0.02414866754
7.2118	0.74309758704	0.025050485
7.5456	0.85953224132	0.02835714902
7.6505	0.89660695912	0.02935916842
7.9853	1.02696968306	0.03316684214
8.0913	1.0686536901	0.03426906348
8.4285	1.21224307012	0.03847754496
8.5349	1.26034000132	0.03978017018
8.873	1.41805785488	0.04438945942
8.9818	1.4704634695	0.04589248852
9.32	1.64561646062	0.0511029894
9.4304	1.70353318194	0.0526060185
9.769	1.8963217145	0.05821732714
9.88	1.96075156192	0.060121164
10.22	2.16897119324	0.03988037212
10.558	2.3988344436	0.04328723808
10.903	2.63350738708	0.04689450792
11.465	3.03381413738	0.0531070282
11.817	3.30005069196	0.05731550968
12.382	3.74845437346	0.0641292416
12.739	4.04294787512	0.06883873278
13.309	4.54195353632	0.07645408022
13.671	4.87522518876	0.08176478304
14.245	5.42914151308	0.090181746
14.61	5.80650201912	0.09609366046
15.187	6.4049080048	0.10511183506
15.557	6.77846083712	0.1107231437
16.139	7.38468257412	0.11984152024
16.512	7.76645196552	0.1257534347
17.1	8.42207325894	0.13587383064
17.475	8.88270157712	0.14288796644
18.063	9.58311313772	0.1533089682
18.439	10.01959278836	0.16002249818
19.028	10.75186856588	0.17104471158
19.406	11.21199587436	0.1778584435
20	11.93976256458	0.18878045496
20.379	12.41572177958	0.19599499464
21.472	13.8358838752	0.21723780592
21.855	14.31314571542	0.22425194172
23.449	16.3795101221	0.25471333148
23.837	16.82821440942	0.26132665952
25.446	19.06522271992	0.29479410748
25.833	19.58917866418	0.3026098588
27.45	21.84682857432	0.33597710482
27.833	22.39423177254	0.34399326002
29.462	24.58294274796	0.37585747694
29.845	25.05890196296	0.3827714108
31.482	27.2368913308	0.41473582966
31.862	27.70543560224	0.42174996546
33.502	29.8747074013	0.4544157979
33.875	30.38002578472	0.46203114534
35.52	32.4824628898	0.4934945545
35.891	32.94529565066	0.50040848836
37.533	35.115769873	0.53297411886
37.64	35.21066111018	0.5345773499
37.641	35.15725347616	0.53397613826
37.902	35.56307133316	0.53978785078
39.314	37.35187636604	0.56674217264
39.316	37.29506186606	0.56584035518
39.545	37.65458642678	0.57125125994
39.912	38.13916300862	0.57846579962
41.314	39.80852732902	0.20310933238
41.315	39.82335721614	0.20320953432
43.317	42.23882518178	0.21463255548
43.319	42.24283325938	0.21463255548
45.322	44.56200716068	0.22555456694
45.324	44.53455182912	0.225454365
47.327	46.83709220838	0.23637637646
47.329	46.7687544853	0.23607577064
49.332	49.07069365292	0.24709798404
49.332	49.06548315204	0.2474987918
51.333	51.45700285402	0.2585210052
51.333	51.43856569706	0.25842080326
53.331	53.90694028702	0.27014443024
53.332	53.79772017242	0.2695432186
55.33	56.09845691676	0.280565432
55.331	56.14845768482	0.28076583588
57.33	58.34939329692	0.29098643376
57.332	58.36292055882	0.2910866357
59.336	60.02056125224	0.2986017812
59.338	60.01825660762	0.2986017812
61.34	62.32169880434	0.3101250043
61.341	62.35426443484	0.31032540818
63.321	64.30339257172	0.31944378472
63.323	64.32523659464	0.31954398666
65.248	66.04630511608	0.32776054574
65.25	66.05923116634	0.32786074768
67.107	67.75985849202	0.33597710482
67.11	67.69272319222	0.33557629706
68.907	69.20116319698	0.34279083674
68.909	69.2174961132	0.34289103868
70.655	70.5276364787	0.34910355896
70.658	70.50919932174	0.3487027512
73.027	72.31163181846	0.3577209258
73.03	72.29810455656	0.35762072386
76.058	74.7145745416	0.3692441489
76.059	74.71417373384	0.3692441489
79.096	77.16932166772	0.38096777588
79.097	77.15629541552	0.38096777588
79.2	77.3744350389	0.38196979528
81.98	79.6475160478	0.39289180674
82.139	79.59601225064	0.39259120092
84.695	81.77169697386	0.40311240462
87.426	83.89036679322	0.41323280056
90.17	86.27978225446	0.27796018156
92.93	88.26909136928	0.28186805722
95.706	90.18204660582	0.28577593288
98.499	92.07385923302	0.2895836066
101.31	93.89402747312	0.29329107838
104.14	95.702872894	0.2965977424
106.99	97.5345643572	0.30080622388
109.86	99.32487241918	0.30451369566
112.75	101.17069235592	0.30832136938
115.67	102.9444670978	0.31192863922
118.61	104.61112596582	0.31543570712
121.58	106.38349788054	0.3191431789
124.59	108.16168150778	0.32285065068
127.62	110.12604033954	0.32705913216
130.69	112.08929694996	0.3311674117
133.8	113.81056587528	0.33477468154
136.95	115.73494413298	0.33888296108
140.14	117.7282613254	0.34309144256
143.4	119.7824010954	0.34750032792
146.71	122.02612293588	0.35231002104
150.1	124.3646358116	0.35732011804
153.56	126.88391298708	0.3627310228
157.1	129.66221217746	0.3687431392
160.75	132.99542971156	0.37615808276
164.44	137.16162597288	0.38547686318

System: heptane; phases: Liquid, Gas
Property: Molar heat capacity at saturation pressure, J/K/mol (Liquid); method: Vacuum adiabatic calorimetry
Temperature, K	Molar heat capacity at saturation pressure, J/K/mol	uncertainty
185.57	201.79097545542	0.5270622044
188.61	201.9935837781	0.5275632141
191.64	201.21922318578	0.52575957918
194.68	200.83494874588	0.52495796366
197.7	200.97833772202	0.52525856948
200.72	200.4359446208	0.5240561462
203.73	200.67372382442	0.5245571559
206.73	201.07182613204	0.52545897336
209.74	200.94667390898	0.52515836754
212.74	201.01781728638	0.52535877142
215.72	201.78095526142	0.5270622044
218.71	202.21963935474	0.5280642238
221.69	202.57595745338	0.52886583932
224.68	202.99399994706	0.52976765678
227.67	203.18708908544	0.53016846454
230.64	203.90754103404	0.53177169558
233.61	204.56286172164	0.53327472468
236.57	205.26587853268	0.53487795572
239.53	206.00687187898	0.53648118676
242.52	206.57221122446	0.53778381198
245.47	207.36611119508	0.5395874469
248.4	208.19528224858	0.54139108182
251.33	208.98777939204	0.54319471674
254.24	209.83749184324	0.5450985536
257.15	210.73830728384	0.5471025924
260.06	211.57028399166	0.54900642926
262.96	212.29013472862	0.5506096603
265.84	213.26570081646	0.55281410298
268.72	214.3875617367	0.55531915148
271.58	215.35230601502	0.55752359416
274.44	216.56484969096	0.56022904654
277.27	217.88270560584	0.5631349028
280.1	218.87079693618	0.56533934548
282.92	219.833036166	0.56754378816
285.74	220.73896190554	0.56954782696
288.63	221.5294550102	0.57135146188
291.45	222.71704840308	0.57395671232
294.27	223.6647583516	0.576161155
297.09	224.7424302163	0.57856600156
299.9	225.81879945578	0.58097084812
302.72	226.95048016614	0.58347589662
305.53	227.9614175388	0.58578054124
308.35	229.08678552694	0.58828558974
311.17	230.25063106004	0.59099104212
313.98	231.30134860288	0.59329568674
316.8	232.30657446496	0.59560033136
319.62	233.38144067534	0.59800517792
322.43	234.49127736278	0.60051022642
325.25	235.51854765166	0.60281487104
328.07	236.39311018398	0.60481890984
330.89	237.99543940652	0.60842617968
333.91	239.3027741177	0.61133203594
336.75	240.69247482356	0.61443829608
339.59	241.87105004184	0.61714374846
342.44	243.1620518368	0.62004960472
345.29	244.22339078528	0.62245445128
348.15	245.37491147976	0.62505970172

System: heptane; phases: Crystal, Gas
Property: Molar heat capacity at saturation pressure, J/K/mol (Crystal); method: Vacuum adiabatic calorimetry
Temperature, K	Molar heat capacity at saturation pressure, J/K/mol	uncertainty
5	0.2222	0.0128
10	2.0386	0.0376
15	6.1963	0.1018
20	11.946	0.189
25	18.468	0.286
30	25.291	0.386
35	31.877	0.484
40	38.146	0.195
45	44.152	0.224
50	49.962	0.251
55	55.667	0.278
60	60.992	0.304
65	65.822	0.327
70	70.06	0.347
75	73.896	0.365
80	77.938	0.385
85	82.009	0.404
90	85.984	0.277
95	89.738	0.285
100	93.145	0.292
105	96.273	0.298
110	99.409	0.305
115	102.48	0.31
120	105.51	0.32
125	108.52	0.32
130	111.53	0.33
135	114.56	0.34
140	117.65	0.34
145	120.81	0.35
150	124.06	0.36
155	127.42	0.36
160	130.93	0.37
165	134.6	0.38
170	138.45	0.39
175	142.51	0.4
180	146.8	0.41
182.55	149.09	0.41

System: heptane; phases: Liquid, Gas
Property: Molar heat capacity at saturation pressure, J/K/mol (Liquid); method: Vacuum adiabatic calorimetry
Temperature, K	Molar heat capacity at saturation pressure, J/K/mol	uncertainty
182.55	202.36	0.53
185	202.05	0.53
190	201.46	0.53
195	201.01	0.53
200	200.73	0.52
210	200.96	0.53
220	202.23	0.53
230	203.89	0.53
240	206	0.54
250	208.61	0.54
260	211.55	0.55
270	214.93	0.56
273.15	216.05	0.56
280	218.55	0.56
290	222.27	0.57
298.15	225.25	0.58
300	225.91	0.58
310	229.67	0.59
320	233.56	0.6
330	237.62	0.61
340	241.9	0.62
350	246.44	0.63

System: heptane; phases: Crystal
Fixed: Pressure, kPa = 101.325
Property: Molar enthalpy, kJ/mol (Crystal); method: Vacuum adiabatic calorimetry
Temperature, K	Molar enthalpy, kJ/mol	uncertainty
5	0.0002718	4.47e-05
10	0.0049639	0.0001324
15	0.024647	0.000451
20	0.069463	0.001148
25	0.14521	0.0023
30	0.25468	0.00404
35	0.39773	0.0062
40	0.57291	0.00336
45	0.77875	0.00439
50	1.0141	0.0056
55	1.2783	0.0069
60	1.5701	0.0083
65	1.8874	0.0099
70	2.2273	0.0115
75	2.587	0.0133
80	2.9666	0.0152
85	3.3664	0.0171
90	3.7865	0.0176
95	4.2259	0.019
100	4.6833	0.0204
105	5.1566	0.0218
110	5.6459	0.0232
115	6.1506	0.0247
120	6.6706	0.0263
125	7.2056	0.0278
130	7.7558	0.0294
135	8.321	0.0311
140	8.9015	0.0327
145	9.4964	0.0344
150	10.1062	0.0361
155	10.7307	0.0379
160	11.3696	0.0397
165	12.023	0.0415
170	12.6908	0.0433
175	13.3728	0.0452
180	14.0689	0.0471
182.55	14.4294	0.0481

System: heptane; phases: Liquid
Fixed: Pressure, kPa = 101.325
Property: Molar enthalpy, kJ/mol (Liquid); method: Vacuum adiabatic calorimetry
Temperature, K	Molar enthalpy, kJ/mol	uncertainty
182.55	28.49	0.0778
185	28.9705	0.0791
190	29.9908	0.0817
195	30.9969	0.0844
200	32.0012	0.087
210	34.0086	0.0922
220	36.0242	0.0975
230	38.0545	0.1028
240	40.1035	0.1081
250	42.1761	0.1135
260	44.2763	0.1189
270	46.4085	0.1244
273.15	47.0873	0.1262
280	48.5758	0.13
290	50.7799	0.1357
298.15	52.6036	0.1404
300	53.0209	0.1415
310	55.2986	0.1473
320	57.6146	0.1532
330	59.9704	0.1593
340	62.3678	0.1654
350	64.8092	0.1716

System: heptane; phases: Crystal
Fixed: Pressure, kPa = 101.325
Property: Molar entropy, J/K/mol (Crystal); method: Vacuum adiabatic calorimetry
Temperature, K	Molar entropy, J/K/mol	uncertainty
5	0.0725	0.0126
10	0.6537	0.0222
15	2.1934	0.0565
20	4.7322	0.1139
25	8.0858	0.189
30	12.059	0.28
35	16.456	0.379
40	21.125	0.171
45	25.967	0.205
50	30.921	0.24
55	35.952	0.276
60	41.027	0.312
65	46.104	0.348
70	51.141	0.384
75	56.102	0.42
80	61	0.455
85	65.847	0.49
90	70.648	0.37
95	75.398	0.384
100	80.09	0.398
105	84.708	0.412
110	89.259	0.426
115	93.746	0.439
120	98.172	0.453
125	102.54	0.47
130	106.85	0.48
135	111.12	0.49
140	115.34	0.51
145	119.52	0.52
150	123.66	0.53
155	127.77	0.55
160	131.85	0.56
165	135.9	0.57
170	139.94	0.59
175	143.95	0.6
180	147.95	0.61
182.55	149.98	0.62

System: heptane; phases: Liquid
Fixed: Pressure, kPa = 101.325
Property: Molar entropy, J/K/mol (Liquid); method: Vacuum adiabatic calorimetry
Temperature, K	Molar entropy, J/K/mol	uncertainty
182.55	227.09	0.88
185	229.65	0.88
190	235.1	0.9
195	240.32	0.92
200	245.41	0.94
210	255.2	0.97
220	264.58	1
230	273.6	1.03
240	282.32	1.06
250	290.78	1.09
260	299.02	1.12
270	307.07	1.15
273.15	309.57	1.16
280	314.95	1.17
290	322.68	1.2
298.15	328.89	1.22
300	330.28	1.23
310	337.75	1.25
320	345.1	1.28
330	352.35	1.3
340	359.51	1.33
350	366.58	1.35
