Measured thermophysical data. Solubility of Bromoderivatives C60Brn (n = 6, 8, 24) in 1-Chloronaphthalene and 1-Bromonaphthalene in the Temperature Range (10 to 60) deg C
Source: J. Chem. Eng. Data, 2010, 10.1021/je100224a
Compound 1: 1,3,6,11,13,18,28,31-octabromofullerene-C60, C60Br8, InChI=1S/C60Br8/c61-53-35-23-13-7-3-1-2-5-9(7)15-11(13)21-31(35)43-45-33(21)37-25(15)29-19(5)20-6(2)10-8-4(1)18-17(3)27(23)39(53)40-28(18)24-14(8)12-16(10)26-30(20)42-41(29)55(37,63)49-50-56(42,64)38(26)34-22(12)32-36(24)54(40,62)48-47(53)57(43,65)51-52(59(45,49)67)60(50,68)46(34)44(32)58(48,51)66
Compound 2: 1,3,6,8,11,13,16,18,21,23,26,28,31,33,36,38,41,44,46,49,51,54,57,60-tetracosabromo-1,3,6,8,11,13,16,18,21,23,26,28,31,33,36,38,41,44,46,49,51,54,57,60-tetracosahydro-[5,6]Fullerene-C60-Ih, C60Br24, InChI=1S/C60Br24/c61-37-1-2-39(63)7-9-48(72)16-13-43(67,28(48)25(37)39)6-4(37)41(65)3-5-42(66)11-12-47(71)10-8(40(2,64)27(47)26(42)38(1,3)62)46(7,70)31-32-50(10,74)20-22-58(32,82)21-19(49(9,31)73)54(16,78)36-35-53(13,77)15-18-55(79)17-14(44(5,68)30(55)29(41)45(6,15)69)51(11,75)33(52(12,20)76)34-56(17,80)23(57(18,35)81)24(59(22,34)83)60(21,36)84
Compound 3: 1-chloronaphthalene, C10H7Cl, InChI=1S/C10H7Cl/c11-10-7-3-5-8-4-1-2-6-9(8)10/h1-7H
Compound 4: 1-bromonaphthalene, C10H7Br, InChI=1S/C10H7Br/c11-10-7-3-5-8-4-1-2-6-9(8)10/h1-7H
Compound 5: 1,6,9,12,15,18-hexabromofullerene-C60, C60Br6, InChI=1S/C60Br6/c61-55-41-31-21-11-6-1-2-4-5-3(1)8-14-12(6)22(21)32-34-24(14)26-16(8)18-10(5)20-19-9(4)17-15-7(2)13(11)23-25(15)35-37-27(17)29(19)39-40-30(20)28(18)38-36(26)46-44(34)56(62,42(32)41)52-51(55)53-57(63,45(35)43(55)33(23)31)47(37)49(39)59(65)50(40)48(38)58(46,64)54(52)60(53,59)66

System: 1-chloronaphthalene + 1,6,9,12,15,18-hexabromofullerene-C60; phases: Liquid, Crystal
Fixed: Pressure, kPa = 101.3
Property: Mass concentration, kg/m3 (Liquid); method: Chromatography
Temperature, K	Mass concentration, kg/m3	uncertainty
283.1	10.8	1.1
293.15	11	1.1
303.15	12.1	1.2
313.15	13.4	1.3
323.15	13.8	1.4
333.15	14.5	1.5

System: 1-chloronaphthalene + 1,6,9,12,15,18-hexabromofullerene-C60; phases: Liquid, Crystal
Fixed: Pressure, kPa = 101.3
Property: Mass density, kg/m3 (Liquid); method: Pycnometric method
Temperature, K	Mass density, kg/m3	uncertainty
283.1	1120	50
293.15	1060	40
303.15	1110	40
313.15	1140	50
323.15	1160	50
333.15	1200	50

System: 1-chloronaphthalene + 1,3,6,11,13,18,28,31-octabromofullerene-C60; phases: Liquid, Crystal
Fixed: Pressure, kPa = 101.3
Property: Mass concentration, kg/m3 (Liquid); method: Chromatography
Temperature, K	Mass concentration, kg/m3	uncertainty
283.1	3.1	0.3
293.15	3.5	0.4
303.15	5.6	0.6
313.15	7.4	0.7
323.15	9	0.9
333.15	12.4	1.2

System: 1-chloronaphthalene + 1,3,6,11,13,18,28,31-octabromofullerene-C60; phases: Liquid, Crystal
Fixed: Pressure, kPa = 101.3
Property: Mass density, kg/m3 (Liquid); method: Pycnometric method
Temperature, K	Mass density, kg/m3	uncertainty
283.1	1100	40
293.15	1030	40
303.15	1030	40
313.15	1050	40
323.15	1090	40
333.15	1110	40

System: 1-chloronaphthalene + 1,3,6,8,11,13,16,18,21,23,26,28,31,33,36,38,41,44,46,49,51,54,57,60-tetracosabromo-1,3,6,8,11,13,16,18,21,23,26,28,31,33,36,38,41,44,46,49,51,54,57,60-tetracosahydro-[5,6]Fullerene-C60-Ih; phases: Liquid, Crystal
Fixed: Pressure, kPa = 101.3
Property: Mass concentration, kg/m3 (Liquid); method: Chromatography
Temperature, K	Mass concentration, kg/m3	uncertainty
283.1	0.85	0.09
293.15	2.4	0.2
303.15	3.1	0.3
313.15	3.2	0.3
323.15	3.4	0.3
333.15	3.5	0.4

System: 1-chloronaphthalene + 1,3,6,8,11,13,16,18,21,23,26,28,31,33,36,38,41,44,46,49,51,54,57,60-tetracosabromo-1,3,6,8,11,13,16,18,21,23,26,28,31,33,36,38,41,44,46,49,51,54,57,60-tetracosahydro-[5,6]Fullerene-C60-Ih; phases: Liquid, Crystal
Fixed: Pressure, kPa = 101.3
Property: Mass density, kg/m3 (Liquid); method: Pycnometric method
Temperature, K	Mass density, kg/m3	uncertainty
283.1	1060	40
293.15	1050	40
303.15	1050	40
313.15	1050	40
323.15	1050	40
333.15	1040	40

System: 1-bromonaphthalene + 1,6,9,12,15,18-hexabromofullerene-C60; phases: Liquid, Crystal
Fixed: Pressure, kPa = 101.3
Property: Mass concentration, kg/m3 (Liquid); method: Chromatography
Temperature, K	Mass concentration, kg/m3	uncertainty
283.1	4.4	0.4
293.15	6.7	0.7
303.15	10.3	1
313.15	17	1.7
323.15	23.5	2.4
333.15	31.7	3.2

System: 1-bromonaphthalene + 1,6,9,12,15,18-hexabromofullerene-C60; phases: Liquid, Crystal
Fixed: Pressure, kPa = 101.3
Property: Mass density, kg/m3 (Liquid); method: Pycnometric method
Temperature, K	Mass density, kg/m3	uncertainty
283.1	1290	50
293.15	1270	50
303.15	1240	50
313.15	1280	50
323.15	1300	50
333.15	1330	50

System: 1-bromonaphthalene + 1,3,6,11,13,18,28,31-octabromofullerene-C60; phases: Liquid, Crystal
Fixed: Pressure, kPa = 101.3
Property: Mass concentration, kg/m3 (Liquid); method: Chromatography
Temperature, K	Mass concentration, kg/m3	uncertainty
283.1	1.9	0.6
293.15	2.4	0.6
303.15	2.5	0.6
313.15	6.2	0.6
323.15	6.9	0.7
333.15	7.3	0.7

System: 1-bromonaphthalene + 1,3,6,11,13,18,28,31-octabromofullerene-C60; phases: Liquid, Crystal
Fixed: Pressure, kPa = 101.3
Property: Mass density, kg/m3 (Liquid); method: Pycnometric method
Temperature, K	Mass density, kg/m3	uncertainty
283.1	1270	50
293.15	1240	50
303.15	1270	50
313.15	1290	50
323.15	1310	50
333.15	1330	50

System: 1-bromonaphthalene + 1,3,6,8,11,13,16,18,21,23,26,28,31,33,36,38,41,44,46,49,51,54,57,60-tetracosabromo-1,3,6,8,11,13,16,18,21,23,26,28,31,33,36,38,41,44,46,49,51,54,57,60-tetracosahydro-[5,6]Fullerene-C60-Ih; phases: Liquid, Crystal
Fixed: Pressure, kPa = 101.3
Property: Mass concentration, kg/m3 (Liquid); method: Chromatography
Temperature, K	Mass concentration, kg/m3	uncertainty
283.1	1.9	0.2
293.15	5.1	0.5
303.15	7.6	0.8
313.15	12.1	1.2
323.15	16.1	1.6
333.15	21.9	2.2

System: 1-bromonaphthalene + 1,3,6,8,11,13,16,18,21,23,26,28,31,33,36,38,41,44,46,49,51,54,57,60-tetracosabromo-1,3,6,8,11,13,16,18,21,23,26,28,31,33,36,38,41,44,46,49,51,54,57,60-tetracosahydro-[5,6]Fullerene-C60-Ih; phases: Liquid, Crystal
Fixed: Pressure, kPa = 101.3
Property: Mass density, kg/m3 (Liquid); method: Pycnometric method
Temperature, K	Mass density, kg/m3	uncertainty
283.1	1300	50
293.15	1280	50
303.15	1280	50
313.15	1290	50
323.15	1310	50
333.15	1330	50
