Measured thermophysical data. Isobaric Vapor-Liquid Equilibria for Binary and Ternary Mixtures of Methanol, Ethanoic Acid, and Propanoic Acid
Source: J. Chem. Eng. Data, 2010, 10.1021/je1000473
Compound 1: methanol, CH4O, InChI=1S/CH4O/c1-2/h2H,1H3
Compound 2: acetic acid, C2H4O2, InChI=1S/C2H4O2/c1-2(3)4/h1H3,(H,3,4)
Compound 3: propanoic acid, C3H6O2, InChI=1S/C3H6O2/c1-2-3(4)5/h2H2,1H3,(H,4,5)

System: methanol; phases: Liquid
Property: Refractive index (Na D-line) (Liquid); method: Standard Abbe refractometry
Temperature, K	Pressure, kPa	Refractive index (Na D-line)	uncertainty
298.15	101.325	1.3263	0.0004

System: methanol; phases: Liquid
Property: Mass density, kg/m3 (Liquid); method: Pycnometric method
Temperature, K	Pressure, kPa	Mass density, kg/m3	uncertainty
298.15	101.325	786.54	0.19

System: acetic acid; phases: Liquid
Property: Refractive index (Na D-line) (Liquid); method: Standard Abbe refractometry
Temperature, K	Pressure, kPa	Refractive index (Na D-line)	uncertainty
298.15	101.325	1.3716	0.0004

System: acetic acid; phases: Liquid
Property: Mass density, kg/m3 (Liquid); method: Pycnometric method
Temperature, K	Pressure, kPa	Mass density, kg/m3	uncertainty
298.15	101.325	1049.42	0.28

System: propanoic acid; phases: Liquid
Property: Refractive index (Na D-line) (Liquid); method: Standard Abbe refractometry
Temperature, K	Pressure, kPa	Refractive index (Na D-line)	uncertainty
298.15	101.325	1.3861	0.0004

System: propanoic acid; phases: Liquid
Property: Mass density, kg/m3 (Liquid); method: Pycnometric method
Temperature, K	Pressure, kPa	Mass density, kg/m3	uncertainty
298.15	101.325	993.56	0.26

System: acetic acid + methanol; phases: Liquid, Gas
Fixed: Pressure, kPa = 101
Property: Boiling temperature at pressure P, K (Liquid); method: EBULLIO:UFactor:8
Mole fraction of methanol	Boiling temperature at pressure P, K	uncertainty
0	390.15	0.68
0.0361	385.66	0.69
0.0408	385.4	0.69
0.065	382.2	0.73
0.0739	380.8	0.71
0.0862	380.1	0.7
0.1035	378.36	0.72
0.1272	375.4	0.71
0.1626	372.86	0.7
0.192	369.88	0.69
0.2505	366.8	0.69
0.339	361	0.69
0.44	356.33	0.69
0.5833	350.1	0.69
0.7043	346.2	0.68
0.7511	344.6	0.68
0.8106	342.55	0.68
0.8704	341.6	0.68
0.9156	340.48	0.68
1	338.15	0.68

System: methanol + propanoic acid; phases: Liquid, Gas
Fixed: Pressure, kPa = 101
Property: Boiling temperature at pressure P, K (Liquid); method: EBULLIO:UFactor:8
Mole fraction of methanol	Boiling temperature at pressure P, K	uncertainty
0	414.15	0.68
0.0763	395.38	0.79
0.087	393.26	0.79
0.1462	384.54	0.74
0.1714	380.84	0.74
0.186	378.82	0.72
0.1979	377.71	0.7
0.2237	375.5	0.7
0.3522	364.59	0.7
0.4068	360.88	0.7
0.4522	357.54	0.69
0.5095	355.31	0.69
0.5372	353.08	0.69
0.5729	352.43	0.68
0.6325	349.97	0.69
0.7321	345.08	0.69
0.7911	342.98	0.68
0.8586	340.98	0.68
0.9279	338.87	0.68
1	337.07	0.68

System: acetic acid + propanoic acid; phases: Liquid, Gas
Fixed: Pressure, kPa = 101
Property: Boiling temperature at pressure P, K (Liquid); method: EBULLIO:UFactor:4
Mole fraction of acetic acid	Boiling temperature at pressure P, K	uncertainty
0	414.15	0.37
0.099	410.46	0.37
0.1086	410.18	0.37
0.1192	409.95	0.37
0.1624	409.17	0.37
0.2125	407.64	0.37
0.2437	406.83	0.37
0.2548	406.71	0.37
0.2745	405.97	0.38
0.2943	405.32	0.37
0.3162	404.68	0.37
0.3433	404.08	0.37
0.3823	403.25	0.37
0.4362	401.9	0.37
0.4686	401.09	0.37
0.5057	400.29	0.37
0.5802	398.55	0.37
0.6722	396.75	0.37
0.7726	394.95	0.37
0.8725	392.75	0.37
1	390.39	0.37

System: acetic acid + methanol + propanoic acid; phases: Liquid, Gas
Fixed: Pressure, kPa = 101
Property: Boiling temperature at pressure P, K (Liquid); method: EBULLIO:UFactor:8
Mole fraction of methanol	Mole fraction of acetic acid	Boiling temperature at pressure P, K	uncertainty
0.0521	0.0224	398.72	0.77
0.0703	0.0302	395.79	0.75
0.1065	0.015	388.95	0.73
0.1161	0.0165	387.65	0.71
0.1333	0.0189	386.33	0.75
0.1564	0.0222	381.4	0.81
0.1649	0.7999	371.9	0.7
0.1968	0.7587	369.3	0.71
0.2264	0.7224	366.88	0.71
0.2291	0.0392	373.09	0.69
0.2609	0.0446	371.42	0.69
0.2671	0.6725	366.17	0.69
0.3037	0.052	368.56	0.7
0.3234	0.6278	362.66	0.76
0.3551	0.0575	363.93	0.69
0.3648	0.5802	361.55	0.69
0.3931	0.0637	363.02	0.69
0.4178	0.5192	358.73	0.69
0.4787	0.0658	357.19	0.69
0.4884	0.4379	354.32	0.68
0.5268	0.0724	354.98	0.69
0.558	0.3682	352.61	0.68
0.5862	0.0806	351.97	0.69
0.6176	0.3008	350.4	0.7
0.6606	0.0908	348.81	0.69
0.692	0.2165	347.39	0.68
0.7029	0.1743	347.04	0.68
0.7285	0.0766	346.2	0.69
0.7592	0.1082	344.99	0.69
0.7707	0.0811	344.8	0.68
0.8323	0.0875	342.88	0.68
0.8513	0	341.78	0.69
0.9048	0.0952	340.18	0.69
