Measured thermophysical data. Experimental Determination of Densities and Refractive Indices of the Ternary Mixture 2-Methyl-2-propanol + Cyclohexylamine + n-Heptane at T = (303.15 to 323.15) K
Source: J. Chem. Eng. Data, 2011, 10.1021/je100484n
Compound 1: 2-methylpropan-2-ol, C4H10O, InChI=1S/C4H10O/c1-4(2,3)5/h5H,1-3H3, purity 99.7%
Compound 2: heptane, C7H16, InChI=1S/C7H16/c1-3-5-7-6-4-2/h3-7H2,1-2H3, purity 99.5%
Compound 3: cyclohexylamine, C6H13N, InChI=1S/C6H13N/c7-6-4-2-1-3-5-6/h6H,1-5,7H2

System: 2-methylpropan-2-ol; phases: Liquid
Fixed: Pressure, kPa = 101.325
Property: Refractive index (Na D-line) (Liquid); method: ABBE::UFactor:2
Temperature, K	Refractive index (Na D-line)	uncertainty
303.15	1.38222	0.00062
308.15	1.37947	0.00062
313.15	1.37667	0.00062
318.15	1.37384	0.00062
323.15	1.37097	0.00062

System: 2-methylpropan-2-ol; phases: Liquid
Fixed: Pressure, kPa = 101
Property: Mass density, kg/m3 (Liquid); method: VIBTUB:UFactor:4
Temperature, K	Mass density, kg/m3	uncertainty
303.15	775.412	0.49
308.15	770.193	0.498
313.15	764.884	0.506
318.15	759.488	0.515
323.15	754.015	0.523

System: heptane; phases: Liquid
Fixed: Pressure, kPa = 101.325
Property: Refractive index (Na D-line) (Liquid); method: ABBE::UFactor:2
Temperature, K	Refractive index (Na D-line)	uncertainty
303.15	1.38259	0.00063
308.15	1.37995	0.00063
313.15	1.37731	0.00063
318.15	1.37463	0.00063
323.15	1.37197	0.00063

System: heptane; phases: Liquid
Fixed: Pressure, kPa = 101
Property: Mass density, kg/m3 (Liquid); method: VIBTUB:UFactor:4
Temperature, K	Mass density, kg/m3	uncertainty
303.15	675.229	0.656
308.15	670.941	0.663
313.15	666.621	0.669
318.15	662.273	0.676
323.15	657.896	0.682

System: cyclohexylamine; phases: Liquid
Fixed: Pressure, kPa = 101.325
Property: Refractive index (Na D-line) (Liquid); method: ABBE:UFactor:2
Temperature, K	Refractive index (Na D-line)	uncertainty
303.15	1.45375	0.00065
308.15	1.45114	0.00065
313.15	1.44856	0.00065
318.15	1.44599	0.00065
323.15	1.44336	0.00065

System: 2-methylpropan-2-ol + heptane; phases: Liquid
Fixed: Pressure, kPa = 101
Property: Refractive index (Na D-line) (Liquid); method: ABBE:UFactor:2
Temperature, K	Mole fraction of 2-methylpropan-2-ol	Refractive index (Na D-line)	uncertainty
303.15	0	1.38259	0.00063
303.15	0.1006	1.3814	0.00063
303.15	0.1502	1.38092	0.00063
303.15	0.2	1.38051	0.00063
303.15	0.3	1.37984	0.00063
303.15	0.4	1.37936	0.00063
303.15	0.4998	1.37907	0.00063
303.15	0.6	1.37899	0.00063
303.15	0.7	1.37917	0.00062
303.15	0.7998	1.37969	0.00062
303.15	0.8479	1.38009	0.00062
303.15	0.8998	1.38066	0.00062
303.15	0.9499	1.38136	0.00062
303.15	1	1.38222	0.00062
308.15	0	1.37995	0.00063
308.15	0.1006	1.37865	0.00063
308.15	0.1502	1.37816	0.00063
308.15	0.2	1.37775	0.00063
308.15	0.3	1.37711	0.00063
308.15	0.4	1.37667	0.00063
308.15	0.4998	1.37641	0.00063
308.15	0.6	1.37633	0.00063
308.15	0.7	1.37649	0.00062
308.15	0.7998	1.37697	0.00062
308.15	0.8479	1.37735	0.00062
308.15	0.8998	1.37791	0.00062
308.15	0.9499	1.3786	0.00062
308.15	1	1.37947	0.00062
313.15	0	1.37731	0.00063
313.15	0.1006	1.37591	0.00063
313.15	0.1502	1.37539	0.00063
313.15	0.2	1.37496	0.00063
313.15	0.3	1.37431	0.00063
313.15	0.4	1.37387	0.00063
313.15	0.4998	1.3736	0.00063
313.15	0.6	1.3735	0.00063
313.15	0.7	1.37364	0.00062
313.15	0.7998	1.37411	0.00062
313.15	0.8479	1.37449	0.00062
313.15	0.8998	1.37505	0.00062
313.15	0.9499	1.37577	0.00062
313.15	1	1.37667	0.00062
318.15	0	1.37463	0.00063
318.15	0.1006	1.37312	0.00063
318.15	0.1502	1.37258	0.00063
318.15	0.2	1.37213	0.00063
318.15	0.3	1.37149	0.00063
318.15	0.4	1.37108	0.00063
318.15	0.4998	1.37085	0.00063
318.15	0.6	1.37079	0.00063
318.15	0.7	1.37094	0.00062
318.15	0.7998	1.37139	0.00062
318.15	0.8479	1.37175	0.00062
318.15	0.8998	1.37229	0.00062
318.15	0.9499	1.37297	0.00062
318.15	1	1.37384	0.00062
323.15	0	1.37197	0.00063
323.15	0.1006	1.37031	0.00063
323.15	0.1502	1.36973	0.00063
323.15	0.2	1.36928	0.00063
323.15	0.3	1.36865	0.00063
323.15	0.4	1.36828	0.00063
323.15	0.4998	1.36807	0.00063
323.15	0.6	1.36801	0.00063
323.15	0.7	1.36814	0.00062
323.15	0.7998	1.36855	0.00062
323.15	0.8479	1.36889	0.00062
323.15	0.8998	1.36942	0.00062
323.15	0.9499	1.37009	0.00062
323.15	1	1.37097	0.00062

System: 2-methylpropan-2-ol + heptane; phases: Liquid
Fixed: Pressure, kPa = 101
Property: Mass density, kg/m3 (Liquid); method: VIBTUB:UFactor:4
Temperature, K	Mole fraction of 2-methylpropan-2-ol	Mass density, kg/m3	uncertainty
303.15	0	675.229	0.656
303.15	0.1006	679.898	0.648
303.15	0.1502	682.8	0.643
303.15	0.2	685.899	0.638
303.15	0.3	692.705	0.626
303.15	0.4	700.298	0.613
303.15	0.4998	708.705	0.599
303.15	0.6	718.327	0.583
303.15	0.7	729.448	0.565
303.15	0.7998	742.308	0.544
303.15	0.8479	749.34	0.533
303.15	0.8998	757.564	0.52
303.15	0.9499	766.164	0.506
303.15	1	775.412	0.49
308.15	0	670.941	0.663
308.15	0.1006	675.406	0.655
308.15	0.1502	678.262	0.65
308.15	0.2	681.327	0.644
308.15	0.3	688.078	0.633
308.15	0.4	695.628	0.62
308.15	0.4998	703.995	0.606
308.15	0.6	713.568	0.59
308.15	0.7	724.603	0.572
308.15	0.7998	737.338	0.551
308.15	0.8479	744.297	0.54
308.15	0.8998	752.448	0.527
308.15	0.9499	760.994	0.514
308.15	1	770.193	0.498
313.15	0	666.621	0.669
313.15	0.1006	670.867	0.662
313.15	0.1502	673.669	0.657
313.15	0.2	676.692	0.651
313.15	0.3	683.382	0.64
313.15	0.4	690.882	0.627
313.15	0.4998	699.207	0.613
313.15	0.6	708.726	0.597
313.15	0.7	719.685	0.579
313.15	0.7998	732.305	0.559
313.15	0.8479	739.195	0.548
313.15	0.8998	747.271	0.535
313.15	0.9499	755.749	0.522
313.15	1	764.884	0.506
318.15	0	662.273	0.676
318.15	0.1006	666.278	0.669
318.15	0.1502	669.017	0.664
318.15	0.2	671.995	0.658
318.15	0.3	678.612	0.647
318.15	0.4	686.056	0.634
318.15	0.4998	694.329	0.62
318.15	0.6	703.799	0.605
318.15	0.7	714.683	0.587
318.15	0.7998	727.201	0.567
318.15	0.8479	734.015	0.556
318.15	0.8998	742.022	0.543
318.15	0.9499	750.424	0.53
318.15	1	759.488	0.515
323.15	0	657.896	0.682
323.15	0.1006	661.645	0.675
323.15	0.1502	664.315	0.671
323.15	0.2	667.235	0.666
323.15	0.3	673.771	0.654
323.15	0.4	681.144	0.642
323.15	0.4998	689.366	0.628
323.15	0.6	698.776	0.612
323.15	0.7	709.587	0.594
323.15	0.7998	721.991	0.574
323.15	0.8479	728.76	0.564
323.15	0.8998	736.693	0.551
323.15	0.9499	745.02	0.538
323.15	1	754.015	0.523

System: 2-methylpropan-2-ol + cyclohexylamine; phases: Liquid
Fixed: Pressure, kPa = 101
Property: Refractive index (Na D-line) (Liquid); method: ABBE:UFactor:2
Temperature, K	Mole fraction of 2-methylpropan-2-ol	Refractive index (Na D-line)	uncertainty
303.15	0	1.45375	0.00065
303.15	0.0508	1.45149	0.00065
303.15	0.1002	1.44914	0.00065
303.15	0.1502	1.44664	0.00065
303.15	0.2001	1.44406	0.00064
303.15	0.3005	1.43846	0.00064
303.15	0.3991	1.4325	0.00064
303.15	0.4996	1.42579	0.00063
303.15	0.5998	1.41855	0.00063
303.15	0.6997	1.41063	0.00063
303.15	0.7999	1.40191	0.00063
303.15	0.8712	1.39554	0.00063
303.15	0.8992	1.39261	0.00063
303.15	0.9504	1.38751	0.00062
303.15	1	1.38222	0.00062
308.15	0	1.45114	0.00065
308.15	0.0508	1.44888	0.00065
308.15	0.1002	1.44655	0.00065
308.15	0.1502	1.44404	0.00065
308.15	0.2001	1.44146	0.00064
308.15	0.3005	1.43586	0.00064
308.15	0.3991	1.42991	0.00064
308.15	0.4996	1.42321	0.00063
308.15	0.5998	1.41598	0.00063
308.15	0.6997	1.40805	0.00063
308.15	0.7999	1.39934	0.00063
308.15	0.8712	1.39281	0.00063
308.15	0.8992	1.38996	0.00063
308.15	0.9504	1.3848	0.00062
308.15	1	1.37947	0.00062
313.15	0	1.44856	0.00065
313.15	0.0508	1.44629	0.00065
313.15	0.1002	1.44395	0.00065
313.15	0.1502	1.44142	0.00065
313.15	0.2001	1.43888	0.00064
313.15	0.3005	1.43328	0.00064
313.15	0.3991	1.42732	0.00064
313.15	0.4996	1.42064	0.00063
313.15	0.5998	1.41339	0.00063
313.15	0.6997	1.40544	0.00063
313.15	0.7999	1.39676	0.00063
313.15	0.8712	1.39012	0.00063
313.15	0.8992	1.38723	0.00063
313.15	0.9504	1.38207	0.00062
313.15	1	1.37667	0.00062
318.15	0	1.44599	0.00065
318.15	0.0508	1.44368	0.00065
318.15	0.1002	1.44132	0.00065
318.15	0.1502	1.43884	0.00065
318.15	0.2001	1.4363	0.00064
318.15	0.3005	1.43068	0.00064
318.15	0.3991	1.42471	0.00064
318.15	0.4996	1.41804	0.00063
318.15	0.5998	1.41077	0.00063
318.15	0.6997	1.40284	0.00063
318.15	0.7999	1.39405	0.00063
318.15	0.8712	1.38734	0.00063
318.15	0.8992	1.3845	0.00063
318.15	0.9504	1.37923	0.00062
318.15	1	1.37384	0.00062
323.15	0	1.44336	0.00065
323.15	0.0508	1.44108	0.00065
323.15	0.1002	1.43876	0.00065
323.15	0.1502	1.43629	0.00065
323.15	0.2001	1.43371	0.00064
323.15	0.3005	1.42812	0.00064
323.15	0.3991	1.42218	0.00064
323.15	0.4996	1.41553	0.00063
323.15	0.5998	1.40818	0.00063
323.15	0.6997	1.40018	0.00063
323.15	0.7999	1.3914	0.00063
323.15	0.8712	1.38459	0.00063
323.15	0.8992	1.38176	0.00063
323.15	0.9504	1.37642	0.00062
323.15	1	1.37097	0.00062

System: cyclohexylamine + heptane; phases: Liquid
Fixed: Pressure, kPa = 101
Property: Refractive index (Na D-line) (Liquid); method: ABBE:UFactor:2
Temperature, K	Mole fraction of cyclohexylamine	Refractive index (Na D-line)	uncertainty
303.15	0	1.38259	0.00063
303.15	0.0501	1.38508	0.00063
303.15	0.1002	1.38768	0.00063
303.15	0.1501	1.39038	0.00063
303.15	0.2305	1.39503	0.00063
303.15	0.3004	1.3993	0.00063
303.15	0.401	1.40584	0.00064
303.15	0.4497	1.40915	0.00064
303.15	0.5597	1.41708	0.00064
303.15	0.6001	1.42001	0.00064
303.15	0.6498	1.4238	0.00064
303.15	0.6994	1.42771	0.00064
303.15	0.7999	1.43588	0.00065
303.15	0.8992	1.44452	0.00065
303.15	1	1.45375	0.00065
308.15	0	1.37995	0.00063
308.15	0.0501	1.38246	0.00063
308.15	0.1002	1.38507	0.00063
308.15	0.1501	1.38778	0.00063
308.15	0.2305	1.39245	0.00063
308.15	0.3004	1.39673	0.00063
308.15	0.401	1.40324	0.00064
308.15	0.4497	1.40655	0.00064
308.15	0.5597	1.41446	0.00064
308.15	0.6001	1.41739	0.00064
308.15	0.6498	1.4212	0.00064
308.15	0.6994	1.4251	0.00064
308.15	0.7999	1.43327	0.00065
308.15	0.8992	1.44189	0.00065
308.15	1	1.45114	0.00065
313.15	0	1.37731	0.00063
313.15	0.0501	1.37983	0.00063
313.15	0.1002	1.38246	0.00063
313.15	0.1501	1.38516	0.00063
313.15	0.2305	1.38984	0.00063
313.15	0.3004	1.3941	0.00063
313.15	0.401	1.40059	0.00064
313.15	0.4497	1.40392	0.00064
313.15	0.5597	1.41182	0.00064
313.15	0.6001	1.41478	0.00064
313.15	0.6498	1.41859	0.00064
313.15	0.6994	1.42248	0.00064
313.15	0.7999	1.43065	0.00065
313.15	0.8992	1.43928	0.00065
313.15	1	1.44856	0.00065
318.15	0	1.37463	0.00063
318.15	0.0501	1.37719	0.00063
318.15	0.1002	1.37983	0.00063
318.15	0.1501	1.38255	0.00063
318.15	0.2305	1.38719	0.00063
318.15	0.3004	1.39149	0.00063
318.15	0.401	1.39797	0.00064
318.15	0.4497	1.40129	0.00064
318.15	0.5597	1.40915	0.00064
318.15	0.6001	1.41215	0.00064
318.15	0.6498	1.41595	0.00064
318.15	0.6994	1.41981	0.00064
318.15	0.7999	1.428	0.00065
318.15	0.8992	1.43667	0.00065
318.15	1	1.44599	0.00065
323.15	0	1.37197	0.00063
323.15	0.0501	1.37451	0.00063
323.15	0.1002	1.37717	0.00063
323.15	0.1501	1.37991	0.00063
323.15	0.2305	1.38449	0.00063
323.15	0.3004	1.38874	0.00063
323.15	0.401	1.39527	0.00064
323.15	0.4497	1.39851	0.00064
323.15	0.5597	1.40647	0.00064
323.15	0.6001	1.40951	0.00064
323.15	0.6498	1.41327	0.00064
323.15	0.6994	1.41719	0.00064
323.15	0.7999	1.42528	0.00065
323.15	0.8992	1.43405	0.00065
323.15	1	1.44336	0.00065

System: 2-methylpropan-2-ol + cyclohexylamine + heptane; phases: Liquid
Fixed: Pressure, kPa = 101
Property: Refractive index (Na D-line) (Liquid); method: ABBE:UFactor:2
Temperature, K	Mole fraction of 2-methylpropan-2-ol	Mole fraction of cyclohexylamine	Refractive index (Na D-line)	uncertainty
303.15	0.0201	0.7999	1.43653	0.00065
303.15	0.0201	0.8998	1.44541	0.00065
303.15	0.0302	0.6999	1.42854	0.00064
303.15	0.0399	0.8001	1.43731	0.00065
303.15	0.04	0.9004	1.44644	0.00065
303.15	0.0407	0.5995	1.42093	0.00064
303.15	0.0505	0.4998	1.41374	0.00064
303.15	0.0598	0.3999	1.40677	0.00064
303.15	0.06	0.7	1.42962	0.00064
303.15	0.06	0.9001	1.44731	0.00065
303.15	0.0701	0.3001	1.40014	0.00063
303.15	0.0799	0.6001	1.42217	0.00064
303.15	0.0799	0.9	1.4482	0.00065
303.15	0.0801	0.2008	1.39395	0.00063
303.15	0.0804	0.7997	1.43881	0.00065
303.15	0.0922	0.0998	1.38792	0.00063
303.15	0.1003	0.4999	1.41496	0.00064
303.15	0.1199	0.4	1.40785	0.00064
303.15	0.1199	0.7	1.43165	0.00064
303.15	0.1199	0.8001	1.44068	0.00065
303.15	0.1397	0.2997	1.40104	0.00063
303.15	0.1599	0.2	1.39456	0.00063
303.15	0.16	0.5998	1.42448	0.00064
303.15	0.1603	0.7996	1.44222	0.00064
303.15	0.1799	0.7002	1.4339	0.00064
303.15	0.18	0.1	1.38774	0.00063
303.15	0.1801	0.8	1.44311	0.00064
303.15	0.2	0.5001	1.41736	0.00064
303.15	0.24	0.3999	1.41008	0.00063
303.15	0.24	0.5999	1.42704	0.00064
303.15	0.2402	0.6998	1.4361	0.00064
303.15	0.2699	0.7002	1.43728	0.00064
303.15	0.2803	0.3002	1.40295	0.00063
303.15	0.3003	0.4997	1.41983	0.00064
303.15	0.32	0.2001	1.39602	0.00063
303.15	0.32	0.5998	1.42935	0.00064
303.15	0.36	0.3999	1.41251	0.00063
303.15	0.3601	0.5999	1.43092	0.00064
303.15	0.3608	0.0993	1.3885	0.00063
303.15	0.3999	0.4999	1.42257	0.00064
303.15	0.42	0.3	1.40491	0.00063
303.15	0.4497	0.4999	1.42419	0.00063
303.15	0.4792	0.2003	1.39706	0.00063
303.15	0.4798	0.4001	1.41522	0.00063
303.15	0.5401	0.1	1.3888	0.00063
303.15	0.5401	0.3998	1.41678	0.00063
303.15	0.5601	0.2999	1.40736	0.00063
303.15	0.6301	0.2999	1.40888	0.00063
303.15	0.6401	0.1999	1.39889	0.00063
303.15	0.7194	0.1	1.39004	0.00063
303.15	0.7202	0.1999	1.40038	0.00063
303.15	0.8101	0.1	1.39121	0.00063
308.15	0.0201	0.7999	1.43391	0.00065
308.15	0.0201	0.8998	1.44199	0.00065
308.15	0.0302	0.6999	1.42594	0.00064
308.15	0.0399	0.8001	1.43489	0.00065
308.15	0.04	0.9004	1.44373	0.00065
308.15	0.0407	0.5995	1.41832	0.00064
308.15	0.0505	0.4998	1.41111	0.00064
308.15	0.0598	0.3999	1.40415	0.00064
308.15	0.06	0.7	1.42699	0.00064
308.15	0.06	0.9001	1.4447	0.00065
308.15	0.0701	0.3001	1.39749	0.00063
308.15	0.0799	0.6001	1.41952	0.00064
308.15	0.0799	0.9	1.44558	0.00065
308.15	0.0801	0.2008	1.39131	0.00063
308.15	0.0804	0.7997	1.43623	0.00065
308.15	0.0922	0.0998	1.3852	0.00063
308.15	0.1003	0.4999	1.41231	0.00064
308.15	0.1199	0.4	1.40521	0.00064
308.15	0.1199	0.7	1.42912	0.00064
308.15	0.1199	0.8001	1.43805	0.00065
308.15	0.1397	0.2997	1.39835	0.00063
308.15	0.1599	0.2	1.39185	0.00063
308.15	0.16	0.5998	1.42186	0.00064
308.15	0.1603	0.7996	1.43962	0.00064
308.15	0.1799	0.7002	1.43127	0.00064
308.15	0.18	0.1	1.38498	0.00063
308.15	0.1801	0.8	1.44053	0.00064
308.15	0.2	0.5001	1.41474	0.00064
308.15	0.24	0.3999	1.40743	0.00063
308.15	0.24	0.5999	1.42439	0.00064
308.15	0.2402	0.6998	1.43345	0.00064
308.15	0.2699	0.7002	1.43469	0.00064
308.15	0.2803	0.3002	1.40026	0.00063
308.15	0.3003	0.4997	1.41718	0.00064
308.15	0.32	0.2001	1.39334	0.00063
308.15	0.32	0.5998	1.42679	0.00064
308.15	0.36	0.3999	1.40995	0.00063
308.15	0.3601	0.5999	1.42831	0.00064
308.15	0.3608	0.0993	1.38586	0.00063
308.15	0.3999	0.4999	1.41994	0.00064
308.15	0.42	0.3	1.40227	0.00063
308.15	0.4497	0.4999	1.42161	0.00063
308.15	0.4792	0.2003	1.39433	0.00063
308.15	0.4798	0.4001	1.4126	0.00063
308.15	0.5401	0.1	1.38611	0.00063
308.15	0.5401	0.3998	1.41419	0.00063
308.15	0.5601	0.2999	1.40474	0.00063
308.15	0.6301	0.2999	1.40627	0.00063
308.15	0.6401	0.1999	1.39625	0.00063
308.15	0.7194	0.1	1.38733	0.00063
308.15	0.7202	0.1999	1.39784	0.00063
308.15	0.8101	0.1	1.38848	0.00063
313.15	0.0201	0.7999	1.4313	0.00065
313.15	0.0201	0.8998	1.44021	0.00065
313.15	0.0302	0.6999	1.42331	0.00064
313.15	0.0399	0.8001	1.43209	0.00065
313.15	0.04	0.9004	1.44114	0.00065
313.15	0.0407	0.5995	1.41569	0.00064
313.15	0.0505	0.4998	1.40846	0.00064
313.15	0.0598	0.3999	1.4015	0.00064
313.15	0.06	0.7	1.42436	0.00064
313.15	0.06	0.9001	1.4421	0.00065
313.15	0.0701	0.3001	1.39481	0.00063
313.15	0.0799	0.6001	1.41687	0.00064
313.15	0.0799	0.9	1.44298	0.00065
313.15	0.0801	0.2008	1.38856	0.00063
313.15	0.0804	0.7997	1.43363	0.00065
313.15	0.0922	0.0998	1.38244	0.00063
313.15	0.1003	0.4999	1.40964	0.00064
313.15	0.1199	0.4	1.40254	0.00064
313.15	0.1199	0.7	1.42651	0.00064
313.15	0.1199	0.8001	1.43534	0.00065
313.15	0.1397	0.2997	1.39565	0.00063
313.15	0.1599	0.2	1.38909	0.00063
313.15	0.16	0.5998	1.41923	0.00064
313.15	0.1603	0.7996	1.43702	0.00064
313.15	0.1799	0.7002	1.42864	0.00064
313.15	0.18	0.1	1.38232	0.00063
313.15	0.1801	0.8	1.43793	0.00064
313.15	0.2	0.5001	1.41208	0.00064
313.15	0.24	0.3999	1.40475	0.00063
313.15	0.24	0.5999	1.42175	0.00064
313.15	0.2402	0.6998	1.43082	0.00064
313.15	0.2699	0.7002	1.43208	0.00064
313.15	0.2803	0.3002	1.39757	0.00063
313.15	0.3003	0.4997	1.41462	0.00064
313.15	0.32	0.2001	1.39057	0.00063
313.15	0.32	0.5998	1.42414	0.00064
313.15	0.36	0.3999	1.40727	0.00063
313.15	0.3601	0.5999	1.42569	0.00064
313.15	0.3608	0.0993	1.38298	0.00063
313.15	0.3999	0.4999	1.41732	0.00064
313.15	0.42	0.3	1.39959	0.00063
313.15	0.4497	0.4999	1.41899	0.00063
313.15	0.4792	0.2003	1.39163	0.00063
313.15	0.4798	0.4001	1.40998	0.00063
313.15	0.5401	0.1	1.38319	0.00063
313.15	0.5401	0.3998	1.41156	0.00063
313.15	0.5601	0.2999	1.4021	0.00063
313.15	0.6301	0.2999	1.40365	0.00063
313.15	0.6401	0.1999	1.39356	0.00063
313.15	0.7194	0.1	1.38458	0.00063
313.15	0.7202	0.1999	1.39508	0.00063
313.15	0.8101	0.1	1.38572	0.00063
318.15	0.0201	0.7999	1.42868	0.00065
318.15	0.0201	0.8998	1.43762	0.00065
318.15	0.0302	0.6999	1.42068	0.00064
318.15	0.0399	0.8001	1.42949	0.00065
318.15	0.04	0.9004	1.43855	0.00065
318.15	0.0407	0.5995	1.41302	0.00064
318.15	0.0505	0.4998	1.40578	0.00064
318.15	0.0598	0.3999	1.39883	0.00064
318.15	0.06	0.7	1.4217	0.00064
318.15	0.06	0.9001	1.43941	0.00065
318.15	0.0701	0.3001	1.39214	0.00063
318.15	0.0799	0.6001	1.41423	0.00064
318.15	0.0799	0.9	1.44039	0.00065
318.15	0.0801	0.2008	1.3859	0.00063
318.15	0.0804	0.7997	1.43102	0.00065
318.15	0.0922	0.0998	1.37965	0.00063
318.15	0.1003	0.4999	1.40695	0.00064
318.15	0.1199	0.4	1.39985	0.00064
318.15	0.1199	0.7	1.42379	0.00064
318.15	0.1199	0.8001	1.43283	0.00065
318.15	0.1397	0.2997	1.39293	0.00063
318.15	0.1599	0.2	1.38636	0.00063
318.15	0.16	0.5998	1.41655	0.00064
318.15	0.1603	0.7996	1.43442	0.00064
318.15	0.1799	0.7002	1.426	0.00064
318.15	0.18	0.1	1.37953	0.00063
318.15	0.1801	0.8	1.43529	0.00064
318.15	0.2	0.5001	1.40942	0.00064
318.15	0.24	0.3999	1.40203	0.00063
318.15	0.24	0.5999	1.41909	0.00064
318.15	0.2402	0.6998	1.42828	0.00064
318.15	0.2699	0.7002	1.42946	0.00064
318.15	0.2803	0.3002	1.39482	0.00063
318.15	0.3003	0.4997	1.41195	0.00064
318.15	0.32	0.2001	1.38783	0.00063
318.15	0.32	0.5998	1.42148	0.00064
318.15	0.36	0.3999	1.40458	0.00063
318.15	0.3601	0.5999	1.42304	0.00064
318.15	0.3608	0.0993	1.38013	0.00063
318.15	0.3999	0.4999	1.41468	0.00064
318.15	0.42	0.3	1.3969	0.00063
318.15	0.4497	0.4999	1.41635	0.00063
318.15	0.4792	0.2003	1.38887	0.00063
318.15	0.4798	0.4001	1.40733	0.00063
318.15	0.5401	0.1	1.38044	0.00063
318.15	0.5401	0.3998	1.40887	0.00063
318.15	0.5601	0.2999	1.39942	0.00063
318.15	0.6301	0.2999	1.40093	0.00063
318.15	0.6401	0.1999	1.39082	0.00063
318.15	0.7194	0.1	1.3817	0.00063
318.15	0.7202	0.1999	1.39232	0.00063
318.15	0.8101	0.1	1.38292	0.00063
323.15	0.0201	0.7999	1.42604	0.00065
323.15	0.0201	0.8998	1.43499	0.00065
323.15	0.0302	0.6999	1.41803	0.00064
323.15	0.0399	0.8001	1.42695	0.00065
323.15	0.04	0.9004	1.43591	0.00065
323.15	0.0407	0.5995	1.41035	0.00064
323.15	0.0505	0.4998	1.40309	0.00064
323.15	0.0598	0.3999	1.39615	0.00064
323.15	0.06	0.7	1.41904	0.00064
323.15	0.06	0.9001	1.43687	0.00065
323.15	0.0701	0.3001	1.38941	0.00063
323.15	0.0799	0.6001	1.41155	0.00064
323.15	0.0799	0.9	1.43774	0.00065
323.15	0.0801	0.2008	1.38312	0.00063
323.15	0.0804	0.7997	1.4284	0.00065
323.15	0.0922	0.0998	1.37687	0.00063
323.15	0.1003	0.4999	1.40428	0.00064
323.15	0.1199	0.4	1.39714	0.00064
323.15	0.1199	0.7	1.42122	0.00064
323.15	0.1199	0.8001	1.43017	0.00065
323.15	0.1397	0.2997	1.39017	0.00063
323.15	0.1599	0.2	1.38348	0.00063
323.15	0.16	0.5998	1.41386	0.00064
323.15	0.1603	0.7996	1.43179	0.00064
323.15	0.1799	0.7002	1.42331	0.00064
323.15	0.18	0.1	1.37673	0.00063
323.15	0.1801	0.8	1.43271	0.00064
323.15	0.2	0.5001	1.40665	0.00064
323.15	0.24	0.3999	1.3993	0.00063
323.15	0.24	0.5999	1.41635	0.00064
323.15	0.2402	0.6998	1.42559	0.00064
323.15	0.2699	0.7002	1.4268	0.00064
323.15	0.2803	0.3002	1.39206	0.00063
323.15	0.3003	0.4997	1.40924	0.00064
323.15	0.32	0.2001	1.38491	0.00063
323.15	0.32	0.5998	1.41887	0.00064
323.15	0.36	0.3999	1.40186	0.00063
323.15	0.3601	0.5999	1.42042	0.00064
323.15	0.3608	0.0993	1.37699	0.00063
323.15	0.3999	0.4999	1.412	0.00064
323.15	0.42	0.3	1.39407	0.00063
323.15	0.4497	0.4999	1.41371	0.00063
323.15	0.4792	0.2003	1.38603	0.00063
323.15	0.4798	0.4001	1.40463	0.00063
323.15	0.5401	0.1	1.37757	0.00063
323.15	0.5401	0.3998	1.40619	0.00063
323.15	0.5601	0.2999	1.39666	0.00063
323.15	0.6301	0.2999	1.39822	0.00063
323.15	0.6401	0.1999	1.38805	0.00063
323.15	0.7194	0.1	1.37879	0.00063
323.15	0.7202	0.1999	1.38953	0.00063
323.15	0.8101	0.1	1.3801	0.00063

System: 2-methylpropan-2-ol + cyclohexylamine + heptane; phases: Liquid
Fixed: Pressure, kPa = 101
Property: Mass density, kg/m3 (Liquid); method: VIBTUB:UFactor:4
Temperature, K	Mole fraction of 2-methylpropan-2-ol	Mole fraction of cyclohexylamine	Mass density, kg/m3	uncertainty
303.15	0.0201	0.7999	815.647	0.524
303.15	0.0201	0.8998	837.975	0.508
303.15	0.0302	0.6999	796.151	0.537
303.15	0.0399	0.8001	819.196	0.518
303.15	0.04	0.9004	841.74	0.502
303.15	0.0407	0.5995	777.495	0.552
303.15	0.0505	0.4998	759.683	0.567
303.15	0.0598	0.3999	742.534	0.582
303.15	0.06	0.7	800.845	0.53
303.15	0.06	0.9001	845.573	0.496
303.15	0.0701	0.3001	726.228	0.598
303.15	0.0799	0.6001	783.126	0.543
303.15	0.0799	0.9	849.518	0.491
303.15	0.0801	0.2008	710.549	0.614
303.15	0.0804	0.7997	826.073	0.507
303.15	0.0922	0.0998	695.139	0.631
303.15	0.1003	0.4999	766.103	0.557
303.15	0.1199	0.4	749.444	0.571
303.15	0.1199	0.7	810.292	0.515
303.15	0.1199	0.8001	833.073	0.497
303.15	0.1397	0.2997	733.218	0.586
303.15	0.1599	0.2	717.536	0.603
303.15	0.16	0.5998	794.775	0.524
303.15	0.1603	0.7996	840.586	0.485
303.15	0.1799	0.7002	820.378	0.5
303.15	0.18	0.1	701.904	0.62
303.15	0.1801	0.8	844.287	0.479
303.15	0.2	0.5001	779.457	0.535
303.15	0.24	0.3999	764.142	0.547
303.15	0.24	0.5999	807.382	0.505
303.15	0.2402	0.6998	831.151	0.482
303.15	0.2699	0.7002	836.585	0.474
303.15	0.2803	0.3002	748.954	0.562
303.15	0.3003	0.4997	794.084	0.512
303.15	0.32	0.2001	733.266	0.577
303.15	0.32	0.5998	821.071	0.483
303.15	0.36	0.3999	780.429	0.522
303.15	0.3601	0.5999	828.53	0.471
303.15	0.3608	0.0993	717.327	0.594
303.15	0.3999	0.4999	810.424	0.486
303.15	0.42	0.3	766.262	0.534
303.15	0.4497	0.4999	819.283	0.472
303.15	0.4792	0.2003	751.367	0.548
303.15	0.4798	0.4001	799.031	0.492
303.15	0.5401	0.1	735.586	0.566
303.15	0.5401	0.3998	809.327	0.475
303.15	0.5601	0.2999	786.729	0.5
303.15	0.6301	0.2999	798.423	0.481
303.15	0.6401	0.1999	773.298	0.513
303.15	0.7194	0.1	758.724	0.528
303.15	0.7202	0.1999	786.312	0.491
303.15	0.8101	0.1	772.929	0.504
308.15	0.0201	0.7999	811.209	0.529
308.15	0.0201	0.8998	833.497	0.513
308.15	0.0302	0.6999	791.737	0.543
308.15	0.0399	0.8001	814.742	0.524
308.15	0.04	0.9004	837.247	0.508
308.15	0.0407	0.5995	773.093	0.557
308.15	0.0505	0.4998	755.29	0.572
308.15	0.0598	0.3999	738.142	0.588
308.15	0.06	0.7	796.418	0.536
308.15	0.06	0.9001	841.063	0.502
308.15	0.0701	0.3001	721.829	0.604
308.15	0.0799	0.6001	778.697	0.548
308.15	0.0799	0.9	844.993	0.496
308.15	0.0801	0.2008	706.132	0.621
308.15	0.0804	0.7997	821.596	0.513
308.15	0.0922	0.0998	690.691	0.638
308.15	0.1003	0.4999	761.671	0.562
308.15	0.1199	0.4	745.004	0.577
308.15	0.1199	0.7	805.817	0.521
308.15	0.1199	0.8001	828.57	0.502
308.15	0.1397	0.2997	728.757	0.593
308.15	0.1599	0.2	713.048	0.609
308.15	0.16	0.5998	790.294	0.53
308.15	0.1603	0.7996	836.056	0.491
308.15	0.1799	0.7002	815.867	0.505
308.15	0.18	0.1	697.37	0.626
308.15	0.1801	0.8	839.743	0.485
308.15	0.2	0.5001	774.96	0.541
308.15	0.24	0.3999	759.624	0.553
308.15	0.24	0.5999	802.859	0.51
308.15	0.2402	0.6998	826.605	0.488
308.15	0.2699	0.7002	832.023	0.48
308.15	0.2803	0.3002	744.02	0.568
308.15	0.3003	0.4997	789.54	0.517
308.15	0.32	0.2001	728.675	0.583
308.15	0.32	0.5998	816.506	0.489
308.15	0.36	0.3999	775.853	0.527
308.15	0.3601	0.5999	823.947	0.478
308.15	0.3608	0.0993	712.692	0.6
308.15	0.3999	0.4999	805.832	0.492
308.15	0.42	0.3	761.65	0.539
308.15	0.4497	0.4999	814.672	0.478
308.15	0.4792	0.2003	746.703	0.553
308.15	0.4798	0.4001	794.412	0.497
308.15	0.5401	0.1	730.861	0.571
308.15	0.5401	0.3998	804.686	0.481
308.15	0.5601	0.2999	782.064	0.506
308.15	0.6301	0.2999	793.735	0.488
308.15	0.6401	0.1999	768.562	0.518
308.15	0.7194	0.1	753.884	0.534
308.15	0.7202	0.1999	781.546	0.498
308.15	0.8101	0.1	768.026	0.512
313.15	0.0201	0.7999	806.762	0.535
313.15	0.0201	0.8998	829.009	0.519
313.15	0.0302	0.6999	787.308	0.549
313.15	0.0399	0.8001	810.277	0.529
313.15	0.04	0.9004	832.743	0.513
313.15	0.0407	0.5995	768.674	0.563
313.15	0.0505	0.4998	750.876	0.579
313.15	0.0598	0.3999	733.727	0.595
313.15	0.06	0.7	791.968	0.541
313.15	0.06	0.9001	836.546	0.508
313.15	0.0701	0.3001	717.397	0.611
313.15	0.0799	0.6001	774.247	0.555
313.15	0.0799	0.9	840.459	0.502
313.15	0.0801	0.2008	701.679	0.627
313.15	0.0804	0.7997	817.106	0.519
313.15	0.0922	0.0998	686.197	0.644
313.15	0.1003	0.4999	757.214	0.569
313.15	0.1199	0.4	740.53	0.583
313.15	0.1199	0.7	801.325	0.527
313.15	0.1199	0.8001	824.05	0.508
313.15	0.1397	0.2997	724.259	0.599
313.15	0.1599	0.2	708.512	0.616
313.15	0.16	0.5998	785.789	0.536
313.15	0.1603	0.7996	831.508	0.497
313.15	0.1799	0.7002	811.337	0.511
313.15	0.18	0.1	692.786	0.633
313.15	0.1801	0.8	835.181	0.491
313.15	0.2	0.5001	770.436	0.547
313.15	0.24	0.3999	755.067	0.56
313.15	0.24	0.5999	798.307	0.517
313.15	0.2402	0.6998	822.035	0.495
313.15	0.2699	0.7002	827.434	0.486
313.15	0.2803	0.3002	739.806	0.573
313.15	0.3003	0.4997	784.96	0.524
313.15	0.32	0.2001	724.034	0.59
313.15	0.32	0.5998	811.907	0.495
313.15	0.36	0.3999	771.233	0.534
313.15	0.3601	0.5999	819.328	0.484
313.15	0.3608	0.0993	707.99	0.607
313.15	0.3999	0.4999	801.202	0.498
313.15	0.42	0.3	756.981	0.546
313.15	0.4497	0.4999	810.018	0.485
313.15	0.4792	0.2003	741.973	0.561
313.15	0.4798	0.4001	789.741	0.504
313.15	0.5401	0.1	726.059	0.578
313.15	0.5401	0.3998	799.992	0.488
313.15	0.5601	0.2999	777.34	0.513
313.15	0.6301	0.2999	788.983	0.495
313.15	0.6401	0.1999	763.756	0.526
313.15	0.7194	0.1	748.97	0.542
313.15	0.7202	0.1999	776.704	0.505
313.15	0.8101	0.1	763.046	0.519
318.15	0.0201	0.7999	802.304	0.541
318.15	0.0201	0.8998	824.513	0.525
318.15	0.0302	0.6999	782.862	0.555
318.15	0.0399	0.8001	805.801	0.535
318.15	0.04	0.9004	828.23	0.519
318.15	0.0407	0.5995	764.235	0.569
318.15	0.0505	0.4998	746.438	0.585
318.15	0.0598	0.3999	729.283	0.601
318.15	0.06	0.7	787.495	0.547
318.15	0.06	0.9001	832.019	0.513
318.15	0.0701	0.3001	712.933	0.617
318.15	0.0799	0.6001	769.774	0.561
318.15	0.0799	0.9	835.912	0.508
318.15	0.0801	0.2008	697.186	0.634
318.15	0.0804	0.7997	812.598	0.525
318.15	0.0922	0.0998	681.659	0.651
318.15	0.1003	0.4999	752.727	0.575
318.15	0.1199	0.4	736.023	0.59
318.15	0.1199	0.7	796.807	0.533
318.15	0.1199	0.8001	819.513	0.514
318.15	0.1397	0.2997	719.721	0.606
318.15	0.1599	0.2	703.928	0.622
318.15	0.16	0.5998	781.253	0.542
318.15	0.1603	0.7996	826.939	0.503
318.15	0.1799	0.7002	806.781	0.517
318.15	0.18	0.1	688.144	0.64
318.15	0.1801	0.8	830.597	0.497
318.15	0.2	0.5001	765.875	0.554
318.15	0.24	0.3999	750.466	0.566
318.15	0.24	0.5999	793.717	0.523
318.15	0.2402	0.6998	817.438	0.501
318.15	0.2699	0.7002	822.818	0.492
318.15	0.2803	0.3002	735.157	0.581
318.15	0.3003	0.4997	780.339	0.53
318.15	0.32	0.2001	719.328	0.597
318.15	0.32	0.5998	807.274	0.501
318.15	0.36	0.3999	766.563	0.541
318.15	0.3601	0.5999	814.67	0.49
318.15	0.3608	0.0993	703.217	0.615
318.15	0.3999	0.4999	796.523	0.505
318.15	0.42	0.3	752.253	0.553
318.15	0.4497	0.4999	805.318	0.491
318.15	0.4792	0.2003	737.173	0.568
318.15	0.4798	0.4001	785.012	0.511
318.15	0.5401	0.1	721.182	0.586
318.15	0.5401	0.3998	795.238	0.495
318.15	0.5601	0.2999	772.545	0.52
318.15	0.6301	0.2999	784.159	0.502
318.15	0.6401	0.1999	758.875	0.533
318.15	0.7194	0.1	743.976	0.549
318.15	0.7202	0.1999	771.782	0.513
318.15	0.8101	0.1	757.979	0.527
323.15	0.0201	0.7999	797.831	0.546
323.15	0.0201	0.8998	820.009	0.53
323.15	0.0302	0.6999	778.403	0.56
323.15	0.0399	0.8001	801.308	0.541
323.15	0.04	0.9004	823.707	0.525
323.15	0.0407	0.5995	759.773	0.575
323.15	0.0505	0.4998	741.971	0.591
323.15	0.0598	0.3999	724.806	0.607
323.15	0.06	0.7	783.005	0.553
323.15	0.06	0.9001	827.473	0.519
323.15	0.0701	0.3001	708.432	0.623
323.15	0.0799	0.6001	765.276	0.567
323.15	0.0799	0.9	831.353	0.513
323.15	0.0801	0.2008	692.651	0.64
323.15	0.0804	0.7997	808.075	0.531
323.15	0.0922	0.0998	677.078	0.658
323.15	0.1003	0.4999	748.208	0.581
323.15	0.1199	0.4	731.48	0.596
323.15	0.1199	0.7	792.268	0.539
323.15	0.1199	0.8001	814.956	0.52
323.15	0.1397	0.2997	715.141	0.612
323.15	0.1599	0.2	699.293	0.629
323.15	0.16	0.5998	776.687	0.548
323.15	0.1603	0.7996	822.348	0.509
323.15	0.1799	0.7002	802.195	0.523
323.15	0.18	0.1	683.445	0.647
323.15	0.1801	0.8	825.992	0.503
323.15	0.2	0.5001	761.275	0.559
323.15	0.24	0.3999	745.818	0.572
323.15	0.24	0.5999	789.096	0.529
323.15	0.2402	0.6998	812.812	0.507
323.15	0.2699	0.7002	818.172	0.499
323.15	0.2803	0.3002	730.456	0.587
323.15	0.3003	0.4997	775.68	0.536
323.15	0.32	0.2001	714.555	0.603
323.15	0.32	0.5998	802.598	0.508
323.15	0.36	0.3999	761.84	0.546
323.15	0.3601	0.5999	809.977	0.497
323.15	0.3608	0.0993	698.369	0.621
323.15	0.3999	0.4999	791.804	0.511
323.15	0.42	0.3	747.459	0.559
323.15	0.4497	0.4999	800.572	0.498
323.15	0.4792	0.2003	732.301	0.574
323.15	0.4798	0.4001	780.228	0.517
323.15	0.5401	0.1	716.219	0.591
323.15	0.5401	0.3998	790.43	0.502
323.15	0.5601	0.2999	767.684	0.526
323.15	0.6301	0.2999	779.264	0.509
323.15	0.6401	0.1999	753.916	0.539
323.15	0.7194	0.1	738.9	0.555
323.15	0.7202	0.1999	766.775	0.52
323.15	0.8101	0.1	752.825	0.535
