Measured thermophysical data. Solubilities of N-[(4-Bromo-3,5-difluorine)-phenyl]maleimide in Pyridine, Acetone, Tetrahydrofuran, Ethanol, Trichloromethane, and Acetonitrile at Temperature between (285.00 and 350.15) K
Source: J. Chem. Eng. Data, 2011, 10.1021/je100819f
Compound 1: 1-(4-bromo-3,5-difluorophenyl)-1H-pyrrole-2,5-dione, C10H4BrF2NO2, InChI=1S/C10H4BrF2NO2/c11-10-6(12)3-5(4-7(10)13)14-8(15)1-2-9(14)16/h1-4H, purity 99.3%
Compound 2: pyridine, C5H5N, InChI=1S/C5H5N/c1-2-4-6-5-3-1/h1-5H, purity 99.8%
Compound 3: acetone, C3H6O, InChI=1S/C3H6O/c1-3(2)4/h1-2H3, purity 99.8%
Compound 4: tetrahydrofuran, C4H8O, InChI=1S/C4H8O/c1-2-4-5-3-1/h1-4H2, purity 99.8%
Compound 5: ethanol, C2H6O, InChI=1S/C2H6O/c1-2-3/h3H,2H2,1H3, purity 99.8%
Compound 6: trichloromethane, CHCl3, InChI=1S/CHCl3/c2-1(3)4/h1H, purity 99.8%
Compound 7: acetonitrile, C2H3N, InChI=1S/C2H3N/c1-2-3/h1H3, purity 99.8%

System: 1-(4-bromo-3,5-difluorophenyl)-1H-pyrrole-2,5-dione; phases: Crystal, Liquid, Air at 1 atmosphere
Property: Normal melting temperature, K (Crystal); method: DTA
Normal melting temperature, K	uncertainty
470.6	0.7

System: pyridine + 1-(4-bromo-3,5-difluorophenyl)-1H-pyrrole-2,5-dione; phases: Liquid, Crystal
Fixed: Pressure, kPa = 101
Property: Mole fraction of 1-(4-bromo-3,5-difluorophenyl)-1H-pyrrole-2,5-dione (Liquid); method: Laser monitoring system
Temperature, K	Mole fraction of 1-(4-bromo-3,5-difluorophenyl)-1H-pyrrole-2,5-dione	uncertainty
285.55	0.0116	0.0003
289.66	0.0129	0.0003
293.95	0.0144	0.0003
297.15	0.0154	0.0003
300.85	0.0169	0.0003
304.65	0.0186	0.0003
310.05	0.0214	0.0003
315.65	0.0246	0.0003
318.65	0.0265	0.0003
322.55	0.0291	0.0004
328.45	0.0341	0.0004
334.15	0.0394	0.0005
337.95	0.0432	0.0006
340.65	0.0462	0.0006
344.85	0.0514	0.0007
346.35	0.0533	0.0007

System: acetone + 1-(4-bromo-3,5-difluorophenyl)-1H-pyrrole-2,5-dione; phases: Liquid, Crystal
Fixed: Pressure, kPa = 101
Property: Mole fraction of 1-(4-bromo-3,5-difluorophenyl)-1H-pyrrole-2,5-dione (Liquid); method: Laser monitoring system
Temperature, K	Mole fraction of 1-(4-bromo-3,5-difluorophenyl)-1H-pyrrole-2,5-dione	uncertainty
287.65	0.0071	0.0003
291.85	0.0081	0.0003
295.55	0.0092	0.0003
298.35	0.01	0.0003
301.25	0.0109	0.0003
304.55	0.012	0.0003
307.6	0.0131	0.0003
309.45	0.0139	0.0003
311.95	0.0152	0.0003
313.95	0.0159	0.0003
316.55	0.0174	0.0003
319.55	0.019	0.0003
321.45	0.0202	0.0003
323.35	0.0214	0.0003
325.15	0.0225	0.0003

System: tetrahydrofuran + 1-(4-bromo-3,5-difluorophenyl)-1H-pyrrole-2,5-dione; phases: Liquid, Crystal
Fixed: Pressure, kPa = 101
Property: Mole fraction of 1-(4-bromo-3,5-difluorophenyl)-1H-pyrrole-2,5-dione (Liquid); method: Laser monitoring system
Temperature, K	Mole fraction of 1-(4-bromo-3,5-difluorophenyl)-1H-pyrrole-2,5-dione	uncertainty
285	0.0148	0.0002
288.45	0.0162	0.0002
291.55	0.0176	0.0002
294.25	0.0185	0.0003
297.55	0.02	0.0003
302.8	0.0228	0.0003
306.65	0.0249	0.0003
310.8	0.0275	0.0004
315	0.0303	0.0004
318.45	0.0329	0.0004
321.45	0.0355	0.0005
324.65	0.0383	0.0005
327.65	0.0409	0.0006
330.35	0.0437	0.0006
333.65	0.047	0.0006
336.25	0.0497	0.0007

System: ethanol + 1-(4-bromo-3,5-difluorophenyl)-1H-pyrrole-2,5-dione; phases: Liquid, Crystal
Fixed: Pressure, kPa = 101
Property: Mole fraction of 1-(4-bromo-3,5-difluorophenyl)-1H-pyrrole-2,5-dione (Liquid); method: Laser monitoring system
Temperature, K	Mole fraction of 1-(4-bromo-3,5-difluorophenyl)-1H-pyrrole-2,5-dione	uncertainty
288.65	0.0003	0.0001
293.59	0.0003	0.0001
299.85	0.0004	0.0001
305.72	0.0006	0.0001
311.15	0.0008	0.0001
318.15	0.0011	0.0001
324.35	0.0014	0.0001
327.85	0.0016	0.0001
332.95	0.002	0.0001
336.05	0.0023	0.0001
339.65	0.0027	0.0001
341.85	0.003	0.0001
344.15	0.0033	0.0001
346.15	0.0036	0.0001
347.75	0.0039	0.0001

System: trichloromethane + 1-(4-bromo-3,5-difluorophenyl)-1H-pyrrole-2,5-dione; phases: Liquid, Crystal
Fixed: Pressure, kPa = 101
Property: Mole fraction of 1-(4-bromo-3,5-difluorophenyl)-1H-pyrrole-2,5-dione (Liquid); method: Laser monitoring system
Temperature, K	Mole fraction of 1-(4-bromo-3,5-difluorophenyl)-1H-pyrrole-2,5-dione	uncertainty
289.25	0.0055	0.0001
294.85	0.0066	0.0001
296.65	0.0069	0.0001
300.85	0.0078	0.0001
302.75	0.0082	0.0001
305.65	0.0092	0.0001
307.45	0.0096	0.0001
309.55	0.0101	0.0001
311.65	0.0108	0.0001
315.35	0.012	0.0001
318.65	0.0132	0.0002
322.15	0.0146	0.0002
324.65	0.0157	0.0002
326.45	0.0166	0.0002
328.35	0.0176	0.0002
330.65	0.0188	0.0002

System: acetonitrile + 1-(4-bromo-3,5-difluorophenyl)-1H-pyrrole-2,5-dione; phases: Liquid, Crystal
Fixed: Pressure, kPa = 101
Property: Mole fraction of 1-(4-bromo-3,5-difluorophenyl)-1H-pyrrole-2,5-dione (Liquid); method: Laser monitoring system
Temperature, K	Mole fraction of 1-(4-bromo-3,5-difluorophenyl)-1H-pyrrole-2,5-dione	uncertainty
291.95	0.0028	0.0002
296.65	0.0033	0.0002
299.25	0.0037	0.0002
302.45	0.004	0.0002
304.85	0.0044	0.0002
307.15	0.0049	0.0002
311.55	0.0057	0.0002
316.95	0.007	0.0002
320.15	0.0078	0.0002
325.45	0.0095	0.0003
328.55	0.0107	0.0003
332.05	0.0119	0.0003
338.65	0.0146	0.0003
341.65	0.0165	0.0003
347.25	0.0198	0.0004
350.15	0.0217	0.0004
