Measured thermophysical data. Thermal Conductivity of Aqueous Mixtures of 2-n-Butoxyethanol at Pressures up to 150 MPa
Source: J. Chem. Eng. Data, 2010, 10.1021/je1007197
Compound 1: water, H2O, InChI=1S/H2O/h1H2
Compound 2: 2-butoxyethan-1-ol, C6H14O2, InChI=1S/C6H14O2/c1-2-3-5-8-6-4-7/h7H,2-6H2,1H3, purity 99.8%

System: 2-butoxyethan-1-ol; phases: Liquid
Property: Thermal conductivity, W/m/K (Liquid); method: Hot wire method
Temperature, K	Pressure, kPa	Thermal conductivity, W/m/K	uncertainty
304.15	100	0.1529	0.001
304.15	16400	0.1579	0.001
304.15	27300	0.1612	0.001
304.15	41800	0.1646	0.001
304.15	56100	0.1689	0.0011
304.15	70200	0.1722	0.0011
304.15	79000	0.174	0.0011
304.15	83500	0.1749	0.0011
304.15	98200	0.1785	0.0011
304.15	112200	0.182	0.0011
304.15	124100	0.1836	0.0011
304.15	140100	0.187	0.0012
304.15	149200	0.1885	0.0012
304.15	100	0.1533	0.001
321.15	100	0.1497	0.0009
321.15	16400	0.1548	0.001
321.15	27300	0.1585	0.001
321.15	41800	0.1628	0.001
321.15	56100	0.1665	0.001
321.15	70200	0.1701	0.0011
321.15	84200	0.1739	0.0011
321.15	98200	0.177	0.0011
321.15	112200	0.18	0.0011
321.15	126200	0.183	0.0011
321.15	134900	0.1851	0.0011
321.15	150600	0.1879	0.0012
321.15	100	0.1496	0.0009
338.15	100	0.1461	0.0009
338.15	16400	0.1518	0.001
338.15	27300	0.1555	0.001
338.15	41800	0.1601	0.001
338.15	56100	0.164	0.001
338.15	70200	0.1677	0.001
338.15	84200	0.1717	0.0011
338.15	98200	0.1751	0.0011
338.15	108700	0.1775	0.0011
338.15	123400	0.1807	0.0011
338.15	140100	0.1844	0.0011
338.15	100	0.1463	0.0009

System: 2-butoxyethan-1-ol + water; phases: Liquid
Property: Thermal conductivity, W/m/K (Liquid); method: Hot wire method
Temperature, K	Pressure, kPa	Mole fraction of 2-butoxyethan-1-ol	Thermal conductivity, W/m/K	uncertainty
304.15	100	0.0478	0.4533	0.0027
304.15	100	0.1732	0.2813	0.0017
304.15	100	0.5	0.1837	0.0011
304.15	100	0.75	0.1655	0.001
304.15	10300	0.5	0.1877	0.0012
304.15	10300	0.75	0.169	0.0011
304.15	14200	0.0478	0.4568	0.0027
304.15	15000	0.5	0.189	0.0012
304.15	19300	0.75	0.1717	0.0011
304.15	20300	0.1732	0.2857	0.0018
304.15	26700	0.5	0.1936	0.0012
304.15	27300	0.0478	0.4622	0.0027
304.15	30000	0.1732	0.2896	0.0018
304.15	39500	0.75	0.1771	0.0011
304.15	41800	0.0478	0.468	0.0028
304.15	41800	0.5	0.1963	0.0012
304.15	47200	0.1732	0.2942	0.0019
304.15	54700	0.5	0.1995	0.0012
304.15	54700	0.75	0.1812	0.0011
304.15	55400	0.0478	0.4704	0.0028
304.15	70100	0.0478	0.4758	0.0028
304.15	70200	0.1732	0.3008	0.0019
304.15	70200	0.5	0.2032	0.0012
304.15	76500	0.75	0.1862	0.0012
304.15	83900	0.0478	0.478	0.0028
304.15	84200	0.1732	0.3043	0.0019
304.15	84200	0.5	0.2066	0.0013
304.15	91200	0.75	0.19	0.0012
304.15	98200	0.0478	0.4845	0.0029
304.15	98200	0.1732	0.3077	0.0019
304.15	98200	0.75	0.1901	0.0012
304.15	108700	0.5	0.2127	0.0013
304.15	110400	0.1732	0.311	0.002
304.15	112100	0.0478	0.4875	0.0029
304.15	112200	0.75	0.1951	0.0012
304.15	124800	0.5	0.2157	0.0013
304.15	126000	0.0478	0.4917	0.0029
304.15	126200	0.1732	0.3147	0.002
304.15	127600	0.75	0.1976	0.0012
304.15	138700	0.0478	0.4958	0.0029
304.15	140100	0.1732	0.3175	0.002
304.15	140100	0.5	0.2189	0.0014
304.15	140100	0.75	0.2005	0.0012
304.15	150600	0.1732	0.3195	0.0022
304.15	150600	0.75	0.2022	0.0012
317.15	100	0.0478	0.4606	0.0027
317.15	16400	0.0478	0.4669	0.0028
317.15	25500	0.0478	0.4697	0.0028
317.15	41800	0.0478	0.475	0.0028
317.15	56100	0.0478	0.4789	0.0028
317.15	70600	0.0478	0.485	0.0029
317.15	84200	0.0478	0.4875	0.0029
317.15	98200	0.0478	0.4926	0.0029
317.15	112200	0.0478	0.4983	0.0029
317.15	124000	0.0478	0.5008	0.003
317.15	141000	0.0478	0.5066	0.003
320.9	100	0.0478	0.4774	0.0029
320.9	2300	0.0478	0.4714	0.0029
320.9	5000	0.0478	0.4639	0.0034
320.9	7500	0.0478	0.4677	0.0035
320.9	10000	0.0478	0.4694	0.0028
320.9	12500	0.0478	0.4703	0.0028
320.9	15000	0.0478	0.4705	0.0028
320.9	19500	0.0478	0.4737	0.0033
320.9	20000	0.0478	0.4742	0.0033
320.9	29800	0.0478	0.4774	0.0028
320.9	52500	0.0478	0.4855	0.0035
320.9	70200	0.0478	0.4855	0.0029
320.9	87700	0.0478	0.4986	0.0038
320.9	105200	0.0478	0.5044	0.0037
320.9	126200	0.0478	0.5123	0.003
321.15	100	0.5	0.1829	0.0011
321.15	100	0.75	0.1624	0.001
321.15	10000	0.5	0.1864	0.0012
321.15	10000	0.75	0.1656	0.001
321.15	19300	0.5	0.1892	0.0012
321.15	19300	0.75	0.1693	0.0011
321.15	19700	0.5	0.1896	0.0013
321.15	28300	0.75	0.1718	0.0011
321.15	39300	0.75	0.1744	0.0011
321.15	41800	0.5	0.1959	0.0012
321.15	56100	0.5	0.2001	0.0012
321.15	56100	0.75	0.1792	0.0011
321.15	70200	0.5	0.2034	0.0013
321.15	71600	0.75	0.1836	0.0011
321.15	84200	0.5	0.2073	0.0013
321.15	84200	0.75	0.1871	0.0012
321.15	96500	0.5	0.2099	0.0013
321.15	98900	0.75	0.1907	0.0012
321.15	111500	0.75	0.1929	0.0012
321.15	112200	0.5	0.2144	0.0013
321.15	124800	0.75	0.1959	0.0012
321.15	126900	0.5	0.2172	0.0013
321.15	141500	0.5	0.2201	0.0013
321.15	142200	0.75	0.1998	0.0012
321.15	149900	0.5	0.2213	0.0014
321.15	150600	0.75	0.2016	0.0012
322	100	0.0478	0.4932	0.0032
322	5400	0.0478	0.4886	0.0038
322	20000	0.0478	0.4931	0.0034
322	34600	0.0478	0.5006	0.003
322	52500	0.0478	0.5069	0.0036
322	70200	0.0478	0.5149	0.004
322	87700	0.0478	0.5221	0.0037
322	105200	0.0478	0.528	0.0038
322	119200	0.0478	0.5322	0.0032
322	133200	0.0478	0.5354	0.0032
335	100	0.1732	0.2804	0.0017
335	10000	0.1732	0.2851	0.0017
335	19000	0.1732	0.2895	0.0017
335	41800	0.1732	0.2972	0.0018
335	70200	0.1732	0.306	0.0018
335	84200	0.1732	0.3077	0.0018
335	98200	0.1732	0.3111	0.0019
335	112200	0.1732	0.3153	0.0019
335	125500	0.1732	0.3205	0.0019
335	137300	0.1732	0.3218	0.0019
338.15	100	0.5	0.1796	0.0011
338.15	100	0.75	0.1594	0.001
338.15	10400	0.5	0.1841	0.0011
338.15	11000	0.75	0.1637	0.001
338.15	19000	0.5	0.1866	0.0012
338.15	19500	0.5	0.1867	0.0012
338.15	19500	0.75	0.1663	0.001
338.15	30700	0.75	0.1702	0.0011
338.15	39300	0.75	0.1723	0.0011
338.15	41800	0.5	0.1936	0.0012
338.15	56100	0.5	0.1986	0.0012
338.15	56100	0.75	0.1767	0.0011
338.15	70200	0.5	0.2018	0.0012
338.15	70200	0.75	0.1812	0.0011
338.15	80700	0.5	0.2039	0.0013
338.15	91200	0.75	0.1868	0.0012
338.15	98200	0.5	0.2083	0.0013
338.15	105200	0.75	0.1907	0.0012
338.15	112200	0.5	0.2118	0.0013
338.15	117800	0.75	0.1924	0.0012
338.15	126200	0.5	0.2146	0.0013
338.15	131800	0.75	0.1964	0.0012
338.15	140800	0.5	0.2183	0.0014
338.15	147100	0.75	0.1997	0.0012
346.5	100	0.1732	0.2659	0.0016
346.5	10000	0.1732	0.2753	0.0017
346.5	20000	0.1732	0.2796	0.0017
346.5	29500	0.1732	0.2834	0.0017
346.5	49000	0.1732	0.2904	0.0017
346.5	84200	0.1732	0.3009	0.0018
346.5	98200	0.1732	0.3029	0.0018
346.5	112200	0.1732	0.3046	0.0018
346.5	122700	0.1732	0.31	0.0019
346.5	140100	0.1732	0.3122	0.0019
346.5	148500	0.1732	0.3128	0.0019
