Measured thermophysical data. Physicochemical Properties of an Ionic Liquid [C2mim][B(CN)4]
Source: J. Chem. Eng. Data, 2010, 10.1021/je100228t
Compound 1: 1-ethyl-3-methylimidazolium tetracyanoborate, C10H11BN6, InChI=1S/C6H11N2.C4BN4/c1-3-8-5-4-7(2)6-8;6-1-5(2-7,3-8)4-9/h4-6H,3H2,1-2H3;/q+1;-1

System: 1-ethyl-3-methylimidazolium tetracyanoborate; phases: Liquid, Air at 1 atmosphere
Property: Surface tension liquid-gas, N/m (Liquid); method: Maximal bubble pressure
Temperature, K	Surface tension liquid-gas, N/m	uncertainty
283.15	0.0494	0.0003
288.15	0.0489	0.0003
293.15	0.0482	0.0003
298.15	0.0478	0.0003
303.15	0.0476	0.0003
308.15	0.0471	0.0003
313.15	0.0468	0.0003
318.15	0.0464	0.0003
323.15	0.0462	0.0003
328.15	0.0455	0.0003
333.15	0.045	0.0003
338.15	0.0448	0.0003

System: 1-ethyl-3-methylimidazolium tetracyanoborate; phases: Liquid
Fixed: Pressure, kPa = 101.325
Property: Mass density, kg/m3 (Liquid); method: VIBTUB:UFactor:4
Temperature, K	Mass density, kg/m3	uncertainty
283.15	1048.37	1.06
288.15	1044.37	1.06
293.15	1040.38	1.05
298.15	1036.41	1.05
303.15	1032.46	1.05
308.15	1028.55	1.04
313.15	1024.66	1.04
318.15	1020.78	1.03
323.15	1016.95	1.03
328.15	1013.11	1.02
333.15	1009.32	1.02
338.15	1005.54	1.01
