Measured thermophysical data. Volumetric Behavior on Interactions of a-Amino Acids with Sodium Acetate, Potassium Acetate, and Calcium Acetate in Aqueous Solutions
Source: J. Chem. Eng. Data, 2010, 10.1021/je100190e
Compound 1: L-lysine monohydrochloride, C6H15ClN2O2, InChI=1S/C6H14N2O2.ClH/c7-4-2-1-3-5(8)6(9)10;/h5H,1-4,7-8H2,(H,9,10);1H/t5-;/m0./s1
Compound 2: L-histidine, C6H9N3O2, InChI=1S/C6H9N3O2/c7-5(6(10)11)1-4-2-8-3-9-4/h2-3,5H,1,7H2,(H,8,9)(H,10,11)/t5-/m0/s1
Compound 3: L-arginine, C6H14N4O2, InChI=1S/C6H14N4O2/c7-4(5(11)12)2-1-3-10-6(8)9/h4H,1-3,7H2,(H,11,12)(H4,8,9,10)/t4-/m0/s1
Compound 4: sodium ethanoate, C2H3NaO2, InChI=1S/C2H4O2.Na/c1-2(3)4;/h1H3,(H,3,4);/q;+1/p-1
Compound 5: water, H2O, InChI=1S/H2O/h1H2
Compound 6: potassium ethanoate, C2H3KO2, InChI=1S/C2H4O2.K/c1-2(3)4;/h1H3,(H,3,4);/q;+1/p-1
Compound 7: calcium acetate, C4H6CaO4, InChI=1S/2C2H4O2.Ca/c2*1-2(3)4;/h2*1H3,(H,3,4);/q;;+2/p-2

System: water; phases: Liquid
Fixed: Pressure, kPa = 101
Property: Mass density, kg/m3 (Liquid); method: Pycnometric method
Temperature, K	Mass density, kg/m3	uncertainty
303.15	995.6	0.3
308.15	994	0.3
313.15	992.2	0.3
318.15	990.2	0.3
323.15	988	0.3

System: L-lysine monohydrochloride + water; phases: Liquid
Fixed: Pressure, kPa = 101
Property: Mass density, kg/m3 (Liquid); method: PYCNOM:UFactor:4
Temperature, K	Molality, mol/kg of L-lysine monohydrochloride	Mass density, kg/m3	uncertainty
303.15	0	995.6	1
303.15	0.0302	997.3	1
303.15	0.0606	999	1
303.15	0.0913	1000.7	1
303.15	0.1224	1002.4	1
303.15	0.1536	1004.1	1
308.15	0	994	1.1
308.15	0.0302	995.7	1.1
308.15	0.0606	997.4	1.1
308.15	0.0913	999.1	1.1
308.15	0.1224	1000.8	1.1
308.15	0.1536	1002.5	1.1
313.15	0	992.2	1.1
313.15	0.0302	993.9	1.1
313.15	0.0606	995.6	1.1
313.15	0.0913	997.3	1.1
313.15	0.1224	999	1.1
313.15	0.1536	1000.7	1.1
318.15	0	990.2	1.2
318.15	0.0302	991.9	1.2
318.15	0.0606	993.6	1.2
318.15	0.0913	995.3	1.2
318.15	0.1224	997	1.2
318.15	0.1536	998.7	1.2
323.15	0	988	1.2
323.15	0.0302	989.7	1.2
323.15	0.0606	991.4	1.2
323.15	0.0913	993.1	1.2
323.15	0.1224	994.8	1.2
323.15	0.1536	996.4	1.2

System: L-arginine + water; phases: Liquid
Fixed: Pressure, kPa = 101
Property: Mass density, kg/m3 (Liquid); method: PYCNOM:UFactor:4
Temperature, K	Molality, mol/kg of L-arginine	Mass density, kg/m3	uncertainty
303.15	0	995.6	1
303.15	0.0302	997.1	1
303.15	0.0607	998.6	1
303.15	0.0914	1000.1	1
303.15	0.122	1001.5	1
303.15	0.1533	1003	1
308.15	0	994	1.1
308.15	0.0302	995.5	1.1
308.15	0.0607	997	1.1
308.15	0.0914	998.5	1.1
308.15	0.122	999.9	1.1
308.15	0.1533	1001.4	1.1
313.15	0	992.2	1.1
313.15	0.0302	993.7	1.1
313.15	0.0607	995.2	1.1
313.15	0.0914	996.7	1.1
313.15	0.122	998.1	1.1
313.15	0.1533	999.6	1.1
318.15	0	990.2	1.2
318.15	0.0302	991.7	1.2
318.15	0.0607	993.2	1.2
318.15	0.0914	994.7	1.2
318.15	0.122	996.1	1.2
318.15	0.1533	997.6	1.2
323.15	0	988	1.2
323.15	0.0302	989.5	1.2
323.15	0.0607	991	1.2
323.15	0.0914	992.5	1.2
323.15	0.122	993.9	1.2
323.15	0.1533	995.4	1.2

System: L-histidine + water; phases: Liquid
Fixed: Pressure, kPa = 101
Property: Mass density, kg/m3 (Liquid); method: PYCNOM:UFactor:4
Temperature, K	Molality, mol/kg of L-histidine	Mass density, kg/m3	uncertainty
303.15	0	995.6	1
303.15	0.0303	997.3	1
303.15	0.0606	998.9	1
303.15	0.0913	1000.6	1
303.15	0.1221	1002.2	1
303.15	0.1526	1003.8	1
308.15	0	994	1.1
308.15	0.0303	995.7	1.1
308.15	0.0606	997.3	1.1
308.15	0.0913	999	1.1
308.15	0.1221	1000.6	1.1
308.15	0.1526	1002.2	1.1
313.15	0	992.2	1.1
313.15	0.0303	993.9	1.1
313.15	0.0606	995.5	1.1
313.15	0.0913	997.2	1.1
313.15	0.1221	998.8	1.1
313.15	0.1526	1000.4	1.1
318.15	0	990.2	1.2
318.15	0.0303	991.9	1.2
318.15	0.0606	993.5	1.2
318.15	0.0913	995.2	1.2
318.15	0.1221	996.8	1.2
318.15	0.1526	998.4	1.2
323.15	0	988	1.2
323.15	0.0303	989.7	1.2
323.15	0.0606	991.3	1.2
323.15	0.0913	993	1.2
323.15	0.1221	994.6	1.2
323.15	0.1526	996.2	1.2

System: sodium ethanoate + water; phases: Liquid
Fixed: Pressure, kPa = 101
Fixed: Molality, mol/kg of sodium ethanoate = 1
Property: Mass density, kg/m3 (Liquid); method: PYCNOM:UFactor:4
Temperature, K	Mass density, kg/m3	uncertainty
303.15	1032.9	1.2
308.15	1031.8	1.2
313.15	1029.3	1.3
318.15	1027.5	1.3
323.15	1025.4	1.3

System: potassium ethanoate + water; phases: Liquid
Fixed: Pressure, kPa = 101
Fixed: Molality, mol/kg of potassium ethanoate = 1
Property: Mass density, kg/m3 (Liquid); method: PYCNOM:UFactor:4
Temperature, K	Mass density, kg/m3	uncertainty
303.15	1039.7	1.2
308.15	1038.1	1.2
313.15	1036.1	1.3
318.15	1033.5	1.3
323.15	1032	1.4

System: calcium acetate + water; phases: Liquid
Fixed: Pressure, kPa = 101
Fixed: Molality, mol/kg of calcium acetate = 1
Property: Mass density, kg/m3 (Liquid); method: PYCNOM:UFactor:4
Temperature, K	Mass density, kg/m3	uncertainty
303.15	1075.1	1.2
308.15	1073.2	1.3
313.15	1071.6	1.3
318.15	1069.3	1.4
323.15	1067.1	1.4

System: sodium ethanoate + L-lysine monohydrochloride + water; phases: Liquid
Fixed: Pressure, kPa = 101
Fixed: Solvent: Molality, mol/kg of sodium ethanoate = 1
Property: Mass density, kg/m3 (Liquid); method: PYCNOM:UFactor:4
Temperature, K	Molality, mol/kg of L-lysine monohydrochloride	Mass density, kg/m3	uncertainty
303.15	0	1032.9	1.2
303.15	0.0291	1034.4	1.2
303.15	0.0584	1035.8	1.2
303.15	0.088	1037.3	1.2
303.15	0.1181	1038.8	1.2
303.15	0.148	1040.2	1.2
308.15	0	1031.8	1.2
308.15	0.0291	1033.3	1.2
308.15	0.0584	1034.7	1.2
308.15	0.088	1036.2	1.2
308.15	0.1181	1037.7	1.2
308.15	0.148	1039.1	1.2
313.15	0	1029.3	1.3
313.15	0.0291	1030.8	1.3
313.15	0.0584	1032.2	1.3
313.15	0.088	1033.7	1.3
313.15	0.1181	1035.2	1.3
313.15	0.148	1036.7	1.3
318.15	0	1027.5	1.3
318.15	0.0291	1028.9	1.3
318.15	0.0584	1030.4	1.3
318.15	0.088	1031.9	1.3
318.15	0.1181	1034.4	1.3
318.15	0.148	1034.9	1.3
323.15	0	1025.4	1.3
323.15	0.0291	1026.9	1.3
323.15	0.0584	1028.3	1.3
323.15	0.088	1029.8	1.4
323.15	0.1181	1031.3	1.4
323.15	0.148	1032.7	1.4

System: potassium ethanoate + L-lysine monohydrochloride + water; phases: Liquid
Fixed: Pressure, kPa = 101
Fixed: Solvent: Molality, mol/kg of potassium ethanoate = 1
Property: Mass density, kg/m3 (Liquid); method: PYCNOM:UFactor:4
Temperature, K	Molality, mol/kg of L-lysine monohydrochloride	Mass density, kg/m3	uncertainty
303.15	0	1039.7	1.2
303.15	0.0289	1041.1	1.2
303.15	0.058	1042.4	1.2
303.15	0.0879	1042.8	1.2
303.15	0.1173	1045.2	1.2
303.15	0.147	1046.5	1.2
308.15	0	1038.1	1.2
308.15	0.0289	1039.5	1.2
308.15	0.058	1040.8	1.2
308.15	0.0879	1042.2	1.2
308.15	0.1173	1043.6	1.2
308.15	0.147	1044.9	1.2
313.15	0	1036.1	1.3
313.15	0.0289	1037.5	1.3
313.15	0.058	1038.8	1.3
313.15	0.0879	1040.2	1.3
313.15	0.1173	1041.6	1.3
313.15	0.147	1042.9	1.3
318.15	0	1033.5	1.3
318.15	0.0289	1034.9	1.3
318.15	0.058	1036.2	1.3
318.15	0.0879	1037.6	1.3
318.15	0.1173	1039	1.3
318.15	0.147	1040.3	1.3
323.15	0	1032	1.4
323.15	0.0289	1033.4	1.4
323.15	0.058	1034.7	1.4
323.15	0.0879	1036.1	1.4
323.15	0.1173	1037.5	1.4
323.15	0.147	1038.8	1.4

System: calcium acetate + L-lysine monohydrochloride + water; phases: Liquid
Fixed: Pressure, kPa = 101
Fixed: Solvent: Molality, mol/kg of calcium acetate = 1
Property: Mass density, kg/m3 (Liquid); method: PYCNOM:UFactor:4
Temperature, K	Molality, mol/kg of L-lysine monohydrochloride	Mass density, kg/m3	uncertainty
303.15	0	1075.1	1.2
303.15	0.0281	1076	1.2
303.15	0.0564	1076.8	1.2
303.15	0.085	1077.7	1.2
303.15	0.1141	1078.6	1.2
303.15	0.1429	1079.4	1.2
308.15	0	1073.2	1.3
308.15	0.0281	1074.1	1.3
308.15	0.0564	1074.9	1.3
308.15	0.085	1075.8	1.3
308.15	0.1141	1076.7	1.3
308.15	0.1429	1077.6	1.3
313.15	0	1071.6	1.3
313.15	0.0281	1072.5	1.3
313.15	0.0564	1073.3	1.3
313.15	0.085	1074.2	1.3
313.15	0.1141	1075.1	1.3
313.15	0.1429	1076	1.3
318.15	0	1069.3	1.4
318.15	0.0281	1070.2	1.4
318.15	0.0564	1071	1.4
318.15	0.085	1071.9	1.4
318.15	0.1141	1072.8	1.4
318.15	0.1429	1073.6	1.4
323.15	0	1067.1	1.4
323.15	0.0281	1068	1.4
323.15	0.0564	1068.8	1.4
323.15	0.085	1069.7	1.4
323.15	0.1141	1070.6	1.4
323.15	0.1429	1071.4	1.4

System: L-arginine + sodium ethanoate + water; phases: Liquid
Fixed: Pressure, kPa = 101
Fixed: Solvent: Molality, mol/kg of sodium ethanoate = 1
Property: Mass density, kg/m3 (Liquid); method: PYCNOM:UFactor:4
Temperature, K	Molality, mol/kg of L-arginine	Mass density, kg/m3	uncertainty
303.15	0	1032.9	1.2
303.15	0.0291	1034.2	1.2
303.15	0.0585	1035.5	1.2
303.15	0.0882	1036.8	1.2
303.15	0.1179	1038.1	1.2
303.15	0.1478	1039.3	1.2
308.15	0	1031.8	1.2
308.15	0.0291	1033.1	1.2
308.15	0.0585	1034.4	1.2
308.15	0.0882	1035.7	1.2
308.15	0.1179	1036.9	1.2
308.15	0.1478	1038.2	1.2
313.15	0	1029.3	1.3
313.15	0.0291	1030.6	1.3
313.15	0.0585	1031.9	1.3
313.15	0.0882	1033.2	1.3
313.15	0.1179	1034.4	1.3
313.15	0.1478	1035.7	1.3
318.15	0	1027.5	1.3
318.15	0.0291	1028.5	1.3
318.15	0.0585	1029.8	1.3
318.15	0.0882	1031.1	1.3
318.15	0.1179	1032.3	1.3
318.15	0.1478	1033.6	1.3
323.15	0	1025.4	1.3
323.15	0.0291	1026.7	1.3
323.15	0.0585	1027.9	1.3
323.15	0.0882	1029.2	1.3
323.15	0.1179	1030.5	1.4
323.15	0.1478	1031.8	1.4

System: L-arginine + potassium ethanoate + water; phases: Liquid
Fixed: Pressure, kPa = 101
Fixed: Solvent: Molality, mol/kg of potassium ethanoate = 1
Property: Mass density, kg/m3 (Liquid); method: PYCNOM:UFactor:4
Temperature, K	Molality, mol/kg of L-arginine	Mass density, kg/m3	uncertainty
303.15	0	1039.7	1.2
303.15	0.0289	1040.9	1.2
303.15	0.0581	1042	1.2
303.15	0.0874	1043.2	1.2
303.15	0.1171	1044.4	1.2
303.15	0.1471	1045.4	1.2
308.15	0	1038.1	1.2
308.15	0.0289	1039.3	1.2
308.15	0.0581	1040.4	1.2
308.15	0.0874	1041.5	1.2
308.15	0.1171	1042.8	1.2
308.15	0.1471	1043.8	1.2
313.15	0	1036.1	1.3
313.15	0.0289	1037.3	1.3
313.15	0.0581	1038.4	1.3
313.15	0.0874	1039.6	1.3
313.15	0.1171	1040.8	1.3
313.15	0.1471	1041.9	1.3
318.15	0	1033.5	1.3
318.15	0.0289	1034.7	1.3
318.15	0.0581	1035.8	1.3
318.15	0.0874	1037	1.3
318.15	0.1171	1038.2	1.3
318.15	0.1471	1039.3	1.3
323.15	0	1032	1.4
323.15	0.0289	1033.1	1.4
323.15	0.0581	1034.3	1.4
323.15	0.0874	1035.5	1.4
323.15	0.1171	1036.7	1.4
323.15	0.1471	1038.5	1.4

System: calcium acetate + L-arginine + water; phases: Liquid
Fixed: Pressure, kPa = 101
Fixed: Solvent: Molality, mol/kg of calcium acetate = 1
Property: Mass density, kg/m3 (Liquid); method: PYCNOM:UFactor:4
Temperature, K	Molality, mol/kg of L-arginine	Mass density, kg/m3	uncertainty
303.15	0	1075.1	1.2
303.15	0.0281	1076	1.2
303.15	0.0565	1076.8	1.2
303.15	0.0852	1077.7	1.2
303.15	0.1139	1078.6	1.2
303.15	0.1428	1079.3	1.2
308.15	0	1073.2	1.3
308.15	0.0281	1074.1	1.3
308.15	0.0565	1074.9	1.3
308.15	0.0852	1075.8	1.3
308.15	0.1139	1076.6	1.3
308.15	0.1428	1077.5	1.3
313.15	0	1071.6	1.3
313.15	0.0281	1072.5	1.3
313.15	0.0565	1073.3	1.3
313.15	0.0852	1074.2	1.3
313.15	0.1139	1075	1.3
313.15	0.1428	1075.8	1.3
318.15	0	1069.3	1.4
318.15	0.0281	1070.2	1.4
318.15	0.0565	1071	1.4
318.15	0.0852	1071.9	1.4
318.15	0.1139	1072.7	1.4
318.15	0.1428	1073.5	1.4
323.15	0	1067.1	1.4
323.15	0.0281	1068	1.4
323.15	0.0565	1068.8	1.4
323.15	0.0852	1069.7	1.4
323.15	0.1139	1070.5	1.4
323.15	0.1428	1071.3	1.4

System: L-histidine + sodium ethanoate + water; phases: Liquid
Fixed: Pressure, kPa = 101
Fixed: Solvent: Molality, mol/kg of sodium ethanoate = 1
Property: Mass density, kg/m3 (Liquid); method: PYCNOM:UFactor:4
Temperature, K	Molality, mol/kg of L-histidine	Mass density, kg/m3	uncertainty
303.15	0	1032.9	1.2
303.15	0.0291	1034.3	1.2
303.15	0.0585	1035.7	1.2
303.15	0.0879	1037.2	1.2
303.15	0.1176	1038.6	1.2
303.15	0.1474	1040	1.2
308.15	0	1031.8	1.2
308.15	0.0291	1033.3	1.2
308.15	0.0585	1034.6	1.2
308.15	0.0879	1035.9	1.2
308.15	0.1176	1037.3	1.2
308.15	0.1474	1038.7	1.2
313.15	0	1029.3	1.3
313.15	0.0291	1030.7	1.3
313.15	0.0585	1032.1	1.3
313.15	0.0879	1033.4	1.3
313.15	0.1176	1034.8	1.3
313.15	0.1474	1036.1	1.3
318.15	0	1027.5	1.3
318.15	0.0291	1028.9	1.3
318.15	0.0585	1030.2	1.3
318.15	0.0879	1031.6	1.3
318.15	0.1176	1033	1.3
318.15	0.1474	1034.3	1.3
323.15	0	1025.4	1.3
323.15	0.0291	1026.7	1.3
323.15	0.0585	1028.1	1.3
323.15	0.0879	1029.4	1.4
323.15	0.1176	1030.8	1.4
323.15	0.1474	1032.1	1.4

System: L-histidine + potassium ethanoate + water; phases: Liquid
Fixed: Pressure, kPa = 101
Fixed: Solvent: Molality, mol/kg of potassium ethanoate = 1
Property: Mass density, kg/m3 (Liquid); method: PYCNOM:UFactor:4
Temperature, K	Molality, mol/kg of L-histidine	Mass density, kg/m3	uncertainty
303.15	0	1039.7	1.2
303.15	0.0289	1041	1.2
303.15	0.058	1042.3	1.2
303.15	0.0875	1043.5	1.2
303.15	0.1168	1044.8	1.2
303.15	0.1463	1046	1.2
308.15	0	1038.1	1.2
308.15	0.0289	1039.4	1.2
308.15	0.058	1040.7	1.2
308.15	0.0875	1041.9	1.2
308.15	0.1168	1043.2	1.2
308.15	0.1463	1044.4	1.2
313.15	0	1036.1	1.3
313.15	0.0289	1037.4	1.3
313.15	0.058	1038.6	1.3
313.15	0.0875	1039.9	1.3
313.15	0.1168	1041.2	1.3
313.15	0.1463	1042.4	1.3
318.15	0	1033.5	1.3
318.15	0.0289	1034.8	1.3
318.15	0.058	1036	1.3
318.15	0.0875	1037.3	1.3
318.15	0.1168	1038.6	1.3
318.15	0.1463	1039.8	1.3
323.15	0	1032	1.4
323.15	0.0289	1033.2	1.4
323.15	0.058	1034.5	1.4
323.15	0.0875	1035.8	1.4
323.15	0.1168	1037.1	1.4
323.15	0.1463	1038.3	1.4

System: calcium acetate + L-histidine + water; phases: Liquid
Fixed: Pressure, kPa = 101
Fixed: Solvent: Molality, mol/kg of calcium acetate = 1
Property: Mass density, kg/m3 (Liquid); method: PYCNOM:UFactor:4
Temperature, K	Molality, mol/kg of L-histidine	Mass density, kg/m3	uncertainty
303.15	0	1075.1	1.2
303.15	0.028	1075.8	1.2
303.15	0.0563	1076.5	1.2
303.15	0.085	1077.2	1.2
303.15	0.1132	1077.8	1.2
303.15	0.1415	1078.5	1.2
308.15	0	1073.2	1.3
308.15	0.028	1073.9	1.3
308.15	0.0563	1074.6	1.3
308.15	0.085	1075.3	1.3
308.15	0.1132	1075.9	1.3
308.15	0.1415	1076.6	1.3
313.15	0	1071.6	1.3
313.15	0.028	1072.3	1.3
313.15	0.0563	1073	1.3
313.15	0.085	1073.7	1.3
313.15	0.1132	1074.3	1.3
313.15	0.1415	1075	1.3
318.15	0	1069.3	1.4
318.15	0.028	1069.9	1.4
318.15	0.0563	1070.6	1.4
318.15	0.085	1071.3	1.4
318.15	0.1132	1071.9	1.4
318.15	0.1415	1072.6	1.4
323.15	0	1067.1	1.4
323.15	0.028	1067.8	1.4
323.15	0.0563	1068.5	1.4
323.15	0.085	1069.1	1.4
323.15	0.1132	1069.8	1.4
323.15	0.1415	1070.5	1.4
