Measured thermophysical data. Physical Properties of Aqueous Solutions of Piperazine and (2-Amino-2-methyl-1-propanol + Piperazine) from (298.15 to 333.15) K
Source: J. Chem. Eng. Data, 2011, 10.1021/je1012586
Compound 1: piperazine, C4H10N2, InChI=1S/C4H10N2/c1-2-6-4-3-5-1/h5-6H,1-4H2
Compound 2: 2-amino-2-methylpropan-1-ol, C4H11NO, InChI=1S/C4H11NO/c1-4(2,5)3-6/h6H,3,5H2,1-2H3
Compound 3: water, H2O, InChI=1S/H2O/h1H2

System: piperazine + water; phases: Liquid, Gas
Property: Surface tension liquid-gas, N/m (Liquid); method: Pendant drop shape
Temperature, K	Mass fraction of piperazine	Surface tension liquid-gas, N/m	uncertainty
298.15	0.0174	0.07097	0.00063
298.15	0.0345	0.06995	0.00063
298.15	0.0688	0.06983	0.00062
298.15	0.1035	0.06941	0.00062
303.15	0.0174	0.07009	0.00062
303.15	0.0345	0.06918	0.00062
303.15	0.0688	0.06899	0.00061
303.15	0.1035	0.06837	0.00061
313.15	0.0174	0.06911	0.00062
313.15	0.0345	0.06821	0.00061
313.15	0.0688	0.06811	0.00061
313.15	0.1035	0.06744	0.0006
323.15	0.0174	0.06793	0.00061
323.15	0.0345	0.06729	0.0006
323.15	0.0688	0.06706	0.0006
323.15	0.1035	0.06645	0.00059
333.15	0.0174	0.06699	0.0006
333.15	0.0345	0.06648	0.00059
333.15	0.0688	0.06614	0.00059
333.15	0.1035	0.06531	0.00059

System: piperazine + water; phases: Liquid
Fixed: Pressure, kPa = 101
Property: Viscosity, Pa*s (Liquid); method: Capillary tube (Ostwald; Ubbelohde) method
Temperature, K	Mass fraction of piperazine	Viscosity, Pa*s	uncertainty
298.15	0.0174	0.00087	0.0001
298.15	0.0345	0.00094	0.0001
298.15	0.0688	0.00108	0.0001
298.15	0.1035	0.00129	0.0001
303.15	0.0174	0.00078	0.0001
303.15	0.0345	0.00085	0.0001
303.15	0.0688	0.00096	0.0001
303.15	0.1035	0.00118	0.0001
308.15	0.0174	0.00071	0.0001
308.15	0.0345	0.00075	0.0001
308.15	0.0688	0.00086	0.0001
308.15	0.1035	0.00104	0.0001
313.15	0.0174	0.00068	0.0001
313.15	0.0345	0.00069	0.0001
313.15	0.0688	0.00078	0.0001
313.15	0.1035	0.0009	0.0001
318.15	0.0174	0.00059	0.0001
318.15	0.0345	0.00063	0.0001
318.15	0.0688	0.00071	0.0001
318.15	0.1035	0.00084	0.0001
323.15	0.0174	0.00054	0.0001
323.15	0.0345	0.00057	0.0001
323.15	0.0688	0.00065	0.0001
323.15	0.1035	0.00078	0.0001
328.15	0.0174	0.0005	0.0001
328.15	0.0345	0.00052	0.0001
328.15	0.0688	0.00058	0.0001
328.15	0.1035	0.00068	0.0001
333.15	0.0174	0.00046	0.0001
333.15	0.0345	0.00048	0.0001
333.15	0.0688	0.00054	0.0001
333.15	0.1035	0.00062	0.0001

System: piperazine + water; phases: Liquid
Fixed: Pressure, kPa = 101
Property: Refractive index (Na D-line) (Liquid); method: ABBE:UFactor:4
Temperature, K	Mass fraction of piperazine	Refractive index (Na D-line)	uncertainty
298.15	0.0174	1.33796	0.00124
298.15	0.0345	1.34183	0.00124
298.15	0.0688	1.34759	0.00124
298.15	0.1035	1.35307	0.00124
303.15	0.0174	1.33706	0.00124
303.15	0.0345	1.34024	0.00124
303.15	0.0688	1.34608	0.00124
303.15	0.1035	1.35203	0.00124
313.15	0.0174	1.33604	0.00124
313.15	0.0345	1.33892	0.00124
313.15	0.0688	1.34482	0.00124
313.15	0.1035	1.35071	0.00124
323.15	0.0174	1.33476	0.00124
323.15	0.0345	1.33759	0.00124
323.15	0.0688	1.34336	0.00124
323.15	0.1035	1.34957	0.00124
333.15	0.0174	1.33348	0.00124
333.15	0.0345	1.33577	0.00124
333.15	0.0688	1.34221	0.00124
333.15	0.1035	1.34829	0.00124

System: piperazine + water; phases: Liquid
Fixed: Pressure, kPa = 101
Property: Mass density, kg/m3 (Liquid); method: VIBTUB:UFactor:2
Temperature, K	Mass fraction of piperazine	Mass density, kg/m3	uncertainty
298.15	0.0174	997.75	0.07
298.15	0.0345	998.52	0.07
298.15	0.0688	1000.18	0.07
298.15	0.1035	1002.23	0.07
303.15	0.0174	996.37	0.07
303.15	0.0345	997.08	0.07
303.15	0.0688	998.69	0.07
303.15	0.1035	1000.64	0.07
308.15	0.0174	994.74	0.07
308.15	0.0345	995.43	0.07
308.15	0.0688	996.97	0.07
308.15	0.1035	998.84	0.07
313.15	0.0174	992.91	0.07
313.15	0.0345	993.59	0.07
313.15	0.0688	995.07	0.07
313.15	0.1035	996.86	0.07
318.15	0.0174	990.9	0.07
318.15	0.0345	991.56	0.07
318.15	0.0688	992.99	0.07
318.15	0.1035	994.73	0.07
323.15	0.0174	988.72	0.08
323.15	0.0345	989.35	0.07
323.15	0.0688	990.74	0.07
323.15	0.1035	992.39	0.07
328.15	0.0174	986.37	0.08
328.15	0.0345	986.98	0.08
328.15	0.0688	988.33	0.08
328.15	0.1035	989.92	0.07
333.15	0.0174	983.83	0.08
333.15	0.0345	984.46	0.08
333.15	0.0688	985.77	0.08
333.15	0.1035	987.3	0.08

System: piperazine + 2-amino-2-methylpropan-1-ol + water; phases: Liquid, Gas
Property: Surface tension liquid-gas, N/m (Liquid); method: Pendant drop shape
Temperature, K	Mass fraction of 2-amino-2-methylpropan-1-ol	Mass fraction of piperazine	Surface tension liquid-gas, N/m	uncertainty
298.15	0.1965	0.1035	0.04783	0.00053
298.15	0.2312	0.0688	0.04669	0.00054
298.15	0.2655	0.0345	0.04602	0.00055
298.15	0.2826	0.0174	0.04539	0.00055
303.15	0.1965	0.1035	0.04629	0.00051
303.15	0.2312	0.0688	0.04532	0.00052
303.15	0.2655	0.0345	0.04466	0.00053
303.15	0.2826	0.0174	0.04415	0.00054
313.15	0.1965	0.1035	0.04442	0.00049
313.15	0.2312	0.0688	0.04382	0.0005
313.15	0.2655	0.0345	0.04326	0.00052
313.15	0.2826	0.0174	0.04272	0.00052
323.15	0.1965	0.1035	0.04277	0.00047
323.15	0.2312	0.0688	0.04209	0.00048
323.15	0.2655	0.0345	0.04152	0.0005
323.15	0.2826	0.0174	0.04106	0.0005
333.15	0.1965	0.1035	0.04114	0.00046
333.15	0.2312	0.0688	0.04071	0.00047
333.15	0.2655	0.0345	0.04014	0.00048
333.15	0.2826	0.0174	0.03972	0.00049

System: piperazine + 2-amino-2-methylpropan-1-ol + water; phases: Liquid
Fixed: Pressure, kPa = 101
Property: Viscosity, Pa*s (Liquid); method: Capillary tube (Ostwald; Ubbelohde) method
Temperature, K	Mass fraction of 2-amino-2-methylpropan-1-ol	Mass fraction of piperazine	Viscosity, Pa*s	uncertainty
298.15	0.1965	0.1035	0.00412	0.0001
298.15	0.2312	0.0688	0.00346	0.0001
298.15	0.2655	0.0345	0.00333	0.0001
298.15	0.2826	0.0174	0.00324	0.0001
303.15	0.1965	0.1035	0.00368	0.0001
303.15	0.2312	0.0688	0.00289	0.0001
303.15	0.2655	0.0345	0.00275	0.0001
303.15	0.2826	0.0174	0.00274	0.0001
308.15	0.1965	0.1035	0.00325	0.0001
308.15	0.2312	0.0688	0.00242	0.0001
308.15	0.2655	0.0345	0.00233	0.0001
308.15	0.2826	0.0174	0.00231	0.0001
313.15	0.1965	0.1035	0.00289	0.0001
313.15	0.2312	0.0688	0.00207	0.0001
313.15	0.2655	0.0345	0.00201	0.0001
313.15	0.2826	0.0174	0.00196	0.0001
318.15	0.1965	0.1035	0.00255	0.0001
318.15	0.2312	0.0688	0.0018	0.0001
318.15	0.2655	0.0345	0.00175	0.0001
318.15	0.2826	0.0174	0.00165	0.0001
323.15	0.1965	0.1035	0.00219	0.0001
323.15	0.2312	0.0688	0.00157	0.0001
323.15	0.2655	0.0345	0.00151	0.0001
323.15	0.2826	0.0174	0.00142	0.0001
328.15	0.1965	0.1035	0.00188	0.0001
328.15	0.2312	0.0688	0.00136	0.0001
328.15	0.2655	0.0345	0.00135	0.0001
328.15	0.2826	0.0174	0.00129	0.0001
333.15	0.1965	0.1035	0.00161	0.0001
333.15	0.2312	0.0688	0.00123	0.0001
333.15	0.2655	0.0345	0.00118	0.0001
333.15	0.2826	0.0174	0.00116	0.0001

System: piperazine + 2-amino-2-methylpropan-1-ol + water; phases: Liquid
Fixed: Pressure, kPa = 101
Property: Refractive index (Na D-line) (Liquid); method: ABBE:UFactor:4
Temperature, K	Mass fraction of 2-amino-2-methylpropan-1-ol	Mass fraction of piperazine	Refractive index (Na D-line)	uncertainty
298.15	0.1965	0.1035	1.38156	0.00126
298.15	0.2312	0.0688	1.38032	0.00126
298.15	0.2655	0.0345	1.37895	0.00127
298.15	0.2826	0.0174	1.37829	0.00127
303.15	0.1965	0.1035	1.38024	0.00126
303.15	0.2312	0.0688	1.37888	0.00126
303.15	0.2655	0.0345	1.37763	0.00127
303.15	0.2826	0.0174	1.37685	0.00127
313.15	0.1965	0.1035	1.37891	0.00126
313.15	0.2312	0.0688	1.37719	0.00126
313.15	0.2655	0.0345	1.37615	0.00127
313.15	0.2826	0.0174	1.37523	0.00127
323.15	0.1965	0.1035	1.37749	0.00126
323.15	0.2312	0.0688	1.37579	0.00126
323.15	0.2655	0.0345	1.37443	0.00127
323.15	0.2826	0.0174	1.37348	0.00127
333.15	0.1965	0.1035	1.37601	0.00126
333.15	0.2312	0.0688	1.37421	0.00126
333.15	0.2655	0.0345	1.37306	0.00127
333.15	0.2826	0.0174	1.37189	0.00127

System: piperazine + 2-amino-2-methylpropan-1-ol + water; phases: Liquid
Fixed: Pressure, kPa = 101
Property: Mass density, kg/m3 (Liquid); method: VIBTUB:UFactor:8
Temperature, K	Mass fraction of 2-amino-2-methylpropan-1-ol	Mass fraction of piperazine	Mass density, kg/m3	uncertainty
298.15	0.1965	0.1035	1004.88	0.49
298.15	0.2312	0.0688	1002.29	0.56
298.15	0.2655	0.0345	999.48	0.64
298.15	0.2826	0.0174	998.15	0.69
303.15	0.1965	0.1035	1002.17	0.48
303.15	0.2312	0.0688	999.54	0.55
303.15	0.2655	0.0345	996.71	0.65
303.15	0.2826	0.0174	995.37	0.7
308.15	0.1965	0.1035	999.32	0.47
308.15	0.2312	0.0688	996.66	0.56
308.15	0.2655	0.0345	993.81	0.65
308.15	0.2826	0.0174	992.46	0.71
313.15	0.1965	0.1035	996.37	0.48
313.15	0.2312	0.0688	993.66	0.57
313.15	0.2655	0.0345	990.8	0.66
313.15	0.2826	0.0174	989.44	0.71
318.15	0.1965	0.1035	993.3	0.49
318.15	0.2312	0.0688	990.56	0.57
318.15	0.2655	0.0345	987.68	0.67
318.15	0.2826	0.0174	986.31	0.72
323.15	0.1965	0.1035	990.12	0.5
323.15	0.2312	0.0688	987.35	0.58
323.15	0.2655	0.0345	984.46	0.68
323.15	0.2826	0.0174	983.08	0.73
328.15	0.1965	0.1035	986.78	0.51
328.15	0.2312	0.0688	984.04	0.59
328.15	0.2655	0.0345	981.13	0.68
328.15	0.2826	0.0174	979.75	0.73
333.15	0.1965	0.1035	983.43	0.52
333.15	0.2312	0.0688	980.62	0.6
333.15	0.2655	0.0345	977.7	0.69
333.15	0.2826	0.0174	976.31	0.74
