Measured thermophysical data. Isobaric Vapor-Liquid Equilibria for Binary and Ternary Mixtures with Cyclohexane, Cyclohexene, and Methyl Isobutyl Ketone at 100 kPa
Source: J. Chem. Eng. Data, 2010, 10.1021/je100776x
Compound 1: cyclohexane, C6H12, InChI=1S/C6H12/c1-2-4-6-5-3-1/h1-6H2, purity 99.8%
Compound 2: cyclohexene, C6H10, InChI=1S/C6H10/c1-2-4-6-5-3-1/h1-2H,3-6H2, purity 99.5%
Compound 3: 4-methylpentan-2-one, C6H12O, InChI=1S/C6H12O/c1-5(2)4-6(3)7/h5H,4H2,1-3H3, purity 99.5%

System: cyclohexane; phases: Liquid, Gas
Property: Normal boiling temperature, K (Liquid); method: Ebulliometric method (Recirculating still)
Normal boiling temperature, K	uncertainty
353.73	0.2

System: cyclohexane; phases: Liquid
Property: Refractive index (Na D-line) (Liquid); method: Standard Abbe refractometry
Temperature, K	Pressure, kPa	Refractive index (Na D-line)	uncertainty
298.15	101.325	1.4238	0.0005

System: cyclohexane; phases: Liquid
Property: Mass density, kg/m3 (Liquid); method: Vibrating tube method
Temperature, K	Pressure, kPa	Mass density, kg/m3	uncertainty
298.15	101.325	773.82	0.13

System: cyclohexene; phases: Liquid, Gas
Property: Normal boiling temperature, K (Liquid); method: Ebulliometric method (Recirculating still)
Normal boiling temperature, K	uncertainty
355.97	0.21

System: cyclohexene; phases: Liquid
Property: Refractive index (Na D-line) (Liquid); method: Standard Abbe refractometry
Temperature, K	Pressure, kPa	Refractive index (Na D-line)	uncertainty
298.15	101.325	1.4444	0.0005

System: cyclohexene; phases: Liquid
Property: Mass density, kg/m3 (Liquid); method: Vibrating tube method
Temperature, K	Pressure, kPa	Mass density, kg/m3	uncertainty
298.15	101.325	805.69	0.14

System: 4-methylpentan-2-one; phases: Liquid
Property: Refractive index (Na D-line) (Liquid); method: Standard Abbe refractometry
Temperature, K	Pressure, kPa	Refractive index (Na D-line)	uncertainty
298.15	101.325	1.3942	0.0005

System: 4-methylpentan-2-one; phases: Liquid
Property: Mass density, kg/m3 (Liquid); method: Vibrating tube method
Temperature, K	Pressure, kPa	Mass density, kg/m3	uncertainty
298.15	101.325	796.03	0.14

System: 4-methylpentan-2-one; phases: Liquid, Gas
Property: Vapor or sublimation pressure, kPa (Liquid); method: EBULLIO:UFactor:2
Temperature, K	Vapor or sublimation pressure, kPa	uncertainty
343.76	22.45	0.2
346.51	24.97	0.2
349.09	27.43	0.21
351.46	29.98	0.21
353.65	32.46	0.21
355.76	35.07	0.21
357.68	37.44	0.21
359.54	39.99	0.21
361.33	42.54	0.21
362.97	44.96	0.21
364.61	47.52	0.21
366.15	50.02	0.21
367.55	52.44	0.21
369.05	55.08	0.22
370.35	57.48	0.22
371.66	59.96	0.22
372.96	62.51	0.22
374.22	65.08	0.22
375.35	67.44	0.22
376.56	70.07	0.22
377.63	72.41	0.22
378.73	74.98	0.23
379.78	77.41	0.23
380.83	79.93	0.23
381.84	82.44	0.23
382.84	84.96	0.23
383.8	87.44	0.23
384.71	89.85	0.23
385.67	92.47	0.23
386.6	95.07	0.24
387.45	97.46	0.24
387.82	98.52	0.24
388.33	99.98	0.24
388.78	101.33	0.24

System: 4-methylpentan-2-one + cyclohexane; phases: Liquid, Gas
Fixed: Pressure, kPa = 100
Property: Boiling temperature at pressure P, K (Liquid); method: EBULLIO:UFactor:2
Mole fraction of cyclohexane	Boiling temperature at pressure P, K	uncertainty
0.019	386.18	0.26
0.046	383.47	0.25
0.093	379.36	0.24
0.141	375.68	0.22
0.189	372.75	0.21
0.231	370.2	0.2
0.284	367.59	0.19
0.34	365.23	0.19
0.395	363.35	0.18
0.449	361.59	0.18
0.511	360.17	0.18
0.545	359.4	0.18
0.602	358.22	0.18
0.654	357.29	0.17
0.714	356.32	0.17
0.769	355.67	0.17
0.812	355.02	0.17
0.867	354.41	0.17
0.917	353.96	0.17
0.963	353.6	0.17
0.987	353.41	0.17

System: 4-methylpentan-2-one + cyclohexane; phases: Gas, Liquid
Fixed: Pressure, kPa = 100
Property: Mole fraction of cyclohexane (Gas); method: Chromatography
Mole fraction of cyclohexane	Mole fraction of cyclohexane	uncertainty
0.019	0.072	0.007
0.046	0.168	0.007
0.093	0.3	0.006
0.141	0.407	0.006
0.189	0.486	0.006
0.231	0.547	0.005
0.284	0.61	0.005
0.34	0.662	0.004
0.395	0.708	0.004
0.449	0.743	0.003
0.511	0.77	0.003
0.545	0.784	0.003
0.602	0.809	0.003
0.654	0.832	0.003
0.714	0.855	0.003
0.769	0.875	0.002
0.812	0.895	0.002
0.867	0.918	0.002
0.917	0.943	0.002
0.963	0.972	0.002
0.987	0.989	0.003

System: 4-methylpentan-2-one + cyclohexene; phases: Liquid, Gas
Fixed: Pressure, kPa = 100
Property: Boiling temperature at pressure P, K (Liquid); method: EBULLIO:UFactor:2
Mole fraction of cyclohexene	Boiling temperature at pressure P, K	uncertainty
0.018	386.75	0.23
0.044	384.79	0.23
0.08	382.14	0.22
0.123	379.35	0.21
0.166	376.76	0.21
0.213	374.3	0.2
0.258	372.05	0.2
0.299	370.25	0.19
0.358	367.94	0.19
0.422	365.79	0.18
0.474	364.34	0.18
0.527	363.04	0.18
0.582	361.85	0.18
0.637	360.65	0.18
0.687	359.7	0.18
0.74	358.85	0.17
0.79	358	0.17
0.843	357.29	0.17
0.893	356.65	0.17
0.946	356.08	0.17
0.978	355.77	0.17

System: 4-methylpentan-2-one + cyclohexene; phases: Gas, Liquid
Fixed: Pressure, kPa = 100
Property: Mole fraction of cyclohexene (Gas); method: Chromatography
Mole fraction of cyclohexene	Mole fraction of cyclohexene	uncertainty
0.018	0.059	0.006
0.044	0.136	0.006
0.08	0.229	0.006
0.123	0.324	0.005
0.166	0.403	0.005
0.213	0.485	0.006
0.258	0.543	0.005
0.299	0.592	0.005
0.358	0.647	0.004
0.422	0.698	0.004
0.474	0.733	0.004
0.527	0.764	0.003
0.582	0.794	0.003
0.637	0.819	0.003
0.687	0.841	0.003
0.74	0.865	0.003
0.79	0.888	0.003
0.843	0.911	0.002
0.893	0.936	0.002
0.946	0.964	0.002
0.978	0.984	0.002

System: 4-methylpentan-2-one + cyclohexane + cyclohexene; phases: Liquid, Gas
Fixed: Pressure, kPa = 100
Property: Mole fraction of cyclohexene (Liquid); method: Chromatography
Property: Mole fraction of cyclohexene (Gas); method: Chromatography
Property: Mole fraction of cyclohexane (Gas); method: Chromatography
Temperature, K	Mole fraction of cyclohexane	Mole fraction of cyclohexene	uncertainty	Mole fraction of cyclohexene	uncertainty	Mole fraction of cyclohexane	uncertainty
380.48	0.047	0.047	0.002	0.126	0.002	0.15	
370.24	0.048	0.242	0.003	0.467	0.005	0.112	
363.61	0.049	0.44	0.004	0.656	0.004	0.086	
359.36	0.049	0.646	0.003	0.779	0.003	0.069	
355.89	0.05	0.901	0.002	0.911	0.002	0.056	
356.27	0.102	0.799	0.003	0.822	0.003	0.117	
357.59	0.101	0.695	0.003	0.765	0.003	0.126	
359.19	0.099	0.591	0.004	0.708	0.003	0.137	
361.03	0.099	0.49	0.004	0.646	0.004	0.15	
363.31	0.096	0.388	0.003	0.575	0.004	0.167	
366.16	0.096	0.29	0.003	0.484	0.005	0.189	
369.59	0.099	0.194	0.002	0.366	0.004	0.221	
373.73	0.098	0.098	0.002	0.216	0.003	0.255	
368.34	0.196	0.1	0.002	0.181	0.003	0.418	
365.07	0.199	0.198	0.003	0.316	0.003	0.37	
362.75	0.198	0.291	0.003	0.417	0.004	0.328	
360.34	0.197	0.4	0.004	0.513	0.005	0.29	
358.41	0.202	0.507	0.004	0.588	0.004	0.265	
356.34	0.204	0.663	0.003	0.686	0.004	0.234	
355.36	0.202	0.755	0.003	0.75	0.003	0.219	
355.55	0.299	0.604	0.004	0.609	0.004	0.331	
356.82	0.296	0.498	0.004	0.535	0.005	0.356	
358.27	0.296	0.397	0.004	0.456	0.005	0.388	
359.95	0.295	0.29	0.003	0.369	0.004	0.429	
361.99	0.297	0.195	0.002	0.269	0.003	0.478	
365.98	0.284	0.045	0.002	0.078	0.002	0.569	
361.18	0.394	0.1	0.002	0.136	0.002	0.62	
359.13	0.401	0.199	0.003	0.244	0.003	0.563	
357.59	0.401	0.303	0.003	0.34	0.004	0.508	
356.31	0.403	0.402	0.004	0.422	0.004	0.47	
354.81	0.398	0.55	0.004	0.541	0.005	0.424	
355.05	0.499	0.398	0.004	0.396	0.004	0.54	
356.11	0.497	0.298	0.003	0.312	0.003	0.577	
357.33	0.493	0.204	0.003	0.23	0.003	0.62	
359.47	0.498	0.055	0.002	0.07	0.002	0.717	
356.82	0.608	0.1	0.002	0.11	0.002	0.744	
355.72	0.599	0.203	0.003	0.208	0.003	0.684	
354.36	0.6	0.35	0.003	0.34	0.004	0.625	
354.54	0.7	0.199	0.003	0.196	0.003	0.74	
356.18	0.699	0.052	0.002	0.056	0.002	0.811	
354.29	0.8	0.104	0.002	0.102	0.002	0.835	
353.82	0.899	0.053	0.002	0.051	0.002	0.914	
