Measured thermophysical data. Heat Capacities and Low Temperature Thermal Transitions of 1-Hexyl and 1-Octyl-3-methylimidazolium bis(trifluoromethylsulfonyl)amide
Source: J. Chem. Eng. Data, 2011, 10.1021/je101213p
Compound 1: 1-hexyl-3-methylimidazolium bis[(trifluoromethyl)sulfonyl]imide, C12H19F6N3O4S2, InChI=1S/C10H19N2.C2F6NO4S2/c1-3-4-5-6-7-12-9-8-11(2)10-12;3-1(4,5)14(10,11)9-15(12,13)2(6,7)8/h8-10H,3-7H2,1-2H3;/q+1;-1
Compound 2: 1-octyl-3-methylimidazolium bis[(trifluoromethyl)sulfonyl]imide, C14H23F6N3O4S2, InChI=1S/C12H23N2.C2F6NO4S2/c1-3-4-5-6-7-8-9-14-11-10-13(2)12-14;3-1(4,5)14(10,11)9-15(12,13)2(6,7)8/h10-12H,3-9H2,1-2H3;/q+1;-1

System: 1-hexyl-3-methylimidazolium bis[(trifluoromethyl)sulfonyl]imide; phases: Crystal, Liquid, Air at 1 atmosphere
Property: Molar enthalpy of transition or fusion, kJ/mol (Crystal); method: DSC
Molar enthalpy of transition or fusion, kJ/mol	uncertainty
27.7132085223979	1.771781216832

System: 1-hexyl-3-methylimidazolium bis[(trifluoromethyl)sulfonyl]imide; phases: Crystal, Liquid, Air at 1 atmosphere
Property: Normal melting temperature, K (Crystal); method: DTA
Normal melting temperature, K	uncertainty
271.45	0.61

System: 1-hexyl-3-methylimidazolium bis[(trifluoromethyl)sulfonyl]imide; phases: Liquid
Fixed: Pressure, kPa = 101.325
Property: Molar heat capacity at constant pressure, J/K/mol (Liquid); method: Large sample (1 g) DSC
Temperature, K	Molar heat capacity at constant pressure, J/K/mol	uncertainty
302.86	655.9169858272	21.919081265808
312.83	632.6511718688	21.0287164624
312.83	660.8386003184	21.919081265808
322.79	666.655053808	21.919081265808
322.81	640.7047228544	21.480610156592
332.76	667.9973123056	22.37097496
332.78	648.75827384	21.480610156592
342.73	671.5766682992	22.37097496
342.76	657.2592443248	21.919081265808
352.7	676.9457022896	22.37097496
352.72	666.655053808	21.919081265808
362.67	683.6569947776	22.8183944592
362.68	679.1827997856	22.37097496
372.64	690.8157067648	22.8183944592
372.64	690.8157067648	22.8183944592

System: 1-octyl-3-methylimidazolium bis[(trifluoromethyl)sulfonyl]imide; phases: Metastable crystal, Liquid, Air at 1 atmosphere
Property: Molar enthalpy of transition or fusion, kJ/mol (Metastable crystal); method: DSC
Molar enthalpy of transition or fusion, kJ/mol	uncertainty
27.4348199831059	1.754494112448

System: 1-octyl-3-methylimidazolium bis[(trifluoromethyl)sulfonyl]imide; phases: Metastable crystal, Liquid, Air at 1 atmosphere
Property: Normal melting temperature, K (Metastable crystal); method: DTA
Normal melting temperature, K	uncertainty
249.81	0.61

System: 1-octyl-3-methylimidazolium bis[(trifluoromethyl)sulfonyl]imide; phases: Liquid
Fixed: Pressure, kPa = 101.325
Property: Molar heat capacity at constant pressure, J/K/mol (Liquid); method: Large sample (1 g) DSC
Temperature, K	Molar heat capacity at constant pressure, J/K/mol	uncertainty
281.99	693.7146097728	22.817932915008
291.95	695.6165004096	23.2981603008
302.86	690.3863011584	22.817932915008
302.88	692.2881917952	22.817932915008
312.83	705.1259535936	23.2981603008
312.86	705.6014262528	23.2981603008
322.79	714.1599341184	23.768878233408
322.84	719.8656060288	23.768878233408
332.76	719.8656060288	23.768878233408
332.81	732.7033678272	24.2491056192
342.72	725.5712779392	24.2491056192
342.78	748.3939655808	24.719823551808
352.68	730.3260045312	24.2491056192
352.74	757.9034187648	25.2000509376
362.65	736.98262176	24.2491056192
362.71	767.888344608	25.680278323392
372.62	742.2128210112	24.719823551808
372.66	779.775161088	25.680278323392
