Measured thermophysical data. Thermodynamic and Thermophysical Properties of Ionic Liquid + Water Systems
Source: J. Chem. Eng. Data, 2010, 10.1021/je100522z
Compound 1: 1-(2-hydroxyethyl)-3-methyl-1H-imidazolium 2,2,2-trifluoroacetate, C8H11F3N2O3, InChI=1S/C6H11N2O.C2HF3O2/c1-7-2-3-8(6-7)4-5-9;3-2(4,5)1(6)7/h2-3,6,9H,4-5H2,1H3;(H,6,7)/q+1;/p-1, purity 99%
Compound 2: 1-ethyl-3-methylimidazolium hydrogen sulfate, C6H12N2O4S, InChI=1S/C6H11N2.H2O4S/c1-3-8-5-4-7(2)6-8;1-5(2,3)4/h4-6H,3H2,1-2H3;(H2,1,2,3,4)/q+1;/p-1, purity 98%
Compound 3: 1-ethyl-3-methylimidazolium methylsulfate, C7H14N2O4S, InChI=1S/C6H11N2.CH4O4S/c1-3-8-5-4-7(2)6-8;1-5-6(2,3)4/h4-6H,3H2,1-2H3;1H3,(H,2,3,4)/q+1;/p-1, purity 99%
Compound 4: 1-ethyl-3-methylimidazolium methanesulfonate, C7H14N2O3S, InChI=1S/C6H11N2.CH4O3S/c1-3-8-5-4-7(2)6-8;1-5(2,3)4/h4-6H,3H2,1-2H3;1H3,(H,2,3,4)/q+1;/p-1, purity 99%
Compound 5: 1-ethyl-3-methylimidazolium thiocyanate, C7H11N3S, InChI=1S/C6H11N2.CHNS/c1-3-8-5-4-7(2)6-8;2-1-3/h4-6H,3H2,1-2H3;3H/q+1;/p-1, purity 99%
Compound 6: 1-ethyl-3-methylimidazolium diethyl phosphate, C10H21N2O4P, InChI=1S/C6H11N2.C4H11O4P/c1-3-8-5-4-7(2)6-8;1-3-7-9(5,6)8-4-2/h4-6H,3H2,1-2H3;3-4H2,1-2H3,(H,5,6)/q+1;/p-1, purity 99%
Compound 7: tributylethylphosphonium diethylphosphate, C18H42O4P2, InChI=1S/C14H32P.C4H11O4P/c1-5-9-12-15(8-4,13-10-6-2)14-11-7-3;1-3-7-9(5,6)8-4-2/h5-14H2,1-4H3;3-4H2,1-2H3,(H,5,6)/q+1;/p-1, purity 99%
Compound 8: 1-hexyl-3-methylimidazolium trifluoromethanesulfonate, C11H19F3N2O3S, InChI=1S/C10H19N2.CHF3O3S/c1-3-4-5-6-7-12-9-8-11(2)10-12;2-1(3,4)8(5,6)7/h8-10H,3-7H2,1-2H3;(H,5,6,7)/q+1;/p-1, purity 99%
Compound 9: water, H2O, InChI=1S/H2O/h1H2, purity 99.99%

System: 1-(2-hydroxyethyl)-3-methyl-1H-imidazolium 2,2,2-trifluoroacetate; phases: Liquid
Fixed: Pressure, kPa = 101.325
Property: Molar heat capacity at constant pressure, J/K/mol (Liquid); method: Small sample (50 mg) DSC
Temperature, K	Molar heat capacity at constant pressure, J/K/mol	uncertainty
283.15	362	29
293.15	367	30
303.15	371	30
313.15	376	31
323.15	381	31
333.15	387	31
343.15	394	32

System: 1-(2-hydroxyethyl)-3-methyl-1H-imidazolium 2,2,2-trifluoroacetate; phases: Liquid
Fixed: Pressure, kPa = 101.325
Property: Mass density, kg/m3 (Liquid); method: VIBTUB:UFactor:8
Temperature, K	Mass density, kg/m3	uncertainty
293.15	1370.39	1.8
298.15	1366.36	1.79
303.15	1362.51	1.77
313.15	1354.8	1.7
323.15	1346.98	1.72
333.15	1339.46	1.69
343.15	1331.98	1.66

System: 1-ethyl-3-methylimidazolium hydrogen sulfate; phases: Liquid
Fixed: Pressure, kPa = 101.325
Property: Molar heat capacity at constant pressure, J/K/mol (Liquid); method: Small sample (50 mg) DSC
Temperature, K	Molar heat capacity at constant pressure, J/K/mol	uncertainty
283.15	290	24
293.15	294	24
303.15	297	24
313.15	302	25
323.15	306	25
333.15	313	25
343.15	324	26

System: 1-ethyl-3-methylimidazolium hydrogen sulfate; phases: Liquid
Fixed: Pressure, kPa = 101.325
Property: Mass density, kg/m3 (Liquid); method: VIBTUB:UFactor:8
Temperature, K	Mass density, kg/m3	uncertainty
293.15	1369.28	2.94
298.15	1365.79	2.92
303.15	1362.63	2.9
313.15	1356.27	2.87
323.15	1350.14	2.84
333.15	1344.38	2.81
343.15	1338.46	2.78

System: 1-ethyl-3-methylimidazolium methylsulfate; phases: Liquid
Fixed: Pressure, kPa = 101.325
Property: Molar heat capacity at constant pressure, J/K/mol (Liquid); method: Small sample (50 mg) DSC
Temperature, K	Molar heat capacity at constant pressure, J/K/mol	uncertainty
283.15	324	26
293.15	330	27
303.15	332	27
313.15	337	27
323.15	343	28
333.15	347	28
343.15	354	29

System: 1-ethyl-3-methylimidazolium methylsulfate; phases: Liquid
Fixed: Pressure, kPa = 101.325
Property: Mass density, kg/m3 (Liquid); method: VIBTUB:UFactor:8
Temperature, K	Mass density, kg/m3	uncertainty
293.15	1291.15	1.51
298.15	1287.75	1.49
303.15	1284.37	1.48
313.15	1277.61	1.46
323.15	1270.87	1.43
333.15	1264.22	1.41
343.15	1257.72	1.39

System: 1-ethyl-3-methylimidazolium methanesulfonate; phases: Liquid
Fixed: Pressure, kPa = 101.325
Property: Molar heat capacity at constant pressure, J/K/mol (Liquid); method: Small sample (50 mg) DSC
Temperature, K	Molar heat capacity at constant pressure, J/K/mol	uncertainty
283.15	327	27
293.15	327	27
303.15	330	27
313.15	334	27
323.15	339	28
333.15	344	28
343.15	350	28

System: 1-ethyl-3-methylimidazolium methanesulfonate; phases: Liquid
Fixed: Pressure, kPa = 101.325
Property: Mass density, kg/m3 (Liquid); method: VIBTUB:UFactor:8
Temperature, K	Mass density, kg/m3	uncertainty
293.15	1247.31	1.34
298.15	1243.83	1.33
303.15	1240.45	1.32
313.15	1233.48	1.29
323.15	1227.03	1.27
333.15	1220.33	1.25
343.15	1213.79	1.23

System: 1-ethyl-3-methylimidazolium thiocyanate; phases: Liquid
Fixed: Pressure, kPa = 101.325
Property: Molar heat capacity at constant pressure, J/K/mol (Liquid); method: Small sample (50 mg) DSC
Temperature, K	Molar heat capacity at constant pressure, J/K/mol	uncertainty
283.15	285	23
293.15	287	23
303.15	288	23
313.15	290	24
323.15	293	24
333.15	296	24
343.15	300	24

System: 1-ethyl-3-methylimidazolium thiocyanate; phases: Liquid
Fixed: Pressure, kPa = 101.325
Property: Mass density, kg/m3 (Liquid); method: VIBTUB:UFactor:8
Temperature, K	Mass density, kg/m3	uncertainty
293.15	1119.02	0.88
298.15	1115.96	0.86
303.15	1112.91	0.85
313.15	1106.85	0.83
323.15	1100.85	0.81
333.15	1094.91	0.79
343.15	1089.06	0.77

System: 1-ethyl-3-methylimidazolium diethyl phosphate; phases: Liquid
Fixed: Pressure, kPa = 101.325
Property: Molar heat capacity at constant pressure, J/K/mol (Liquid); method: Small sample (50 mg) DSC
Temperature, K	Molar heat capacity at constant pressure, J/K/mol	uncertainty
283.15	517	42
293.15	528	43
303.15	533	43
313.15	540	44
323.15	545	44
333.15	547	44
343.15	557	45

System: 1-ethyl-3-methylimidazolium diethyl phosphate; phases: Liquid
Fixed: Pressure, kPa = 101.325
Property: Mass density, kg/m3 (Liquid); method: VIBTUB:UFactor:8
Temperature, K	Mass density, kg/m3	uncertainty
293.15	1148.92	0.98
298.15	1145.47	0.97
303.15	1142.03	0.96
313.15	1135.19	0.94
323.15	1128.57	0.91
333.15	1121.94	0.89
343.15	1115.36	0.86

System: tributylethylphosphonium diethylphosphate; phases: Liquid
Fixed: Pressure, kPa = 101.325
Property: Molar heat capacity at constant pressure, J/K/mol (Liquid); method: Small sample (50 mg) DSC
Temperature, K	Molar heat capacity at constant pressure, J/K/mol	uncertainty
283.15	683	55
293.15	706	57
303.15	716	58
313.15	728	59
323.15	739	60
333.15	753	61
343.15	768	62

System: tributylethylphosphonium diethylphosphate; phases: Liquid
Fixed: Pressure, kPa = 101.325
Property: Mass density, kg/m3 (Liquid); method: VIBTUB:UFactor:8
Temperature, K	Mass density, kg/m3	uncertainty
293.15	1010.74	0.48
298.15	1007.43	0.47
303.15	1004.1	0.5
313.15	997.42	0.45
323.15	990.87	0.47
333.15	984.33	0.49
343.15	977.79	0.51

System: 1-hexyl-3-methylimidazolium trifluoromethanesulfonate; phases: Liquid
Fixed: Pressure, kPa = 101.325
Property: Molar heat capacity at constant pressure, J/K/mol (Liquid); method: Small sample (50 mg) DSC
Temperature, K	Molar heat capacity at constant pressure, J/K/mol	uncertainty
283.15	484	39
293.15	493	40
303.15	500	41
313.15	506	41
323.15	513	42
333.15	516	42
343.15	522	42

System: water + 1-ethyl-3-methylimidazolium thiocyanate; phases: Liquid
Fixed: Pressure, kPa = 101.3
Property: Excess molar enthalpy (molar enthalpy of mixing), kJ/mol (Liquid); method: Calvet calorimetry
Temperature, K	Mole fraction of water	Excess molar enthalpy (molar enthalpy of mixing), kJ/mol	uncertainty
313.14	0.1503	-0.247	0.01
313.14	0.2483	-0.362	0.015
313.14	0.2501	-0.363	0.015
313.14	0.498	-0.423	0.017
313.14	0.4996	-0.422	0.017
313.14	0.7488	-0.109	0.005
313.14	0.7493	-0.108	0.005
313.14	0.8994	0.181	0.008
313.14	0.8996	0.18	0.007
313.14	0.1503	-0.247	0.01
333.14	0.1477	-0.257	0.011
333.14	0.1479	-0.255	0.011
333.14	0.25	-0.371	0.015
333.14	0.2506	-0.372	0.015
333.14	0.5014	-0.393	0.016
333.14	0.5016	-0.394	0.016
333.14	0.6521	-0.202	0.008
333.14	0.6524	-0.202	0.008
333.14	0.8965	0.259	0.011
333.14	0.898	0.26	0.011
348.13	0.1467	-0.263	0.011
348.13	0.1516	-0.273	0.011
348.13	0.2472	-0.37	0.015
348.13	0.251	-0.367	0.015
348.13	0.499	-0.364	0.015
348.13	0.4992	-0.363	0.015
348.13	0.6015	-0.231	0.01
348.13	0.6029	-0.228	0.009
348.13	0.8992	0.343	0.014
348.13	0.8993	0.343	0.014

System: water + 1-ethyl-3-methylimidazolium diethyl phosphate; phases: Liquid
Fixed: Pressure, kPa = 101.3
Property: Excess molar enthalpy (molar enthalpy of mixing), kJ/mol (Liquid); method: Calvet calorimetry
Temperature, K	Mole fraction of water	Excess molar enthalpy (molar enthalpy of mixing), kJ/mol	uncertainty
313.13	0.2497	-3.4	0.138
313.13	0.2506	-3.41	0.139
313.13	0.5025	-5.62	0.228
313.13	0.5036	-5.61	0.228
313.13	0.7514	-5.25	0.213
313.13	0.7538	-5.23	0.213
333.13	0.2456	-3.29	0.134
333.13	0.2473	-3.29	0.134
333.13	0.4977	-5.47	0.222
333.13	0.508	-5.54	0.225
333.13	0.7491	-5.13	0.209
333.13	0.7512	-5.09	0.207
348.12	0.2452	-3.26	0.133
348.12	0.2477	-3.33	0.135
348.12	0.4992	-5.39	0.219
348.12	0.4996	-5.379	0.219
348.12	0.7481	-4.97	0.202
348.12	0.7485	-4.95	0.201

System: water + tributylethylphosphonium diethylphosphate; phases: Liquid
Fixed: Pressure, kPa = 101.3
Property: Excess molar enthalpy (molar enthalpy of mixing), kJ/mol (Liquid); method: Calvet calorimetry
Temperature, K	Mole fraction of water	Excess molar enthalpy (molar enthalpy of mixing), kJ/mol	uncertainty
313.11	0.2619	-1.32	0.054
313.11	0.2622	-1.33	0.054
313.11	0.5134	-2.59	0.105
313.11	0.5174	-2.61	0.106
313.11	0.762	-2.91	0.118
313.11	0.7628	-2.91	0.118
333.11	0.2606	-1.19	0.048
333.11	0.2633	-1.21	0.049
333.11	0.5116	-2.31	0.094
333.11	0.5118	-2.32	0.094
333.11	0.7594	-2.59	0.105
333.11	0.7601	-2.6	0.106
348.11	0.2623	-1.13	0.046
348.11	0.2642	-1.14	0.046
348.11	0.5185	-2.14	0.087
348.11	0.5213	-2.15	0.087
348.11	0.7613	-2.32	0.094
348.11	0.7635	-2.32	0.094

System: water + 1-hexyl-3-methylimidazolium trifluoromethanesulfonate; phases: Liquid
Fixed: Pressure, kPa = 101.3
Property: Excess molar enthalpy (molar enthalpy of mixing), kJ/mol (Liquid); method: Calvet calorimetry
Temperature, K	Mole fraction of water	Excess molar enthalpy (molar enthalpy of mixing), kJ/mol	uncertainty
313.12	0.3964	1.36	0.055
313.12	0.3978	1.36	0.055
313.12	0.6294	1.62	0.066
313.12	0.6334	1.62	0.066
313.12	0.8633	0.726	0.03
313.12	0.8633	0.72	0.029
333.12	0.3946	1.48	0.06
333.12	0.3993	1.5	0.061
333.12	0.6304	1.88	0.076
333.12	0.8633	1	0.041
333.12	0.6304	1.88	0.076
333.12	0.8633	1	0.041
348.13	0.3956	1.58	0.064
348.13	0.3977	1.6	0.065
348.13	0.6302	2.11	0.086
348.13	0.635	2.11	0.086
348.13	0.8633	1.21	0.049
348.13	0.8633	1.21	0.049
