Measured thermophysical data. PpT Measurements of the (Ethanol + Linalool), (Propan-1-ol + Linalool), and (Propan-2-ol + Linalool) Mixtures: Cubic and Statistical Associating Fluid Theory-Based Equation of State Analyses
Source: J. Chem. Eng. Data, 2010, 10.1021/je100581m
Compound 1: 3,7-dimethyl-1,6-octadien-3-ol, C10H18O, InChI=1S/C10H18O/c1-5-10(4,11)8-6-7-9(2)3/h5,7,11H,1,6,8H2,2-4H3, purity 98.2%
Compound 2: ethanol, C2H6O, InChI=1S/C2H6O/c1-2-3/h3H,2H2,1H3, purity 99.9%
Compound 3: propan-1-ol, C3H8O, InChI=1S/C3H8O/c1-2-3-4/h4H,2-3H2,1H3, purity 99.9%
Compound 4: propan-2-ol, C3H8O, InChI=1S/C3H8O/c1-3(2)4/h3-4H,1-2H3, purity 99.9%

System: 3,7-dimethyl-1,6-octadien-3-ol; phases: Liquid
Property: Mass density, kg/m3 (Liquid); method: Vibrating tube method
Temperature, K	Pressure, kPa	Mass density, kg/m3	uncertainty
283.15	100	869.2	1.1
283.15	5000	872.3	1.1
283.15	10000	875.2	1.2
283.15	15000	878.2	1.2
283.15	20000	881	1.2
283.15	100	869.5	1.1
283.15	5000	872.6	1.1
283.15	10000	875.7	1.2
283.15	15000	878.7	1.2
283.15	20000	881.5	1.2
283.18	15000	878.7	1.2
298.15	100	856.9	1.1
298.15	5000	860.1	1.1
298.15	10000	863.5	1.2
298.15	15000	866.6	1.2
298.15	20000	869.6	1.2
298.15	100	857.3	1.1
298.15	5000	860.6	1.1
298.15	10000	863.9	1.2
298.15	15000	867	1.2
298.15	20000	870	1.2
313.15	100	844.1	1.1
313.15	5000	847.8	1.1
313.15	10000	851.3	1.1
313.15	15000	854.8	1.2
313.15	20000	858.1	1.2
313.15	100	844.5	1.1
313.15	5000	848.2	1.1
313.15	10000	851.6	1.1
313.15	15000	855	1.2
313.15	20000	858.4	1.2
328.15	100	831.3	1.1
328.15	5000	835.2	1.1
328.15	10000	839.1	1.1
328.15	15000	842.7	1.2
328.15	20000	846.3	1.2
328.15	100	831.7	1.1
328.15	5000	835.6	1.1
328.15	10000	839.5	1.1
328.15	15000	843.1	1.2
328.15	20000	846.7	1.2
328.18	10000	839.5	1.1

System: ethanol; phases: Liquid
Property: Mass density, kg/m3 (Liquid); method: Vibrating tube method
Temperature, K	Pressure, kPa	Mass density, kg/m3	uncertainty
283.15	100	797.7	1
283.15	5000	801.8	1
283.15	10000	805.6	1
283.15	15000	809.6	1
283.15	20000	813.1	1
298.15	100	784.9	1
298.15	5000	789.3	1
298.15	10000	793.6	1
298.15	15000	797.7	1
298.15	20000	801.6	1
313.15	100	771.9	1
313.15	5000	776.8	1
313.15	10000	781.3	1
313.15	15000	785.7	1
313.15	20000	789.9	1
328.15	100	758.6	1
328.15	5000	763.8	1
328.15	10000	768.9	1
328.15	15000	773.6	1
328.15	20000	778.1	1

System: propan-1-ol; phases: Liquid
Property: Mass density, kg/m3 (Liquid); method: Vibrating tube method
Temperature, K	Pressure, kPa	Mass density, kg/m3	uncertainty
283.15	100	810.9	1
283.15	5000	814.7	1
283.15	10000	818.1	1
283.15	15000	821.7	1
283.15	20000	824.9	1
298.15	100	799	1
298.15	5000	803	1
298.15	10000	806.9	1
298.15	15000	810.6	1
298.15	20000	814.1	1
313.15	100	786.8	1
313.15	5000	791.2	1
313.15	10000	795.3	1
313.15	15000	799.3	1
313.15	20000	803.1	1
328.15	100	774.5	1
328.15	5000	779.1	1
328.15	10000	783.7	1
328.15	15000	787.8	1
328.15	20000	791.9	1

System: propan-2-ol; phases: Liquid
Property: Mass density, kg/m3 (Liquid); method: Vibrating tube method
Temperature, K	Pressure, kPa	Mass density, kg/m3	uncertainty
283.15	100	793.7	1
283.15	5000	797.5	1
283.15	10000	801.3	1
283.15	20000	808.9	1
283.18	15000	805.2	1
298.15	100	781.2	1
298.15	5000	785.5	1
298.15	10000	789.7	1
298.15	15000	793.8	1
298.15	20000	797.6	1
313.15	100	768.1	1
313.15	5000	773	1
313.15	10000	777.5	1
313.15	15000	781.9	1
313.15	20000	786.1	1
328.15	100	754.4	1
328.15	5000	759.6	1
328.15	15000	769.5	1
328.15	20000	774	1
328.18	10000	764.8	1

System: ethanol + 3,7-dimethyl-1,6-octadien-3-ol; phases: Liquid
Property: Mass density, kg/m3 (Liquid); method: Vibrating tube method
Temperature, K	Pressure, kPa	Mole fraction of ethanol	Mass density, kg/m3	uncertainty
283.15	100	0	869.2	1.1
283.15	100	0.1129	866.8	1.1
283.15	100	0.1935	865.6	1.1
283.15	100	0.3045	862.7	1
283.15	100	0.4023	859.9	1
283.15	100	0.5121	855.3	1
283.15	100	0.6055	850.3	1
283.15	100	0.7008	843.1	1
283.15	100	0.8009	832.7	1
283.15	100	0.9009	818.2	1
283.15	100	1	797.7	1
283.15	5000	0	872.3	1.1
283.15	5000	0.1129	869.9	1.1
283.15	5000	0.1935	868.7	1.1
283.15	5000	0.3045	866	1.1
283.15	5000	0.4023	863.1	1
283.15	5000	0.5121	858.5	1
283.15	5000	0.6055	853.5	1
283.15	5000	0.7008	846.5	1
283.15	5000	0.8009	836.3	1
283.15	5000	0.9009	822	1
283.15	5000	1	801.8	1
283.15	10000	0	875.2	1.2
283.15	10000	0.1129	872.9	1.1
283.15	10000	0.1935	871.7	1.1
283.15	10000	0.3045	869	1.1
283.15	10000	0.4023	866.1	1
283.15	10000	0.5121	861.6	1
283.15	10000	0.6055	856.8	1
283.15	10000	0.7008	849.7	1
283.15	10000	0.8009	839.6	1
283.15	10000	0.9009	825.5	1
283.15	10000	1	805.6	1
283.15	15000	0	878.2	1.2
283.15	15000	0.1129	875.9	1.1
283.15	15000	0.1935	874.8	1.1
283.15	15000	0.3045	872.1	1.1
283.15	15000	0.4023	869.2	1
283.15	15000	0.5121	864.8	1
283.15	15000	0.6055	860.1	1
283.15	15000	0.7008	853	1
283.15	15000	0.8009	843.1	1
283.15	15000	0.9009	829.2	1
283.15	15000	1	809.6	1
283.15	20000	0	881	1.2
283.15	20000	0.1129	878.8	1.1
283.15	20000	0.1935	877.6	1.1
283.15	20000	0.3045	874.9	1.1
283.15	20000	0.4023	872.1	1.1
283.15	20000	0.5121	867.7	1
283.15	20000	0.6055	862.9	1
283.15	20000	0.7008	856.1	1
283.15	20000	0.8009	846.3	1
283.15	20000	0.9009	832.5	1
283.15	20000	1	813.1	1
298.15	100	0	856.9	1.1
298.15	100	0.1129	854.5	1.1
298.15	100	0.1935	853.4	1.1
298.15	100	0.3045	850.5	1
298.15	100	0.4023	847.6	1
298.15	100	0.5121	843	1
298.15	100	0.6055	838	1
298.15	100	0.7008	830.9	1
298.15	100	0.8009	820.6	1
298.15	100	0.9009	805.9	1
298.15	100	1	784.9	1
298.15	5000	0	860.1	1.1
298.15	5000	0.1129	857.8	1.1
298.15	5000	0.1935	856.7	1.1
298.15	5000	0.3045	853.9	1.1
298.15	5000	0.4023	851	1
298.15	5000	0.5121	846.5	1
298.15	5000	0.6055	841.4	1
298.15	5000	0.7008	834.6	1
298.15	5000	0.8009	824.4	1
298.15	5000	0.9009	809.9	1
298.15	5000	1	789.3	1
298.15	10000	0	863.5	1.2
298.15	10000	0.1129	861.1	1.1
298.15	10000	0.1935	860	1.1
298.15	10000	0.3045	857.2	1.1
298.15	10000	0.4023	854.4	1
298.15	10000	0.5121	850	1
298.15	10000	0.6055	845.1	1
298.15	10000	0.7008	838.2	1
298.15	10000	0.8009	828.1	1
298.15	10000	0.9009	813.9	1
298.15	10000	1	793.6	1
298.15	15000	0	866.6	1.2
298.15	15000	0.1129	864.3	1.1
298.15	15000	0.1935	863.2	1.1
298.15	15000	0.3045	860.5	1.1
298.15	15000	0.4023	857.7	1.1
298.15	15000	0.5121	853.2	1
298.15	15000	0.6055	848.4	1
298.15	15000	0.7008	841.6	1
298.15	15000	0.8009	831.7	1
298.15	15000	0.9009	817.7	1
298.15	15000	1	797.7	1
298.15	20000	0	869.6	1.2
298.15	20000	0.1129	867.4	1.1
298.15	20000	0.1935	866.3	1.1
298.15	20000	0.3045	863.6	1.1
298.15	20000	0.4023	860.8	1.1
298.15	20000	0.5121	856.4	1
298.15	20000	0.6055	851.7	1
298.15	20000	0.7008	844.9	1
298.15	20000	0.8009	835.1	1
298.15	20000	0.9009	821.3	1
298.15	20000	1	801.6	1
313.15	100	0	844.1	1.1
313.15	100	0.1129	841.7	1.1
313.15	100	0.1935	840.6	1.1
313.15	100	0.3045	837.8	1
313.15	100	0.4023	834.7	1
313.15	100	0.5121	830.2	1
313.15	100	0.6055	825.3	1
313.15	100	0.7008	818	1
313.15	100	0.8009	807.9	1
313.15	100	0.9009	793.2	1
313.15	100	1	771.9	1
313.15	5000	0	847.8	1.1
313.15	5000	0.1129	845.4	1.1
313.15	5000	0.1935	844.4	1.1
313.15	5000	0.3045	841.6	1.1
313.15	5000	0.4023	838.6	1
313.15	5000	0.5121	834.1	1
313.15	5000	0.6055	829.3	1
313.15	5000	0.7008	822.3	1
313.15	5000	0.8009	812.1	1
313.15	5000	0.9009	797.7	1
313.15	5000	1	776.8	1
313.15	10000	0	851.3	1.1
313.15	10000	0.1129	849	1.1
313.15	10000	0.1935	847.9	1.1
313.15	10000	0.3045	845.2	1.1
313.15	10000	0.4023	842.3	1
313.15	10000	0.5121	837.8	1
313.15	10000	0.6055	833.1	1
313.15	10000	0.7008	826.1	1
313.15	10000	0.8009	816.1	1
313.15	10000	0.9009	801.9	1
313.15	10000	1	781.3	1
313.15	15000	0	854.8	1.2
313.15	15000	0.1129	852.5	1.1
313.15	15000	0.1935	851.4	1.1
313.15	15000	0.3045	848.7	1.1
313.15	15000	0.4023	845.8	1.1
313.15	15000	0.5121	841.4	1
313.15	15000	0.6055	836.7	1
313.15	15000	0.7008	829.8	1
313.15	15000	0.8009	820	1
313.15	15000	0.9009	806	1
313.15	15000	1	785.7	1
313.15	20000	0	858.1	1.2
313.15	20000	0.1129	855.8	1.1
313.15	20000	0.1935	854.8	1.1
313.15	20000	0.3045	852.1	1.1
313.15	20000	0.4023	849.2	1.1
313.15	20000	0.5121	844.9	1.1
313.15	20000	0.6055	840.2	1
313.15	20000	0.7008	833.4	1
313.15	20000	0.8009	823.7	1
313.15	20000	0.9009	809.8	1
313.15	20000	1	789.9	1
328.15	100	0	831.3	1.1
328.15	100	0.1129	828.9	1.1
328.15	100	0.1935	827.8	1.1
328.15	100	0.3045	824.9	1
328.15	100	0.4023	821.8	1
328.15	100	0.5121	817.3	1
328.15	100	0.6055	812.3	1
328.15	100	0.7008	805.2	1
328.15	100	0.8009	794.9	1
328.15	100	0.9009	780.2	1
328.15	100	1	758.6	1
328.15	5000	0	835.2	1.1
328.15	5000	0.1129	832.9	1.1
328.15	5000	0.1935	831.8	1.1
328.15	5000	0.3045	828.9	1.1
328.15	5000	0.4023	825.9	1
328.15	5000	0.5121	821.4	1
328.15	5000	0.6055	816.6	1
328.15	5000	0.7008	809.5	1
328.15	5000	0.8009	799.4	1
328.15	5000	0.9009	784.9	1
328.15	5000	1	763.8	1
328.15	10000	0	839.1	1.1
328.15	10000	0.1129	836.9	1.1
328.15	10000	0.1935	835.8	1.1
328.15	10000	0.3045	832.9	1.1
328.15	10000	0.4023	829.9	1
328.15	10000	0.5121	825.5	1
328.15	10000	0.6055	820.6	1
328.15	10000	0.7008	813.9	1
328.15	10000	0.8009	803.9	1
328.15	10000	0.9009	789.6	1
328.15	10000	1	768.9	1
328.15	15000	0	842.7	1.2
328.15	15000	0.1129	840.5	1.1
328.15	15000	0.1935	839.4	1.1
328.15	15000	0.3045	836.6	1.1
328.15	15000	0.4023	833.7	1.1
328.15	15000	0.5121	829.3	1
328.15	15000	0.6055	824.5	1
328.15	15000	0.7008	817.8	1
328.15	15000	0.8009	808	1
328.15	15000	0.9009	793.9	1
328.15	15000	1	773.6	1
328.15	20000	0	846.3	1.2
328.15	20000	0.1129	844.1	1.1
328.15	20000	0.1935	843	1.1
328.15	20000	0.3045	840.3	1.1
328.15	20000	0.4023	837.3	1.1
328.15	20000	0.5121	833	1.1
328.15	20000	0.6055	828.4	1
328.15	20000	0.7008	821.6	1
328.15	20000	0.8009	811.9	1
328.15	20000	0.9009	798.1	1
328.15	20000	1	778.1	1

System: propan-1-ol + 3,7-dimethyl-1,6-octadien-3-ol; phases: Liquid
Property: Mass density, kg/m3 (Liquid); method: Vibrating tube method
Temperature, K	Pressure, kPa	Mole fraction of propan-1-ol	Mass density, kg/m3	uncertainty
283.15	100	0	869.5	1.1
283.15	100	0.107	867	1.1
283.15	100	0.206	864.9	1.1
283.15	100	0.3066	862.1	1
283.15	100	0.4064	859	1
283.15	100	0.501	855.4	1
283.15	100	0.6034	850.3	1
283.15	100	0.7055	843.7	1
283.15	100	0.7985	835.9	1
283.15	100	0.898	825.2	1
283.15	100	1	810.9	1
283.15	5000	0	872.6	1.1
283.15	5000	0.107	870.2	1.1
283.15	5000	0.206	868.1	1.1
283.15	5000	0.3066	865.4	1.1
283.15	5000	0.4064	862.2	1
283.15	5000	0.501	858.6	1
283.15	5000	0.6034	853.6	1
283.15	5000	0.7055	847	1
283.15	5000	0.7985	839.3	1
283.15	5000	0.898	828.8	1
283.15	5000	1	814.7	1
283.15	10000	0	875.7	1.2
283.15	10000	0.107	873.1	1.1
283.15	10000	0.206	871	1.1
283.15	10000	0.3066	868.3	1.1
283.15	10000	0.4064	865.2	1
283.15	10000	0.501	861.6	1
283.15	10000	0.6034	856.7	1
283.15	10000	0.7055	850	1
283.15	10000	0.7985	842.4	1
283.15	10000	0.898	832	1
283.15	10000	1	818.1	1
283.15	15000	0	878.7	1.2
283.15	15000	0.107	876.2	1.1
283.15	15000	0.206	874.1	1.1
283.15	15000	0.3066	871.4	1.1
283.15	15000	0.4064	868.3	1
283.15	15000	0.501	864.8	1
283.15	15000	0.6034	859.9	1
283.15	15000	0.7055	853.3	1
283.15	15000	0.7985	845.8	1
283.15	15000	0.898	835.5	1
283.15	15000	1	821.7	1
283.15	20000	0	881.5	1.2
283.15	20000	0.107	879	1.1
283.15	20000	0.206	876.9	1.1
283.15	20000	0.3066	874.4	1.1
283.15	20000	0.4064	871.3	1.1
283.15	20000	0.501	867.7	1
283.15	20000	0.6034	862.8	1
283.15	20000	0.7055	856.3	1
283.15	20000	0.7985	848.8	1
283.15	20000	0.898	838.6	1
283.15	20000	1	824.9	1
298.15	100	0	857.3	1.1
298.15	100	0.107	854.8	1.1
298.15	100	0.206	852.7	1.1
298.15	100	0.3066	849.9	1
298.15	100	0.4064	846.8	1
298.15	100	0.501	843.2	1
298.15	100	0.6034	838.2	1
298.15	100	0.7055	831.6	1
298.15	100	0.7985	824	1
298.15	100	0.898	813.4	1
298.15	100	1	799	1
298.15	5000	0	860.6	1.1
298.15	5000	0.107	858.1	1.1
298.15	5000	0.206	856	1.1
298.15	5000	0.3066	853.3	1.1
298.15	5000	0.4064	850.2	1
298.15	5000	0.501	846.7	1
298.15	5000	0.6034	841.7	1
298.15	5000	0.7055	835.1	1
298.15	5000	0.7985	827.7	1
298.15	5000	0.898	817.2	1
298.15	5000	1	803	1
298.15	10000	0	863.9	1.2
298.15	10000	0.107	861.4	1.1
298.15	10000	0.206	859.4	1.1
298.15	10000	0.3066	856.6	1.1
298.15	10000	0.4064	853.6	1
298.15	10000	0.501	850.1	1
298.15	10000	0.6034	845.2	1
298.15	10000	0.7055	838.7	1
298.15	10000	0.7985	831.2	1
298.15	10000	0.898	820.8	1
298.15	10000	1	806.9	1
298.15	15000	0	867	1.2
298.15	15000	0.107	864.6	1.1
298.15	15000	0.206	862.6	1.1
298.15	15000	0.3066	859.9	1.1
298.15	15000	0.4064	856.8	1.1
298.15	15000	0.501	853.3	1
298.15	15000	0.6034	848.5	1
298.15	15000	0.7055	842	1
298.15	15000	0.7985	834.6	1
298.15	15000	0.898	824.4	1
298.15	15000	1	810.6	1
298.15	20000	0	870	1.2
298.15	20000	0.107	867.7	1.1
298.15	20000	0.206	865.6	1.1
298.15	20000	0.3066	863	1.1
298.15	20000	0.4064	859.9	1.1
298.15	20000	0.501	856.5	1
298.15	20000	0.6034	851.6	1
298.15	20000	0.7055	845.2	1
298.15	20000	0.7985	837.9	1
298.15	20000	0.898	827.8	1
298.15	20000	1	814.1	1
313.15	100	0	844.5	1.1
313.15	100	0.107	842.1	1.1
313.15	100	0.206	840.1	1.1
313.15	100	0.3066	837.3	1
313.15	100	0.4064	834.1	1
313.15	100	0.501	830.5	1
313.15	100	0.6034	825.6	1
313.15	100	0.7055	819.1	1
313.15	100	0.7985	811.6	1
313.15	100	0.898	801.2	1
313.15	100	1	786.8	1
313.15	5000	0	848.2	1.1
313.15	5000	0.107	845.8	1.1
313.15	5000	0.206	843.8	1.1
313.15	5000	0.3066	841.1	1.1
313.15	5000	0.4064	837.9	1
313.15	5000	0.501	834.4	1
313.15	5000	0.6034	829.5	1
313.15	5000	0.7055	823.1	1
313.15	5000	0.7985	815.6	1
313.15	5000	0.898	805.3	1
313.15	5000	1	791.2	1
313.15	10000	0	851.6	1.1
313.15	10000	0.107	849.3	1.1
313.15	10000	0.206	847.3	1.1
313.15	10000	0.3066	844.6	1.1
313.15	10000	0.4064	841.5	1
313.15	10000	0.501	838	1
313.15	10000	0.6034	833.2	1
313.15	10000	0.7055	826.8	1
313.15	10000	0.7985	819.4	1
313.15	10000	0.898	809.2	1
313.15	10000	1	795.3	1
313.15	15000	0	855	1.2
313.15	15000	0.107	852.8	1.1
313.15	15000	0.206	850.8	1.1
313.15	15000	0.3066	848.1	1.1
313.15	15000	0.4064	845.1	1.1
313.15	15000	0.501	841.5	1
313.15	15000	0.6034	836.7	1
313.15	15000	0.7055	830.4	1
313.15	15000	0.7985	823.2	1
313.15	15000	0.898	813.1	1
313.15	15000	1	799.3	1
313.15	20000	0	858.4	1.2
313.15	20000	0.107	856.1	1.1
313.15	20000	0.206	854.1	1.1
313.15	20000	0.3066	851.5	1.1
313.15	20000	0.4064	848.4	1.1
313.15	20000	0.501	844.9	1.1
313.15	20000	0.6034	840.2	1
313.15	20000	0.7055	833.9	1
313.15	20000	0.7985	826.7	1
313.15	20000	0.898	816.7	1
313.15	20000	1	803.1	1
328.15	100	0	831.7	1.1
328.15	100	0.107	829.4	1.1
328.15	100	0.206	827.3	1.1
328.15	100	0.3066	824.5	1
328.15	100	0.4064	821.3	1
328.15	100	0.501	817.7	1
328.15	100	0.6034	812.8	1
328.15	100	0.7055	806.3	1
328.15	100	0.7985	799	1
328.15	100	0.898	788.7	1
328.15	100	1	774.5	1
328.15	5000	0	835.6	1.1
328.15	5000	0.107	833.3	1.1
328.15	5000	0.206	831.2	1.1
328.15	5000	0.3066	828.5	1.1
328.15	5000	0.4064	825.3	1
328.15	5000	0.501	821.8	1
328.15	5000	0.6034	816.9	1
328.15	5000	0.7055	810.5	1
328.15	5000	0.7985	803.3	1
328.15	5000	0.898	793.1	1
328.15	5000	1	779.1	1
328.15	10000	0	839.5	1.1
328.15	10000	0.107	837.2	1.1
328.15	10000	0.206	835.2	1.1
328.15	10000	0.3066	832.5	1.1
328.15	10000	0.4064	829.3	1
328.15	10000	0.501	825.8	1
328.15	10000	0.6034	821	1
328.15	10000	0.7055	814.7	1
328.15	10000	0.7985	807.5	1
328.15	10000	0.898	797.5	1
328.15	10000	1	783.7	1
328.15	15000	0	843.1	1.2
328.15	15000	0.107	840.9	1.1
328.15	15000	0.206	838.8	1.1
328.15	15000	0.3066	836.2	1.1
328.15	15000	0.4064	833	1.1
328.15	15000	0.501	829.5	1
328.15	15000	0.6034	824.8	1
328.15	15000	0.7055	818.5	1
328.15	15000	0.7985	811.4	1
328.15	15000	0.898	801.5	1
328.15	15000	1	787.8	1
328.15	20000	0	846.7	1.2
328.15	20000	0.107	844.4	1.1
328.15	20000	0.206	842.4	1.1
328.15	20000	0.3066	839.8	1.1
328.15	20000	0.4064	836.7	1.1
328.15	20000	0.501	833.2	1.1
328.15	20000	0.6034	828.5	1
328.15	20000	0.7055	822.3	1
328.15	20000	0.7985	815.2	1
328.15	20000	0.898	805.3	1
328.15	20000	1	791.9	1

System: propan-2-ol + 3,7-dimethyl-1,6-octadien-3-ol; phases: Liquid
Property: Mass density, kg/m3 (Liquid); method: Vibrating tube method
Temperature, K	Pressure, kPa	Mole fraction of propan-2-ol	Mass density, kg/m3	uncertainty
283.15	100	0	869.5	1.1
283.15	100	0.1031	866.3	1.1
283.15	100	0.2049	862.7	1.1
283.15	100	0.4056	854.1	1
283.15	100	0.5022	848.8	1
283.15	100	0.605	842.3	1
283.15	100	0.7008	834.6	1
283.15	100	0.9092	809.3	1
283.15	100	1	793.7	1
283.15	5000	0	872.6	1.1
283.15	5000	0.1031	869.5	1.1
283.15	5000	0.3054	861.9	1.1
283.15	5000	0.4056	857.4	1
283.15	5000	0.5022	852.2	1
283.15	5000	0.605	845.7	1
283.15	5000	0.7981	828.2	1
283.15	5000	0.9092	813.1	1
283.15	5000	1	797.5	1
283.15	10000	0	875.7	1.2
283.15	10000	0.2049	869	1.1
283.15	10000	0.3054	864.9	1.1
283.15	10000	0.4056	860.5	1
283.15	10000	0.5022	855.3	1
283.15	10000	0.7008	841.4	1
283.15	10000	0.7981	831.6	1
283.15	10000	0.9092	816.6	1
283.15	10000	1	801.3	1
283.15	15000	0.1031	875.5	1.1
283.15	15000	0.2049	872.1	1.1
283.15	15000	0.3054	868.1	1.1
283.15	15000	0.4056	863.7	1.1
283.15	15000	0.605	852.2	1
283.15	15000	0.7008	844.9	1
283.15	15000	0.7981	835.1	1
283.15	15000	0.9092	820.4	1
283.15	20000	0	881.5	1.2
283.15	20000	0.1031	878.5	1.1
283.15	20000	0.2049	875	1.1
283.15	20000	0.3054	870.9	1.1
283.15	20000	0.5022	861.6	1
283.15	20000	0.605	855.3	1
283.15	20000	0.7008	848	1
283.15	20000	0.7981	838.4	1
283.15	20000	1	808.9	1
283.18	100	0.3054	858.7	1
283.18	100	0.7981	824.5	1
283.18	5000	0.2049	865.9	1.1
283.18	5000	0.7008	838.1	1
283.18	10000	0.1031	872.5	1.1
283.18	10000	0.605	848.9	1
283.18	15000	0	878.7	1.2
283.18	15000	0.5022	858.6	1
283.18	15000	1	805.2	1
283.18	20000	0.4056	866.7	1.1
283.18	20000	0.9092	823.7	1
298.15	100	0	857.3	1.1
298.15	100	0.1031	854.1	1.1
298.15	100	0.2049	850.5	1.1
298.15	100	0.3054	846.3	1
298.15	100	0.4056	841.7	1
298.15	100	0.5022	836.4	1
298.15	100	0.605	829.7	1
298.15	100	0.7008	821.9	1
298.15	100	0.7981	812	1
298.15	100	0.9092	796.8	1
298.15	100	1	781.2	1
298.15	5000	0	860.6	1.1
298.15	5000	0.1031	857.4	1.1
298.15	5000	0.2049	853.9	1.1
298.15	5000	0.3054	849.8	1.1
298.15	5000	0.4056	845.2	1
298.15	5000	0.5022	839.9	1
298.15	5000	0.605	833.3	1
298.15	5000	0.7008	825.6	1
298.15	5000	0.7981	815.9	1
298.15	5000	0.9092	800.9	1
298.15	5000	1	785.5	1
298.15	10000	0	863.9	1.2
298.15	10000	0.1031	860.8	1.1
298.15	10000	0.2049	857.3	1.1
298.15	10000	0.3054	853.2	1.1
298.15	10000	0.4056	848.7	1
298.15	10000	0.5022	843.5	1
298.15	10000	0.605	837	1
298.15	10000	0.7008	829.4	1
298.15	10000	0.7981	819.7	1
298.15	10000	0.9092	804.9	1
298.15	10000	1	789.7	1
298.15	15000	0	867	1.2
298.15	15000	0.1031	864	1.1
298.15	15000	0.2049	860.5	1.1
298.15	15000	0.3054	856.5	1.1
298.15	15000	0.4056	852	1.1
298.15	15000	0.5022	846.9	1
298.15	15000	0.605	840.4	1
298.15	15000	0.7008	832.9	1
298.15	15000	0.7981	823.4	1
298.15	15000	0.9092	808.8	1
298.15	15000	1	793.8	1
298.15	20000	0	870	1.2
298.15	20000	0.1031	867	1.1
298.15	20000	0.2049	863.6	1.1
298.15	20000	0.3054	859.6	1.1
298.15	20000	0.4056	855.2	1.1
298.15	20000	0.5022	850.1	1.1
298.15	20000	0.605	843.7	1
298.15	20000	0.7008	836.4	1
298.15	20000	0.7981	826.9	1
298.15	20000	0.9092	812.4	1
298.15	20000	1	797.6	1
313.15	100	0	844.5	1.1
313.15	100	0.1031	841.4	1.1
313.15	100	0.2049	837.7	1.1
313.15	100	0.3054	833.4	1
313.15	100	0.4056	828.7	1
313.15	100	0.5022	823.2	1
313.15	100	0.605	816.4	1
313.15	100	0.7008	808.5	1
313.15	100	0.7981	798.6	1
313.15	100	0.9092	783.6	1
313.15	100	1	768.1	1
313.15	5000	0	848.2	1.1
313.15	5000	0.1031	845.1	1.1
313.15	5000	0.2049	841.5	1.1
313.15	5000	0.3054	837.3	1.1
313.15	5000	0.4056	832.6	1
313.15	5000	0.5022	827.2	1
313.15	5000	0.605	820.6	1
313.15	5000	0.7008	812.8	1
313.15	5000	0.7981	803	1
313.15	5000	0.9092	788.2	1
313.15	5000	1	773	1
313.15	10000	0	851.6	1.1
313.15	10000	0.1031	848.6	1.1
313.15	10000	0.2049	845.1	1.1
313.15	10000	0.3054	840.9	1.1
313.15	10000	0.4056	836.3	1
313.15	10000	0.5022	831	1
313.15	10000	0.605	824.4	1
313.15	10000	0.7008	816.8	1
313.15	10000	0.7981	807.1	1
313.15	10000	0.9092	792.5	1
313.15	10000	1	777.5	1
313.15	15000	0	855	1.2
313.15	15000	0.1031	852.1	1.1
313.15	15000	0.2049	848.6	1.1
313.15	15000	0.3054	844.5	1.1
313.15	15000	0.4056	840	1.1
313.15	15000	0.5022	834.8	1
313.15	15000	0.605	828.2	1
313.15	15000	0.7008	820.6	1
313.15	15000	0.7981	811.1	1
313.15	15000	0.9092	796.7	1
313.15	15000	1	781.9	1
313.15	20000	0	858.4	1.2
313.15	20000	0.1031	855.4	1.1
313.15	20000	0.2049	852	1.1
313.15	20000	0.3054	847.9	1.1
313.15	20000	0.4056	843.5	1.1
313.15	20000	0.5022	838.3	1.1
313.15	20000	0.605	831.8	1
313.15	20000	0.7008	824.4	1
313.15	20000	0.7981	814.9	1
313.15	20000	0.9092	800.7	1
313.15	20000	1	786.1	1
328.15	100	0	831.7	1.1
328.15	100	0.1031	828.5	1.1
328.15	100	0.3054	820.4	1
328.15	100	0.4056	815.5	1
328.15	100	0.5022	809.9	1
328.15	100	0.605	802.8	1
328.15	100	0.7981	784.8	1
328.15	100	0.9092	769.8	1
328.15	100	1	754.4	1
328.15	5000	0	835.6	1.1
328.15	5000	0.2049	828.8	1.1
328.15	5000	0.3054	824.5	1.1
328.15	5000	0.4056	819.7	1
328.15	5000	0.5022	814.2	1
328.15	5000	0.7008	799.4	1
328.15	5000	0.7981	789.5	1
328.15	5000	0.9092	774.8	1
328.15	5000	1	759.6	1
328.15	10000	0.1031	836.4	1.1
328.15	10000	0.2049	832.8	1.1
328.15	10000	0.3054	828.6	1.1
328.15	10000	0.4056	823.9	1
328.15	10000	0.605	811.6	1
328.15	10000	0.7008	803.9	1
328.15	10000	0.7981	794.2	1
328.15	10000	0.9092	779.7	1
328.15	15000	0	843.1	1.2
328.15	15000	0.1031	840.1	1.1
328.15	15000	0.2049	836.5	1.1
328.15	15000	0.3054	832.3	1.1
328.15	15000	0.5022	822.3	1
328.15	15000	0.605	815.6	1
328.15	15000	0.7008	808	1
328.15	15000	0.7981	798.4	1
328.15	15000	1	769.5	1
328.15	20000	0	846.7	1.2
328.15	20000	0.1031	843.6	1.1
328.15	20000	0.2049	840.2	1.1
328.15	20000	0.4056	831.5	1.1
328.15	20000	0.5022	826.1	1.1
328.15	20000	0.605	819.5	1
328.15	20000	0.7008	812	1
328.15	20000	0.9092	788.4	1
328.15	20000	1	774	1
328.18	100	0.2049	824.8	1.1
328.18	100	0.7008	794.9	1
328.18	5000	0.1031	832.5	1.1
328.18	5000	0.605	807.2	1
328.18	10000	0	839.5	1.1
328.18	10000	0.5022	818.4	1
328.18	10000	1	764.8	1
328.18	15000	0.4056	827.8	1.1
328.18	15000	0.9092	784.1	1
328.18	20000	0.3054	836	1.1
328.18	20000	0.7981	802.6	1
