Measured thermophysical data. Thermodynamic Study on the Sublimation of Anthracene-Like Compounds
Source: J. Chem. Eng. Data, 2010, 10.1021/je100850z
Compound 1: 9,10(9H,10H)-anthracenedione, C14H8O2, InChI=1S/C14H8O2/c15-13-9-5-1-2-6-10(9)14(16)12-8-4-3-7-11(12)13/h1-8H
Compound 2: 9(10H)-anthracenone, C14H10O, InChI=1S/C14H10O/c15-14-12-7-3-1-5-10(12)9-11-6-2-4-8-13(11)14/h1-8H,9H2
Compound 3: thianthrene, C12H8S2, InChI=1S/C12H8S2/c1-2-6-10-9(5-1)13-11-7-3-4-8-12(11)14-10/h1-8H
Compound 4: thioxanthone, C13H8OS, InChI=1S/C13H8OS/c14-13-9-5-1-3-7-11(9)15-12-8-4-2-6-10(12)13/h1-8H
Compound 5: 9H-xanthen-9-one, C13H8O2, InChI=1S/C13H8O2/c14-13-9-5-1-3-7-11(9)15-12-8-4-2-6-10(12)13/h1-8H

System: 9,10(9H,10H)-anthracenedione; phases: Crystal, Liquid, Air at 1 atmosphere
Property: Molar enthalpy of transition or fusion, kJ/mol (Crystal); method: DSC
Molar enthalpy of transition or fusion, kJ/mol	uncertainty
36.3	0.93

System: 9,10(9H,10H)-anthracenedione; phases: Crystal, Liquid, Air at 1 atmosphere
Property: Normal melting temperature, K (Crystal); method: DTA
Normal melting temperature, K	uncertainty
556.8	0.5

System: 9,10(9H,10H)-anthracenedione; phases: Crystal, Gas
Property: Vapor or sublimation pressure, kPa (Crystal); method: Calculated from knudsen effusion weight loss
Temperature, K	Vapor or sublimation pressure, kPa	uncertainty
377.06	0.000173	2.1e-05
377.06	0.000164	2.1e-05
379.08	0.00021	2.1e-05
379.08	0.0002	2.1e-05
381.26	0.00025	2.2e-05
381.26	0.000246	2.2e-05
383.26	0.000299	2.3e-05
383.26	0.000302	2.3e-05
385.26	0.000359	2.4e-05
385.26	0.000352	2.4e-05
391.26	0.000618	3e-05
393.08	0.000743	3.3e-05
393.08	0.000716	3.2e-05
395.03	0.000886	3.7e-05

System: 9(10H)-anthracenone; phases: Crystal, Liquid, Air at 1 atmosphere
Property: Molar enthalpy of transition or fusion, kJ/mol (Crystal); method: DSC
Molar enthalpy of transition or fusion, kJ/mol	uncertainty
22.4	0.6

System: 9(10H)-anthracenone; phases: Crystal, Liquid, Air at 1 atmosphere
Property: Normal melting temperature, K (Crystal); method: DTA
Normal melting temperature, K	uncertainty
429.5	0.5

System: 9(10H)-anthracenone; phases: Crystal, Gas
Property: Vapor or sublimation pressure, kPa (Crystal); method: Calculated from knudsen effusion weight loss
Temperature, K	Vapor or sublimation pressure, kPa	uncertainty
346.15	0.000131	2.1e-05
346.15	0.000131	2.1e-05
346.15	0.000128	2.1e-05
348.14	0.000162	2.1e-05
348.14	0.000162	2.1e-05
348.14	0.000156	2.1e-05
351.13	0.000223	2.2e-05
351.13	0.000217	2.1e-05
351.13	0.000221	2.1e-05
354.18	0.000307	2.3e-05
354.18	0.000299	2.3e-05
354.18	0.00029	2.2e-05
355.68	0.000359	2.4e-05
355.68	0.000354	2.4e-05
355.68	0.000348	2.4e-05
357.19	0.00041	2.5e-05
357.19	0.000405	2.5e-05
357.19	0.000396	2.4e-05
360.15	0.000558	2.8e-05
360.15	0.000553	2.8e-05
360.15	0.000533	2.8e-05
363.14	0.000744	3.3e-05
363.14	0.000727	3.3e-05
363.14	0.0007	3.2e-05
365.14	0.000895	3.7e-05
365.14	0.000879	3.7e-05
365.14	0.00084	3.6e-05

System: thianthrene; phases: Crystal, Gas
Property: Vapor or sublimation pressure, kPa (Crystal); method: Calculated from knudsen effusion weight loss
Temperature, K	Vapor or sublimation pressure, kPa	uncertainty
344.27	0.000161	2.1e-05
344.27	0.000163	2.1e-05
344.27	0.000161	2.1e-05
346.12	0.0002	2.1e-05
346.12	0.000198	2.1e-05
346.12	0.000197	2.1e-05
348.1	0.000246	2.2e-05
348.1	0.000243	2.2e-05
348.1	0.000239	2.2e-05
350.26	0.000299	2.3e-05
350.26	0.000301	2.3e-05
350.26	0.000299	2.3e-05
352.11	0.00037	2.4e-05
352.11	0.000368	2.4e-05
352.11	0.000362	2.4e-05
354.1	0.000447	2.6e-05
354.1	0.000446	2.5e-05
354.1	0.000439	2.5e-05
356.26	0.000549	2.8e-05
356.26	0.00056	2.8e-05
356.26	0.000555	2.8e-05
358.1	0.00068	3.1e-05
358.1	0.000687	3.2e-05
358.1	0.000669	3.1e-05
362.05	0.000992	4e-05
362.05	0.000995	4.1e-05
362.05	0.000973	4e-05
364.06	0.001197	9.6e-05
364.06	0.001196	9.6e-05
364.06	0.00117	9.4e-05

System: thioxanthone; phases: Crystal, Liquid, Air at 1 atmosphere
Property: Molar enthalpy of transition or fusion, kJ/mol (Crystal); method: DSC
Molar enthalpy of transition or fusion, kJ/mol	uncertainty
28.4	0.6

System: thioxanthone; phases: Crystal, Liquid, Air at 1 atmosphere
Property: Normal melting temperature, K (Crystal); method: DTA
Normal melting temperature, K	uncertainty
486.6	0.9

System: thioxanthone; phases: Crystal, Gas
Property: Vapor or sublimation pressure, kPa (Crystal); method: Calculated from knudsen effusion weight loss
Temperature, K	Vapor or sublimation pressure, kPa	uncertainty
369.12	0.000187	2.1e-05
369.12	0.000186	2.1e-05
369.12	0.000178	2.1e-05
371.2	0.000232	2.2e-05
371.2	0.000226	2.2e-05
371.2	0.000222	2.1e-05
373.26	0.000284	2.2e-05
373.26	0.000274	2.2e-05
373.26	0.00027	2.2e-05
375.12	0.000321	2.3e-05
375.12	0.000335	2.3e-05
375.12	0.00032	2.3e-05
377.11	0.000413	2.5e-05
377.11	0.000405	2.5e-05
377.11	0.000383	2.4e-05
379.2	0.000496	2.7e-05
379.2	0.000495	2.7e-05
379.2	0.00048	2.6e-05
381.27	0.000611	2.9e-05
381.27	0.000592	2.9e-05
381.27	0.000579	2.9e-05
383.12	0.000711	3.2e-05
383.12	0.000701	3.2e-05
383.12	0.000664	3.1e-05
385.27	0.000863	3.7e-05
385.27	0.00082	3.5e-05
385.27	0.00081	3.5e-05
387.2	0.001018	7.9e-05
387.2	0.001001	7.8e-05
387.2	0.000962	3.9e-05

System: 9H-xanthen-9-one; phases: Crystal, Liquid, Air at 1 atmosphere
Property: Molar enthalpy of transition or fusion, kJ/mol (Crystal); method: DSC
Molar enthalpy of transition or fusion, kJ/mol	uncertainty
26.6	0.7

System: 9H-xanthen-9-one; phases: Crystal, Liquid, Air at 1 atmosphere
Property: Normal melting temperature, K (Crystal); method: DTA
Normal melting temperature, K	uncertainty
448.3	0.9

System: 9H-xanthen-9-one; phases: Crystal, Gas
Property: Vapor or sublimation pressure, kPa (Crystal); method: Calculated from knudsen effusion weight loss
Temperature, K	Vapor or sublimation pressure, kPa	uncertainty
342.22	0.00013	2.1e-05
342.22	0.000132	2.1e-05
342.22	0.000129	2.1e-05
344.15	0.000163	2.1e-05
344.15	0.00016	2.1e-05
344.15	0.000157	2.1e-05
346.26	0.000197	2.1e-05
346.26	0.000201	2.1e-05
346.26	0.000196	2.1e-05
348.26	0.000245	2.2e-05
348.26	0.000238	2.2e-05
348.26	0.00024	2.2e-05
350.26	0.000301	2.3e-05
350.26	0.000303	2.3e-05
350.26	0.000295	2.3e-05
354.2	0.000451	2.6e-05
354.2	0.000452	2.6e-05
354.2	0.000434	2.5e-05
356.21	0.000553	2.8e-05
356.21	0.000546	2.8e-05
356.21	0.000529	2.7e-05
358.26	0.000674	3.1e-05
358.26	0.000667	3.1e-05
358.26	0.000658	3.1e-05
360.15	0.000814	3.5e-05
360.15	0.000799	3.5e-05
360.15	0.000781	3.4e-05
362.22	0.000989	4e-05
362.22	0.000989	4e-05
362.22	0.000954	3.9e-05
