Measured thermophysical data. Electrical Conductances of Tetrabutylammonium Bromide, Sodium Tetraphenylborate, and Sodium Bromide in N,N-Dimethylformamide (1) + Water (2) Mixtures at (308.15, 313.15, 318.15, and 323.15) K
Source: J. Chem. Eng. Data, 2010, 10.1021/je1008813
Compound 1: dimethylformamide, C3H7NO, InChI=1S/C3H7NO/c1-4(2)3-5/h3H,1-2H3
Compound 2: water, H2O, InChI=1S/H2O/h1H2
Compound 3: tetrabutylammonium bromide, C16H36BrN, InChI=1S/C16H36N.BrH/c1-5-9-13-17(14-10-6-2,15-11-7-3)16-12-8-4;/h5-16H2,1-4H3;1H/q+1;/p-1
Compound 4: sodium tetraphenylboron, C24H20BNa, InChI=1S/C24H20B.Na/c1-5-13-21(14-6-1)25(22-15-7-2-8-16-22,23-17-9-3-10-18-23)24-19-11-4-12-20-24;/h1-20H;/q-1;+1
Compound 5: sodium bromide, BrNa, InChI=1S/BrH.Na/h1H;/q;+1/p-1

System: dimethylformamide; phases: Liquid
Fixed: Pressure, kPa = 101
Property: Viscosity, Pa*s (Liquid); method: Capillary tube (Ostwald; Ubbelohde) method
Temperature, K	Viscosity, Pa*s	uncertainty
308.15	0.00071025	7.12e-06
313.15	0.00066907	6.73e-06
318.15	0.00064015	6.48e-06
323.15	0.00059989	6.2e-06

System: dimethylformamide; phases: Liquid
Fixed: Pressure, kPa = 101
Property: Mass density, kg/m3 (Liquid); method: Pycnometric method
Temperature, K	Mass density, kg/m3	uncertainty
308.15	934.92	0.79
313.15	930.85	0.83
318.15	926.12	0.84
323.15	922.04	0.82

System: dimethylformamide + water; phases: Liquid
Fixed: Pressure, kPa = 101
Property: Viscosity, Pa*s (Liquid); method: Capillary tube (Ostwald; Ubbelohde) method
Mass fraction of dimethylformamide	Temperature, K	Viscosity, Pa*s	uncertainty
0.1	308.15	0.00095256	8.37e-06
0.1	313.15	0.00086976	7.77e-06
0.1	318.15	0.00079598	7.15e-06
0.1	323.15	0.00073179	6.66e-06
0.2	308.15	0.00116339	9.87e-06
0.2	313.15	0.00106719	9.36e-06
0.2	318.15	0.00097459	8.63e-06
0.2	323.15	0.00089386	8.49e-06
0.4	308.15	0.00153943	1.367e-05
0.4	313.15	0.00139177	1.265e-05
0.4	318.15	0.00124013	1.165e-05
0.4	323.15	0.00109601	1.544e-05
1	308.15	0.00071025	7.12e-06
1	313.15	0.00066907	6.73e-06
1	318.15	0.00064015	6.48e-06
1	323.15	0.00059989	6.2e-06

System: dimethylformamide + water; phases: Liquid
Fixed: Pressure, kPa = 101
Property: Mass density, kg/m3 (Liquid); method: Pycnometric method
Mass fraction of dimethylformamide	Temperature, K	Mass density, kg/m3	uncertainty
0.1	308.15	991.9	0.48
0.1	313.15	989.59	0.43
0.1	318.15	988.59	0.47
0.1	323.15	985.64	0.57
0.2	308.15	990.44	0.43
0.2	313.15	988.74	0.43
0.2	318.15	987.61	0.47
0.2	323.15	984.91	0.61
0.4	308.15	987.19	0.72
0.4	313.15	984.9	0.47
0.4	318.15	983.81	0.51
0.4	323.15	980.92	1.49
1	308.15	934.92	0.79
1	313.15	930.85	0.83
1	318.15	926.12	0.84
1	323.15	922.04	0.82

System: dimethylformamide + tetrabutylammonium bromide + water; phases: Liquid
Fixed: Pressure, kPa = 101
Property: Molar conductivity, S*m2/mol (Liquid); method: dip-type cell
Temperature, K	Solvent: Mole fraction of dimethylformamide	Molality, mol/kg of tetrabutylammonium bromide	Molar conductivity, S*m2/mol	uncertainty
308.15	0.1	0.01	0.0084657	1.69e-05
308.15	0.1	0.02	0.0082778	1.66e-05
308.15	0.1	0.025	0.0081822	1.64e-05
308.15	0.1	0.03	0.0081005	1.62e-05
308.15	0.1	0.035	0.007993	1.6e-05
308.15	0.1	0.04	0.0078889	1.58e-05
308.15	0.1	0.045	0.0077957	1.56e-05
308.15	0.1	0.05	0.0077111	1.54e-05
308.15	0.2	0.00978	0.0074422	1.49e-05
308.15	0.2	0.01998	0.0072206	1.45e-05
308.15	0.2	0.02508	0.0071263	1.43e-05
308.15	0.2	0.02978	0.0070091	1.4e-05
308.15	0.2	0.03487	0.0069038	1.38e-05
308.15	0.2	0.03997	0.0068052	1.36e-05
308.15	0.2	0.04506	0.0067171	1.35e-05
308.15	0.2	0.05016	0.0065989	1.32e-05
308.15	0.4	0.00992	0.0057853	1.16e-05
308.15	0.4	0.01984	0.0056175	1.13e-05
308.15	0.4	0.0248	0.0055339	1.11e-05
308.15	0.4	0.02976	0.0054596	1.09e-05
308.15	0.4	0.03513	0.0053794	1.08e-05
308.15	0.4	0.04009	0.0052873	1.06e-05
308.15	0.4	0.04505	0.0051995	1.04e-05
308.15	0.4	0.05001	0.0051184	1.03e-05
313.15	0.1	0.00998	0.0094459	1.89e-05
313.15	0.1	0.01995	0.0092226	1.85e-05
313.15	0.1	0.02494	0.0091106	1.82e-05
313.15	0.1	0.02993	0.0090282	1.81e-05
313.15	0.1	0.03492	0.0088942	1.78e-05
313.15	0.1	0.03991	0.008775	1.76e-05
313.15	0.1	0.04482	0.0086581	1.73e-05
313.15	0.1	0.04989	0.0085435	1.71e-05
313.15	0.2	0.00976	0.0082433	1.65e-05
313.15	0.2	0.01995	0.0080049	1.6e-05
313.15	0.2	0.02503	0.0079163	1.59e-05
313.15	0.2	0.02972	0.0078087	1.56e-05
313.15	0.2	0.03481	0.0077044	1.54e-05
313.15	0.2	0.0399	0.0075893	1.52e-05
313.15	0.2	0.04497	0.0074745	1.5e-05
313.15	0.2	0.05006	0.0073623	1.47e-05
313.15	0.4	0.0099	0.0065051	1.3e-05
313.15	0.4	0.01979	0.0063151	1.27e-05
313.15	0.4	0.02474	0.0062416	1.25e-05
313.15	0.4	0.02969	0.0061557	1.23e-05
313.15	0.4	0.03505	0.006077	1.22e-05
313.15	0.4	0.03999	0.0060007	1.2e-05
313.15	0.4	0.04494	0.005909	1.18e-05
313.15	0.4	0.04989	0.0058133	1.17e-05
318.15	0.1	0.00997	0.0104388	2.09e-05
318.15	0.1	0.01993	0.0101802	2.04e-05
318.15	0.1	0.02492	0.01006	2.01e-05
318.15	0.1	0.0299	0.0099199	1.99e-05
318.15	0.1	0.03488	0.0097997	1.96e-05
318.15	0.1	0.03986	0.0096805	1.94e-05
318.15	0.1	0.04477	0.0095799	1.92e-05
318.15	0.1	0.04983	0.0094351	1.89e-05
318.15	0.2	0.00978	0.009053	1.82e-05
318.15	0.2	0.02006	0.0088163	1.76e-05
318.15	0.2	0.02521	0.0087272	1.75e-05
318.15	0.2	0.03001	0.0085991	1.72e-05
318.15	0.2	0.03517	0.0085025	1.7e-05
318.15	0.2	0.04037	0.0083807	1.68e-05
318.15	0.2	0.04559	0.0082696	1.66e-05
318.15	0.2	0.05083	0.0081367	1.63e-05
318.15	0.4	0.00989	0.007169	1.44e-05
318.15	0.4	0.01977	0.0070048	1.4e-05
318.15	0.4	0.02471	0.0069144	1.38e-05
318.15	0.4	0.02966	0.0068269	1.37e-05
318.15	0.4	0.035	0.0067338	1.35e-05
318.15	0.4	0.03994	0.0066346	1.33e-05
318.15	0.4	0.04488	0.0065534	1.31e-05
318.15	0.4	0.04982	0.0064639	1.29e-05
323.15	0.1	0.00994	0.0113883	2.28e-05
323.15	0.1	0.01987	0.0111349	2.23e-05
323.15	0.1	0.02484	0.0110001	2.2e-05
323.15	0.1	0.02981	0.0108731	2.18e-05
323.15	0.1	0.03478	0.0107513	2.15e-05
323.15	0.1	0.03977	0.0105993	2.12e-05
323.15	0.1	0.04464	0.0104567	2.09e-05
323.15	0.1	0.04969	0.0103182	2.07e-05
323.15	0.2	0.00976	0.0098795	1.98e-05
323.15	0.2	0.02	0.0096314	1.93e-05
323.15	0.2	0.02513	0.0095185	1.91e-05
323.15	0.2	0.02989	0.0093874	1.88e-05
323.15	0.2	0.03506	0.0092869	1.86e-05
323.15	0.2	0.04025	0.0091761	1.84e-05
323.15	0.2	0.04545	0.0090434	1.81e-05
323.15	0.2	0.05067	0.0089122	1.78e-05
323.15	0.4	0.00986	0.0079007	1.58e-05
323.15	0.4	0.01971	0.0077271	1.55e-05
323.15	0.4	0.02463	0.0076604	1.53e-05
323.15	0.4	0.02957	0.0075632	1.51e-05
323.15	0.4	0.03489	0.0074896	1.5e-05
323.15	0.4	0.03981	0.0074094	1.48e-05
323.15	0.4	0.04474	0.0073153	1.46e-05
323.15	0.4	0.04966	0.007231	1.45e-05

System: dimethylformamide + sodium tetraphenylboron + water; phases: Liquid
Fixed: Pressure, kPa = 101
Property: Molar conductivity, S*m2/mol (Liquid); method: dip-type cell
Temperature, K	Solvent: Mole fraction of dimethylformamide	Molality, mol/kg of sodium tetraphenylboron	Molar conductivity, S*m2/mol	uncertainty
308.15	0.1	0.0075	0.0071296	1.43e-05
308.15	0.1	0.008	0.0071121	1.42e-05
308.15	0.1	0.0085	0.0071099	1.42e-05
308.15	0.1	0.009	0.007093	1.42e-05
308.15	0.1	0.0095	0.0070902	1.42e-05
308.15	0.1	0.01	0.0070757	1.42e-05
308.15	0.1	0.015	0.0069538	1.39e-05
308.15	0.1	0.02	0.0068378	1.37e-05
308.15	0.2	0.00748	0.0063405	1.55e-05
308.15	0.2	0.00804	0.0063045	1.27e-05
308.15	0.2	0.00849	0.0062897	1.28e-05
308.15	0.2	0.00905	0.0062689	1.27e-05
308.15	0.2	0.00949	0.0062599	1.27e-05
308.15	0.2	0.00994	0.0062264	1.57e-05
308.15	0.2	0.01497	0.0060769	1.22e-05
308.15	0.2	0.01999	0.0059001	1.18e-05
308.15	0.4	0.00754	0.0051952	1.04e-05
308.15	0.4	0.00807	0.0051837	1.04e-05
308.15	0.4	0.00842	0.0051792	1.04e-05
308.15	0.4	0.00894	0.005171	1.04e-05
308.15	0.4	0.00947	0.0051534	1.04e-05
308.15	0.4	0.01	0.0051316	1.04e-05
308.15	0.4	0.01508	0.0050419	1.01e-05
308.15	0.4	0.02	0.0049209	9.9e-06
313.15	0.1	0.00748	0.0078492	1.6e-05
313.15	0.1	0.00798	0.0078204	1.57e-05
313.15	0.1	0.00848	0.0078102	1.57e-05
313.15	0.1	0.00898	0.0077917	1.56e-05
313.15	0.1	0.00948	0.0077861	1.56e-05
313.15	0.1	0.00998	0.007771	1.56e-05
313.15	0.1	0.01497	0.0076295	1.53e-05
313.15	0.1	0.01996	0.0074984	1.5e-05
313.15	0.2	0.00747	0.0070161	1.56e-05
313.15	0.2	0.00803	0.0069873	1.41e-05
313.15	0.2	0.00848	0.0069623	1.41e-05
313.15	0.2	0.00903	0.0069538	1.41e-05
313.15	0.2	0.00948	0.0069333	1.4e-05
313.15	0.2	0.00993	0.0069207	1.6e-05
313.15	0.2	0.01494	0.006765	1.36e-05
313.15	0.2	0.01997	0.0065763	1.32e-05
313.15	0.4	0.00752	0.0058786	1.18e-05
313.15	0.4	0.00805	0.0058695	1.18e-05
313.15	0.4	0.0084	0.0058616	1.18e-05
313.15	0.4	0.00892	0.0058489	1.17e-05
313.15	0.4	0.00945	0.0058364	1.17e-05
313.15	0.4	0.00997	0.0058254	1.17e-05
313.15	0.4	0.0151	0.0056884	1.14e-05
313.15	0.4	0.01995	0.0055607	1.12e-05
318.15	0.1	0.00748	0.008601	1.72e-05
318.15	0.1	0.00797	0.0085909	1.72e-05
318.15	0.1	0.00847	0.0085701	1.72e-05
318.15	0.1	0.00897	0.0085643	1.71e-05
318.15	0.1	0.00947	0.0085492	1.72e-05
318.15	0.1	0.00997	0.0085302	1.71e-05
318.15	0.1	0.01495	0.0084086	1.68e-05
318.15	0.1	0.01994	0.0082819	1.66e-05
318.15	0.2	0.00746	0.0077269	1.65e-05
318.15	0.2	0.00802	0.0077088	1.55e-05
318.15	0.2	0.00847	0.0077013	1.56e-05
318.15	0.2	0.00902	0.0076683	1.57e-05
318.15	0.2	0.00947	0.0076483	1.54e-05
318.15	0.2	0.00991	0.0076237	1.76e-05
318.15	0.2	0.01494	0.0074413	1.5e-05
318.15	0.2	0.01995	0.0072509	1.45e-05
318.15	0.4	0.00751	0.0065711	1.31e-05
318.15	0.4	0.00804	0.00655	1.32e-05
318.15	0.4	0.00839	0.0065388	1.31e-05
318.15	0.4	0.00891	0.0065257	1.31e-05
318.15	0.4	0.00944	0.0065034	1.3e-05
318.15	0.4	0.00996	0.0065007	1.3e-05
318.15	0.4	0.01508	0.0063456	1.27e-05
318.15	0.4	0.01992	0.0062105	1.25e-05
323.15	0.1	0.00745	0.0093501	1.87e-05
323.15	0.1	0.00795	0.009338	1.87e-05
323.15	0.1	0.00845	0.0093293	1.87e-05
323.15	0.1	0.00894	0.0093128	1.87e-05
323.15	0.1	0.00944	0.0093009	1.86e-05
323.15	0.1	0.00994	0.0092835	1.86e-05
323.15	0.1	0.01491	0.0091446	1.83e-05
323.15	0.1	0.01988	0.0089996	1.8e-05
323.15	0.2	0.00742	0.0084668	1.89e-05
323.15	0.2	0.008	0.0084532	1.69e-05
323.15	0.2	0.00844	0.008444	1.72e-05
323.15	0.2	0.009	0.0084031	1.71e-05
323.15	0.2	0.00944	0.0083814	1.7e-05
323.15	0.2	0.00989	0.0083542	2e-05
323.15	0.2	0.01488	0.0081567	1.64e-05
323.15	0.2	0.01988	0.0079799	1.6e-05
323.15	0.4	0.00741	0.0072161	1.45e-05
323.15	0.4	0.00801	0.007204	1.44e-05
323.15	0.4	0.00836	0.0071917	1.44e-05
323.15	0.4	0.00889	0.0071736	1.44e-05
323.15	0.4	0.00941	0.0071662	1.43e-05
323.15	0.4	0.00993	0.0071581	1.43e-05
323.15	0.4	0.01503	0.0070039	1.41e-05
323.15	0.4	0.01986	0.0068701	1.38e-05

System: dimethylformamide + sodium bromide + water; phases: Liquid
Fixed: Pressure, kPa = 101
Property: Molar conductivity, S*m2/mol (Liquid); method: dip-type cell
Temperature, K	Solvent: Mole fraction of dimethylformamide	Molality, mol/kg of sodium bromide	Molar conductivity, S*m2/mol	uncertainty
308.15	0.1	0.01	0.0124557	2.49e-05
308.15	0.1	0.02	0.0122278	2.45e-05
308.15	0.1	0.025	0.0121422	2.43e-05
308.15	0.1	0.03	0.0120219	2.41e-05
308.15	0.1	0.035	0.0119373	2.39e-05
308.15	0.1	0.04	0.0118239	2.37e-05
308.15	0.1	0.045	0.0117201	2.35e-05
308.15	0.1	0.05	0.0116211	2.33e-05
308.15	0.2	0.00989	0.0111118	2.22e-05
308.15	0.2	0.01977	0.0109054	2.18e-05
308.15	0.2	0.02493	0.0107707	2.16e-05
308.15	0.2	0.02966	0.0106521	2.13e-05
308.15	0.2	0.03481	0.0105132	2.1e-05
308.15	0.2	0.03997	0.0104074	2.08e-05
308.15	0.2	0.0447	0.0103359	2.07e-05
308.15	0.2	0.04986	0.0101596	2.03e-05
308.15	0.4	0.00975	0.0086469	1.73e-05
308.15	0.4	0.02058	0.0083725	1.68e-05
308.15	0.4	0.02492	0.0082679	1.66e-05
308.15	0.4	0.03033	0.0081455	1.63e-05
308.15	0.4	0.03467	0.0080663	1.62e-05
308.15	0.4	0.04008	0.007903	1.58e-05
308.15	0.4	0.04442	0.0078225	1.57e-05
308.15	0.4	0.04983	0.0076569	1.54e-05
313.15	0.1	0.00997	0.0137465	2.75e-05
313.15	0.1	0.01995	0.0135118	2.7e-05
313.15	0.1	0.02494	0.0134012	2.68e-05
313.15	0.1	0.02993	0.0133318	2.67e-05
313.15	0.1	0.03492	0.0132115	2.64e-05
313.15	0.1	0.03991	0.0130852	2.62e-05
313.15	0.1	0.04498	0.0129496	2.59e-05
313.15	0.1	0.04988	0.0128642	2.57e-05
313.15	0.2	0.00987	0.0123353	2.47e-05
313.15	0.2	0.01973	0.0120603	2.41e-05
313.15	0.2	0.02428	0.0119362	2.39e-05
313.15	0.2	0.0296	0.011779	2.36e-05
313.15	0.2	0.03475	0.0116183	2.33e-05
313.15	0.2	0.03989	0.0115008	2.3e-05
313.15	0.2	0.04461	0.0114099	2.28e-05
313.15	0.2	0.04976	0.011255	2.25e-05
313.15	0.4	0.00973	0.009731	1.95e-05
313.15	0.4	0.02056	0.0093969	1.88e-05
313.15	0.4	0.02486	0.0093133	1.87e-05
313.15	0.4	0.03026	0.0091728	1.84e-05
313.15	0.4	0.03459	0.0091086	1.82e-05
313.15	0.4	0.03999	0.0089668	1.8e-05
313.15	0.4	0.04434	0.0088503	1.77e-05
313.15	0.4	0.04972	0.0087111	1.75e-05
318.15	0.1	0.00996	0.0151032	3.02e-05
318.15	0.1	0.01993	0.0148572	2.97e-05
318.15	0.1	0.02491	0.0147155	2.94e-05
318.15	0.1	0.0299	0.0146531	2.93e-05
318.15	0.1	0.03488	0.0145038	2.9e-05
318.15	0.1	0.03987	0.0143637	2.88e-05
318.15	0.1	0.04485	0.0142062	2.84e-05
318.15	0.1	0.04983	0.0141301	2.83e-05
318.15	0.2	0.00986	0.0135059	2.7e-05
318.15	0.2	0.01971	0.0132217	2.65e-05
318.15	0.2	0.02425	0.0130855	2.62e-05
318.15	0.2	0.02956	0.0128819	2.58e-05
318.15	0.2	0.0347	0.0127504	2.55e-05
318.15	0.2	0.03984	0.0125881	2.52e-05
318.15	0.2	0.04455	0.0124329	2.49e-05
318.15	0.2	0.04969	0.0122761	2.46e-05
318.15	0.4	0.00972	0.0108074	2.16e-05
318.15	0.4	0.02051	0.0105128	2.11e-05
318.15	0.4	0.02483	0.0103908	2.08e-05
318.15	0.4	0.03023	0.0102238	2.05e-05
318.15	0.4	0.03455	0.0101472	2.03e-05
318.15	0.4	0.03994	0.010004	2e-05
318.15	0.4	0.04406	0.0098797	1.98e-05
318.15	0.4	0.04966	0.0096985	1.94e-05
323.15	0.1	0.00993	0.0164186	3.28e-05
323.15	0.1	0.01987	0.0162079	3.24e-05
323.15	0.1	0.02484	0.0160499	3.21e-05
323.15	0.1	0.02981	0.0159191	3.19e-05
323.15	0.1	0.03478	0.0158187	3.17e-05
323.15	0.1	0.03974	0.0156621	3.13e-05
323.15	0.1	0.04471	0.0155616	3.11e-05
323.15	0.1	0.04968	0.0153809	3.08e-05
323.15	0.2	0.00983	0.0146927	2.94e-05
323.15	0.2	0.01965	0.0144611	2.89e-05
323.15	0.2	0.02418	0.0143035	2.86e-05
323.15	0.2	0.02948	0.0141388	2.83e-05
323.15	0.2	0.0346	0.0139295	2.79e-05
323.15	0.2	0.03973	0.0137415	2.75e-05
323.15	0.2	0.04442	0.0136642	2.73e-05
323.15	0.2	0.04954	0.0134827	2.7e-05
323.15	0.4	0.00969	0.0118714	2.38e-05
323.15	0.4	0.02045	0.0115526	2.31e-05
323.15	0.4	0.02476	0.0114211	2.29e-05
323.15	0.4	0.03014	0.0112563	2.25e-05
323.15	0.4	0.03444	0.0111779	2.24e-05
323.15	0.4	0.03982	0.0110376	2.21e-05
323.15	0.4	0.04413	0.010914	2.19e-05
323.15	0.4	0.04951	0.0107476	2.15e-05
