Measured thermophysical data. Solubility of CO2 in Propanone, 1-Ethyl-3-methylimidazolium Tetrafluoroborate, and Their Mixtures
Source: J. Chem. Eng. Data, 2010, 10.1021/je100343v
Compound 1: acetone, C3H6O, InChI=1S/C3H6O/c1-3(2)4/h1-2H3, purity 99.5%
Compound 2: carbon dioxide, CO2, InChI=1S/CO2/c2-1-3, purity 99.99%
Compound 3: 1-ethyl-3-methylimidazolium tetrafluoroborate, C6H11BF4N2, InChI=1S/C6H11N2.BF4/c1-3-8-5-4-7(2)6-8;2-1(3,4)5/h4-6H,3H2,1-2H3;/q+1;-1, purity 98%

System: acetone + carbon dioxide; phases: Liquid, Gas
Property: Vapor or sublimation pressure, kPa (Liquid); method: Manometric method
Mole fraction of carbon dioxide	Temperature, K	Vapor or sublimation pressure, kPa	uncertainty
0.1099	298.2	550	60
0.149	313.2	1010	70
0.2033	298.2	1030	60
0.2212	313.2	1520	70
0.2927	313.2	2000	70
0.2989	298.2	1530	60
0.35	313.2	2430	80
0.396	298.2	2050	60
0.4322	313.2	3000	70
0.4665	298.2	2500	60
0.5075	313.2	3540	80
0.55607	298.2	3020	70
0.5654	313.2	4000	80
0.6311	298.2	3540	70
0.6474	313.2	4600	80
0.7001	313.2	5010	90
0.7193	298.2	4040	70
0.7587	313.2	5510	90
0.8054	298.2	4600	70
0.8234	313.2	6030	90
0.8847	298.2	5160	80
0.9326	313.2	7020	100
0.9339	298.2	5510	80

System: acetone + carbon dioxide; phases: Gas, Liquid
Property: Mole fraction of carbon dioxide (Gas); method: Chromatography
Mole fraction of carbon dioxide	Temperature, K	Mole fraction of carbon dioxide	uncertainty
0.1099	298.2	0.9514	0.01
0.149	313.2	0.9708	0.01
0.2033	298.2	0.959	0.01
0.2212	313.2	0.9724	0.01
0.2927	313.2	0.9759	0.01
0.2989	298.2	0.9622	0.0101
0.35	313.2	0.9759	0.01
0.396	298.2	0.9799	0.01
0.4322	313.2	0.9845	0.01
0.4665	298.2	0.9747	0.01
0.5075	313.2	0.9861	0.01
0.55607	298.2	0.9682	0.01
0.5654	313.2	0.9856	0.01
0.6311	298.2	0.9826	0.01
0.6474	313.2	0.9866	0.0101
0.7001	313.2	0.9642	0.0105
0.7193	298.2	0.9845	0.01
0.7587	313.2	0.9508	0.0101
0.8054	298.2	0.9869	0.0102
0.8234	313.2	0.9504	0.01
0.8847	298.2	0.952	0.0104
0.9326	313.2	0.956	0.01
0.9339	298.2	0.9541	0.01

System: carbon dioxide + 1-ethyl-3-methylimidazolium tetrafluoroborate; phases: Liquid, Gas
Property: Mole fraction of carbon dioxide (Liquid); method: Chromatography
Temperature, K	Pressure, kPa	Mole fraction of carbon dioxide	uncertainty
298.2	530	0.0555	0.0102
298.2	910	0.0918	0.0102
298.2	1550	0.147	0.0102
298.2	2010	0.1875	0.0102
298.2	2500	0.2274	0.0103
298.2	3000	0.27	0.0103
298.2	3500	0.3102	0.0104
298.2	4040	0.3453	0.0105
313.2	560	0.0425	0.0101
313.2	1010	0.0763	0.0101
313.2	1500	0.1147	0.0101
313.2	1570	0.1197	0.0101
313.2	2010	0.151	0.0102
313.2	2520	0.1877	0.0102
313.2	3050	0.2271	0.0103
313.2	3540	0.2576	0.0103
313.2	4060	0.2891	0.0103

System: acetone + carbon dioxide + 1-ethyl-3-methylimidazolium tetrafluoroborate; phases: Liquid, Gas
Property: Mole fraction of carbon dioxide (Liquid); method: Chromatography
Temperature, K	Pressure, kPa	Solvent: Mass fraction of 1-ethyl-3-methylimidazolium tetrafluoroborate	Mole fraction of carbon dioxide	uncertainty
298.2	520	0.1	0.0955	0.0107
298.2	530	0.2	0.0887	0.0107
298.2	600	0.5	0.0792	0.0104
298.2	1000	0.2	0.1758	0.0108
298.2	1010	0.1	0.1855	0.0108
298.2	1020	0.5	0.1349	0.0105
298.2	1490	0.1	0.2724	0.0109
298.2	1500	0.2	0.2646	0.0111
298.2	1550	0.5	0.2011	0.0107
298.2	2010	0.2	0.359	0.0113
298.2	2030	0.1	0.367	0.0109
298.2	2030	0.5	0.2617	0.011
298.2	2500	0.2	0.4278	0.0113
298.2	2510	0.1	0.4421	0.0112
298.2	2540	0.5	0.3208	0.0112
298.2	3060	0.1	0.5341	0.0113
298.2	3540	0.1	0.62	0.0112
313.2	520	0.1	0.0689	0.0104
313.2	540	0.2	0.0608	0.0103
313.2	540	0.5	0.0526	0.0102
313.2	1000	0.1	0.1337	0.0106
313.2	1000	0.2	0.1168	0.0104
313.2	1020	0.5	0.097	0.0102
313.2	1500	0.1	0.206	0.0109
313.2	1500	0.5	0.1414	0.0103
313.2	1550	0.2	0.1839	0.0106
313.2	2000	0.5	0.1981	0.0105
313.2	2040	0.2	0.2491	0.0107
313.2	2050	0.1	0.2843	0.0111
313.2	2500	0.1	0.3431	0.0114
313.2	2500	0.5	0.2437	0.0106
313.2	2520	0.2	0.3097	0.011
313.2	3000	0.5	0.2983	0.0108
313.2	3030	0.2	0.3813	0.0113
313.2	3070	0.1	0.4228	0.0114
313.2	3570	0.1	0.4862	0.0117

System: acetone + carbon dioxide + 1-ethyl-3-methylimidazolium tetrafluoroborate; phases: Gas, Liquid
Property: Mole fraction of carbon dioxide (Gas); method: Chromatography
Temperature, K	Mole fraction of carbon dioxide	Solvent: Mass fraction of 1-ethyl-3-methylimidazolium tetrafluoroborate	Mole fraction of carbon dioxide	uncertainty
298.2	0.938	0.1	0.0955	0.0012
298.2	0.9468	0.2	0.0887	0.0011
298.2	0.951	0.5	0.0792	0.001
298.2	0.9667	0.2	0.1758	0.0022
298.2	0.9688	0.1	0.1855	0.0023
298.2	0.9783	0.5	0.1349	0.0016
298.2	0.9773	0.1	0.2724	0.0035
298.2	0.9771	0.2	0.2646	0.0034
298.2	0.9638	0.5	0.2011	0.0025
298.2	0.9819	0.2	0.359	0.0048
298.2	0.9836	0.1	0.367	0.0049
298.2	0.9843	0.5	0.2617	0.0033
298.2	0.9856	0.2	0.4278	0.006
298.2	0.9854	0.1	0.4421	0.0062
298.2	0.9823	0.5	0.3208	0.0042
298.2	0.9875	0.1	0.5341	0.007
298.2	0.9882	0.1	0.62	0.006
313.2	0.9242	0.1	0.0689	0.0008
313.2	0.8853	0.2	0.0608	0.0007
313.2	0.9466	0.5	0.0526	0.0006
313.2	0.9485	0.1	0.1337	0.0016
313.2	0.927	0.2	0.1168	0.0014
313.2	0.9246	0.5	0.097	0.0012
313.2	0.9727	0.1	0.206	0.0026
313.2	0.9234	0.5	0.1414	0.0017
313.2	0.9487	0.2	0.1839	0.0023
313.2	0.9781	0.5	0.1981	0.0025
313.2	0.9692	0.2	0.2491	0.0032
313.2	0.9735	0.1	0.2843	0.0037
313.2	0.9737	0.1	0.3431	0.0046
313.2	0.979	0.5	0.2437	0.0031
313.2	0.9734	0.2	0.3097	0.004
313.2	0.9842	0.5	0.2983	0.0039
313.2	0.9829	0.2	0.3813	0.0052
313.2	0.9781	0.1	0.4228	0.0059
313.2	0.9795	0.1	0.4862	0.007
