Measured thermophysical data. Sulfur-Containing Ionic Liquids. Rotating-Bomb Combustion Calorimetry and First-Principles Calculations for 1-Ethyl-3-methylimidazolium Thiocyanate
Source: J. Chem. Eng. Data, 2010, 10.1021/je1009366
Compound 1: sulfuric acid, H2O4S, InChI=1S/H2O4S/c1-5(2,3)4/h(H2,1,2,3,4)
Compound 2: carbon dioxide, CO2, InChI=1S/CO2/c2-1-3
Compound 3: nitrogen, N2, InChI=1S/N2/c1-2
Compound 4: water, H2O, InChI=1S/H2O/h1H2
Compound 5: oxygen, O2, InChI=1S/O2/c1-2
Compound 6: 1-ethyl-3-methylimidazolium thiocyanate, C7H11N3S, InChI=1S/C6H11N2.CHNS/c1-3-8-5-4-7(2)6-8;2-1-3/h4-6H,3H2,1-2H3;3H/q+1;/p-1, purity 99%
Compound 7: thianthrene, C12H8S2, InChI=1S/C12H8S2/c1-2-6-10-9(5-1)13-11-7-3-4-8-12(11)14-10/h1-8H

Reaction: 1 sulfuric acid + -1 1-ethyl-3-methylimidazolium thiocyanate + 7 carbon dioxide + 1.5 nitrogen + 4.5 water + -11.25 oxygen
Property: Molar enthalpy of reaction, kJ/mol
-4981.4

Reaction: -1 thianthrene + 2 sulfuric acid + 12 carbon dioxide + 2 water + -17 oxygen
Property: Molar enthalpy of reaction, kJ/mol
-7252.8
