Measured thermophysical data. Measurements, Correlations, and Mod. UNIFAC (Do) Prediction of (Solid-Liquid) Phase Equilibria Diagrams in Binary Systems (Aliphatic Ketone + an Alcohol)
Source: J. Chem. Eng. Data, 2011, 10.1021/je100725a
Compound 1: 2-heptanone, C7H14O, InChI=1S/C7H14O/c1-3-4-5-6-7(2)8/h3-6H2,1-2H3, purity 99%
Compound 2: 2-nonanone, C9H18O, InChI=1S/C9H18O/c1-3-4-5-6-7-8-9(2)10/h3-8H2,1-2H3, purity 99%
Compound 3: 2-undecanone, C11H22O, InChI=1S/C11H22O/c1-3-4-5-6-7-8-9-10-11(2)12/h3-10H2,1-2H3, purity 99%
Compound 4: 2-dodecanone, C12H24O, InChI=1S/C12H24O/c1-3-4-5-6-7-8-9-10-11-12(2)13/h3-11H2,1-2H3, purity 99%
Compound 5: 2-tridecanone, C13H26O, InChI=1S/C13H26O/c1-3-4-5-6-7-8-9-10-11-12-13(2)14/h3-12H2,1-2H3, purity 99%
Compound 6: octan-1-ol, C8H18O, InChI=1S/C8H18O/c1-2-3-4-5-6-7-8-9/h9H,2-8H2,1H3, purity 99.8%
Compound 7: decan-1-ol, C10H22O, InChI=1S/C10H22O/c1-2-3-4-5-6-7-8-9-10-11/h11H,2-10H2,1H3, purity 99.8%
Compound 8: dodecan-1-ol, C12H26O, InChI=1S/C12H26O/c1-2-3-4-5-6-7-8-9-10-11-12-13/h13H,2-12H2,1H3, purity 99.8%

System: 2-heptanone; phases: Crystal, Liquid, Air at 1 atmosphere
Property: Molar enthalpy of transition or fusion, kJ/mol (Crystal); method: DSC
Molar enthalpy of transition or fusion, kJ/mol	uncertainty
19.089	0.45

System: 2-heptanone; phases: Crystal, Liquid, Air at 1 atmosphere
Property: Normal melting temperature, K (Crystal); method: DTA
Normal melting temperature, K	uncertainty
236.5	0.4

System: 2-heptanone; phases: Crystal, Liquid, Air at 1 atmosphere
Property: Normal melting temperature, K (Crystal); method: VISOBS::UFactor:4
Normal melting temperature, K	uncertainty
237	0.6

System: 2-nonanone; phases: Crystal, Liquid, Air at 1 atmosphere
Property: Molar enthalpy of transition or fusion, kJ/mol (Crystal); method: DSC
Molar enthalpy of transition or fusion, kJ/mol	uncertainty
27.347	0.609

System: 2-nonanone; phases: Crystal, Liquid, Air at 1 atmosphere
Property: Normal melting temperature, K (Crystal); method: DTA
Normal melting temperature, K	uncertainty
263.68	0.39

System: 2-nonanone; phases: Crystal, Liquid, Air at 1 atmosphere
Property: Normal melting temperature, K (Crystal); method: VISOBS::UFactor:4
Normal melting temperature, K	uncertainty
263.4	0.6

System: 2-undecanone; phases: Crystal, Liquid, Air at 1 atmosphere
Property: Molar enthalpy of transition or fusion, kJ/mol (Crystal); method: DSC
Molar enthalpy of transition or fusion, kJ/mol	uncertainty
27.347	0.609

System: 2-undecanone; phases: Crystal, Liquid, Air at 1 atmosphere
Property: Normal melting temperature, K (Crystal); method: DTA
Normal melting temperature, K	uncertainty
285.26	0.39

System: 2-undecanone; phases: Crystal, Liquid, Air at 1 atmosphere
Property: Normal melting temperature, K (Crystal); method: VISOBS::UFactor:4
Normal melting temperature, K	uncertainty
284.8	0.6

System: 2-dodecanone; phases: Crystal, Liquid, Air at 1 atmosphere
Property: Molar enthalpy of transition or fusion, kJ/mol (Crystal); method: DSC
Molar enthalpy of transition or fusion, kJ/mol	uncertainty
39.48	0.843

System: 2-dodecanone; phases: Crystal, Liquid, Air at 1 atmosphere
Property: Normal melting temperature, K (Crystal); method: DTA
Normal melting temperature, K	uncertainty
294.27	0.39

System: 2-dodecanone; phases: Crystal, Liquid, Air at 1 atmosphere
Property: Normal melting temperature, K (Crystal); method: VISOBS::UFactor:4
Normal melting temperature, K	uncertainty
294	0.6

System: 2-tridecanone; phases: Crystal, Liquid, Air at 1 atmosphere
Property: Molar enthalpy of transition or fusion, kJ/mol (Crystal); method: DSC
Molar enthalpy of transition or fusion, kJ/mol	uncertainty
44.03	0.931

System: 2-tridecanone; phases: Crystal, Liquid, Air at 1 atmosphere
Property: Normal melting temperature, K (Crystal); method: DTA
Normal melting temperature, K	uncertainty
301.75	0.39

System: 2-tridecanone; phases: Crystal, Liquid, Air at 1 atmosphere
Property: Normal melting temperature, K (Crystal); method: VISOBS::UFactor:4
Normal melting temperature, K	uncertainty
300.8	0.6

System: octan-1-ol; phases: Crystal, Liquid, Air at 1 atmosphere
Property: Molar enthalpy of transition or fusion, kJ/mol (Crystal); method: DSC
Molar enthalpy of transition or fusion, kJ/mol	uncertainty
23.7	0.537

System: octan-1-ol; phases: Crystal, Liquid, Air at 1 atmosphere
Property: Normal melting temperature, K (Crystal); method: VISOBS::UFactor:4
Normal melting temperature, K	uncertainty
258.6	0.6

System: decan-1-ol; phases: Crystal, Liquid, Air at 1 atmosphere
Property: Molar enthalpy of transition or fusion, kJ/mol (Crystal); method: DSC
Molar enthalpy of transition or fusion, kJ/mol	uncertainty
31.4	0.686

System: decan-1-ol; phases: Crystal, Liquid, Air at 1 atmosphere
Property: Normal melting temperature, K (Crystal); method: VISOBS::UFactor:4
Normal melting temperature, K	uncertainty
279.5	0.6

System: dodecan-1-ol; phases: Crystal, Liquid, Air at 1 atmosphere
Property: Molar enthalpy of transition or fusion, kJ/mol (Crystal); method: DSC
Molar enthalpy of transition or fusion, kJ/mol	uncertainty
37.74	0.808

System: dodecan-1-ol; phases: Crystal, Liquid, Air at 1 atmosphere
Property: Normal melting temperature, K (Crystal); method: VISOBS::UFactor:4
Normal melting temperature, K	uncertainty
296.6	0.6

System: 2-heptanone + octan-1-ol; phases: Liquid, Crystal
Fixed: Pressure, kPa = 101
Property: Solid-liquid equilibrium temperature, K (Liquid); method: VISOBS:UFactor:4
Mole fraction of 2-heptanone	Solid-liquid equilibrium temperature, K	uncertainty
0.9022	235	0.6
0.9473	235.7	0.6
1	237	0.6

System: 2-heptanone + octan-1-ol; phases: Liquid, Crystal
Fixed: Pressure, kPa = 101
Property: Solid-liquid equilibrium temperature, K (Liquid); method: VISOBS:UFactor:4
Mole fraction of 2-heptanone	Solid-liquid equilibrium temperature, K	uncertainty
0	258.6	0.6
0.0522	258.2	0.6
0.1355	256.7	0.6
0.2071	255.3	0.6
0.2981	253.6	0.6
0.35	252.6	0.6
0.3994	251.4	0.6
0.4495	251	0.6
0.4986	249.9	0.6
0.559	249	0.6
0.6086	247.5	0.6
0.658	246.4	0.6
0.7074	244.6	0.6
0.7582	242.9	0.6
0.8053	240.5	0.6
0.8319	239	0.6
0.8545	237.1	0.6

System: 2-heptanone + decan-1-ol; phases: Liquid, Crystal
Fixed: Pressure, kPa = 101
Property: Solid-liquid equilibrium temperature, K (Liquid); method: VISOBS:UFactor:4
Mole fraction of 2-heptanone	Solid-liquid equilibrium temperature, K	uncertainty
0	279.5	0.6
0.1017	278	0.6
0.1601	277.7	0.6
0.2235	276.4	0.6
0.2749	275.4	0.6
0.3214	274.5	0.6
0.3869	273.4	0.6
0.4475	272.1	0.6
0.4988	270.9	0.6
0.5497	269.8	0.6
0.6004	268.7	0.6
0.6494	267.3	0.6
0.7012	265.8	0.6
0.7518	263.8	0.6
0.7969	262	0.6
0.846	258.7	0.6
0.8954	254.1	0.6
0.9398	247.2	0.6
0.9833	241.1	0.6
0.9928	239.3	1
0.9939	237	1

System: 2-heptanone + decan-1-ol; phases: Liquid, Crystal
Property: Solid-liquid equilibrium temperature, K (Liquid); method: VISOBS:UFactor:4
Mole fraction of 2-heptanone	Pressure, kPa	Solid-liquid equilibrium temperature, K	uncertainty
1	101	237	0.6

System: 2-heptanone + dodecan-1-ol; phases: Liquid, Crystal
Property: Solid-liquid equilibrium temperature, K (Liquid); method: VISOBS:UFactor:4
Mole fraction of 2-heptanone	Pressure, kPa	Solid-liquid equilibrium temperature, K	uncertainty
1	101	237	0.6

System: 2-heptanone + dodecan-1-ol; phases: Liquid, Crystal
Fixed: Pressure, kPa = 101
Property: Solid-liquid equilibrium temperature, K (Liquid); method: VISOBS:UFactor:4
Mole fraction of 2-heptanone	Solid-liquid equilibrium temperature, K	uncertainty
0	296.6	0.6
0.0774	295.7	0.6
0.1605	294.4	0.6
0.2177	293.3	0.6
0.2816	292	0.6
0.3425	291	0.6
0.404	289.8	0.6
0.4529	288.8	0.6
0.501	287.6	0.6
0.5571	286.7	0.6
0.6026	285.6	0.6
0.6506	284.4	0.6
0.7481	281.1	0.6
0.7981	278.8	0.6
0.8507	275.8	0.6
0.895	270.9	0.6
0.9494	263	0.6
0.9857	246.4	0.6

System: octan-1-ol + 2-nonanone; phases: Liquid, Crystal
Fixed: Pressure, kPa = 101
Property: Solid-liquid equilibrium temperature, K (Liquid); method: VISOBS:UFactor:4
Mole fraction of 2-nonanone	Solid-liquid equilibrium temperature, K	uncertainty
0.3388	253.7	0.6
0.378	254.6	0.6
0.422	254.9	0.6
0.4627	255.6	0.6
0.5009	256.3	0.6
0.544	257	0.6
0.5959	257.7	0.6
0.6452	258.3	0.6
0.6929	258.9	0.6
0.7454	259.8	0.6
0.7906	260.2	0.6
0.8463	261.2	0.6
0.9174	261.9	0.6
0.9524	262.7	0.6
1	263.4	0.6

System: octan-1-ol + 2-nonanone; phases: Liquid, Crystal
Fixed: Pressure, kPa = 101
Property: Solid-liquid equilibrium temperature, K (Liquid); method: VISOBS:UFactor:4
Mole fraction of 2-nonanone	Solid-liquid equilibrium temperature, K	uncertainty
0	258.6	0.6
0.0831	257.2	0.6
0.0862	258.4	0.6
0.1075	256.9	0.6
0.1598	256.2	0.6
0.2002	255.6	0.6
0.2175	256.1	0.6
0.2557	254.4	0.6
0.2966	253.5	0.6

System: decan-1-ol + 2-nonanone; phases: Liquid, Crystal
Fixed: Pressure, kPa = 101
Property: Solid-liquid equilibrium temperature, K (Liquid); method: VISOBS:UFactor:4
Mole fraction of 2-nonanone	Solid-liquid equilibrium temperature, K	uncertainty
0	279.5	0.6
0.0928	278.2	0.6
0.1511	277.2	0.6
0.2182	275.7	0.6
0.299	274.1	0.6
0.3782	272.6	0.6
0.4472	271.1	0.6
0.5115	269.6	0.6
0.5888	267.9	0.6
0.6647	266	0.6
0.7341	263.6	0.6
0.7819	261.5	0.6
0.8349	260.7	0.6

System: decan-1-ol + 2-nonanone; phases: Liquid, Crystal
Fixed: Pressure, kPa = 101
Property: Solid-liquid equilibrium temperature, K (Liquid); method: VISOBS:UFactor:4
Mole fraction of 2-nonanone	Solid-liquid equilibrium temperature, K	uncertainty
0.8884	261.9	0.6
0.9393	262.9	0.6
1	263.4	0.6

System: dodecan-1-ol + 2-nonanone; phases: Liquid, Crystal
Fixed: Pressure, kPa = 101
Property: Solid-liquid equilibrium temperature, K (Liquid); method: VISOBS:UFactor:4
Mole fraction of 2-nonanone	Solid-liquid equilibrium temperature, K	uncertainty
0.8789	272.2	0.6
0.9337	267.4	0.6
0.9746	263.6	0.6
1	263.4	0.6

System: dodecan-1-ol + 2-nonanone; phases: Liquid, Crystal
Fixed: Pressure, kPa = 101
Property: Solid-liquid equilibrium temperature, K (Liquid); method: VISOBS:UFactor:4
Mole fraction of 2-nonanone	Solid-liquid equilibrium temperature, K	uncertainty
0	296.6	0.6
0.1014	295.4	0.6
0.1791	294	0.6
0.26	292.7	0.6
0.3381	290.8	0.6
0.4143	289.5	0.6
0.4854	287.6	0.6
0.5816	285.9	0.6
0.6678	283.1	0.6
0.7363	280.6	0.6
0.806	277.2	0.6

System: octan-1-ol + 2-undecanone; phases: Liquid, Crystal
Property: Solid-liquid equilibrium temperature, K (Liquid); method: VISOBS:UFactor:4
Mole fraction of 2-undecanone	Pressure, kPa	Solid-liquid equilibrium temperature, K	uncertainty
0	101	258.6	0.6

System: octan-1-ol + 2-undecanone; phases: Liquid, Crystal
Fixed: Pressure, kPa = 101
Property: Solid-liquid equilibrium temperature, K (Liquid); method: VISOBS:UFactor:4
Mole fraction of 2-undecanone	Solid-liquid equilibrium temperature, K	uncertainty
0.1157	263.9	0.6
0.1531	266.9	0.6
0.1845	268.4	0.6
0.2491	271.7	0.6
0.2891	273.3	0.6
0.3276	274.3	0.6
0.3789	275.7	0.6
0.4282	276.8	0.6
0.4772	277.7	0.6
0.5179	278.4	0.6
0.5345	278.9	0.6
0.6005	279.6	0.6
0.6495	280.3	0.6
0.7027	281	0.6
0.7516	281.7	0.6
0.8005	282.3	0.6
0.8473	282.9	0.6
0.8958	283.7	0.6
0.9548	284.5	0.6
1	284.8	0.6

System: 2-undecanone + decan-1-ol; phases: Liquid, Crystal
Fixed: Pressure, kPa = 101
Property: Solid-liquid equilibrium temperature, K (Liquid); method: VISOBS:UFactor:4
Mole fraction of 2-undecanone	Solid-liquid equilibrium temperature, K	uncertainty
0	279.5	0.6
0.0506	278.6	0.6
0.0993	277.7	0.6
0.1466	277	0.6
0.1915	276.3	0.6
0.2313	275.4	0.6
0.2699	274.7	0.6
0.3109	274	0.6
0.3345	274.3	0.6
0.3407	273.7	0.6

System: 2-undecanone + decan-1-ol; phases: Liquid, Crystal
Fixed: Pressure, kPa = 101
Property: Solid-liquid equilibrium temperature, K (Liquid); method: VISOBS:UFactor:4
Mole fraction of 2-undecanone	Solid-liquid equilibrium temperature, K	uncertainty
0.3582	276	0.6
0.3709	274.7	0.6
0.3872	276	0.6
0.4223	276.1	0.6
0.4486	277	0.6
0.4871	277.5	0.6
0.5265	278.6	0.6
0.5723	279.3	0.6
0.606	279.8	0.6
0.6434	280.4	0.6
0.6763	281	0.6
0.7469	281.8	0.6
0.7982	282.5	0.6
0.8495	283.4	0.6
0.8944	284	0.6
0.9455	284.7	0.6
1	284.8	0.6

System: 2-undecanone + dodecan-1-ol; phases: Liquid, Crystal
Fixed: Pressure, kPa = 101
Property: Solid-liquid equilibrium temperature, K (Liquid); method: VISOBS:UFactor:4
Mole fraction of 2-undecanone	Solid-liquid equilibrium temperature, K	uncertainty
0	296.6	0.6
0.0426	295.5	0.6
0.0889	294.6	0.6
0.1464	293.8	0.6
0.2037	293.5	0.6
0.261	292.6	0.6
0.3285	291.2	0.6
0.3689	290.5	0.6
0.4184	289.6	0.6
0.4684	288.7	0.6
0.5181	287.5	0.6
0.5686	286.6	0.6
0.616	285.3	0.6
0.6531	284.1	0.6
0.6938	282.7	0.6
0.7328	281.6	0.6

System: 2-undecanone + dodecan-1-ol; phases: Liquid, Crystal
Fixed: Pressure, kPa = 101
Property: Solid-liquid equilibrium temperature, K (Liquid); method: VISOBS:UFactor:4
Mole fraction of 2-undecanone	Solid-liquid equilibrium temperature, K	uncertainty
0.7859	281.2	0.6
0.8354	281.8	0.6
0.8822	282.4	0.6
0.9304	283.1	0.6
0.9818	283.8	0.6
1	284.8	0.6

System: octan-1-ol + 2-dodecanone; phases: Liquid, Crystal
Fixed: Pressure, kPa = 101
Property: Solid-liquid equilibrium temperature, K (Liquid); method: VISOBS:UFactor:4
Mole fraction of 2-dodecanone	Solid-liquid equilibrium temperature, K	uncertainty
0	258.6	0.6
0.0596	256.3	0.6

System: octan-1-ol + 2-dodecanone; phases: Liquid, Crystal
Fixed: Pressure, kPa = 101
Property: Solid-liquid equilibrium temperature, K (Liquid); method: VISOBS:UFactor:4
Mole fraction of 2-dodecanone	Solid-liquid equilibrium temperature, K	uncertainty
0.0334	264.3	0.6
0.0803	268.5	0.6
0.1386	274.1	0.6
0.1828	277.1	0.6
0.2666	280.5	0.6
0.3266	282.3	0.6
0.3867	283.8	0.6
0.4367	285	0.6
0.4857	285.8	0.6
0.5369	286.9	0.6
0.6001	287.7	0.6
0.6402	288.3	0.6
0.6893	289.1	0.6
0.7553	289.9	0.6
0.8044	290.7	0.6
0.8498	291.4	0.6
0.8957	292.2	0.6
0.9386	293	0.6
1	294	0.6

System: decan-1-ol + 2-dodecanone; phases: Liquid, Crystal
Fixed: Pressure, kPa = 101
Property: Solid-liquid equilibrium temperature, K (Liquid); method: VISOBS:UFactor:4
Mole fraction of 2-dodecanone	Solid-liquid equilibrium temperature, K	uncertainty
0	279.5	0.6
0.0687	279.4	0.6
0.1409	278.3	0.6
0.1781	277.2	0.6
0.2096	277.6	0.6

System: decan-1-ol + 2-dodecanone; phases: Liquid, Crystal
Fixed: Pressure, kPa = 101
Property: Solid-liquid equilibrium temperature, K (Liquid); method: VISOBS:UFactor:4
Mole fraction of 2-dodecanone	Solid-liquid equilibrium temperature, K	uncertainty
0.2321	278.4	0.6
0.2677	279.9	0.6
0.307	281	0.6
0.366	282.7	0.6
0.4165	283.9	0.6
0.4751	285.2	0.6
0.5382	286.3	0.6
0.5979	287.4	0.6
0.6601	288.2	0.6
0.7239	289	0.6
0.7845	289.9	0.6
0.8361	290.6	0.6
0.8951	291.5	0.6
0.9438	292.4	0.6
1	294	0.6

System: dodecan-1-ol + 2-dodecanone; phases: Liquid, Crystal
Fixed: Pressure, kPa = 101
Property: Solid-liquid equilibrium temperature, K (Liquid); method: VISOBS:UFactor:4
Mole fraction of 2-dodecanone	Solid-liquid equilibrium temperature, K	uncertainty
0	296.6	0.6
0.043	295.1	0.6
0.1032	294.1	0.6
0.1557	293.2	0.6
0.21	292.3	0.6
0.2719	291.3	0.6
0.327	289.7	0.6
0.3897	289	0.6
0.3982	288.5	0.6
0.443	288.5	0.6
0.4678	287.3	0.6
0.4935	286.8	0.6
0.5327	286.7	0.6

System: dodecan-1-ol + 2-dodecanone; phases: Liquid, Crystal
Fixed: Pressure, kPa = 101
Property: Solid-liquid equilibrium temperature, K (Liquid); method: VISOBS:UFactor:4
Mole fraction of 2-dodecanone	Solid-liquid equilibrium temperature, K	uncertainty
0.5773	286.2	0.6
0.5791	286	0.6
0.5993	286.6	0.6
0.6313	287.5	0.6
0.6916	288.4	0.6
0.7453	289.1	0.6
0.7913	289.8	0.6
0.8467	290.6	0.6
0.8974	291.4	0.6
0.9384	292.2	0.6
1	294	0.6

System: octan-1-ol + 2-tridecanone; phases: Liquid, Crystal
Property: Solid-liquid equilibrium temperature, K (Liquid); method: VISOBS:UFactor:4
Mole fraction of 2-tridecanone	Pressure, kPa	Solid-liquid equilibrium temperature, K	uncertainty
0	101	258.6	0.6

System: octan-1-ol + 2-tridecanone; phases: Liquid, Crystal
Fixed: Pressure, kPa = 101
Property: Solid-liquid equilibrium temperature, K (Liquid); method: VISOBS:UFactor:4
Mole fraction of 2-tridecanone	Solid-liquid equilibrium temperature, K	uncertainty
0.0124	263.3	0.6
0.0422	270	0.6
0.0918	278.6	0.6
0.1292	280.7	0.6
0.1577	282.6	0.6
0.207	285	0.6
0.2452	287.3	0.6
0.3214	288.9	0.6
0.3681	290.2	0.6
0.4146	291.9	0.6
0.4782	292.8	0.6
0.5329	293.6	0.6
0.5885	294.2	0.6
0.625	294.8	0.6
0.7185	296.8	0.6
0.7686	297.6	0.6
0.8187	298.1	0.6
0.8746	298.6	0.6
0.9196	299.5	0.6
0.965	300.3	0.6
1	300.8	0.6

System: decan-1-ol + 2-tridecanone; phases: Liquid, Crystal
Fixed: Pressure, kPa = 101
Property: Solid-liquid equilibrium temperature, K (Liquid); method: VISOBS:UFactor:4
Mole fraction of 2-tridecanone	Solid-liquid equilibrium temperature, K	uncertainty
0	279.5	0.6
0.022	279.3	0.6
0.0408	279.1	0.6
0.0648	279.2	0.6
0.0661	278.9	0.6

System: decan-1-ol + 2-tridecanone; phases: Liquid, Crystal
Fixed: Pressure, kPa = 101
Property: Solid-liquid equilibrium temperature, K (Liquid); method: VISOBS:UFactor:4
Mole fraction of 2-tridecanone	Solid-liquid equilibrium temperature, K	uncertainty
0.1061	279.2	0.6
0.1564	281.4	0.6
0.2051	284.3	0.6
0.2614	286.5	0.6
0.2953	287.5	0.6
0.32	288.7	0.6
0.3416	290.4	0.6
0.3914	291.4	0.6
0.4297	291.9	0.6
0.4771	293	0.6
0.5217	293.8	0.6
0.5723	294.4	0.6
0.6092	295.3	0.6
0.6587	295.8	0.6
0.7084	296.5	0.6
0.7583	297.3	0.6
0.8057	297.8	0.6
0.856	298.6	0.6
0.8976	299.6	0.6
0.9398	300.5	0.6
1	300.8	0.6

System: dodecan-1-ol + 2-tridecanone; phases: Liquid, Crystal
Fixed: Pressure, kPa = 101
Property: Solid-liquid equilibrium temperature, K (Liquid); method: VISOBS:UFactor:4
Mole fraction of 2-tridecanone	Solid-liquid equilibrium temperature, K	uncertainty
0	296.6	0.6
0.0399	296.1	0.6
0.0762	295.4	0.6
0.1344	294.1	0.6
0.1733	293.6	0.6
0.2128	291.9	0.6
0.2349	291.6	0.6
0.2852	290.8	0.6
0.2904	291.1	0.6
0.3217	290.8	0.6
0.3355	290.3	0.6
0.3608	289.8	0.6
0.3705	289.9	0.6
0.3819	289.5	0.6

System: dodecan-1-ol + 2-tridecanone; phases: Liquid, Crystal
Fixed: Pressure, kPa = 101
Property: Solid-liquid equilibrium temperature, K (Liquid); method: VISOBS:UFactor:4
Mole fraction of 2-tridecanone	Solid-liquid equilibrium temperature, K	uncertainty
0.4014	290	0.6
0.4203	290.4	0.6
0.4666	291.6	0.6
0.5167	292.7	0.6
0.5659	293.5	0.6
0.6133	294.4	0.6
0.6605	295.2	0.6
0.702	296	0.6
0.7541	296.8	0.6
0.8051	297.3	0.6
0.8559	297.9	0.6
0.8923	298.7	0.6
0.9488	299.8	0.6
1	300.8	0.6
