Measured thermophysical data. High-Pressure Phase Equilibria of Squalene + Carbon Dioxide: New Data and Thermodynamic Modeling
Source: J. Chem. Eng. Data, 2010, 10.1021/je1001939
Compound 1: 2,6,10,14,18,22-tetracosahexaene, 2,6,10,15,19,23-hexamethyl-, (all-E)-, C30H50, InChI=1S/C30H50/c1-25(2)15-11-19-29(7)23-13-21-27(5)17-9-10-18-28(6)22-14-24-30(8)20-12-16-26(3)4/h15-18,23-24H,9-14,19-22H2,1-8H3/b27-17+,28-18+,29-23+,30-24+
Compound 2: carbon dioxide, CO2, InChI=1S/CO2/c2-1-3

System: 2,6,10,14,18,22-tetracosahexaene, 2,6,10,15,19,23-hexamethyl-, (all-E)- + carbon dioxide; phases: Liquid, Gas
Property: Vapor or sublimation pressure, kPa (Liquid); method: Closed cell (Static) method
Mass fraction of carbon dioxide	Temperature, K	Vapor or sublimation pressure, kPa	uncertainty
0.1765	333	10000	2000
0.1984	323	10000	2000
0.2239	313	10000	3000
0.2358	333	15000	2000
0.253	313	15000	4000
0.2709	323	15000	2000
0.2716	333	20000	2000
0.2743	313	20000	4000
0.295	323	20000	4000
0.3046	313	25000	2000
0.3178	323	25000	4000
0.3261	333	25000	2000
0.3453	323	30000	3000
0.3689	333	30000	2000
0.3775	313	30000	1000
0.3883	323	35000	2000
0.448	333	35000	1000

System: 2,6,10,14,18,22-tetracosahexaene, 2,6,10,15,19,23-hexamethyl-, (all-E)- + carbon dioxide; phases: Gas, Liquid
Property: Mass fraction of carbon dioxide (Gas); method: volumetric analysis
Mass fraction of carbon dioxide	Temperature, K	Mass fraction of carbon dioxide	uncertainty
0.1765	333	0.9998	0.0002
0.1984	323	0.9992	0.0008
0.2239	313	0.9993	0.0007
0.2358	333	0.993	0.007
0.253	313	0.9837	0.0163
0.2709	323	0.9893	0.0107
0.2716	333	0.9769	0.021
0.2743	313	0.9673	0.0247
0.295	323	0.9728	0.0236
0.3046	313	0.9462	0.0218
0.3178	323	0.9548	0.025
0.3261	333	0.963	0.021
0.3453	323	0.9344	0.024
0.3689	333	0.9463	0.0227
0.3775	313	0.921	0.0212
0.3883	323	0.9075	0.0225
0.448	333	0.8993	0.0233
