Measured thermophysical data. Specific Volume of Liquid Water from (253 to 323) K and Pressures up to 350 MPa by Volumetric Measurements
Source: J. Chem. Eng. Data, 2010, 10.1021/je100083w
Compound 1: water, H2O, InChI=1S/H2O/h1H2

System: water; phases: Liquid
Property: Specific volume, m3/kg (Liquid); method: Bellows volumetry
Pressure, kPa	Temperature, K	Specific volume, m3/kg	uncertainty
100	293.5	0.0010016	5e-07
100	293.53	0.0010016	5e-07
100	293.55	0.0010016	5e-07
68300	323.35	0.0009846	5e-07
68800	323.46	0.0009848	5e-07
68900	293.42	0.0009729	5e-07
68900	303.42	0.0009761	5e-07
69000	283.36	0.0009704	5e-07
69000	283.54	0.0009703	5e-07
69000	313.43	0.0009796	5e-07
69100	273.32	0.0009686	5e-07
69100	273.48	0.0009688	5e-07
69100	273.52	0.0009682	5e-07
69100	313.39	0.0009801	5e-07
69100	313.4	0.0009799	5e-07
69200	283.5	0.0009702	5e-07
69200	293.6	0.0009732	5e-07
69200	303.37	0.0009758	5e-07
69200	323.33	0.0009842	5e-07
69300	293.35	0.0009728	5e-07
69800	303.42	0.0009757	5e-07
98500	303.35	0.0009655	5e-07
98600	273.56	0.0009574	5e-07
98600	313.4	0.0009695	5e-07
98800	313.39	0.000969	5e-07
98900	283.51	0.0009592	5e-07
98900	303.4	0.0009651	5e-07
99000	283.51	0.0009591	5e-07
99000	283.7	0.0009592	5e-07
99000	313.41	0.0009696	5e-07
99100	273.53	0.0009564	5e-07
99100	293.4	0.000962	5e-07
99100	323.31	0.0009737	5e-07
99200	293.47	0.0009625	5e-07
99200	303.48	0.0009653	5e-07
99200	323.43	0.0009742	5e-07
99300	273.46	0.0009569	5e-07
99300	293.28	0.0009619	5e-07
99400	268.55	0.0009559	7e-07
99500	268.42	0.0009558	7e-07
99600	323.37	0.0009736	5e-07
99800	268.58	0.0009557	7e-07
148800	283.52	0.0009426	5e-07
148800	293.49	0.0009465	5e-07
148800	313.39	0.0009534	5e-07
148900	303.4	0.000949	5e-07
149000	273.52	0.0009392	5e-07
149000	303.48	0.0009492	5e-07
149000	313.42	0.0009538	5e-07
149000	323.35	0.0009578	5e-07
149100	273.44	0.0009398	5e-07
149100	273.57	0.00094	5e-07
149100	283.48	0.0009425	5e-07
149100	293.41	0.0009458	5e-07
149100	303.51	0.0009494	5e-07
149200	263.75	0.000937	7e-07
149200	268.47	0.0009384	7e-07
149200	293.23	0.0009458	5e-07
149200	323.41	0.0009584	5e-07
149300	283.49	0.0009423	5e-07
149300	313.38	0.0009528	5e-07
149300	323.3	0.0009578	5e-07
149400	263.69	0.0009369	7e-07
149500	263.62	0.0009371	7e-07
149700	268.51	0.0009382	7e-07
149700	268.52	0.0009382	7e-07
173500	258.68	0.0009277	7e-07
173800	258.76	0.0009274	7e-07
174000	258.4	0.0009274	7e-07
174000	258.67	0.0009274	7e-07
174100	258.58	0.0009275	7e-07
174400	258.7	0.0009274	7e-07
198200	258.6	0.0009199	7e-07
198300	323.34	0.0009446	5e-07
198400	258.37	0.00092	7e-07
198400	258.66	0.0009199	7e-07
198400	263.65	0.0009219	7e-07
198400	268.52	0.0009234	7e-07
198500	258.61	0.0009196	7e-07
198600	263.69	0.0009216	7e-07
198700	263.64	0.0009216	7e-07
198800	268.53	0.0009234	7e-07
198800	303.57	0.0009353	5e-07
198800	323.09	0.0009435	5e-07
198900	273.55	0.0009242	5e-07
198900	283.53	0.000928	5e-07
198900	303.41	0.0009347	5e-07
198900	313.42	0.0009393	5e-07
199000	273.51	0.0009249	5e-07
199000	273.67	0.0009252	5e-07
199000	283.33	0.000928	5e-07
199000	283.47	0.0009281	5e-07
199000	293.25	0.0009316	5e-07
199000	303.56	0.000935	5e-07
199000	323.28	0.0009438	5e-07
199100	293.46	0.0009322	5e-07
199100	313.46	0.0009397	5e-07
199200	313.4	0.0009386	5e-07
199300	258.59	0.0009197	7e-07
199300	268.48	0.0009231	7e-07
199400	293.39	0.0009315	5e-07
199500	258.75	0.000919	7e-07
223300	258.41	0.0009127	7e-07
223300	258.64	0.0009126	7e-07
223300	258.68	0.0009118	7e-07
223400	258.61	0.0009121	7e-07
223500	258.59	0.0009124	7e-07
223600	253.58	0.0009109	7e-07
223600	253.9	0.000911	7e-07
223700	253.58	0.000911	7e-07
223700	253.64	0.000911	7e-07
225000	258.55	0.0009123	7e-07
248300	253.64	0.0009041	7e-07
248300	258.65	0.0009047	7e-07
248400	258.37	0.0009059	7e-07
248400	258.6	0.0009053	7e-07
248500	258.64	0.0009056	7e-07
248600	253.87	0.0009042	7e-07
248700	268.47	0.0009095	7e-07
248700	323.04	0.0009318	5e-07
248800	263.61	0.0009077	7e-07
248800	263.64	0.0009078	7e-07
248800	303.57	0.0009226	5e-07
248900	253.61	0.0009041	7e-07
248900	283.5	0.0009152	5e-07
248900	293.52	0.0009196	5e-07
248900	303.43	0.000922	5e-07
248900	313.45	0.0009271	5e-07
248900	323.25	0.0009312	5e-07
249000	268.52	0.0009097	7e-07
249000	273.52	0.0009109	5e-07
249000	283.43	0.000915	5e-07
249000	293.2	0.0009188	5e-07
249000	293.39	0.0009189	5e-07
249000	323.17	0.0009307	5e-07
249100	268.51	0.0009096	7e-07
249100	273.57	0.0009117	5e-07
249100	283.54	0.0009148	5e-07
249200	313.46	0.0009259	5e-07
249300	258.54	0.0009057	7e-07
249300	273.63	0.000912	5e-07
249300	303.57	0.0009222	5e-07
249300	313.44	0.0009265	5e-07
249400	253.6	0.0009039	7e-07
249800	263.6	0.0009078	7e-07
273300	253.58	0.0008978	7e-07
273300	253.68	0.0008975	7e-07
273300	258.6	0.0008992	7e-07
273400	253.86	0.0008977	7e-07
273600	253.58	0.0008977	7e-07
274500	258.65	0.0008977	7e-07
274900	258.38	0.0008992	7e-07
275300	258.53	0.0008991	7e-07
298000	263.64	0.0008957	7e-07
298200	253.56	0.0008917	7e-07
298200	253.86	0.0008918	7e-07
298400	253.6	0.0008918	7e-07
298400	268.48	0.0008977	7e-07
298400	323.26	0.0009203	5e-07
298500	258.54	0.0008935	7e-07
298700	283.39	0.0009035	5e-07
298800	273.38	0.0008991	5e-07
298900	263.58	0.0008957	7e-07
298900	268.55	0.0008975	7e-07
298900	273.65	0.0008999	5e-07
298900	273.74	0.0009003	5e-07
299000	283.6	0.0009038	5e-07
299000	293.22	0.0009073	5e-07
299000	293.54	0.000908	5e-07
299100	263.51	0.0008953	7e-07
299100	303.49	0.0009104	5e-07
299100	303.55	0.000911	5e-07
299100	323.19	0.0009191	5e-07
299200	258.61	0.0008928	7e-07
299200	303.61	0.0009108	5e-07
299200	323.13	0.0009196	5e-07
299300	283.56	0.0009032	5e-07
299400	293.38	0.0009073	5e-07
299400	313.46	0.0009151	5e-07
299500	258.65	0.0008914	7e-07
299600	253.65	0.000891	7e-07
299600	258.45	0.0008933	7e-07
299600	313.44	0.0009155	5e-07
299700	313.48	0.0009144	5e-07
300200	268.47	0.000897	7e-07
323300	253.83	0.0008861	7e-07
323300	258.52	0.0008877	7e-07
323400	258.6	0.0008873	7e-07
323500	253.58	0.000886	7e-07
324100	258.52	0.0008879	7e-07
325300	253.56	0.0008857	7e-07
325300	253.69	0.0008852	7e-07
348000	283.72	0.0008941	5e-07
348800	258.6	0.0008828	7e-07
348800	273.68	0.0008889	5e-07
348900	258.46	0.0008821	7e-07
348900	268.47	0.0008867	7e-07
348900	268.6	0.0008866	7e-07
348900	313.44	0.000904	5e-07
349000	323.21	0.0009095	5e-07
349100	253.63	0.0008803	7e-07
349100	263.69	0.0008847	7e-07
349100	268.48	0.0008861	7e-07
349100	283.43	0.0008928	5e-07
349100	303.72	0.0009003	5e-07
349200	293.31	0.000897	5e-07
349200	293.53	0.0008974	5e-07
349200	303.63	0.0009004	5e-07
349300	283.62	0.0008926	5e-07
349300	293.34	0.0008968	5e-07
349300	303.52	0.0008999	5e-07
349300	313.38	0.0009051	5e-07
349300	323.34	0.0009085	5e-07
349400	273.4	0.0008876	5e-07
349400	323.17	0.0009091	5e-07
349500	253.83	0.0008803	7e-07
349500	258.58	0.0008815	7e-07
349500	313.46	0.0009046	5e-07
349800	253.56	0.0008804	7e-07
349800	253.67	0.00088	7e-07
349900	263.64	0.0008842	7e-07
350000	263.52	0.0008839	7e-07
350400	273.82	0.0008893	5e-07
