Measured thermophysical data. Liquid-Liquid Equilibria for the Ternary System Water (1) + Acetic acid (2) +  Diisopropyl Ether (3) at (293.15, 303.15, and 313.15) K
Source: J. Chem. Eng. Data, 2010, 10.1021/je100680r
Compound 1: diisopropyl ether, C6H14O, InChI=1S/C6H14O/c1-5(2)7-6(3)4/h5-6H,1-4H3
Compound 2: acetic acid, C2H4O2, InChI=1S/C2H4O2/c1-2(3)4/h1H3,(H,3,4)
Compound 3: water, H2O, InChI=1S/H2O/h1H2

System: diisopropyl ether + water; phases: Liquid mixture 2, Liquid mixture 1
Fixed: Pressure, kPa = 101.3
Property: Mass fraction of water (Liquid mixture 2); method: CHROM:UFactor:2
Temperature, K	Mass fraction of water	uncertainty
293.15	0.0054	0.002
303.15	0.006	0.002
313.15	0.0104	0.002

System: diisopropyl ether + water; phases: Liquid mixture 1, Liquid mixture 2
Fixed: Pressure, kPa = 101.3
Property: Mass fraction of water (Liquid mixture 1); method: CHROM:UFactor:2
Temperature, K	Mass fraction of water	uncertainty
293.15	0.989	0.002
303.15	0.9722	0.002
313.15	0.9692	0.002

System: acetic acid + diisopropyl ether + water; phases: Liquid mixture 2, Liquid mixture 1
Fixed: Pressure, kPa = 101.3
Property: Mass fraction of water (Liquid mixture 2); method: CHROM:UFactor:2
Property: Mass fraction of water (Liquid mixture 1); method: CHROM:UFactor:2
Property: Mass fraction of acetic acid (Liquid mixture 1); method: CHROM:UFactor:2
Temperature, K	Mass fraction of acetic acid	Mass fraction of water	uncertainty	Mass fraction of water	uncertainty	Mass fraction of acetic acid	uncertainty
293.15	0	0.0054	0.002	0.989	0.002	0	
293.15	0.0425	0.0095	0.002	0.862	0.0035	0.1205	
293.15	0.0849	0.0144	0.002	0.7682	0.0044	0.2102	
293.15	0.1306	0.0195	0.002	0.6871	0.0054	0.2836	
293.15	0.1732	0.0252	0.0021	0.6227	0.0063	0.3406	
293.15	0.1923	0.0282	0.0021	0.5899	0.0068	0.3703	
293.15	0.2385	0.0373	0.0021	0.5415	0.0075	0.4109	
293.15	0.2805	0.0468	0.0022	0.491	0.0081	0.4523	
293.15	0.3115	0.0535	0.0023	0.4668	0.0078	0.4637	
293.15	0.3189	0.0565	0.0023	0.4522	0.0073	0.4787	
303.15	0	0.006	0.002	0.9722	0.002	0	
303.15	0.0293	0.0111	0.002	0.8484	0.0036	0.1148	
303.15	0.0441	0.0134	0.002	0.7898	0.0043	0.1672	
303.15	0.0712	0.0176	0.002	0.7112	0.0052	0.2335	
303.15	0.0957	0.0193	0.002	0.6711	0.0057	0.2636	
303.15	0.1251	0.027	0.0021	0.6055	0.0065	0.3156	
303.15	0.1767	0.0326	0.0021	0.557	0.0074	0.353	
303.15	0.2024	0.0407	0.0022	0.5094	0.0081	0.389	
303.15	0.2499	0.0549	0.0023	0.4536	0.0079	0.4257	
303.15	0.2728	0.0658	0.0023	0.4181	0.0065	0.438	
313.15	0	0.0104	0.002	0.9692	0.002	0	
313.15	0.0542	0.0193	0.002	0.8017	0.0041	0.1532	
313.15	0.0821	0.0239	0.0021	0.7338	0.0049	0.2086	
313.15	0.1149	0.0325	0.0021	0.669	0.0057	0.2631	
313.15	0.1434	0.035	0.0021	0.6118	0.0065	0.3109	
313.15	0.1779	0.0428	0.0021	0.5598	0.0074	0.3481	
313.15	0.2001	0.0484	0.0022	0.5316	0.0079	0.3647	
313.15	0.2522	0.064	0.0023	0.4653	0.0078	0.4084	
313.15	0.2697	0.0701	0.0024	0.4481	0.008	0.4206	
313.15	0.3073	0.085	0.0025	0.3993	0.0076	0.4428	
