Measured thermophysical data. Equilibrium Data for the Oxygen + Propane Binary System at Temperatures of (110.22, 120.13, 130.58, and 139.95) K
Source: J. Chem. Eng. Data, 2010, 10.1021/je100574y
Compound 1: oxygen, O2, InChI=1S/O2/c1-2, purity 99.9995%
Compound 2: propane, C3H8, InChI=1S/C3H8/c1-3-2/h3H2,1-2H3, purity 99.95%

System: propane + oxygen; phases: Liquid mixture 2, Gas
Property: Vapor or sublimation pressure, kPa (Liquid mixture 2); method: CCELL:UFactor:2
Temperature, K	Mole fraction of oxygen	Vapor or sublimation pressure, kPa	uncertainty
110.22	0.9776	535.9	3.8
120.13	0.943	978.5	6.7
130.58	0.9252	1695.4	14.3
139.95	0.9115	2565.9	16.4
139.95	0.9136	2549.7	16.2
139.95	0.9269	2579	16.5
139.95	0.9328	2586.8	16.5
139.95	0.9504	2611.6	16.7

System: propane + oxygen; phases: Liquid mixture 1, Gas
Property: Vapor or sublimation pressure, kPa (Liquid mixture 1); method: CCELL:UFactor:2
Temperature, K	Mole fraction of oxygen	Vapor or sublimation pressure, kPa	uncertainty
110.22	0.0954	268.9	41.4
110.22	0.1063	290.5	41.3
110.22	0.1312	338	38.9
110.22	0.1613	398.6	33.3
110.22	0.1818	431.6	32
110.22	0.2282	484.6	17.5
110.22	0.2743	507.1	10.8
120.13	0.0557	264.7	79.9
120.13	0.0897	406	70.3
120.13	0.1331	559	69.1
120.13	0.1826	707.4	53
120.13	0.2549	861.5	50.6
130.58	0.0427	299.1	140.8
130.58	0.0909	602.2	124.5
130.58	0.1466	915.7	102.8
130.58	0.2153	1213	74
130.58	0.3169	1519.2	64
139.95	0.0266	246.6	156.7
139.95	0.2158	1658.6	117.1
139.95	0.419	2435.3	81.7
