Measured thermophysical data. Enthalpy of Solution of 5-R-Na2bdc*nH2O (H2bdc = Isophthalic Acid, R = H, NH2, OH, CH3, NO2) at 298.15 K
Source: J. Chem. Eng. Data, 2010, 10.1021/je100713p
Compound 1: sodium 5-aminoisophthalate monohydrate, C8H7NNa2O5, InChI=1S/C8H7NO4.2Na.H2O/c9-6-2-4(7(10)11)1-5(3-6)8(12)13;;;/h1-3H,9H2,(H,10,11)(H,12,13);;;1H2/q;2*+1;/p-2
Compound 2: sodium 5-hydroxyisophthalate monohydrate, C8H6Na2O6, InChI=1S/C8H6O5.2Na.H2O/c9-6-2-4(7(10)11)1-5(3-6)8(12)13;;;/h1-3,9H,(H,10,11)(H,12,13);;;1H2/q;2*+1;/p-2
Compound 3: sodium 5-methylisophthalate monohydrate, C9H8Na2O5, InChI=1S/C9H8O4.2Na.H2O/c1-5-2-6(8(10)11)4-7(3-5)9(12)13;;;/h2-4H,1H3,(H,10,11)(H,12,13);;;1H2/q;2*+1;/p-2
Compound 4: sodium 5-nitroisophthalate monohydrate, C8H5NNa2O7, InChI=1S/C8H5NO6.2Na.H2O/c10-7(11)4-1-5(8(12)13)3-6(2-4)9(14)15;;;/h1-3H,(H,10,11)(H,12,13);;;1H2/q;2*+1;/p-2
Compound 5: sodium isophthalate hemihydrate, C16H10Na4O9, InChI=1S/2C8H6O4.4Na.H2O/c2*9-7(10)5-2-1-3-6(4-5)8(11)12;;;;;/h2*1-4H,(H,9,10)(H,11,12);;;;;1H2/q;;4*+1;/p-4
Compound 6: water, H2O, InChI=1S/H2O/h1H2

System: sodium 5-aminoisophthalate monohydrate + water; phases: Liquid
Fixed: Temperature, K = 298.15
Fixed: Pressure, kPa = 101.3
Property: Molar enthalpy of solution, kJ/mol (Liquid); method: Calvet calorimetry
Molality, mol/kg of sodium 5-aminoisophthalate monohydrate	Molar enthalpy of solution, kJ/mol	uncertainty
0.002142	-44.733	0.447
0.004189	-44.614	0.446
0.005863	-44.171	0.442
0.007494	-43.938	0.439
0.009157	-43.881	0.439
0.010838	-43.822	0.438
0.012572	-43.513	0.435
0.014293	-43.303	0.433
0.016127	-43.223	0.432
0.017958	-43.175	0.432
0.020054	-42.933	0.429
0.022461	-42.509	0.425
0.024352	-42.161	0.422
0.026276	-41.908	0.419
0.028172	-41.809	0.418
0.030159	-41.812	0.418
0.03204	-41.412	0.414
0.033772	-41.321	0.413
0.035654	-41.161	0.412
0.037432	-41.092	0.411

System: sodium 5-hydroxyisophthalate monohydrate + water; phases: Liquid
Fixed: Temperature, K = 298.15
Fixed: Pressure, kPa = 101.3
Property: Molar enthalpy of solution, kJ/mol (Liquid); method: Calvet calorimetry
Molality, mol/kg of sodium 5-hydroxyisophthalate monohydrate	Molar enthalpy of solution, kJ/mol	uncertainty
0.003324	-35.977	0.36
0.005293	-35.952	0.36
0.006869	-35.778	0.358
0.008388	-35.616	0.356
0.010187	-35.356	0.354
0.012079	-35.29	0.353
0.013815	-35.129	0.351
0.015766	-35.063	0.351
0.017969	-34.788	0.348
0.019768	-34.675	0.347
0.021682	-34.316	0.343
0.023486	-34.24	0.342
0.025568	-34.051	0.341
0.027606	-33.823	0.338
0.02968	-33.709	0.337
0.031628	-33.559	0.336
0.033417	-33.37	0.334
0.035367	-33.285	0.333
0.037508	-33.238	0.332
0.03976	-33.077	0.331

System: water + sodium 5-methylisophthalate monohydrate; phases: Liquid
Fixed: Temperature, K = 298.15
Fixed: Pressure, kPa = 101.3
Property: Molar enthalpy of solution, kJ/mol (Liquid); method: Calvet calorimetry
Molality, mol/kg of sodium 5-methylisophthalate monohydrate	Molar enthalpy of solution, kJ/mol	uncertainty
0.002382	-11.877	0.119
0.004254	-11.79	0.118
0.00614	-11.769	0.118
0.007583	-11.56	0.116
0.009175	-11.476	0.115
0.011053	-11.427	0.114
0.012886	-11.259	0.113
0.014861	-11.217	0.112
0.016742	-11.098	0.111
0.018523	-11.059	0.111
0.02031	-10.814	0.108
0.022117	-10.825	0.108
0.023882	-10.661	0.107
0.025722	-10.551	0.106
0.027527	-10.484	0.105
0.029343	-10.435	0.104
0.031072	-10.319	0.103
0.032801	-10.191	0.102
0.034744	-10.148	0.102
0.036343	-9.941	0.099

System: sodium 5-nitroisophthalate monohydrate + water; phases: Liquid
Fixed: Temperature, K = 298.15
Fixed: Pressure, kPa = 101.3
Property: Molar enthalpy of solution, kJ/mol (Liquid); method: Calvet calorimetry
Molality, mol/kg of sodium 5-nitroisophthalate monohydrate	Molar enthalpy of solution, kJ/mol	uncertainty
0.003093	22.153	0.222
0.005036	22.027	0.22
0.006638	21.803	0.218
0.008062	21.713	0.217
0.009565	21.579	0.216
0.010912	21.455	0.215
0.012418	21.455	0.215
0.013815	21.253	0.213
0.015533	21.244	0.212
0.017284	21.152	0.212
0.018817	20.925	0.209
0.02047	20.925	0.209
0.022228	20.761	0.208
0.023886	20.673	0.207
0.025669	20.431	0.204
0.02738	20.407	0.204
0.029008	20.282	0.203
0.030666	20.117	0.201
0.032163	20.02	0.2
0.033807	19.87	0.2

System: sodium isophthalate hemihydrate + water; phases: Liquid
Fixed: Temperature, K = 298.15
Fixed: Pressure, kPa = 101.3
Property: Molar enthalpy of solution, kJ/mol (Liquid); method: Calvet calorimetry
Molality, mol/kg of sodium isophthalate hemihydrate	Molar enthalpy of solution, kJ/mol	uncertainty
0.002883	-58.436	0.584
0.004575	-58.456	0.585
0.006261	-57.74	0.58
0.008034	-57.866	0.579
0.009718	-57.572	0.576
0.011393	-57.312	0.573
0.013362	-57.212	0.572
0.01498	-56.656	0.567
0.016818	-56.574	0.566
0.018783	-56.39	0.564
0.020527	-56.192	0.562
0.02264	-55.524	0.555
0.024466	-55.524	0.555
0.026582	-55.144	0.551
0.028552	-54.73	0.547
0.030453	-54.61	0.546
0.03221	-54.382	0.544
0.034251	-54.29	0.543
0.036287	-53.96	0.54
0.038258	-53.696	0.537
