Measured thermophysical data. Solubility of Dimethyl Fumarate in Methanol, Ethanol, 1-Propanol, 2-Propanol, 1,2-Propanediol, and Water from (289.95 to 347.15) K
Source: J. Chem. Eng. Data, 2011, 10.1021/je100964a
Compound 1: dimethyl trans-butenedioate, C6H8O4, InChI=1S/C6H8O4/c1-9-5(7)3-4-6(8)10-2/h3-4H,1-2H3/b4-3+
Compound 2: methanol, CH4O, InChI=1S/CH4O/c1-2/h2H,1H3, purity 99.5%
Compound 3: ethanol, C2H6O, InChI=1S/C2H6O/c1-2-3/h3H,2H2,1H3, purity 99.5%
Compound 4: propan-1-ol, C3H8O, InChI=1S/C3H8O/c1-2-3-4/h4H,2-3H2,1H3, purity 99.5%
Compound 5: propan-2-ol, C3H8O, InChI=1S/C3H8O/c1-3(2)4/h3-4H,1-2H3, purity 99.7%
Compound 6: 1,2-propanediol, C3H8O2, InChI=1S/C3H8O2/c1-3(5)2-4/h3-5H,2H2,1H3, purity 99.5%
Compound 7: water, H2O, InChI=1S/H2O/h1H2

System: methanol + dimethyl trans-butenedioate; phases: Liquid, Crystal
Fixed: Pressure, kPa = 101
Property: Mole fraction of dimethyl trans-butenedioate (Liquid); method: Laser monitoring observation technique
Temperature, K	Mole fraction of dimethyl trans-butenedioate	uncertainty
297.45	0.007489	0.000201
301	0.009483	0.00024
305.55	0.01216	0.0003
309.17	0.0152	0.00038
312.85	0.01886	0.00047
316.45	0.02314	0.00058
319.37	0.02794	0.00072
322.28	0.03346	0.00083
325.93	0.03997	0.001
329.15	0.04912	0.00127
332.3	0.05996	0.00154
337.65	0.08096	0.00199

System: ethanol + dimethyl trans-butenedioate; phases: Liquid, Crystal
Fixed: Pressure, kPa = 101
Property: Mole fraction of dimethyl trans-butenedioate (Liquid); method: Laser monitoring observation technique
Temperature, K	Mole fraction of dimethyl trans-butenedioate	uncertainty
289.95	0.003277	9.2e-05
294.45	0.00465	0.000122
297.55	0.006074	0.000164
303.15	0.009081	0.000228
307.3	0.01218	0.00031
311.1	0.01566	0.00039
314.75	0.0199	0.00049
318.65	0.02532	0.00063
322.55	0.03261	0.0008
327.35	0.04312	0.00106
331.85	0.05805	0.00143
336.05	0.07513	0.00179

System: propan-1-ol + dimethyl trans-butenedioate; phases: Liquid, Crystal
Fixed: Pressure, kPa = 101
Property: Mole fraction of dimethyl trans-butenedioate (Liquid); method: Laser monitoring observation technique
Temperature, K	Mole fraction of dimethyl trans-butenedioate	uncertainty
295.2	0.005038	0.000125
299.95	0.006683	0.000163
304.35	0.009057	0.000221
307.85	0.01136	0.00028
310.7	0.01381	0.00036
313.2	0.01736	0.00046
318.7	0.02531	0.00064
323.65	0.03692	0.00094
328.95	0.05351	0.00132
332.5	0.06857	0.00174
335.65	0.08701	0.00224
338.15	0.1064	0.0028
341.3	0.1361	0.0034

System: propan-2-ol + dimethyl trans-butenedioate; phases: Liquid, Crystal
Fixed: Pressure, kPa = 101
Property: Mole fraction of dimethyl trans-butenedioate (Liquid); method: Laser monitoring observation technique
Temperature, K	Mole fraction of dimethyl trans-butenedioate	uncertainty
295.8	0.005329	0.000138
300.95	0.007476	0.000184
304.35	0.009701	0.000248
306.7	0.0117	0.00031
309.85	0.01481	0.00038
312.55	0.01827	0.00048
316.85	0.02502	0.00063
320	0.03184	0.00082
322.8	0.0396	0.00098
326.25	0.0486	0.00121
329.75	0.06287	0.00159
332.85	0.07853	0.00203
335.8	0.09971	0.00252

System: 1,2-propanediol + dimethyl trans-butenedioate; phases: Liquid, Crystal
Fixed: Pressure, kPa = 101
Property: Mole fraction of dimethyl trans-butenedioate (Liquid); method: Laser monitoring observation technique
Temperature, K	Mole fraction of dimethyl trans-butenedioate	uncertainty
302.75	0.0003784	2.09e-05
307.05	0.000797	3.13e-05
310.55	0.001431	5.7e-05
314.25	0.002547	8.8e-05
316.75	0.003661	0.000137
320.05	0.005857	0.0002
323.25	0.008861	0.000293
327.95	0.0149	0.00044
332.15	0.02296	0.00064
337.25	0.03493	0.0009
342.35	0.05104	0.0013
347.15	0.073	0.00175

System: dimethyl trans-butenedioate + water; phases: Liquid, Crystal
Fixed: Pressure, kPa = 101
Property: Mole fraction of dimethyl trans-butenedioate (Liquid); method: Laser monitoring observation technique
Temperature, K	Mole fraction of dimethyl trans-butenedioate	uncertainty
300.55	0.009273	0.000336
302.6	0.01164	0.00044
309.85	0.02361	0.00073
315.45	0.03649	0.00111
322.4	0.05749	0.00168
328.05	0.07808	0.00226
333.25	0.09888	0.00283
337.05	0.1131	0.0033
340.65	0.1318	0.0038
344.45	0.1478	0.0043
