Measured thermophysical data. Solubilities of MCl (M = Na, K) in Aqueous Systems Containing the Ionic Liquid [Bmim]Cl from (298.15 to 343.15) K
Source: J. Chem. Eng. Data, 2011, 10.1021/je1010592
Compound 1: potassium chloride, ClK, InChI=1S/ClH.K/h1H;/q;+1/p-1, purity 99.8%
Compound 2: sodium chloride, ClNa, InChI=1S/ClH.Na/h1H;/q;+1/p-1, purity 99.8%
Compound 3: 1-butyl-3-methylimidazolium chloride, C8H15ClN2, InChI=1S/C8H15N2.ClH/c1-3-4-5-10-7-6-9(2)8-10;/h6-8H,3-5H2,1-2H3;1H/q+1;/p-1, purity 99%
Compound 4: water, H2O, InChI=1S/H2O/h1H2, purity 99.9%

System: potassium chloride + water; phases: Liquid, Crystal
Fixed: Pressure, kPa = 101
Property: Molality, mol/kg (Liquid); method: Cloud point method
Temperature, K	Molality, mol/kg	uncertainty
298.15	4.795	0.049
308.15	5.162	0.053
313.15	5.383	0.055
318.15	5.564	0.057
328.15	5.94	0.061
333.15	6.148	0.063
343.15	6.51	0.067

System: sodium chloride + water; phases: Liquid, Crystal
Fixed: Pressure, kPa = 101
Property: Molality, mol/kg (Liquid); method: Cloud point method
Temperature, K	Molality, mol/kg	uncertainty
298.15	6.16	0.016
308.15	6.194	0.017
313.15	6.229	0.017
318.15	6.248	0.017
328.15	6.304	0.017
333.15	6.348	0.017
343.15	6.425	0.017

System: potassium chloride + water + 1-butyl-3-methylimidazolium chloride; phases: Liquid, Crystal
Fixed: Pressure, kPa = 101
Property: Molality, mol/kg of potassium chloride (Liquid); method: Cloud point method
Solvent: Mass fraction of 1-butyl-3-methylimidazolium chloride	Temperature, K	Molality, mol/kg of potassium chloride	uncertainty
0	298.15	4.795	0.014
0	308.15	5.162	0.015
0	313.15	5.383	0.015
0	318.15	5.564	0.015
0	328.15	5.94	0.016
0	333.15	6.148	0.016
0	343.15	6.51	0.017
0.01	298.15	4.719	0.103
0.01	308.15	5.004	0.16
0.01	313.15	5.245	0.161
0.01	318.15	5.436	0.185
0.01	328.15	5.785	0.232
0.01	333.15	5.955	0.25
0.01	343.15	6.201	0.207
0.025	298.15	4.544	0.133
0.025	308.15	4.772	0.118
0.025	313.15	4.983	0.142
0.025	318.15	5.114	0.151
0.025	328.15	5.376	0.18
0.025	333.15	5.533	0.201
0.025	343.15	5.981	0.196
0.05	298.15	4.195	0.141
0.05	308.15	4.532	0.138
0.05	313.15	4.659	0.125
0.05	318.15	4.812	0.129
0.05	328.15	5.034	0.13
0.05	333.15	5.129	0.134
0.05	343.15	5.431	0.165
0.1	298.15	3.49	0.123
0.1	308.15	3.772	0.129
0.1	313.15	4.047	0.125
0.1	318.15	4.154	0.123
0.1	328.15	4.396	0.119
0.1	333.15	4.518	0.116
0.1	343.15	4.718	0.123
0.125	298.15	3.297	0.078
0.125	308.15	3.595	0.07
0.125	313.15	3.753	0.097
0.125	318.15	3.913	0.1
0.125	328.15	4.174	0.103
0.125	333.15	4.282	0.103
0.125	343.15	4.544	0.084
0.15	298.15	3.103	0.082
0.15	308.15	3.43	0.085
0.15	313.15	3.564	0.093
0.15	318.15	3.658	0.099
0.15	328.15	3.886	0.101
0.15	333.15	4.007	0.099
0.15	343.15	4.302	0.1
0.175	298.15	2.893	0.093
0.175	308.15	3.174	0.1
0.175	313.15	3.29	0.106
0.175	318.15	3.423	0.106
0.175	328.15	3.671	0.108
0.175	333.15	3.792	0.108
0.175	343.15	4.047	0.098
0.2	298.15	2.719	0.077
0.2	308.15	2.935	0.087
0.2	313.15	3.037	0.079
0.2	318.15	3.13	0.093
0.2	328.15	3.349	0.104
0.2	333.15	3.473	0.11
0.2	343.15	3.792	0.097
0.25	298.15	2.323	0.08
0.25	308.15	2.521	0.078
0.25	313.15	2.682	0.081
0.25	318.15	2.711	0.08
0.25	328.15	2.879	0.095
0.25	333.15	2.964	0.094
0.25	343.15	3.322	0.095

System: sodium chloride + water + 1-butyl-3-methylimidazolium chloride; phases: Liquid, Crystal
Fixed: Pressure, kPa = 101
Property: Molality, mol/kg of sodium chloride (Liquid); method: Cloud point method
Solvent: Mass fraction of 1-butyl-3-methylimidazolium chloride	Temperature, K	Molality, mol/kg of sodium chloride	uncertainty
0	298.15	6.16	0.016
0	308.15	6.194	0.017
0	313.15	6.229	0.017
0	318.15	6.248	0.017
0	328.15	6.304	0.017
0	333.15	6.348	0.017
0	343.15	6.425	0.017
0.01	298.15	5.871	0.235
0.01	308.15	5.896	0.237
0.01	313.15	5.914	0.241
0.01	318.15	5.935	0.242
0.01	328.15	5.955	0.254
0.01	333.15	5.974	0.262
0.01	343.15	6.004	0.283
0.025	298.15	5.568	0.133
0.025	308.15	5.59	0.131
0.025	313.15	5.611	0.13
0.025	318.15	5.629	0.132
0.025	328.15	5.65	0.133
0.025	333.15	5.671	0.133
0.025	343.15	5.702	0.136
0.05	298.15	5.325	0.07
0.05	308.15	5.348	0.069
0.05	313.15	5.368	0.068
0.05	318.15	5.383	0.068
0.05	328.15	5.402	0.069
0.05	333.15	5.419	0.069
0.05	343.15	5.45	0.07
0.1	298.15	5.039	0.065
0.1	308.15	5.062	0.064
0.1	313.15	5.086	0.064
0.1	318.15	5.103	0.064
0.1	328.15	5.12	0.064
0.1	333.15	5.14	0.064
0.1	343.15	5.171	0.065
0.125	298.15	4.843	0.115
0.125	308.15	4.863	0.107
0.125	313.15	4.885	0.108
0.125	318.15	4.901	0.108
0.125	328.15	4.919	0.108
0.125	333.15	4.937	0.109
0.125	343.15	4.967	0.109
0.15	298.15	4.466	0.182
0.15	308.15	4.531	0.177
0.15	313.15	4.552	0.177
0.15	318.15	4.566	0.177
0.15	328.15	4.583	0.177
0.15	333.15	4.6	0.178
0.15	343.15	4.63	0.177
0.175	298.15	3.936	0.188
0.175	308.15	3.983	0.197
0.175	313.15	4.004	0.196
0.175	318.15	4.019	0.195
0.175	328.15	4.037	0.194
0.175	333.15	4.052	0.194
0.175	343.15	4.083	0.189
0.2	298.15	3.527	0.152
0.2	308.15	3.55	0.147
0.2	313.15	3.573	0.147
0.2	318.15	3.593	0.147
0.2	328.15	3.613	0.147
0.2	333.15	3.633	0.146
0.2	343.15	3.664	0.147
0.25	298.15	2.795	0.147
0.25	308.15	2.862	0.139
0.25	313.15	2.883	0.139
0.25	318.15	2.901	0.14
0.25	328.15	2.92	0.138
0.25	333.15	2.94	0.139
0.25	343.15	2.971	0.139
