Measured thermophysical data. Mixing Behavior of Anionic Hydrotropes with Cationic Gemini Surfactants
Source: J. Chem. Eng. Data, 2010, 10.1021/je100256w
Compound 1: N1,N4-dihexadecyl-N1,N1,N4,N4-tetramethylbutane-1,4-diaminium bromide, C40H86Br2N2, InChI=1S/C40H86N2.2BrH/c1-7-9-11-13-15-17-19-21-23-25-27-29-31-33-37-41(3,4)39-35-36-40-42(5,6)38-34-32-30-28-26-24-22-20-18-16-14-12-10-8-2;;/h7-40H2,1-6H3;2*1H/q+2;;/p-2
Compound 2: N1,N5-dihexadecyl-N1,N1,N5,N5-tetramethylpentane-1,5-diaminium bromide, C41H88Br2N2, InChI=1S/C41H88N2.2BrH/c1-7-9-11-13-15-17-19-21-23-25-27-29-31-34-38-42(3,4)40-36-33-37-41-43(5,6)39-35-32-30-28-26-24-22-20-18-16-14-12-10-8-2;;/h7-41H2,1-6H3;2*1H/q+2;;/p-2
Compound 3: N1,N6-dihexadecyl-N1,N1,N6,N6-tetramethylhexane-1,6-diaminium bromide, C42H90Br2N2, InChI=1S/C42H90N2.2BrH/c1-7-9-11-13-15-17-19-21-23-25-27-29-31-35-39-43(3,4)41-37-33-34-38-42-44(5,6)40-36-32-30-28-26-24-22-20-18-16-14-12-10-8-2;;/h7-42H2,1-6H3;2*1H/q+2;;/p-2
Compound 4: sodium salicylate, C7H5NaO3, InChI=1S/C7H6O3.Na/c8-6-4-2-1-3-5(6)7(9)10;/h1-4,8H,(H,9,10);/q;+1/p-1
Compound 5: sodium benzoate, C7H5NaO2, InChI=1S/C7H6O2.Na/c8-7(9)6-4-2-1-3-5-6;/h1-5H,(H,8,9);/q;+1/p-1
Compound 6: sodium p-toluenesulfonate, C7H7NaO3S, InChI=1S/C7H8O3S.Na/c1-6-2-4-7(5-3-6)11(8,9)10;/h2-5H,1H3,(H,8,9,10);/q;+1/p-1
Compound 7: water, H2O, InChI=1S/H2O/h1H2

System: sodium salicylate + water; phases: Liquid
Fixed: Pressure, kPa = 101
Property: Electrical conductivity, S/m (Liquid); method: Dip Cell
Temperature, K	Amount concentration (molarity), mol/dm3 of sodium salicylate	Electrical conductivity, S/m	uncertainty
298	3.09e-05	2.4788e-05	6.14e-07
298	6.1e-05	4.7565e-05	1.156e-06
298	9.04e-05	6.6649e-05	1.742e-06
298	0.000119	8.3373e-05	2.1e-06
298	0.000147	0.000102046	2.712e-06
298	0.0001744	0.000118154	3.194e-06
298	0.0002064	0.000135288	3.64e-06
298	0.0002376	0.000152423	4.273e-06
298	0.0002778	0.000172737	4.815e-06
298	0.0003166	0.000191821	5.319e-06
298	0.0003541	0.000204441	5.138e-06
298	0.0003903	0.000209776	5.799e-06
298	0.0004339	0.000226192	6.854e-06
298	0.0004757	0.000243634	7.481e-06
298	0.0005237	0.000261076	8.1e-06
298	0.0005695	0.00028057	8.679e-06
298	0.0006132	0.000296986	9.079e-06
298	0.000655	0.00031135	9.908e-06
298	0.0007014	0.00032161	1.032e-05
298	0.0007517	0.000344182	1.094e-05
298	0.0007993	0.000359572	1.128e-05
298	0.0008444	0.00037291	1.144e-05
298	0.0008974	0.000389326	1.158e-05
298	0.0009472	0.000400612	1.33e-05
298	0.001003	0.000417028	1.312e-05
298	0.0010632	0.000433444	1.431e-05
298	0.0011226	0.00044986	1.375e-05
298	0.0011807	0.000464224	1.534e-05
298	0.0012406	0.000474484	1.618e-05
298	0.001301	0.000493978	1.665e-05
303	3.09e-05	2.4029e-05	6.23e-07
303	6.1e-05	4.7422e-05	1.236e-06
303	9.04e-05	6.9481e-05	1.891e-06
303	0.000119	8.7333e-05	2.467e-06
303	0.000147	0.000107135	3.007e-06
303	0.0001744	0.000124987	3.506e-06
303	0.0002064	0.000143661	4.054e-06
303	0.0002376	0.000162949	4.546e-06
303	0.0002778	0.000184803	5.218e-06
303	0.0003166	0.000203169	5.171e-06
303	0.0003541	0.000209735	5.537e-06
303	0.0003903	0.000227177	6.661e-06
303	0.0004339	0.000247695	7.36e-06
303	0.0004757	0.000266165	7.899e-06
303	0.0005237	0.000287711	8.744e-06
303	0.0005695	0.000307205	9.366e-06
303	0.0006132	0.000324647	9.822e-06
303	0.000655	0.000342089	1.028e-05
303	0.0007014	0.000359531	1.125e-05
303	0.0007517	0.000377999	1.134e-05
303	0.0007993	0.000395441	1.205e-05
303	0.0008444	0.000408779	1.294e-05
303	0.0008974	0.000422117	1.373e-05
303	0.0009472	0.000447767	1.481e-05
303	0.001003	0.000459053	1.557e-05
303	0.0010632	0.000482651	1.648e-05
303	0.0011226	0.000491885	1.621e-05
303	0.0011807	0.000515483	1.792e-05
303	0.0012406	0.000534977	1.891e-05
303	0.001301	0.000552419	1.905e-05
308	3.09e-05	2.7138e-05	1.446e-06
308	6.1e-05	5.2377e-05	2.413e-06
308	9.04e-05	7.5565e-05	3.224e-06
308	0.000119	9.6393e-05	4.15e-06
308	0.000147	0.000117631	5.09e-06
308	0.0001744	0.000136304	5.8e-06
308	0.0002064	0.000156619	6.533e-06
308	0.0002376	0.0001756	6.204e-06
308	0.0002778	0.000200224	7.11e-06
308	0.0003166	0.000209048	7.876e-06
308	0.0003541	0.000227516	9.417e-06
308	0.0003903	0.000248036	1.012e-05
308	0.0004339	0.000269582	1.027e-05
308	0.0004757	0.000290102	1.196e-05
308	0.0005237	0.000314726	1.297e-05
308	0.0005695	0.000338324	1.38e-05
308	0.0006132	0.000356792	1.448e-05
308	0.000655	0.000373208	1.504e-05
308	0.0007014	0.000393728	1.575e-05
308	0.0007517	0.000412196	1.659e-05
308	0.0007993	0.000433742	1.723e-05
308	0.0008444	0.00045734	1.766e-05
308	0.0008974	0.000481964	1.891e-05
308	0.0009472	0.000502484	1.882e-05
308	0.001003	0.000527108	1.998e-05
308	0.0010632	0.000550706	2.019e-05
308	0.0011226	0.000560966	2.121e-05
308	0.0011807	0.000593798	2.134e-05
308	0.0012406	0.000613292	2.15e-05
308	0.001301	0.000630734	2.201e-05
313	3.09e-05	3.6936e-05	2.151e-06
313	6.1e-05	6.8024e-05	3.396e-06
313	9.04e-05	9.6136e-05	4.617e-06
313	0.000119	0.000121786	6.012e-06
313	0.000147	0.000149488	7.095e-06
313	0.0001744	0.000172881	8.245e-06
313	0.0002064	0.000197095	8.674e-06
313	0.0002376	0.000208483	8.926e-06
313	0.0002778	0.000237211	9.278e-06
313	0.0003166	0.000263887	1.248e-05
313	0.0003541	0.000286459	1.369e-05
313	0.0003903	0.000309031	1.383e-05
313	0.0004339	0.000327499	1.504e-05
313	0.0004757	0.000363409	1.645e-05
313	0.0005237	0.000393163	1.815e-05
313	0.0005695	0.000418813	1.887e-05
313	0.0006132	0.000441385	1.996e-05
313	0.000655	0.000462931	2.103e-05
313	0.0007014	0.000485503	2.18e-05
313	0.0007517	0.000511153	2.313e-05
313	0.0007993	0.000532699	2.322e-05
313	0.0008444	0.000547063	2.262e-05
313	0.0008974	0.000571687	2.245e-05
313	0.0009472	0.000592207	2.282e-05
313	0.001003	0.000613753	2.266e-05
313	0.0010632	0.000635299	2.274e-05
313	0.0011226	0.000655819	2.457e-05
313	0.0011807	0.000674287	2.275e-05
313	0.0012406	0.000691729	2.297e-05
313	0.001301	0.000712249	2.362e-05

System: sodium benzoate + water; phases: Liquid
Fixed: Pressure, kPa = 101
Property: Electrical conductivity, S/m (Liquid); method: Dip Cell
Temperature, K	Amount concentration (molarity), mol/dm3 of sodium benzoate	Electrical conductivity, S/m	uncertainty
298	1.98e-05	1.9494e-05	6.81e-07
298	3.92e-05	3.3345e-05	3.84e-07
298	5.82e-05	4.7606e-05	9.35e-07
298	7.69e-05	5.8585e-05	1.237e-06
298	9.52e-05	7.223e-05	1.808e-06
298	0.0001221	8.721e-05	2.246e-06
298	0.0001567	0.000109577	2.524e-06
298	0.00019	0.000128455	7.82e-07
298	0.0002222	0.000144974	3.355e-06
298	0.0002533	0.000160569	2.875e-06
298	0.0002906	0.000180371	3.918e-06
298	0.0003264	0.000198428	2.289e-06
298	0.0003607	0.000198634	2.833e-06
298	0.0004	0.000216076	3.952e-06
298	0.0004375	0.000231466	4.908e-06
298	0.0004791	0.000244804	5.049e-06
298	0.000524	0.00026635	4.709e-06
298	0.0005663	0.000293026	4.597e-06
298	0.0006063	0.00029713	4.892e-06
298	0.0006532	0.000313546	6.152e-06
298	0.0007055	0.000325858	6.349e-06
298	0.0007616	0.000349456	6.588e-06
298	0.0008131	0.000365872	6.767e-06
298	0.0008669	0.000381262	6.834e-06
298	0.0009218	0.000397678	7.237e-06
298	0.000977	0.000412042	6.181e-06
298	0.0010268	0.00043051	5.63e-06
303	1.98e-05	1.6129e-05	9e-08
303	3.92e-05	3.5274e-05	3.8e-07
303	5.82e-05	5.1074e-05	7.69e-07
303	7.69e-05	6.5541e-05	9.7e-07
303	9.52e-05	7.97e-05	1.559e-06
303	0.0001221	9.9091e-05	2.051e-06
303	0.0001567	0.000120945	2.409e-06
303	0.00019	0.000129666	2.907e-06
303	0.0002222	0.000161164	3.407e-06
303	0.0002533	0.000174605	3.792e-06
303	0.0002906	0.000199024	2.772e-06
303	0.0003264	0.000202717	2.818e-06
303	0.0003607	0.000217081	4.575e-06
303	0.0004	0.000234523	4.699e-06
303	0.0004375	0.000254017	5.42e-06
303	0.0004791	0.000271459	6.139e-06
303	0.000524	0.000290953	6.165e-06
303	0.0005663	0.000307369	4.82e-06
303	0.0006063	0.000323785	6.707e-06
303	0.0006532	0.000341227	7.028e-06
303	0.0007055	0.000359695	6.957e-06
303	0.0007616	0.000379189	8.073e-06
303	0.0008131	0.000397657	8.296e-06
303	0.0008669	0.000414073	8.518e-06
303	0.0009218	0.000431515	8.839e-06
303	0.000977	0.000442801	8.461e-06
303	0.0010268	0.000456139	8.679e-06
308	1.98e-05	1.9699e-05	6.13e-07
308	3.92e-05	3.6628e-05	7.07e-07
308	5.82e-05	5.4788e-05	9.23e-07
308	7.69e-05	6.7613e-05	1.267e-06
308	9.52e-05	8.721e-05	1.407e-06
308	0.0001221	0.000107012	1.772e-06
308	0.0001567	0.000132764	2.312e-06
308	0.00019	0.00015667	3.841e-06
308	0.0002222	0.000177908	3.041e-06
308	0.0002533	0.0001973	3.105e-06
308	0.0002906	0.000205918	2.436e-06
308	0.0003264	0.000224386	4.232e-06
308	0.0003607	0.000242854	4.654e-06
308	0.0004	0.000261322	5.274e-06
308	0.0004375	0.000283894	5.504e-06
308	0.0004791	0.000304414	6.226e-06
308	0.000524	0.00032596	6.553e-06
308	0.0005663	0.000338272	6.967e-06
308	0.0006063	0.00036187	6.903e-06
308	0.0006532	0.000381364	7.326e-06
308	0.0007055	0.00039265	8.232e-06
308	0.0007616	0.000427534	8.579e-06
308	0.0008131	0.000446002	9.199e-06
308	0.0008669	0.000463444	9.62e-06
308	0.0009218	0.000482938	9.845e-06
308	0.000977	0.000493198	1.075e-05
308	0.0010268	0.000513718	1.108e-05
313	1.98e-05	2.2162e-05	5.07e-07
313	3.92e-05	4.2066e-05	9.96e-07
313	5.82e-05	5.9816e-05	1.081e-06
313	7.69e-05	7.7668e-05	1.911e-06
313	9.52e-05	9.2956e-05	1.274e-06
313	0.0001221	0.000115835	1.745e-06
313	0.0001567	0.000142922	2.056e-06
313	0.00019	0.000167135	2.247e-06
313	0.0002222	0.000190015	2.121e-06
313	0.0002533	0.000203764	1.719e-06
313	0.0002906	0.000220693	3.589e-06
313	0.0003264	0.000243265	3.796e-06
313	0.0003607	0.000261733	4.174e-06
313	0.0004	0.000285331	4.981e-06
313	0.0004375	0.000306877	4.93e-06
313	0.0004791	0.000331501	5.463e-06
313	0.000524	0.000354073	5.891e-06
313	0.0005663	0.000374593	7.277e-06
313	0.0006063	0.000389983	6.206e-06
313	0.0006532	0.000411529	6.648e-06
313	0.0007055	0.000439231	9.17e-06
313	0.0007616	0.000461803	7.55e-06
313	0.0008131	0.000486427	8.18e-06
313	0.0008669	0.000506947	9.031e-06
313	0.0009218	0.000526441	9.212e-06
313	0.000977	0.000546961	1.101e-05
313	0.0010268	0.000563377	1.039e-05

System: sodium p-toluenesulfonate + water; phases: Liquid
Fixed: Pressure, kPa = 101
Property: Electrical conductivity, S/m (Liquid); method: Dip Cell
Temperature, K	Amount concentration (molarity), mol/dm3 of sodium p-toluenesulfonate	Electrical conductivity, S/m	uncertainty
298	1.98e-05	1.9699e-05	1.79e-07
298	3.92e-05	3.4166e-05	2.37e-07
298	5.83e-05	4.8325e-05	5.31e-07
298	7.69e-05	6.1047e-05	7.47e-07
298	9.52e-05	7.3359e-05	9.93e-07
298	0.0001132	8.4748e-05	1.317e-06
298	0.0001308	9.6136e-05	1.664e-06
298	0.0001481	0.000107012	2.015e-06
298	0.0001651	0.000117374	2.432e-06
298	0.0001818	0.000126814	2.485e-06
298	0.0001982	0.000137484	2.469e-06
298	0.0002143	0.000146821	2.942e-06
298	0.0002456	0.000163544	3.288e-06
298	0.0002609	0.000170213	3.439e-06
298	0.0002759	0.000180268	3.479e-06
298	0.0002906	0.000188374	1.201e-06
298	0.0003051	0.000196376	1.299e-06
298	0.0003193	0.000203148	2.196e-06
298	0.0003333	0.000195863	3.211e-06
298	0.0003471	0.000200993	4.528e-06
298	0.0003673	0.000206123	4.665e-06
298	0.0003871	0.000219461	4.743e-06
298	0.0004064	0.000227669	4.824e-06
298	0.0004252	0.000235877	4.971e-06
298	0.0004436	0.000242033	5.177e-06
298	0.0004615	0.000249215	4.926e-06
298	0.0004791	0.000258449	5.263e-06
298	0.0004962	0.000264605	5.874e-06
298	0.000513	0.000270761	6.088e-06
303	1.98e-05	1.8981e-05	1.2e-07
303	3.92e-05	3.4884e-05	4.89e-07
303	5.83e-05	5.0274e-05	7.2e-07
303	7.69e-05	6.433e-05	1.132e-06
303	9.52e-05	7.7668e-05	1.467e-06
303	0.0001132	9.1006e-05	1.714e-06
303	0.0001308	0.000103934	1.98e-06
303	0.0001481	0.000116554	2.088e-06
303	0.0001651	0.000128866	2.353e-06
303	0.0001818	0.000139228	2.634e-06
303	0.0001982	0.000148873	2.806e-06
303	0.0002143	0.000160672	2.952e-06
303	0.0002456	0.000178729	3.432e-06
303	0.0002609	0.000187963	2.382e-06
303	0.0002759	0.000196376	2.329e-06
303	0.0002906	0.000191554	2.326e-06
303	0.0003051	0.000199762	2.549e-06
303	0.0003193	0.00020797	2.698e-06
303	0.0003333	0.000215152	4.167e-06
303	0.0003471	0.000222334	4.375e-06
303	0.0003673	0.000231568	4.982e-06
303	0.0003871	0.000240802	4.896e-06
303	0.0004064	0.000251062	5.01e-06
303	0.0004252	0.00025927	5.219e-06
303	0.0004436	0.000267478	5.528e-06
303	0.0004615	0.000273634	5.635e-06
303	0.0004791	0.000282868	5.649e-06
303	0.0004962	0.000293128	5.861e-06
303	0.000513	0.00030031	6.168e-06
308	1.98e-05	2.0315e-05	3.76e-07
308	3.92e-05	3.868e-05	7.87e-07
308	5.83e-05	5.4994e-05	1.118e-06
308	7.69e-05	7.182e-05	1.587e-06
308	9.52e-05	8.7415e-05	1.956e-06
308	0.0001132	0.000101164	2.253e-06
308	0.0001308	0.000115117	2.46e-06
308	0.0001481	0.000126916	2.675e-06
308	0.0001651	0.000139844	2.832e-06
308	0.0001818	0.000152053	3.136e-06
308	0.0001982	0.000164365	3.362e-06
308	0.0002143	0.000175036	3.496e-06
308	0.0002456	0.000196479	2.682e-06
308	0.0002609	0.000191759	2.767e-06
308	0.0002759	0.000200993	2.957e-06
308	0.0002906	0.000209201	4.406e-06
308	0.0003051	0.000219461	4.42e-06
308	0.0003193	0.000227669	4.63e-06
308	0.0003333	0.000235877	4.642e-06
308	0.0003471	0.000243059	4.85e-06
308	0.0003673	0.000254345	5.163e-06
308	0.0003871	0.000266657	5.378e-06
308	0.0004064	0.000275891	5.589e-06
308	0.0004252	0.000286151	5.802e-06
308	0.0004436	0.000295385	6.112e-06
308	0.0004615	0.000303593	6.421e-06
308	0.0004791	0.000312827	6.137e-06
308	0.0004962	0.000321035	5.953e-06
308	0.000513	0.000330269	6.164e-06
313	1.98e-05	2.2572e-05	4.68e-07
313	3.92e-05	4.2476e-05	7.28e-07
313	5.83e-05	6.1047e-05	1.293e-06
313	7.69e-05	7.972e-05	1.544e-06
313	9.52e-05	9.6649e-05	1.891e-06
313	0.0001132	0.00011286	2.354e-06
313	0.0001308	0.000127737	2.62e-06
313	0.0001481	0.000142409	3.149e-06
313	0.0001651	0.000156157	3.359e-06
313	0.0001818	0.000169495	3.522e-06
313	0.0001982	0.000181294	3.618e-06
313	0.0002143	0.000194324	3.315e-06
313	0.0002456	0.000203353	2.177e-06
313	0.0002609	0.000213613	4.534e-06
313	0.0002759	0.000223873	4.747e-06
313	0.0002906	0.000234133	5.02e-06
313	0.0003051	0.000242341	4.904e-06
313	0.0003193	0.000252601	4.98e-06
313	0.0003333	0.000259783	5.122e-06
313	0.0003471	0.000269017	5.33e-06
313	0.0003673	0.000281329	5.556e-06
313	0.0003871	0.000292615	5.512e-06
313	0.0004064	0.000304927	5.924e-06
313	0.0004252	0.000315187	6.133e-06
313	0.0004436	0.000326473	6.35e-06
313	0.0004615	0.000335707	6.485e-06
313	0.0004791	0.000341863	6.238e-06
313	0.0004962	0.000350071	6.183e-06
313	0.000513	0.000359305	6.124e-06

System: water + N1,N6-dihexadecyl-N1,N1,N6,N6-tetramethylhexane-1,6-diaminium bromide; phases: Liquid
Fixed: Pressure, kPa = 101
Property: Electrical conductivity, S/m (Liquid); method: Dip Cell
Temperature, K	Amount concentration (molarity), mol/dm3 of N1,N6-dihexadecyl-N1,N1,N6,N6-tetramethylhexane-1,6-diaminium bromide	Electrical conductivity, S/m	uncertainty
298	3.3e-06	7.1e-08	1e-09
298	6.6e-06	1.31e-07	4e-09
298	9.9e-06	2.04e-07	3e-09
298	1.32e-05	2.59e-07	2e-09
298	1.64e-05	3.27e-07	4e-09
298	1.96e-05	3.99e-07	2e-09
298	2.28e-05	4.86e-07	8e-09
298	2.6e-05	5.26e-07	3e-09
298	2.91e-05	6.16e-07	6e-09
298	3.23e-05	6.92e-07	4e-09
298	3.54e-05	7.86e-07	8e-09
298	3.85e-05	8.34e-07	5e-09
298	4.15e-05	9.29e-07	1e-08
298	4.46e-05	9.65e-07	7e-09
298	4.76e-05	1.031e-06	6e-09
298	5.06e-05	1.084e-06	6e-09
298	5.36e-05	1.145e-06	6e-09
298	5.66e-05	1.186e-06	8e-09
298	5.96e-05	1.209e-06	8e-09
298	6.25e-05	1.272e-06	8e-09
298	6.54e-05	1.326e-06	1e-08
298	6.83e-05	1.359e-06	8e-09
298	7.12e-05	1.396e-06	8e-09
298	7.41e-05	1.437e-06	9e-09
298	7.69e-05	1.462e-06	9e-09
303	3.3e-06	7.2e-08	1e-09
303	6.6e-06	1.53e-07	1e-09
303	9.9e-06	2.14e-07	1e-09
303	1.32e-05	2.69e-07	3e-09
303	1.64e-05	3.46e-07	4e-09
303	1.96e-05	4.09e-07	3e-09
303	2.28e-05	5.06e-07	4e-09
303	2.6e-05	5.46e-07	5e-09
303	2.91e-05	6.36e-07	5e-09
303	3.23e-05	7.02e-07	5e-09
303	3.54e-05	8.06e-07	6e-09
303	3.85e-05	8.54e-07	7e-09
303	4.15e-05	9.49e-07	6e-09
303	4.46e-05	9.95e-07	9e-09
303	4.76e-05	1.031e-06	7e-09
303	5.06e-05	1.084e-06	7e-09
303	5.36e-05	1.145e-06	7e-09
303	5.66e-05	1.206e-06	8e-09
303	5.96e-05	1.249e-06	9e-09
303	6.25e-05	1.292e-06	8e-09
303	6.54e-05	1.356e-06	9e-09
303	6.83e-05	1.379e-06	8e-09
303	7.12e-05	1.416e-06	1e-08
303	7.41e-05	1.457e-06	9e-09
303	7.69e-05	1.482e-06	9e-09
308	3.3e-06	7.3e-08	1e-09
308	6.6e-06	1.22e-07	2e-09
308	9.9e-06	2.09e-07	3e-09
308	1.32e-05	2.84e-07	3e-09
308	1.64e-05	3.66e-07	3e-09
308	1.96e-05	4.21e-07	3e-09
308	2.28e-05	5.18e-07	5e-09
308	2.6e-05	5.67e-07	3e-09
308	2.91e-05	6.57e-07	4e-09
308	3.23e-05	7.22e-07	4e-09
308	3.54e-05	8.22e-07	6e-09
308	3.85e-05	8.91e-07	5e-09
308	4.15e-05	9.65e-07	7e-09
308	4.46e-05	1.042e-06	6e-09
308	4.76e-05	1.071e-06	6e-09
308	5.06e-05	1.113e-06	7e-09
308	5.36e-05	1.17e-06	7e-09
308	5.66e-05	1.226e-06	8e-09
308	5.96e-05	1.269e-06	9e-09
308	6.25e-05	1.312e-06	9e-09
308	6.54e-05	1.376e-06	8e-09
308	6.83e-05	1.399e-06	1e-08
308	7.12e-05	1.456e-06	1.1e-08
308	7.41e-05	1.477e-06	1.2e-08
308	7.69e-05	1.512e-06	1.3e-08
313	3.3e-06	7.5e-08	1e-09
313	6.6e-06	1.33e-07	2e-09
313	9.9e-06	1.92e-07	4e-09
313	1.32e-05	2.42e-07	6e-09
313	1.64e-05	3.21e-07	1e-08
313	1.96e-05	3.95e-07	6e-09
313	2.28e-05	4.69e-07	1e-08
313	2.6e-05	5.41e-07	5e-09
313	2.91e-05	6.23e-07	9e-09
313	3.23e-05	6.81e-07	7e-09
313	3.54e-05	7.7e-07	1.3e-08
313	3.85e-05	8.38e-07	1.2e-08
313	4.15e-05	9.01e-07	1.4e-08
313	4.46e-05	9.69e-07	1.5e-08
313	4.76e-05	1.041e-06	8e-09
313	5.06e-05	1.113e-06	6e-09
313	5.36e-05	1.18e-06	7e-09
313	5.66e-05	1.246e-06	7e-09
313	5.96e-05	1.299e-06	9e-09
313	6.25e-05	1.352e-06	1e-08
313	6.54e-05	1.396e-06	9e-09
313	6.83e-05	1.447e-06	1.2e-08
313	7.12e-05	1.486e-06	1.1e-08
313	7.41e-05	1.541e-06	1.5e-08
313	7.69e-05	1.589e-06	1.8e-08

System: water + N1,N5-dihexadecyl-N1,N1,N5,N5-tetramethylpentane-1,5-diaminium bromide; phases: Liquid
Fixed: Pressure, kPa = 101
Property: Electrical conductivity, S/m (Liquid); method: Dip Cell
Temperature, K	Amount concentration (molarity), mol/dm3 of N1,N5-dihexadecyl-N1,N1,N5,N5-tetramethylpentane-1,5-diaminium bromide	Electrical conductivity, S/m	uncertainty
298	3.3e-06	6.8e-08	1e-09
298	6.6e-06	1.29e-07	1e-09
298	9.9e-06	2.1e-07	3e-09
298	1.32e-05	2.79e-07	2e-09
298	1.64e-05	3.58e-07	5e-09
298	1.96e-05	4.18e-07	3e-09
298	2.28e-05	4.95e-07	4e-09
298	2.6e-05	5.57e-07	3e-09
298	2.91e-05	6.34e-07	6e-09
298	3.23e-05	6.84e-07	4e-09
298	3.54e-05	7.46e-07	6e-09
298	3.85e-05	8.03e-07	5e-09
298	4.15e-05	8.73e-07	5e-09
298	4.46e-05	9.35e-07	5e-09
298	4.76e-05	1.001e-06	6e-09
298	5.06e-05	1.028e-06	6e-09
298	5.36e-05	1.085e-06	1e-08
298	5.66e-05	1.132e-06	8e-09
298	5.96e-05	1.189e-06	9e-09
298	6.25e-05	1.232e-06	1e-08
298	6.54e-05	1.282e-06	1.1e-08
298	6.83e-05	1.329e-06	1.1e-08
298	7.12e-05	1.366e-06	1.2e-08
298	7.41e-05	1.422e-06	1.2e-08
298	7.69e-05	1.442e-06	1.2e-08
303	3.3e-06	6.9e-08	1e-09
303	6.6e-06	1.35e-07	2e-09
303	9.9e-06	2.19e-07	2e-09
303	1.32e-05	2.9e-07	2e-09
303	1.64e-05	3.76e-07	3e-09
303	1.96e-05	4.32e-07	3e-09
303	2.28e-05	5.05e-07	3e-09
303	2.6e-05	5.64e-07	4e-09
303	2.91e-05	6.46e-07	4e-09
303	3.23e-05	6.99e-07	5e-09
303	3.54e-05	7.66e-07	5e-09
303	3.85e-05	8.16e-07	5e-09
303	4.15e-05	8.73e-07	5e-09
303	4.46e-05	9.35e-07	6e-09
303	4.76e-05	1.001e-06	6e-09
303	5.06e-05	1.051e-06	7e-09
303	5.36e-05	1.125e-06	8e-09
303	5.66e-05	1.158e-06	7e-09
303	5.96e-05	1.219e-06	8e-09
303	6.25e-05	1.272e-06	9e-09
303	6.54e-05	1.321e-06	1e-08
303	6.83e-05	1.367e-06	9e-09
303	7.12e-05	1.422e-06	1.2e-08
303	7.41e-05	1.455e-06	9e-09
303	7.69e-05	1.488e-06	1e-08
308	3.3e-06	7e-08	1e-09
308	6.6e-06	1.48e-07	2e-09
308	9.9e-06	2.3e-07	2e-09
308	1.32e-05	2.92e-07	2e-09
308	1.64e-05	3.85e-07	3e-09
308	1.96e-05	4.42e-07	3e-09
308	2.28e-05	5.14e-07	3e-09
308	2.6e-05	5.79e-07	4e-09
308	2.91e-05	6.59e-07	5e-09
308	3.23e-05	7.15e-07	5e-09
308	3.54e-05	7.79e-07	5e-09
308	3.85e-05	8.26e-07	7e-09
308	4.15e-05	8.96e-07	9e-09
308	4.46e-05	9.56e-07	8e-09
308	4.76e-05	1.011e-06	9e-09
308	5.06e-05	1.06e-06	9e-09
308	5.36e-05	1.13e-06	7e-09
308	5.66e-05	1.16e-06	8e-09
308	5.96e-05	1.231e-06	7e-09
308	6.25e-05	1.294e-06	7e-09
308	6.54e-05	1.352e-06	8e-09
308	6.83e-05	1.382e-06	8e-09
308	7.12e-05	1.452e-06	8e-09
308	7.41e-05	1.472e-06	8e-09
308	7.69e-05	1.502e-06	9e-09
313	3.3e-06	7.1e-08	1e-09
313	6.6e-06	1.5e-07	1e-09
313	9.9e-06	2.36e-07	1e-09
313	1.32e-05	3.08e-07	5e-09
313	1.64e-05	3.96e-07	2e-09
313	1.96e-05	4.56e-07	4e-09
313	2.28e-05	5.19e-07	3e-09
313	2.6e-05	5.84e-07	5e-09
313	2.91e-05	6.84e-07	4e-09
313	3.23e-05	7.32e-07	6e-09
313	3.54e-05	7.89e-07	6e-09
313	3.85e-05	8.7e-07	1e-08
313	4.15e-05	9.45e-07	1e-08
313	4.46e-05	9.98e-07	1.2e-08
313	4.76e-05	1.075e-06	1.2e-08
313	5.06e-05	1.124e-06	1.3e-08
313	5.36e-05	1.15e-06	9e-09
313	5.66e-05	1.214e-06	1.1e-08
313	5.96e-05	1.251e-06	8e-09
313	6.25e-05	1.294e-06	7e-09
313	6.54e-05	1.35e-06	7e-09
313	6.83e-05	1.402e-06	8e-09
313	7.12e-05	1.44e-06	8e-09
313	7.41e-05	1.479e-06	8e-09
313	7.69e-05	1.522e-06	9e-09

System: water + N1,N4-dihexadecyl-N1,N1,N4,N4-tetramethylbutane-1,4-diaminium bromide; phases: Liquid
Fixed: Pressure, kPa = 101
Property: Electrical conductivity, S/m (Liquid); method: Dip Cell
Temperature, K	Amount concentration (molarity), mol/dm3 of N1,N4-dihexadecyl-N1,N1,N4,N4-tetramethylbutane-1,4-diaminium bromide	Electrical conductivity, S/m	uncertainty
298	3.3e-06	6.6e-08	1e-09
298	6.6e-06	1.21e-07	2e-09
298	9.9e-06	1.87e-07	2e-09
298	1.32e-05	2.56e-07	4e-09
298	1.64e-05	3.26e-07	3e-09
298	1.96e-05	3.97e-07	3e-09
298	2.28e-05	4.63e-07	5e-09
298	2.6e-05	5.39e-07	3e-09
298	2.91e-05	6.15e-07	5e-09
298	3.23e-05	6.7e-07	4e-09
298	3.54e-05	7.36e-07	5e-09
298	3.85e-05	7.89e-07	4e-09
298	4.15e-05	8.56e-07	5e-09
298	4.46e-05	9.16e-07	6e-09
298	4.76e-05	9.62e-07	7e-09
298	5.06e-05	1.005e-06	6e-09
298	5.36e-05	1.05e-06	6e-09
298	5.66e-05	1.102e-06	7e-09
298	5.96e-05	1.162e-06	8e-09
298	6.25e-05	1.211e-06	8e-09
298	6.54e-05	1.264e-06	7e-09
298	6.83e-05	1.301e-06	7e-09
298	7.12e-05	1.342e-06	8e-09
298	7.41e-05	1.402e-06	9e-09
303	3.3e-06	6.6e-08	1e-09
303	6.6e-06	1.34e-07	3e-09
303	9.9e-06	1.96e-07	2e-09
303	1.32e-05	2.74e-07	4e-09
303	1.64e-05	3.36e-07	3e-09
303	1.96e-05	4.07e-07	4e-09
303	2.28e-05	4.86e-07	5e-09
303	2.6e-05	5.39e-07	4e-09
303	2.91e-05	6.26e-07	4e-09
303	3.23e-05	6.79e-07	4e-09
303	3.54e-05	7.46e-07	5e-09
303	3.85e-05	7.99e-07	4e-09
303	4.15e-05	8.66e-07	6e-09
303	4.46e-05	9.26e-07	6e-09
303	4.76e-05	9.85e-07	7e-09
303	5.06e-05	1.02e-06	7e-09
303	5.36e-05	1.061e-06	7e-09
303	5.66e-05	1.12e-06	7e-09
303	5.96e-05	1.182e-06	8e-09
303	6.25e-05	1.233e-06	8e-09
303	6.54e-05	1.263e-06	7e-09
303	6.83e-05	1.315e-06	8e-09
303	7.12e-05	1.365e-06	8e-09
308	3.3e-06	6.7e-08	1e-09
308	6.6e-06	1.5e-07	3e-09
308	9.9e-06	2.07e-07	3e-09
308	1.32e-05	2.9e-07	3e-09
308	1.64e-05	3.46e-07	4e-09
308	1.96e-05	4.29e-07	5e-09
308	2.28e-05	5.07e-07	5e-09
308	2.6e-05	5.59e-07	5e-09
308	2.91e-05	6.42e-07	5e-09
308	3.23e-05	6.95e-07	5e-09
308	3.54e-05	7.66e-07	6e-09
308	3.85e-05	7.99e-07	7e-09
308	4.15e-05	8.89e-07	6e-09
308	4.46e-05	9.46e-07	7e-09
308	4.76e-05	1.005e-06	7e-09
308	5.06e-05	1.051e-06	8e-09
308	5.36e-05	1.081e-06	7e-09
308	5.66e-05	1.132e-06	7e-09
308	5.96e-05	1.204e-06	8e-09
308	6.25e-05	1.251e-06	8e-09
308	6.54e-05	1.281e-06	9e-09
308	6.83e-05	1.335e-06	9e-09
308	7.12e-05	1.382e-06	8e-09
313	3.3e-06	6.8e-08	1e-09
313	6.6e-06	1.6e-07	1e-09
313	9.9e-06	2.27e-07	5e-09
313	1.32e-05	3.01e-07	3e-09
313	1.64e-05	3.72e-07	6e-09
313	1.96e-05	4.49e-07	5e-09
313	2.28e-05	5.27e-07	4e-09
313	2.6e-05	5.75e-07	7e-09
313	2.91e-05	6.66e-07	4e-09
313	3.23e-05	7.15e-07	7e-09
313	3.54e-05	7.87e-07	6e-09
313	3.85e-05	8.51e-07	1.1e-08
313	4.15e-05	9.01e-07	6e-09
313	4.46e-05	9.66e-07	6e-09
313	4.76e-05	1.026e-06	7e-09
313	5.06e-05	1.076e-06	7e-09
313	5.36e-05	1.102e-06	8e-09
313	5.66e-05	1.152e-06	8e-09
313	5.96e-05	1.224e-06	7e-09
313	6.25e-05	1.271e-06	8e-09
313	6.54e-05	1.326e-06	1.1e-08
313	6.83e-05	1.365e-06	9e-09
313	7.12e-05	1.401e-06	8e-09

System: sodium salicylate + water + N1,N6-dihexadecyl-N1,N1,N6,N6-tetramethylhexane-1,6-diaminium bromide; phases: Liquid
Fixed: Pressure, kPa = 101
Property: Electrical conductivity, S/m (Liquid); method: Dip Cell
Temperature, K	Amount concentration (molarity), mol/dm3 of sodium salicylate	Amount concentration (molarity), mol/dm3 of N1,N6-dihexadecyl-N1,N1,N6,N6-tetramethylhexane-1,6-diaminium bromide	Electrical conductivity, S/m	uncertainty
298	1e-07	6e-07	2.1e-08	1e-09
298	2e-07	1e-07	2.2e-08	2e-09
298	3e-07	4e-07	1.5e-08	1e-09
298	3e-07	1e-06	4.9e-08	5e-09
298	4e-07	3e-07	4.2e-08	2e-09
298	4e-07	1.6e-06	6.6e-08	4e-09
298	5e-07	8e-07	3.4e-08	1e-09
298	5e-07	2.2e-06	8.4e-08	4e-09
298	6e-07	1e-07	5.8e-08	7e-09
298	6e-07	4e-07	6.5e-08	7e-09
298	7e-07	2.6e-06	1.07e-07	2e-09
298	8e-07	2e-07	8.1e-08	7e-09
298	8e-07	5e-07	8.2e-08	7e-09
298	8e-07	1.2e-06	5.1e-08	4e-09
298	8e-07	3.2e-06	1.24e-07	1.4e-08
298	9e-07	3.8e-06	1.41e-07	1.7e-08
298	1e-06	3e-07	9.7e-08	1e-08
298	1e-06	7e-07	9.7e-08	1.2e-08
298	1.1e-06	1.6e-06	6.5e-08	5e-09
298	1.1e-06	4.2e-06	1.54e-07	1.7e-08
298	1.2e-06	8e-07	1.16e-07	1.2e-08
298	1.2e-06	4.8e-06	1.67e-07	2.2e-08
298	1.3e-06	2e-06	7.7e-08	5e-09
298	1.3e-06	5.3e-06	1.75e-07	2.2e-08
298	1.4e-06	3e-07	1.15e-07	1.6e-08
298	1.4e-06	9e-07	1.33e-07	1.1e-08
298	1.5e-06	5.8e-06	1.87e-07	2.3e-08
298	1.6e-06	4e-07	1.33e-07	1.6e-08
298	1.6e-06	1.1e-06	1.45e-07	1e-08
298	1.6e-06	2.4e-06	8.8e-08	5e-09
298	1.6e-06	6.4e-06	1.98e-07	2.3e-08
298	1.7e-06	6.9e-06	2.11e-07	2.3e-08
298	1.8e-06	5e-07	1.51e-07	1.6e-08
298	1.8e-06	1.2e-06	1.47e-07	9e-09
298	1.9e-06	2.8e-06	1e-07	4e-09
298	1.9e-06	7.4e-06	2.23e-07	3.2e-08
298	2e-06	1.3e-06	1.58e-07	1e-08
298	2e-06	8e-06	2.37e-07	3.3e-08
298	2.1e-06	3.2e-06	1.14e-07	5e-09
298	2.1e-06	8.5e-06	2.44e-07	3.3e-08
298	2.2e-06	5e-07	1.76e-07	1.9e-08
298	2.2e-06	1.5e-06	1.67e-07	9e-09
298	2.3e-06	9e-06	2.56e-07	3.6e-08
298	2.4e-06	6e-07	1.85e-07	1.9e-08
298	2.4e-06	1.6e-06	1.78e-07	7e-09
298	2.4e-06	3.6e-06	1.25e-07	3e-09
298	2.4e-06	9.5e-06	2.69e-07	3.6e-08
298	2.5e-06	1.01e-05	2.79e-07	3.8e-08
298	2.6e-06	7e-07	1.94e-07	1.9e-08
298	2.6e-06	1.7e-06	1.86e-07	9e-09
298	2.6e-06	4e-06	1.38e-07	2e-09
298	2.6e-06	1.06e-05	2.92e-07	3.8e-08
298	2.8e-06	1.9e-06	1.94e-07	8e-09
298	2.8e-06	1.11e-05	3.02e-07	4.2e-08
298	2.9e-06	4.4e-06	1.41e-07	2e-09
298	2.9e-06	1.17e-05	3.13e-07	4.2e-08
298	3e-06	7e-07	2.08e-07	2.2e-08
298	3e-06	2e-06	2e-07	5e-09
298	3e-06	1.22e-05	3.23e-07	4.5e-08
298	3.2e-06	8e-07	2.23e-07	2.2e-08
298	3.2e-06	2.1e-06	2.06e-07	7e-09
298	3.2e-06	4.8e-06	1.55e-07	1e-09
298	3.2e-06	1.27e-05	3.34e-07	4.5e-08
298	3.4e-06	9e-07	2.28e-07	2.3e-08
298	3.4e-06	2.3e-06	2.15e-07	7e-09
298	3.4e-06	5.2e-06	1.62e-07	3e-09
298	3.6e-06	2.4e-06	2.25e-07	7e-09
298	3.7e-06	5.6e-06	1.75e-07	2e-09
298	3.8e-06	9e-07	2.37e-07	2.4e-08
298	3.8e-06	2.5e-06	2.37e-07	3e-09
298	4e-06	1e-06	2.45e-07	2.3e-08
298	4e-06	2.6e-06	2.4e-07	2e-09
298	4e-06	6e-06	1.86e-07	1e-08
298	4.2e-06	1.1e-06	2.58e-07	2.5e-08
298	4.2e-06	2.8e-06	2.43e-07	5e-09
298	4.2e-06	6.4e-06	1.99e-07	1e-08
298	4.4e-06	2.9e-06	2.48e-07	3e-09
298	4.5e-06	6.8e-06	2.12e-07	7e-09
298	4.6e-06	1.1e-06	2.65e-07	2.6e-08
298	4.6e-06	3e-06	2.59e-07	3e-09
298	4.8e-06	1.2e-06	2.73e-07	2.6e-08
298	4.8e-06	3.2e-06	2.64e-07	4e-09
298	4.8e-06	7.1e-06	2.24e-07	9e-09
298	5e-06	1.3e-06	2.87e-07	2.6e-08
298	5e-06	3.3e-06	2.71e-07	4e-09
298	5e-06	7.6e-06	2.38e-07	1e-08
298	5.2e-06	3.4e-06	2.78e-07	5e-09
298	5.3e-06	1.3e-06	2.95e-07	2.8e-08
298	5.3e-06	7.9e-06	2.52e-07	1e-08
298	5.4e-06	3.6e-06	2.85e-07	5e-09
298	5.6e-06	1.4e-06	3.08e-07	2.9e-08
298	5.6e-06	8.3e-06	2.67e-07	9e-09
298	5.8e-06	1.5e-06	3.14e-07	2.9e-08
298	5.8e-06	8.8e-06	2.8e-07	1e-08
298	6.1e-06	1.5e-06	3.19e-07	2.9e-08
298	6.1e-06	9.1e-06	2.94e-07	9e-09
298	6.4e-06	1.6e-06	3.26e-07	3e-08
298	6.4e-06	9.5e-06	3.05e-07	6e-09
298	6.6e-06	9.9e-06	3.15e-07	7e-09
298	2e-07	1e-07	3e-08	2e-09
303	3e-07	1e-06	2.6e-08	1e-09
303	4e-07	6e-07	4.1e-08	1e-09
303	5e-07	2.2e-06	1.02e-07	1e-09
303	6e-07	1e-07	2.5e-08	3e-09
303	6e-07	4e-07	2.8e-08	4e-09
303	8e-07	1.2e-06	6.3e-08	1e-09
303	8e-07	3.2e-06	1.93e-07	2e-09
303	1e-06	3e-07	4.3e-08	6e-09
303	1.1e-06	4.2e-06	2.36e-07	3e-09
303	1.2e-06	8e-07	5.6e-08	6e-09
303	1.2e-06	1.8e-06	8.6e-08	1e-09
303	1.3e-06	5.3e-06	2.85e-07	5e-09
303	1.6e-06	4e-07	5.3e-08	9e-09
303	1.6e-06	2.4e-06	1.08e-07	3e-09
303	1.6e-06	6.4e-06	3.15e-07	6e-09
303	1.8e-06	1.2e-06	9.6e-08	7e-09
303	1.9e-06	7.4e-06	3.81e-07	8e-09
303	2e-06	3e-06	1.29e-07	4e-09
303	2.1e-06	8.5e-06	4.1e-07	9e-09
303	2.2e-06	5e-07	8.1e-08	1.2e-08
303	2.4e-06	1.6e-06	1.34e-07	8e-09
303	2.4e-06	3.6e-06	1.56e-07	5e-09
303	2.4e-06	9.5e-06	4.49e-07	1.1e-08
303	2.6e-06	7e-07	9.7e-08	1.2e-08
303	2.6e-06	1.06e-05	4.81e-07	1.1e-08
303	2.8e-06	4.2e-06	1.78e-07	6e-09
303	2.9e-06	1.16e-05	5.23e-07	1.4e-08
303	3e-06	2e-06	1.65e-07	8e-09
303	3.2e-06	8e-07	1.09e-07	1.4e-08
303	3.2e-06	4.8e-06	2.02e-07	8e-09
303	3.2e-06	1.27e-05	5.58e-07	1.6e-08
303	3.4e-06	1.38e-05	5.9e-07	1.5e-08
303	3.6e-06	2.4e-06	1.92e-07	9e-09
303	3.6e-06	5.4e-06	2.2e-07	9e-09
303	3.7e-06	1.48e-05	6.14e-07	1.1e-08
303	3.8e-06	9e-07	1.21e-07	1.4e-08
303	4e-06	6e-06	2.38e-07	1e-08
303	4e-06	1.58e-05	6.43e-07	9e-09
303	4.2e-06	1.1e-06	1.31e-07	1.4e-08
303	4.2e-06	2.8e-06	2.16e-07	9e-09
303	4.2e-06	1.69e-05	6.69e-07	8e-09
303	4.4e-06	6.6e-06	2.55e-07	1e-08
303	4.5e-06	1.79e-05	6.98e-07	1e-08
303	4.7e-06	1.9e-05	7.31e-07	1.1e-08
303	4.8e-06	1.2e-06	1.44e-07	1.4e-08
303	4.8e-06	3.2e-06	2.42e-07	9e-09
303	4.8e-06	7.1e-06	2.72e-07	1e-08
303	5e-06	2e-05	7.58e-07	1.1e-08
303	5.2e-06	7.7e-06	2.95e-07	1e-08
303	5.3e-06	1.3e-06	1.54e-07	1.5e-08
303	5.3e-06	2.1e-05	7.82e-07	1.3e-08
303	5.4e-06	3.6e-06	2.6e-07	9e-09
303	5.5e-06	2.21e-05	8.06e-07	1.3e-08
303	5.6e-06	8.3e-06	3.12e-07	1e-08
303	5.8e-06	1.5e-06	1.68e-07	1.6e-08
303	5.8e-06	2.31e-05	8.29e-07	1.2e-08
303	6e-06	4e-06	2.8e-07	7e-09
303	6e-06	8.9e-06	3.34e-07	1e-08
303	6.4e-06	1.6e-06	1.78e-07	1.6e-08
303	6.4e-06	9.5e-06	3.36e-07	1.1e-08
303	6.5e-06	4.4e-06	2.95e-07	4e-09
303	6.8e-06	1.01e-05	3.52e-07	1.2e-08
303	6.9e-06	1.7e-06	1.9e-07	1.5e-08
303	7.1e-06	4.8e-06	3.09e-07	4e-09
303	7.1e-06	1.07e-05	3.6e-07	1.4e-08
303	7.4e-06	1.9e-06	2.01e-07	2e-09
303	7.5e-06	1.13e-05	3.72e-07	1.6e-08
303	7.7e-06	5.2e-06	3.24e-07	5e-09
303	7.9e-06	1.19e-05	3.91e-07	1.8e-08
303	8e-06	2e-06	2.17e-07	2e-09
303	8.3e-06	5.6e-06	3.38e-07	3e-09
303	8.3e-06	1.25e-05	4.08e-07	1.8e-08
303	8.5e-06	2.1e-06	2.3e-07	2e-09
303	8.7e-06	1.31e-05	4.21e-07	1.7e-08
303	8.9e-06	6e-06	3.53e-07	3e-09
303	9e-06	2.3e-06	2.41e-07	3e-09
303	9.1e-06	1.36e-05	4.4e-07	1.9e-08
303	9.5e-06	2.4e-06	2.5e-07	3e-09
303	9.5e-06	6.4e-06	3.69e-07	3e-09
303	9.5e-06	1.42e-05	4.59e-07	1.8e-08
303	9.9e-06	1.48e-05	4.79e-07	1.7e-08
303	1.01e-05	2.5e-06	2.64e-07	3e-09
303	1.01e-05	6.8e-06	3.82e-07	4e-09
303	1.06e-05	2.6e-06	2.74e-07	2e-09
303	1.07e-05	7.1e-06	4e-07	9e-09
303	1.11e-05	2.8e-06	2.88e-07	2e-09
303	1.13e-05	7.5e-06	4.16e-07	1e-08
303	1.17e-05	2.9e-06	3.01e-07	2e-09
303	1.19e-05	7.9e-06	4.31e-07	1e-08
303	1.22e-05	3e-06	3.11e-07	2e-09
303	1.25e-05	8.3e-06	4.46e-07	1e-08
303	1.27e-05	3.2e-06	3.24e-07	2e-09
303	1.31e-05	8.7e-06	4.55e-07	1e-08
303	1.36e-05	9.1e-06	4.75e-07	1.1e-08
303	1.42e-05	9.5e-06	4.79e-07	9e-09
308	3e-07	1e-06	4.4e-08	2e-09
308	4e-07	6e-07	3e-08	1e-09
308	5e-07	2.2e-06	8.9e-08	1e-09
308	6e-07	1e-07	2.4e-08	1e-09
308	6e-07	4e-07	2.7e-08	1e-09
308	8e-07	1.2e-06	6.1e-08	1e-09
308	8e-07	3.2e-06	1.36e-07	7e-09
308	1e-06	3e-07	3.9e-08	1e-09
308	1.1e-06	4.2e-06	1.81e-07	9e-09
308	1.2e-06	8e-07	5.6e-08	1e-09
308	1.2e-06	1.8e-06	9.1e-08	3e-09
308	1.3e-06	5.3e-06	2.18e-07	1e-08
308	1.6e-06	4e-07	4.6e-08	1e-09
308	1.6e-06	2.4e-06	1.21e-07	3e-09
308	1.6e-06	6.4e-06	2.56e-07	1.1e-08
308	1.8e-06	1.2e-06	7.8e-08	1e-09
308	1.9e-06	7.4e-06	2.95e-07	1.4e-08
308	2e-06	3e-06	1.44e-07	6e-09
308	2.1e-06	8.5e-06	3.31e-07	1.4e-08
308	2.2e-06	5e-07	6e-08	1e-09
308	2.4e-06	1.6e-06	1.01e-07	1e-09
308	2.4e-06	3.6e-06	1.69e-07	6e-09
308	2.4e-06	9.5e-06	3.73e-07	1.5e-08
308	2.6e-06	7e-07	7.4e-08	2e-09
308	2.6e-06	1.06e-05	4.03e-07	1.5e-08
308	2.8e-06	4.2e-06	1.98e-07	7e-09
308	2.9e-06	1.17e-05	4.54e-07	1.5e-08
308	3e-06	2e-06	1.19e-07	2e-09
308	3.2e-06	8e-07	8.8e-08	1e-09
308	3.2e-06	4.8e-06	2.32e-07	7e-09
308	3.2e-06	1.27e-05	4.93e-07	1.6e-08
308	3.4e-06	1.38e-05	5.13e-07	1.6e-08
308	3.6e-06	2.4e-06	1.39e-07	3e-09
308	3.6e-06	5.4e-06	2.58e-07	8e-09
308	3.7e-06	1.48e-05	5.61e-07	1.4e-08
308	3.8e-06	9e-07	9.8e-08	1e-09
308	4e-06	5.9e-06	2.81e-07	1e-08
308	4e-06	1.58e-05	6.03e-07	1.5e-08
308	4.2e-06	1.1e-06	1.22e-07	1e-09
308	4.2e-06	2.8e-06	1.58e-07	1e-09
308	4.2e-06	1.69e-05	6.35e-07	1.4e-08
308	4.4e-06	6.5e-06	3.02e-07	1e-08
308	4.5e-06	1.79e-05	6.54e-07	1.4e-08
308	4.7e-06	1.9e-05	6.79e-07	1.5e-08
308	4.8e-06	1.2e-06	1.33e-07	1e-09
308	4.8e-06	3.2e-06	1.76e-07	2e-09
308	4.8e-06	7.1e-06	3.21e-07	1.1e-08
308	5e-06	2e-05	7.08e-07	1.5e-08
308	5.2e-06	7.7e-06	3.47e-07	1.2e-08
308	5.3e-06	1.3e-06	1.42e-07	1e-09
308	5.3e-06	2.1e-05	7.19e-07	1.5e-08
308	5.4e-06	3.6e-06	1.96e-07	2e-09
308	5.5e-06	2.21e-05	7.46e-07	1.4e-08
308	5.6e-06	8.3e-06	3.67e-07	1.3e-08
308	5.8e-06	1.5e-06	1.53e-07	1e-09
308	5.8e-06	2.31e-05	7.71e-07	1.3e-08
308	5.9e-06	4e-06	2.17e-07	1e-09
308	6e-06	8.9e-06	3.86e-07	1.3e-08
308	6e-06	2.42e-05	7.88e-07	1.3e-08
308	6.3e-06	2.52e-05	8.07e-07	1.5e-08
308	6.4e-06	1.6e-06	1.68e-07	2e-09
308	6.4e-06	9.5e-06	4.18e-07	1.8e-08
308	6.5e-06	4.4e-06	2.39e-07	2e-09
308	6.8e-06	1.01e-05	4.33e-07	1.8e-08
308	6.9e-06	1.7e-06	1.78e-07	2e-09
308	7.1e-06	4.8e-06	2.59e-07	3e-09
308	7.1e-06	1.07e-05	4.5e-07	2e-08
308	7.4e-06	1.9e-06	1.95e-07	3e-09
308	7.5e-06	1.13e-05	4.65e-07	2e-08
308	7.7e-06	5.2e-06	2.75e-07	5e-09
308	7.9e-06	1.19e-05	4.78e-07	2.1e-08
308	8e-06	2e-06	2.1e-07	3e-09
308	8.3e-06	5.6e-06	2.97e-07	6e-09
308	8.3e-06	1.25e-05	5.06e-07	2.4e-08
308	8.5e-06	2.1e-06	2.2e-07	4e-09
308	8.7e-06	1.31e-05	5.2e-07	2.5e-08
308	8.9e-06	6e-06	3.13e-07	7e-09
308	9e-06	2.3e-06	2.29e-07	3e-09
308	9.1e-06	1.36e-05	5.33e-07	2.4e-08
308	9.5e-06	2.4e-06	2.4e-07	6e-09
308	9.5e-06	6.4e-06	3.27e-07	8e-09
308	9.5e-06	1.42e-05	5.49e-07	2.5e-08
308	9.9e-06	1.48e-05	5.61e-07	2.5e-08
308	1.01e-05	2.5e-06	2.51e-07	6e-09
308	1.01e-05	6.8e-06	3.4e-07	1.1e-08
308	1.03e-05	1.54e-05	5.78e-07	2.3e-08
308	1.06e-05	2.6e-06	2.79e-07	7e-09
308	1.06e-05	1.6e-05	5.92e-07	3.6e-08
308	1.07e-05	7.1e-06	3.56e-07	1.2e-08
308	1.1e-05	1.66e-05	6.08e-07	3.5e-08
308	1.11e-05	2.8e-06	2.95e-07	6e-09
308	1.13e-05	7.5e-06	3.69e-07	1.1e-08
308	1.17e-05	2.9e-06	3.06e-07	6e-09
308	1.19e-05	7.9e-06	3.83e-07	1e-08
308	1.25e-05	8.3e-06	3.99e-07	9e-09
308	1.31e-05	8.7e-06	4.06e-07	9e-09
308	1.36e-05	9.1e-06	4.23e-07	8e-09
308	1.42e-05	9.5e-06	4.38e-07	1.3e-08
308	1.48e-05	9.9e-06	4.5e-07	9e-09
308	1.54e-05	1.03e-05	4.62e-07	3.7e-08
308	1.6e-05	1.06e-05	4.74e-07	3.7e-08
308	1.66e-05	1.1e-05	4.9e-07	3.9e-08
313	4e-07	1.6e-06	6.5e-08	1e-09
313	7e-07	1e-06	5.8e-08	1e-09
313	8e-07	2e-07	3.5e-08	1e-09
313	8e-07	5e-07	4.3e-08	2e-09
313	8e-07	3.2e-06	1.23e-07	3e-09
313	1.2e-06	4.8e-06	1.69e-07	7e-09
313	1.3e-06	2e-06	1.23e-07	1e-09
313	1.6e-06	4e-07	5.6e-08	2e-09
313	1.6e-06	1.1e-06	8.8e-08	4e-09
313	1.6e-06	6.4e-06	2.1e-07	9e-09
313	2e-06	3e-06	1.85e-07	2e-09
313	2e-06	8e-06	2.57e-07	1.2e-08
313	2.4e-06	6e-07	7.8e-08	2e-09
313	2.4e-06	1.6e-06	1.22e-07	4e-09
313	2.4e-06	9.5e-06	2.99e-07	1.5e-08
313	2.6e-06	4e-06	2.33e-07	4e-09
313	2.8e-06	1.11e-05	3.52e-07	1.4e-08
313	3.2e-06	8e-07	9.6e-08	2e-09
313	3.2e-06	2.1e-06	1.61e-07	6e-09
313	3.2e-06	1.27e-05	4.04e-07	1.8e-08
313	3.3e-06	5e-06	2.81e-07	3e-09
313	3.6e-06	1.42e-05	4.41e-07	1.8e-08
313	4e-06	1e-06	1.23e-07	3e-09
313	4e-06	2.6e-06	1.97e-07	9e-09
313	4e-06	6e-06	3.32e-07	3e-09
313	4e-06	1.58e-05	4.93e-07	2.2e-08
313	4.4e-06	1.74e-05	5.37e-07	2.1e-08
313	4.6e-06	7e-06	3.74e-07	5e-09
313	4.7e-06	1.9e-05	5.82e-07	2e-08
313	4.8e-06	1.2e-06	1.48e-07	3e-09
313	4.8e-06	3.2e-06	2.31e-07	1e-08
313	5.1e-06	2.06e-05	6.22e-07	1.7e-08
313	5.3e-06	7.9e-06	4.26e-07	5e-09
313	5.5e-06	2.21e-05	6.71e-07	1.5e-08
313	5.6e-06	1.4e-06	1.71e-07	5e-09
313	5.6e-06	3.7e-06	2.64e-07	1.2e-08
313	5.9e-06	2.37e-05	7.15e-07	1.3e-08
313	6e-06	8.9e-06	4.67e-07	7e-09
313	6.3e-06	2.52e-05	7.37e-07	1.5e-08
313	6.4e-06	1.6e-06	1.93e-07	5e-09
313	6.4e-06	4.2e-06	2.99e-07	1.3e-08
313	6.6e-06	9.9e-06	5.24e-07	9e-09
313	6.7e-06	2.67e-05	7.76e-07	1.5e-08
313	7.1e-06	4.8e-06	3.34e-07	1.4e-08
313	7.1e-06	2.83e-05	8.21e-07	1.5e-08
313	7.2e-06	1.8e-06	2.19e-07	7e-09
313	7.3e-06	1.09e-05	5.62e-07	1e-08
313	7.5e-06	2.98e-05	8.66e-07	1e-08
313	7.8e-06	3.14e-05	8.99e-07	1e-08
313	7.9e-06	5.3e-06	3.79e-07	1.7e-08
313	7.9e-06	1.19e-05	6e-07	1.8e-08
313	8e-06	2e-06	2.49e-07	8e-09
313	8.2e-06	3.29e-05	9.34e-07	1.7e-08
313	8.6e-06	1.28e-05	6.6e-07	1.7e-08
313	8.6e-06	3.45e-05	9.78e-07	1.7e-08
313	8.7e-06	2.2e-06	2.73e-07	9e-09
313	8.8e-06	5.8e-06	4.21e-07	2.2e-08
313	9.2e-06	1.39e-05	6.97e-07	2.1e-08
313	9.5e-06	2.4e-06	3.06e-07	1.3e-08
313	9.5e-06	6.4e-06	4.47e-07	2.4e-08
313	9.9e-06	1.48e-05	7.32e-07	2.2e-08
313	1.03e-05	2.6e-06	3.33e-07	1.4e-08
313	1.03e-05	6.9e-06	4.88e-07	2.7e-08
313	1.05e-05	1.58e-05	7.69e-07	3.3e-08
313	1.11e-05	2.8e-06	3.48e-07	1.1e-08
313	1.11e-05	7.4e-06	5.06e-07	2.7e-08
313	1.12e-05	1.67e-05	7.83e-07	3.5e-08
313	1.18e-05	1.78e-05	8.2e-07	2.8e-08
313	1.19e-05	3e-06	3.73e-07	1.2e-08
313	1.19e-05	7.9e-06	5.33e-07	2.9e-08
313	1.25e-05	1.87e-05	8.53e-07	3.4e-08
313	1.27e-05	3.2e-06	3.95e-07	1.2e-08
313	1.27e-05	8.4e-06	5.57e-07	3e-08
313	1.31e-05	1.97e-05	8.91e-07	2.1e-08
313	1.34e-05	9e-06	5.78e-07	3.2e-08
313	1.35e-05	3.4e-06	4.14e-07	1.3e-08
313	1.38e-05	2.06e-05	9.07e-07	4.5e-08
313	1.42e-05	3.6e-06	4.3e-07	1.3e-08
313	1.42e-05	9.5e-06	6.03e-07	3.2e-08
313	1.5e-05	3.8e-06	4.5e-07	8e-09
313	1.5e-05	1e-05	6.28e-07	3.5e-08
313	1.58e-05	4e-06	4.66e-07	5e-09
313	1.58e-05	1.05e-05	6.55e-07	3.8e-08
313	1.66e-05	4.2e-06	5.03e-07	1e-08
313	1.66e-05	1.1e-05	6.87e-07	4e-08
313	1.73e-05	1.16e-05	7.11e-07	4e-08
313	1.74e-05	4.4e-06	5.24e-07	3.7e-08
313	1.82e-05	4.5e-06	5.43e-07	3.9e-08
313	1.9e-05	4.7e-06	5.59e-07	3.9e-08

System: sodium benzoate + water + N1,N6-dihexadecyl-N1,N1,N6,N6-tetramethylhexane-1,6-diaminium bromide; phases: Liquid
Fixed: Pressure, kPa = 101
Property: Electrical conductivity, S/m (Liquid); method: Dip Cell
Temperature, K	Amount concentration (molarity), mol/dm3 of sodium benzoate	Amount concentration (molarity), mol/dm3 of N1,N6-dihexadecyl-N1,N1,N6,N6-tetramethylhexane-1,6-diaminium bromide	Electrical conductivity, S/m	uncertainty
298	1.4e-06	3e-07	1.1e-06	1e-07
298	1.7e-06	2.5e-06	3.2e-06	7e-07
298	1.7e-06	6.6e-06	1.61e-05	1.9e-06
298	2.5e-06	1.6e-06	4e-06	1e-07
298	2.6e-06	7e-07	2.9e-06	1e-07
298	3.3e-06	5e-06	9.6e-06	6e-07
298	3.3e-06	1.33e-05	2.79e-05	5.2e-06
298	4e-06	1e-06	4.6e-06	1e-07
298	5e-06	3.3e-06	8e-06	6e-07
298	5e-06	7.5e-06	1.5e-05	7e-07
298	5e-06	1.99e-05	3.84e-05	7e-06
298	5.4e-06	1.3e-06	6.1e-06	1e-07
298	6.6e-06	1.7e-06	7.2e-06	1e-07
298	6.6e-06	1e-05	1.98e-05	4e-07
298	6.6e-06	2.65e-05	4.89e-05	8.8e-06
298	7.5e-06	5e-06	1.27e-05	6e-07
298	8e-06	2e-06	9.6e-06	1e-07
298	8.3e-06	1.24e-05	2.47e-05	5e-07
298	8.3e-06	3.3e-05	6.02e-05	1.08e-05
298	9.3e-06	2.3e-06	1.16e-05	3e-07
298	9.9e-06	3.96e-05	7.14e-05	1.29e-05
298	1e-05	6.6e-06	1.69e-05	6e-07
298	1e-05	1.49e-05	2.9e-05	4e-07
298	1.06e-05	2.7e-06	1.35e-05	3e-07
298	1.15e-05	4.62e-05	7.93e-05	1.43e-05
298	1.16e-05	1.74e-05	3.39e-05	3e-07
298	1.2e-05	3e-06	1.52e-05	4e-07
298	1.24e-05	8.3e-06	2.1e-05	7e-07
298	1.32e-05	1.99e-05	3.88e-05	3e-07
298	1.32e-05	5.26e-05	8.76e-05	1.58e-05
298	1.33e-05	3.3e-06	1.69e-05	5e-07
298	1.46e-05	3.7e-06	1.87e-05	5e-07
298	1.48e-05	5.91e-05	9.47e-05	1.71e-05
298	1.49e-05	1e-05	2.89e-05	4e-07
298	1.49e-05	2.23e-05	4.27e-05	4e-07
298	1.59e-05	4e-06	1.96e-05	6e-07
298	1.64e-05	6.56e-05	0.0001031	1.86e-05
298	1.65e-05	2.48e-05	4.65e-05	3e-07
298	1.73e-05	4.3e-06	2.17e-05	6e-07
298	1.74e-05	1.16e-05	3.31e-05	6e-07
298	1.8e-05	7.2e-05	0.00011	1.98e-05
298	1.82e-05	2.72e-05	5.08e-05	3e-07
298	1.86e-05	4.6e-06	2.31e-05	6e-07
298	1.96e-05	7.84e-05	0.0001183	2.13e-05
298	1.98e-05	2.97e-05	5.43e-05	4e-07
298	1.99e-05	5e-06	2.49e-05	4e-07
298	1.99e-05	1.32e-05	3.7e-05	3e-07
298	2.12e-05	5.3e-06	2.69e-05	5e-07
298	2.12e-05	8.48e-05	0.0001251	2.26e-05
298	2.14e-05	3.22e-05	5.92e-05	4e-07
298	2.23e-05	1.49e-05	4.08e-05	3e-07
298	2.26e-05	5.6e-06	2.84e-05	5e-07
298	2.28e-05	9.12e-05	0.0001318	2.37e-05
298	2.31e-05	3.46e-05	6.3e-05	6e-07
298	2.38e-05	6e-06	3e-05	5e-07
298	2.44e-05	9.76e-05	0.0001375	2.47e-05
298	2.47e-05	3.7e-05	6.71e-05	5e-07
298	2.48e-05	1.65e-05	4.43e-05	6e-07
298	2.52e-05	6.3e-06	3.16e-05	5e-07
298	2.6e-05	0.0001039	0.0001454	2.62e-05
298	2.63e-05	3.95e-05	7.1e-05	5e-07
298	2.65e-05	6.6e-06	3.31e-05	5e-07
298	2.72e-05	1.82e-05	4.8e-05	9e-07
298	2.76e-05	0.0001102	0.0001535	2.76e-05
298	2.78e-05	7e-06	3.44e-05	5e-07
298	2.79e-05	4.19e-05	7.38e-05	1.2e-06
298	2.91e-05	7.3e-06	3.59e-05	6e-07
298	2.91e-05	0.0001165	0.0001599	2.88e-05
298	2.96e-05	4.43e-05	7.85e-05	1.2e-06
298	2.97e-05	1.98e-05	5.16e-05	9e-07
298	3.04e-05	7.6e-06	3.74e-05	6e-07
298	3.07e-05	0.0001228	0.0001648	2.97e-05
298	3.12e-05	4.67e-05	8.28e-05	1.3e-06
298	3.18e-05	7.9e-06	3.9e-05	6e-07
298	3.22e-05	2.14e-05	5.54e-05	9e-07
298	3.23e-05	0.000129	0.0001728	3.11e-05
298	3.28e-05	4.92e-05	8.59e-05	1.5e-06
298	3.3e-05	8.3e-06	4.03e-05	6e-07
298	3.38e-05	0.0001353	0.0001793	3.23e-05
298	3.44e-05	5.16e-05	9e-05	1.4e-06
298	3.46e-05	2.31e-05	5.91e-05	1.2e-06
298	3.6e-05	5.4e-05	9.3e-05	1.2e-06
298	3.7e-05	2.47e-05	6.29e-05	1.1e-06
298	3.76e-05	5.64e-05	9.82e-05	1.2e-06
298	3.92e-05	5.88e-05	0.0001022	1.7e-06
298	3.95e-05	2.63e-05	6.6e-05	1.4e-06
298	4.08e-05	6.12e-05	0.0001065	1.4e-06
298	4.19e-05	2.79e-05	7e-05	1.7e-06
298	4.43e-05	2.96e-05	7.27e-05	1.8e-06
298	4.67e-05	3.12e-05	7.72e-05	1.8e-06
298	4.92e-05	3.28e-05	8.08e-05	2.1e-06
298	5.16e-05	3.44e-05	8.34e-05	2.2e-06
298	5.4e-05	3.6e-05	8.69e-05	2.3e-06
298	5.64e-05	3.76e-05	8.9e-05	2.3e-06
298	5.88e-05	3.92e-05	9.31e-05	2.5e-06
298	6.12e-05	4.08e-05	9.6e-05	2.7e-06
303	1.7e-06	6.6e-06	6.4e-06	3e-07
303	2e-06	5e-07	1.8e-06	1e-07
303	2e-06	3e-06	3.3e-06	1e-07
303	3e-06	2e-06	5.2e-06	1e-07
303	3.3e-06	1.33e-05	2.1e-06	1e-07
303	4e-06	1e-06	4.5e-06	1e-07
303	4e-06	6e-06	1.02e-05	3e-07
303	5e-06	1.99e-05	3.5e-06	2e-07
303	6e-06	1.5e-06	6.6e-06	5e-07
303	6e-06	4e-06	1.34e-05	4e-07
303	6e-06	9e-06	1.65e-05	5e-07
303	6.6e-06	2.65e-05	4.8e-06	8e-07
303	8e-06	2e-06	9.1e-06	6e-07
303	8e-06	1.19e-05	2.34e-05	7e-07
303	8.3e-06	3.3e-05	6e-06	3e-07
303	9e-06	6e-06	1.91e-05	4e-07
303	9.9e-06	3.96e-05	7e-06	1.1e-06
303	1e-05	2.5e-06	1.11e-05	7e-07
303	1e-05	1.49e-05	2.99e-05	7e-07
303	1.15e-05	4.62e-05	8e-06	3.1e-06
303	1.19e-05	8e-06	2.44e-05	3e-07
303	1.19e-05	1.79e-05	3.63e-05	7e-07
303	1.2e-05	3e-06	1.31e-05	8e-07
303	1.32e-05	5.26e-05	8.7e-06	1.6e-06
303	1.39e-05	3.5e-06	1.51e-05	8e-07
303	1.39e-05	2.09e-05	4.14e-05	7e-07
303	1.48e-05	5.91e-05	9.4e-06	9e-07
303	1.49e-05	1e-05	2.94e-05	6e-07
303	1.59e-05	4e-06	1.7e-05	9e-07
303	1.59e-05	2.38e-05	4.75e-05	1.1e-06
303	1.64e-05	6.56e-05	1.01e-05	1.8e-06
303	1.78e-05	2.68e-05	5.27e-05	1.2e-06
303	1.79e-05	4.5e-06	1.94e-05	9e-07
303	1.79e-05	1.19e-05	3.49e-05	3e-07
303	1.8e-05	7.2e-05	1.09e-05	2.1e-06
303	1.96e-05	7.84e-05	1.16e-05	1.8e-06
303	1.98e-05	2.97e-05	5.74e-05	1.2e-06
303	1.99e-05	5e-06	2.32e-05	9e-07
303	2.09e-05	1.39e-05	3.78e-05	4e-07
303	2.12e-05	8.48e-05	1.22e-05	2.1e-06
303	2.18e-05	3.26e-05	6.43e-05	1e-06
303	2.19e-05	5.5e-06	2.53e-05	1e-06
303	2.28e-05	9.12e-05	1.32e-05	1.9e-06
303	2.37e-05	3.56e-05	7.02e-05	1.3e-06
303	2.38e-05	6e-06	2.74e-05	1.1e-06
303	2.38e-05	1.59e-05	4.55e-05	3e-07
303	2.44e-05	9.76e-05	1.39e-05	6.3e-06
303	2.57e-05	3.85e-05	7.47e-05	1.3e-06
303	2.58e-05	6.5e-06	2.99e-05	1.1e-06
303	2.6e-05	0.0001039	1.47e-05	2e-06
303	2.68e-05	1.78e-05	5.08e-05	4e-07
303	2.76e-05	4.14e-05	8.01e-05	2e-06
303	2.76e-05	0.0001102	1.54e-05	2.4e-06
303	2.78e-05	7e-06	3.21e-05	1.1e-06
303	2.91e-05	0.0001165	1.6e-05	1.9e-06
303	2.96e-05	4.43e-05	8.46e-05	1.4e-06
303	2.97e-05	1.98e-05	5.55e-05	3e-07
303	2.98e-05	7.4e-06	3.4e-05	1.1e-06
303	3.07e-05	0.0001228	1.66e-05	7.9e-06
303	3.15e-05	4.72e-05	9e-05	1.2e-06
303	3.18e-05	7.9e-06	3.63e-05	1.2e-06
303	3.23e-05	0.000129	1.75e-05	1.8e-06
303	3.26e-05	2.18e-05	6.01e-05	4e-07
303	3.34e-05	5.02e-05	9.47e-05	1.5e-06
303	3.37e-05	8.4e-06	3.8e-05	1.3e-06
303	3.38e-05	0.0001353	1.8e-05	8.9e-06
303	3.54e-05	5.3e-05	9.82e-05	1.5e-06
303	3.54e-05	0.0001414	1.86e-05	1.4e-05
303	3.56e-05	2.37e-05	6.6e-05	4e-07
303	3.57e-05	8.9e-06	3.97e-05	1.5e-06
303	3.69e-05	0.0001477	1.93e-05	3.95e-05
303	3.73e-05	5.59e-05	0.0001027	2e-06
303	3.77e-05	9.4e-06	4.21e-05	2e-06
303	3.85e-05	2.57e-05	7.1e-05	4e-07
303	3.85e-05	0.0001538	2.03e-05	3.95e-05
303	3.92e-05	5.88e-05	0.0001096	1.5e-06
303	3.96e-05	9.9e-06	4.43e-05	3.2e-06
303	4e-05	0.00016	2.08e-05	3.95e-05
303	4.11e-05	6.17e-05	0.0001138	1e-06
303	4.14e-05	2.76e-05	7.73e-05	4e-07
303	4.16e-05	1.04e-05	4.63e-05	3.3e-06
303	4.3e-05	6.46e-05	0.0001185	1.4e-06
303	4.35e-05	1.09e-05	4.82e-05	3.3e-06
303	4.43e-05	2.96e-05	8.15e-05	5e-07
303	4.5e-05	6.74e-05	0.0001228	1.3e-06
303	4.54e-05	1.14e-05	5.05e-05	3.2e-06
303	4.69e-05	7.03e-05	0.0001274	1.2e-06
303	4.72e-05	3.15e-05	8.71e-05	7e-07
303	4.74e-05	1.19e-05	5.24e-05	3.6e-06
303	4.88e-05	7.32e-05	0.0001317	1.1e-06
303	5.02e-05	3.34e-05	9.19e-05	6e-07
303	5.3e-05	3.54e-05	9.7e-05	7e-07
303	5.59e-05	3.73e-05	9.96e-05	6e-07
303	5.88e-05	3.92e-05	0.0001054	9e-07
303	6.17e-05	4.11e-05	0.0001097	7e-07
303	6.46e-05	4.3e-05	0.0001146	7e-07
303	6.74e-05	4.5e-05	0.0001189	1.8e-06
303	7.03e-05	4.69e-05	0.0001272	1.8e-06
308	2.6e-06	7e-07	3.8e-06	6e-07
308	3.3e-06	5e-06	1.3e-05	9e-07
308	3.3e-06	1.33e-05	2.7e-05	3e-06
308	5e-06	3.3e-06	3.9e-06	1e-07
308	5.4e-06	1.3e-06	1.13e-05	1e-07
308	6.6e-06	1e-05	2.5e-05	2e-06
308	6.6e-06	2.65e-05	5.73e-05	5.7e-06
308	8e-06	2e-06	1.56e-05	2e-07
308	9.9e-06	3.96e-05	8.25e-05	8.9e-06
308	1e-05	6.6e-06	1.31e-05	2e-07
308	1e-05	1.49e-05	3.54e-05	3.3e-06
308	1.06e-05	2.7e-06	2.08e-05	1e-07
308	1.32e-05	1.99e-05	4.59e-05	3e-06
308	1.32e-05	5.26e-05	0.0001032	1.12e-05
308	1.33e-05	3.3e-06	2.51e-05	3e-07
308	1.49e-05	1e-05	2.33e-05	7e-07
308	1.59e-05	4e-06	2.86e-05	4e-07
308	1.64e-05	6.56e-05	0.0001206	1.33e-05
308	1.65e-05	2.48e-05	5.73e-05	4.2e-06
308	1.86e-05	4.6e-06	3.23e-05	4e-07
308	1.96e-05	7.84e-05	0.0001359	1.58e-05
308	1.98e-05	2.97e-05	6.55e-05	5e-06
308	1.99e-05	1.32e-05	3.4e-05	9e-07
308	2.12e-05	5.3e-06	3.69e-05	4e-07
308	2.28e-05	9.12e-05	0.0001507	1.72e-05
308	2.31e-05	3.46e-05	7.52e-05	6.2e-06
308	2.38e-05	6e-06	4.07e-05	4e-07
308	2.48e-05	1.65e-05	4.3e-05	6e-07
308	2.6e-05	0.0001039	0.0001652	1.86e-05
308	2.63e-05	3.95e-05	8.37e-05	7e-06
308	2.65e-05	6.6e-06	4.39e-05	4e-07
308	2.91e-05	7.3e-06	4.74e-05	5e-07
308	2.91e-05	0.0001165	0.0001785	2.01e-05
308	2.96e-05	4.43e-05	9.16e-05	7.9e-06
308	2.97e-05	1.98e-05	5.13e-05	8e-07
308	3.18e-05	7.9e-06	5.05e-05	4e-07
308	3.22e-05	0.000129	0.0001919	2.15e-05
308	3.28e-05	4.92e-05	0.0001001	7.9e-06
308	3.44e-05	8.6e-06	5.37e-05	6e-07
308	3.46e-05	2.31e-05	5.93e-05	1.1e-06
308	3.54e-05	0.0001414	0.0002056	2.27e-05
308	3.6e-05	5.4e-05	0.0001072	8.7e-06
308	3.7e-05	9.2e-06	5.72e-05	8e-07
308	3.85e-05	0.0001538	0.0002176	2.4e-05
308	3.92e-05	5.88e-05	0.0001161	9.7e-06
308	3.95e-05	2.63e-05	6.76e-05	7e-07
308	3.96e-05	9.9e-06	6.03e-05	7e-07
308	4.15e-05	0.0001662	0.0002298	2.65e-05
308	4.22e-05	1.06e-05	6.34e-05	9e-07
308	4.24e-05	6.36e-05	0.0001232	1.05e-05
308	4.43e-05	2.96e-05	7.52e-05	1.5e-06
308	4.46e-05	0.0001783	0.000243	9.2e-06
308	4.48e-05	1.12e-05	6.56e-05	9e-07
308	4.56e-05	6.84e-05	0.0001295	1.11e-05
308	4.74e-05	1.19e-05	7.01e-05	9e-07
308	4.76e-05	0.0001905	0.0002555	1.06e-05
308	4.88e-05	7.32e-05	0.0001357	1.18e-05
308	4.92e-05	3.28e-05	8.31e-05	6e-07
308	5e-05	1.25e-05	7.31e-05	9e-07
308	5.06e-05	0.0002026	0.000268	1.08e-05
308	5.2e-05	7.79e-05	0.0001433	1.22e-05
308	5.26e-05	1.32e-05	7.56e-05	5e-07
308	5.36e-05	0.0002145	0.0002791	1.15e-05
308	5.4e-05	3.6e-05	9.13e-05	1.1e-06
308	5.51e-05	8.27e-05	0.0001524	2.6e-05
308	5.52e-05	1.38e-05	7.93e-05	1.5e-06
308	5.66e-05	0.0002264	0.0002917	1.14e-05
308	5.78e-05	1.45e-05	8.17e-05	1.3e-06
308	5.82e-05	8.74e-05	0.0001591	2.75e-05
308	5.88e-05	3.92e-05	9.97e-05	1.4e-06
308	5.96e-05	0.0002382	0.0003018	1.22e-05
308	6.04e-05	1.51e-05	8.45e-05	1.4e-06
308	6.14e-05	9.21e-05	0.0001642	2.9e-05
308	6.25e-05	0.00025	0.0003131	1.32e-05
308	6.3e-05	1.57e-05	9.02e-05	1.6e-06
308	6.36e-05	4.24e-05	0.0001072	1.5e-06
308	6.45e-05	9.68e-05	0.0001731	3.18e-05
308	6.56e-05	1.64e-05	9.32e-05	1.3e-06
308	6.76e-05	0.0001015	0.0001792	2.95e-05
308	6.84e-05	4.56e-05	0.0001134	1.4e-06
308	7.07e-05	0.0001061	0.0001859	3.18e-05
308	7.32e-05	4.88e-05	0.0001215	2.8e-06
308	7.38e-05	0.0001108	0.0001935	3.33e-05
308	7.69e-05	0.0001154	0.0001982	3.53e-05
308	7.8e-05	5.2e-05	0.0001289	4.8e-06
308	8e-05	0.00012	0.0002055	3.68e-05
308	8.27e-05	5.51e-05	0.0001356	5.2e-06
308	8.74e-05	5.82e-05	0.0001423	5.7e-06
308	9.21e-05	6.14e-05	0.0001491	6.2e-06
308	9.68e-05	6.45e-05	0.0001566	6.6e-06
308	0.0001015	6.76e-05	0.000164	6.8e-06
308	0.0001061	7.07e-05	0.0001713	6.8e-06
308	0.0001108	7.38e-05	0.0001781	7.1e-06
308	0.0001154	7.69e-05	0.0001849	6.9e-06
308	0.00012	8e-05	0.0001914	7.9e-06
313	3.3e-06	1.33e-05	3.16e-05	9e-07
313	4e-06	1e-06	2.1e-06	9e-07
313	4e-06	6e-06	1e-06	2.8e-06
313	6e-06	4e-06	1.46e-05	1.8e-06
313	6.6e-06	2.65e-05	6.18e-05	1e-06
313	8e-06	2e-06	1.06e-05	1.3e-06
313	8e-06	1.19e-05	2.9e-06	1.1e-06
313	9.9e-06	3.96e-05	9.55e-05	2.7e-06
313	1.19e-05	8e-06	2.73e-05	2e-07
313	1.19e-05	1.79e-05	4.4e-06	5e-07
313	1.2e-05	3e-06	1.48e-05	1.7e-06
313	1.32e-05	5.26e-05	0.0001201	3.4e-06
313	1.59e-05	4e-06	2.02e-05	1.7e-06
313	1.59e-05	2.38e-05	5.8e-06	1.1e-06
313	1.64e-05	6.56e-05	0.0001427	4.5e-06
313	1.79e-05	1.19e-05	3.91e-05	1.9e-06
313	1.96e-05	7.84e-05	0.0001694	6.8e-06
313	1.98e-05	2.97e-05	7.1e-06	8e-07
313	1.99e-05	5e-06	2.51e-05	2e-06
313	2.28e-05	9.12e-05	0.0001854	7e-06
313	2.37e-05	3.56e-05	8.3e-06	1.1e-06
313	2.38e-05	6e-06	3.02e-05	2.1e-06
313	2.38e-05	1.59e-05	5.06e-05	1e-06
313	2.6e-05	0.0001039	0.0002001	7.1e-06
313	2.76e-05	4.14e-05	9.4e-06	1.1e-06
313	2.78e-05	7e-06	3.48e-05	2.2e-06
313	2.91e-05	0.0001165	0.0002171	7.8e-06
313	2.97e-05	1.98e-05	6.27e-05	2.3e-06
313	3.15e-05	4.72e-05	1.07e-05	8e-07
313	3.18e-05	7.9e-06	3.98e-05	2.1e-06
313	3.23e-05	0.000129	0.0002318	8.2e-06
313	3.54e-05	5.3e-05	1.15e-05	8e-07
313	3.54e-05	0.0001414	0.0002457	8.1e-06
313	3.56e-05	2.37e-05	7.6e-05	3.4e-06
313	3.57e-05	8.9e-06	4.57e-05	2e-06
313	3.85e-05	0.0001538	0.0002597	8.5e-06
313	3.92e-05	5.88e-05	1.24e-05	1.2e-06
313	3.96e-05	9.9e-06	5.06e-05	2e-06
313	4.14e-05	2.76e-05	8.74e-05	3.8e-06
313	4.15e-05	0.0001662	0.0002736	8.9e-06
313	4.3e-05	6.46e-05	1.36e-05	1.2e-06
313	4.35e-05	1.09e-05	5.54e-05	1.9e-06
313	4.46e-05	0.0001783	0.0002887	9.3e-06
313	4.69e-05	7.03e-05	1.45e-05	9e-07
313	4.72e-05	3.15e-05	9.71e-05	5.6e-06
313	4.74e-05	1.19e-05	6.04e-05	1.8e-06
313	4.76e-05	0.0001905	0.0003079	1.06e-05
313	5.06e-05	0.0002026	0.0003214	1.08e-05
313	5.07e-05	7.6e-05	1.55e-05	4e-07
313	5.14e-05	1.28e-05	6.73e-05	1.5e-06
313	5.3e-05	3.54e-05	0.0001073	1.3e-06
313	5.36e-05	0.0002145	0.0003361	1.15e-05
313	5.45e-05	8.17e-05	1.63e-05	1.08e-05
313	5.52e-05	1.38e-05	7.16e-05	1.5e-06
313	5.66e-05	0.0002264	0.0003479	1.14e-05
313	5.82e-05	8.74e-05	1.73e-05	1.45e-05
313	5.88e-05	3.92e-05	0.0001182	4.2e-06
313	5.91e-05	1.48e-05	7.69e-05	1.4e-06
313	5.96e-05	0.0002382	0.0003622	1.22e-05
313	6.2e-05	9.3e-05	1.83e-05	1.32e-05
313	6.25e-05	0.00025	0.0003787	1.33e-05
313	6.3e-05	1.57e-05	8.18e-05	1.6e-06
313	6.46e-05	4.3e-05	0.0001285	3.3e-06
313	6.54e-05	0.0002617	0.0003909	1.33e-05
313	6.58e-05	9.86e-05	1.9e-05	1.37e-05
313	6.69e-05	1.67e-05	8.89e-05	1.5e-06
313	6.95e-05	0.0001042	2.01e-05	1.74e-05
313	7.03e-05	4.69e-05	0.0001388	6.9e-06
313	7.07e-05	1.77e-05	9.37e-05	1.2e-06
313	7.32e-05	0.0001098	2.09e-05	1.45e-05
313	7.46e-05	1.86e-05	9.74e-05	1.3e-06
313	7.6e-05	5.07e-05	0.00015	5.7e-06
313	7.69e-05	0.0001154	2.2e-05	1.85e-05
313	7.84e-05	1.96e-05	0.000103	1.7e-06
313	8.06e-05	0.0001209	2.3e-05	3.27e-05
313	8.17e-05	5.45e-05	0.0001599	2.2e-06
313	8.22e-05	2.06e-05	0.0001081	1.5e-06
313	8.43e-05	0.0001264	2.38e-05	3.65e-05
313	8.59e-05	2.15e-05	0.0001129	4.8e-06
313	8.74e-05	5.82e-05	0.0001707	4.3e-06
313	8.8e-05	0.0001319	2.48e-05	3.66e-05
313	9.3e-05	6.2e-05	0.0001815	1.3e-06
313	9.86e-05	6.58e-05	0.0001921	6.6e-06
313	0.0001042	6.95e-05	0.000202	6.9e-06
313	0.0001098	7.32e-05	0.000212	7.2e-06
313	0.0001154	7.69e-05	0.0002192	7e-06
313	0.0001209	8.06e-05	0.0002318	7.8e-06
313	0.0001264	8.43e-05	0.0002415	7.8e-06
313	0.0001319	8.8e-05	0.0002514	7.9e-06
313	0.0001374	9.16e-05	0.0002609	7.9e-06

System: sodium p-toluenesulfonate + water + N1,N6-dihexadecyl-N1,N1,N6,N6-tetramethylhexane-1,6-diaminium bromide; phases: Liquid
Fixed: Pressure, kPa = 101
Property: Electrical conductivity, S/m (Liquid); method: Dip Cell
Temperature, K	Amount concentration (molarity), mol/dm3 of sodium p-toluenesulfonate	Amount concentration (molarity), mol/dm3 of N1,N6-dihexadecyl-N1,N1,N6,N6-tetramethylhexane-1,6-diaminium bromide	Electrical conductivity, S/m	uncertainty
298	3e-07	1.2e-06	3.6e-08	7e-09
298	4e-07	1e-07	1.8e-08	1e-09
298	4e-07	6e-07	1e-08	1e-09
298	6e-07	4e-07	3.1e-08	1e-09
298	6e-07	2.4e-06	7e-08	5e-09
298	8e-07	2e-07	3.1e-08	1e-09
298	8e-07	1.2e-06	3.9e-08	4e-09
298	9e-07	3.6e-06	9.6e-08	6e-09
298	1.2e-06	3e-07	4.6e-08	6e-09
298	1.2e-06	8e-07	6.6e-08	4e-09
298	1.2e-06	1.8e-06	6.8e-08	6e-09
298	1.2e-06	4.8e-06	1.32e-07	5e-09
298	1.5e-06	6e-06	1.59e-07	7e-09
298	1.6e-06	4e-07	6.1e-08	1e-09
298	1.6e-06	2.4e-06	7.9e-08	7e-09
298	1.8e-06	1.2e-06	9.5e-08	1e-08
298	1.8e-06	7.2e-06	1.81e-07	6e-09
298	2e-06	5e-07	7.2e-08	1e-09
298	2e-06	3e-06	9.6e-08	6e-09
298	2.1e-06	8.4e-06	2.06e-07	6e-09
298	2.4e-06	6e-07	8.6e-08	3e-09
298	2.4e-06	1.6e-06	1.25e-07	1e-09
298	2.4e-06	3.6e-06	1.07e-07	8e-09
298	2.4e-06	9.6e-06	2.26e-07	9e-09
298	2.7e-06	1.07e-05	2.5e-07	1.7e-08
298	2.8e-06	7e-07	9.4e-08	3e-09
298	2.8e-06	4.2e-06	1.19e-07	9e-09
298	3e-06	2e-06	1.45e-07	1.1e-08
298	3e-06	1.19e-05	2.73e-07	1.7e-08
298	3.2e-06	8e-07	1.05e-07	4e-09
298	3.2e-06	4.8e-06	1.28e-07	9e-09
298	3.3e-06	1.31e-05	2.99e-07	1.8e-08
298	3.6e-06	9e-07	1.1e-07	3e-09
298	3.6e-06	2.4e-06	1.65e-07	1e-08
298	3.6e-06	5.4e-06	1.44e-07	9e-09
298	3.6e-06	1.43e-05	3.14e-07	2e-08
298	3.9e-06	1.55e-05	3.45e-07	1.9e-08
298	4e-06	1e-06	1.16e-07	5e-09
298	4e-06	6e-06	1.67e-07	1e-08
298	4.2e-06	2.8e-06	1.8e-07	6e-09
298	4.2e-06	1.67e-05	3.7e-07	2.2e-08
298	4.4e-06	1.1e-06	1.24e-07	5e-09
298	4.4e-06	6.6e-06	1.8e-07	1e-08
298	4.5e-06	1.78e-05	4e-07	2e-08
298	4.8e-06	1.2e-06	1.3e-07	6e-09
298	4.8e-06	3.2e-06	1.91e-07	1.1e-08
298	4.8e-06	7.2e-06	1.92e-07	7e-09
298	4.8e-06	1.9e-05	4.22e-07	2.3e-08
298	5.1e-06	2.02e-05	4.44e-07	2.5e-08
298	5.2e-06	1.3e-06	1.35e-07	6e-09
298	5.2e-06	7.7e-06	2.08e-07	1e-08
298	5.4e-06	3.6e-06	2.02e-07	8e-09
298	5.4e-06	2.14e-05	4.68e-07	2.4e-08
298	5.6e-06	1.4e-06	1.41e-07	8e-09
298	5.6e-06	8.3e-06	2.17e-07	9e-09
298	5.6e-06	2.26e-05	4.99e-07	2.4e-08
298	5.9e-06	2.38e-05	5.21e-07	2.5e-08
298	6e-06	1.5e-06	1.46e-07	8e-09
298	6e-06	4e-06	2.12e-07	3e-09
298	6e-06	8.9e-06	2.34e-07	1e-08
298	6.2e-06	2.5e-05	5.54e-07	2.3e-08
298	6.4e-06	1.6e-06	1.53e-07	9e-09
298	6.4e-06	9.5e-06	2.52e-07	1.1e-08
298	6.5e-06	2.61e-05	5.69e-07	2.5e-08
298	6.6e-06	4.4e-06	2.23e-07	5e-09
298	6.8e-06	1.7e-06	1.62e-07	9e-09
298	6.8e-06	1.01e-05	2.62e-07	1e-08
298	6.8e-06	2.73e-05	5.91e-07	2.4e-08
298	7.1e-06	2.85e-05	5.98e-07	2.8e-08
298	7.2e-06	1.8e-06	1.71e-07	7e-09
298	7.2e-06	4.8e-06	2.28e-07	5e-09
298	7.2e-06	1.07e-05	2.72e-07	1e-08
298	7.4e-06	2.96e-05	6.3e-07	2.5e-08
298	7.6e-06	1.9e-06	1.83e-07	8e-09
298	7.6e-06	1.13e-05	2.94e-07	9e-09
298	7.7e-06	5.2e-06	2.38e-07	7e-09
298	7.7e-06	3.08e-05	6.63e-07	3.7e-08
298	8e-06	2e-06	1.92e-07	6e-09
298	8e-06	1.19e-05	3.1e-07	1.1e-08
298	8e-06	3.2e-05	7.8e-07	1.3e-08
298	8.3e-06	5.6e-06	2.49e-07	7e-09
298	8.3e-06	3.31e-05	7.99e-07	8e-09
298	8.4e-06	2.1e-06	2.02e-07	6e-09
298	8.4e-06	1.25e-05	3.17e-07	1e-08
298	8.7e-06	1.31e-05	3.32e-07	9e-09
298	8.8e-06	2.2e-06	2.11e-07	5e-09
298	8.9e-06	6e-06	2.59e-07	7e-09
298	9.1e-06	1.37e-05	3.46e-07	9e-09
298	9.2e-06	2.3e-06	2.15e-07	5e-09
298	9.5e-06	6.4e-06	2.69e-07	7e-09
298	9.5e-06	1.43e-05	3.58e-07	1.7e-08
298	9.6e-06	2.4e-06	2.26e-07	4e-09
298	9.9e-06	1.49e-05	3.78e-07	1.7e-08
298	1.01e-05	6.8e-06	2.79e-07	8e-09
298	1.03e-05	1.55e-05	3.91e-07	8e-09
298	1.07e-05	7.2e-06	2.97e-07	8e-09
298	1.13e-05	7.6e-06	3.1e-07	8e-09
298	1.19e-05	8e-06	3.21e-07	8e-09
298	1.25e-05	8.4e-06	3.34e-07	9e-09
298	1.31e-05	8.7e-06	3.45e-07	8e-09
298	1.37e-05	9.1e-06	3.53e-07	8e-09
298	1.43e-05	9.5e-06	3.69e-07	8e-09
298	1.49e-05	9.9e-06	3.77e-07	8e-09
303	4e-07	1.6e-06	7.7e-08	4e-09
303	6e-07	9e-07	1.8e-08	4e-09
303	8e-07	2e-07	2.7e-08	2e-09
303	8e-07	3.2e-06	1.16e-07	3e-09
303	9e-07	6e-07	2.1e-08	2e-09
303	1.2e-06	1.8e-06	4.6e-08	2e-09
303	1.2e-06	4.8e-06	1.6e-07	3e-09
303	1.6e-06	4e-07	6.2e-08	3e-09
303	1.6e-06	6.4e-06	1.98e-07	4e-09
303	1.8e-06	1.2e-06	4.6e-08	5e-09
303	1.8e-06	2.7e-06	7.3e-08	4e-09
303	2e-06	8e-06	2.29e-07	4e-09
303	2.4e-06	6e-07	9.9e-08	3e-09
303	2.4e-06	3.6e-06	9.3e-08	5e-09
303	2.4e-06	9.6e-06	2.73e-07	3e-09
303	2.8e-06	1.11e-05	3.43e-07	1e-08
303	3e-06	2e-06	6.8e-08	7e-09
303	3e-06	4.5e-06	1.15e-07	7e-09
303	3.2e-06	8e-07	1.21e-07	3e-09
303	3.2e-06	1.27e-05	3.83e-07	9e-09
303	3.6e-06	2.4e-06	8.9e-08	7e-09
303	3.6e-06	5.4e-06	1.35e-07	8e-09
303	3.6e-06	1.43e-05	4.15e-07	5e-09
303	4e-06	1e-06	1.41e-07	3e-09
303	4e-06	1.59e-05	4.5e-07	3e-09
303	4.2e-06	6.3e-06	1.58e-07	8e-09
303	4.4e-06	1.74e-05	4.93e-07	4e-09
303	4.5e-06	3e-06	1.16e-07	7e-09
303	4.8e-06	1.2e-06	1.57e-07	3e-09
303	4.8e-06	7.2e-06	1.8e-07	9e-09
303	4.8e-06	1.9e-05	5.34e-07	3e-09
303	5.2e-06	2.06e-05	5.76e-07	3e-09
303	5.4e-06	3.6e-06	1.41e-07	4e-09
303	5.4e-06	8e-06	1.99e-07	8e-09
303	5.5e-06	2.22e-05	6.06e-07	8e-09
303	5.6e-06	1.4e-06	1.8e-07	2e-09
303	5.9e-06	2.38e-05	6.43e-07	4e-09
303	6e-06	8.9e-06	2.17e-07	9e-09
303	6.3e-06	4.2e-06	1.7e-07	6e-09
303	6.3e-06	2.54e-05	6.79e-07	4e-09
303	6.4e-06	1.6e-06	1.96e-07	2e-09
303	6.6e-06	9.8e-06	2.36e-07	1e-08
303	6.7e-06	2.69e-05	7.08e-07	5e-09
303	7.1e-06	2.85e-05	7.36e-07	6e-09
303	7.2e-06	1.8e-06	2.09e-07	2e-09
303	7.2e-06	4.8e-06	1.88e-07	6e-09
303	7.2e-06	1.07e-05	2.55e-07	1e-08
303	7.5e-06	3e-05	7.67e-07	4e-09
303	7.8e-06	1.16e-05	2.74e-07	1e-08
303	7.9e-06	3.16e-05	8.01e-07	1.3e-08
303	8e-06	2e-06	2.22e-07	3e-09
303	8e-06	5.4e-06	2.05e-07	6e-09
303	8.3e-06	3.31e-05	8.34e-07	1.1e-08
303	8.4e-06	1.25e-05	2.94e-07	1e-08
303	8.7e-06	3.47e-05	8.67e-07	7e-09
303	8.8e-06	2.2e-06	2.35e-07	3e-09
303	8.9e-06	6e-06	2.23e-07	4e-09
303	8.9e-06	1.34e-05	3.12e-07	1e-08
303	9.1e-06	3.62e-05	9.06e-07	3.1e-08
303	9.4e-06	3.78e-05	9.24e-07	2.8e-08
303	9.5e-06	1.43e-05	3.2e-07	1e-08
303	9.6e-06	2.4e-06	2.46e-07	3e-09
303	9.8e-06	6.6e-06	2.4e-07	4e-09
303	9.8e-06	3.94e-05	9.57e-07	3e-08
303	1.01e-05	1.52e-05	3.46e-07	1e-08
303	1.03e-05	2.6e-06	2.57e-07	3e-09
303	1.07e-05	7.2e-06	2.58e-07	4e-09
303	1.07e-05	1.61e-05	3.64e-07	1.7e-08
303	1.11e-05	2.8e-06	2.7e-07	5e-09
303	1.13e-05	1.69e-05	3.81e-07	2.5e-08
303	1.16e-05	7.8e-06	2.75e-07	4e-09
303	1.19e-05	3e-06	2.82e-07	8e-09
303	1.19e-05	1.78e-05	3.99e-07	4.4e-08
303	1.25e-05	8.4e-06	2.92e-07	3e-09
303	1.25e-05	1.87e-05	4.16e-07	4.7e-08
303	1.27e-05	3.2e-06	2.92e-07	8e-09
303	1.3e-05	1.96e-05	4.37e-07	4.1e-08
303	1.34e-05	8.9e-06	3.11e-07	4e-09
303	1.35e-05	3.4e-06	3.01e-07	7e-09
303	1.36e-05	2.05e-05	4.55e-07	4.2e-08
303	1.42e-05	2.14e-05	4.74e-07	4.2e-08
303	1.43e-05	3.6e-06	3.17e-07	8e-09
303	1.43e-05	9.5e-06	3.28e-07	4e-09
303	1.48e-05	2.22e-05	4.92e-07	4.3e-08
303	1.51e-05	3.8e-06	3.35e-07	8e-09
303	1.52e-05	1.01e-05	3.45e-07	5e-09
303	1.59e-05	4e-06	3.45e-07	9e-09
303	1.61e-05	1.07e-05	3.6e-07	4e-09
303	1.67e-05	4.2e-06	3.53e-07	8e-09
303	1.69e-05	1.13e-05	3.77e-07	3e-09
303	1.78e-05	1.19e-05	3.92e-07	3e-09
303	1.87e-05	1.25e-05	4.08e-07	3e-09
303	1.96e-05	1.3e-05	4.24e-07	3e-09
303	2.05e-05	1.36e-05	4.4e-07	4e-09
303	2.14e-05	1.42e-05	4.54e-07	7e-09
303	2.22e-05	1.48e-05	4.69e-07	8e-09
308	5e-07	2e-06	2.1e-08	7e-09
308	8e-07	2e-07	1.2e-08	4e-09
308	8e-07	1.2e-06	6.7e-08	3e-09
308	1e-06	4e-06	7.7e-08	3e-09
308	1.2e-06	8e-07	4e-08	2e-09
308	1.5e-06	6e-06	1.16e-07	5e-09
308	1.6e-06	4e-07	3.4e-08	4e-09
308	1.6e-06	2.4e-06	1.2e-07	3e-09
308	2e-06	8e-06	1.56e-07	3e-09
308	2.4e-06	6e-07	5.6e-08	6e-09
308	2.4e-06	1.6e-06	6.4e-08	4e-09
308	2.4e-06	3.6e-06	1.6e-07	3.7e-09
308	2.5e-06	9.9e-06	1.98e-07	4e-09
308	3e-06	1.19e-05	2.32e-07	3e-09
308	3.2e-06	8e-07	7.3e-08	7e-09
308	3.2e-06	4.8e-06	2.05e-07	4e-09
308	3.5e-06	1.39e-05	2.82e-07	7e-09
308	3.6e-06	2.4e-06	9.8e-08	3e-09
308	4e-06	1e-06	8.9e-08	8e-09
308	4e-06	6e-06	2.46e-07	4e-09
308	4e-06	1.59e-05	3.3e-07	9e-09
308	4.5e-06	1.78e-05	3.75e-07	9e-09
308	4.8e-06	1.2e-06	1.07e-07	9e-09
308	4.8e-06	3.2e-06	1.25e-07	4e-09
308	4.8e-06	7.2e-06	2.81e-07	4e-09
308	5e-06	1.98e-05	4.13e-07	7e-09
308	5.5e-06	2.18e-05	4.54e-07	1e-08
308	5.6e-06	1.4e-06	1.22e-07	1e-08
308	5.6e-06	8.3e-06	3.09e-07	3e-09
308	5.9e-06	2.38e-05	5.05e-07	6e-09
308	6e-06	4e-06	1.49e-07	5e-09
308	6.4e-06	1.6e-06	1.39e-07	1.1e-08
308	6.4e-06	9.5e-06	3.53e-07	5e-09
308	6.4e-06	2.58e-05	5.32e-07	3e-09
308	6.9e-06	2.77e-05	5.73e-07	1.5e-08
308	7.2e-06	1.8e-06	1.55e-07	1.1e-08
308	7.2e-06	4.8e-06	1.72e-07	5e-09
308	7.2e-06	1.07e-05	3.75e-07	5e-09
308	7.4e-06	2.96e-05	6.19e-07	5e-09
308	7.9e-06	3.16e-05	6.65e-07	1.1e-08
308	8e-06	2e-06	1.69e-07	1.2e-08
308	8e-06	1.19e-05	4.04e-07	5e-09
308	8.3e-06	5.6e-06	1.97e-07	7e-09
308	8.4e-06	3.35e-05	7.19e-07	9e-09
308	8.7e-06	1.31e-05	4.33e-07	5e-09
308	8.8e-06	2.2e-06	1.84e-07	1.1e-08
308	8.9e-06	3.54e-05	7.45e-07	1.3e-08
308	9.4e-06	3.74e-05	7.81e-07	9e-09
308	9.5e-06	6.4e-06	2.32e-07	6e-09
308	9.5e-06	1.43e-05	4.57e-07	6e-09
308	9.6e-06	2.4e-06	2.03e-07	1.3e-08
308	9.8e-06	3.94e-05	8.1e-07	6e-09
308	1.03e-05	2.6e-06	2.16e-07	1.2e-08
308	1.03e-05	1.55e-05	4.86e-07	6e-09
308	1.03e-05	4.13e-05	8.14e-07	6e-09
308	1.07e-05	7.2e-06	2.55e-07	8e-09
308	1.08e-05	4.32e-05	8.79e-07	4.8e-08
308	1.11e-05	2.8e-06	2.27e-07	1.4e-08
308	1.11e-05	1.66e-05	5.77e-07	6e-09
308	1.13e-05	4.51e-05	9.07e-07	5.7e-08
308	1.18e-05	4.7e-05	9.31e-07	6.1e-08
308	1.19e-05	3e-06	2.4e-07	1.3e-08
308	1.19e-05	8e-06	2.86e-07	8e-09
308	1.19e-05	1.78e-05	6.21e-07	6e-09
308	1.22e-05	4.9e-05	9.76e-07	5.7e-08
308	1.27e-05	3.2e-06	2.54e-07	1.4e-08
308	1.27e-05	1.9e-05	6.49e-07	6e-09
308	1.27e-05	5.09e-05	9.98e-07	6.1e-08
308	1.31e-05	8.7e-06	3.04e-07	7e-09
308	1.32e-05	5.28e-05	1.03e-06	6e-08
308	1.34e-05	2.02e-05	6.73e-07	5e-09
308	1.35e-05	3.4e-06	2.69e-07	1.3e-08
308	1.37e-05	5.47e-05	1.058e-06	6.2e-08
308	1.42e-05	2.14e-05	6.94e-07	6e-09
308	1.43e-05	3.6e-06	2.8e-07	1.6e-08
308	1.43e-05	9.5e-06	3.31e-07	8e-09
308	1.5e-05	2.25e-05	7.12e-07	6e-09
308	1.51e-05	3.8e-06	2.93e-07	1.6e-08
308	1.55e-05	1.03e-05	3.52e-07	9e-09
308	1.58e-05	2.37e-05	7.41e-07	5e-09
308	1.59e-05	4e-06	3e-07	1.7e-08
308	1.66e-05	1.11e-05	3.8e-07	6e-09
308	1.66e-05	2.48e-05	7.87e-07	4.1e-08
308	1.67e-05	4.2e-06	3.15e-07	1.6e-08
308	1.74e-05	4.4e-06	3.38e-07	1.9e-08
308	1.74e-05	2.6e-05	8.07e-07	4.1e-08
308	1.78e-05	1.19e-05	4.05e-07	9e-09
308	1.81e-05	2.72e-05	8.34e-07	3.6e-08
308	1.82e-05	4.6e-06	3.51e-07	1.9e-08
308	1.89e-05	2.83e-05	8.67e-07	3.1e-08
308	1.9e-05	4.8e-06	3.67e-07	3.2e-08
308	1.9e-05	1.27e-05	4.24e-07	1.2e-08
308	1.97e-05	2.95e-05	8.85e-07	3e-08
308	1.98e-05	5e-06	3.84e-07	3.2e-08
308	2.02e-05	1.34e-05	4.52e-07	1e-08
308	2.06e-05	5.2e-06	3.93e-07	3.4e-08
308	2.14e-05	5.4e-06	4.05e-07	3.5e-08
308	2.14e-05	1.42e-05	4.87e-07	1.2e-08
308	2.25e-05	1.5e-05	5.12e-07	1.1e-08
308	2.37e-05	1.58e-05	5.39e-07	1.2e-08
308	2.48e-05	1.66e-05	6.09e-07	8e-09
308	2.6e-05	1.74e-05	6.26e-07	9e-09
308	2.72e-05	1.81e-05	6.58e-07	9e-09
308	2.83e-05	1.89e-05	6.74e-07	9e-09
308	2.95e-05	1.97e-05	7.03e-07	2.2e-08
313	6e-07	2.4e-06	4.1e-08	2e-09
313	1e-06	1.5e-06	5.9e-08	4e-09
313	1.2e-06	4.8e-06	1.16e-07	4e-09
313	1.5e-06	1e-06	5.7e-08	1e-09
313	1.6e-06	4e-07	2.5e-08	2e-09
313	1.8e-06	7.2e-06	1.88e-07	1e-08
313	2e-06	3e-06	1.15e-07	9e-09
313	2.4e-06	9.6e-06	2.37e-07	1e-08
313	3e-06	2e-06	1.12e-07	2e-09
313	3e-06	4.5e-06	1.51e-07	8e-09
313	3e-06	1.19e-05	3.04e-07	1.5e-08
313	3.2e-06	8e-07	4.8e-08	5e-09
313	3.6e-06	1.43e-05	3.49e-07	1.2e-08
313	4e-06	6e-06	1.86e-07	9e-09
313	4.2e-06	1.67e-05	4.1e-07	1.2e-08
313	4.5e-06	3e-06	1.6e-07	1e-08
313	4.8e-06	1.2e-06	6.7e-08	8e-09
313	4.8e-06	1.9e-05	4.64e-07	1.4e-08
313	5e-06	7.4e-06	2.21e-07	1e-08
313	5.4e-06	2.14e-05	5.17e-07	1.5e-08
313	5.9e-06	2.38e-05	5.85e-07	1.6e-08
313	6e-06	4e-06	2.06e-07	4e-09
313	6e-06	8.9e-06	2.55e-07	9e-09
313	6.4e-06	1.6e-06	8.8e-08	1e-08
313	6.5e-06	2.61e-05	7.35e-07	3.9e-08
313	7e-06	1.04e-05	2.94e-07	8e-09
313	7.1e-06	2.85e-05	7.92e-07	4e-08
313	7.4e-06	5e-06	2.5e-07	6e-09
313	7.7e-06	3.08e-05	8.54e-07	4.2e-08
313	8e-06	2e-06	1.06e-07	1.3e-08
313	8e-06	1.19e-05	3.26e-07	5e-09
313	8.3e-06	3.31e-05	9.14e-07	4.1e-08
313	8.9e-06	6e-06	2.88e-07	1e-08
313	8.9e-06	1.34e-05	3.6e-07	5e-09
313	8.9e-06	3.54e-05	9.61e-07	4.4e-08
313	9.4e-06	3.78e-05	1.007e-06	4.4e-08
313	9.6e-06	2.4e-06	1.2e-07	1.7e-08
313	9.9e-06	1.49e-05	3.86e-07	5e-09
313	1e-05	4.01e-05	1.059e-06	4.8e-08
313	1.04e-05	7e-06	3.18e-07	2e-09
313	1.06e-05	4.24e-05	1.091e-06	4.5e-08
313	1.09e-05	1.64e-05	4.12e-07	1.7e-08
313	1.11e-05	2.8e-06	1.34e-07	1.9e-08
313	1.12e-05	4.47e-05	1.186e-06	5.9e-08
313	1.18e-05	4.7e-05	1.236e-06	6.1e-08
313	1.19e-05	8e-06	3.54e-07	3e-09
313	1.19e-05	1.78e-05	4.47e-07	1.9e-08
313	1.23e-05	4.94e-05	1.27e-06	5.8e-08
313	1.27e-05	3.2e-06	1.49e-07	2.1e-08
313	1.29e-05	1.93e-05	4.76e-07	1.9e-08
313	1.29e-05	5.17e-05	1.315e-06	6.1e-08
313	1.34e-05	8.9e-06	3.83e-07	4e-09
313	1.35e-05	5.39e-05	1.355e-06	6.1e-08
313	1.38e-05	2.08e-05	5.02e-07	2.5e-08
313	1.41e-05	5.62e-05	1.371e-06	5.5e-08
313	1.43e-05	3.6e-06	1.6e-07	2.4e-08
313	1.46e-05	5.86e-05	1.434e-06	5.5e-08
313	1.48e-05	2.22e-05	5.39e-07	2.6e-08
313	1.49e-05	9.9e-06	4.15e-07	3e-09
313	1.52e-05	6.08e-05	1.487e-06	6.1e-08
313	1.58e-05	2.37e-05	5.66e-07	2.2e-08
313	1.58e-05	6.31e-05	1.535e-06	7.3e-08
313	1.59e-05	4e-06	1.75e-07	2.5e-08
313	1.63e-05	1.09e-05	4.43e-07	4e-09
313	1.63e-05	6.54e-05	1.567e-06	1e-07
313	1.68e-05	2.51e-05	5.94e-07	2.4e-08
313	1.74e-05	4.4e-06	1.96e-07	2.9e-08
313	1.77e-05	2.66e-05	6.17e-07	2.2e-08
313	1.78e-05	1.19e-05	4.83e-07	3e-09
313	1.87e-05	2.81e-05	7.06e-07	2.2e-08
313	1.9e-05	4.8e-06	2.08e-07	3.2e-08
313	1.93e-05	1.29e-05	5.07e-07	3e-09
313	1.97e-05	2.95e-05	7.35e-07	3e-08
313	2.06e-05	5.2e-06	2.22e-07	3.4e-08
313	2.06e-05	3.1e-05	7.68e-07	2.4e-08
313	2.08e-05	1.38e-05	5.45e-07	4e-09
313	2.16e-05	3.24e-05	7.98e-07	3e-08
313	2.22e-05	5.5e-06	2.42e-07	3.4e-08
313	2.22e-05	1.48e-05	5.76e-07	3e-09
313	2.26e-05	3.38e-05	8.28e-07	3e-08
313	2.35e-05	3.53e-05	8.6e-07	1.3e-08
313	2.37e-05	1.58e-05	6.14e-07	6e-09
313	2.38e-05	5.9e-06	2.57e-07	3.4e-08
313	2.45e-05	3.67e-05	8.94e-07	3.2e-08
313	2.51e-05	1.68e-05	6.5e-07	1.6e-08
313	2.54e-05	6.3e-06	2.78e-07	3.3e-08
313	2.54e-05	3.82e-05	9.4e-07	4.5e-08
313	2.66e-05	1.77e-05	6.81e-07	7e-09
313	2.69e-05	6.7e-06	2.86e-07	3.2e-08
313	2.81e-05	1.87e-05	7.08e-07	9e-09
313	2.85e-05	7.1e-06	3.06e-07	6e-09
313	2.95e-05	1.97e-05	8.11e-07	2.2e-08
313	3e-05	7.5e-06	3.2e-07	1.8e-08
313	3.1e-05	2.06e-05	8.4e-07	2.2e-08
313	3.16e-05	7.9e-06	3.38e-07	2e-08
313	3.24e-05	2.16e-05	8.7e-07	2.3e-08
313	3.31e-05	8.3e-06	3.51e-07	1.7e-08
313	3.38e-05	2.26e-05	8.98e-07	2.4e-08
313	3.47e-05	8.7e-06	3.76e-07	1.6e-08
313	3.62e-05	9.1e-06	3.86e-07	2e-08

System: sodium salicylate + water + N1,N5-dihexadecyl-N1,N1,N5,N5-tetramethylpentane-1,5-diaminium bromide; phases: Liquid
Fixed: Pressure, kPa = 101
Property: Electrical conductivity, S/m (Liquid); method: Dip Cell
Temperature, K	Amount concentration (molarity), mol/dm3 of sodium salicylate	Amount concentration (molarity), mol/dm3 of N1,N5-dihexadecyl-N1,N1,N5,N5-tetramethylpentane-1,5-diaminium bromide	Electrical conductivity, S/m	uncertainty
298	2e-07	0	1e-08	1e-09
298	3e-07	1e-07	1.8e-08	1e-09
298	3e-07	2e-07	1.2e-08	1e-09
298	5e-07	1e-07	2.4e-08	2e-09
298	5e-07	8e-07	1.6e-08	1e-09
298	5e-07	2.2e-06	4.4e-08	1e-09
298	6e-07	2e-07	3.1e-08	1e-09
298	6e-07	4e-07	2.4e-08	2e-09
298	8e-07	2e-07	3.8e-08	2e-09
298	9e-07	6e-07	2.9e-08	1e-09
298	1e-06	2e-07	4.2e-08	2e-09
298	1.1e-06	3e-07	4.4e-08	2e-09
298	1.1e-06	1.6e-06	3.4e-08	4e-09
298	1.1e-06	4.2e-06	7.4e-08	3e-09
298	1.2e-06	8e-07	3.8e-08	2e-09
298	1.3e-06	3e-07	4.7e-08	1e-09
298	1.4e-06	4e-07	5e-08	1e-09
298	1.5e-06	1e-06	4.9e-08	2e-09
298	1.6e-06	4e-07	5.3e-08	1e-09
298	1.6e-06	2.4e-06	4.8e-08	5e-09
298	1.6e-06	6.4e-06	1.09e-07	4e-09
298	1.8e-06	4e-07	5.6e-08	1e-09
298	1.8e-06	1.2e-06	5.8e-08	2e-09
298	1.9e-06	5e-07	6e-08	1e-09
298	2.1e-06	5e-07	6.2e-08	2e-09
298	2.1e-06	1.4e-06	6.4e-08	3e-09
298	2.1e-06	3.2e-06	6.3e-08	9e-09
298	2.1e-06	8.5e-06	1.45e-07	4e-09
298	2.2e-06	6e-07	6.5e-08	2e-09
298	2.4e-06	1.6e-06	7e-08	3e-09
298	2.6e-06	4e-06	8.2e-08	1e-08
298	2.6e-06	1.06e-05	1.75e-07	5e-09
298	2.7e-06	1.8e-06	7.6e-08	3e-09
298	3e-06	2e-06	7.9e-08	5e-09
298	3.2e-06	4.8e-06	9.6e-08	1.1e-08
298	3.2e-06	1.27e-05	2.01e-07	7e-09
298	3.3e-06	2.2e-06	8.4e-08	5e-09
298	3.6e-06	2.4e-06	8.9e-08	6e-09
298	3.7e-06	5.6e-06	1.09e-07	1.2e-08
298	3.7e-06	1.48e-05	2.23e-07	1e-08
298	3.9e-06	2.6e-06	9.7e-08	7e-09
298	4.2e-06	2.8e-06	1.02e-07	7e-09
298	4.2e-06	6.4e-06	1.27e-07	1.3e-08
298	4.2e-06	1.69e-05	2.52e-07	1e-08
298	4.5e-06	3e-06	1.08e-07	8e-09
298	4.7e-06	1.9e-05	2.77e-07	1.1e-08
298	4.8e-06	3.2e-06	1.3e-07	5e-09
298	4.8e-06	7.1e-06	1.43e-07	1.4e-08
298	5.1e-06	3.4e-06	1.4e-07	6e-09
298	5.3e-06	7.9e-06	1.58e-07	1.1e-08
298	5.3e-06	2.1e-05	3.03e-07	1.3e-08
298	5.4e-06	3.6e-06	1.52e-07	2e-09
298	5.7e-06	3.8e-06	1.6e-07	3e-09
298	5.8e-06	8.8e-06	1.72e-07	1.3e-08
298	5.8e-06	2.31e-05	3.31e-07	1.3e-08
298	6e-06	4e-06	1.66e-07	4e-09
298	6.2e-06	4.2e-06	1.7e-07	4e-09
298	6.3e-06	2.52e-05	3.56e-07	1.3e-08
298	6.4e-06	9.5e-06	1.85e-07	1.1e-08
298	6.5e-06	4.4e-06	1.84e-07	2e-09
298	6.8e-06	2.73e-05	3.91e-07	1.3e-08
298	6.9e-06	1.03e-05	1.98e-07	1.5e-08
298	7.3e-06	2.93e-05	4.15e-07	1.1e-08
298	7.4e-06	1.11e-05	2.1e-07	1.4e-08
298	7.8e-06	3.14e-05	4.38e-07	1.4e-08
298	7.9e-06	1.19e-05	2.25e-07	2e-08
298	8.4e-06	1.27e-05	2.4e-07	1.8e-08
298	8.4e-06	3.34e-05	4.56e-07	1.5e-08
298	8.9e-06	3.54e-05	4.85e-07	1.7e-08
298	9e-06	1.34e-05	2.54e-07	2e-08
298	9.4e-06	3.75e-05	5.04e-07	1.7e-08
298	9.5e-06	1.42e-05	2.68e-07	2e-08
298	9.9e-06	3.95e-05	5.32e-07	1.6e-08
298	1e-05	1.5e-05	2.76e-07	2.3e-08
298	1.04e-05	4.15e-05	5.64e-07	1.8e-08
298	1.05e-05	1.58e-05	2.86e-07	2.6e-08
298	1.09e-05	4.36e-05	5.87e-07	2e-08
298	1.1e-05	1.66e-05	2.97e-07	2.7e-08
298	1.14e-05	4.56e-05	6.16e-07	2.1e-08
298	1.16e-05	1.73e-05	3.08e-07	2.8e-08
303	3e-07	1e-07	1.3e-08	1e-09
303	5e-07	3e-07	1.3e-08	1e-09
303	6e-07	2e-07	2.4e-08	1e-09
303	7e-07	1e-06	3.2e-08	1e-09
303	7e-07	2.6e-06	5.2e-08	1e-09
303	9e-07	6e-07	3.3e-08	2e-09
303	1e-06	2e-07	3.3e-08	1e-09
303	1.3e-06	3e-07	4.5e-08	1e-09
303	1.3e-06	9e-07	5.1e-08	4e-09
303	1.3e-06	2e-06	7.5e-08	1e-09
303	1.3e-06	5.3e-06	1.08e-07	4e-09
303	1.6e-06	4e-07	5.5e-08	2e-09
303	1.8e-06	1.2e-06	7e-08	4e-09
303	1.9e-06	5e-07	6.5e-08	2e-09
303	2e-06	3e-06	1.15e-07	3e-09
303	2e-06	8e-06	1.56e-07	6e-09
303	2.2e-06	6e-07	7.5e-08	2e-09
303	2.2e-06	1.5e-06	7.9e-08	5e-09
303	2.6e-06	6e-07	8.1e-08	2e-09
303	2.6e-06	4e-06	1.39e-07	3e-09
303	2.6e-06	1.06e-05	2e-07	8e-09
303	2.7e-06	1.8e-06	9.2e-08	6e-09
303	2.9e-06	7e-07	8.6e-08	1e-09
303	3.1e-06	2.1e-06	1.05e-07	6e-09
303	3.2e-06	8e-07	9.4e-08	6e-09
303	3.3e-06	5e-06	1.63e-07	3e-09
303	3.3e-06	1.32e-05	2.45e-07	1e-08
303	3.5e-06	9e-07	1e-07	6e-09
303	3.6e-06	2.4e-06	1.17e-07	6e-09
303	3.8e-06	1e-06	1.06e-07	1.9e-08
303	4e-06	2.7e-06	1.35e-07	6e-09
303	4e-06	6e-06	1.9e-07	3e-09
303	4e-06	1.58e-05	2.88e-07	1.3e-08
303	4.2e-06	1e-06	1.11e-07	7e-09
303	4.5e-06	1.1e-06	1.19e-07	2.7e-08
303	4.5e-06	3e-06	1.46e-07	7e-09
303	4.6e-06	7e-06	2.18e-07	4e-09
303	4.6e-06	1.85e-05	3.25e-07	1.4e-08
303	4.8e-06	1.2e-06	1.25e-07	1.1e-08
303	4.9e-06	3.3e-06	1.6e-07	5e-09
303	5.1e-06	1.3e-06	1.31e-07	5e-09
303	5.3e-06	7.9e-06	2.33e-07	5e-09
303	5.3e-06	2.1e-05	3.68e-07	1.7e-08
303	5.4e-06	1.4e-06	1.36e-07	5e-09
303	5.6e-06	3.7e-06	1.71e-07	4e-09
303	5.8e-06	1.4e-06	1.41e-07	4e-09
303	5.8e-06	3.9e-06	1.8e-07	4e-09
303	5.9e-06	2.37e-05	4.04e-07	1.8e-08
303	6e-06	8.9e-06	2.52e-07	5e-09
303	6.1e-06	1.5e-06	1.45e-07	4e-09
303	6.2e-06	4.2e-06	1.91e-07	5e-09
303	6.4e-06	1.6e-06	1.5e-07	5e-09
303	6.6e-06	9.9e-06	2.8e-07	5e-09
303	6.6e-06	2.62e-05	4.35e-07	1.9e-08
303	6.7e-06	1.7e-06	1.55e-07	3e-09
303	6.7e-06	4.5e-06	2.01e-07	5e-09
303	7e-06	1.8e-06	1.6e-07	3e-09
303	7.1e-06	4.8e-06	2.42e-07	6e-09
303	7.2e-06	2.88e-05	4.64e-07	2.1e-08
303	7.3e-06	1.09e-05	2.96e-07	3e-09
303	7.4e-06	1.8e-06	1.66e-07	1e-09
303	7.6e-06	5.1e-06	2.68e-07	7e-09
303	7.7e-06	1.9e-06	1.72e-07	1e-09
303	7.8e-06	3.14e-05	5.06e-07	2.2e-08
303	7.9e-06	1.19e-05	3.23e-07	6e-09
303	8e-06	2e-06	1.78e-07	2e-09
303	8e-06	5.4e-06	2.75e-07	5e-09
303	8.5e-06	5.6e-06	2.84e-07	7e-09
303	8.5e-06	3.39e-05	5.38e-07	2.5e-08
303	8.6e-06	1.28e-05	3.35e-07	8e-09
303	8.9e-06	6e-06	2.95e-07	4e-09
303	9.1e-06	3.65e-05	5.53e-07	2.7e-08
303	9.2e-06	1.39e-05	3.61e-07	7e-09
303	9.4e-06	6.2e-06	3.06e-07	4e-09
303	9.8e-06	3.9e-05	6.05e-07	2.5e-08
303	9.9e-06	1.48e-05	3.91e-07	5e-09
303	1.04e-05	4.15e-05	6.55e-07	2.7e-08
303	1.05e-05	1.58e-05	4.16e-07	8e-09
303	1.1e-05	4.41e-05	6.83e-07	3e-08
303	1.12e-05	1.67e-05	4.36e-07	9e-09
303	1.16e-05	4.66e-05	7.29e-07	2.7e-08
303	1.18e-05	1.78e-05	4.56e-07	7e-09
303	1.23e-05	4.91e-05	7.67e-07	3.2e-08
303	1.25e-05	1.87e-05	4.8e-07	1.1e-08
303	1.29e-05	5.16e-05	8.07e-07	3.3e-08
303	1.31e-05	1.97e-05	4.97e-07	1e-08
303	1.35e-05	5.41e-05	8.27e-07	3.6e-08
303	1.38e-05	2.06e-05	5.16e-07	1e-08
303	1.41e-05	5.66e-05	8.63e-07	3.6e-08
308	2e-07	1e-07	1e-08	1e-09
308	4e-07	1e-07	2.1e-08	1e-09
308	5e-07	3e-07	3.1e-08	1e-09
308	6e-07	2e-07	3.2e-08	1e-09
308	7e-07	2.6e-06	7.1e-08	1e-09
308	8e-07	2e-07	4.2e-08	1e-09
308	8e-07	1.2e-06	3e-08	1e-09
308	9e-07	6e-07	5e-08	1e-09
308	1e-06	2e-07	4.9e-08	1e-09
308	1.2e-06	3e-07	5.4e-08	1e-09
308	1.3e-06	9e-07	8.1e-08	1e-09
308	1.3e-06	5.3e-06	1.31e-07	2e-09
308	1.4e-06	3e-07	6.1e-08	1e-09
308	1.6e-06	4e-07	6.9e-08	1e-09
308	1.6e-06	2.4e-06	6.8e-08	2e-09
308	1.8e-06	4e-07	7.6e-08	1e-09
308	1.8e-06	1.2e-06	1.02e-07	1e-09
308	2e-06	5e-07	7.9e-08	1e-09
308	2e-06	8e-06	1.92e-07	2e-09
308	2.2e-06	5e-07	8.6e-08	1e-09
308	2.2e-06	1.5e-06	1.16e-07	1e-09
308	2.4e-06	3.6e-06	9.9e-08	3e-09
308	2.6e-06	1.06e-05	2.52e-07	3e-09
308	2.7e-06	1.8e-06	1.31e-07	1e-09
308	3.1e-06	2.1e-06	1.42e-07	1e-09
308	3.2e-06	4.8e-06	1.29e-07	3e-09
308	3.3e-06	1.32e-05	3.08e-07	3e-09
308	3.6e-06	2.4e-06	1.53e-07	3e-09
308	4e-06	2.7e-06	1.63e-07	2e-09
308	4e-06	6e-06	1.57e-07	4e-09
308	4e-06	1.58e-05	3.62e-07	5e-09
308	4.5e-06	3e-06	1.74e-07	3e-09
308	4.6e-06	1.85e-05	4.13e-07	6e-09
308	4.8e-06	7.1e-06	1.83e-07	4e-09
308	4.9e-06	3.3e-06	1.84e-07	3e-09
308	5.3e-06	2.1e-05	4.7e-07	7e-09
308	5.4e-06	3.6e-06	1.93e-07	4e-09
308	5.6e-06	8.3e-06	2.06e-07	3e-09
308	5.8e-06	3.9e-06	2.02e-07	2e-09
308	5.9e-06	2.37e-05	5.21e-07	9e-09
308	6.2e-06	4.2e-06	2.2e-07	3e-09
308	6.4e-06	9.5e-06	2.31e-07	3e-09
308	6.6e-06	2.62e-05	5.69e-07	1.1e-08
308	6.7e-06	4.5e-06	2.42e-07	3e-09
308	7.1e-06	4.8e-06	2.56e-07	2e-09
308	7.1e-06	1.07e-05	2.51e-07	3e-09
308	7.2e-06	2.88e-05	6.13e-07	1.4e-08
308	7.6e-06	5.1e-06	2.69e-07	3e-09
308	7.8e-06	3.14e-05	6.56e-07	1.6e-08
308	7.9e-06	1.19e-05	2.78e-07	3e-09
308	8e-06	5.4e-06	2.81e-07	4e-09
308	8.5e-06	5.6e-06	3e-07	3e-09
308	8.5e-06	3.39e-05	7.02e-07	1.6e-08
308	8.7e-06	1.31e-05	3.08e-07	2e-09
308	8.9e-06	6e-06	3.12e-07	4e-09
308	9.1e-06	3.65e-05	7.44e-07	1.9e-08
308	9.4e-06	6.2e-06	3.25e-07	3e-09
308	9.5e-06	1.42e-05	3.34e-07	3e-09
308	9.8e-06	6.6e-06	3.35e-07	6e-09
308	9.8e-06	3.9e-05	7.81e-07	2e-08
308	1.03e-05	6.8e-06	3.49e-07	7e-09
308	1.03e-05	1.54e-05	3.58e-07	5e-09
308	1.04e-05	4.15e-05	8.28e-07	1.9e-08
308	1.07e-05	7.1e-06	3.6e-07	1.2e-08
308	1.1e-05	1.66e-05	3.84e-07	5e-09
308	1.1e-05	4.41e-05	8.67e-07	2.1e-08
308	1.17e-05	4.66e-05	9.2e-07	1.1e-08
308	1.18e-05	1.78e-05	4.06e-07	5e-09
308	1.23e-05	4.91e-05	9.28e-07	2.1e-08
308	1.26e-05	1.89e-05	4.32e-07	5e-09
308	1.29e-05	5.16e-05	9.7e-07	2.1e-08
308	1.34e-05	2e-05	4.56e-07	4e-09
308	1.35e-05	5.41e-05	1.011e-06	2.3e-08
308	1.41e-05	5.66e-05	1.04e-06	2.3e-08
308	1.42e-05	2.12e-05	4.85e-07	5e-09
308	1.49e-05	2.24e-05	5.06e-07	5e-09
308	1.57e-05	2.35e-05	5.37e-07	5e-09
308	1.64e-05	2.47e-05	5.59e-07	6e-09
308	1.72e-05	2.59e-05	5.7e-07	1e-08
308	1.8e-05	2.7e-05	6.01e-07	1.1e-08
308	1.88e-05	2.81e-05	6.21e-07	1e-08
308	1.95e-05	2.93e-05	6.38e-07	9e-09
313	6e-07	2e-07	2.3e-08	2e-09
313	7e-07	5e-07	2.9e-08	1e-09
313	7e-07	1e-06	2.4e-08	2e-09
313	7e-07	2.6e-06	5.7e-08	3e-09
313	1.2e-06	3e-07	4.7e-08	2e-09
313	1.3e-06	2e-06	5.1e-08	3e-09
313	1.3e-06	5.3e-06	1.27e-07	1e-09
313	1.5e-06	1e-06	6.4e-08	6e-09
313	1.8e-06	4e-07	6e-08	3e-09
313	2e-06	3e-06	8.2e-08	2e-09
313	2e-06	8e-06	1.78e-07	3e-09
313	2.2e-06	1.5e-06	8.6e-08	6e-09
313	2.4e-06	6e-07	7.5e-08	3e-09
313	2.6e-06	4e-06	1.06e-07	3e-09
313	2.6e-06	1.06e-05	2.27e-07	5e-09
313	3e-06	7e-07	8.7e-08	5e-09
313	3e-06	2e-06	1.14e-07	5e-09
313	3.3e-06	5e-06	1.3e-07	2e-09
313	3.3e-06	1.32e-05	2.74e-07	7e-09
313	3.6e-06	9e-07	9.8e-08	2e-09
313	3.7e-06	2.5e-06	1.47e-07	3e-09
313	4e-06	6e-06	1.54e-07	5e-09
313	4e-06	1.58e-05	3.36e-07	6e-09
313	4.2e-06	1e-06	1.08e-07	1e-09
313	4.5e-06	3e-06	1.71e-07	1e-09
313	4.6e-06	7e-06	1.81e-07	4e-09
313	4.6e-06	1.85e-05	3.76e-07	8e-09
313	4.8e-06	1.2e-06	1.18e-07	1e-09
313	5.2e-06	3.5e-06	1.92e-07	5e-09
313	5.3e-06	7.9e-06	2.03e-07	1e-08
313	5.3e-06	2.1e-05	4.37e-07	7e-09
313	5.4e-06	1.3e-06	1.37e-07	1e-09
313	5.9e-06	2.37e-05	4.87e-07	7e-09
313	6e-06	1.5e-06	1.49e-07	1e-09
313	6e-06	4e-06	2.07e-07	4e-09
313	6e-06	8.9e-06	2.23e-07	5e-09
313	6.6e-06	1.6e-06	1.67e-07	3e-09
313	6.6e-06	9.9e-06	2.51e-07	6e-09
313	6.6e-06	2.62e-05	5.45e-07	5e-09
313	6.7e-06	4.5e-06	2.22e-07	7e-09
313	7.2e-06	1.8e-06	1.79e-07	6e-09
313	7.2e-06	2.88e-05	6.05e-07	4e-09
313	7.3e-06	1.09e-05	2.67e-07	8e-09
313	7.4e-06	5e-06	2.34e-07	1e-08
313	7.8e-06	1.9e-06	1.9e-07	7e-09
313	7.8e-06	3.14e-05	6.6e-07	4e-09
313	7.9e-06	1.19e-05	3e-07	9e-09
313	8.2e-06	5.5e-06	2.49e-07	1e-08
313	8.3e-06	2.1e-06	1.98e-07	7e-09
313	8.5e-06	3.39e-05	6.98e-07	4e-09
313	8.6e-06	1.28e-05	3.24e-07	1.1e-08
313	8.9e-06	6e-06	2.63e-07	1.1e-08
313	9e-06	2.2e-06	2.1e-07	1e-08
313	9.1e-06	3.65e-05	7.4e-07	4e-09
313	9.2e-06	1.39e-05	3.37e-07	6e-09
313	9.5e-06	2.4e-06	2.19e-07	1.1e-08
313	9.7e-06	6.4e-06	2.76e-07	1.3e-08
313	9.8e-06	3.9e-05	8.01e-07	6e-09
313	9.9e-06	1.48e-05	3.51e-07	7e-09
313	1.02e-05	2.5e-06	2.35e-07	1.2e-08
313	1.04e-05	6.9e-06	2.93e-07	1.3e-08
313	1.04e-05	4.15e-05	8.43e-07	5e-09
313	1.05e-05	1.58e-05	3.67e-07	1e-08
313	1.07e-05	2.7e-06	2.48e-07	1.2e-08
313	1.1e-05	4.41e-05	8.91e-07	7e-09
313	1.12e-05	7.4e-06	3.08e-07	1.4e-08
313	1.12e-05	1.67e-05	3.95e-07	8e-09
313	1.13e-05	2.8e-06	2.56e-07	1.2e-08
313	1.17e-05	4.66e-05	9.38e-07	6e-09
313	1.18e-05	1.78e-05	4.15e-07	9e-09
313	1.19e-05	3e-06	2.67e-07	1.3e-08
313	1.19e-05	7.9e-06	3.2e-07	1.4e-08
313	1.23e-05	4.91e-05	9.7e-07	1e-08
313	1.25e-05	3.1e-06	2.75e-07	1.4e-08
313	1.25e-05	1.87e-05	4.4e-07	1.1e-08
313	1.26e-05	8.4e-06	3.33e-07	1.2e-08
313	1.29e-05	5.16e-05	1.006e-06	9e-09
313	1.31e-05	3.3e-06	2.87e-07	1.4e-08
313	1.31e-05	1.97e-05	4.63e-07	7e-09
313	1.34e-05	8.9e-06	3.44e-07	8e-09
313	1.35e-05	5.41e-05	1.052e-06	9e-09
313	1.37e-05	3.4e-06	2.95e-07	1.4e-08
313	1.38e-05	2.06e-05	4.89e-07	7e-09
313	1.41e-05	9.4e-06	3.55e-07	1.7e-08
313	1.41e-05	5.66e-05	1.088e-06	1.1e-08
313	1.42e-05	3.6e-06	3.04e-07	1.4e-08
313	1.44e-05	2.16e-05	5.04e-07	7e-09
313	1.48e-05	9.9e-06	3.69e-07	5e-09
313	1.49e-05	3.7e-06	3.14e-07	5e-09
313	1.5e-05	2.26e-05	5.34e-07	9e-09
313	1.54e-05	3.9e-06	3.23e-07	6e-09
313	1.55e-05	1.04e-05	3.82e-07	2e-09
313	1.57e-05	2.35e-05	5.6e-07	6e-09
313	1.61e-05	4e-06	3.31e-07	6e-09
313	1.63e-05	1.08e-05	3.96e-07	3e-09
313	1.63e-05	2.45e-05	5.83e-07	7e-09
313	1.7e-05	1.13e-05	4.1e-07	5e-09
313	1.7e-05	2.54e-05	6.07e-07	1e-08
313	1.76e-05	2.64e-05	6.36e-07	1e-08
313	1.78e-05	1.18e-05	4.22e-07	2e-09
313	1.85e-05	1.23e-05	4.36e-07	3e-09
313	1.92e-05	1.28e-05	4.47e-07	3e-09
313	1.99e-05	1.33e-05	4.63e-07	3e-09

System: sodium benzoate + water + N1,N5-dihexadecyl-N1,N1,N5,N5-tetramethylpentane-1,5-diaminium bromide; phases: Liquid
Fixed: Pressure, kPa = 101
Property: Electrical conductivity, S/m (Liquid); method: Dip Cell
Temperature, K	Amount concentration (molarity), mol/dm3 of sodium benzoate	Amount concentration (molarity), mol/dm3 of N1,N5-dihexadecyl-N1,N1,N5,N5-tetramethylpentane-1,5-diaminium bromide	Electrical conductivity, S/m	uncertainty
298	8e-07	2e-07	2.2e-08	1e-09
298	8e-07	3.4e-06	4.8e-08	1e-09
298	1e-06	1.5e-06	3.6e-08	1e-09
298	1.5e-06	1e-06	4.3e-08	1e-09
298	1.6e-06	4e-07	4.1e-08	1e-09
298	1.7e-06	6.6e-06	1.15e-07	7e-09
298	2e-06	3e-06	7.4e-08	5e-09
298	2.2e-06	1.5e-06	6e-08	1e-09
298	2.4e-06	6e-07	5.4e-08	1e-09
298	2.5e-06	1e-05	1.71e-07	1.2e-08
298	3e-06	2e-06	8.2e-08	1e-09
298	3e-06	4.5e-06	1.08e-07	1e-09
298	3.2e-06	8e-07	6.8e-08	1e-09
298	3.3e-06	1.33e-05	2.25e-07	1.1e-08
298	3.7e-06	2.5e-06	9.4e-08	1e-09
298	4e-06	1e-06	7.9e-08	1e-09
298	4e-06	6e-06	1.37e-07	5e-09
298	4.1e-06	1.66e-05	2.74e-07	1.2e-08
298	4.5e-06	3e-06	1.09e-07	1e-09
298	4.8e-06	1.2e-06	8.7e-08	1e-09
298	5e-06	7.5e-06	1.77e-07	5e-09
298	5e-06	1.99e-05	3.32e-07	1.3e-08
298	5.2e-06	3.5e-06	1.21e-07	2e-09
298	5.6e-06	1.4e-06	9.7e-08	3e-09
298	5.8e-06	2.32e-05	3.75e-07	1.4e-08
298	6e-06	4e-06	1.36e-07	2e-09
298	6e-06	9e-06	2.02e-07	6e-09
298	6.4e-06	1.6e-06	1.04e-07	5e-09
298	6.6e-06	2.65e-05	4.24e-07	1.3e-08
298	6.7e-06	4.5e-06	1.53e-07	2e-09
298	7e-06	1.04e-05	2.26e-07	5e-09
298	7.2e-06	1.8e-06	1.08e-07	6e-09
298	7.4e-06	2.98e-05	4.69e-07	1.4e-08
298	7.5e-06	5e-06	1.67e-07	1e-09
298	8e-06	2e-06	1.14e-07	9e-09
298	8e-06	1.19e-05	2.5e-07	6e-09
298	8.2e-06	5.5e-06	1.8e-07	3e-09
298	8.3e-06	3.3e-05	5.14e-07	1.6e-08
298	8.8e-06	2.2e-06	1.19e-07	1.1e-08
298	9e-06	6e-06	1.93e-07	4e-09
298	9e-06	1.34e-05	2.84e-07	6e-09
298	9.1e-06	3.63e-05	5.49e-07	1.8e-08
298	9.6e-06	2.4e-06	1.26e-07	1.2e-08
298	9.7e-06	6.5e-06	2.06e-07	5e-09
298	9.9e-06	3.96e-05	5.9e-07	1.8e-08
298	1e-05	1.49e-05	3.08e-07	9e-09
298	1.04e-05	2.6e-06	1.32e-07	1.4e-08
298	1.04e-05	7e-06	2.2e-07	3e-09
298	1.07e-05	4.29e-05	6.29e-07	2e-08
298	1.1e-05	1.64e-05	3.31e-07	1.2e-08
298	1.12e-05	2.8e-06	1.37e-07	1.5e-08
298	1.12e-05	7.5e-06	2.29e-07	5e-09
298	1.15e-05	4.62e-05	6.69e-07	1.8e-08
298	1.19e-05	8e-06	2.45e-07	4e-09
298	1.19e-05	1.79e-05	3.62e-07	1e-08
298	1.2e-05	3e-06	1.42e-07	1.8e-08
298	1.23e-05	4.94e-05	6.98e-07	2e-08
298	1.27e-05	3.2e-06	1.46e-07	1.9e-08
298	1.27e-05	8.4e-06	2.57e-07	4e-09
298	1.29e-05	1.94e-05	3.92e-07	1.1e-08
298	1.32e-05	5.26e-05	7.42e-07	2e-08
298	1.34e-05	9e-06	2.69e-07	7e-09
298	1.35e-05	3.4e-06	1.53e-07	2.1e-08
298	1.39e-05	2.09e-05	4.17e-07	1e-08
298	1.4e-05	5.58e-05	7.62e-07	1.9e-08
298	1.42e-05	9.4e-06	2.81e-07	1e-08
298	1.43e-05	3.6e-06	1.58e-07	2.2e-08
298	1.48e-05	5.91e-05	8e-07	2.3e-08
298	1.49e-05	1e-05	2.98e-07	1e-08
298	1.49e-05	2.23e-05	4.5e-07	1.1e-08
298	1.51e-05	3.8e-06	1.63e-07	2.3e-08
298	1.56e-05	6.23e-05	8.4e-07	2.3e-08
298	1.57e-05	1.04e-05	3.18e-07	5e-09
298	1.59e-05	2.38e-05	4.82e-07	1.1e-08
298	1.64e-05	6.56e-05	8.8e-07	2.1e-08
298	1.68e-05	2.53e-05	5.22e-07	1.2e-08
298	1.72e-05	6.88e-05	9.05e-07	2.2e-08
298	1.78e-05	2.68e-05	5.42e-07	9e-09
298	1.8e-05	7.2e-05	9.35e-07	2.4e-08
298	1.88e-05	2.83e-05	5.68e-07	1e-08
298	1.98e-05	2.97e-05	5.87e-07	1e-08
298	2.08e-05	3.12e-05	6.15e-07	1.2e-08
298	2.18e-05	3.26e-05	6.3e-07	1.2e-08
303	8e-07	2e-07	2.2e-08	1e-09
303	1.6e-06	4e-07	3.7e-08	1e-09
303	1.7e-06	6.6e-06	1.51e-07	9e-09
303	2e-06	3e-06	9.3e-08	3e-09
303	2.2e-06	1.5e-06	5.8e-08	1e-09
303	2.4e-06	6e-07	4.9e-08	1e-09
303	3.2e-06	8e-07	6.6e-08	2e-09
303	3.3e-06	1.33e-05	2.82e-07	2e-09
303	3.4e-06	2.2e-06	8.2e-08	1e-09
303	4e-06	1e-06	8.4e-08	2e-09
303	4e-06	6e-06	1.64e-07	1e-08
303	4.5e-06	3e-06	1.08e-07	1e-09
303	4.8e-06	1.2e-06	9.4e-08	1e-09
303	5e-06	1.99e-05	3.97e-07	3e-09
303	5.6e-06	1.4e-06	1.13e-07	3e-09
303	5.6e-06	3.8e-06	1.37e-07	2e-09
303	6e-06	9e-06	2.26e-07	1e-08
303	6.4e-06	1.6e-06	1.27e-07	2e-09
303	6.6e-06	2.65e-05	4.87e-07	5e-09
303	6.7e-06	4.5e-06	1.56e-07	3e-09
303	7.2e-06	1.8e-06	1.37e-07	2e-09
303	7.9e-06	5.2e-06	1.77e-07	3e-09
303	8e-06	2e-06	1.58e-07	2e-09
303	8e-06	1.19e-05	2.84e-07	8e-09
303	8.3e-06	3.3e-05	5.93e-07	7e-09
303	8.8e-06	2.2e-06	1.72e-07	1e-09
303	9e-06	6e-06	2.01e-07	2e-09
303	9.6e-06	2.4e-06	1.84e-07	2e-09
303	9.9e-06	3.96e-05	6.8e-07	9e-09
303	1e-05	1.49e-05	3.5e-07	7e-09
303	1.01e-05	6.7e-06	2.18e-07	2e-09
303	1.04e-05	2.6e-06	2.01e-07	1e-09
303	1.12e-05	2.8e-06	2.14e-07	2e-09
303	1.12e-05	7.5e-06	2.37e-07	2e-09
303	1.15e-05	4.62e-05	7.55e-07	1e-08
303	1.19e-05	1.79e-05	4.11e-07	5e-09
303	1.2e-05	3e-06	2.31e-07	2e-09
303	1.23e-05	8.2e-06	2.58e-07	2e-09
303	1.27e-05	3.2e-06	2.44e-07	4e-09
303	1.32e-05	5.26e-05	8.32e-07	1.4e-08
303	1.34e-05	9e-06	2.82e-07	5e-09
303	1.35e-05	3.4e-06	2.56e-07	2e-09
303	1.39e-05	2.09e-05	4.65e-07	6e-09
303	1.43e-05	3.6e-06	2.69e-07	3e-09
303	1.46e-05	9.7e-06	3.02e-07	2e-09
303	1.48e-05	5.91e-05	9.13e-07	1.7e-08
303	1.51e-05	3.8e-06	2.78e-07	4e-09
303	1.57e-05	1.04e-05	3.18e-07	3e-09
303	1.59e-05	4e-06	2.98e-07	3e-09
303	1.59e-05	2.38e-05	5.24e-07	5e-09
303	1.64e-05	6.56e-05	9.8e-07	1.6e-08
303	1.67e-05	4.2e-06	3.13e-07	4e-09
303	1.68e-05	1.12e-05	3.4e-07	2e-09
303	1.75e-05	4.4e-06	3.29e-07	3.1e-08
303	1.78e-05	2.68e-05	5.76e-07	7e-09
303	1.79e-05	1.19e-05	3.53e-07	8e-09
303	1.8e-05	7.2e-05	1.052e-06	1.8e-08
303	1.9e-05	1.27e-05	3.85e-07	3e-09
303	1.96e-05	7.84e-05	1.114e-06	1.8e-08
303	1.98e-05	2.97e-05	6.33e-07	6e-09
303	2.01e-05	1.34e-05	4.07e-07	6e-09
303	2.12e-05	1.42e-05	4.22e-07	5e-09
303	2.12e-05	8.48e-05	1.189e-06	1.5e-08
303	2.18e-05	3.26e-05	6.88e-07	4e-09
303	2.23e-05	1.49e-05	4.41e-07	5e-09
303	2.28e-05	9.12e-05	1.24e-06	2e-08
303	2.35e-05	1.56e-05	4.61e-07	5e-09
303	2.37e-05	3.56e-05	7.39e-07	5e-09
303	2.44e-05	9.76e-05	1.317e-06	1.4e-08
303	2.57e-05	3.85e-05	7.87e-07	1.7e-08
303	2.6e-05	0.0001039	1.383e-06	1.6e-08
303	2.76e-05	4.14e-05	8.39e-07	1.7e-08
303	2.76e-05	0.0001102	1.431e-06	2.3e-08
303	2.91e-05	0.0001165	1.498e-06	2.2e-08
303	2.96e-05	4.43e-05	8.89e-07	1.9e-08
303	3.07e-05	0.0001228	1.551e-06	2.3e-08
303	3.15e-05	4.72e-05	9.41e-07	1.9e-08
303	3.23e-05	0.000129	1.623e-06	2.3e-08
303	3.34e-05	5.02e-05	9.88e-07	1.8e-08
303	3.38e-05	0.0001353	1.687e-06	2.3e-08
303	3.54e-05	5.3e-05	1.034e-06	1.9e-08
303	3.54e-05	0.0001414	1.742e-06	3e-08
303	3.73e-05	5.59e-05	1.078e-06	1.9e-08
303	3.92e-05	5.88e-05	1.112e-06	2e-08
303	4.11e-05	6.17e-05	1.163e-06	1.7e-08
303	4.3e-05	6.46e-05	1.2e-06	1.6e-08
308	2e-06	5e-07	3.6e-08	1e-09
308	3.3e-06	5e-06	3.1e-08	5e-09
308	3.3e-06	1.33e-05	2.28e-07	2e-09
308	4e-06	1e-06	5.9e-08	1e-09
308	6e-06	1.5e-06	7.8e-08	1e-09
308	6e-06	4e-06	1.16e-07	1e-09
308	6.6e-06	1e-05	1.28e-07	7e-09
308	6.6e-06	2.65e-05	4.62e-07	7e-09
308	8e-06	2e-06	9.8e-08	2e-09
308	9e-06	6e-06	1.75e-07	4e-09
308	9.9e-06	3.96e-05	6.71e-07	1.2e-08
308	1e-05	2.5e-06	1.18e-07	1e-09
308	1e-05	1.49e-05	2.46e-07	1e-08
308	1.19e-05	8e-06	2.3e-07	8e-09
308	1.2e-05	3e-06	1.49e-07	2e-09
308	1.32e-05	1.99e-05	3.5e-07	1.3e-08
308	1.32e-05	5.26e-05	8.71e-07	2e-08
308	1.39e-05	3.5e-06	1.7e-07	2e-09
308	1.49e-05	1e-05	2.95e-07	1.1e-08
308	1.59e-05	4e-06	1.89e-07	1e-09
308	1.64e-05	6.56e-05	1.031e-06	2.3e-08
308	1.65e-05	2.48e-05	4.51e-07	1.3e-08
308	1.79e-05	4.5e-06	2.1e-07	1e-09
308	1.79e-05	1.19e-05	3.45e-07	1.3e-08
308	1.96e-05	7.84e-05	1.183e-06	2.5e-08
308	1.98e-05	2.97e-05	5.44e-07	1.6e-08
308	1.99e-05	5e-06	2.25e-07	5e-09
308	2.09e-05	1.39e-05	3.94e-07	1e-08
308	2.19e-05	5.5e-06	2.43e-07	1.8e-08
308	2.28e-05	9.12e-05	1.333e-06	2.9e-08
308	2.31e-05	3.46e-05	6.31e-07	2.1e-08
308	2.38e-05	6e-06	2.61e-07	1.7e-08
308	2.38e-05	1.59e-05	4.47e-07	1.2e-08
308	2.58e-05	6.5e-06	2.81e-07	2.1e-08
308	2.6e-05	0.0001039	1.453e-06	3e-08
308	2.63e-05	3.95e-05	7.35e-07	2.2e-08
308	2.68e-05	1.78e-05	4.98e-07	2e-08
308	2.78e-05	7e-06	3.01e-07	3.8e-08
308	2.91e-05	0.0001165	1.601e-06	3.2e-08
308	2.96e-05	4.43e-05	7.95e-07	2.3e-08
308	2.97e-05	1.98e-05	5.44e-07	4.3e-08
308	2.98e-05	7.4e-06	3.22e-07	4.1e-08
308	3.18e-05	7.9e-06	3.37e-07	4.1e-08
308	3.23e-05	0.000129	1.731e-06	3.7e-08
308	3.26e-05	2.18e-05	5.99e-07	4.4e-08
308	3.28e-05	4.92e-05	8.87e-07	2.2e-08
308	3.37e-05	8.4e-06	3.56e-07	4.6e-08
308	3.54e-05	0.0001414	1.885e-06	3.8e-08
308	3.56e-05	2.37e-05	6.49e-07	4.9e-08
308	3.57e-05	8.9e-06	3.75e-07	4.6e-08
308	3.6e-05	5.4e-05	9.6e-07	2.2e-08
308	3.77e-05	9.4e-06	4.06e-07	4.7e-08
308	3.85e-05	2.57e-05	6.9e-07	4.4e-08
308	3.85e-05	0.0001538	2.011e-06	4.7e-08
308	3.92e-05	5.88e-05	1.018e-06	2.8e-08
308	3.96e-05	9.9e-06	4.25e-07	3.8e-08
308	4.14e-05	2.76e-05	7.43e-07	5.4e-08
308	4.15e-05	0.0001662	2.138e-06	2.6e-08
308	4.16e-05	1.04e-05	4.4e-07	3.9e-08
308	4.24e-05	6.36e-05	1.116e-06	3e-08
308	4.35e-05	1.09e-05	4.77e-07	4.3e-08
308	4.43e-05	2.96e-05	7.93e-07	5.1e-08
308	4.46e-05	0.0001783	2.257e-06	2.7e-08
308	4.54e-05	1.14e-05	4.95e-07	4e-08
308	4.56e-05	6.84e-05	1.191e-06	3.4e-08
308	4.72e-05	3.15e-05	8.39e-07	4.9e-08
308	4.78e-05	0.0001912	2.392e-06	3e-08
308	4.88e-05	7.32e-05	1.25e-06	7.5e-08
308	5.02e-05	3.34e-05	8.85e-07	4.5e-08
308	5.06e-05	0.0002026	2.484e-06	3.9e-08
308	5.2e-05	7.79e-05	1.346e-06	7.4e-08
308	5.3e-05	3.54e-05	9.37e-07	4.3e-08
308	5.36e-05	0.0002145	2.583e-06	3.5e-08
308	5.51e-05	8.27e-05	1.41e-06	7.5e-08
308	5.59e-05	3.73e-05	9.81e-07	4.6e-08
308	5.66e-05	0.0002264	2.72e-06	4e-08
308	5.82e-05	8.74e-05	1.488e-06	7.8e-08
308	5.88e-05	3.92e-05	1.023e-06	4.7e-08
308	5.96e-05	0.0002382	2.797e-06	5e-08
308	6.14e-05	9.21e-05	1.556e-06	7.9e-08
308	6.17e-05	4.11e-05	1.068e-06	4.7e-08
308	6.25e-05	0.00025	2.895e-06	5.3e-08
308	6.45e-05	9.68e-05	1.625e-06	8.2e-08
308	6.54e-05	0.0002617	3.056e-06	4.2e-08
308	6.74e-05	4.5e-05	1.156e-06	4.7e-08
308	6.76e-05	0.0001015	1.699e-06	8.3e-08
308	7.07e-05	0.0001061	1.758e-06	7.6e-08
308	7.38e-05	0.0001108	1.812e-06	8.9e-08
308	7.69e-05	0.0001154	1.864e-06	9.7e-08
308	8e-05	0.00012	1.959e-06	8.3e-08
308	8.31e-05	0.0001246	2.019e-06	8.3e-08
308	8.61e-05	0.0001292	2.067e-06	8.2e-08
308	8.92e-05	0.0001337	2.122e-06	8.2e-08
313	1.5e-06	4e-07	3.5e-08	2e-09
313	3e-06	7e-07	6.5e-08	2e-09
313	3.3e-06	5e-06	1.87e-07	2.4e-08
313	3.3e-06	1.33e-05	2.63e-07	7e-09
313	4.5e-06	1.1e-06	8.5e-08	4e-09
313	5e-06	3.3e-06	1.45e-07	1e-08
313	6e-06	1.5e-06	1.14e-07	7e-09
313	6.6e-06	1e-05	3.11e-07	3.2e-08
313	6.6e-06	2.65e-05	5.56e-07	1.9e-08
313	7.5e-06	1.9e-06	1.35e-07	9e-09
313	7.5e-06	5e-06	2.06e-07	8e-09
313	9e-06	2.2e-06	1.6e-07	9e-09
313	9.9e-06	3.96e-05	7.99e-07	2.6e-08
313	1e-05	6.6e-06	2.68e-07	1.3e-08
313	1e-05	1.49e-05	4.45e-07	3.5e-08
313	1.05e-05	2.6e-06	1.84e-07	1.2e-08
313	1.2e-05	3e-06	2.14e-07	1.3e-08
313	1.24e-05	8.3e-06	3.39e-07	1.9e-08
313	1.32e-05	1.99e-05	5.9e-07	4e-08
313	1.32e-05	5.26e-05	1.025e-06	3.1e-08
313	1.34e-05	3.4e-06	2.42e-07	1.6e-08
313	1.49e-05	1e-05	4.15e-07	2.4e-08
313	1.5e-05	3.7e-06	2.69e-07	2e-08
313	1.64e-05	4.1e-06	3e-07	2e-08
313	1.64e-05	6.56e-05	1.204e-06	3.5e-08
313	1.65e-05	2.48e-05	6.86e-07	4.2e-08
313	1.74e-05	1.16e-05	4.63e-07	2.6e-08
313	1.79e-05	4.5e-06	3.34e-07	2.4e-08
313	1.94e-05	4.9e-06	3.56e-07	2.8e-08
313	1.96e-05	7.84e-05	1.358e-06	3.6e-08
313	1.98e-05	2.97e-05	7.86e-07	4.2e-08
313	1.99e-05	1.32e-05	5.18e-07	2.8e-08
313	2.09e-05	5.2e-06	3.79e-07	2.8e-08
313	2.23e-05	1.49e-05	5.72e-07	2.9e-08
313	2.24e-05	5.6e-06	4.07e-07	3e-08
313	2.28e-05	9.12e-05	1.524e-06	3.9e-08
313	2.31e-05	3.46e-05	9.14e-07	4.7e-08
313	2.38e-05	6e-06	4.15e-07	3.2e-08
313	2.48e-05	1.65e-05	6.21e-07	3.1e-08
313	2.54e-05	6.3e-06	4.37e-07	3.3e-08
313	2.6e-05	0.0001039	1.669e-06	4.4e-08
313	2.63e-05	3.95e-05	1.017e-06	4.8e-08
313	2.68e-05	6.7e-06	4.6e-07	3.3e-08
313	2.72e-05	1.82e-05	6.72e-07	3.2e-08
313	2.83e-05	7.1e-06	4.98e-07	3.7e-08
313	2.91e-05	0.0001165	1.808e-06	4.3e-08
313	2.96e-05	4.43e-05	1.11e-06	4.9e-08
313	2.97e-05	1.98e-05	7.16e-07	3.5e-08
313	2.98e-05	7.4e-06	5.24e-07	4e-08
313	3.13e-05	7.8e-06	5.37e-07	4.3e-08
313	3.22e-05	2.14e-05	7.69e-07	3.6e-08
313	3.22e-05	0.000129	1.985e-06	5.2e-08
313	3.27e-05	8.2e-06	5.75e-07	4.3e-08
313	3.28e-05	4.92e-05	1.184e-06	5.3e-08
313	3.42e-05	8.6e-06	5.92e-07	4.6e-08
313	3.46e-05	2.31e-05	8.1e-07	3.7e-08
313	3.54e-05	0.0001414	2.107e-06	4.6e-08
313	3.6e-05	5.4e-05	1.29e-06	5.3e-08
313	3.7e-05	2.47e-05	8.59e-07	3.6e-08
313	3.85e-05	0.0001538	2.241e-06	4.8e-08
313	3.92e-05	5.88e-05	1.384e-06	6.2e-08
313	3.95e-05	2.63e-05	8.96e-07	3.7e-08
313	4.15e-05	0.0001662	2.257e-06	2.7e-08
313	4.19e-05	2.79e-05	9.56e-07	4.1e-08
313	4.24e-05	6.36e-05	1.476e-06	5.8e-08
313	4.43e-05	2.96e-05	9.93e-07	4e-08
313	4.46e-05	0.0001783	2.377e-06	2.7e-08
313	4.56e-05	6.84e-05	1.558e-06	5.2e-08
313	4.67e-05	3.12e-05	1.043e-06	4.3e-08
313	4.76e-05	0.0001905	2.524e-06	3.1e-08
313	4.88e-05	7.32e-05	1.641e-06	6.3e-08
313	4.92e-05	3.28e-05	1.089e-06	4.4e-08
313	5.06e-05	0.0002026	2.668e-06	4e-08
313	5.16e-05	3.44e-05	1.122e-06	4.4e-08
313	5.2e-05	7.79e-05	1.711e-06	5.6e-08
313	5.36e-05	0.0002145	2.744e-06	3.5e-08
313	5.51e-05	8.27e-05	1.776e-06	5.5e-08
313	5.64e-05	3.76e-05	1.219e-06	4.6e-08
313	5.66e-05	0.0002264	2.908e-06	4.1e-08
313	5.82e-05	8.74e-05	1.86e-06	6.1e-08
313	5.96e-05	0.0002382	3.037e-06	5.1e-08
313	6.14e-05	9.21e-05	1.937e-06	8.3e-08
313	6.25e-05	0.00025	3.149e-06	5.4e-08
313	6.45e-05	9.68e-05	2.011e-06	8.4e-08
313	6.54e-05	0.0002617	3.247e-06	4.2e-08
313	6.76e-05	0.0001015	2.084e-06	7.8e-08
313	6.83e-05	0.0002733	3.366e-06	4.2e-08
313	7.07e-05	0.0001061	2.141e-06	7.7e-08
313	7.12e-05	0.0002848	3.485e-06	4.3e-08
313	7.38e-05	0.0001108	2.252e-06	8.9e-08

System: sodium p-toluenesulfonate + water + N1,N5-dihexadecyl-N1,N1,N5,N5-tetramethylpentane-1,5-diaminium bromide; phases: Liquid
Fixed: Pressure, kPa = 101
Property: Electrical conductivity, S/m (Liquid); method: Dip Cell
Temperature, K	Amount concentration (molarity), mol/dm3 of sodium p-toluenesulfonate	Amount concentration (molarity), mol/dm3 of N1,N5-dihexadecyl-N1,N1,N5,N5-tetramethylpentane-1,5-diaminium bromide	Electrical conductivity, S/m	uncertainty
298	2e-07	1e-07	1.2e-08	2e-09
298	5e-07	1e-07	2.5e-08	3e-09
298	5e-07	3e-07	2.2e-08	2e-09
298	5e-07	2e-06	4.1e-08	1e-09
298	6e-07	9e-07	2.1e-08	3e-09
298	7e-07	2e-07	4.4e-08	5e-09
298	9e-07	6e-07	3.8e-08	3e-09
298	1e-06	2e-07	5.9e-08	5e-09
298	1e-06	4e-06	9.2e-08	4e-09
298	1.2e-06	3e-07	7.4e-08	5e-09
298	1.2e-06	1.8e-06	4.2e-08	8e-09
298	1.3e-06	9e-07	5.9e-08	2e-09
298	1.4e-06	4e-07	8.7e-08	6e-09
298	1.5e-06	6e-06	1.28e-07	4e-09
298	1.7e-06	4e-07	9.6e-08	7e-09
298	1.8e-06	1.2e-06	8.7e-08	7e-09
298	1.8e-06	2.7e-06	7e-08	1e-08
298	1.9e-06	5e-07	1.01e-07	6e-09
298	2e-06	8e-06	1.56e-07	3e-09
298	2.2e-06	5e-07	1.07e-07	6e-09
298	2.2e-06	1.5e-06	1.1e-07	7e-09
298	2.4e-06	6e-07	1.12e-07	7e-09
298	2.4e-06	3.6e-06	9.4e-08	1.1e-08
298	2.5e-06	9.9e-06	1.93e-07	4e-09
298	2.6e-06	7e-07	1.25e-07	6e-09
298	2.7e-06	1.8e-06	1.23e-07	8e-09
298	2.9e-06	7e-07	1.31e-07	7e-09
298	3e-06	4.5e-06	1.12e-07	1e-08
298	3e-06	1.19e-05	2.16e-07	2e-09
298	3.1e-06	8e-07	1.4e-07	7e-09
298	3.1e-06	2.1e-06	1.39e-07	9e-09
298	3.4e-06	8e-07	1.47e-07	7e-09
298	3.5e-06	1.39e-05	2.5e-07	2e-09
298	3.6e-06	9e-07	1.51e-07	7e-09
298	3.6e-06	2.4e-06	1.55e-07	9e-09
298	3.6e-06	5.4e-06	1.29e-07	1.2e-08
298	3.8e-06	1e-06	1.56e-07	7e-09
298	4e-06	2.7e-06	1.68e-07	1.1e-08
298	4e-06	1.59e-05	2.83e-07	2e-09
298	4.1e-06	1e-06	1.58e-07	7e-09
298	4.2e-06	6.3e-06	1.48e-07	1.1e-08
298	4.3e-06	1.1e-06	1.66e-07	7e-09
298	4.5e-06	3e-06	1.8e-07	1.1e-08
298	4.5e-06	1.78e-05	3.18e-07	3e-09
298	4.6e-06	1.1e-06	1.73e-07	8e-09
298	4.8e-06	1.2e-06	1.79e-07	8e-09
298	4.8e-06	7.2e-06	1.67e-07	1.1e-08
298	4.9e-06	3.3e-06	1.88e-07	1.1e-08
298	5e-06	1.3e-06	1.85e-07	8e-09
298	5e-06	1.98e-05	3.43e-07	2e-09
298	5.4e-06	3.6e-06	2.03e-07	1.3e-08
298	5.4e-06	8e-06	1.85e-07	9e-09
298	5.5e-06	2.18e-05	3.71e-07	3e-09
298	5.8e-06	3.9e-06	2.18e-07	1.5e-08
298	5.9e-06	2.38e-05	4.06e-07	3e-09
298	6e-06	8.9e-06	2.01e-07	1.2e-08
298	6.3e-06	4.2e-06	2.3e-07	1.4e-08
298	6.4e-06	2.58e-05	4.36e-07	3e-09
298	6.6e-06	9.8e-06	2.37e-07	2.4e-08
298	6.7e-06	4.5e-06	2.43e-07	1.5e-08
298	6.9e-06	2.77e-05	4.62e-07	3e-09
298	7.2e-06	4.8e-06	2.53e-07	1.5e-08
298	7.2e-06	1.07e-05	2.49e-07	1.5e-08
298	7.4e-06	2.96e-05	4.83e-07	3e-09
298	7.6e-06	5.1e-06	2.62e-07	1.4e-08
298	7.8e-06	1.16e-05	2.7e-07	1.6e-08
298	7.9e-06	3.16e-05	5.16e-07	3e-09
298	8e-06	5.4e-06	2.79e-07	1.5e-08
298	8.4e-06	1.25e-05	2.83e-07	1.4e-08
298	8.4e-06	3.35e-05	5.45e-07	3e-09
298	8.5e-06	5.7e-06	2.89e-07	1.7e-08
298	8.9e-06	6e-06	3.04e-07	1.7e-08
298	8.9e-06	1.34e-05	3.1e-07	1.8e-08
298	9.4e-06	6.3e-06	3.16e-07	1.8e-08
298	9.4e-06	3.74e-05	6.04e-07	3e-09
298	9.5e-06	1.43e-05	3.3e-07	2.6e-08
298	9.8e-06	3.94e-05	6.33e-07	4e-09
298	1.01e-05	1.52e-05	3.43e-07	1.9e-08
298	1.03e-05	4.13e-05	6.52e-07	4e-09
298	1.07e-05	1.61e-05	3.61e-07	1.5e-08
298	1.13e-05	1.69e-05	3.87e-07	1.3e-08
298	1.19e-05	1.78e-05	4.04e-07	1.5e-08
298	1.25e-05	1.87e-05	4.2e-07	1.6e-08
303	5e-07	1e-07	1.5e-08	1e-09
303	7e-07	4e-07	1.7e-08	2e-09
303	8e-07	3.2e-06	5.9e-08	1e-09
303	1e-06	2e-07	3.7e-08	4e-09
303	1e-06	1.5e-06	1.5e-08	4e-09
303	1.3e-06	9e-07	5e-08	2e-09
303	1.4e-06	4e-07	5.3e-08	5e-09
303	1.6e-06	6.4e-06	1.15e-07	2e-09
303	1.9e-06	5e-07	6.8e-08	6e-09
303	2e-06	1.4e-06	6.5e-08	7e-09
303	2e-06	3e-06	5.1e-08	1e-09
303	2.4e-06	6e-07	8.2e-08	5e-09
303	2.4e-06	9.6e-06	1.69e-07	1e-09
303	2.7e-06	1.8e-06	8.3e-08	6e-09
303	2.9e-06	7e-07	9.7e-08	6e-09
303	3e-06	4.5e-06	7.9e-08	1e-09
303	3.2e-06	1.27e-05	2.24e-07	2e-09
303	3.4e-06	8e-07	1.1e-07	7e-09
303	3.4e-06	2.2e-06	9.8e-08	7e-09
303	3.8e-06	1e-06	1.21e-07	7e-09
303	4e-06	2.7e-06	1.14e-07	7e-09
303	4e-06	6e-06	1.13e-07	1e-09
303	4e-06	1.59e-05	2.75e-07	2e-09
303	4.3e-06	1.1e-06	1.32e-07	6e-09
303	4.7e-06	3.2e-06	1.28e-07	8e-09
303	4.8e-06	1.2e-06	1.39e-07	5e-09
303	4.8e-06	1.9e-05	3.29e-07	3e-09
303	5e-06	7.4e-06	1.43e-07	1e-09
303	5.3e-06	1.3e-06	1.53e-07	6e-09
303	5.4e-06	3.6e-06	1.39e-07	8e-09
303	5.5e-06	2.22e-05	3.68e-07	3e-09
303	5.8e-06	1.4e-06	1.68e-07	9e-09
303	6e-06	8.9e-06	1.71e-07	1e-09
303	6.1e-06	4e-06	1.55e-07	9e-09
303	6.2e-06	1.6e-06	1.79e-07	9e-09
303	6.3e-06	2.54e-05	4.34e-07	4e-09
303	6.7e-06	1.7e-06	1.91e-07	9e-09
303	6.7e-06	4.5e-06	1.7e-07	1e-08
303	7e-06	1.04e-05	1.95e-07	4e-09
303	7.1e-06	2.85e-05	4.72e-07	4e-09
303	7.2e-06	1.8e-06	2.01e-07	9e-09
303	7.4e-06	4.9e-06	1.85e-07	9e-09
303	7.7e-06	1.9e-06	2.09e-07	9e-09
303	7.9e-06	3.16e-05	5.15e-07	5e-09
303	8e-06	5.4e-06	2.02e-07	1e-08
303	8e-06	1.19e-05	2.22e-07	2e-09
303	8.2e-06	2e-06	2.27e-07	9e-09
303	8.6e-06	2.2e-06	2.36e-07	1e-08
303	8.7e-06	3.47e-05	5.72e-07	5e-09
303	8.8e-06	5.8e-06	2.15e-07	1.1e-08
303	8.9e-06	1.34e-05	2.48e-07	2e-09
303	9.1e-06	2.3e-06	2.42e-07	1.1e-08
303	9.4e-06	6.3e-06	2.27e-07	1e-08
303	9.4e-06	3.78e-05	6.12e-07	5e-09
303	9.6e-06	2.4e-06	2.5e-07	1.1e-08
303	9.9e-06	1.49e-05	2.73e-07	2e-09
303	1e-05	2.5e-06	2.59e-07	6e-09
303	1.01e-05	6.7e-06	2.42e-07	1.1e-08
303	1.02e-05	4.09e-05	6.51e-07	6e-09
303	1.07e-05	7.2e-06	2.49e-07	7e-09
303	1.09e-05	1.64e-05	3.04e-07	2e-09
303	1.1e-05	4.4e-05	7.01e-07	6e-09
303	1.14e-05	7.6e-06	2.67e-07	4e-09
303	1.18e-05	4.7e-05	7.3e-07	1e-08
303	1.19e-05	1.78e-05	3.28e-07	2e-09
303	1.21e-05	8e-06	2.81e-07	3e-09
303	1.25e-05	5.02e-05	7.78e-07	6e-09
303	1.27e-05	8.5e-06	2.93e-07	3e-09
303	1.29e-05	1.93e-05	3.53e-07	3e-09
303	1.33e-05	5.32e-05	8.12e-07	8e-09
303	1.34e-05	8.9e-06	3.04e-07	2e-09
303	1.38e-05	2.08e-05	3.8e-07	3e-09
303	1.4e-05	9.4e-06	3.14e-07	2e-09
303	1.47e-05	9.8e-06	3.3e-07	2e-09
303	1.48e-05	2.22e-05	4e-07	5e-09
303	1.48e-05	5.93e-05	9.02e-07	8e-09
303	1.54e-05	1.03e-05	3.41e-07	2e-09
303	1.56e-05	6.23e-05	9.38e-07	8e-09
303	1.58e-05	2.37e-05	4.27e-07	3e-09
303	1.61e-05	1.07e-05	3.57e-07	3e-09
303	1.63e-05	6.54e-05	9.98e-07	1e-08
303	1.68e-05	2.51e-05	4.48e-07	1.5e-08
303	1.71e-05	6.84e-05	1.022e-06	1e-08
303	1.77e-05	2.66e-05	4.76e-07	6e-09
303	1.79e-05	7.14e-05	1.064e-06	9e-09
303	1.87e-05	2.81e-05	4.94e-07	1.1e-08
303	1.97e-05	2.95e-05	5.23e-07	1.2e-08
303	2.06e-05	3.1e-05	5.43e-07	1.4e-08
303	2.16e-05	3.24e-05	5.59e-07	1.6e-08
303	2.26e-05	3.38e-05	5.82e-07	1.5e-08
303	2.35e-05	3.53e-05	6.11e-07	1.5e-08
303	2.45e-05	3.67e-05	6.32e-07	1.7e-08
303	2.54e-05	3.82e-05	6.6e-07	1.5e-08
303	2.64e-05	3.96e-05	6.8e-07	1.7e-08
308	7e-07	2e-07	2.6e-08	3e-09
308	9e-07	6e-07	6e-09	1e-09
308	1.2e-06	4.8e-06	9.9e-08	2e-09
308	1.4e-06	4e-07	4.1e-08	1e-09
308	1.6e-06	2.4e-06	7.1e-08	5e-09
308	1.8e-06	1.2e-06	3e-08	3.5e-08
308	2.2e-06	5e-07	5.4e-08	1e-09
308	2.4e-06	9.6e-06	1.97e-07	2.3e-08
308	2.7e-06	1.8e-06	5.9e-08	2.9e-08
308	2.9e-06	7e-07	7e-08	1e-09
308	3.2e-06	4.8e-06	1.2e-07	7e-09
308	3.6e-06	9e-07	8.5e-08	1e-09
308	3.6e-06	2.4e-06	8.4e-08	1e-09
308	3.6e-06	1.43e-05	2.72e-07	3e-09
308	4.3e-06	1.1e-06	1.02e-07	1e-09
308	4.5e-06	3e-06	1.04e-07	3e-09
308	4.8e-06	7.2e-06	1.74e-07	7e-09
308	4.8e-06	1.9e-05	3.49e-07	4e-09
308	5e-06	1.3e-06	1.3e-07	1e-09
308	5.4e-06	3.6e-06	1.25e-07	3e-09
308	5.8e-06	1.4e-06	1.43e-07	1e-09
308	5.9e-06	2.38e-05	4.31e-07	7e-09
308	6.3e-06	4.2e-06	1.43e-07	4e-09
308	6.4e-06	9.5e-06	2.19e-07	1.1e-08
308	6.5e-06	1.6e-06	1.6e-07	1e-09
308	7.1e-06	2.85e-05	5.01e-07	7e-09
308	7.2e-06	1.8e-06	1.75e-07	1e-09
308	7.2e-06	4.8e-06	1.64e-07	5e-09
308	7.9e-06	2e-06	1.92e-07	1e-09
308	8e-06	5.4e-06	1.81e-07	6e-09
308	8e-06	1.19e-05	2.64e-07	1.2e-08
308	8.3e-06	3.31e-05	5.8e-07	9e-09
308	8.6e-06	2.2e-06	2.05e-07	1e-09
308	8.9e-06	6e-06	1.99e-07	6e-09
308	9.4e-06	2.3e-06	2.17e-07	2e-09
308	9.4e-06	3.78e-05	6.45e-07	8e-09
308	9.5e-06	1.43e-05	3.09e-07	1.4e-08
308	9.8e-06	6.6e-06	2.17e-07	6e-09
308	1e-05	2.5e-06	2.31e-07	1e-09
308	1.06e-05	4.24e-05	7.21e-07	1.1e-08
308	1.07e-05	2.7e-06	2.41e-07	5e-09
308	1.07e-05	7.2e-06	2.33e-07	8e-09
308	1.11e-05	1.66e-05	3.55e-07	1.3e-08
308	1.14e-05	2.9e-06	2.55e-07	7e-09
308	1.16e-05	7.8e-06	2.53e-07	8e-09
308	1.18e-05	4.7e-05	7.74e-07	1.1e-08
308	1.22e-05	3e-06	2.68e-07	6e-09
308	1.25e-05	8.4e-06	2.78e-07	4e-09
308	1.27e-05	1.9e-05	4.05e-07	1.5e-08
308	1.29e-05	3.2e-06	2.97e-07	6e-09
308	1.29e-05	5.17e-05	8.23e-07	1.2e-08
308	1.34e-05	8.9e-06	2.96e-07	8e-09
308	1.36e-05	3.4e-06	3.11e-07	5e-09
308	1.41e-05	5.62e-05	8.81e-07	1.4e-08
308	1.42e-05	2.14e-05	4.42e-07	1.5e-08
308	1.43e-05	3.6e-06	3.3e-07	5e-09
308	1.43e-05	9.5e-06	3.13e-07	1.2e-08
308	1.5e-05	3.8e-06	3.45e-07	5e-09
308	1.52e-05	1.01e-05	3.29e-07	6e-09
308	1.52e-05	6.08e-05	9.52e-07	1.3e-08
308	1.58e-05	3.9e-06	3.56e-07	9e-09
308	1.58e-05	2.37e-05	4.85e-07	1.7e-08
308	1.61e-05	1.07e-05	3.44e-07	1e-08
308	1.63e-05	6.54e-05	1.038e-06	1.7e-08
308	1.65e-05	4.1e-06	3.7e-07	9e-09
308	1.69e-05	1.13e-05	3.62e-07	9e-09
308	1.71e-05	4.3e-06	3.81e-07	9e-09
308	1.74e-05	2.6e-05	5.22e-07	1.8e-08
308	1.75e-05	6.99e-05	1.078e-06	1.8e-08
308	1.78e-05	1.19e-05	3.79e-07	1.5e-08
308	1.86e-05	7.44e-05	1.15e-06	1.9e-08
308	1.87e-05	1.25e-05	3.97e-07	1.9e-08
308	1.89e-05	2.83e-05	5.65e-07	1.7e-08
308	1.96e-05	1.3e-05	4.15e-07	1.9e-08
308	1.97e-05	7.89e-05	1.221e-06	2.7e-08
308	2.04e-05	3.07e-05	6.07e-07	1.8e-08
308	2.05e-05	1.36e-05	4.35e-07	1.9e-08
308	2.14e-05	1.42e-05	4.52e-07	1.9e-08
308	2.2e-05	3.3e-05	6.43e-07	1.9e-08
308	2.2e-05	8.78e-05	1.341e-06	3.1e-08
308	2.22e-05	1.48e-05	4.68e-07	2e-08
308	2.31e-05	1.54e-05	4.86e-07	1.9e-08
308	2.31e-05	9.23e-05	1.416e-06	3.4e-08
308	2.35e-05	3.53e-05	6.82e-07	2e-08
308	2.42e-05	9.67e-05	1.49e-06	2.9e-08
308	2.48e-05	1.66e-05	5.2e-07	1.9e-08
308	2.51e-05	3.76e-05	7.27e-07	2.1e-08
308	2.66e-05	3.99e-05	7.69e-07	2.3e-08
308	2.81e-05	4.22e-05	8.06e-07	2.4e-08
308	2.96e-05	4.45e-05	8.43e-07	3e-08
308	3.12e-05	4.67e-05	8.8e-07	3e-08
308	3.27e-05	4.9e-05	9.2e-07	2.9e-08
313	1.2e-06	3e-07	5.1e-08	3e-09
313	1.5e-06	1e-06	5.5e-08	1e-09
313	1.6e-06	6.4e-06	1.34e-07	1e-09
313	2e-06	3e-06	9.9e-08	3e-09
313	2.4e-06	6e-07	8.5e-08	4e-09
313	3e-06	2e-06	9.9e-08	7e-09
313	3.2e-06	1.27e-05	2.55e-07	3e-09
313	3.6e-06	9e-07	1.15e-07	6e-09
313	4e-06	6e-06	1.8e-07	6e-09
313	4.5e-06	3e-06	1.46e-07	1e-08
313	4.8e-06	1.2e-06	1.46e-07	5e-09
313	4.8e-06	1.9e-05	3.69e-07	5e-09
313	6e-06	1.5e-06	1.84e-07	6e-09
313	6e-06	4e-06	1.91e-07	1.4e-08
313	6e-06	8.9e-06	2.78e-07	1.2e-08
313	6.3e-06	2.54e-05	4.9e-07	7e-09
313	7.2e-06	1.8e-06	2.07e-07	6e-09
313	7.4e-06	5e-06	2.35e-07	1.3e-08
313	7.9e-06	3.16e-05	5.96e-07	9e-09
313	8e-06	1.19e-05	3.44e-07	1.5e-08
313	8.4e-06	2.1e-06	2.26e-07	6e-09
313	8.9e-06	6e-06	2.75e-07	1.6e-08
313	9.4e-06	3.78e-05	6.85e-07	9e-09
313	9.6e-06	2.4e-06	2.59e-07	8e-09
313	9.9e-06	1.49e-05	4.12e-07	1.8e-08
313	1.04e-05	7e-06	3.15e-07	1.8e-08
313	1.07e-05	2.7e-06	3.03e-07	1.1e-08
313	1.1e-05	4.4e-05	7.98e-07	1.1e-08
313	1.19e-05	3e-06	3.25e-07	1.3e-08
313	1.19e-05	8e-06	3.45e-07	2.2e-08
313	1.19e-05	1.78e-05	4.69e-07	1.8e-08
313	1.25e-05	5.02e-05	8.84e-07	1.8e-08
313	1.31e-05	3.3e-06	3.5e-07	1e-08
313	1.34e-05	8.9e-06	3.78e-07	2e-08
313	1.38e-05	2.08e-05	5.27e-07	2.1e-08
313	1.41e-05	5.62e-05	9.87e-07	2.2e-08
313	1.43e-05	3.6e-06	3.74e-07	9e-09
313	1.49e-05	9.9e-06	4.07e-07	1.8e-08
313	1.55e-05	3.9e-06	3.98e-07	9e-09
313	1.56e-05	6.23e-05	1.093e-06	2.4e-08
313	1.58e-05	2.37e-05	5.98e-07	2.3e-08
313	1.63e-05	1.09e-05	4.49e-07	2.3e-08
313	1.67e-05	4.2e-06	4.16e-07	9e-09
313	1.71e-05	6.84e-05	1.189e-06	2.8e-08
313	1.77e-05	2.66e-05	6.57e-07	2.4e-08
313	1.78e-05	4.5e-06	4.35e-07	9e-09
313	1.78e-05	1.19e-05	4.78e-07	2.4e-08
313	1.86e-05	7.44e-05	1.269e-06	2.5e-08
313	1.9e-05	4.8e-06	4.59e-07	9e-09
313	1.93e-05	1.29e-05	5.06e-07	2.3e-08
313	1.97e-05	2.95e-05	6.96e-07	2.4e-08
313	2.01e-05	8.04e-05	1.376e-06	2.7e-08
313	2.02e-05	5.1e-06	4.79e-07	1.9e-08
313	2.08e-05	1.38e-05	5.36e-07	2.2e-08
313	2.14e-05	5.4e-06	5.04e-07	1.9e-08
313	2.16e-05	3.24e-05	7.46e-07	2.7e-08
313	2.16e-05	8.64e-05	1.47e-06	3.1e-08
313	2.22e-05	1.48e-05	5.68e-07	2.4e-08
313	2.26e-05	5.6e-06	5.24e-07	2e-08
313	2.31e-05	9.23e-05	1.583e-06	3.2e-08
313	2.35e-05	3.53e-05	8.12e-07	3e-08
313	2.37e-05	1.58e-05	5.94e-07	2.7e-08
313	2.38e-05	5.9e-06	5.46e-07	1.9e-08
313	2.46e-05	9.82e-05	1.655e-06	3.4e-08
313	2.5e-05	6.2e-06	5.7e-07	1.9e-08
313	2.51e-05	1.68e-05	6.22e-07	2.4e-08
313	2.54e-05	3.82e-05	8.71e-07	2.9e-08
313	2.6e-05	0.0001041	1.808e-06	2.6e-08
313	2.61e-05	6.5e-06	5.88e-07	2.1e-08
313	2.66e-05	1.77e-05	6.6e-07	1.9e-08
313	2.73e-05	6.8e-06	6.15e-07	1.9e-08
313	2.74e-05	4.1e-05	9.24e-07	3.6e-08
313	2.81e-05	1.87e-05	6.98e-07	3.6e-08
313	2.89e-05	0.0001158	2.026e-06	4.2e-08
313	2.93e-05	4.39e-05	9.82e-07	3.6e-08
313	2.95e-05	1.97e-05	7.3e-07	2.1e-08
313	3.04e-05	0.0001215	2.132e-06	3.6e-08
313	3.1e-05	2.06e-05	7.72e-07	2.3e-08
313	3.12e-05	4.67e-05	1.027e-06	4e-08
313	3.18e-05	0.0001273	2.243e-06	3.2e-08
313	3.24e-05	2.16e-05	8.04e-07	2.1e-08
313	3.31e-05	4.96e-05	1.075e-06	4.1e-08
313	3.5e-05	5.24e-05	1.107e-06	4.4e-08
313	3.68e-05	5.53e-05	1.195e-06	3.1e-08
313	3.87e-05	5.81e-05	1.251e-06	3.7e-08
313	4.06e-05	6.08e-05	1.296e-06	3.7e-08

System: sodium salicylate + water + N1,N4-dihexadecyl-N1,N1,N4,N4-tetramethylbutane-1,4-diaminium bromide; phases: Liquid
Fixed: Pressure, kPa = 101
Property: Electrical conductivity, S/m (Liquid); method: Dip Cell
Temperature, K	Amount concentration (molarity), mol/dm3 of sodium salicylate	Amount concentration (molarity), mol/dm3 of N1,N4-dihexadecyl-N1,N1,N4,N4-tetramethylbutane-1,4-diaminium bromide	Electrical conductivity, S/m	uncertainty
298	2e-07	8e-07	2.9e-08	1e-09
298	3e-07	1e-07	2.5e-08	1e-09
298	4e-07	6e-07	3.6e-08	1e-09
298	4e-07	1.6e-06	5.6e-08	3e-09
298	5e-07	3e-07	1.7e-08	3e-09
298	6e-07	2e-07	4.2e-08	1e-09
298	6e-07	2.4e-06	7.9e-08	4e-09
298	8e-07	1.2e-06	6.1e-08	1e-09
298	8e-07	3.2e-06	9.5e-08	4e-09
298	9e-07	6e-07	3.2e-08	2e-09
298	1e-06	2e-07	5.6e-08	1e-09
298	1e-06	4e-06	1.13e-07	4e-09
298	1.2e-06	1.8e-06	8.4e-08	1e-09
298	1.2e-06	4.8e-06	1.32e-07	5e-09
298	1.3e-06	3e-07	6.4e-08	2e-09
298	1.3e-06	9e-07	4.2e-08	5e-09
298	1.4e-06	5.6e-06	1.53e-07	6e-09
298	1.6e-06	4e-07	7.5e-08	4e-09
298	1.6e-06	2.4e-06	1.01e-07	3e-09
298	1.6e-06	6.4e-06	1.74e-07	7e-09
298	1.8e-06	1.2e-06	6.1e-08	1e-09
298	1.8e-06	7.2e-06	1.93e-07	7e-09
298	1.9e-06	5e-07	8.3e-08	5e-09
298	2e-06	3e-06	1.15e-07	1e-09
298	2e-06	8e-06	2.13e-07	8e-09
298	2.2e-06	6e-07	8.7e-08	6e-09
298	2.2e-06	1.5e-06	7.1e-08	4e-09
298	2.2e-06	8.7e-06	2.21e-07	8e-09
298	2.4e-06	3.6e-06	1.34e-07	4e-09
298	2.4e-06	9.5e-06	2.46e-07	1.1e-08
298	2.6e-06	6e-07	9.2e-08	7e-09
298	2.6e-06	1.03e-05	2.75e-07	1.3e-08
298	2.7e-06	1.8e-06	8e-08	3e-09
298	2.8e-06	4.2e-06	1.59e-07	4e-09
298	2.8e-06	1.11e-05	2.96e-07	1.2e-08
298	2.9e-06	7e-07	9.7e-08	1.2e-08
298	3e-06	1.19e-05	3.07e-07	1.2e-08
298	3.1e-06	2.1e-06	1.05e-07	6e-09
298	3.2e-06	8e-07	1.02e-07	9e-09
298	3.2e-06	4.8e-06	1.71e-07	6e-09
298	3.2e-06	1.26e-05	3.24e-07	1.3e-08
298	3.4e-06	1.35e-05	3.49e-07	1.5e-08
298	3.5e-06	9e-07	1.08e-07	1e-08
298	3.6e-06	2.4e-06	1.18e-07	7e-09
298	3.6e-06	5.4e-06	1.87e-07	2e-09
298	3.6e-06	1.42e-05	3.66e-07	1.5e-08
298	3.8e-06	1e-06	1.13e-07	1e-08
298	3.8e-06	1.5e-05	3.92e-07	1.8e-08
298	4e-06	2.7e-06	1.26e-07	7e-09
298	4e-06	6e-06	2.03e-07	3e-09
298	4e-06	1.58e-05	4.01e-07	1.5e-08
298	4.2e-06	1e-06	1.14e-07	1.1e-08
298	4.2e-06	1.66e-05	4.18e-07	1.5e-08
298	4.4e-06	6.5e-06	2.32e-07	6e-09
298	4.4e-06	1.74e-05	4.33e-07	1.6e-08
298	4.5e-06	1.1e-06	1.18e-07	1.2e-08
298	4.5e-06	1.82e-05	4.45e-07	1.6e-08
298	4.7e-06	1.9e-05	4.58e-07	1.6e-08
298	4.8e-06	1.2e-06	1.23e-07	1.3e-08
298	4.8e-06	7.1e-06	2.52e-07	5e-09
298	4.9e-06	3.3e-06	1.53e-07	6e-09
298	4.9e-06	1.98e-05	4.77e-07	1.6e-08
298	5.1e-06	1.3e-06	1.28e-07	1.3e-08
298	5.1e-06	2.06e-05	4.86e-07	1.5e-08
298	5.2e-06	7.7e-06	2.73e-07	6e-09
298	5.3e-06	2.13e-05	5.07e-07	1.5e-08
298	5.4e-06	1.4e-06	1.33e-07	1.4e-08
298	5.4e-06	3.6e-06	1.61e-07	7e-09
298	5.5e-06	2.21e-05	5.32e-07	2e-08
298	5.6e-06	8.3e-06	2.88e-07	6e-09
298	5.8e-06	1.4e-06	1.39e-07	1.5e-08
298	5.8e-06	3.9e-06	1.71e-07	7e-09
298	6e-06	8.9e-06	3.03e-07	5e-09
298	6.1e-06	1.5e-06	1.44e-07	1.5e-08
298	6.2e-06	4.2e-06	1.79e-07	8e-09
298	6.3e-06	9.5e-06	3.17e-07	7e-09
298	6.4e-06	1.6e-06	1.49e-07	1.6e-08
298	6.7e-06	1.7e-06	1.54e-07	1.7e-08
298	6.7e-06	4.5e-06	1.87e-07	1.1e-08
298	6.8e-06	1.01e-05	3.29e-07	9e-09
298	7e-06	1.8e-06	1.58e-07	1.7e-08
298	7.1e-06	4.8e-06	1.96e-07	1.2e-08
298	7.1e-06	1.07e-05	3.4e-07	9e-09
298	7.4e-06	1.8e-06	1.62e-07	2.1e-08
298	7.5e-06	1.13e-05	3.55e-07	9e-09
298	7.6e-06	5.1e-06	2.05e-07	1.2e-08
298	7.7e-06	1.9e-06	1.67e-07	2.1e-08
298	7.9e-06	1.19e-05	3.69e-07	9e-09
298	8e-06	2e-06	1.71e-07	2.1e-08
298	8e-06	5.4e-06	2.17e-07	1.2e-08
298	8.2e-06	2.1e-06	1.76e-07	2.2e-08
298	8.3e-06	1.25e-05	3.89e-07	9e-09
298	8.5e-06	5.6e-06	2.24e-07	1.4e-08
298	8.7e-06	1.31e-05	4.03e-07	1.2e-08
298	8.9e-06	2.2e-06	1.85e-07	2.1e-08
298	8.9e-06	6e-06	2.33e-07	1.3e-08
298	9.1e-06	1.36e-05	4.15e-07	1e-08
298	9.4e-06	6.2e-06	2.41e-07	1.8e-08
298	9.5e-06	1.42e-05	4.27e-07	1e-08
298	9.8e-06	6.6e-06	2.49e-07	1.9e-08
298	9.9e-06	1.48e-05	4.38e-07	1e-08
298	1.03e-05	6.8e-06	2.58e-07	2.1e-08
298	1.07e-05	7.1e-06	2.65e-07	2.1e-08
298	1.12e-05	7.4e-06	2.74e-07	2.1e-08
298	1.16e-05	7.7e-06	2.82e-07	2.2e-08
298	1.2e-05	8e-06	2.89e-07	2.3e-08
298	1.25e-05	8.3e-06	2.96e-07	2.3e-08
303	3e-07	1e-07	2.7e-08	1e-09
303	4e-07	6e-07	3.1e-08	1e-09
303	4e-07	1.6e-06	4.3e-08	4e-09
303	5e-07	3e-07	3.4e-08	1e-09
303	6e-07	2e-07	4.7e-08	2e-09
303	8e-07	1.2e-06	5.7e-08	4e-09
303	8e-07	3.2e-06	7.6e-08	2e-09
303	9e-07	6e-07	3.7e-08	2e-09
303	1e-06	2e-07	6e-08	1e-09
303	1.2e-06	1.8e-06	7.1e-08	3e-09
303	1.2e-06	4.8e-06	1.07e-07	1e-09
303	1.3e-06	3e-07	7.6e-08	1e-09
303	1.3e-06	9e-07	6.7e-08	1e-09
303	1.6e-06	4e-07	9.4e-08	1e-09
303	1.6e-06	2.4e-06	8.9e-08	4e-09
303	1.6e-06	6.4e-06	1.38e-07	2e-09
303	1.8e-06	1.2e-06	7.3e-08	1e-09
303	1.9e-06	5e-07	1.07e-07	1e-09
303	2e-06	3e-06	1.2e-07	4e-09
303	2e-06	8e-06	1.68e-07	3e-09
303	2.2e-06	6e-07	1.18e-07	1e-09
303	2.2e-06	1.5e-06	9.2e-08	2e-09
303	2.4e-06	3.6e-06	1.05e-07	5e-09
303	2.4e-06	9.5e-06	1.94e-07	3e-09
303	2.6e-06	6e-07	1.27e-07	2e-09
303	2.7e-06	1.8e-06	1.17e-07	3e-09
303	2.8e-06	4.2e-06	1.24e-07	6e-09
303	2.8e-06	1.11e-05	2.34e-07	4e-09
303	2.9e-06	7e-07	3.6e-08	1e-09
303	3.1e-06	2.1e-06	1.43e-07	2e-09
303	3.2e-06	8e-07	1.45e-07	1e-09
303	3.2e-06	4.8e-06	1.4e-07	6e-09
303	3.2e-06	1.27e-05	2.65e-07	4e-09
303	3.5e-06	9e-07	1.55e-07	2e-09
303	3.6e-06	2.4e-06	1.59e-07	2e-09
303	3.6e-06	5.4e-06	1.75e-07	6e-09
303	3.6e-06	1.42e-05	2.94e-07	5e-09
303	3.8e-06	1e-06	1.6e-07	1e-09
303	4e-06	2.7e-06	1.73e-07	4e-09
303	4e-06	5.9e-06	1.89e-07	7e-09
303	4e-06	1.58e-05	3.28e-07	5e-09
303	4.2e-06	1e-06	1.71e-07	2e-09
303	4.4e-06	6.5e-06	2.01e-07	8e-09
303	4.4e-06	1.74e-05	3.56e-07	6e-09
303	4.5e-06	1.1e-06	1.79e-07	2e-09
303	4.7e-06	1.9e-05	3.77e-07	5e-09
303	4.8e-06	1.2e-06	1.87e-07	2e-09
303	4.8e-06	7.1e-06	2.16e-07	9e-09
303	4.9e-06	3.3e-06	1.93e-07	4e-09
303	5.1e-06	1.3e-06	1.95e-07	2e-09
303	5.1e-06	2.06e-05	4.11e-07	6e-09
303	5.2e-06	7.7e-06	2.28e-07	1e-08
303	5.4e-06	1.4e-06	2.05e-07	2e-09
303	5.4e-06	3.6e-06	2.07e-07	4e-09
303	5.5e-06	2.21e-05	4.31e-07	1e-08
303	5.6e-06	8.3e-06	2.44e-07	1e-08
303	5.8e-06	1.4e-06	2.13e-07	3e-09
303	5.8e-06	3.9e-06	2.19e-07	6e-09
303	5.9e-06	2.37e-05	4.55e-07	6e-09
303	6e-06	8.9e-06	2.59e-07	8e-09
303	6.1e-06	1.5e-06	2.21e-07	3e-09
303	6.2e-06	4.2e-06	2.32e-07	6e-09
303	6.3e-06	2.52e-05	4.85e-07	3e-09
303	6.4e-06	1.6e-06	2.27e-07	3e-09
303	6.4e-06	9.5e-06	2.72e-07	1.1e-08
303	6.7e-06	1.7e-06	2.38e-07	3e-09
303	6.7e-06	4.5e-06	2.56e-07	7e-09
303	6.7e-06	2.67e-05	4.99e-07	9e-09
303	6.8e-06	1.01e-05	2.87e-07	9e-09
303	7e-06	1.8e-06	2.44e-07	2e-09
303	7.1e-06	4.8e-06	2.72e-07	5e-09
303	7.1e-06	1.07e-05	2.95e-07	1.1e-08
303	7.1e-06	2.83e-05	5.27e-07	1e-08
303	7.4e-06	1.8e-06	2.67e-07	3e-09
303	7.5e-06	1.13e-05	3.07e-07	1.1e-08
303	7.5e-06	2.98e-05	5.35e-07	1.4e-08
303	7.6e-06	5.1e-06	2.81e-07	5e-09
303	7.7e-06	1.9e-06	2.73e-07	3e-09
303	7.8e-06	3.14e-05	5.66e-07	1.5e-08
303	7.9e-06	1.19e-05	3.23e-07	1.1e-08
303	8e-06	2e-06	2.79e-07	3e-09
303	8e-06	5.4e-06	2.92e-07	7e-09
303	8.2e-06	3.29e-05	5.99e-07	1.2e-08
303	8.3e-06	1.25e-05	3.4e-07	1.2e-08
303	8.5e-06	5.6e-06	3.04e-07	5e-09
303	8.6e-06	3.45e-05	6.17e-07	1.2e-08
303	8.7e-06	1.31e-05	3.46e-07	1.2e-08
303	8.9e-06	6e-06	3.15e-07	6e-09
303	9e-06	3.6e-05	6.31e-07	1.5e-08
303	9.1e-06	1.36e-05	3.66e-07	1.4e-08
303	9.4e-06	6.2e-06	3.32e-07	7e-09
303	9.4e-06	3.75e-05	6.53e-07	1.3e-08
303	9.5e-06	1.42e-05	3.81e-07	1.2e-08
303	9.8e-06	6.6e-06	3.46e-07	1e-08
303	9.8e-06	3.9e-05	6.61e-07	2e-08
303	9.9e-06	1.48e-05	3.9e-07	1.5e-08
303	1.01e-05	4.06e-05	6.93e-07	1.7e-08
303	1.03e-05	6.8e-06	3.61e-07	6e-09
303	1.03e-05	1.54e-05	4e-07	9e-09
303	1.05e-05	4.21e-05	7.13e-07	1.8e-08
303	1.06e-05	1.6e-05	4.01e-07	1.1e-08
303	1.07e-05	7.1e-06	3.71e-07	8e-09
303	1.09e-05	4.36e-05	7.34e-07	1.8e-08
303	1.1e-05	1.66e-05	4.09e-07	1.7e-08
303	1.12e-05	7.4e-06	3.8e-07	8e-09
303	1.16e-05	7.7e-06	3.93e-07	1.3e-08
303	1.2e-05	8e-06	4.04e-07	8e-09
303	1.25e-05	8.3e-06	4.11e-07	1.1e-08
308	4e-07	1e-07	2.2e-08	2e-09
308	6e-07	4e-07	2.1e-08	2e-09
308	7e-07	2.6e-06	6.8e-08	1e-09
308	8e-07	2e-07	4.5e-08	3e-09
308	8e-07	1.2e-06	2.6e-08	1e-09
308	1.2e-06	3e-07	6.2e-08	3e-09
308	1.2e-06	8e-07	4.6e-08	4e-09
308	1.3e-06	5.3e-06	1.32e-07	4e-09
308	1.6e-06	4e-07	7.8e-08	5e-09
308	1.6e-06	2.4e-06	5.8e-08	4e-09
308	1.8e-06	1.2e-06	6.7e-08	4e-09
308	2e-06	5e-07	8.5e-08	6e-09
308	2e-06	8e-06	1.89e-07	3e-09
308	2.4e-06	6e-07	9.1e-08	5e-09
308	2.4e-06	1.6e-06	1.02e-07	2e-09
308	2.4e-06	3.6e-06	8.4e-08	3e-09
308	2.6e-06	1.06e-05	2.47e-07	3e-09
308	2.8e-06	7e-07	1.01e-07	5e-09
308	3e-06	2e-06	1.2e-07	1e-09
308	3.2e-06	8e-07	1.07e-07	6e-09
308	3.2e-06	4.8e-06	1.09e-07	3e-09
308	3.3e-06	1.32e-05	3.04e-07	3e-09
308	3.6e-06	9e-07	1.22e-07	6e-09
308	3.6e-06	2.4e-06	1.4e-07	1e-09
308	4e-06	1e-06	1.25e-07	5e-09
308	4e-06	6e-06	1.38e-07	4e-09
308	4e-06	1.58e-05	3.52e-07	3e-09
308	4.2e-06	2.8e-06	1.61e-07	1e-09
308	4.4e-06	1.1e-06	1.32e-07	6e-09
308	4.6e-06	1.85e-05	3.98e-07	3e-09
308	4.8e-06	1.2e-06	1.4e-07	7e-09
308	4.8e-06	3.2e-06	1.83e-07	3e-09
308	4.8e-06	7.1e-06	1.62e-07	4e-09
308	5.2e-06	1.3e-06	1.47e-07	6e-09
308	5.3e-06	2.1e-05	4.5e-07	3e-09
308	5.4e-06	3.6e-06	1.99e-07	4e-09
308	5.6e-06	1.4e-06	1.54e-07	6e-09
308	5.6e-06	8.3e-06	1.87e-07	4e-09
308	5.9e-06	2.37e-05	5.02e-07	4e-09
308	6e-06	1.5e-06	1.62e-07	6e-09
308	6.4e-06	1.6e-06	1.72e-07	6e-09
308	6.4e-06	9.5e-06	2.11e-07	4e-09
308	6.5e-06	4.4e-06	2.28e-07	5e-09
308	6.6e-06	2.62e-05	5.36e-07	4e-09
308	6.8e-06	1.7e-06	1.75e-07	7e-09
308	7.1e-06	4.8e-06	2.46e-07	4e-09
308	7.1e-06	1.07e-05	2.36e-07	4e-09
308	7.2e-06	1.8e-06	1.76e-07	6e-09
308	7.2e-06	2.88e-05	5.85e-07	6e-09
308	7.6e-06	1.9e-06	1.84e-07	9e-09
308	7.7e-06	5.2e-06	2.6e-07	2e-09
308	7.8e-06	3.14e-05	6.38e-07	7e-09
308	7.9e-06	1.19e-05	2.58e-07	4e-09
308	8e-06	2e-06	1.97e-07	9e-09
308	8.3e-06	2.1e-06	2.02e-07	8e-09
308	8.3e-06	5.6e-06	2.83e-07	3e-09
308	8.5e-06	3.39e-05	6.66e-07	7e-09
308	8.7e-06	2.2e-06	2.08e-07	7e-09
308	8.7e-06	1.31e-05	2.86e-07	3e-09
308	8.9e-06	6e-06	2.95e-07	4e-09
308	9.1e-06	2.3e-06	2.2e-07	6e-09
308	9.1e-06	3.65e-05	7.1e-07	9e-09
308	9.5e-06	2.4e-06	2.27e-07	3e-09
308	9.5e-06	6.4e-06	3.09e-07	5e-09
308	9.5e-06	1.42e-05	3.11e-07	4e-09
308	9.8e-06	3.9e-05	7.6e-07	1.1e-08
308	9.9e-06	2.5e-06	2.37e-07	2e-09
308	1.01e-05	6.8e-06	3.27e-07	4e-09
308	1.03e-05	2.6e-06	2.44e-07	2e-09
308	1.03e-05	1.54e-05	3.32e-07	4e-09
308	1.04e-05	4.15e-05	7.93e-07	1e-08
308	1.07e-05	7.1e-06	3.45e-07	8e-09
308	1.1e-05	1.66e-05	3.53e-07	3e-09
308	1.1e-05	4.41e-05	8.31e-07	1.3e-08
308	1.13e-05	7.5e-06	3.65e-07	6e-09
308	1.17e-05	4.66e-05	8.73e-07	9e-09
308	1.18e-05	1.78e-05	3.79e-07	2e-09
308	1.19e-05	7.9e-06	3.77e-07	6e-09
308	1.23e-05	4.91e-05	9.04e-07	5e-09
308	1.25e-05	8.3e-06	3.99e-07	9e-09
308	1.26e-05	1.89e-05	4.04e-07	4e-09
308	1.29e-05	5.16e-05	9.39e-07	5e-09
308	1.31e-05	8.7e-06	4.1e-07	1.8e-08
308	1.34e-05	2e-05	4.27e-07	5e-09
308	1.35e-05	5.41e-05	9.75e-07	5e-09
308	1.36e-05	9.1e-06	4.21e-07	1.8e-08
308	1.42e-05	9.5e-06	4.33e-07	2.4e-08
308	1.42e-05	2.12e-05	4.5e-07	4e-09
308	1.48e-05	9.9e-06	4.43e-07	2.7e-08
308	1.49e-05	2.24e-05	4.69e-07	3e-09
308	1.54e-05	1.03e-05	4.57e-07	2.7e-08
308	1.57e-05	2.35e-05	4.88e-07	1.1e-08
308	1.6e-05	1.06e-05	4.72e-07	2.7e-08
308	1.64e-05	2.47e-05	5.15e-07	1.4e-08
308	1.72e-05	2.59e-05	5.38e-07	1.3e-08
308	1.8e-05	2.7e-05	5.59e-07	1.4e-08
308	1.88e-05	2.81e-05	5.78e-07	1.4e-08
308	1.95e-05	2.93e-05	5.89e-07	1.5e-08
308	2.03e-05	3.04e-05	6.01e-07	1.8e-08
308	2.1e-05	3.16e-05	6.32e-07	1.5e-08
308	2.18e-05	3.27e-05	6.53e-07	1.6e-08
308	2.26e-05	3.38e-05	6.73e-07	1.6e-08
313	6e-07	2e-07	2.5e-08	1e-09
313	8e-07	5e-07	5.9e-08	3e-09
313	1.1e-06	4.2e-06	5.3e-08	1.3e-08
313	1.2e-06	3e-07	4.1e-08	5e-09
313	1.3e-06	2e-06	4.7e-08	2e-09
313	1.6e-06	1.1e-06	9.8e-08	7e-09
313	1.8e-06	4e-07	5e-08	6e-09
313	2.1e-06	8.5e-06	1.52e-07	9e-09
313	2.4e-06	6e-07	6.9e-08	4e-09
313	2.4e-06	1.6e-06	1.23e-07	4e-09
313	2.6e-06	4e-06	9.5e-08	4e-09
313	3e-06	7e-07	8.4e-08	4e-09
313	3.2e-06	2.1e-06	1.51e-07	5e-09
313	3.2e-06	1.27e-05	2.44e-07	1e-08
313	3.6e-06	9e-07	9.5e-08	5e-09
313	4e-06	2.6e-06	1.74e-07	4e-09
313	4e-06	6e-06	1.56e-07	1e-08
313	4.2e-06	1e-06	1.1e-07	4e-09
313	4.2e-06	1.69e-05	3.29e-07	9e-09
313	4.8e-06	1.2e-06	1.2e-07	3e-09
313	4.8e-06	3.2e-06	2.21e-07	3e-09
313	5.3e-06	7.9e-06	1.98e-07	1.6e-08
313	5.3e-06	2.1e-05	4.13e-07	8e-09
313	5.4e-06	1.3e-06	1.41e-07	3e-09
313	5.6e-06	3.7e-06	2.49e-07	5e-09
313	6e-06	1.5e-06	1.6e-07	1e-09
313	6.3e-06	2.51e-05	4.99e-07	4e-09
313	6.4e-06	4.2e-06	2.85e-07	2e-09
313	6.6e-06	1.6e-06	1.7e-07	1e-09
313	6.6e-06	9.9e-06	2.47e-07	1.8e-08
313	7.1e-06	4.8e-06	3.04e-07	1.2e-08
313	7.2e-06	1.8e-06	1.8e-07	1e-09
313	7.3e-06	2.93e-05	5.86e-07	4e-09
313	7.8e-06	1.9e-06	1.87e-07	1e-09
313	7.9e-06	1.19e-05	2.91e-07	1.3e-08
313	8.3e-06	2.1e-06	1.96e-07	1e-09
313	8.4e-06	3.34e-05	6.5e-07	4e-09
313	8.8e-06	5.8e-06	3.54e-07	2e-09
313	9e-06	2.2e-06	2.08e-07	2e-09
313	9.2e-06	1.39e-05	3.3e-07	1.6e-08
313	9.4e-06	3.75e-05	7.19e-07	4e-09
313	9.5e-06	2.4e-06	2.26e-07	1e-09
313	9.5e-06	6.4e-06	3.76e-07	2e-09
313	1.02e-05	2.5e-06	2.41e-07	1e-09
313	1.03e-05	6.9e-06	4e-07	3e-09
313	1.04e-05	4.15e-05	7.86e-07	5e-09
313	1.05e-05	1.58e-05	3.74e-07	2e-08
313	1.07e-05	2.7e-06	2.49e-07	1e-09
313	1.11e-05	7.4e-06	4.34e-07	1.5e-08
313	1.13e-05	2.8e-06	2.6e-07	2e-09
313	1.14e-05	4.56e-05	8.62e-07	5e-09
313	1.18e-05	1.78e-05	4.26e-07	2.5e-08
313	1.19e-05	3e-06	2.69e-07	2e-09
313	1.19e-05	7.9e-06	4.6e-07	3e-09
313	1.24e-05	4.96e-05	9.12e-07	5e-09
313	1.25e-05	3.1e-06	2.77e-07	1.8e-08
313	1.27e-05	8.4e-06	4.94e-07	3e-09
313	1.31e-05	3.3e-06	2.93e-07	1.6e-08
313	1.31e-05	1.97e-05	4.57e-07	2.3e-08
313	1.34e-05	9e-06	5.27e-07	6e-09
313	1.34e-05	5.36e-05	9.63e-07	5e-09
313	1.37e-05	3.4e-06	3.19e-07	2e-08
313	1.42e-05	3.6e-06	3.31e-07	2.2e-08
313	1.42e-05	9.5e-06	5.52e-07	5e-09
313	1.44e-05	2.16e-05	5.11e-07	2.8e-08
313	1.44e-05	5.76e-05	1.009e-06	6e-09
313	1.49e-05	3.7e-06	3.39e-07	2.5e-08
313	1.5e-05	1e-05	5.8e-07	3e-09
313	1.54e-05	6.15e-05	1.062e-06	6e-09
313	1.57e-05	2.35e-05	5.43e-07	3.3e-08
313	1.58e-05	1.05e-05	6e-07	2.5e-08
313	1.64e-05	6.54e-05	1.106e-06	1.3e-08
313	1.66e-05	1.1e-05	6.23e-07	2.7e-08
313	1.7e-05	2.54e-05	5.95e-07	3.7e-08
313	1.73e-05	1.16e-05	6.38e-07	2.4e-08
313	1.73e-05	6.94e-05	1.172e-06	1.3e-08
313	1.81e-05	1.21e-05	6.67e-07	2.4e-08
313	1.82e-05	2.74e-05	6.31e-07	2.8e-08
313	1.83e-05	7.33e-05	1.206e-06	1.4e-08
313	1.89e-05	1.26e-05	6.95e-07	2.5e-08
313	1.93e-05	7.71e-05	1.276e-06	1.7e-08
313	1.95e-05	2.93e-05	6.63e-07	3.2e-08
313	1.97e-05	1.31e-05	7.18e-07	2.8e-08
313	2.03e-05	8.1e-05	1.321e-06	9e-09
313	2.08e-05	3.11e-05	6.99e-07	4e-08
313	2.09e-05	1.39e-05	7.36e-07	1.1e-08
313	2.12e-05	1.42e-05	7.55e-07	1.1e-08
313	2.12e-05	8.49e-05	1.387e-06	1.6e-08
313	2.2e-05	1.46e-05	7.74e-07	3.3e-08
313	2.2e-05	3.31e-05	7.35e-07	3.3e-08
313	2.22e-05	8.86e-05	1.44e-06	1.2e-08
313	2.31e-05	9.25e-05	1.497e-06	1.1e-08
313	2.33e-05	3.5e-05	7.79e-07	3.3e-08
313	2.46e-05	3.68e-05	8.03e-07	4.3e-08
313	2.58e-05	3.87e-05	8.34e-07	5.1e-08
313	2.7e-05	4.06e-05	8.74e-07	2e-08
313	2.83e-05	4.24e-05	9.08e-07	1.6e-08
313	2.95e-05	4.43e-05	9.51e-07	1.7e-08
313	3.08e-05	4.61e-05	9.86e-07	1.7e-08
313	3.2e-05	4.8e-05	1.027e-06	2.4e-08
313	3.32e-05	4.99e-05	1.057e-06	2.1e-08
313	3.44e-05	5.17e-05	1.089e-06	4e-08
313	3.57e-05	5.35e-05	1.111e-06	4e-08
313	3.69e-05	5.53e-05	1.148e-06	6e-09

System: sodium benzoate + water + N1,N4-dihexadecyl-N1,N1,N4,N4-tetramethylbutane-1,4-diaminium bromide; phases: Liquid
Fixed: Pressure, kPa = 101
Property: Electrical conductivity, S/m (Liquid); method: Dip Cell
Temperature, K	Amount concentration (molarity), mol/dm3 of sodium benzoate	Amount concentration (molarity), mol/dm3 of N1,N4-dihexadecyl-N1,N1,N4,N4-tetramethylbutane-1,4-diaminium bromide	Electrical conductivity, S/m	uncertainty
298	3e-07	2e-07	1.9e-08	1e-09
298	3e-07	1e-06	2e-08	1e-09
298	5e-07	8e-07	2.3e-08	1e-09
298	5e-07	2e-06	3.7e-08	1e-09
298	6e-07	4e-07	3.4e-08	1e-09
298	7e-07	3e-06	5e-08	1e-09
298	8e-07	2e-07	1.1e-08	1e-09
298	9e-07	6e-07	5e-08	1e-09
298	1e-06	1.5e-06	4.5e-08	1e-09
298	1e-06	4e-06	6.5e-08	1e-09
298	1.2e-06	5e-06	8.8e-08	1e-09
298	1.5e-06	1e-06	7.5e-08	1e-09
298	1.5e-06	2.2e-06	6.7e-08	1e-09
298	1.5e-06	6e-06	1.03e-07	1e-09
298	1.6e-06	4e-07	2.4e-08	1e-09
298	1.7e-06	7e-06	1.18e-07	1e-09
298	1.8e-06	1.2e-06	8.7e-08	1e-09
298	2e-06	3e-06	8.3e-08	1e-09
298	2e-06	8e-06	1.3e-07	1e-09
298	2.1e-06	1.4e-06	1e-07	1e-09
298	2.2e-06	9e-06	1.46e-07	1e-09
298	2.4e-06	6e-07	3.1e-08	1e-09
298	2.5e-06	3.7e-06	9.7e-08	1e-09
298	2.5e-06	1e-05	1.68e-07	1e-09
298	2.7e-06	1.8e-06	1.22e-07	1e-09
298	2.7e-06	1.1e-05	1.77e-07	1e-09
298	3e-06	2e-06	1.34e-07	1e-09
298	3e-06	4.5e-06	1.09e-07	1e-09
298	3e-06	1.2e-05	1.91e-07	1e-09
298	3.2e-06	8e-07	4e-08	1e-09
298	3.2e-06	1.3e-05	2.06e-07	1e-09
298	3.3e-06	2.2e-06	1.46e-07	1e-09
298	3.5e-06	5.2e-06	1.27e-07	1e-09
298	3.5e-06	1.39e-05	2.22e-07	1e-09
298	3.6e-06	2.4e-06	1.57e-07	1e-09
298	3.7e-06	1.5e-05	2.49e-07	1e-09
298	3.9e-06	2.6e-06	1.72e-07	1e-09
298	4e-06	1e-06	4.4e-08	1e-09
298	4e-06	6e-06	1.44e-07	1e-09
298	4e-06	1.59e-05	2.67e-07	2e-09
298	4.2e-06	2.8e-06	1.81e-07	1e-09
298	4.2e-06	1.7e-05	2.85e-07	2e-09
298	4.5e-06	3e-06	1.93e-07	1e-09
298	4.5e-06	1.79e-05	3.03e-07	2e-09
298	4.7e-06	1.89e-05	3.26e-07	2e-09
298	4.8e-06	1.2e-06	5.3e-08	1e-09
298	4.8e-06	3.2e-06	2.03e-07	1e-09
298	5e-06	7.5e-06	1.72e-07	1e-09
298	5e-06	1.99e-05	3.35e-07	2e-09
298	5.1e-06	3.4e-06	2.13e-07	1e-09
298	5.2e-06	2.09e-05	3.49e-07	2e-09
298	5.4e-06	3.6e-06	2.27e-07	1e-09
298	5.5e-06	8.2e-06	1.82e-07	1e-09
298	5.5e-06	2.19e-05	3.62e-07	2e-09
298	5.6e-06	1.4e-06	6.2e-08	1e-09
298	5.7e-06	3.8e-06	2.38e-07	1e-09
298	6e-06	9e-06	2e-07	1e-09
298	6e-06	2.38e-05	3.8e-07	2e-09
298	6.2e-06	2.49e-05	3.91e-07	2e-09
298	6.3e-06	4.2e-06	2.67e-07	2e-09
298	6.4e-06	1.6e-06	6.7e-08	1e-09
298	6.5e-06	9.7e-06	2.17e-07	1e-09
298	6.5e-06	2.58e-05	4.12e-07	2e-09
298	6.6e-06	4.4e-06	2.75e-07	2e-09
298	6.7e-06	2.68e-05	4.23e-07	2e-09
298	6.9e-06	4.6e-06	2.86e-07	2e-09
298	7e-06	1.04e-05	2.3e-07	1e-09
298	7.2e-06	1.8e-06	7.5e-08	1e-09
298	7.2e-06	4.8e-06	2.94e-07	2e-09
298	7.5e-06	5e-06	3.11e-07	2e-09
298	7.5e-06	1.12e-05	2.54e-07	1e-09
298	7.8e-06	5.2e-06	3.21e-07	2e-09
298	8e-06	2e-06	8.4e-08	1e-09
298	8.1e-06	5.4e-06	3.28e-07	2e-09
298	8.5e-06	1.27e-05	2.85e-07	2e-09
298	8.7e-06	2.2e-06	9.1e-08	1e-09
298	9e-06	1.34e-05	2.99e-07	2e-09
298	9.4e-06	1.42e-05	3.13e-07	2e-09
298	9.5e-06	2.4e-06	9.8e-08	1e-09
298	1.03e-05	2.6e-06	1.01e-07	1e-09
298	1.04e-05	1.57e-05	3.47e-07	2e-09
298	1.1e-05	1.64e-05	3.54e-07	2e-09
298	1.14e-05	1.72e-05	3.72e-07	2e-09
298	1.19e-05	3e-06	1.09e-07	1e-09
298	1.19e-05	1.79e-05	3.84e-07	2e-09
298	1.24e-05	1.87e-05	4.01e-07	2e-09
298	1.26e-05	3.2e-06	1.14e-07	1e-09
298	1.35e-05	3.4e-06	1.19e-07	1e-09
298	1.42e-05	3.6e-06	1.25e-07	1e-09
298	1.5e-05	3.8e-06	1.31e-07	1e-09
298	1.58e-05	4e-06	1.37e-07	1e-09
298	1.66e-05	4.2e-06	1.47e-07	1e-09
298	1.74e-05	4.4e-06	1.54e-07	1e-09
298	1.82e-05	4.5e-06	1.63e-07	1e-09
298	1.9e-05	4.7e-06	1.74e-07	1e-09
298	1.98e-05	4.9e-06	1.81e-07	1e-09
298	2.06e-05	5.1e-06	1.86e-07	1e-09
298	2.13e-05	5.3e-06	1.93e-07	1e-09
303	2e-07	1e-06	5.7e-08	1e-09
303	3e-07	5e-07	4.9e-08	1e-09
303	5e-07	1.8e-06	1.99e-07	1e-09
303	7e-07	1e-06	1.36e-07	1e-09
303	7e-07	2.8e-06	3.21e-07	2e-09
303	9e-07	3.7e-06	4.17e-07	2e-09
303	1e-06	1.5e-06	2.23e-07	1e-09
303	1.2e-06	4.6e-06	5.14e-07	3e-09
303	1.3e-06	2e-06	2.98e-07	2e-09
303	1.4e-06	5.5e-06	6.03e-07	3e-09
303	1.5e-06	4e-07	1.4e-08	1e-09
303	1.6e-06	2.5e-06	3.71e-07	2e-09
303	1.6e-06	6.4e-06	7.19e-07	4e-09
303	1.8e-06	2.7e-06	4.51e-07	2e-09
303	1.8e-06	7.4e-06	7.83e-07	4e-09
303	2.1e-06	8.2e-06	8.58e-07	5e-09
303	2.3e-06	3.5e-06	5.14e-07	3e-09
303	2.3e-06	9.1e-06	9.49e-07	5e-09
303	2.5e-06	1.7e-06	3.7e-08	1e-09
303	2.5e-06	1e-05	1.022e-06	6e-09
303	2.6e-06	4e-06	5.8e-07	3e-09
303	2.7e-06	1.09e-05	1.083e-06	6e-09
303	2.9e-06	1.18e-05	1.173e-06	6e-09
303	3e-06	7e-07	3.9e-08	1e-09
303	3.2e-06	1.26e-05	1.239e-06	7e-09
303	3.3e-06	4.9e-06	7e-07	4e-09
303	3.4e-06	1.35e-05	1.295e-06	7e-09
303	3.6e-06	5.4e-06	7.5e-07	4e-09
303	3.6e-06	1.44e-05	1.382e-06	7e-09
303	3.8e-06	1.53e-05	1.432e-06	8e-09
303	3.9e-06	5.9e-06	8.19e-07	4e-09
303	4e-06	1.62e-05	1.52e-06	8e-09
303	4.2e-06	6.4e-06	8.72e-07	5e-09
303	4.2e-06	1.7e-05	1.559e-06	8e-09
303	4.5e-06	1.1e-06	5.5e-08	1e-09
303	4.5e-06	1.78e-05	1.657e-06	9e-09
303	4.6e-06	6.8e-06	9.25e-07	5e-09
303	4.7e-06	1.87e-05	1.714e-06	9e-09
303	4.9e-06	7.3e-06	9.96e-07	5e-09
303	4.9e-06	1.95e-05	1.779e-06	1e-08
303	5e-06	3.3e-06	8.3e-08	1e-09
303	5.5e-06	8.3e-06	1.098e-06	6e-09
303	5.8e-06	8.8e-06	1.164e-06	6e-09
303	6e-06	1.5e-06	7.4e-08	1e-09
303	6.1e-06	9.2e-06	1.219e-06	7e-09
303	6.8e-06	1.01e-05	1.321e-06	7e-09
303	7.1e-06	1.06e-05	1.375e-06	7e-09
303	7.5e-06	1.9e-06	9.1e-08	1e-09
303	7.5e-06	5e-06	1.25e-07	1e-09
303	9e-06	2.2e-06	1.11e-07	1e-09
303	1.05e-05	2.6e-06	1.27e-07	1e-09
303	1.2e-05	3e-06	1.44e-07	1e-09
303	1.24e-05	8.3e-06	2.04e-07	1e-09
303	1.34e-05	3.4e-06	1.62e-07	1e-09
303	1.49e-05	1e-05	2.43e-07	1e-09
303	1.5e-05	3.7e-06	1.88e-07	1e-09
303	1.64e-05	4.1e-06	2.05e-07	1e-09
303	1.74e-05	1.16e-05	2.83e-07	2e-09
303	1.79e-05	4.5e-06	2.2e-07	1e-09
303	1.94e-05	4.9e-06	2.32e-07	1e-09
303	2.23e-05	1.49e-05	3.52e-07	2e-09
303	2.24e-05	5.6e-06	2.62e-07	2e-09
303	2.38e-05	6e-06	2.77e-07	2e-09
303	2.48e-05	1.65e-05	3.89e-07	2e-09
303	2.54e-05	6.3e-06	2.92e-07	2e-09
303	2.68e-05	6.7e-06	3.07e-07	2e-09
303	2.72e-05	1.82e-05	4.19e-07	2e-09
303	2.83e-05	7.1e-06	3.24e-07	2e-09
303	2.97e-05	1.98e-05	4.5e-07	2e-09
303	2.98e-05	7.4e-06	3.45e-07	2e-09
303	3.13e-05	7.8e-06	3.68e-07	2e-09
303	3.22e-05	2.14e-05	4.79e-07	3e-09
303	3.27e-05	8.2e-06	3.83e-07	2e-09
303	3.42e-05	8.6e-06	3.96e-07	2e-09
303	3.46e-05	2.31e-05	5.16e-07	3e-09
303	3.7e-05	2.47e-05	5.44e-07	3e-09
303	3.95e-05	2.63e-05	5.78e-07	3e-09
303	4.19e-05	2.79e-05	6.11e-07	3e-09
303	4.43e-05	2.96e-05	6.41e-07	4e-09
303	4.67e-05	3.12e-05	6.66e-07	4e-09
303	5.16e-05	3.44e-05	7.27e-07	4e-09
303	5.4e-05	3.6e-05	7.63e-07	4e-09
303	5.64e-05	3.76e-05	7.93e-07	4e-09
303	5.88e-05	3.92e-05	8.29e-07	5e-09
308	3.4e-06	8e-07	3.9e-08	1e-09
308	4.6e-06	7e-06	1.08e-07	1e-09
308	5e-06	3.3e-06	9.3e-08	1e-09
308	6.6e-06	1.7e-06	9.6e-08	1e-09
308	6.6e-06	2.65e-05	4.32e-07	2e-09
308	9.3e-06	1.39e-05	2.05e-07	1e-09
308	1e-05	2.5e-06	1.33e-07	1e-09
308	1e-05	6.6e-06	1.82e-07	1e-09
308	1.32e-05	5.26e-05	7.94e-07	4e-09
308	1.33e-05	3.3e-06	1.73e-07	1e-09
308	1.39e-05	2.09e-05	3.25e-07	2e-09
308	1.49e-05	1e-05	2.55e-07	1e-09
308	1.66e-05	4.1e-06	2.08e-07	1e-09
308	1.85e-05	2.77e-05	4.41e-07	2e-09
308	1.96e-05	7.84e-05	1.063e-06	6e-09
308	1.99e-05	5e-06	2.39e-07	1e-09
308	2.31e-05	3.46e-05	5.3e-07	3e-09
308	2.32e-05	5.8e-06	2.92e-07	2e-09
308	2.48e-05	1.65e-05	4.13e-07	2e-09
308	2.6e-05	0.0001039	1.343e-06	7e-09
308	2.65e-05	6.6e-06	3.08e-07	2e-09
308	2.76e-05	4.14e-05	6.2e-07	3e-09
308	2.97e-05	1.98e-05	4.86e-07	3e-09
308	2.98e-05	7.4e-06	3.5e-07	2e-09
308	3.22e-05	4.82e-05	7.27e-07	4e-09
308	3.23e-05	0.000129	1.604e-06	9e-09
308	3.3e-05	8.3e-06	4.01e-07	2e-09
308	3.46e-05	2.31e-05	5.52e-07	3e-09
308	3.63e-05	9.1e-06	4.34e-07	2e-09
308	3.66e-05	5.5e-05	8.11e-07	4e-09
308	3.85e-05	0.0001538	1.788e-06	1e-08
308	3.96e-05	9.9e-06	4.65e-07	3e-09
308	4.29e-05	1.07e-05	4.99e-07	3e-09
308	4.43e-05	2.96e-05	6.83e-07	4e-09
308	4.46e-05	0.0001783	2.001e-06	1.1e-08
308	4.56e-05	6.84e-05	9.92e-07	5e-09
308	4.92e-05	3.28e-05	7.42e-07	4e-09
308	4.94e-05	1.23e-05	5.64e-07	3e-09
308	5e-05	7.51e-05	1.085e-06	6e-09
308	5.06e-05	0.0002026	2.188e-06	1.2e-08
308	5.26e-05	1.32e-05	5.89e-07	3e-09
308	5.4e-05	3.6e-05	8.09e-07	4e-09
308	5.45e-05	8.17e-05	1.172e-06	6e-09
308	5.58e-05	1.4e-05	6.2e-07	3e-09
308	5.66e-05	0.0002264	2.363e-06	1.3e-08
308	5.88e-05	3.92e-05	8.71e-07	5e-09
308	5.89e-05	8.83e-05	1.222e-06	7e-09
308	5.91e-05	1.48e-05	6.54e-07	4e-09
308	6.23e-05	1.56e-05	6.78e-07	4e-09
308	6.25e-05	0.00025	2.509e-06	1.4e-08
308	6.33e-05	9.49e-05	1.283e-06	7e-09
308	6.36e-05	4.24e-05	9.41e-07	5e-09
308	6.56e-05	1.64e-05	7.14e-07	4e-09
308	6.76e-05	0.0001015	1.346e-06	7e-09
308	6.83e-05	0.0002733	2.688e-06	1.5e-08
308	6.84e-05	4.56e-05	1.008e-06	5e-09
308	6.88e-05	1.72e-05	7.41e-07	4e-09
308	7.2e-05	1.8e-05	7.78e-07	4e-09
308	7.32e-05	4.88e-05	1.067e-06	6e-09
308	7.41e-05	0.0002963	2.833e-06	1.5e-08
308	7.63e-05	0.0001145	1.537e-06	8e-09
308	7.79e-05	5.2e-05	1.12e-06	6e-09
308	7.98e-05	0.000319	2.992e-06	1.6e-08
308	8.06e-05	0.0001209	1.588e-06	9e-09
308	8.27e-05	5.51e-05	1.184e-06	6e-09
308	8.49e-05	0.0001274	1.674e-06	9e-09
308	8.54e-05	0.0003414	3.208e-06	1.7e-08
308	8.74e-05	5.82e-05	1.237e-06	7e-09
308	9.09e-05	0.0003636	3.35e-06	1.8e-08
308	9.21e-05	6.14e-05	1.277e-06	7e-09
308	9.34e-05	0.0001402	1.824e-06	1e-08
308	9.64e-05	0.0003855	3.551e-06	1.9e-08
308	0.0001015	6.76e-05	1.369e-06	7e-09
308	0.0001018	0.0004072	3.675e-06	2e-08
308	0.0001061	7.07e-05	1.422e-06	8e-09
308	0.0001071	0.0004286	3.805e-06	2.1e-08
308	0.0001108	7.38e-05	1.49e-06	8e-09
308	0.0001124	0.0004497	3.94e-06	2.1e-08
308	0.0001154	7.69e-05	1.553e-06	8e-09
308	0.0001176	0.0004706	4.129e-06	2.2e-08
308	0.00012	8e-05	1.616e-06	9e-09
308	0.0001228	0.0004912	4.29e-06	2.3e-08
308	0.0001246	8.31e-05	1.678e-06	9e-09
308	0.0001279	0.0005116	4.448e-06	2.4e-08
308	0.0001379	0.0005518	4.703e-06	2.5e-08
308	0.0001429	0.0005714	4.824e-06	2.6e-08
313	2e-06	5e-07	2.5e-08	1e-09
313	4e-06	1e-06	8e-08	1e-09
313	4e-06	2.7e-06	9.9e-08	1e-09
313	4.6e-06	7e-06	1.8e-07	1e-09
313	5e-06	1.99e-05	3.32e-07	2e-09
313	6e-06	1.5e-06	1.02e-07	1e-09
313	8e-06	2e-06	1.46e-07	1e-09
313	8e-06	5.3e-06	1.88e-07	1e-09
313	9.3e-06	1.39e-05	3.69e-07	2e-09
313	9.9e-06	3.96e-05	7.16e-07	4e-09
313	1e-05	2.5e-06	1.71e-07	1e-09
313	1.19e-05	8e-06	2.65e-07	2e-09
313	1.2e-05	3e-06	1.99e-07	1e-09
313	1.39e-05	3.5e-06	2.36e-07	1e-09
313	1.39e-05	2.09e-05	5.32e-07	3e-09
313	1.48e-05	5.91e-05	9.67e-07	5e-09
313	1.59e-05	4e-06	2.67e-07	2e-09
313	1.79e-05	4.5e-06	2.95e-07	2e-09
313	1.85e-05	2.77e-05	6.78e-07	4e-09
313	1.96e-05	7.84e-05	1.197e-06	6e-09
313	1.99e-05	5e-06	3.23e-07	2e-09
313	1.99e-05	1.32e-05	4.21e-07	2e-09
313	2.19e-05	5.5e-06	3.51e-07	2e-09
313	2.31e-05	3.46e-05	8.15e-07	4e-09
313	2.38e-05	6e-06	3.92e-07	2e-09
313	2.38e-05	1.59e-05	4.9e-07	3e-09
313	2.44e-05	9.76e-05	1.393e-06	8e-09
313	2.58e-05	6.5e-06	4.28e-07	2e-09
313	2.76e-05	4.14e-05	9.46e-07	5e-09
313	2.77e-05	1.85e-05	5.81e-07	3e-09
313	2.91e-05	0.0001165	1.59e-06	9e-09
313	2.98e-05	7.4e-06	4.77e-07	3e-09
313	3.18e-05	7.9e-06	4.95e-07	3e-09
313	3.21e-05	4.82e-05	1.068e-06	6e-09
313	3.37e-05	8.4e-06	5.34e-07	3e-09
313	3.38e-05	0.0001353	1.809e-06	1e-08
313	3.56e-05	2.37e-05	7.1e-07	4e-09
313	3.57e-05	8.9e-06	5.68e-07	3e-09
313	3.66e-05	5.5e-05	1.197e-06	6e-09
313	3.76e-05	9.4e-06	5.95e-07	3e-09
313	3.85e-05	0.0001538	1.995e-06	1.1e-08
313	3.95e-05	2.63e-05	7.76e-07	4e-09
313	3.96e-05	9.9e-06	6.15e-07	3e-09
313	4.16e-05	1.04e-05	6.33e-07	3e-09
313	4.31e-05	0.0001722	2.175e-06	1.2e-08
313	4.34e-05	2.89e-05	8.54e-07	5e-09
313	4.35e-05	1.09e-05	6.58e-07	4e-09
313	4.54e-05	1.14e-05	6.81e-07	4e-09
313	4.56e-05	6.84e-05	1.415e-06	8e-09
313	4.72e-05	3.15e-05	9.21e-07	5e-09
313	4.74e-05	1.19e-05	7.06e-07	4e-09
313	4.76e-05	0.0001905	2.35e-06	1.3e-08
313	4.94e-05	1.23e-05	7.31e-07	4e-09
313	5e-05	7.51e-05	1.548e-06	8e-09
313	5.11e-05	3.41e-05	9.85e-07	5e-09
313	5.21e-05	0.0002085	2.473e-06	1.3e-08
313	5.45e-05	8.17e-05	1.657e-06	9e-09
313	5.5e-05	3.66e-05	1.041e-06	6e-09
313	5.66e-05	0.0002264	2.665e-06	1.4e-08
313	5.88e-05	3.92e-05	1.11e-06	6e-09
313	5.89e-05	8.83e-05	1.752e-06	9e-09
313	6.1e-05	0.0002442	2.815e-06	1.5e-08
313	6.26e-05	4.18e-05	1.174e-06	6e-09
313	6.33e-05	9.49e-05	1.86e-06	1e-08
313	6.54e-05	0.0002617	2.917e-06	1.6e-08
313	6.65e-05	4.43e-05	1.228e-06	7e-09
313	6.76e-05	0.0001015	1.987e-06	1.1e-08
313	6.98e-05	0.000279	3.137e-06	1.7e-08
313	7.03e-05	4.69e-05	1.287e-06	7e-09
313	7.41e-05	4.94e-05	1.354e-06	7e-09
313	7.41e-05	0.0002963	3.278e-06	1.8e-08
313	7.63e-05	0.0001145	2.213e-06	1.2e-08
313	7.83e-05	0.0003134	3.409e-06	1.8e-08
313	8.06e-05	0.0001209	2.312e-06	1.3e-08
313	8.17e-05	5.45e-05	1.484e-06	8e-09
313	8.26e-05	0.0003302	3.538e-06	1.9e-08
313	8.49e-05	0.0001274	2.423e-06	1.3e-08
313	8.55e-05	5.7e-05	1.54e-06	8e-09
313	8.68e-05	0.000347	3.603e-06	1.9e-08
313	8.93e-05	5.95e-05	1.616e-06	9e-09
313	9.09e-05	0.0003636	3.781e-06	2e-08
313	9.3e-05	6.2e-05	1.671e-06	9e-09
313	9.34e-05	0.0001402	2.607e-06	1.4e-08
313	9.5e-05	0.0003801	3.923e-06	2.1e-08
313	9.68e-05	6.45e-05	1.727e-06	9e-09
313	9.76e-05	0.0001465	2.649e-06	1.4e-08
313	9.91e-05	0.0003964	4.042e-06	2.2e-08
313	0.0001019	0.0001528	2.723e-06	1.5e-08
313	0.0001061	0.0001591	2.831e-06	1.5e-08
313	0.0001071	0.0004286	4.34e-06	2.3e-08
313	0.0001102	0.0001654	2.924e-06	1.6e-08

System: sodium p-toluenesulfonate + water + N1,N4-dihexadecyl-N1,N1,N4,N4-tetramethylbutane-1,4-diaminium bromide; phases: Liquid
Fixed: Pressure, kPa = 101
Property: Electrical conductivity, S/m (Liquid); method: Dip Cell
Temperature, K	Amount concentration (molarity), mol/dm3 of sodium p-toluenesulfonate	Amount concentration (molarity), mol/dm3 of N1,N4-dihexadecyl-N1,N1,N4,N4-tetramethylbutane-1,4-diaminium bromide	Electrical conductivity, S/m	uncertainty
298	4e-07	1.6e-06	5.7e-08	3e-09
298	5e-07	1e-07	3e-09	3e-09
298	5e-07	3e-07	2.7e-08	3e-09
298	6e-07	9e-07	3e-08	2e-09
298	8e-07	3.2e-06	8.2e-08	9e-09
298	9e-07	6e-07	3.1e-08	1e-09
298	1e-06	2e-07	8e-09	3e-09
298	1.2e-06	1.8e-06	5.2e-08	1e-09
298	1.2e-06	4.8e-06	1.08e-07	8e-09
298	1.3e-06	9e-07	3.8e-08	1e-09
298	1.4e-06	4e-07	2.1e-08	2e-09
298	1.6e-06	6.4e-06	1.29e-07	2e-09
298	1.8e-06	1.2e-06	4.5e-08	4e-09
298	1.8e-06	2.7e-06	7.8e-08	4e-09
298	1.9e-06	5e-07	3.1e-08	4e-09
298	2e-06	8e-06	1.48e-07	2e-09
298	2.2e-06	1.5e-06	5.2e-08	2e-09
298	2.4e-06	6e-07	4.2e-08	1e-09
298	2.4e-06	3.6e-06	9.5e-08	3e-09
298	2.4e-06	9.6e-06	1.74e-07	1e-09
298	2.7e-06	1.8e-06	6e-08	2e-09
298	2.8e-06	1.11e-05	2.01e-07	2e-09
298	2.9e-06	7e-07	5.2e-08	1e-09
298	3e-06	4.5e-06	1.11e-07	4e-09
298	3.1e-06	2.1e-06	7.3e-08	4e-09
298	3.2e-06	1.27e-05	2.46e-07	5e-09
298	3.4e-06	8e-07	6.2e-08	2e-09
298	3.6e-06	2.4e-06	7.9e-08	5e-09
298	3.6e-06	5.4e-06	1.26e-07	7e-09
298	3.6e-06	1.43e-05	2.65e-07	4e-09
298	3.8e-06	1e-06	7e-08	2e-09
298	4e-06	2.7e-06	8.7e-08	4e-09
298	4e-06	1.59e-05	2.9e-07	4e-09
298	4.2e-06	6.3e-06	1.42e-07	6e-09
298	4.3e-06	1.1e-06	7.9e-08	1e-09
298	4.4e-06	1.74e-05	3.12e-07	3e-09
298	4.5e-06	3e-06	9.5e-08	5e-09
298	4.8e-06	1.2e-06	9e-08	1e-09
298	4.8e-06	7.2e-06	1.57e-07	7e-09
298	4.8e-06	1.9e-05	3.43e-07	5e-09
298	4.9e-06	3.3e-06	1.02e-07	4e-09
298	5.2e-06	2.06e-05	3.68e-07	6e-09
298	5.3e-06	1.3e-06	9.5e-08	1e-09
298	5.4e-06	3.6e-06	1.09e-07	5e-09
298	5.4e-06	8e-06	1.71e-07	7e-09
298	5.5e-06	2.22e-05	3.87e-07	5e-09
298	5.8e-06	1.4e-06	1.01e-07	1e-09
298	5.8e-06	3.9e-06	1.15e-07	5e-09
298	5.9e-06	2.38e-05	4.1e-07	5e-09
298	6e-06	8.9e-06	1.85e-07	7e-09
298	6.2e-06	1.6e-06	1.16e-07	1e-09
298	6.3e-06	4.2e-06	1.2e-07	7e-09
298	6.3e-06	2.54e-05	4.27e-07	8e-09
298	6.7e-06	1.7e-06	1.26e-07	2e-09
298	6.7e-06	4.5e-06	1.27e-07	7e-09
298	6.7e-06	2.69e-05	4.35e-07	6e-09
298	7.1e-06	2.85e-05	4.51e-07	4e-09
298	7.2e-06	1.8e-06	1.32e-07	2e-09
298	7.2e-06	4.8e-06	1.35e-07	5e-09
298	7.2e-06	1.07e-05	2.2e-07	7e-09
298	7.5e-06	3e-05	4.82e-07	4e-09
298	7.6e-06	5.1e-06	1.47e-07	3e-09
298	7.7e-06	1.9e-06	1.4e-07	1e-09
298	7.8e-06	1.16e-05	2.38e-07	9e-09
298	7.9e-06	3.16e-05	5.01e-07	4e-09
298	8e-06	5.4e-06	1.56e-07	5e-09
298	8.2e-06	2e-06	1.45e-07	2e-09
298	8.3e-06	3.31e-05	5.17e-07	4e-09
298	8.4e-06	1.25e-05	2.52e-07	9e-09
298	8.5e-06	5.7e-06	1.64e-07	4e-09
298	8.6e-06	2.2e-06	1.52e-07	2e-09
298	8.9e-06	6e-06	1.72e-07	5e-09
298	8.9e-06	1.34e-05	2.63e-07	1e-08
298	9.1e-06	2.3e-06	1.59e-07	2e-09
298	9.4e-06	6.3e-06	1.78e-07	4e-09
298	9.5e-06	1.43e-05	2.77e-07	1.1e-08
298	9.6e-06	2.4e-06	1.66e-07	2e-09
298	9.8e-06	6.6e-06	1.83e-07	5e-09
298	1e-05	2.5e-06	1.73e-07	2e-09
298	1.01e-05	1.52e-05	2.94e-07	1e-08
298	1.03e-05	6.9e-06	1.89e-07	5e-09
298	1.05e-05	2.6e-06	1.85e-07	2e-09
298	1.07e-05	7.2e-06	1.94e-07	5e-09
298	1.07e-05	1.61e-05	3.08e-07	1.1e-08
298	1.1e-05	2.7e-06	1.9e-07	2e-09
298	1.12e-05	7.4e-06	2.02e-07	1e-09
298	1.13e-05	1.69e-05	3.23e-07	1.2e-08
298	1.14e-05	2.9e-06	1.96e-07	3e-09
298	1.16e-05	7.8e-06	2.08e-07	5e-09
298	1.19e-05	3e-06	2.06e-07	3e-09
298	1.19e-05	1.78e-05	3.41e-07	1.2e-08
298	1.25e-05	1.87e-05	3.55e-07	1.5e-08
298	1.3e-05	1.96e-05	3.69e-07	1.4e-08
298	1.36e-05	2.05e-05	3.79e-07	1.9e-08
298	1.42e-05	2.14e-05	3.83e-07	2.3e-08
298	1.48e-05	2.22e-05	4.13e-07	1.9e-08
298	1.54e-05	2.31e-05	4.24e-07	2e-08
303	6e-07	1e-07	1.4e-08	1e-09
303	8e-07	3.2e-06	3.8e-08	6e-09
303	9e-07	6e-07	3.2e-08	2e-09
303	1e-06	3e-07	2.5e-08	1e-09
303	1e-06	1.5e-06	5.5e-08	1e-09
303	1.6e-06	4e-07	3.4e-08	1e-09
303	1.6e-06	6.4e-06	1.18e-07	2e-09
303	1.8e-06	1.2e-06	6.6e-08	1e-09
303	2e-06	3e-06	9.7e-08	2e-09
303	2.2e-06	5e-07	4e-08	1e-09
303	2.4e-06	9.6e-06	1.72e-07	1e-09
303	2.6e-06	7e-07	5.1e-08	1e-09
303	2.7e-06	1.8e-06	7.1e-08	2e-09
303	3e-06	4.5e-06	1.3e-07	2e-09
303	3.2e-06	8e-07	6.7e-08	1e-09
303	3.2e-06	1.27e-05	2.2e-07	3e-09
303	3.6e-06	2.4e-06	1.03e-07	1e-09
303	3.7e-06	9e-07	7.5e-08	1e-09
303	4e-06	6e-06	1.69e-07	1e-09
303	4e-06	1.59e-05	2.74e-07	2e-09
303	4.2e-06	1.1e-06	8.2e-08	1e-09
303	4.5e-06	3e-06	1.23e-07	2e-09
303	4.8e-06	1.2e-06	9e-08	1e-09
303	4.8e-06	1.9e-05	3.21e-07	3e-09
303	5e-06	7.4e-06	1.96e-07	1e-09
303	5.3e-06	1.3e-06	9.8e-08	1e-09
303	5.4e-06	3.6e-06	1.39e-07	1e-09
303	5.5e-06	2.22e-05	3.64e-07	3e-09
303	5.8e-06	1.5e-06	1.06e-07	1e-09
303	6e-06	8.9e-06	2.23e-07	1e-09
303	6.3e-06	1.6e-06	1.14e-07	1e-09
303	6.3e-06	4.2e-06	1.55e-07	5e-09
303	6.3e-06	2.54e-05	3.88e-07	2e-09
303	6.9e-06	1.7e-06	1.21e-07	1e-09
303	7e-06	1.04e-05	2.5e-07	2e-09
303	7.1e-06	2.85e-05	4.35e-07	3e-09
303	7.2e-06	4.8e-06	1.72e-07	1e-09
303	7.4e-06	1.8e-06	1.29e-07	1e-09
303	7.9e-06	2e-06	1.36e-07	1e-09
303	7.9e-06	3.16e-05	4.84e-07	3e-09
303	8e-06	5.4e-06	1.87e-07	2e-09
303	8e-06	1.19e-05	2.88e-07	2e-09
303	8.5e-06	2.1e-06	1.44e-07	1e-09
303	8.7e-06	3.47e-05	5.15e-07	3e-09
303	8.9e-06	6e-06	2.02e-07	1e-09
303	8.9e-06	1.34e-05	3.14e-07	2e-09
303	9e-06	2.2e-06	1.51e-07	1e-09
303	9.4e-06	3.78e-05	5.51e-07	3e-09
303	9.5e-06	2.4e-06	1.58e-07	1e-09
303	9.8e-06	6.6e-06	2.16e-07	2e-09
303	1e-05	2.5e-06	1.67e-07	1e-09
303	1e-05	1.49e-05	3.4e-07	2e-09
303	1.02e-05	4.09e-05	5.86e-07	1e-08
303	1.06e-05	2.6e-06	1.75e-07	1e-09
303	1.07e-05	7.2e-06	2.33e-07	1e-09
303	1.1e-05	2.8e-06	1.82e-07	2e-09
303	1.1e-05	4.4e-05	6.22e-07	7e-09
303	1.16e-05	2.9e-06	1.89e-07	2e-09
303	1.16e-05	7.8e-06	2.47e-07	3e-09
303	1.18e-05	4.7e-05	6.44e-07	1.1e-08
303	1.19e-05	1.78e-05	3.99e-07	3e-09
303	1.21e-05	3e-06	1.96e-07	2e-09
303	1.25e-05	8.4e-06	2.6e-07	2e-09
303	1.25e-05	5.02e-05	6.78e-07	1.1e-08
303	1.29e-05	1.93e-05	4.37e-07	4e-09
303	1.33e-05	5.32e-05	7.18e-07	1.2e-08
303	1.34e-05	8.9e-06	2.75e-07	3e-09
303	1.38e-05	2.08e-05	4.75e-07	3e-09
303	1.41e-05	5.62e-05	7.5e-07	1.3e-08
303	1.43e-05	9.5e-06	2.88e-07	8e-09
303	1.48e-05	2.22e-05	5.06e-07	3e-09
303	1.48e-05	5.93e-05	7.79e-07	1.5e-08
303	1.52e-05	1.01e-05	3e-07	7e-09
303	1.56e-05	6.23e-05	8e-07	1.3e-08
303	1.58e-05	2.37e-05	5.33e-07	3e-09
303	1.61e-05	1.07e-05	3.13e-07	7e-09
303	1.63e-05	6.54e-05	8.48e-07	1e-08
303	1.68e-05	2.51e-05	5.58e-07	1.5e-08
303	1.69e-05	1.13e-05	3.24e-07	7e-09
303	1.71e-05	6.84e-05	8.68e-07	1.7e-08
303	1.77e-05	2.66e-05	5.83e-07	5e-09
303	1.78e-05	1.19e-05	3.42e-07	8e-09
303	1.79e-05	7.14e-05	9.03e-07	1.5e-08
303	1.87e-05	1.25e-05	3.61e-07	9e-09
303	1.87e-05	2.81e-05	6.06e-07	2.2e-08
303	1.96e-05	1.3e-05	3.76e-07	9e-09
303	1.97e-05	2.95e-05	6.36e-07	1.1e-08
303	2.05e-05	1.36e-05	3.89e-07	9e-09
303	2.06e-05	3.1e-05	6.61e-07	1.7e-08
303	2.16e-05	3.24e-05	6.96e-07	1.7e-08
303	2.26e-05	3.38e-05	7.14e-07	2.1e-08
303	2.35e-05	3.53e-05	7.35e-07	2.1e-08
303	2.45e-05	3.67e-05	7.49e-07	1.9e-08
303	2.54e-05	3.82e-05	7.84e-07	2.3e-08
303	2.64e-05	3.96e-05	8.05e-07	2.3e-08
308	6e-07	2e-07	6e-09	1e-09
308	1.4e-06	3e-07	2.5e-08	1e-09
308	1.8e-06	1.2e-06	4.5e-08	3e-09
308	2e-06	5e-07	3.6e-08	1e-09
308	2e-06	3e-06	7.6e-08	5e-09
308	2e-06	8e-06	1.4e-07	1e-09
308	2.6e-06	7e-07	5.1e-08	1e-09
308	3.3e-06	8e-07	5.9e-08	1e-09
308	3.6e-06	2.4e-06	8e-08	2e-09
308	4e-06	1e-06	7.7e-08	1e-09
308	4e-06	6e-06	1.35e-07	5e-09
308	4e-06	1.59e-05	2.73e-07	2e-09
308	4.6e-06	1.2e-06	8.8e-08	1e-09
308	5.3e-06	1.3e-06	1.05e-07	1e-09
308	5.4e-06	3.6e-06	1.11e-07	3e-09
308	5.9e-06	1.5e-06	1.16e-07	1e-09
308	5.9e-06	2.38e-05	3.95e-07	4e-09
308	6e-06	8.9e-06	1.89e-07	4e-09
308	6.6e-06	1.7e-06	1.29e-07	1e-09
308	7.2e-06	4.8e-06	1.42e-07	3e-09
308	7.3e-06	1.8e-06	1.38e-07	3e-09
308	7.9e-06	2e-06	1.45e-07	3e-09
308	7.9e-06	3.16e-05	5.15e-07	8e-09
308	8e-06	1.19e-05	2.45e-07	5e-09
308	8.6e-06	2.1e-06	1.56e-07	5e-09
308	8.9e-06	6e-06	1.72e-07	3e-09
308	9.2e-06	2.3e-06	1.69e-07	5e-09
308	9.8e-06	2.5e-06	1.8e-07	5e-09
308	9.8e-06	3.94e-05	6.12e-07	1.2e-08
308	9.9e-06	1.49e-05	3.02e-07	4e-09
308	1.06e-05	2.6e-06	1.95e-07	6e-09
308	1.07e-05	7.2e-06	1.98e-07	2e-09
308	1.12e-05	2.8e-06	2.06e-07	6e-09
308	1.18e-05	3e-06	2.2e-07	6e-09
308	1.18e-05	4.7e-05	6.95e-07	1.5e-08
308	1.19e-05	1.78e-05	3.59e-07	4e-09
308	1.25e-05	3.1e-06	2.31e-07	7e-09
308	1.25e-05	8.4e-06	2.26e-07	2e-09
308	1.31e-05	3.3e-06	2.43e-07	6e-09
308	1.37e-05	5.47e-05	7.93e-07	1.6e-08
308	1.38e-05	2.08e-05	4.12e-07	4e-09
308	1.43e-05	9.5e-06	2.51e-07	2e-09
308	1.56e-05	6.23e-05	8.7e-07	1.9e-08
308	1.58e-05	2.37e-05	4.62e-07	5e-09
308	1.61e-05	1.07e-05	2.79e-07	2e-09
308	1.75e-05	6.99e-05	9.59e-07	2.2e-08
308	1.77e-05	2.66e-05	5.08e-07	5e-09
308	1.78e-05	1.19e-05	3.04e-07	2e-09
308	1.94e-05	7.74e-05	1.032e-06	2e-08
308	1.96e-05	1.3e-05	3.3e-07	2e-09
308	1.97e-05	2.95e-05	5.44e-07	5e-09
308	2.12e-05	8.49e-05	1.105e-06	2.8e-08
308	2.14e-05	1.42e-05	3.55e-07	3e-09
308	2.31e-05	1.54e-05	3.78e-07	1.5e-08
308	2.31e-05	9.23e-05	1.181e-06	2.9e-08
308	2.35e-05	3.53e-05	6.31e-07	6e-09
308	2.48e-05	1.66e-05	3.9e-07	1.4e-08
308	2.49e-05	9.97e-05	1.249e-06	3.3e-08
308	2.54e-05	3.82e-05	6.73e-07	5e-09
308	2.66e-05	1.77e-05	4.3e-07	1.7e-08
308	2.68e-05	0.000107	1.315e-06	5.1e-08
308	2.74e-05	4.1e-05	7.26e-07	4e-09
308	2.83e-05	1.89e-05	4.55e-07	1.7e-08
308	2.86e-05	0.0001143	1.384e-06	5.4e-08
308	2.93e-05	4.39e-05	7.63e-07	2.5e-08
308	3.01e-05	2e-05	4.77e-07	1.7e-08
308	3.04e-05	0.0001215	1.44e-06	6.3e-08
308	3.12e-05	4.67e-05	8.03e-07	2.9e-08
308	3.18e-05	2.12e-05	4.99e-07	2e-08
308	3.22e-05	0.0001287	1.51e-06	6.4e-08
308	3.31e-05	4.96e-05	8.31e-07	3e-08
308	3.35e-05	2.24e-05	5.25e-07	2.1e-08
308	3.4e-05	0.0001358	1.589e-06	6.8e-08
308	3.5e-05	5.24e-05	8.75e-07	3.1e-08
308	3.53e-05	2.35e-05	5.47e-07	2.2e-08
308	3.57e-05	0.000143	1.653e-06	6.8e-08
308	3.68e-05	5.53e-05	9.19e-07	3e-08
308	3.7e-05	2.47e-05	5.72e-07	2.2e-08
308	3.87e-05	5.81e-05	9.69e-07	3.3e-08
308	3.88e-05	2.58e-05	5.96e-07	2.3e-08
308	4.04e-05	2.7e-05	6.19e-07	2.4e-08
308	4.06e-05	6.08e-05	1.008e-06	2.3e-08
308	4.24e-05	6.37e-05	1.052e-06	2.3e-08
308	4.43e-05	6.65e-05	1.086e-06	2.6e-08
308	4.62e-05	6.92e-05	1.127e-06	2.5e-08
308	4.8e-05	7.2e-05	1.159e-06	2.7e-08
308	4.98e-05	7.48e-05	1.201e-06	3.6e-08
313	8e-07	2e-07	1.8e-08	2e-09
313	1.5e-06	1e-06	3e-08	1e-09
313	1.6e-06	4e-07	3e-08	1e-09
313	2e-06	3e-06	4.6e-08	6e-09
313	2e-06	8e-06	1.4e-07	1e-09
313	2.4e-06	6e-07	4.9e-08	1e-09
313	3e-06	2e-06	6e-08	2e-09
313	3.2e-06	8e-07	6.5e-08	2e-09
313	4e-06	1e-06	7.8e-08	1e-09
313	4e-06	6e-06	1.21e-07	1e-09
313	4e-06	1.59e-05	2.83e-07	3e-09
313	4.5e-06	3e-06	8.8e-08	2e-09
313	4.8e-06	1.2e-06	9.7e-08	1e-09
313	5.6e-06	1.4e-06	1.11e-07	1e-09
313	5.9e-06	2.38e-05	4.29e-07	7e-09
313	6e-06	4e-06	1.2e-07	1e-09
313	6e-06	8.9e-06	1.83e-07	1e-09
313	6.3e-06	1.6e-06	1.21e-07	2e-09
313	7.1e-06	1.8e-06	1.55e-07	3e-09
313	7.4e-06	5e-06	1.49e-07	1e-09
313	7.9e-06	2e-06	1.69e-07	6e-09
313	7.9e-06	3.16e-05	5.58e-07	9e-09
313	8e-06	1.19e-05	2.42e-07	7e-09
313	8.7e-06	2.2e-06	1.95e-07	7e-09
313	8.9e-06	6e-06	1.76e-07	1e-09
313	9.5e-06	2.4e-06	2.1e-07	7e-09
313	9.8e-06	3.94e-05	6.78e-07	1.4e-08
313	9.9e-06	1.49e-05	3.08e-07	3e-09
313	1.02e-05	2.6e-06	2.26e-07	8e-09
313	1.04e-05	7e-06	2.09e-07	5e-09
313	1.1e-05	2.8e-06	2.42e-07	8e-09
313	1.18e-05	3e-06	2.55e-07	7e-09
313	1.18e-05	4.7e-05	7.92e-07	2e-08
313	1.19e-05	8e-06	2.38e-07	9e-09
313	1.19e-05	1.78e-05	3.67e-07	4e-09
313	1.26e-05	3.1e-06	2.7e-07	7e-09
313	1.34e-05	3.3e-06	2.83e-07	7e-09
313	1.34e-05	8.9e-06	2.66e-07	8e-09
313	1.37e-05	5.47e-05	8.92e-07	2e-08
313	1.38e-05	2.08e-05	4.41e-07	5e-09
313	1.42e-05	3.5e-06	3.02e-07	7e-09
313	1.49e-05	3.7e-06	3.16e-07	6e-09
313	1.49e-05	9.9e-06	2.9e-07	6e-09
313	1.56e-05	6.23e-05	9.86e-07	2.4e-08
313	1.57e-05	3.9e-06	3.27e-07	8e-09
313	1.58e-05	2.37e-05	4.87e-07	6e-09
313	1.64e-05	1.09e-05	3.25e-07	8e-09
313	1.65e-05	4.1e-06	3.46e-07	8e-09
313	1.72e-05	4.3e-06	3.59e-07	8e-09
313	1.75e-05	6.99e-05	1.095e-06	2.8e-08
313	1.77e-05	2.66e-05	5.37e-07	7e-09
313	1.78e-05	1.19e-05	3.46e-07	1.9e-08
313	1.8e-05	4.5e-06	3.74e-07	9e-09
313	1.93e-05	1.29e-05	3.72e-07	1e-08
313	1.94e-05	7.74e-05	1.166e-06	2.8e-08
313	1.97e-05	2.95e-05	5.91e-07	9e-09
313	2.08e-05	1.38e-05	4.02e-07	1e-08
313	2.12e-05	8.49e-05	1.242e-06	2.8e-08
313	2.16e-05	3.24e-05	6.44e-07	1.1e-08
313	2.22e-05	1.48e-05	4.16e-07	1.1e-08
313	2.31e-05	9.23e-05	1.322e-06	2.9e-08
313	2.35e-05	3.53e-05	6.92e-07	1.1e-08
313	2.37e-05	1.58e-05	4.56e-07	1.4e-08
313	2.49e-05	9.97e-05	1.408e-06	3.3e-08
313	2.51e-05	1.68e-05	4.75e-07	1.7e-08
313	2.54e-05	3.82e-05	7.53e-07	1.3e-08
313	2.66e-05	1.77e-05	5.07e-07	1.6e-08
313	2.68e-05	0.000107	1.567e-06	5.1e-08
313	2.74e-05	4.1e-05	8e-07	1.3e-08
313	2.81e-05	1.87e-05	5.34e-07	1.7e-08
313	2.86e-05	0.0001143	1.651e-06	5.4e-08
313	2.93e-05	4.39e-05	8.5e-07	1.7e-08
313	2.95e-05	1.97e-05	5.55e-07	1.8e-08
313	3.04e-05	0.0001215	1.753e-06	6.3e-08
313	3.1e-05	2.06e-05	5.82e-07	2e-08
313	3.12e-05	4.67e-05	9.07e-07	2e-08
313	3.22e-05	0.0001287	1.828e-06	6.4e-08
313	3.24e-05	2.16e-05	6.08e-07	2e-08
313	3.31e-05	4.96e-05	9.5e-07	2.3e-08
313	3.38e-05	2.26e-05	6.31e-07	2.1e-08
313	3.4e-05	0.0001358	1.927e-06	6.8e-08
313	3.5e-05	5.24e-05	9.94e-07	2.3e-08
313	3.53e-05	2.35e-05	6.55e-07	2.2e-08
313	3.57e-05	0.000143	1.991e-06	6.8e-08
313	3.67e-05	2.45e-05	6.77e-07	2.2e-08
313	3.68e-05	5.53e-05	1.033e-06	2.4e-08
313	3.75e-05	0.00015	2.065e-06	6.9e-08
313	3.82e-05	2.54e-05	7e-07	2.3e-08
313	3.87e-05	5.81e-05	1.091e-06	2.3e-08
313	3.93e-05	0.000157	2.133e-06	7e-08
313	3.96e-05	2.64e-05	7.25e-07	2.3e-08
313	4.06e-05	6.08e-05	1.122e-06	2.3e-08
313	4.1e-05	0.000164	2.203e-06	1.05e-07
313	4.24e-05	6.37e-05	1.163e-06	2.3e-08
313	4.27e-05	0.0001709	2.25e-06	8.2e-08
313	4.43e-05	6.65e-05	1.211e-06	2.4e-08
313	4.44e-05	0.0001778	2.302e-06	6.9e-08
313	4.62e-05	6.92e-05	1.246e-06	2.5e-08
313	4.62e-05	0.0001846	2.398e-06	3.9e-08
313	4.8e-05	7.2e-05	1.292e-06	2.8e-08
313	4.98e-05	7.48e-05	1.38e-06	3.7e-08
