Measured thermophysical data. Thermodynamic Parameters of Anionic Surfactant-Additive Systems at the Cloud Point
Source: J. Chem. Eng. Data, 2010, 10.1021/je100502b
Compound 1: tetrabutylammonium dodecyl sulfate, C28H61NO4S, InChI=1S/C16H36N.C12H26O4S/c1-5-9-13-17(14-10-6-2,15-11-7-3)16-12-8-4;1-2-3-4-5-6-7-8-9-10-11-12-16-17(13,14)15/h5-16H2,1-4H3;2-12H2,1H3,(H,13,14,15)/q+1;/p-1
Compound 2: tetraethylammonium bromide, C8H20BrN, InChI=1S/C8H20N.BrH/c1-5-9(6-2,7-3)8-4;/h5-8H2,1-4H3;1H/q+1;/p-1
Compound 3: tetrapropylammonium bromide, C12H28BrN, InChI=1S/C12H28N.BrH/c1-5-9-13(10-6-2,11-7-3)12-8-4;/h5-12H2,1-4H3;1H/q+1;/p-1
Compound 4: tetrabutylammonium bromide, C16H36BrN, InChI=1S/C16H36N.BrH/c1-5-9-13-17(14-10-6-2,15-11-7-3)16-12-8-4;/h5-16H2,1-4H3;1H/q+1;/p-1
Compound 5: water, H2O, InChI=1S/H2O/h1H2
Compound 6: propan-1-ol, C3H8O, InChI=1S/C3H8O/c1-2-3-4/h4H,2-3H2,1H3
Compound 7: butan-1-ol, C4H10O, InChI=1S/C4H10O/c1-2-3-4-5/h5H,2-4H2,1H3
Compound 8: pentan-1-ol, C5H12O, InChI=1S/C5H12O/c1-2-3-4-5-6/h6H,2-5H2,1H3
Compound 9: hexan-1-ol, C6H14O, InChI=1S/C6H14O/c1-2-3-4-5-6-7/h7H,2-6H2,1H3
Compound 10: heptan-1-ol, C7H16O, InChI=1S/C7H16O/c1-2-3-4-5-6-7-8/h8H,2-7H2,1H3
Compound 11: ethylamine, C2H7N, InChI=1S/C2H7N/c1-2-3/h2-3H2,1H3
Compound 12: 1-butanamine, C4H11N, InChI=1S/C4H11N/c1-2-3-4-5/h2-5H2,1H3
Compound 13: 1-hexanamine, C6H15N, InChI=1S/C6H15N/c1-2-3-4-5-6-7/h2-7H2,1H3
Compound 14: 1-heptanamine, C7H17N, InChI=1S/C7H17N/c1-2-3-4-5-6-7-8/h2-8H2,1H3

System: tetraethylammonium bromide + water + tetrabutylammonium dodecyl sulfate; phases: Liquid mixture 1, Liquid mixture 2
Fixed: Solvent: Amount concentration (molarity), mol/dm3 of tetrabutylammonium dodecyl sulfate = 0.03
Fixed: Pressure, kPa = 101.32
Property: Liquid-liquid equilibrium temperature, K (Liquid mixture 1); method: VISOBS:UFactor:4
Mole fraction of tetraethylammonium bromide	Liquid-liquid equilibrium temperature, K	uncertainty
0	311.65	0.62
9e-05	313.15	0.62
0.000108	313.65	0.62
0.000135	314.15	0.62
0.00018	315.15	0.62
0.00027	316.15	0.62
0.000337	317.65	0.62
0.00045	318.65	0.62
0.00054	319.65	0.62
0.000675	321.15	0.62
0.000768	322.15	0.62
0.0009	323.15	0.62
0.001079	324.65	0.62
0.001349	326.65	0.62
0.001541	328.15	0.62
0.001798	329.65	0.62
0.001961	331.15	0.62
0.002156	332.65	0.62
0.002395	334.15	0.62
0.002694	336.15	0.62
0.003077	339.15	0.62
0.003589	342.15	0.62

System: tetrapropylammonium bromide + water + tetrabutylammonium dodecyl sulfate; phases: Liquid mixture 1, Liquid mixture 2
Fixed: Solvent: Amount concentration (molarity), mol/dm3 of tetrabutylammonium dodecyl sulfate = 0.03
Fixed: Pressure, kPa = 101.32
Property: Liquid-liquid equilibrium temperature, K (Liquid mixture 1); method: VISOBS:UFactor:4
Mole fraction of tetrapropylammonium bromide	Liquid-liquid equilibrium temperature, K	uncertainty
0	311.65	0.62
0.000182	314.65	0.62
0.000212	315.15	0.62
0.000254	315.65	0.62
0.000317	316.65	0.62
0.000364	317.65	0.62
0.000423	318.65	0.62
0.000508	319.65	0.62
0.000635	321.15	0.62
0.00072	322.15	0.62
0.000831	323.65	0.62
0.00098	325.15	0.62
0.0012	326.15	0.62
0.001349	327.65	0.62
0.001541	329.15	0.62
0.001798	331.65	0.62
0.002156	334.15	0.62
0.002694	336.65	0.62
0.003589	341.15	0.62
0.004482	345.15	0.62
0.005373	350.15	0.62

System: tetrabutylammonium bromide + water + tetrabutylammonium dodecyl sulfate; phases: Liquid mixture 1, Liquid mixture 2
Fixed: Solvent: Amount concentration (molarity), mol/dm3 of tetrabutylammonium dodecyl sulfate = 0.03
Fixed: Pressure, kPa = 101.32
Property: Liquid-liquid equilibrium temperature, K (Liquid mixture 1); method: VISOBS:UFactor:4
Mole fraction of tetrabutylammonium bromide	Liquid-liquid equilibrium temperature, K	uncertainty
0	311.65	0.62
7.9e-05	309.15	0.62
0.000101	308.15	0.62
0.000133	307.15	0.62
0.0002	306.65	0.62
0.000225	306.15	0.62
0.000257	305.65	0.62
0.000301	305.15	0.62
0.00036	304.15	0.62
0.00045	303.15	0.62
0.000599	302.15	0.62
0.00072	301.65	0.62
0.0009	300.65	0.62
0.0012	299.15	0.62
0.001798	298.15	0.62
0.002022	297.65	0.62
0.002311	297.15	0.62
0.002694	296.65	0.62
0.003231	296.15	0.62
0.003589	295.65	0.62
0.004036	295.15	0.62
0.004609	294.15	0.62
0.005373	293.15	0.62

System: propan-1-ol + water + tetrabutylammonium dodecyl sulfate; phases: Liquid mixture 1, Liquid mixture 2
Fixed: Solvent: Amount concentration (molarity), mol/dm3 of tetrabutylammonium dodecyl sulfate = 0.03
Fixed: Pressure, kPa = 101.32
Property: Liquid-liquid equilibrium temperature, K (Liquid mixture 1); method: VISOBS:UFactor:4
Mole fraction of propan-1-ol	Liquid-liquid equilibrium temperature, K	uncertainty
0	311.65	0.62
0.001997	310.65	0.62
0.002567	310.15	0.62
0.002993	309.65	0.62
0.003589	309.15	0.62
0.004482	308.65	0.62
0.005119	308.15	0.62
0.005966	307.15	0.62
0.007152	306.15	0.62

System: butan-1-ol + water + tetrabutylammonium dodecyl sulfate; phases: Liquid mixture 1, Liquid mixture 2
Fixed: Solvent: Amount concentration (molarity), mol/dm3 of tetrabutylammonium dodecyl sulfate = 0.03
Fixed: Pressure, kPa = 101.32
Property: Liquid-liquid equilibrium temperature, K (Liquid mixture 1); method: VISOBS:UFactor:4
Mole fraction of butan-1-ol	Liquid-liquid equilibrium temperature, K	uncertainty
0	311.65	0.62
0.0004	309.65	0.62
0.0005	309.15	0.62
0.000666	308.65	0.62
0.000799	308.15	0.62
0.001	307.15	0.62
0.001333	305.65	0.62
0.001995	303.15	0.62
0.002567	301.65	0.62
0.002993	300.65	0.62
0.003589	297.65	0.62
0.004482	295.15	0.62
0.005119	293.15	0.62
0.005966	291.15	0.62
0.007152	289.15	0.62

System: pentan-1-ol + water + tetrabutylammonium dodecyl sulfate; phases: Liquid mixture 1, Liquid mixture 2
Fixed: Solvent: Amount concentration (molarity), mol/dm3 of tetrabutylammonium dodecyl sulfate = 0.03
Fixed: Pressure, kPa = 101.32
Property: Liquid-liquid equilibrium temperature, K (Liquid mixture 1); method: VISOBS:UFactor:4
Mole fraction of pentan-1-ol	Liquid-liquid equilibrium temperature, K	uncertainty
0	311.65	0.62
0.00025	307.15	0.62
0.000286	306.65	0.62
0.000333	306.15	0.62
0.0004	305.15	0.62
0.0005	303.15	0.62
0.000666	300.65	0.62
0.000799	299.15	0.62
0.000998	296.65	0.62
0.001333	293.15	0.62
0.001997	287.65	0.62
0.002246	285.15	0.62
0.002567	282.65	0.62

System: hexan-1-ol + water + tetrabutylammonium dodecyl sulfate; phases: Liquid mixture 1, Liquid mixture 2
Fixed: Solvent: Amount concentration (molarity), mol/dm3 of tetrabutylammonium dodecyl sulfate = 0.03
Fixed: Pressure, kPa = 101.32
Property: Liquid-liquid equilibrium temperature, K (Liquid mixture 1); method: VISOBS:UFactor:4
Mole fraction of hexan-1-ol	Liquid-liquid equilibrium temperature, K	uncertainty
0	311.65	0.62
6.6e-05	309.15	0.62
7.9e-05	308.15	0.62
9.9e-05	307.15	0.62
0.000113	306.15	0.62
0.000133	305.15	0.62
0.00016	304.15	0.62
0.0002	301.65	0.62
0.000266	299.65	0.62
0.0004	295.15	0.62
0.000515	291.65	0.62
0.000599	289.65	0.62
0.00072	287.65	0.62
0.0009	285.65	0.62
0.001027	282.15	0.62

System: heptan-1-ol + water + tetrabutylammonium dodecyl sulfate; phases: Liquid mixture 1, Liquid mixture 2
Fixed: Solvent: Amount concentration (molarity), mol/dm3 of tetrabutylammonium dodecyl sulfate = 0.03
Fixed: Pressure, kPa = 101.32
Property: Liquid-liquid equilibrium temperature, K (Liquid mixture 1); method: VISOBS:UFactor:4
Mole fraction of heptan-1-ol	Liquid-liquid equilibrium temperature, K	uncertainty
0	311.65	0.62
5.7e-05	306.15	0.62
6.6e-05	305.15	0.62
7.9e-05	304.15	0.62
8.8e-05	303.15	0.62
9.9e-05	302.15	0.62
0.000113	301.15	0.62
0.000133	299.65	0.62
0.00016	297.65	0.62
0.0002	294.65	0.62
0.000266	290.15	0.62
0.0004	285.15	0.62
0.000515	281.15	0.62
0.000599	279.15	0.62

System: ethylamine + water + tetrabutylammonium dodecyl sulfate; phases: Liquid mixture 1, Liquid mixture 2
Fixed: Solvent: Amount concentration (molarity), mol/dm3 of tetrabutylammonium dodecyl sulfate = 0.03
Fixed: Pressure, kPa = 101.32
Property: Liquid-liquid equilibrium temperature, K (Liquid mixture 1); method: VISOBS:UFactor:4
Mole fraction of ethylamine	Liquid-liquid equilibrium temperature, K	uncertainty
0	311.65	0.62
5.76e-05	311.65	0.62
9.9e-05	312.15	0.62
0.00016	312.65	0.62
0.000266	313.15	0.62
0.000599	313.65	0.62
0.001027	313.65	0.62
0.0012	314.15	0.62
0.001439	314.65	0.62
0.001798	315.15	0.62

System: 1-butanamine + water + tetrabutylammonium dodecyl sulfate; phases: Liquid mixture 1, Liquid mixture 2
Fixed: Solvent: Amount concentration (molarity), mol/dm3 of tetrabutylammonium dodecyl sulfate = 0.03
Fixed: Pressure, kPa = 101.32
Property: Liquid-liquid equilibrium temperature, K (Liquid mixture 1); method: VISOBS:UFactor:4
Mole fraction of 1-butanamine	Liquid-liquid equilibrium temperature, K	uncertainty
0	311.65	0.62
0.000515	312.15	0.62
0.000599	312.15	0.62
0.00072	312.65	0.62
0.0009	313.15	0.62
0.001027	313.65	0.62
0.0012	314.15	0.62
0.001439	315.15	0.62
0.001798	316.15	0.62

System: 1-hexanamine + water + tetrabutylammonium dodecyl sulfate; phases: Liquid mixture 1, Liquid mixture 2
Fixed: Solvent: Amount concentration (molarity), mol/dm3 of tetrabutylammonium dodecyl sulfate = 0.03
Fixed: Pressure, kPa = 101.32
Property: Liquid-liquid equilibrium temperature, K (Liquid mixture 1); method: VISOBS:UFactor:4
Mole fraction of 1-hexanamine	Liquid-liquid equilibrium temperature, K	uncertainty
0	311.65	0.62
2.16e-05	310.65	0.62
2.88e-05	310.15	0.62
4.5e-05	309.65	0.62
5.04e-05	309.65	0.62
7.92e-05	309.15	0.62
9.9e-05	309.15	0.62
0.000133	309.15	0.62
0.00016	308.65	0.62
0.0002	308.65	0.62
0.000266	308.15	0.62
0.0004	307.65	0.62
0.000599	307.15	0.62
0.0009	307.15	0.62
0.001027	307.15	0.62
0.001439	306.65	0.62
0.001798	306.15	0.62

System: 1-heptanamine + water + tetrabutylammonium dodecyl sulfate; phases: Liquid mixture 1, Liquid mixture 2
Fixed: Solvent: Amount concentration (molarity), mol/dm3 of tetrabutylammonium dodecyl sulfate = 0.03
Fixed: Pressure, kPa = 101.32
Property: Liquid-liquid equilibrium temperature, K (Liquid mixture 1); method: VISOBS:UFactor:4
Mole fraction of 1-heptanamine	Liquid-liquid equilibrium temperature, K	uncertainty
0	311.65	0.62
4.5e-05	310.65	0.62
5.04e-05	310.15	0.62
5.76e-05	309.65	0.62
6.66e-05	309.15	0.62
7.92e-05	308.65	0.62
9.9e-05	308.15	0.62
0.000133	307.15	0.62
0.00016	306.15	0.62
0.0002	305.15	0.62
0.000266	304.15	0.62
0.0004	302.65	0.62
