Measured thermophysical data. Solubility of Artemisinin in Different Single and Binary Solvent Mixtures Between (284.15 and 323.15) K and NRTL Interaction Parameters
Source: J. Chem. Eng. Data, 2010, 10.1021/je100125x
Compound 1: artemisinin, C15H22O5, InChI=1S/C15H22O5/c1-8-4-5-11-9(2)12(16)17-13-15(11)10(8)6-7-14(3,18-13)19-20-15/h8-11,13H,4-7H2,1-3H3/t8-,9-,10+,11+,13-,14-,15-/m1/s1, purity 99.8%
Compound 2: ethanol, C2H6O, InChI=1S/C2H6O/c1-2-3/h3H,2H2,1H3
Compound 3: butan-1-ol, C4H10O, InChI=1S/C4H10O/c1-2-3-4-5/h5H,2-4H2,1H3
Compound 4: 1-methylethyl ethanoate, C5H10O2, InChI=1S/C5H10O2/c1-4(2)7-5(3)6/h4H,1-3H3
Compound 5: toluene, C7H8, InChI=1S/C7H8/c1-7-5-3-2-4-6-7/h2-6H,1H3
Compound 6: methanol, CH4O, InChI=1S/CH4O/c1-2/h2H,1H3
Compound 7: acetone, C3H6O, InChI=1S/C3H6O/c1-3(2)4/h1-2H3
Compound 8: ethyl acetate, C4H8O2, InChI=1S/C4H8O2/c1-3-6-4(2)5/h3H2,1-2H3
Compound 9: acetonitrile, C2H3N, InChI=1S/C2H3N/c1-2-3/h1H3
Compound 10: hexane, C6H14, InChI=1S/C6H14/c1-3-5-6-4-2/h3-6H2,1-2H3
Compound 11: heptane, C7H16, InChI=1S/C7H16/c1-3-5-7-6-4-2/h3-7H2,1-2H3
Compound 12: 2-methoxy-2-methylpropane, C5H12O, InChI=1S/C5H12O/c1-5(2,3)6-4/h1-4H3
Compound 13: butanone, C4H8O, InChI=1S/C4H8O/c1-3-4(2)5/h3H2,1-2H3

System: artemisinin; phases: Crystal, Liquid, Air at 1 atmosphere
Property: Molar enthalpy of transition or fusion, kJ/mol (Crystal); method: DSC
Molar enthalpy of transition or fusion, kJ/mol	uncertainty
24.3	0.944

System: artemisinin; phases: Crystal, Liquid, Air at 1 atmosphere
Property: Triple point temperature, K (Crystal); method: DTA
Triple point temperature, K	uncertainty
429.6	1.1

System: ethanol + artemisinin; phases: Liquid, Crystal
Fixed: Pressure, kPa = 101.3
Property: Mole fraction of artemisinin (Liquid); method: Chromatography
Temperature, K	Mole fraction of artemisinin	uncertainty
284.15	0.00236211	5.639e-05
289.15	0.00304633	7.273e-05
295.15	0.00412197	9.845e-05
298.15	0.00474527	0.00011335
304.15	0.00631368	0.00015089
309.15	0.00796435	0.00019044
314.15	0.00999667	0.00023918
319.15	0.01248772	0.00029901
323.15	0.01487115	0.00035634

System: butan-1-ol + artemisinin; phases: Liquid, Crystal
Fixed: Pressure, kPa = 101.3
Property: Mole fraction of artemisinin (Liquid); method: Chromatography
Temperature, K	Mole fraction of artemisinin	uncertainty
284.15	0.00085072	1.835e-05
289.15	0.00126734	2.734e-05
295.15	0.00203129	4.383e-05
298.15	0.00252841	5.456e-05
304.15	0.00393559	8.494e-05
309.15	0.00563189	0.0001216
314.15	0.00798742	0.0001725
319.15	0.01123137	0.0002427
323.15	0.0146648	0.000317

System: 1-methylethyl ethanoate + artemisinin; phases: Liquid, Crystal
Fixed: Pressure, kPa = 101.3
Property: Mole fraction of artemisinin (Liquid); method: Chromatography
Temperature, K	Mole fraction of artemisinin	uncertainty
284.15	0.00683364	0.0001425
289.15	0.00837795	0.0001747
295.15	0.01067969	0.0002228
298.15	0.01196017	0.0002495
304.15	0.01505359	0.0003141
309.15	0.01815761	0.000379
314.15	0.02182116	0.0004556
319.15	0.02613107	0.0005458
323.15	0.03010995	0.0006291

System: toluene + artemisinin; phases: Liquid, Crystal
Fixed: Pressure, kPa = 101.3
Property: Mole fraction of artemisinin (Liquid); method: Chromatography
Temperature, K	Mole fraction of artemisinin	uncertainty
284.15	0.01704935	0.0003591
289.15	0.02260761	0.0004765
295.15	0.03161243	0.0006669
298.15	0.03695171	0.00078
304.15	0.05070263	0.001072
309.15	0.06557261	0.001389
314.15	0.08432857	0.00179
319.15	0.10786602	0.002296
323.15	0.13085428	0.002794

System: methanol + artemisinin; phases: Liquid, Crystal
Fixed: Pressure, kPa = 101.3
Property: Mole fraction of artemisinin (Liquid); method: Chromatography
Temperature, K	Mole fraction of artemisinin	uncertainty
284.15	0.00055791	1.528e-05
289.15	0.00078427	2.148e-05
295.15	0.00117401	3.216e-05
298.15	0.00141591	3.879e-05
304.15	0.00206821	5.667e-05
309.15	0.00281187	7.708e-05
314.15	0.00379452	0.0001041
319.15	0.00508414	0.0001395
323.15	0.00639321	0.0001755

System: acetone + artemisinin; phases: Liquid, Crystal
Fixed: Pressure, kPa = 101.3
Property: Mole fraction of artemisinin (Liquid); method: Chromatography
Temperature, K	Mole fraction of artemisinin	uncertainty
284.15	0.00404768	9.116e-05
289.15	0.00529996	0.0001194
295.15	0.00730163	0.0001646
298.15	0.00847641	0.0001911
304.15	0.01147093	0.0002587
309.15	0.01467053	0.0003312
314.15	0.01866354	0.0004217
319.15	0.02362297	0.0005343
323.15	0.02842332	0.0006436

System: ethyl acetate + artemisinin; phases: Liquid, Crystal
Fixed: Pressure, kPa = 101.3
Property: Mole fraction of artemisinin (Liquid); method: Chromatography
Temperature, K	Mole fraction of artemisinin	uncertainty
284.15	0.00556831	0.0001177
289.15	0.00783937	0.0001657
295.15	0.01175823	0.0002487
298.15	0.01419482	0.0003003
304.15	0.02077809	0.0004399
309.15	0.02830109	0.0005996
314.15	0.03826405	0.0008117
319.15	0.05136923	0.001091
323.15	0.0646999	0.001377

System: acetonitrile + artemisinin; phases: Liquid, Crystal
Fixed: Pressure, kPa = 101.3
Property: Mole fraction of artemisinin (Liquid); method: Chromatography
Temperature, K	Mole fraction of artemisinin	uncertainty
284.15	0.00084081	2.082e-05
289.15	0.00111934	2.772e-05
295.15	0.00157211	3.894e-05
298.15	0.00184121	4.561e-05
304.15	0.00253582	6.283e-05
309.15	0.00328879	8.151e-05
314.15	0.0042404	0.0001051
319.15	0.0054367	0.0001349
323.15	0.00660671	0.0001639

System: hexane + artemisinin; phases: Liquid, Crystal
Fixed: Pressure, kPa = 101.3
Property: Mole fraction of artemisinin (Liquid); method: Chromatography
Temperature, K	Mole fraction of artemisinin	uncertainty
284.15	4.579e-05	9.7e-07
289.15	6.682e-05	1.41e-06
295.15	0.00010453	2.21e-06
298.15	0.00012866	2.72e-06
304.15	0.00019577	4.15e-06
309.15	0.00027507	5.82e-06
314.15	0.00038323	8.11e-06
319.15	0.00052961	1.121e-05
323.15	0.00068222	1.445e-05

System: heptane + artemisinin; phases: Liquid, Crystal
Fixed: Pressure, kPa = 101.3
Property: Mole fraction of artemisinin (Liquid); method: Chromatography
Temperature, K	Mole fraction of artemisinin	uncertainty
284.15	4.857e-05	1.01e-06
289.15	7.001e-05	1.46e-06
295.15	0.00010803	2.26e-06
298.15	0.00013201	2.76e-06
304.15	0.00019829	4.14e-06
309.15	0.00027573	5.76e-06
314.15	0.00038036	7.94e-06
319.15	0.00052072	1.087e-05
323.15	0.00066588	1.39e-05

System: 2-methoxy-2-methylpropane + artemisinin; phases: Liquid, Crystal
Fixed: Pressure, kPa = 101.3
Property: Mole fraction of artemisinin (Liquid); method: Chromatography
Temperature, K	Mole fraction of artemisinin	uncertainty
284.15	0.00108483	2.292e-05
289.15	0.00154329	3.26e-05
295.15	0.0023433	4.951e-05
298.15	0.00284491	6.011e-05
304.15	0.00421181	8.9e-05
309.15	0.00578927	0.0001224
314.15	0.00789666	0.0001669
319.15	0.01069222	0.0002261
323.15	0.01355673	0.0002868

System: butanone + artemisinin; phases: Liquid, Crystal
Fixed: Pressure, kPa = 101.3
Property: Mole fraction of artemisinin (Liquid); method: Chromatography
Temperature, K	Mole fraction of artemisinin	uncertainty
284.15	0.0163306	0.0003545
289.15	0.02120769	0.0004608
295.15	0.0292312	0.0006359
298.15	0.03370703	0.0007338
304.15	0.04598724	0.001003
309.15	0.05847527	0.001278
314.15	0.07615766	0.00167
319.15	0.09190042	0.002021
323.15	0.11715798	0.002589

System: acetone + ethyl acetate + artemisinin; phases: Liquid, Crystal
Fixed: Pressure, kPa = 101.3
Property: Mole fraction of artemisinin (Liquid); method: Chromatography
Temperature, K	Mole fraction of acetone	Mole fraction of artemisinin	uncertainty
273.15	0.15725245	0.02211157	0.0004712
273.15	0.41733797	0.01801728	0.0003887
273.15	0.62405706	0.01408766	0.0003078
273.15	0.79290525	0.01005442	0.0002224
273.15	0.93387697	0.00595611	0.0001333
283.15	0.1091164	0.02707581	0.0005761
283.15	0.31964964	0.02430245	0.0005221
283.15	0.52098134	0.02076417	0.0004511
283.15	0.7145287	0.01611481	0.0003546
283.15	0.90148614	0.01040875	0.0002326
303.15	0.10795282	0.03745073	0.0007979
303.15	0.31652633	0.03383601	0.0007279
303.15	0.51660605	0.02898795	0.0006305
303.15	0.70975129	0.02269316	0.0005
303.15	0.89751668	0.01476616	0.0003302

System: ethanol + ethyl acetate + artemisinin; phases: Liquid, Crystal
Fixed: Pressure, kPa = 101.3
Property: Mole fraction of artemisinin (Liquid); method: Chromatography
Temperature, K	Mole fraction of ethanol	Mole fraction of artemisinin	uncertainty
273.15	0.15760179	0.02410883	0.0005154
273.15	0.41810774	0.0190739	0.000416
273.15	0.62493788	0.0145332	0.0003243
273.15	0.79333311	0.01051971	0.0002408
273.15	0.93308656	0.00710222	0.0001672
283.15	0.10948983	0.02814041	0.0006
283.15	0.3206224	0.02466929	0.0005339
283.15	0.52227906	0.02065399	0.0004556
283.15	0.71537964	0.01631027	0.0003691
283.15	0.90047443	0.0119655	0.0002802
303.15	0.1083578	0.03818866	0.0008153
303.15	0.31768109	0.03361673	0.0007285
303.15	0.51821311	0.02827821	0.0006247
303.15	0.71091531	0.02244899	0.0005087
303.15	0.89629363	0.01655284	0.0003881

System: ethanol + acetone + artemisinin; phases: Liquid, Crystal
Fixed: Pressure, kPa = 101.3
Property: Mole fraction of artemisinin (Liquid); method: Chromatography
Temperature, K	Mole fraction of ethanol	Mole fraction of artemisinin	uncertainty
273.15	0.14425225	0.0042494	9.634e-05
273.15	0.39369728	0.00380152	8.728e-05
273.15	0.601972	0.00321177	7.462e-05
273.15	0.77852637	0.00263941	6.201e-05
273.15	0.93008888	0.00213127	5.061e-05
283.15	0.09980376	0.00651622	0.0001475
283.15	0.29913785	0.00641242	0.0001466
283.15	0.49828694	0.00595228	0.0001375
283.15	0.69732916	0.0053306	0.0001247
283.15	0.89625971	0.00466074	0.0001105
303.15	0.09947077	0.00983087	0.0002227
303.15	0.29815047	0.00969202	0.0002217
303.15	0.49675594	0.00900652	0.0002083
303.15	0.69540217	0.00807925	0.0001891
303.15	0.89408908	0.00707133	0.0001678
