Measured thermophysical data. CO2 Capture with Physical Solvent Dimethyl Carbonate at High Pressures
Source: J. Chem. Eng. Data, 2010, 10.1021/je1002708
Compound 1: carbon dioxide, CO2, InChI=1S/CO2/c2-1-3
Compound 2: dimethyl carbonate, C3H6O3, InChI=1S/C3H6O3/c1-5-3(4)6-2/h1-2H3, purity 99.9%
Compound 3: 4-methyl-1,3-dioxolan-2-one, C4H6O3, InChI=1S/C4H6O3/c1-3-2-6-4(5)7-3/h3H,2H2,1H3, purity 99.9%

System: carbon dioxide + dimethyl carbonate; phases: Liquid, Gas
Property: Mole fraction of carbon dioxide (Liquid); method: Calculated by material balance
Temperature, K	Pressure, kPa	Mole fraction of carbon dioxide	uncertainty
280.7	74.2	0.0209	0.0025
280.7	188.3	0.0528	0.0032
280.7	335.5	0.0912	0.0055
280.7	417.5	0.1123	0.0068
280.7	718.8	0.1883	0.0113
280.7	908.9	0.2351	0.0141
280.7	1092.1	0.2786	0.0168
280.7	1412.3	0.3532	0.0212
280.7	1747.6	0.429	0.0258
280.7	2077.8	0.4967	0.0298
280.7	2309.9	0.5457	0.0328
289.49	239.6	0.0539	0.0033
289.49	803.2	0.1738	0.0105
289.49	1101.5	0.2346	0.0141
289.49	1372.8	0.2955	0.0178
289.49	1563	0.3331	0.02
289.49	1775.2	0.3746	0.0225
289.49	1941.3	0.4025	0.0242
289.49	2231.6	0.4502	0.0271
289.49	2522.8	0.5061	0.0304
289.49	2712	0.5374	0.0323
289.49	3132.3	0.6015	0.0362
289.49	3612.6	0.6734	0.0405
298.47	73.6	0.014	0.0022
298.47	279.9	0.0519	0.0031
298.47	601.5	0.1094	0.0066
298.47	876.8	0.1573	0.0095
298.47	1279.3	0.225	0.0135
298.47	1669.8	0.2877	0.0173
298.47	2146.4	0.3615	0.0217
298.47	2459.6	0.4091	0.0246
298.47	3075.3	0.4942	0.0297
298.47	3621.9	0.5688	0.0342
298.47	4458.7	0.6701	0.0402
307.84	194.7	0.0323	0.002
307.84	483.2	0.0757	0.0046
307.84	739.5	0.113	0.0068
307.84	990.9	0.1496	0.009
307.84	1332.7	0.1984	0.0119
307.84	1713.3	0.2494	0.015
307.84	1981.6	0.2855	0.0172
307.84	2264.1	0.3211	0.0193
307.84	2646.6	0.3703	0.0222
307.84	3153.3	0.4322	0.026
307.84	3609.1	0.4866	0.0292
307.84	3935.5	0.5248	0.0315
307.84	4336.1	0.5719	0.0343
307.84	4808.7	0.6254	0.0376
307.84	5055.1	0.6536	0.0393
317.86	277	0.0375	0.0023
317.86	684	0.0911	0.0055
317.86	1029.8	0.1328	0.008
317.86	1333.5	0.1696	0.0102
317.86	1612.1	0.2014	0.0121
317.86	1898.7	0.2349	0.0141
317.86	2246.5	0.2741	0.0165
317.86	2633.3	0.3155	0.019
317.86	3208.4	0.3763	0.0226
317.86	3585.1	0.417	0.025
317.86	4040	0.4626	0.0278
317.86	4545.9	0.5138	0.0309
317.86	5107	0.5698	0.0342
327.66	505.7	0.0581	0.0035
327.66	781.4	0.0898	0.0054
327.66	1077.3	0.1215	0.0073
327.66	1564.9	0.1737	0.0104
327.66	1911.9	0.2083	0.0125
327.66	2362.1	0.254	0.0153
327.66	2752	0.2908	0.0175
327.66	3088	0.3236	0.0194
327.66	3540.1	0.3647	0.0219
327.66	4107.6	0.416	0.025
327.66	4566.9	0.458	0.0275
327.66	5070	0.4999	0.03
327.66	5476.1	0.5353	0.0321

System: 4-methyl-1,3-dioxolan-2-one + carbon dioxide; phases: Liquid, Gas
Property: Mole fraction of carbon dioxide (Liquid); method: Calculated by material balance
Temperature, K	Pressure, kPa	Mole fraction of carbon dioxide	uncertainty
278.27	120.1	0.0311	0.0019
278.27	411.1	0.099	0.006
278.27	539.1	0.1293	0.0078
278.27	664.1	0.1602	0.0097
278.27	796.1	0.1945	0.0117
278.27	912.1	0.2205	0.0133
278.27	1043.1	0.2522	0.0152
278.27	1275.1	0.3017	0.0182
278.27	1521.1	0.3526	0.0212
278.27	1729.1	0.397	0.0239
278.27	2008.1	0.4517	0.0272
288.42	216.1	0.0412	0.0025
288.42	425.1	0.0779	0.0047
288.42	701.1	0.1278	0.0077
288.42	893.1	0.1612	0.0097
288.42	1120.1	0.2004	0.0121
288.42	1390.1	0.2425	0.0146
288.42	1616.1	0.2807	0.0169
288.42	1831.1	0.3138	0.0189
288.42	2136.1	0.3638	0.0219
288.42	2344.1	0.396	0.0239
288.42	2752.1	0.4539	0.0273
288.42	3132.1	0.4993	0.0301
288.42	3504.1	0.5491	0.0331
297.81	159.1	0.0218	0.0013
297.81	438.1	0.0579	0.0035
297.81	634.1	0.0831	0.005
297.81	807.1	0.1058	0.0064
297.81	1067.1	0.1374	0.0083
297.81	1362.1	0.1748	0.0105
297.81	1594.1	0.2038	0.0123
297.81	1869.1	0.2351	0.0142
297.81	2026.1	0.2529	0.0152
297.81	2311.1	0.286	0.0172
297.81	2748.1	0.3414	0.0205
297.81	3493.1	0.4159	0.025
297.81	3816.1	0.4489	0.027
297.81	4121.1	0.4813	0.0289
297.81	4293.1	0.5025	0.0302
307.69	298.1	0.0328	0.002
307.69	580.1	0.0632	0.0038
307.69	730.1	0.0808	0.0049
307.69	921.1	0.1009	0.0061
307.69	1314.1	0.1433	0.0086
307.69	1699.1	0.1838	0.011
307.69	1952.1	0.2086	0.0125
307.69	2166.1	0.2316	0.0139
307.69	3014.1	0.3082	0.0185
307.69	3674.1	0.3663	0.022
307.69	4007.1	0.3962	0.0238
307.69	4403.1	0.4273	0.0257
307.69	4736.1	0.456	0.0274
307.69	5454.1	0.517	0.0311
317.65	167.1	0.0185	0.0011
317.65	485.1	0.0484	0.0029
317.65	1026.1	0.0977	0.0059
317.65	1341.1	0.1267	0.0076
317.65	1891.1	0.1768	0.0106
317.65	2401.1	0.2161	0.013
317.65	2974.1	0.2615	0.0157
317.65	3421.1	0.2948	0.0177
317.65	3892.1	0.3301	0.0198
317.65	4552.1	0.3749	0.0225
317.65	5106.1	0.4147	0.0249
327.66	445	0.0355	0.0021
327.66	897	0.0715	0.0043
327.66	1352	0.1064	0.0064
327.66	1830	0.1442	0.0087
327.66	2105	0.1646	0.0099
327.66	2781	0.2157	0.013
327.66	3352	0.2549	0.0153
327.66	3692	0.2758	0.0166
327.66	4179	0.307	0.0184
327.66	4795	0.3465	0.0208
327.66	5443	0.3842	0.0231
327.66	5905	0.41	0.0246
