Measured thermophysical data. Densities of the Ternary Systems Y(NO3)3 + Ce(NO3)3 + H2O, Y(NO3)3 + Nd(NO3)3 + H2O, and Ce(NO3)3 + Nd(NO3)3 + H2O and Their Binary Subsystems at Different Temperatures
Source: J. Chem. Eng. Data, 2010, 10.1021/je100615j
Compound 1: yttrium nitrate, N3O9Y, InChI=1S/3NO3.Y/c3*2-1(3)4;/q3*-1;+3
Compound 2: cerium nitrate, CeN3O9, InChI=1S/Ce.3NO3/c;3*2-1(3)4/q+3;3*-1
Compound 3: neodymium(III) nitrate, N3NdO9, InChI=1S/3NO3.Nd/c3*2-1(3)4;/q3*-1;+3
Compound 4: water, H2O, InChI=1S/H2O/h1H2

System: water + yttrium nitrate; phases: Liquid
Fixed: Pressure, kPa = 101.3
Property: Mass density, kg/m3 (Liquid); method: Vibrating tube method
Temperature, K	Molality, mol/kg of yttrium nitrate	Mass density, kg/m3	uncertainty
293.15	0.4989	1105.5	0.6
293.15	0.9965	1202.6	1.2
293.15	1.4972	1290.8	1.8
293.15	1.982	1368.7	2.5
293.15	2.9475	1502.8	3.9
293.15	3.9452	1615.7	5.4
293.15	4.9575	1708.9	7
298.15	0.4989	1103.5	0.6
298.15	0.9965	1200.2	1.2
298.15	1.4972	1287.8	1.8
298.15	1.982	1365.4	2.4
298.15	2.9475	1498.9	3.9
298.15	3.9452	1611.4	5.4
298.15	4.9575	1704.3	6.9
308.15	0.4989	1099.2	0.6
308.15	0.9965	1194.7	1.2
308.15	1.4972	1281.4	1.8
308.15	1.982	1358.2	2.4
308.15	2.9475	1490.5	3.8
308.15	3.9452	1602.2	5.4
308.15	4.9575	1694.7	6.9

System: water + cerium nitrate; phases: Liquid
Fixed: Pressure, kPa = 101.3
Property: Mass density, kg/m3 (Liquid); method: Vibrating tube method
Temperature, K	Molality, mol/kg of cerium nitrate	Mass density, kg/m3	uncertainty
293.15	0.5112	1131.2	0.8
293.15	1.0313	1252.8	1.5
293.15	1.5546	1361.9	2.3
293.15	1.9969	1446.2	3.1
293.15	3.1308	1633.2	5.4
293.15	3.9676	1746.4	7.1
293.15	4.4616	1806	8.1
298.15	0.5112	1129.3	0.8
298.15	1.0313	1250.2	1.5
298.15	1.5546	1358.8	2.3
298.15	1.9969	1443.1	3.1
298.15	3.1308	1629.1	5.4
298.15	3.9676	1742.4	7.1
298.15	4.4616	1801.8	8.1
308.15	0.5112	1124.7	0.7
308.15	1.0313	1244.4	1.5
308.15	1.5546	1352	2.3
308.15	1.9969	1435.7	3.1
308.15	3.1308	1620.5	5.3
308.15	3.9676	1733.1	7
308.15	4.4616	1792.2	8

System: water + neodymium(III) nitrate; phases: Liquid
Fixed: Pressure, kPa = 101.3
Property: Mass density, kg/m3 (Liquid); method: Vibrating tube method
Temperature, K	Molality, mol/kg of neodymium(III) nitrate	Mass density, kg/m3	uncertainty
293.15	0.522	1136.1	0.8
293.15	1.0213	1255.1	1.5
293.15	1.5554	1369.8	2.4
293.15	2.0934	1474.7	3.4
293.15	3.0857	1642.1	5.4
293.15	4.1242	1785.9	7.6
293.15	4.2972	1807	8
298.15	0.522	1134.2	0.8
298.15	1.0213	1252.5	1.5
298.15	1.5554	1366.7	2.4
298.15	2.0934	1471.1	3.4
298.15	3.0857	1637.8	5.4
298.15	4.1242	1781.1	7.6
298.15	4.2972	1802.7	8
308.15	0.522	1129.6	0.8
308.15	1.0213	1246.7	1.5
308.15	1.5554	1359.9	2.3
308.15	2.0934	1463.5	3.3
308.15	3.0857	1628.8	5.3
308.15	4.1242	1771.4	7.5
308.15	4.2972	1792.8	7.9

System: water + cerium nitrate + yttrium nitrate; phases: Liquid
Fixed: Pressure, kPa = 101.3
Property: Mass density, kg/m3 (Liquid); method: Vibrating tube method
Temperature, K	Molality, mol/kg of yttrium nitrate	Molality, mol/kg of cerium nitrate	Mass density, kg/m3	uncertainty
293.15	0.2545	0.7679	1240.1	1.4
293.15	0.4944	1.4988	1426.5	2.9
293.15	0.5027	0.5111	1227.2	1.3
293.15	0.7527	0.2523	1215.3	1.2
293.15	0.7655	2.3177	1600.3	4.9
293.15	0.9855	2.9766	1714.7	6.7
293.15	0.9897	0.9998	1407.7	2.7
293.15	1.4843	0.5014	1388.4	2.6
293.15	1.4879	1.5503	1568.3	4.6
293.15	1.9734	1.983	1682.3	6.2
293.15	2.2402	0.7513	1535.5	4.2
293.15	2.9596	0.9912	1649.6	5.8
298.15	0.2545	0.7679	1237	1.4
298.15	0.4944	1.4988	1423.5	2.9
298.15	0.5027	0.5111	1224.5	1.3
298.15	0.7527	0.2523	1213	1.2
298.15	0.7655	2.3177	1596.4	4.9
298.15	0.9855	2.9766	1710.7	6.6
298.15	0.9897	0.9998	1404.5	2.7
298.15	1.4843	0.5014	1385.3	2.6
298.15	1.4879	1.5503	1564.3	4.6
298.15	1.9734	1.983	1678.1	6.2
298.15	2.2402	0.7513	1531.5	4.2
298.15	2.9596	0.9912	1645.3	5.8
308.15	0.2545	0.7679	1231.9	1.3
308.15	0.4944	1.4988	1416.2	2.9
308.15	0.5027	0.5111	1218.9	1.3
308.15	0.7527	0.2523	1206.2	1.2
308.15	0.7655	2.3177	1587.5	4.9
308.15	0.9855	2.9766	1701.5	6.5
308.15	0.9897	0.9998	1397.3	2.7
308.15	1.4843	0.5014	1378.1	2.6
308.15	1.4879	1.5503	1556.2	4.5
308.15	1.9734	1.983	1669.1	6.1
308.15	2.2402	0.7513	1523.2	4.1
308.15	2.9596	0.9912	1636.3	5.7

System: water + neodymium(III) nitrate + yttrium nitrate; phases: Liquid
Fixed: Pressure, kPa = 101.3
Property: Mass density, kg/m3 (Liquid); method: Vibrating tube method
Temperature, K	Molality, mol/kg of yttrium nitrate	Molality, mol/kg of neodymium(III) nitrate	Mass density, kg/m3	uncertainty
293.15	0.2532	0.7618	1241.6	1.4
293.15	0.5005	0.5083	1228.2	1.3
293.15	0.5132	1.5514	1447.7	3.1
293.15	0.7512	0.2514	1216.3	1.2
293.15	0.7595	2.2906	1607.5	5
293.15	1.0125	3.0658	1744.2	7
293.15	1.0147	1.0217	1421.1	2.9
293.15	1.5011	1.5142	1572.3	4.6
293.15	1.5034	0.5055	1394.9	2.7
293.15	2.0077	2.0254	1701.1	6.5
293.15	2.2355	0.7454	1538.2	4.2
293.15	2.9764	1.0127	1659.1	5.9
298.15	0.2532	0.7618	1239.1	1.4
298.15	0.5005	0.5083	1225.5	1.3
298.15	0.5132	1.5514	1444.3	3.1
298.15	0.7512	0.2514	1213.7	1.2
298.15	0.7595	2.2906	1602.9	5
298.15	1.0125	3.0658	1739.8	7
298.15	1.0147	1.0217	1417.8	2.8
298.15	1.5011	1.5142	1569	4.6
298.15	1.5034	0.5055	1391.6	2.6
298.15	2.0077	2.0254	1697	6.4
298.15	2.2355	0.7454	1533.9	4.2
298.15	2.9764	1.0127	1654.8	5.9
308.15	0.2532	0.7618	1233.6	1.4
308.15	0.5005	0.5083	1220.2	1.3
308.15	0.5132	1.5514	1436.8	3.1
308.15	0.7512	0.2514	1207.9	1.2
308.15	0.7595	2.2906	1594.2	4.9
308.15	1.0125	3.0658	1729.8	6.9
308.15	1.0147	1.0217	1410.5	2.8
308.15	1.5011	1.5142	1559.9	4.5
308.15	1.5034	0.5055	1384	2.6
308.15	2.0077	2.0254	1687.6	6.4
308.15	2.2355	0.7454	1525.5	4.2
308.15	2.9764	1.0127	1646	5.8

System: water + neodymium(III) nitrate + cerium nitrate; phases: Liquid
Fixed: Pressure, kPa = 101.3
Property: Mass density, kg/m3 (Liquid); method: Vibrating tube method
Temperature, K	Molality, mol/kg of cerium nitrate	Molality, mol/kg of neodymium(III) nitrate	Mass density, kg/m3	uncertainty
293.15	0.2565	0.7673	1254.6	1.5
293.15	0.5097	0.5165	1253.4	1.4
293.15	0.5182	1.5501	1467.2	3.3
293.15	0.772	0.2568	1253.8	1.4
293.15	0.7723	2.3246	1640.2	5.4
293.15	1.0189	3.0651	1776.8	7.5
293.15	1.0233	1.0207	1460.3	3.2
293.15	1.5159	0.5042	1452.8	3.2
293.15	1.5687	1.5396	1637.7	5.4
293.15	2.0174	2.0272	1765.9	7.3
293.15	2.3415	0.7779	1636.2	5.4
293.15	3.0001	1.0057	1756.3	7.2
298.15	0.2565	0.7673	1251.7	1.4
298.15	0.5097	0.5165	1251.8	1.4
298.15	0.5182	1.5501	1464.1	3.3
298.15	0.772	0.2568	1251.1	1.4
298.15	0.7723	2.3246	1636.2	5.3
298.15	1.0189	3.0651	1772.2	7.4
298.15	1.0233	1.0207	1457	3.2
298.15	1.5159	0.5042	1449.6	3.2
298.15	1.5687	1.5396	1634.2	5.3
298.15	2.0174	2.0272	1761.8	7.3
298.15	2.3415	0.7779	1631.9	5.3
298.15	3.0001	1.0057	1752.1	7.2
308.15	0.2565	0.7673	1245.7	1.4
308.15	0.5097	0.5165	1245.3	1.4
308.15	0.5182	1.5501	1456.2	3.2
308.15	0.772	0.2568	1244.5	1.4
308.15	0.7723	2.3246	1627.6	5.3
308.15	1.0189	3.0651	1762	7.4
308.15	1.0233	1.0207	1449.5	3.2
308.15	1.5159	0.5042	1442.1	3.1
308.15	1.5687	1.5396	1624.9	5.3
308.15	2.0174	2.0272	1752.2	7.2
308.15	2.3415	0.7779	1623.5	5.3
308.15	3.0001	1.0057	1742.8	7.1
