Measured thermophysical data. Activity Coefficients at Infinite Dilution Measurements for Organic Solutes and Water in the Ionic Liquid 1-Butyl-3-methyl-pyridinium Trifluoromethanesulfonate
Source: J. Chem. Eng. Data, 2010, 10.1021/je1000582
Compound 1: 1-butyl-3-methylpyridinium trifluoromethanesulfonate, C11H16F3NO3S, InChI=1S/C10H16N.CHF3O3S/c1-3-4-7-11-8-5-6-10(2)9-11;2-1(3,4)8(5,6)7/h5-6,8-9H,3-4,7H2,1-2H3;(H,5,6,7)/q+1;/p-1
Compound 2: pentane, C5H12, InChI=1S/C5H12/c1-3-5-4-2/h3-5H2,1-2H3
Compound 3: hexane, C6H14, InChI=1S/C6H14/c1-3-5-6-4-2/h3-6H2,1-2H3
Compound 4: heptane, C7H16, InChI=1S/C7H16/c1-3-5-7-6-4-2/h3-7H2,1-2H3
Compound 5: octane, C8H18, InChI=1S/C8H18/c1-3-5-7-8-6-4-2/h3-8H2,1-2H3
Compound 6: nonane, C9H20, InChI=1S/C9H20/c1-3-5-7-9-8-6-4-2/h3-9H2,1-2H3
Compound 7: decane, C10H22, InChI=1S/C10H22/c1-3-5-7-9-10-8-6-4-2/h3-10H2,1-2H3
Compound 8: cyclopentane, C5H10, InChI=1S/C5H10/c1-2-4-5-3-1/h1-5H2
Compound 9: cyclohexane, C6H12, InChI=1S/C6H12/c1-2-4-6-5-3-1/h1-6H2
Compound 10: cycloheptane, C7H14, InChI=1S/C7H14/c1-2-4-6-7-5-3-1/h1-7H2
Compound 11: cyclooctane, C8H16, InChI=1S/C8H16/c1-2-4-6-8-7-5-3-1/h1-8H2
Compound 12: 1-pentene, C5H10, InChI=1S/C5H10/c1-3-5-4-2/h3H,1,4-5H2,2H3
Compound 13: hex-1-ene, C6H12, InChI=1S/C6H12/c1-3-5-6-4-2/h3H,1,4-6H2,2H3
Compound 14: 1-heptene, C7H14, InChI=1S/C7H14/c1-3-5-7-6-4-2/h3H,1,4-7H2,2H3
Compound 15: oct-1-ene, C8H16, InChI=1S/C8H16/c1-3-5-7-8-6-4-2/h3H,1,4-8H2,2H3
Compound 16: 1-hexyne, C6H10, InChI=1S/C6H10/c1-3-5-6-4-2/h1H,4-6H2,2H3
Compound 17: 1-heptyne, C7H12, InChI=1S/C7H12/c1-3-5-7-6-4-2/h1H,4-7H2,2H3
Compound 18: 1-octyne, C8H14, InChI=1S/C8H14/c1-3-5-7-8-6-4-2/h1H,4-8H2,2H3
Compound 19: benzene, C6H6, InChI=1S/C6H6/c1-2-4-6-5-3-1/h1-6H
Compound 20: toluene, C7H8, InChI=1S/C7H8/c1-7-5-3-2-4-6-7/h2-6H,1H3
Compound 21: ethylbenzene, C8H10, InChI=1S/C8H10/c1-2-8-6-4-3-5-7-8/h3-7H,2H2,1H3
Compound 22: 1,2-dimethylbenzene, C8H10, InChI=1S/C8H10/c1-7-5-3-4-6-8(7)2/h3-6H,1-2H3
Compound 23: 1,3-dimethylbenzene, C8H10, InChI=1S/C8H10/c1-7-4-3-5-8(2)6-7/h3-6H,1-2H3
Compound 24: 1,4-dimethylbenzene, C8H10, InChI=1S/C8H10/c1-7-3-5-8(2)6-4-7/h3-6H,1-2H3
Compound 25: methanol, CH4O, InChI=1S/CH4O/c1-2/h2H,1H3
Compound 26: ethanol, C2H6O, InChI=1S/C2H6O/c1-2-3/h3H,2H2,1H3
Compound 27: propan-1-ol, C3H8O, InChI=1S/C3H8O/c1-2-3-4/h4H,2-3H2,1H3
Compound 28: butan-1-ol, C4H10O, InChI=1S/C4H10O/c1-2-3-4-5/h5H,2-4H2,1H3
Compound 29: water, H2O, InChI=1S/H2O/h1H2
Compound 30: thiophene, C4H4S, InChI=1S/C4H4S/c1-2-4-5-3-1/h1-4H
Compound 31: tetrahydrofuran, C4H8O, InChI=1S/C4H8O/c1-2-4-5-3-1/h1-4H2
Compound 32: 2-methoxy-2-methylpropane, C5H12O, InChI=1S/C5H12O/c1-5(2,3)6-4/h1-4H3
Compound 33: diethyl ether, C4H10O, InChI=1S/C4H10O/c1-3-5-4-2/h3-4H2,1-2H3
Compound 34: dipropyl ether, C6H14O, InChI=1S/C6H14O/c1-3-5-7-6-4-2/h3-6H2,1-2H3
Compound 35: dibutyl ether, C8H18O, InChI=1S/C8H18O/c1-3-5-7-9-8-6-4-2/h3-8H2,1-2H3
Compound 36: acetone, C3H6O, InChI=1S/C3H6O/c1-3(2)4/h1-2H3
Compound 37: pentan-2-one, C5H10O, InChI=1S/C5H10O/c1-3-4-5(2)6/h3-4H2,1-2H3
Compound 38: pentan-3-one, C5H10O, InChI=1S/C5H10O/c1-3-5(6)4-2/h3-4H2,1-2H3

System: oct-1-ene + 1-butyl-3-methylpyridinium trifluoromethanesulfonate; phases: Liquid
Fixed: Pressure, kPa = 101
Fixed: Mole fraction of oct-1-ene = 0
Property: Activity coefficient of oct-1-ene (Liquid); method: Chromatography
Temperature, K	Activity coefficient of oct-1-ene	uncertainty
308.15	24.3	1.7
318.15	23.2	1.6
328.15	22.3	1.5
338.15	21.5	1.5
348.15	20.8	1.4
358.15	20	1.4

System: 1-hexyne + 1-butyl-3-methylpyridinium trifluoromethanesulfonate; phases: Liquid
Fixed: Pressure, kPa = 101
Fixed: Mole fraction of 1-hexyne = 0
Property: Activity coefficient of 1-hexyne (Liquid); method: Chromatography
Temperature, K	Activity coefficient of 1-hexyne	uncertainty
308.15	2.86	0.19
318.15	2.94	0.2
328.15	3.03	0.21
338.15	3.11	0.21
348.15	3.19	0.22
358.15	3.27	0.22

System: 1-heptyne + 1-butyl-3-methylpyridinium trifluoromethanesulfonate; phases: Liquid
Fixed: Pressure, kPa = 101
Fixed: Mole fraction of 1-heptyne = 0
Property: Activity coefficient of 1-heptyne (Liquid); method: Chromatography
Temperature, K	Activity coefficient of 1-heptyne	uncertainty
308.15	4.09	0.28
318.15	4.18	0.28
328.15	4.28	0.29
338.15	4.37	0.3
348.15	4.46	0.3
358.15	4.53	0.31

System: 1-octyne + 1-butyl-3-methylpyridinium trifluoromethanesulfonate; phases: Liquid
Fixed: Pressure, kPa = 101
Fixed: Mole fraction of 1-octyne = 0
Property: Activity coefficient of 1-octyne (Liquid); method: Chromatography
Temperature, K	Activity coefficient of 1-octyne	uncertainty
318.15	5.88	0.4
328.15	5.97	0.41
338.15	6.05	0.41
348.15	6.14	0.42
358.15	6.23	0.42

System: benzene + 1-butyl-3-methylpyridinium trifluoromethanesulfonate; phases: Liquid
Fixed: Pressure, kPa = 101
Fixed: Mole fraction of benzene = 0
Property: Activity coefficient of benzene (Liquid); method: Chromatography
Temperature, K	Activity coefficient of benzene	uncertainty
308.15	1.2	0.08
318.15	1.23	0.08
328.15	1.25	0.08
338.15	1.27	0.08
348.15	1.29	0.08
358.15	1.31	0.09

System: toluene + 1-butyl-3-methylpyridinium trifluoromethanesulfonate; phases: Liquid
Fixed: Pressure, kPa = 101
Fixed: Mole fraction of toluene = 0
Property: Activity coefficient of toluene (Liquid); method: Chromatography
Temperature, K	Activity coefficient of toluene	uncertainty
318.15	1.76	0.12
328.15	1.79	0.12
338.15	1.82	0.12
348.15	1.85	0.12
358.15	1.88	0.13

System: ethylbenzene + 1-butyl-3-methylpyridinium trifluoromethanesulfonate; phases: Liquid
Fixed: Pressure, kPa = 101
Fixed: Mole fraction of ethylbenzene = 0
Property: Activity coefficient of ethylbenzene (Liquid); method: Chromatography
Temperature, K	Activity coefficient of ethylbenzene	uncertainty
318.15	2.76	0.19
328.15	2.78	0.19
338.15	2.8	0.19
348.15	2.81	0.19
358.15	2.83	0.19

System: 1,2-dimethylbenzene + 1-butyl-3-methylpyridinium trifluoromethanesulfonate; phases: Liquid
Fixed: Pressure, kPa = 101
Fixed: Mole fraction of 1,2-dimethylbenzene = 0
Property: Activity coefficient of 1,2-dimethylbenzene (Liquid); method: Chromatography
Temperature, K	Activity coefficient of 1,2-dimethylbenzene	uncertainty
318.15	2.16	0.15
328.15	2.2	0.15
338.15	2.25	0.15
348.15	2.29	0.16
358.15	2.33	0.16

System: 1,3-dimethylbenzene + 1-butyl-3-methylpyridinium trifluoromethanesulfonate; phases: Liquid
Fixed: Pressure, kPa = 101
Fixed: Mole fraction of 1,3-dimethylbenzene = 0
Property: Activity coefficient of 1,3-dimethylbenzene (Liquid); method: Chromatography
Temperature, K	Activity coefficient of 1,3-dimethylbenzene	uncertainty
318.15	2.57	0.17
328.15	2.62	0.18
338.15	2.67	0.18
348.15	2.71	0.18
358.15	2.76	0.19

System: 1,4-dimethylbenzene + 1-butyl-3-methylpyridinium trifluoromethanesulfonate; phases: Liquid
Fixed: Pressure, kPa = 101
Fixed: Mole fraction of 1,4-dimethylbenzene = 0
Property: Activity coefficient of 1,4-dimethylbenzene (Liquid); method: Chromatography
Temperature, K	Activity coefficient of 1,4-dimethylbenzene	uncertainty
318.15	2.46	0.17
328.15	2.52	0.17
338.15	2.57	0.17
348.15	2.62	0.18
358.15	2.68	0.18

System: methanol + 1-butyl-3-methylpyridinium trifluoromethanesulfonate; phases: Liquid
Fixed: Pressure, kPa = 101
Fixed: Mole fraction of methanol = 0
Property: Activity coefficient of methanol (Liquid); method: Chromatography
Temperature, K	Activity coefficient of methanol	uncertainty
318.15	0.642	0.044
328.15	0.617	0.043
338.15	0.592	0.042
348.15	0.57	0.041
358.15	0.551	0.04

System: ethanol + 1-butyl-3-methylpyridinium trifluoromethanesulfonate; phases: Liquid
Fixed: Pressure, kPa = 101
Fixed: Mole fraction of ethanol = 0
Property: Activity coefficient of ethanol (Liquid); method: Chromatography
Temperature, K	Activity coefficient of ethanol	uncertainty
318.15	0.907	0.058
328.15	0.867	0.055
338.15	0.827	0.053
348.15	0.79	0.051
358.15	0.759	0.05

System: propan-1-ol + 1-butyl-3-methylpyridinium trifluoromethanesulfonate; phases: Liquid
Fixed: Pressure, kPa = 101
Fixed: Mole fraction of propan-1-ol = 0
Property: Activity coefficient of propan-1-ol (Liquid); method: Chromatography
Temperature, K	Activity coefficient of propan-1-ol	uncertainty
318.15	1.11	0.07
328.15	1.06	0.07
338.15	1	0.06
348.15	0.958	0.06
358.15	0.919	0.058

System: butan-1-ol + 1-butyl-3-methylpyridinium trifluoromethanesulfonate; phases: Liquid
Fixed: Pressure, kPa = 101
Fixed: Mole fraction of butan-1-ol = 0
Property: Activity coefficient of butan-1-ol (Liquid); method: Chromatography
Temperature, K	Activity coefficient of butan-1-ol	uncertainty
318.15	1.42	0.09
328.15	1.34	0.09
338.15	1.26	0.08
348.15	1.2	0.08
358.15	1.15	0.07

System: water + 1-butyl-3-methylpyridinium trifluoromethanesulfonate; phases: Liquid
Fixed: Pressure, kPa = 101
Fixed: Mole fraction of water = 0
Property: Activity coefficient of water (Liquid); method: Chromatography
Temperature, K	Activity coefficient of water	uncertainty
318.15	0.89	0.057
328.15	0.857	0.055
338.15	0.82	0.053
348.15	0.789	0.051
358.15	0.765	0.05

System: thiophene + 1-butyl-3-methylpyridinium trifluoromethanesulfonate; phases: Liquid
Fixed: Pressure, kPa = 101
Fixed: Mole fraction of thiophene = 0
Property: Activity coefficient of thiophene (Liquid); method: Chromatography
Temperature, K	Activity coefficient of thiophene	uncertainty
318.15	0.898	0.057
328.15	0.919	0.058
338.15	0.937	0.059
348.15	0.955	0.06
358.15	0.972	0.061

System: tetrahydrofuran + 1-butyl-3-methylpyridinium trifluoromethanesulfonate; phases: Liquid
Fixed: Pressure, kPa = 101
Fixed: Mole fraction of tetrahydrofuran = 0
Property: Activity coefficient of tetrahydrofuran (Liquid); method: Chromatography
Temperature, K	Activity coefficient of tetrahydrofuran	uncertainty
308.15	1.19	0.08
318.15	1.2	0.08
328.15	1.21	0.08
338.15	1.23	0.08
348.15	1.24	0.08
358.15	1.25	0.08

System: 2-methoxy-2-methylpropane + 1-butyl-3-methylpyridinium trifluoromethanesulfonate; phases: Liquid
Fixed: Pressure, kPa = 101
Fixed: Mole fraction of 2-methoxy-2-methylpropane = 0
Property: Activity coefficient of 2-methoxy-2-methylpropane (Liquid); method: Chromatography
Temperature, K	Activity coefficient of 2-methoxy-2-methylpropane	uncertainty
308.15	4.21	0.29
318.15	4.22	0.29
328.15	4.23	0.29
338.15	4.23	0.29
348.15	4.24	0.29
358.15	4.24	0.29

System: diethyl ether + 1-butyl-3-methylpyridinium trifluoromethanesulfonate; phases: Liquid
Fixed: Pressure, kPa = 101
Fixed: Mole fraction of diethyl ether = 0
Property: Activity coefficient of diethyl ether (Liquid); method: Chromatography
Temperature, K	Activity coefficient of diethyl ether	uncertainty
308.15	4.29	0.29
318.15	4.24	0.29
328.15	4.18	0.28
338.15	4.14	0.28
348.15	4.1	0.28
358.15	4.07	0.28

System: dipropyl ether + 1-butyl-3-methylpyridinium trifluoromethanesulfonate; phases: Liquid
Fixed: Pressure, kPa = 101
Fixed: Mole fraction of dipropyl ether = 0
Property: Activity coefficient of dipropyl ether (Liquid); method: Chromatography
Temperature, K	Activity coefficient of dipropyl ether	uncertainty
308.15	10.4	0.7
318.15	10.1	0.7
328.15	9.86	0.67
338.15	9.6	0.65
348.15	9.35	0.64
358.15	9.14	0.62

System: dibutyl ether + 1-butyl-3-methylpyridinium trifluoromethanesulfonate; phases: Liquid
Fixed: Pressure, kPa = 101
Fixed: Mole fraction of dibutyl ether = 0
Property: Activity coefficient of dibutyl ether (Liquid); method: Chromatography
Temperature, K	Activity coefficient of dibutyl ether	uncertainty
308.15	21.1	1.4
318.15	20.2	1.4
328.15	19.4	1.3
338.15	18.5	1.3
348.15	17.8	1.2
358.15	17.1	1.2

System: acetone + 1-butyl-3-methylpyridinium trifluoromethanesulfonate; phases: Liquid
Fixed: Pressure, kPa = 101
Fixed: Mole fraction of acetone = 0
Property: Activity coefficient of acetone (Liquid); method: Chromatography
Temperature, K	Activity coefficient of acetone	uncertainty
308.15	0.743	0.049
318.15	0.752	0.049
328.15	0.762	0.05
338.15	0.77	0.05
348.15	0.776	0.051
358.15	0.783	0.051

System: pentan-2-one + 1-butyl-3-methylpyridinium trifluoromethanesulfonate; phases: Liquid
Fixed: Pressure, kPa = 101
Fixed: Mole fraction of pentan-2-one = 0
Property: Activity coefficient of pentan-2-one (Liquid); method: Chromatography
Temperature, K	Activity coefficient of pentan-2-one	uncertainty
318.15	1.35	0.09
328.15	1.36	0.09
338.15	1.38	0.09
348.15	1.39	0.09
358.15	1.41	0.09

System: pentan-3-one + 1-butyl-3-methylpyridinium trifluoromethanesulfonate; phases: Liquid
Fixed: Pressure, kPa = 101
Fixed: Mole fraction of pentan-3-one = 0
Property: Activity coefficient of pentan-3-one (Liquid); method: Chromatography
Temperature, K	Activity coefficient of pentan-3-one	uncertainty
318.15	1.39	0.09
328.15	1.42	0.09
338.15	1.44	0.09
348.15	1.46	0.1
358.15	1.48	0.1

System: pentane + 1-butyl-3-methylpyridinium trifluoromethanesulfonate; phases: Liquid
Fixed: Pressure, kPa = 101
Fixed: Mole fraction of pentane = 0
Property: Activity coefficient of pentane (Liquid); method: Chromatography
Temperature, K	Activity coefficient of pentane	uncertainty
308.15	18.5	1.3
318.15	17.3	1.2
328.15	16.4	1.1
338.15	15.5	1.1
348.15	14.8	1
358.15	14.1	1

System: hexane + 1-butyl-3-methylpyridinium trifluoromethanesulfonate; phases: Liquid
Fixed: Pressure, kPa = 101
Fixed: Mole fraction of hexane = 0
Property: Activity coefficient of hexane (Liquid); method: Chromatography
Temperature, K	Activity coefficient of hexane	uncertainty
308.15	24.7	1.7
318.15	23.2	1.6
328.15	22.1	1.5
338.15	20.9	1.4
348.15	20	1.4
358.15	19.1	1.3

System: heptane + 1-butyl-3-methylpyridinium trifluoromethanesulfonate; phases: Liquid
Fixed: Pressure, kPa = 101
Fixed: Mole fraction of heptane = 0
Property: Activity coefficient of heptane (Liquid); method: Chromatography
Temperature, K	Activity coefficient of heptane	uncertainty
308.15	35.1	2.4
318.15	32.7	2.2
328.15	30.8	2.1
338.15	29	2
348.15	27.5	1.9
358.15	26.1	1.8

System: octane + 1-butyl-3-methylpyridinium trifluoromethanesulfonate; phases: Liquid
Fixed: Pressure, kPa = 101
Fixed: Mole fraction of octane = 0
Property: Activity coefficient of octane (Liquid); method: Chromatography
Temperature, K	Activity coefficient of octane	uncertainty
308.15	49.6	3.4
318.15	46.3	3.2
328.15	43.4	3
338.15	40.7	2.8
348.15	38.5	2.6
358.15	36.2	2.5

System: nonane + 1-butyl-3-methylpyridinium trifluoromethanesulfonate; phases: Liquid
Fixed: Pressure, kPa = 101
Fixed: Mole fraction of nonane = 0
Property: Activity coefficient of nonane (Liquid); method: Chromatography
Temperature, K	Activity coefficient of nonane	uncertainty
308.15	71.7	4.9
318.15	65.9	4.5
328.15	61.1	4.2
338.15	56.8	3.9
348.15	53.2	3.6
358.15	49.9	3.4

System: decane + 1-butyl-3-methylpyridinium trifluoromethanesulfonate; phases: Liquid
Fixed: Pressure, kPa = 101
Fixed: Mole fraction of decane = 0
Property: Activity coefficient of decane (Liquid); method: Chromatography
Temperature, K	Activity coefficient of decane	uncertainty
308.15	104.3	7.2
318.15	94.9	6.5
328.15	87.6	6
338.15	80.2	5.5
348.15	74.6	5.1
358.15	69.5	4.8

System: cyclopentane + 1-butyl-3-methylpyridinium trifluoromethanesulfonate; phases: Liquid
Fixed: Pressure, kPa = 101
Fixed: Mole fraction of cyclopentane = 0
Property: Activity coefficient of cyclopentane (Liquid); method: Chromatography
Temperature, K	Activity coefficient of cyclopentane	uncertainty
308.15	9.4	0.64
318.15	8.89	0.61
328.15	8.51	0.58
338.15	8.15	0.56
348.15	7.8	0.53
358.15	7.54	0.51

System: cyclohexane + 1-butyl-3-methylpyridinium trifluoromethanesulfonate; phases: Liquid
Fixed: Pressure, kPa = 101
Fixed: Mole fraction of cyclohexane = 0
Property: Activity coefficient of cyclohexane (Liquid); method: Chromatography
Temperature, K	Activity coefficient of cyclohexane	uncertainty
308.15	13.2	0.9
318.15	12.4	0.8
328.15	11.7	0.8
338.15	11.1	0.8
348.15	10.6	0.7
358.15	10.1	0.7

System: cycloheptane + 1-butyl-3-methylpyridinium trifluoromethanesulfonate; phases: Liquid
Fixed: Pressure, kPa = 101
Fixed: Mole fraction of cycloheptane = 0
Property: Activity coefficient of cycloheptane (Liquid); method: Chromatography
Temperature, K	Activity coefficient of cycloheptane	uncertainty
308.15	16.4	1.1
318.15	15.4	1.1
328.15	14.6	1
338.15	13.8	0.9
348.15	13.2	0.9
358.15	12.5	0.9

System: cyclooctane + 1-butyl-3-methylpyridinium trifluoromethanesulfonate; phases: Liquid
Fixed: Pressure, kPa = 101
Fixed: Mole fraction of cyclooctane = 0
Property: Activity coefficient of cyclooctane (Liquid); method: Chromatography
Temperature, K	Activity coefficient of cyclooctane	uncertainty
318.15	19.8	1.4
328.15	18.6	1.3
338.15	17.5	1.2
348.15	16.5	1.1
358.15	15.7	1.1

System: 1-pentene + 1-butyl-3-methylpyridinium trifluoromethanesulfonate; phases: Liquid
Fixed: Pressure, kPa = 101
Fixed: Mole fraction of 1-pentene = 0
Property: Activity coefficient of 1-pentene (Liquid); method: Chromatography
Temperature, K	Activity coefficient of 1-pentene	uncertainty
308.15	8.67	0.59
318.15	8.44	0.58
328.15	8.23	0.56
338.15	8.03	0.55
348.15	7.88	0.54
358.15	7.73	0.53

System: hex-1-ene + 1-butyl-3-methylpyridinium trifluoromethanesulfonate; phases: Liquid
Fixed: Pressure, kPa = 101
Fixed: Mole fraction of hex-1-ene = 0
Property: Activity coefficient of hex-1-ene (Liquid); method: Chromatography
Temperature, K	Activity coefficient of hex-1-ene	uncertainty
308.15	11.9	0.8
318.15	11.5	0.8
328.15	11.2	0.8
338.15	10.9	0.7
348.15	10.6	0.7
358.15	10.3	0.7

System: 1-heptene + 1-butyl-3-methylpyridinium trifluoromethanesulfonate; phases: Liquid
Fixed: Pressure, kPa = 101
Fixed: Mole fraction of 1-heptene = 0
Property: Activity coefficient of 1-heptene (Liquid); method: Chromatography
Temperature, K	Activity coefficient of 1-heptene	uncertainty
308.15	17.1	1.2
318.15	16.4	1.1
328.15	15.9	1.1
338.15	15.4	1.1
348.15	15	1
358.15	14.5	1
