Measured thermophysical data. 1-Ethyl-3-methylimidazolium Ethylsulfate in Water, Acetonitrile, and Dichloromethane: Molar Conductivities and Association Constants
Source: J. Chem. Eng. Data, 2011, 10.1021/je101130e
Compound 1: 1-ethyl-3-methylimidazolium ethyl sulfate, C8H16N2O4S, InChI=1S/C6H11N2.C2H6O4S/c1-3-8-5-4-7(2)6-8;1-2-6-7(3,4)5/h4-6H,3H2,1-2H3;2H2,1H3,(H,3,4,5)/q+1;/p-1
Compound 2: water, H2O, InChI=1S/H2O/h1H2
Compound 3: acetonitrile, C2H3N, InChI=1S/C2H3N/c1-2-3/h1H3, purity 99.9%
Compound 4: dichloromethane, CH2Cl2, InChI=1S/CH2Cl2/c2-1-3/h1H2, purity 99.8%

System: water + 1-ethyl-3-methylimidazolium ethyl sulfate; phases: Liquid
Fixed: Pressure, kPa = 101
Fixed: Temperature, K = 298.15
Property: Mass density, kg/m3 (Liquid); method: Vibrating tube method
Molality, mol/kg of 1-ethyl-3-methylimidazolium ethyl sulfate	Mass density, kg/m3	uncertainty
0.00508637	997.281	10
0.0693387	1000.107	10

System: water + 1-ethyl-3-methylimidazolium ethyl sulfate; phases: Liquid
Fixed: Pressure, kPa = 101
Property: Molar conductivity, S*m2/mol (Liquid); method: Alternating current cell with electrodes
Temperature, K	Amount concentration (molarity), mol/dm3 of 1-ethyl-3-methylimidazolium ethyl sulfate	Molar conductivity, S*m2/mol	uncertainty
278.15	0.63675	0.0049598	5e-06
278.15	1.07044	0.0049391	4.9e-06
278.15	1.52673	0.0049163	4.9e-06
278.15	1.99107	0.0048923	4.9e-06
278.15	2.47999	0.0048766	4.9e-06
278.15	3.11378	0.0048486	4.8e-06
278.15	3.76743	0.0048261	4.8e-06
278.15	4.3845	0.0047904	4.8e-06
278.15	5.08637	0.0047828	4.8e-06
283.15	0.63675	0.0057155	5.7e-06
283.15	1.07044	0.0056897	5.7e-06
283.15	1.52673	0.0056636	5.7e-06
283.15	1.99107	0.0056374	5.6e-06
283.15	2.47999	0.0056159	5.6e-06
283.15	3.11378	0.0055846	5.6e-06
283.15	3.76743	0.0055588	5.6e-06
283.15	4.3845	0.0055336	5.5e-06
283.15	5.08637	0.0055088	5.5e-06
288.15	0.63675	0.0065118	6.5e-06
288.15	1.07044	0.0064802	6.5e-06
288.15	1.52673	0.0064496	6.4e-06
288.15	1.99107	0.0064206	6.4e-06
288.15	2.47999	0.0063952	6.4e-06
288.15	3.11378	0.0063605	6.4e-06
288.15	3.76743	0.0063311	6.3e-06
288.15	4.3845	0.0063021	6.3e-06
288.15	5.08637	0.0062738	6.3e-06
293.15	0.63675	0.0073408	7.3e-06
293.15	1.07044	0.0073039	7.3e-06
293.15	1.52673	0.0072705	7.3e-06
293.15	1.99107	0.0072366	7.2e-06
293.15	2.47999	0.0072073	7.2e-06
293.15	3.11378	0.0071687	7.2e-06
293.15	3.76743	0.007135	7.1e-06
293.15	4.3845	0.0071023	7.1e-06
293.15	5.08637	0.0070712	7.1e-06
298.15	0.63675	0.0082055	8.2e-06
298.15	1.07044	0.008163	8.2e-06
298.15	1.52673	0.008125	8.1e-06
298.15	1.99107	0.0080879	8.1e-06
298.15	2.47999	0.0080539	8.1e-06
298.15	3.11378	0.0080112	8e-06
298.15	3.76743	0.0079739	8e-06
298.15	4.3845	0.0079372	7.9e-06
298.15	5.08637	0.0079028	7.9e-06
303.15	0.63675	0.0090983	9.1e-06
303.15	1.07044	0.0090523	9.1e-06
303.15	1.52673	0.0090088	9e-06
303.15	1.99107	0.0089674	9e-06
303.15	2.47999	0.00893	8.9e-06
303.15	3.11378	0.0088818	8.9e-06
303.15	3.76743	0.0088395	8.8e-06
303.15	4.3845	0.0087992	8.8e-06
303.15	5.08637	0.0087612	8.8e-06
308.15	0.63675	0.0100223	1e-05
308.15	1.07044	0.0099699	1e-05
308.15	1.52673	0.0099213	9.9e-06
308.15	1.99107	0.0098751	9.9e-06
308.15	2.47999	0.0098348	9.8e-06
308.15	3.11378	0.0097823	9.8e-06
308.15	3.76743	0.0097357	9.7e-06
308.15	4.3845	0.0096893	9.7e-06
308.15	5.08637	0.0096453	9.6e-06
313.15	0.63675	0.0109645	1.1e-05
313.15	1.07044	0.0109159	1.09e-05
313.15	1.52673	0.0108592	1.09e-05
313.15	1.99107	0.0108133	1.08e-05
313.15	2.47999	0.0107649	1.08e-05
313.15	3.11378	0.0107101	1.07e-05
313.15	3.76743	0.0106611	1.07e-05
313.15	4.3845	0.0106095	1.06e-05
313.15	5.08637	0.010562	1.06e-05

System: acetonitrile + 1-ethyl-3-methylimidazolium ethyl sulfate; phases: Liquid
Fixed: Pressure, kPa = 101
Fixed: Temperature, K = 298.15
Property: Mass density, kg/m3 (Liquid); method: Vibrating tube method
Molality, mol/kg of 1-ethyl-3-methylimidazolium ethyl sulfate	Mass density, kg/m3	uncertainty
0.00654571	777.183	10.001
0.14449	788.755	10.001

System: acetonitrile + 1-ethyl-3-methylimidazolium ethyl sulfate; phases: Liquid
Fixed: Pressure, kPa = 101
Property: Molar conductivity, S*m2/mol (Liquid); method: Alternating current cell with electrodes
Temperature, K	Amount concentration (molarity), mol/dm3 of 1-ethyl-3-methylimidazolium ethyl sulfate	Molar conductivity, S*m2/mol	uncertainty
273.15	0.37064	0.0128206	1.28e-05
273.15	0.74926	0.012547	1.25e-05
273.15	1.17572	0.0123127	1.23e-05
273.15	1.69811	0.0120847	1.21e-05
273.15	2.18511	0.0118935	1.19e-05
273.15	2.69476	0.0117153	1.17e-05
273.15	3.26854	0.0115391	1.15e-05
273.15	3.88228	0.0113714	1.14e-05
273.15	4.67065	0.01117	1.12e-05
273.15	5.37443	0.0110158	1.1e-05
273.15	5.98694	0.0108928	1.09e-05
273.15	6.54571	0.0107909	1.08e-05
278.15	0.37064	0.0135596	1.36e-05
278.15	0.74926	0.0132705	1.33e-05
278.15	1.17572	0.0130214	1.3e-05
278.15	1.69811	0.0127824	1.28e-05
278.15	2.18511	0.0125799	1.26e-05
278.15	2.69476	0.012392	1.24e-05
278.15	3.26854	0.0122064	1.22e-05
278.15	3.88228	0.0120287	1.2e-05
278.15	4.67065	0.0118163	1.18e-05
278.15	5.37443	0.0116547	1.17e-05
278.15	5.98694	0.0115247	1.15e-05
278.15	6.54571	0.0114166	1.14e-05
283.15	0.37064	0.0143088	1.43e-05
283.15	0.74926	0.0140036	1.4e-05
283.15	1.17572	0.0137411	1.37e-05
283.15	1.69811	0.0134892	1.35e-05
283.15	2.18511	0.013276	1.33e-05
283.15	2.69476	0.0130778	1.31e-05
283.15	3.26854	0.0128822	1.29e-05
283.15	3.88228	0.0126953	1.27e-05
283.15	4.67065	0.0124722	1.25e-05
283.15	5.37443	0.0123002	1.23e-05
283.15	5.98694	0.0121647	1.22e-05
283.15	6.54571	0.0120508	1.21e-05
288.15	0.37064	0.0150717	1.51e-05
288.15	0.74926	0.0147467	1.47e-05
288.15	1.17572	0.0144716	1.45e-05
288.15	1.69811	0.0142067	1.42e-05
288.15	2.18511	0.0139813	1.4e-05
288.15	2.69476	0.0137731	1.38e-05
288.15	3.26854	0.0135667	1.36e-05
288.15	3.88228	0.0133704	1.34e-05
288.15	4.67065	0.013136	1.31e-05
288.15	5.37443	0.0129549	1.3e-05
288.15	5.98694	0.0128141	1.28e-05
288.15	6.54571	0.0126928	1.27e-05
293.15	0.37064	0.0158431	1.58e-05
293.15	0.74926	0.0154993	1.55e-05
293.15	1.17572	0.0152114	1.52e-05
293.15	1.69811	0.0149339	1.49e-05
293.15	2.18511	0.0146968	1.47e-05
293.15	2.69476	0.0144771	1.45e-05
293.15	3.26854	0.0142611	1.43e-05
293.15	3.88228	0.0140538	1.41e-05
293.15	4.67065	0.013808	1.38e-05
293.15	5.37443	0.0136176	1.36e-05
293.15	5.98694	0.0134703	1.35e-05
293.15	6.54571	0.0133432	1.33e-05
298.15	0.37064	0.0166279	1.66e-05
298.15	0.74926	0.0162623	1.63e-05
298.15	1.17572	0.0159609	1.6e-05
298.15	1.69811	0.0156699	1.57e-05
298.15	2.18511	0.01542	1.54e-05
298.15	2.69476	0.01519	1.52e-05
298.15	3.26854	0.0149632	1.5e-05
298.15	3.88228	0.0147453	1.47e-05
298.15	4.67065	0.0144864	1.45e-05
298.15	5.37443	0.0142875	1.43e-05
298.15	5.98694	0.0141338	1.41e-05
298.15	6.54571	0.014	1.4e-05
303.15	0.37064	0.0174226	1.74e-05
303.15	0.74926	0.0170397	1.7e-05
303.15	1.17572	0.0167223	1.67e-05
303.15	1.69811	0.0164144	1.64e-05
303.15	2.18511	0.0161542	1.62e-05
303.15	2.69476	0.0159129	1.59e-05
303.15	3.26854	0.0156745	1.57e-05
303.15	3.88228	0.0154456	1.54e-05
303.15	4.67065	0.0151768	1.52e-05
303.15	5.37443	0.0149686	1.5e-05
303.15	5.98694	0.0148048	1.48e-05
303.15	6.54571	0.0146655	1.47e-05
308.15	0.37064	0.018226	1.82e-05
308.15	0.74926	0.0178232	1.78e-05
308.15	1.17572	0.0174917	1.75e-05
308.15	1.69811	0.0171711	1.72e-05
308.15	2.18511	0.0168981	1.69e-05
308.15	2.69476	0.0166449	1.66e-05
308.15	3.26854	0.016396	1.64e-05
308.15	3.88228	0.0161549	1.62e-05
308.15	4.67065	0.0158751	1.59e-05
308.15	5.37443	0.0156555	1.57e-05
308.15	5.98694	0.0154853	1.55e-05
308.15	6.54571	0.0153377	1.53e-05
313.15	0.37064	0.0190448	1.9e-05
313.15	0.74926	0.0186217	1.86e-05
313.15	1.17572	0.0182729	1.83e-05
313.15	1.69811	0.0179374	1.79e-05
313.15	2.18511	0.0176505	1.77e-05
313.15	2.69476	0.017386	1.74e-05
313.15	3.26854	0.0171245	1.71e-05
313.15	3.88228	0.0168731	1.69e-05
313.15	4.67065	0.0165805	1.66e-05
313.15	5.37443	0.0163504	1.64e-05
313.15	5.98694	0.0161731	1.62e-05
313.15	6.54571	0.0160208	1.6e-05

System: dichloromethane + 1-ethyl-3-methylimidazolium ethyl sulfate; phases: Liquid
Fixed: Pressure, kPa = 101
Fixed: Temperature, K = 298.15
Property: Mass density, kg/m3 (Liquid); method: Vibrating tube method
Molality, mol/kg of 1-ethyl-3-methylimidazolium ethyl sulfate	Mass density, kg/m3	uncertainty
0.00393095	1316.389	10.001
0.135159	1316.676	10.001

System: dichloromethane + 1-ethyl-3-methylimidazolium ethyl sulfate; phases: Liquid
Fixed: Pressure, kPa = 101
Property: Molar conductivity, S*m2/mol (Liquid); method: Alternating current cell with electrodes
Temperature, K	Amount concentration (molarity), mol/dm3 of 1-ethyl-3-methylimidazolium ethyl sulfate	Molar conductivity, S*m2/mol	uncertainty
273.15	0.53986	0.0004064	4e-07
273.15	0.86561	0.0003364	3e-07
273.15	1.15207	0.0003033	3e-07
273.15	1.50367	0.0002764	3e-07
273.15	1.80846	0.0002603	3e-07
273.15	2.09909	0.0002493	3e-07
273.15	2.3758	0.0002409	2e-07
273.15	2.72255	0.0002334	2e-07
273.15	3.07351	0.0002276	2e-07
273.15	3.33319	0.000224	2e-07
273.15	3.60706	0.0002213	2e-07
273.15	3.93095	0.000219	2e-07
278.15	0.53986	0.0004194	4e-07
278.15	0.86561	0.0003471	4e-07
278.15	1.15207	0.0003131	3e-07
278.15	1.50367	0.0002855	3e-07
278.15	1.80846	0.0002689	3e-07
278.15	2.09909	0.0002575	3e-07
278.15	2.3758	0.0002489	3e-07
278.15	2.72255	0.0002412	2e-07
278.15	3.07351	0.0002352	2e-07
278.15	3.33319	0.0002315	2e-07
278.15	3.60706	0.0002288	2e-07
278.15	3.93095	0.0002264	2e-07
283.15	0.53986	0.0004324	4e-07
283.15	0.86561	0.0003579	4e-07
283.15	1.15207	0.0003228	3e-07
283.15	1.50367	0.0002943	3e-07
283.15	1.80846	0.0002772	3e-07
283.15	2.09909	0.0002653	3e-07
283.15	2.3758	0.0002566	3e-07
283.15	2.72255	0.0002486	3e-07
283.15	3.07351	0.0002425	2e-07
283.15	3.33319	0.0002387	2e-07
283.15	3.60706	0.0002359	2e-07
283.15	3.93095	0.0002334	2e-07
288.15	0.53986	0.0004454	4e-07
288.15	0.86561	0.0003684	4e-07
288.15	1.15207	0.0003322	3e-07
288.15	1.50367	0.0003028	3e-07
288.15	1.80846	0.0002852	3e-07
288.15	2.09909	0.000273	3e-07
288.15	2.3758	0.000264	3e-07
288.15	2.72255	0.0002557	3e-07
288.15	3.07351	0.0002494	3e-07
288.15	3.33319	0.0002455	3e-07
288.15	3.60706	0.0002427	2e-07
288.15	3.93095	0.0002401	2e-07
293.15	0.53986	0.0004554	5e-07
293.15	0.86561	0.0003768	4e-07
293.15	1.15207	0.0003398	3e-07
293.15	1.50367	0.0003098	3e-07
293.15	1.80846	0.0002918	3e-07
293.15	2.09909	0.0002794	3e-07
293.15	2.3758	0.0002702	3e-07
293.15	2.72255	0.0002618	3e-07
293.15	3.07351	0.0002554	3e-07
293.15	3.33319	0.0002514	3e-07
293.15	3.60706	0.0002488	3e-07
293.15	3.93095	0.0002459	3e-07
298.15	0.53986	0.000462	5e-07
298.15	0.86561	0.0003829	4e-07
298.15	1.15207	0.0003455	3e-07
298.15	1.50367	0.0003152	3e-07
298.15	1.80846	0.0002971	3e-07
298.15	2.09909	0.0002845	3e-07
298.15	2.3758	0.0002753	3e-07
298.15	2.72255	0.0002668	3e-07
298.15	3.07351	0.0002604	3e-07
298.15	3.33319	0.0002564	3e-07
298.15	3.60706	0.0002538	3e-07
298.15	3.93095	0.000251	3e-07
303.15	0.53986	0.000471	5e-07
303.15	0.86561	0.0003904	4e-07
303.15	1.15207	0.0003521	4e-07
303.15	1.50367	0.0003212	3e-07
303.15	1.80846	0.0003029	3e-07
303.15	2.09909	0.00029	3e-07
303.15	2.3758	0.0002806	3e-07
303.15	2.72255	0.000272	3e-07
303.15	3.07351	0.0002655	3e-07
303.15	3.33319	0.0002615	3e-07
303.15	3.60706	0.0002588	3e-07
303.15	3.93095	0.000256	3e-07
308.15	0.53986	0.0004771	5e-07
308.15	0.86561	0.0003958	4e-07
308.15	1.15207	0.0003571	4e-07
308.15	1.50367	0.0003258	3e-07
308.15	1.80846	0.0003073	3e-07
308.15	2.09909	0.0002942	3e-07
308.15	2.3758	0.0002849	3e-07
308.15	2.72255	0.0002762	3e-07
308.15	3.07351	0.0002698	3e-07
308.15	3.33319	0.0002657	3e-07
308.15	3.60706	0.000263	3e-07
308.15	3.93095	0.0002601	3e-07
