Measured thermophysical data. Solid-Liquid Equilibria in Three Binary Mixtures Containing Diphenyl Carbonate
Source: J. Chem. Eng. Data, 2011, 10.1021/je101199g
Compound 1: dodecan-1-ol, C12H26O, InChI=1S/C12H26O/c1-2-3-4-5-6-7-8-9-10-11-12-13/h13H,2-12H2,1H3
Compound 2: 2-methylimidazole, C4H6N2, InChI=1S/C4H6N2/c1-4-5-2-3-6-4/h2-3H,1H3,(H,5,6)
Compound 3: methanol, CH4O, InChI=1S/CH4O/c1-2/h2H,1H3
Compound 4: diphenyl carbonate, C13H10O3, InChI=1S/C13H10O3/c14-13(15-11-7-3-1-4-8-11)16-12-9-5-2-6-10-12/h1-10H
Compound 5: dimethyl carbonate, C3H6O3, InChI=1S/C3H6O3/c1-5-3(4)6-2/h1-2H3
Compound 6: phenol, C6H6O, InChI=1S/C6H6O/c7-6-4-2-1-3-5-6/h1-5,7H

System: dodecan-1-ol; phases: Crystal, Liquid, Air at 1 atmosphere
Property: Normal melting temperature, K (Crystal); method: VISOBS:UFactor:4
Normal melting temperature, K	uncertainty
296.51	0.62

System: 2-methylimidazole; phases: Crystal, Liquid, Air at 1 atmosphere
Property: Normal melting temperature, K (Crystal); method: VISOBS:UFactor:8
Normal melting temperature, K	uncertainty
419.38	1.24

System: diphenyl carbonate; phases: Crystal, Liquid, Air at 1 atmosphere
Property: Normal melting temperature, K (Crystal); method: VISOBS:UFactor:8
Normal melting temperature, K	uncertainty
353.96	1.24

System: dimethyl carbonate; phases: Crystal, Liquid, Air at 1 atmosphere
Property: Normal melting temperature, K (Crystal); method: VISOBS:UFactor:4
Normal melting temperature, K	uncertainty
278.16	0.62

System: dodecan-1-ol + 2-methylimidazole; phases: Liquid, Crystal, Crystal, Air at 1 atmosphere
Property: Eutectic temperature, K (Liquid); method: Derived from phase diagram analysis
Eutectic temperature, K	uncertainty
290.94	0.6

System: dodecan-1-ol + 2-methylimidazole; phases: Liquid, Crystal, Crystal, Air at 1 atmosphere
Property: Eutectic composition: mole fraction of 2-methylimidazole (Liquid); method: Derived from phase diagram analysis
Eutectic composition: mole fraction of 2-methylimidazole	uncertainty
0.2501	0.0019

System: dodecan-1-ol + 2-methylimidazole; phases: Liquid, Crystal
Fixed: Pressure, kPa = 101
Property: Solid-liquid equilibrium temperature, K (Liquid); method: VISOBS:UFactor:4
Mole fraction of 2-methylimidazole	Solid-liquid equilibrium temperature, K	uncertainty
0	296.51	0.62
0.0698	295.43	0.62
0.0863	295.01	0.62
0.1004	294.61	0.62
0.1495	293.64	0.62
0.1988	292.38	0.62
0.2427	291.28	0.62

System: dodecan-1-ol + 2-methylimidazole; phases: Liquid, Crystal
Fixed: Pressure, kPa = 101
Property: Solid-liquid equilibrium temperature, K (Liquid); method: VISOBS:UFactor:8
Mole fraction of 2-methylimidazole	Solid-liquid equilibrium temperature, K	uncertainty
0.2574	292.59	1.24
0.2692	297.08	1.24
0.2837	301.21	1.24
0.2981	306.48	1.24
0.3123	310.4	1.24
0.3409	316.5	1.24
0.357	322.17	1.24
0.3775	326.28	1.24
0.4075	334.48	1.24
0.4346	339.69	1.24
0.4514	343.69	1.24
0.4693	348.67	1.24
0.4922	351.83	1.24
0.5148	356.84	1.24
0.5305	359.37	1.24
0.5646	365.2	1.24
0.5826	369.11	1.24
0.5981	372.22	1.24
0.6174	374.89	1.24
0.6224	375.29	1.24
0.6415	379.32	1.24
0.6554	381.93	1.24
0.7018	387.68	1.24
0.7523	393.38	1.24
0.7944	398.78	1.24
0.8467	404.7	1.24
0.8984	410.47	1.24
0.9493	414.17	1.24
1	419.38	1.24

System: methanol + diphenyl carbonate; phases: Liquid, Crystal
Fixed: Pressure, kPa = 101
Property: Solid-liquid equilibrium temperature, K (Liquid); method: VISOBS:UFactor:8
Mole fraction of methanol	Solid-liquid equilibrium temperature, K	uncertainty
0	353.96	1.24
0.1005	346	1.24
0.2034	339.3	1.24
0.3029	335.53	1.24
0.3566	332.67	1.24
0.4034	329.84	1.24
0.4765	328.2	1.24
0.4947	328.15	1.24
0.4947	328.15	1.24
0.5415	327.43	1.24
0.5762	326.25	1.24
0.6589	325.22	1.24
0.6665	325.21	1.24
0.7054	324.03	1.24
0.7396	323.2	1.24
0.7658	323.22	1.24
0.8045	323.2	1.24
0.8074	322.83	1.24
0.8541	320.91	1.24
0.8634	319.66	1.24
0.8787	316.03	1.24
0.9003	313.16	1.24
0.9191	308.29	1.24

System: diphenyl carbonate + dimethyl carbonate; phases: Liquid, Crystal, Crystal, Air at 1 atmosphere
Property: Eutectic temperature, K (Liquid); method: Derived from phase diagram analysis
Eutectic temperature, K	uncertainty
273.42	0.6

System: diphenyl carbonate + dimethyl carbonate; phases: Liquid, Crystal, Crystal, Air at 1 atmosphere
Property: Eutectic composition: mole fraction of dimethyl carbonate (Liquid); method: Derived from phase diagram analysis
Eutectic composition: mole fraction of dimethyl carbonate	uncertainty
0.9073	0.0007

System: diphenyl carbonate + dimethyl carbonate; phases: Liquid, Crystal
Fixed: Pressure, kPa = 101
Property: Solid-liquid equilibrium temperature, K (Liquid); method: VISOBS:UFactor:4
Mole fraction of dimethyl carbonate	Solid-liquid equilibrium temperature, K	uncertainty
0	353.96	0.62
0.1148	347.03	0.62
0.208	342.44	0.62
0.3037	337.98	0.62
0.4103	331.49	0.62
0.5112	324.37	0.62
0.6028	316.65	0.62
0.7059	306.69	0.62
0.7974	294.3	0.62
0.8999	275.12	0.62
0.9021	274.35	0.62
0.905	273.6	0.62

System: diphenyl carbonate + dimethyl carbonate; phases: Liquid, Crystal
Fixed: Pressure, kPa = 101
Property: Solid-liquid equilibrium temperature, K (Liquid); method: VISOBS:UFactor:4
Mole fraction of dimethyl carbonate	Solid-liquid equilibrium temperature, K	uncertainty
0.9202	273.6	0.62
0.939	274.81	0.62
0.9447	275.45	0.62
0.9507	275.91	0.62
0.9602	276.51	0.62
0.9695	277.08	0.62
0.9901	277.69	0.62
1	278.16	0.62

System: diphenyl carbonate + phenol; phases: Liquid, Crystal, Crystal of intercomponent compound 1, Air at 1 atmosphere
Property: Eutectic temperature, K (Liquid); method: Derived from phase diagram analysis
Eutectic temperature, K	uncertainty
325.61	0.6

System: diphenyl carbonate + phenol; phases: Liquid, Crystal of intercomponent compound 1, Crystal, Air at 1 atmosphere
Property: Eutectic temperature, K (Liquid); method: Derived from phase diagram analysis
Eutectic temperature, K	uncertainty
306.63	0.6

System: diphenyl carbonate + phenol; phases: Liquid, Crystal, Crystal of intercomponent compound 1, Air at 1 atmosphere
Property: Eutectic composition: mole fraction of phenol (Liquid); method: Derived from phase diagram analysis
Eutectic composition: mole fraction of phenol	uncertainty
0.4952	0.0038

System: diphenyl carbonate + phenol; phases: Liquid, Crystal of intercomponent compound 1, Crystal, Air at 1 atmosphere
Property: Eutectic composition: mole fraction of phenol (Liquid); method: Derived from phase diagram analysis
Eutectic composition: mole fraction of phenol	uncertainty
0.8989	0.0008

System: diphenyl carbonate + phenol; phases: Liquid, Crystal
Fixed: Pressure, kPa = 101
Property: Solid-liquid equilibrium temperature, K (Liquid); method: VISOBS:UFactor:4
Mole fraction of phenol	Solid-liquid equilibrium temperature, K	uncertainty
0	353.96	0.62
0.1021	348.53	0.62
0.2014	343.03	0.62
0.2996	337.52	0.62
0.4	332.13	0.62
0.4553	328.29	0.62
0.4808	326.46	0.62
0.4905	325.88	0.62

System: diphenyl carbonate + phenol; phases: Liquid, Crystal of intercomponent compound 1
Fixed: Pressure, kPa = 101
Property: Solid-liquid equilibrium temperature, K (Liquid); method: VISOBS:UFactor:4
Mole fraction of phenol	Solid-liquid equilibrium temperature, K	uncertainty
0.4999	325.72	0.62
0.5053	325.7	0.62
0.52	325.1	0.62
0.5489	325.09	0.62
0.5992	323.79	0.62
0.6493	322.48	0.62
0.6996	320.69	0.62
0.7518	317.99	0.62
0.7979	314.52	0.62
0.8484	309.98	0.62
0.8902	307.23	0.62
0.8981	306.76	0.62

System: diphenyl carbonate + phenol; phases: Liquid, Crystal
Fixed: Pressure, kPa = 101
Property: Solid-liquid equilibrium temperature, K (Liquid); method: VISOBS:UFactor:4
Mole fraction of phenol	Solid-liquid equilibrium temperature, K	uncertainty
0.9001	306.85	0.62
0.9048	307.44	0.62
0.9201	308.63	0.62
0.93	309.29	0.62
0.9498	310.43	0.62
1	313.99	0.62
