Measured thermophysical data. Volumetric, Refractometric, and Excess Properties of Glycylglycine in Aqueous FeCl2 Solution at Temperatures T = (288.15 to 318.15) K
Source: J. Chem. Eng. Data, 2010, 10.1021/je100151b
Compound 1: glycylglycine, C4H8N2O3, InChI=1S/C4H8N2O3/c5-1-3(7)6-2-4(8)9/h1-2,5H2,(H,6,7)(H,8,9)
Compound 2: ferrous chloride, Cl2Fe, InChI=1S/2ClH.Fe/h2*1H;/q;;+2/p-2
Compound 3: water, H2O, InChI=1S/H2O/h1H2

System: water + ferrous chloride; phases: Liquid
Fixed: Pressure, kPa = 101
Fixed: Molality, mol/kg of ferrous chloride = 0.25
Property: Refractive index (Na D-line) (Liquid); method: Standard Abbe refractometry
Temperature, K	Refractive index (Na D-line)	uncertainty
288.15	1.3375	0.0019
293.15	1.3468	0.0019
298.15	1.3559	0.002
303.15	1.3661	0.0021
308.15	1.3768	0.0022
313.15	1.3874	0.0022
318.15	1.398	0.0022

System: water + ferrous chloride; phases: Liquid
Fixed: Pressure, kPa = 101
Fixed: Molality, mol/kg of ferrous chloride = 0.25
Property: Mass density, kg/m3 (Liquid); method: VIBTUB:UFactor:8
Temperature, K	Mass density, kg/m3	uncertainty
288.15	998.9	0.4
293.15	998.2	0.5
298.15	997	0.4
303.15	996	0.5
308.15	995	0.4
313.15	994.5	0.4
318.15	993.8	0.5

System: glycylglycine + water + ferrous chloride; phases: Liquid
Fixed: Pressure, kPa = 101
Fixed: Solvent: Molality, mol/kg of ferrous chloride = 0.25
Property: Refractive index (Na D-line) (Liquid); method: Standard Abbe refractometry
Temperature, K	Molality, mol/kg of glycylglycine	Refractive index (Na D-line)	uncertainty
288.15	0	1.3375	0.0019
288.15	0.005	1.3449	0.0019
288.15	0.007	1.3482	0.0023
288.15	0.01	1.3528	0.0026
288.15	0.02	1.3591	0.0022
288.15	0.03	1.3635	0.0024
288.15	0.05	1.3681	0.0024
288.15	0.1	1.3718	0.0019
293.15	0	1.3468	0.0019
293.15	0.005	1.3543	0.002
293.15	0.007	1.3594	0.0022
293.15	0.01	1.3641	0.0022
293.15	0.02	1.3694	0.002
293.15	0.03	1.3742	0.0021
293.15	0.05	1.3784	0.0022
293.15	0.1	1.3813	0.0023
298.15	0	1.3559	0.002
298.15	0.005	1.3641	0.002
298.15	0.007	1.3693	0.002
298.15	0.01	1.3741	0.0021
298.15	0.02	1.3787	0.002
298.15	0.03	1.3845	0.002
298.15	0.05	1.3898	0.0021
298.15	0.1	1.3947	0.0021
303.15	0	1.3661	0.0021
303.15	0.005	1.3739	0.002
303.15	0.007	1.3789	0.002
303.15	0.01	1.3842	0.002
303.15	0.02	1.3886	0.002
303.15	0.03	1.3935	0.002
303.15	0.05	1.3992	0.0019
303.15	0.1	1.4016	0.002
308.15	0	1.3768	0.0022
308.15	0.005	1.3833	0.002
308.15	0.007	1.3884	0.0019
308.15	0.01	1.3935	0.002
308.15	0.02	1.3986	0.0021
308.15	0.03	1.4037	0.0022
308.15	0.05	1.4088	0.002
308.15	0.1	1.4139	0.0022
313.15	0	1.3874	0.0022
313.15	0.005	1.3931	0.0019
313.15	0.007	1.3979	0.002
313.15	0.01	1.4042	0.0019
313.15	0.02	1.4094	0.002
313.15	0.03	1.4154	0.002
313.15	0.05	1.4186	0.0021
313.15	0.1	1.4231	0.0017
318.15	0	1.398	0.0022
318.15	0.005	1.4016	0.0021
318.15	0.007	1.4075	0.0018
318.15	0.01	1.4123	0.0014
318.15	0.02	1.4186	0.0018
318.15	0.03	1.4229	0.0015
318.15	0.05	1.4294	0.0017
318.15	0.1	1.43	0.01

System: glycylglycine + water + ferrous chloride; phases: Liquid
Fixed: Pressure, kPa = 101
Fixed: Solvent: Molality, mol/kg of ferrous chloride = 0.25
Property: Mass density, kg/m3 (Liquid); method: VIBTUB:UFactor:8
Temperature, K	Molality, mol/kg of glycylglycine	Mass density, kg/m3	uncertainty
288.15	0	998.9	0.4
288.15	0.005	999.9	0.5
288.15	0.007	1000.6	0.5
288.15	0.01	1001.4	0.4
288.15	0.02	1002.3	0.4
288.15	0.03	1003.1	0.4
288.15	0.05	1003.8	0.4
288.15	0.1	1004.6	0.4
293.15	0	998.2	0.5
293.15	0.005	999.7	0.5
293.15	0.007	1000.5	0.5
293.15	0.01	1001.2	0.4
293.15	0.02	1002	0.4
293.15	0.03	1002.7	0.4
293.15	0.05	1003.5	0.4
293.15	0.1	1004.3	0.4
298.15	0	997	0.4
298.15	0.005	997.8	0.5
298.15	0.007	998.6	0.5
298.15	0.01	999.5	0.4
298.15	0.02	1000.6	0.4
298.15	0.03	1001.5	0.4
298.15	0.05	1002.4	0.4
298.15	0.1	1003.4	0.4
303.15	0	996	0.5
303.15	0.005	997.2	0.5
303.15	0.007	998.1	0.5
303.15	0.01	999	0.4
303.15	0.02	999.9	0.4
303.15	0.03	1000.8	0.4
303.15	0.05	1001.7	0.4
303.15	0.1	1002.7	0.4
308.15	0	995	0.4
308.15	0.005	996.1	0.5
308.15	0.007	996.8	0.5
308.15	0.01	997.5	0.4
308.15	0.02	998.3	0.4
308.15	0.03	999.1	0.4
308.15	0.05	999.9	0.4
308.15	0.1	1000.7	0.4
313.15	0	994.5	0.4
313.15	0.005	995.4	0.5
313.15	0.007	996.3	0.5
313.15	0.01	997.2	0.4
313.15	0.02	998.1	0.4
313.15	0.03	999	0.4
313.15	0.05	999.9	0.4
313.15	0.1	1000.9	0.4
318.15	0	993.8	0.5
318.15	0.005	995	0.5
318.15	0.007	995.7	0.5
318.15	0.01	996.4	0.4
318.15	0.02	997.2	0.4
318.15	0.03	998	0.4
318.15	0.05	998.8	0.4
318.15	0.1	999.6	0.4
