Measured thermophysical data. Solubilities of Ursolic Acid and Oleanolic Acid in Four Solvents from (283.2 to 329.7) K
Source: J. Chem. Eng. Data, 2011, 10.1021/je101309a
Compound 1: ursolic acid, C30H48O3, InChI=1S/C30H48O3/c1-18-10-15-30(25(32)33)17-16-28(6)20(24(30)19(18)2)8-9-22-27(5)13-12-23(31)26(3,4)21(27)11-14-29(22,28)7/h8,18-19,21-24,31H,9-17H2,1-7H3,(H,32,33)/t18-,19+,21+,22-,23+,24+,27+,28-,29-,30+/m1/s1, purity 98%
Compound 2: oleanolic acid, C30H48O3, InChI=1S/C30H48O3/c1-25(2)14-16-30(24(32)33)17-15-28(6)19(20(30)18-25)8-9-22-27(5)12-11-23(31)26(3,4)21(27)10-13-29(22,28)7/h8,20-23,31H,9-18H2,1-7H3,(H,32,33)/t20-,21-,22+,23-,27-,28+,29+,30-/m0/s1, purity 98%
Compound 3: propan-2-ol, C3H8O, InChI=1S/C3H8O/c1-3(2)4/h3-4H,1-2H3, purity 97%
Compound 4: ethanol, C2H6O, InChI=1S/C2H6O/c1-2-3/h3H,2H2,1H3, purity 97%
Compound 5: ethyl acetate, C4H8O2, InChI=1S/C4H8O2/c1-3-6-4(2)5/h3H2,1-2H3, purity 97%
Compound 6: methanol, CH4O, InChI=1S/CH4O/c1-2/h2H,1H3, purity 97%

System: methanol + ursolic acid; phases: Liquid, Crystal
Fixed: Pressure, kPa = 101
Property: Mole fraction of ursolic acid (Liquid); method: Chromatography
Temperature, K	Mole fraction of ursolic acid	uncertainty
293.6	0.0007229	8.43e-05
300.1	0.0008512	8.54e-05
305.2	0.0009311	8.62e-05
310	0.0010244	8.72e-05
320.1	0.001334	9.1e-05
323.2	0.0013238	9.07e-05
329.7	0.001461	9.83e-05

System: ethanol + ursolic acid; phases: Liquid, Crystal
Fixed: Pressure, kPa = 101
Property: Mole fraction of ursolic acid (Liquid); method: Chromatography
Temperature, K	Mole fraction of ursolic acid	uncertainty
293.6	0.0005137	0.0001153
300.1	0.0007659	0.0001157
305.2	0.0007351	0.0001155
310	0.0007608	0.0001157
320.1	0.0010457	0.0001167
323.2	0.0010479	0.0001166
329.7	0.0011643	0.0001171

System: propan-2-ol + ursolic acid; phases: Liquid, Crystal
Fixed: Pressure, kPa = 101
Property: Mole fraction of ursolic acid (Liquid); method: Chromatography
Temperature, K	Mole fraction of ursolic acid	uncertainty
293.6	0.0014439	0.0001832
300.1	0.0018085	0.000184
305.2	0.0019749	0.0001843
310	0.0021337	0.0001849
320.1	0.0027303	0.000187
323.2	0.002747	0.0001868
329.7	0.0029544	0.0001877

System: ursolic acid + ethyl acetate; phases: Liquid, Crystal
Fixed: Pressure, kPa = 101
Property: Mole fraction of ursolic acid (Liquid); method: Chromatography
Temperature, K	Mole fraction of ursolic acid	uncertainty
293.6	0.0007771	0.000101
300.1	0.0007712	0.000101
305.2	0.0010065	0.0001015
310	0.0011292	0.0001016
320.1	0.0015527	0.0001023
323.2	0.0016235	0.0001024
329.7	0.0018646	0.000114

System: methanol + oleanolic acid; phases: Liquid, Crystal
Fixed: Pressure, kPa = 101
Property: Mole fraction of oleanolic acid (Liquid); method: Chromatography
Temperature, K	Mole fraction of oleanolic acid	uncertainty
283.2	0.0003088	7.4e-05
296.2	0.000525	7.51e-05
305.2	0.0005303	7.51e-05
316.2	0.000669	7.62e-05
323.2	0.0007971	7.73e-05
326.2	0.000846	7.78e-05

System: ethanol + oleanolic acid; phases: Liquid, Crystal
Fixed: Pressure, kPa = 101
Property: Mole fraction of oleanolic acid (Liquid); method: Chromatography
Temperature, K	Mole fraction of oleanolic acid	uncertainty
283.2	0.0007488	0.000196
296.2	0.0009757	0.0001965
305.2	0.0010617	0.0001967
316.2	0.001455	0.0001978
323.2	0.0014148	0.0001976
326.2	0.00137	0.0001975

System: propan-2-ol + oleanolic acid; phases: Liquid, Crystal
Fixed: Pressure, kPa = 101
Property: Mole fraction of oleanolic acid (Liquid); method: Chromatography
Temperature, K	Mole fraction of oleanolic acid	uncertainty
283.2	0.0008033	0.0002257
296.2	0.001044	0.000226
305.2	0.0010733	0.000226
316.2	0.001443	0.0002266
323.2	0.0013607	0.0002264
326.2	0.00129	0.0002263

System: ethyl acetate + oleanolic acid; phases: Liquid, Crystal
Fixed: Pressure, kPa = 101
Property: Mole fraction of oleanolic acid (Liquid); method: Chromatography
Temperature, K	Mole fraction of oleanolic acid	uncertainty
283.2	0.0014792	0.0001023
296.2	0.00196	0.0001198
305.2	0.0022352	0.0001368
316.2	0.003057	0.000187
323.2	0.0035218	0.0002154
326.2	0.00383	0.0002346
