Measured thermophysical data. Liquid-Liquid Equilibria of the Ternary Systems of Alkane + Aromatic + 1-Ethylpyridinium Ethylsulfate Ionic Liquid at T = (283.15 and 298.15) K
Source: J. Chem. Eng. Data, 2010, 10.1021/je100716c
Compound 1: nonane, C9H20, InChI=1S/C9H20/c1-3-5-7-9-8-6-4-2/h3-9H2,1-2H3, purity 99%
Compound 2: octane, C8H18, InChI=1S/C8H18/c1-3-5-7-8-6-4-2/h3-8H2,1-2H3, purity 99.5%
Compound 3: benzene, C6H6, InChI=1S/C6H6/c1-2-4-6-5-3-1/h1-6H, purity 99.8%
Compound 4: 1-ethylpyridinium ethyl sulfate, C9H15NO4S, InChI=1S/C7H10N.C2H6O4S/c1-2-8-6-4-3-5-7-8;1-2-6-7(3,4)5/h3-7H,2H2,1H3;2H2,1H3,(H,3,4,5)/q+1;/p-1

System: nonane; phases: Liquid
Property: Refractive index (Na D-line) (Liquid); method: Standard Abbe refractometry
Temperature, K	Pressure, kPa	Refractive index (Na D-line)	uncertainty
298.15	101.325	1.40326	0.0007

System: nonane; phases: Liquid
Property: Mass density, kg/m3 (Liquid); method: Vibrating tube method
Temperature, K	Pressure, kPa	Mass density, kg/m3	uncertainty
298.15	101.325	713.99	0.25

System: octane; phases: Liquid
Property: Refractive index (Na D-line) (Liquid); method: Standard Abbe refractometry
Temperature, K	Pressure, kPa	Refractive index (Na D-line)	uncertainty
298.15	101.325	1.39519	0.00068

System: octane; phases: Liquid
Property: Mass density, kg/m3 (Liquid); method: Vibrating tube method
Temperature, K	Pressure, kPa	Mass density, kg/m3	uncertainty
298.15	101.325	698.6	0.18

System: benzene; phases: Liquid
Property: Refractive index (Na D-line) (Liquid); method: Standard Abbe refractometry
Temperature, K	Pressure, kPa	Refractive index (Na D-line)	uncertainty
298.15	101.325	1.49774	0.00068

System: benzene; phases: Liquid
Property: Mass density, kg/m3 (Liquid); method: Vibrating tube method
Temperature, K	Pressure, kPa	Mass density, kg/m3	uncertainty
298.15	101.325	873.57	0.11

System: 1-ethylpyridinium ethyl sulfate; phases: Liquid
Property: Refractive index (Na D-line) (Liquid); method: Standard Abbe refractometry
Temperature, K	Pressure, kPa	Refractive index (Na D-line)	uncertainty
298.15	101.325	1.50525	0.0007

System: 1-ethylpyridinium ethyl sulfate; phases: Liquid
Property: Mass density, kg/m3 (Liquid); method: Vibrating tube method
Temperature, K	Pressure, kPa	Mass density, kg/m3	uncertainty
298.15	101.325	1252	0.4

System: benzene + octane + 1-ethylpyridinium ethyl sulfate; phases: Liquid mixture 1, Liquid mixture 2
Fixed: Pressure, kPa = 101
Property: Mass density, kg/m3 (Liquid mixture 1); method: Vibrating tube method
Temperature, K	Mole fraction of octane	Mass density, kg/m3	uncertainty
283.15	0	1198.57	0.23
283.15	0.001	1224.77	0.25
283.15	0.002	1237.08	0.33
283.15	0.003	1252.65	0.44
283.15	0.004	1260.58	0.56
283.15	0.001	1203.34	0.26
283.15	0.002	1215.97	0.34
283.15	0.003	1244.78	0.44
298.15	0	1171.69	0.3
298.15	0.001	1226.96	0.27
298.15	0.003	1236.46	0.44
298.15	0.004	1242.63	0.55
298.15	0.005	1251.45	0.67
298.15	0.001	1214.81	0.28
298.15	0.001	1205.23	0.29
298.15	0.001	1196.36	0.3
298.15	0.001	1184.28	0.32

System: benzene + octane + 1-ethylpyridinium ethyl sulfate; phases: Liquid mixture 1, Liquid mixture 2
Fixed: Pressure, kPa = 101
Property: Mole fraction of benzene (Liquid mixture 1); method: Titration method
Temperature, K	Mole fraction of octane	Mole fraction of benzene	uncertainty
283.15	0	0.335	0.011
283.15	0.001	0.21	0.008
283.15	0.002	0.145	0.007
283.15	0.003	0.05	0.006
283.15	0.004	0	
283.15	0.001	0.312	0.011
283.15	0.002	0.253	0.009
283.15	0.003	0.099	0.007
298.15	0	0.406	0.013
298.15	0.001	0.152	0.007
298.15	0.003	0.094	0.007
298.15	0.004	0.053	0.006
298.15	0.005	0	
298.15	0.001	0.213	0.009
298.15	0.001	0.261	0.01
298.15	0.001	0.3	0.01
298.15	0.001	0.359	0.012

System: benzene + octane + 1-ethylpyridinium ethyl sulfate; phases: Liquid
Fixed: Pressure, kPa = 101
Property: Mass density, kg/m3 (Liquid); method: Vibrating tube method
Temperature, K	Mole fraction of octane	Mole fraction of benzene	Mass density, kg/m3	uncertainty
283.15	0.001	0.193	1228.32	1.22
283.15	0.002	0.288	1208.91	0.83
283.15	0.003	0.08	1248.36	0.93
298.15	0	0.29	1199.23	0.78
298.15	0.001	0.187	1220.13	1.42
298.15	0.003	0.081	1238.98	0.92

System: benzene + octane + 1-ethylpyridinium ethyl sulfate; phases: Liquid mixture 1, Liquid mixture 2
Fixed: Pressure, kPa = 101.3
Property: Mole fraction of octane (Liquid mixture 1); method: Density calibration data
Property: Mole fraction of octane (Liquid mixture 2); method: Density calibration data
Property: Mole fraction of benzene (Liquid mixture 2); method: Density calibration data
Temperature, K	Mole fraction of benzene	Mole fraction of octane	uncertainty	Mole fraction of octane	uncertainty	Mole fraction of benzene	uncertainty
283.15	0.062	0.938	0.006	0.005	0.005	0.029	
283.15	0.126	0.874	0.009	0.004	0.004	0.057	
283.15	0.2	0.8	0.009	0.004	0.004	0.09	
283.15	0.256	0.744	0.009	0.004	0.004	0.114	
283.15	0.32	0.68	0.009	0.004	0.004	0.14	
283.15	0.382	0.618	0.009	0.004	0.004	0.163	
283.15	0.451	0.549	0.009	0.004	0.004	0.19	
283.15	0.533	0.467	0.009	0.004	0.004	0.218	
283.15	0.6	0.4	0.009	0.004	0.004	0.242	
283.15	0.66	0.34	0.009	0.004	0.004	0.261	
298.15	0.127	0.873	0.009	0.005	0.005	0.057	
298.15	0.184	0.816	0.009	0.004	0.004	0.081	
298.15	0.247	0.753	0.009	0.004	0.004	0.107	
298.15	0.303	0.697	0.009	0.004	0.004	0.129	
298.15	0.363	0.637	0.009	0.004	0.004	0.152	
298.15	0.49	0.51	0.009	0.004	0.004	0.198	
298.15	0.628	0.372	0.009	0.004	0.004	0.247	
298.15	0.75	0.25	0.009	0.004	0.004	0.288	

System: benzene + nonane + 1-ethylpyridinium ethyl sulfate; phases: Liquid mixture 1, Liquid mixture 2
Fixed: Pressure, kPa = 101
Property: Mass density, kg/m3 (Liquid mixture 1); method: Vibrating tube method
Temperature, K	Mole fraction of nonane	Mass density, kg/m3	uncertainty
283.15	0	1198.57	0.29
283.15	0.001	1215.82	0.31
283.15	0.002	1253.63	0.39
283.15	0.004	1261.25	0.59
283.15	0.002	1245.99	0.38
283.15	0.002	1237.11	0.38
283.15	0.002	1225.43	0.38
298.15	0	1171.69	0.34
298.15	0.001	1235.68	0.32
298.15	0.003	1243.42	0.48
298.15	0.004	1250.84	0.58
298.15	0.001	1226.95	0.32
298.15	0.001	1215.82	0.33
298.15	0.001	1205.52	0.33

System: benzene + nonane + 1-ethylpyridinium ethyl sulfate; phases: Liquid mixture 1, Liquid mixture 2
Fixed: Pressure, kPa = 101
Property: Mole fraction of benzene (Liquid mixture 1); method: Titration method
Temperature, K	Mole fraction of nonane	Mole fraction of benzene	uncertainty
283.15	0	0.335	0.011
283.15	0.001	0.252	0.009
283.15	0.002	0.05	0.006
283.15	0.004	0	
283.15	0.002	0.099	0.007
283.15	0.002	0.147	0.007
283.15	0.002	0.21	0.008
298.15	0	0.406	0.013
298.15	0.001	0.099	0.007
298.15	0.003	0.052	0.006
298.15	0.004	0	
298.15	0.001	0.15	0.007
298.15	0.001	0.21	0.008
298.15	0.001	0.262	0.01

System: benzene + nonane + 1-ethylpyridinium ethyl sulfate; phases: Liquid
Fixed: Pressure, kPa = 101
Property: Mass density, kg/m3 (Liquid); method: Vibrating tube method
Temperature, K	Mole fraction of nonane	Mole fraction of benzene	Mass density, kg/m3	uncertainty
283.15	0.001	0.288	1209	1.41
283.15	0.002	0.195	1227.92	1.43
283.15	0.004	0.082	1249.05	0.98
298.15	0	0.183	1221.46	0.81
298.15	0.001	0.195	1218.73	0.81
298.15	0.003	0.08	1239.2	0.92

System: benzene + nonane + 1-ethylpyridinium ethyl sulfate; phases: Liquid mixture 1, Liquid mixture 2
Fixed: Pressure, kPa = 101.3
Property: Mole fraction of nonane (Liquid mixture 1); method: Density calibration data
Property: Mole fraction of nonane (Liquid mixture 2); method: Density calibration data
Property: Mole fraction of benzene (Liquid mixture 2); method: Density calibration data
Temperature, K	Mole fraction of benzene	Mole fraction of nonane	uncertainty	Mole fraction of nonane	uncertainty	Mole fraction of benzene	uncertainty
283.15	0.129	0.871	0.009	0.004	0.004	0.056	
283.15	0.19	0.81	0.009	0.003	0.003	0.082	
283.15	0.249	0.751	0.009	0.003	0.003	0.107	
283.15	0.314	0.686	0.009	0.003	0.003	0.133	
283.15	0.372	0.628	0.009	0.003	0.003	0.156	
283.15	0.502	0.498	0.009	0.003	0.003	0.205	
283.15	0.625	0.375	0.009	0.003	0.003	0.248	
283.15	0.751	0.249	0.009	0.003	0.003	0.292	
283.15	0.88	0.12	0.01	0.003	0.003	0.336	
298.15	0.065	0.935	0.009	0.004	0.004	0.028	
298.15	0.126	0.874	0.009	0.003	0.003	0.054	
298.15	0.188	0.812	0.009	0.003	0.003	0.079	
298.15	0.302	0.698	0.009	0.003	0.003	0.125	
298.15	0.364	0.636	0.009	0.003	0.003	0.147	
298.15	0.5	0.5	0.009	0.003	0.003	0.198	
298.15	0.621	0.379	0.009	0.003	0.003	0.241	
298.15	0.748	0.252	0.009	0.003	0.003	0.281	
