Measured thermophysical data. Cloud-Point and Vapor-Liquid Behavior of Binary and Ternary Systems for the Poly(dodecyl acrylate) + Cosolvent and Dodecyl Acrylate in Supercritical Solvents
Source: J. Chem. Eng. Data, 2010, 10.1021/je100234f
Compound 1: dodecyl acrylate, C15H28O2, InChI=1S/C15H28O2/c1-3-5-6-7-8-9-10-11-12-13-14-17-15(16)4-2/h4H,2-3,5-14H2,1H3
Compound 2: carbon dioxide, CO2, InChI=1S/CO2/c2-1-3

System: carbon dioxide + dodecyl acrylate; phases: Liquid, Gas
Property: Critical pressure, kPa (Liquid); method: DIRECT:UFactor:16
Mole fraction of dodecyl acrylate	Critical pressure, kPa	uncertainty
0.009	15070	1510
0.014	19880	1990
0.026	23310	2330

System: carbon dioxide + dodecyl acrylate; phases: Liquid, Gas
Property: Critical temperature, K (Liquid); method: VISOBSU:UFactor:64
Mole fraction of dodecyl acrylate	Critical temperature, K	uncertainty
0.009	333.2	9.9
0.014	353.2	9.9
0.026	373.2	9.9

System: carbon dioxide + dodecyl acrylate; phases: Gas, Liquid
Property: Vapor or sublimation pressure, kPa (Gas); method: CCELL:UFactor:16
Temperature, K	Mole fraction of dodecyl acrylate	Vapor or sublimation pressure, kPa	uncertainty
353.2	0.009	19190	950
373.2	0.009	22760	1130
373.2	0.014	23200	1150
393.2	0.009	25100	1250
393.2	0.014	26010	1290
393.2	0.026	26140	1300

System: carbon dioxide + dodecyl acrylate; phases: Liquid, Gas
Property: Vapor or sublimation pressure, kPa (Liquid); method: CCELL:UFactor:16
Temperature, K	Mole fraction of dodecyl acrylate	Vapor or sublimation pressure, kPa	uncertainty
313.5	0.009	9620	490
313.5	0.014	9590	490
313.5	0.026	9520	490
313.5	0.05	9320	480
313.5	0.075	9160	470
313.5	0.107	8810	450
313.5	0.148	8380	430
313.5	0.262	6620	340
313.5	0.407	4760	250
313.5	0.501	3420	180
313.5	0.566	2850	150
313.5	0.649	2310	130
333.22	0.014	15070	750
333.22	0.026	15020	750
333.22	0.05	14520	730
333.22	0.075	13860	700
333.22	0.107	13110	660
333.22	0.148	12160	620
333.22	0.262	9070	460
333.22	0.407	6090	320
333.22	0.501	4440	230
333.22	0.566	3600	190
333.22	0.649	2840	150
353.2	0.026	19670	990
353.2	0.05	18980	950
353.2	0.075	18340	920
353.2	0.107	17560	880
353.2	0.148	16220	820
353.2	0.262	11630	600
353.2	0.407	7460	390
353.2	0.501	5590	300
353.2	0.566	4280	230
353.2	0.649	3330	180
373.2	0.05	22620	1130
373.2	0.075	22030	1100
373.2	0.107	21240	1060
373.2	0.148	19780	1000
373.2	0.262	13860	710
373.2	0.407	8840	460
373.2	0.501	6360	340
373.2	0.566	4800	260
373.2	0.649	3600	190
393.2	0.05	25560	1270
393.2	0.075	24970	1240
393.2	0.107	24120	1210
393.2	0.148	22400	1130
393.2	0.262	16030	820
393.2	0.407	10210	540
393.2	0.501	7020	380
393.2	0.566	5370	290
393.2	0.649	3990	220
