Measured thermophysical data. Measurement of Vapor-Liquid Equilibria for the Pentafluoroethane + Propene Binary System from (263.15 to 323.15) K
Source: J. Chem. Eng. Data, 2010, 10.1021/je100049k
Compound 1: pentafluoroethane, C2HF5, InChI=1S/C2HF5/c3-1(4)2(5,6)7/h1H, purity 99.9%
Compound 2: propene, C3H6, InChI=1S/C3H6/c1-3-2/h3H,1H2,2H3, purity 99.9%

System: pentafluoroethane; phases: Liquid, Gas
Property: Vapor or sublimation pressure, kPa (Liquid); method: Ebulliometric method (Recirculating still)
Temperature, K	Vapor or sublimation pressure, kPa	uncertainty
263.15	482.4	2.1
278.15	782.1	3.1
293.15	1205.6	4.7
308.15	1773.2	6.9
323.15	2531.1	9.9

System: propene; phases: Liquid, Gas
Property: Vapor or sublimation pressure, kPa (Liquid); method: Ebulliometric method (Recirculating still)
Temperature, K	Vapor or sublimation pressure, kPa	uncertainty
263.15	428.7	2
278.15	673.6	2.7
293.15	1012.9	4
308.15	1465.3	5.7
323.15	2047.9	8

System: propene + pentafluoroethane; phases: Liquid, Gas
Property: Azeotropic pressure, kPa (Liquid); method: XY:UFactor:2
Temperature, K	Azeotropic pressure, kPa	uncertainty
263.15	593.5	5.8
278.15	927	8.9
293.15	1390.3	13.2
308.15	2001.9	18.9
323.15	2818.1	26.5

System: propene + pentafluoroethane; phases: Liquid, Gas
Property: Azeotropic composition: mole fraction of pentafluoroethane (Liquid); method: By X=Y
Temperature, K	Azeotropic composition: mole fraction of pentafluoroethane	uncertainty
263.15	0.535	0.0051
278.15	0.5568	0.0049
293.15	0.5782	0.0047
308.15	0.6025	0.0045
323.15	0.6221	0.0044

System: propene + pentafluoroethane; phases: Liquid, Gas
Property: Vapor or sublimation pressure, kPa (Liquid); method: Ebulliometric method (Recirculating still)
Mole fraction of pentafluoroethane	Temperature, K	Vapor or sublimation pressure, kPa	uncertainty
0	263.15	428.7	2
0	278.15	673.6	2.7
0	293.15	1012.9	4
0	308.15	1465.3	5.7
0	323.15	2047.9	8
0.0595	323.15	2205.5	9.8
0.0675	308.15	1602.4	7.4
0.0817	263.15	498	2.4
0.0844	293.15	1145.5	5.1
0.1268	308.15	1703.8	7.2
0.1551	323.15	2415.9	10.1
0.1779	278.15	833.4	3.6
0.2112	293.15	1263.6	5.2
0.2393	263.15	556	2.4
0.2505	308.15	1847	7.5
0.2624	278.15	877.2	3.5
0.2631	323.15	2589.5	10.4
0.3517	308.15	1929	7.6
0.36	293.15	1346.8	5.4
0.3684	278.15	905.6	3.6
0.3873	263.15	585.8	2.5
0.4229	323.15	2747.1	10.8
0.4648	293.15	1376.4	5.5
0.489	278.15	921.5	3.6
0.506	263.15	589.3	2.5
0.5162	308.15	1995.1	7.8
0.5237	293.15	1386.4	5.4
0.527	263.15	591.1	2.5
0.5445	323.15	2813.7	11
0.5577	278.15	923.1	3.7
0.6096	278.15	925	3.6
0.6142	293.15	1390.8	5.4
0.6337	263.15	591	2.5
0.6387	323.15	2827.1	11
0.645	308.15	2005.8	7.8
0.6897	293.15	1383.9	5.5
0.6934	278.15	918.2	3.6
0.7169	323.15	2813.6	11
0.7266	293.15	1376	5.9
0.7297	263.15	580.5	2.4
0.7751	308.15	1969.3	7.7
0.7803	263.15	567.5	2.4
0.7853	278.15	902.5	3.6
0.7908	323.15	2774.2	10.9
0.7968	293.15	1352.8	5.4
0.8126	263.15	566.8	2.5
0.8408	308.15	1930.6	7.7
0.8424	278.15	882.3	3.9
0.8631	323.15	2713.5	10.8
0.8954	293.15	1299.7	5.3
0.9115	263.15	531.1	2.4
0.9198	308.15	1863.4	7.5
1	263.15	482.4	2.1
1	278.15	782.1	3.1
1	293.15	1205.6	4.7
1	308.15	1773.2	6.9
1	323.15	2531.1	9.9

System: propene + pentafluoroethane; phases: Gas, Liquid
Property: Mole fraction of pentafluoroethane (Gas); method: CHROM:UFactor:2
Mole fraction of pentafluoroethane	Temperature, K	Mole fraction of pentafluoroethane	uncertainty
0.0595	323.15	0.1036	0.0037
0.0675	308.15	0.1249	0.004
0.0817	263.15	0.1902	0.0043
0.0844	293.15	0.1522	0.004
0.1268	308.15	0.2058	0.0046
0.1551	323.15	0.2262	0.0049
0.1779	278.15	0.2784	0.0055
0.2112	293.15	0.2991	0.0059
0.2393	263.15	0.3557	0.0068
0.2505	308.15	0.3361	0.0065
0.2624	278.15	0.3556	0.0068
0.2631	323.15	0.3332	0.0064
0.3517	308.15	0.4058	0.0077
0.36	293.15	0.4186	0.0079
0.3684	278.15	0.4346	0.0082
0.3873	263.15	0.4545	0.0085
0.4229	323.15	0.4631	0.0088
0.4648	293.15	0.4965	0.0094
0.489	278.15	0.5104	0.0092
0.506	263.15	0.5216	0.009
0.5162	308.15	0.5385	0.0087
0.5237	293.15	0.5398	0.0087
0.527	263.15	0.5355	0.0087
0.5445	323.15	0.56	0.0083
0.5577	278.15	0.5633	0.0083
0.6096	278.15	0.6009	0.0076
0.6142	293.15	0.6098	0.0074
0.6337	263.15	0.599	0.0076
0.6387	323.15	0.6381	0.0069
0.645	308.15	0.639	0.0069
0.6897	293.15	0.6711	0.0063
0.6934	278.15	0.6569	0.0065
0.7169	323.15	0.7056	0.0058
0.7266	293.15	0.6994	0.0059
0.7297	263.15	0.6629	0.0065
0.7751	308.15	0.7513	0.005
0.7803	263.15	0.7102	0.0057
0.7853	278.15	0.7258	0.0054
0.7908	323.15	0.7754	0.0047
0.7968	293.15	0.7663	0.0049
0.8126	263.15	0.7393	0.0053
0.8408	308.15	0.8159	0.0042
0.8424	278.15	0.789	0.0047
0.8631	323.15	0.846	0.0038
0.8954	293.15	0.8645	0.0036
0.9115	263.15	0.8418	0.0039
0.9198	308.15	0.8994	0.0034
