Measured thermophysical data. Volumetric Behavior of Carbon Dioxide + Butan-1-ol Mixtures at 313.15 K
Source: J. Chem. Eng. Data, 2011, 10.1021/je100788g
Compound 1: carbon dioxide, CO2, InChI=1S/CO2/c2-1-3, purity 99.999%
Compound 2: butan-1-ol, C4H10O, InChI=1S/C4H10O/c1-2-3-4-5/h5H,2-4H2,1H3, purity 99.9%

System: carbon dioxide; phases: Fluid (supercritical or subcritical phases)
Fixed: Temperature, K = 313.15
Property: Mass density, kg/m3 (Fluid (supercritical or subcritical phases)); method: Vibrating tube method
Pressure, kPa	Mass density, kg/m3	uncertainty
1000	17.9	0.2
2000	37.1	0.2
3000	58.7	0.2
4000	83.5	0.2
5000	112.7	0.2
6000	148.8	0.3
7000	197.3	0.3
8000	276.7	0.4
9000	483.4	0.5
10000	627.4	0.5

System: butan-1-ol; phases: Liquid
Property: Refractive index (Na D-line) (Liquid); method: Standard Abbe refractometry
Temperature, K	Pressure, kPa	Refractive index (Na D-line)	uncertainty
298.15	101.325	1.3973	0.0028

System: butan-1-ol; phases: Liquid, Gas
Property: Boiling temperature at pressure P, K (Liquid); method: Distillation
Pressure, kPa	Boiling temperature at pressure P, K	uncertainty
101	390.84	0.41

System: butan-1-ol; phases: Liquid
Property: Mass density, kg/m3 (Liquid); method: Vibrating tube method
Temperature, K	Pressure, kPa	Mass density, kg/m3	uncertainty
298.15	101.325	805.8	0.2

System: butan-1-ol; phases: Liquid
Fixed: Temperature, K = 313.15
Property: Mass density, kg/m3 (Liquid); method: Vibrating tube method
Pressure, kPa	Mass density, kg/m3	uncertainty
1000	794.9	0.2
2000	795.6	0.2
3000	796.3	0.2
4000	797	0.2
5000	797.6	0.2
6000	798.3	0.3
7000	798.9	0.3
8000	799.6	0.3
9000	800.2	0.3
10000	800.9	0.3

System: butan-1-ol + carbon dioxide; phases: Liquid, Gas
Fixed: Temperature, K = 313.15
Property: Mass density, kg/m3 (Liquid); method: Vibrating tube method
Pressure, kPa	Mass density, kg/m3	uncertainty
1692	803.1	0.2
2690	807.6	0.2
3197	810.1	0.2
3284	811	0.2
4164	815	0.2
4841	818.9	0.2
4872	818.9	0.2
5553	822.8	0.2
6124	825.5	0.2
6618	827.7	0.2
6913	829.4	0.2
7557	828.8	0.2
7794	824.8	0.3

System: butan-1-ol + carbon dioxide; phases: Gas, Liquid
Fixed: Temperature, K = 313.15
Property: Mass density, kg/m3 (Gas); method: Vibrating tube method
Pressure, kPa	Mass density, kg/m3	uncertainty
1692	34	0.2
2690	54.9	0.2
3197	67.1	0.2
3284	69.6	0.2
4164	92.6	0.2
4841	114.4	0.2
4872	115.2	0.2
5553	138.3	0.2
6124	163.1	0.3
6618	185.5	0.3
6913	200.1	0.3
7557	250.8	0.3
7794	275.2	0.4

System: butan-1-ol + carbon dioxide; phases: Liquid, Gas
Fixed: Temperature, K = 313.15
Property: Vapor or sublimation pressure, kPa (Liquid); method: Closed cell (Static) method
Mole fraction of carbon dioxide	Vapor or sublimation pressure, kPa	uncertainty
0.103	1692	33
0.204	3284	35
0.3	4841	33
0.404	6124	29
0.503	6913	27
0.6	7557	26
0.703	7794	26

System: butan-1-ol + carbon dioxide; phases: Fluid (supercritical or subcritical phases)
Fixed: Temperature, K = 313.15
Property: Mass density, kg/m3 (Fluid (supercritical or subcritical phases)); method: Vibrating tube method
Pressure, kPa	Mole fraction of carbon dioxide	Mass density, kg/m3	uncertainty
1000	0	794.9	0.2
1000	1	17.9	0.2
2000	0	795.6	0.2
2000	0.103	802.2	0.3
2000	1	37.1	0.2
3000	0	796.3	0.2
3000	0.103	803	0.3
3000	1	58.7	0.2
4000	0	797	0.2
4000	0.103	803.8	0.3
4000	0.204	810.6	0.3
4000	1	83.5	0.2
5000	0	797.6	0.2
5000	0.103	804.6	0.3
5000	0.204	811.6	0.3
5000	0.3	817	0.3
5000	1	112.7	0.2
6000	0	798.3	0.3
6000	0.103	805.4	0.3
6000	0.204	812.4	0.3
6000	0.3	818.1	0.3
6000	1	148.8	0.3
7000	0	798.9	0.3
7000	0.103	806.2	0.3
7000	0.204	813.4	0.3
7000	0.3	819.1	0.3
7000	0.404	825.1	0.3
7000	0.503	829.1	0.3
7000	1	197.3	0.3
8000	0	799.6	0.3
8000	0.103	806.9	0.3
8000	0.204	814.3	0.3
8000	0.3	820.2	0.3
8000	0.404	826.5	0.3
8000	0.503	830.9	0.3
8000	0.6	830.9	0.3
8000	0.703	824.9	3
8000	1	276.7	0.4
9000	0	800.2	0.3
9000	0.103	807.7	0.3
9000	0.204	815.2	0.3
9000	0.3	821.2	0.3
9000	0.404	827.8	0.3
9000	0.503	832.6	0.3
9000	0.6	833.4	0.3
9000	0.703	829.1	0.3
9000	0.802	810.5	0.7
9000	0.9	762.6	1.4
9000	0.95	704.5	5.6
9000	1	483.4	0.5
10000	0	800.9	0.3
10000	0.103	808.4	0.3
10000	0.204	816.1	0.3
10000	0.3	822.3	0.3
10000	0.404	829.1	0.3
10000	0.503	834.3	0.3
10000	0.6	835.8	0.3
10000	0.703	833.1	0.3
10000	0.802	817.8	0.6
10000	0.9	779.1	1.1
10000	0.95	735.5	3
10000	1	627.4	0.5

System: butan-1-ol + carbon dioxide; phases: Gas, Liquid
Fixed: Temperature, K = 313.15
Property: Mole fraction of carbon dioxide (Gas); method: Chromatography
Mole fraction of carbon dioxide	Mole fraction of carbon dioxide	uncertainty
0.103	0.964	0.01
0.204	0.976	0.01
0.3	0.979	0.01
0.404	0.98	0.01
0.503	0.987	0.01
0.6	0.976	0.01
0.703	0.974	0.01
