Measured thermophysical data. Vapor-Liquid Equilibrium Data, Excess Enthalpy Data, and Azeotropic Data for the Binary System Dibutyl Ether + o-Xylene
Source: J. Chem. Eng. Data, 2010, 10.1021/je100019r
Compound 1: dibutyl ether, C8H18O, InChI=1S/C8H18O/c1-3-5-7-9-8-6-4-2/h3-8H2,1-2H3
Compound 2: 1,2-dimethylbenzene, C8H10, InChI=1S/C8H10/c1-7-5-3-4-6-8(7)2/h3-6H,1-2H3

System: dibutyl ether; phases: Liquid, Gas
Property: Vapor or sublimation pressure, kPa (Liquid); method: Ebulliometric method (Recirculating still)
Temperature, K	Vapor or sublimation pressure, kPa	uncertainty
323.15	3.63	0.063
390.8	50.6	0.3
413.15	96.21	0.41

System: 1,2-dimethylbenzene; phases: Liquid, Gas
Property: Vapor or sublimation pressure, kPa (Liquid); method: Ebulliometric method (Recirculating still)
Temperature, K	Vapor or sublimation pressure, kPa	uncertainty
323.15	3.598	0.063
393.04	50.6	0.25
413.15	90.39	0.39

System: 1,2-dimethylbenzene + dibutyl ether; phases: Liquid
Fixed: Temperature, K = 323.15
Fixed: Pressure, kPa = 1100
Property: Excess molar enthalpy (molar enthalpy of mixing), kJ/mol (Liquid); method: Flow calorimetry
Mole fraction of dibutyl ether	Excess molar enthalpy (molar enthalpy of mixing), kJ/mol	uncertainty
0.0625	0.0157	0.0041
0.1249	0.0295	0.0041
0.1874	0.0404	0.0041
0.2499	0.0501	0.0041
0.3124	0.0574	0.0042
0.3749	0.0632	0.0042
0.4374	0.0665	0.0042
0.4999	0.0675	0.0042
0.5624	0.0665	0.0042
0.6249	0.0633	0.0042
0.6874	0.0577	0.0042
0.7499	0.0507	0.0041
0.8124	0.0407	0.0041
0.8749	0.029	0.0041
0.9375	0.0142	0.0041

System: 1,2-dimethylbenzene + dibutyl ether; phases: Liquid, Gas
Property: Azeotropic pressure, kPa (Liquid); method: By P(X) extreme
Temperature, K	Azeotropic pressure, kPa	uncertainty
322.91	3.46	0.22
363.47	19.91	0.32
412.74	96.28	0.78

System: 1,2-dimethylbenzene + dibutyl ether; phases: Liquid, Gas
Property: Azeotropic composition: mole fraction of dibutyl ether (Liquid); method: By X=Y
Temperature, K	Azeotropic composition: mole fraction of dibutyl ether	uncertainty
322.91	0.488	0.005
363.47	0.698	0.004
412.74	0.928	0.003

System: 1,2-dimethylbenzene + dibutyl ether; phases: Liquid, Gas
Property: Vapor or sublimation pressure, kPa (Liquid); method: Ebulliometric method (Recirculating still)
Temperature, K	Mole fraction of dibutyl ether	Vapor or sublimation pressure, kPa	uncertainty
323.15	0	3.598	0.063
323.15	0.0096	3.602	0.063
323.15	0.0325	3.611	0.063
323.15	0.0607	3.622	0.063
323.15	0.0991	3.636	0.063
323.15	0.1475	3.651	0.063
323.15	0.2081	3.666	0.063
323.15	0.2749	3.68	0.063
323.15	0.3431	3.691	0.063
323.15	0.3649	3.693	0.063
323.15	0.409	3.698	0.063
323.15	0.4246	3.696	0.063
323.15	0.4704	3.7	0.063
323.15	0.4945	3.699	0.063
323.15	0.5741	3.698	0.063
323.15	0.6607	3.693	0.063
323.15	0.7475	3.683	0.063
323.15	0.8235	3.669	0.063
323.15	0.8883	3.656	0.063
323.15	0.9388	3.644	0.063
323.15	0.9817	3.634	0.063
323.15	1	3.63	0.063
413.15	0	90.39	0.39
413.15	0.0015	90.42	0.39
413.15	0.0048	90.49	0.39
413.15	0.0152	90.61	0.39
413.15	0.0319	90.83	0.39
413.15	0.0629	91.3	0.39
413.15	0.1112	91.9	0.4
413.15	0.1823	92.69	0.4
413.15	0.2736	93.56	0.4
413.15	0.3605	94.27	0.41
413.15	0.3749	94.4	0.41
413.15	0.4197	94.72	0.41
413.15	0.4596	94.98	0.41
413.15	0.4887	95.08	0.41
413.15	0.5665	95.42	0.41
413.15	0.6497	95.76	0.41
413.15	0.7337	96.03	0.41
413.15	0.809	96.15	0.41
413.15	0.8714	96.22	0.41
413.15	0.9204	96.24	0.41
413.15	0.9609	96.25	0.41
413.15	0.9777	96.23	0.41
413.15	0.9913	96.22	0.41
413.15	1	96.21	0.41

System: 1,2-dimethylbenzene + dibutyl ether; phases: Liquid, Gas
Fixed: Pressure, kPa = 50.6
Property: Boiling temperature at pressure P, K (Liquid); method: Closed cell (Static) method
Mole fraction of dibutyl ether	Boiling temperature at pressure P, K	uncertainty
0	393.04	0.07
0.0299	392.83	0.07
0.0616	392.75	0.07
0.1195	392.42	0.07
0.2126	392.1	0.07
0.289	391.89	0.07
0.3894	391.52	0.07
0.4557	391.44	0.07
0.5619	391.19	0.07
0.5776	391.2	0.07
0.6476	391.01	0.07
0.7384	390.92	0.07
0.8227	390.93	0.07
0.8846	390.89	0.07
0.9567	390.85	0.07
1	390.8	0.07

System: 1,2-dimethylbenzene + dibutyl ether; phases: Gas, Liquid
Fixed: Pressure, kPa = 50.6
Property: Mole fraction of dibutyl ether (Gas); method: Chromatography
Mole fraction of dibutyl ether	Mole fraction of dibutyl ether	uncertainty
0	0	0.0001
0.0299	0.0349	0.0007
0.0616	0.0694	0.0008
0.1195	0.1319	0.0013
0.2126	0.2289	0.0022
0.289	0.3059	0.0029
0.3894	0.4056	0.0038
0.4557	0.4687	0.0044
0.5619	0.571	0.004
0.5776	0.5862	0.0039
0.6476	0.6529	0.0033
0.7384	0.7407	0.0025
0.8227	0.8213	0.0017
0.8846	0.884	0.0012
0.9567	0.9564	0.0007
1	1	0.0001
