Measured thermophysical data. Volumetric, Acoustic, and Refractive Properties of Isomeric Chlorobutanes with Diisopropyl Ether
Source: J. Chem. Eng. Data, 2010, 10.1021/je100765j
Compound 1: 1-chlorobutane, C4H9Cl, InChI=1S/C4H9Cl/c1-2-3-4-5/h2-4H2,1H3, purity 99%
Compound 2: 2-chlorobutane, C4H9Cl, InChI=1S/C4H9Cl/c1-3-4(2)5/h4H,3H2,1-2H3, purity 99%
Compound 3: 2-chloro-2-methylpropane, C4H9Cl, InChI=1S/C4H9Cl/c1-4(2,3)5/h1-3H3, purity 99%
Compound 4: 1-chloro-2-methylpropane, C4H9Cl, InChI=1S/C4H9Cl/c1-4(2)3-5/h4H,3H2,1-2H3, purity 99%
Compound 5: diisopropyl ether, C6H14O, InChI=1S/C6H14O/c1-5(2)7-6(3)4/h5-6H,1-4H3, purity 99%

System: 1-chlorobutane; phases: Liquid
Fixed: Pressure, kPa = 101.325
Property: Refractive index (Na D-line) (Liquid); method: Standard Abbe refractometry
Temperature, K	Refractive index (Na D-line)	uncertainty
283.15	1.407504	0.000369
288.15	1.404813	0.000369
293.15	1.402123	0.000369
298.15	1.3995	0.000369
303.15	1.396716	0.000369
308.15	1.393949	0.000369
313.15	1.391309	0.000369

System: 1-chlorobutane; phases: Liquid
Fixed: Pressure, kPa = 101.325
Property: Speed of sound, m/s (Liquid); method: Sing-around technique in a fixed-path interferometer
Temperature, K	Speed of sound, m/s	uncertainty
283.15	1180.14	1.17
288.15	1159.51	1.17
293.15	1138.84	1.16
298.15	1118.18	1.16
303.15	1097.64	1.16
308.15	1077.18	1.15
313.15	1056.91	1.15

System: 1-chlorobutane; phases: Liquid
Fixed: Pressure, kPa = 101.325
Property: Mass density, kg/m3 (Liquid); method: Vibrating tube method
Temperature, K	Mass density, kg/m3	uncertainty
283.15	897.339	0.231
288.15	891.855	0.231
293.15	886.335	0.232
298.15	880.705	0.232
303.15	875.204	0.232
308.15	869.585	0.232
313.15	863.882	0.233

System: 2-chlorobutane; phases: Liquid
Fixed: Pressure, kPa = 101.325
Property: Refractive index (Na D-line) (Liquid); method: Standard Abbe refractometry
Temperature, K	Refractive index (Na D-line)	uncertainty
283.15	1.402257	0.000369
288.15	1.399533	0.000369
293.15	1.3968	0.000369
298.15	1.394036	0.000369
303.15	1.391249	0.000369
308.15	1.388444	0.000369
313.15	1.385618	0.000369

System: 2-chlorobutane; phases: Liquid
Fixed: Pressure, kPa = 101.325
Property: Speed of sound, m/s (Liquid); method: Sing-around technique in a fixed-path interferometer
Temperature, K	Speed of sound, m/s	uncertainty
283.15	1127.71	1.16
288.15	1107.25	1.16
293.15	1086.74	1.15
298.15	1066.24	1.15
303.15	1045.88	1.15
308.15	1025.33	1.14
313.15	1005.32	1.14

System: 2-chlorobutane; phases: Liquid
Fixed: Pressure, kPa = 101.325
Property: Mass density, kg/m3 (Liquid); method: Vibrating tube method
Temperature, K	Mass density, kg/m3	uncertainty
283.15	884.34	0.232
288.15	878.756	0.232
293.15	873.13	0.232
298.15	867.474	0.233
303.15	861.779	0.233
308.15	856.044	0.233
313.15	850.266	0.234

System: 2-chloro-2-methylpropane; phases: Liquid
Fixed: Pressure, kPa = 101.325
Property: Refractive index (Na D-line) (Liquid); method: Standard Abbe refractometry
Temperature, K	Refractive index (Na D-line)	uncertainty
283.15	1.391153	0.000369
288.15	1.388209	0.000369
293.15	1.385217	0.000369
298.15	1.382254	0.000369
303.15	1.379211	0.000369
308.15	1.376189	0.000369
313.15	1.373115	0.000369

System: 2-chloro-2-methylpropane; phases: Liquid
Fixed: Pressure, kPa = 101.325
Property: Speed of sound, m/s (Liquid); method: Sing-around technique in a fixed-path interferometer
Temperature, K	Speed of sound, m/s	uncertainty
283.15	1046.93	1.15
288.15	1025.5	1.14
293.15	1004.08	1.14
298.15	983.25	1.13
303.15	961.51	1.13
308.15	940.46	1.13
313.15	919.41	1.12

System: 2-chloro-2-methylpropane; phases: Liquid
Fixed: Pressure, kPa = 101.325
Property: Mass density, kg/m3 (Liquid); method: Vibrating tube method
Temperature, K	Mass density, kg/m3	uncertainty
283.15	855.249	0.233
288.15	849.243	0.234
293.15	843.191	0.234
298.15	837.096	0.234
303.15	830.958	0.235
308.15	824.772	0.235
313.15	818.536	0.236

System: 1-chloro-2-methylpropane; phases: Liquid
Fixed: Pressure, kPa = 101.325
Property: Refractive index (Na D-line) (Liquid); method: Standard Abbe refractometry
Temperature, K	Refractive index (Na D-line)	uncertainty
283.15	1.403542	0.000369
288.15	1.400797	0.000369
293.15	1.398017	0.000369
298.15	1.395285	0.000369
303.15	1.392451	0.000369
308.15	1.389626	0.000369
313.15	1.386827	0.000369

System: 1-chloro-2-methylpropane; phases: Liquid
Fixed: Pressure, kPa = 101.325
Property: Speed of sound, m/s (Liquid); method: Sing-around technique in a fixed-path interferometer
Temperature, K	Speed of sound, m/s	uncertainty
283.15	1141.74	1.16
288.15	1120.72	1.16
293.15	1099.63	1.16
298.15	1078.68	1.15
303.15	1057.76	1.15
308.15	1036.97	1.14
313.15	1016.27	1.14

System: 1-chloro-2-methylpropane; phases: Liquid
Fixed: Pressure, kPa = 101.325
Property: Mass density, kg/m3 (Liquid); method: Vibrating tube method
Temperature, K	Mass density, kg/m3	uncertainty
283.15	888.845	0.231
288.15	883.211	0.232
293.15	877.539	0.232
298.15	871.833	0.232
303.15	866.096	0.233
308.15	860.319	0.233
313.15	854.502	0.233

System: diisopropyl ether; phases: Liquid
Fixed: Pressure, kPa = 101.325
Property: Refractive index (Na D-line) (Liquid); method: Standard Abbe refractometry
Temperature, K	Refractive index (Na D-line)	uncertainty
283.15	1.373582	0.000369
288.15	1.370844	0.000369
293.15	1.368118	0.000369
298.15	1.365249	0.000369
303.15	1.362417	0.000369
308.15	1.359563	0.000369
313.15	1.356672	0.000369

System: diisopropyl ether; phases: Liquid
Fixed: Pressure, kPa = 101.325
Property: Speed of sound, m/s (Liquid); method: Sing-around technique in a fixed-path interferometer
Temperature, K	Speed of sound, m/s	uncertainty
283.15	1065.52	1.15
288.15	1043.14	1.15
293.15	1020.62	1.14
298.15	998.27	1.14
303.15	976.02	1.13
308.15	953.94	1.13
313.15	932.01	1.13

System: diisopropyl ether; phases: Liquid
Fixed: Pressure, kPa = 101.325
Property: Mass density, kg/m3 (Liquid); method: Vibrating tube method
Temperature, K	Mass density, kg/m3	uncertainty
283.15	733.833	0.243
288.15	728.692	0.244
293.15	723.509	0.245
298.15	718.289	0.245
303.15	713.032	0.246
308.15	707.727	0.247
313.15	702.378	0.247

System: diisopropyl ether + 1-chlorobutane; phases: Liquid
Fixed: Pressure, kPa = 101
Property: Refractive index (Na D-line) (Liquid); method: Standard Abbe refractometry
Temperature, K	Mole fraction of 1-chlorobutane	Refractive index (Na D-line)	uncertainty
283.15	0.0466	1.374856	0.000369
283.15	0.0991	1.376366	0.000369
283.15	0.1918	1.379148	0.000369
283.15	0.32	1.383305	0.000369
283.15	0.4199	1.386434	0.000369
283.15	0.516	1.389682	0.000369
283.15	0.623	1.393383	0.000369
283.15	0.7154	1.396692	0.000369
283.15	0.8157	1.400373	0.000369
283.15	0.9098	1.40395	0.000369
283.15	0.9559	1.405721	0.000369
288.15	0.0466	1.372126	0.000369
288.15	0.0991	1.373637	0.000369
288.15	0.1918	1.376434	0.000369
288.15	0.32	1.380586	0.000369
288.15	0.4199	1.383736	0.000369
288.15	0.516	1.386978	0.000369
288.15	0.623	1.390684	0.000369
288.15	0.7154	1.393987	0.000369
288.15	0.8157	1.39768	0.000369
288.15	0.9098	1.401251	0.000369
288.15	0.9559	1.403027	0.000369
293.15	0.0466	1.369411	0.000369
293.15	0.0991	1.37092	0.000369
293.15	0.1918	1.373717	0.000369
293.15	0.32	1.377878	0.000369
293.15	0.4199	1.381036	0.000369
293.15	0.516	1.384277	0.000369
293.15	0.623	1.387991	0.000369
293.15	0.7154	1.391298	0.000369
293.15	0.8157	1.394987	0.000369
293.15	0.9098	1.398564	0.000369
293.15	0.9559	1.400337	0.000369
298.15	0.0466	1.366561	0.000369
298.15	0.0991	1.368074	0.000369
298.15	0.1918	1.370897	0.000369
298.15	0.32	1.37509	0.000369
298.15	0.4199	1.378265	0.000369
298.15	0.516	1.38153	0.000369
298.15	0.623	1.38527	0.000369
298.15	0.7154	1.388592	0.000369
298.15	0.8157	1.392314	0.000369
298.15	0.9098	1.395936	0.000369
298.15	0.9559	1.397705	0.000369
303.15	0.0466	1.363728	0.000369
303.15	0.0991	1.365245	0.000369
303.15	0.1918	1.368084	0.000369
303.15	0.32	1.37227	0.000369
303.15	0.4199	1.37544	0.000369
303.15	0.516	1.378722	0.000369
303.15	0.623	1.382464	0.000369
303.15	0.7154	1.385804	0.000369
303.15	0.8157	1.389541	0.000369
303.15	0.9098	1.393153	0.000369
303.15	0.9559	1.394926	0.000369
308.15	0.0466	1.360885	0.000369
308.15	0.0991	1.362399	0.000369
308.15	0.1918	1.365236	0.000369
308.15	0.32	1.36944	0.000369
308.15	0.4199	1.372619	0.000369
308.15	0.516	1.375916	0.000369
308.15	0.623	1.379668	0.000369
308.15	0.7154	1.383007	0.000369
308.15	0.8157	1.386768	0.000369
308.15	0.9098	1.390395	0.000369
308.15	0.9559	1.392161	0.000369
313.15	0.0466	1.358012	0.000369
313.15	0.0991	1.359535	0.000369
313.15	0.1918	1.362395	0.000369
313.15	0.32	1.366619	0.000369
313.15	0.4199	1.369829	0.000369
313.15	0.516	1.373149	0.000369
313.15	0.623	1.376928	0.000369
313.15	0.7154	1.380282	0.000369
313.15	0.8157	1.384073	0.000369
313.15	0.9098	1.387728	0.000369
313.15	0.9559	1.389517	0.000369

System: diisopropyl ether + 1-chlorobutane; phases: Liquid
Fixed: Pressure, kPa = 101
Property: Speed of sound, m/s (Liquid); method: Sing-around technique in a fixed-path interferometer
Temperature, K	Mole fraction of 1-chlorobutane	Speed of sound, m/s	uncertainty
283.15	0.0466	1070.94	1.15
283.15	0.0991	1076.63	1.15
283.15	0.1918	1086.97	1.15
283.15	0.32	1101.49	1.16
283.15	0.4199	1112.26	1.16
283.15	0.516	1123.26	1.16
283.15	0.623	1135.48	1.16
283.15	0.7154	1146.28	1.17
283.15	0.8157	1158.15	1.17
283.15	0.9098	1169.28	1.17
283.15	0.9559	1174.88	1.17
288.15	0.0466	1048.63	1.15
288.15	0.0991	1054.31	1.15
288.15	0.1918	1064.7	1.15
288.15	0.32	1079.41	1.15
288.15	0.4199	1090.33	1.15
288.15	0.516	1101.47	1.16
288.15	0.623	1113.95	1.16
288.15	0.7154	1124.95	1.16
288.15	0.8157	1137	1.16
288.15	0.9098	1148.42	1.17
288.15	0.9559	1154.23	1.17
293.15	0.0466	1026.19	1.14
293.15	0.0991	1031.97	1.14
293.15	0.1918	1042.47	1.15
293.15	0.32	1057.3	1.15
293.15	0.4199	1068.41	1.15
293.15	0.516	1079.68	1.15
293.15	0.623	1092.43	1.16
293.15	0.7154	1103.58	1.16
293.15	0.8157	1115.86	1.16
293.15	0.9098	1127.56	1.16
293.15	0.9559	1133.39	1.16
298.15	0.0466	1003.77	1.14
298.15	0.0991	1009.67	1.14
298.15	0.1918	1020.24	1.14
298.15	0.32	1035.21	1.14
298.15	0.4199	1046.59	1.15
298.15	0.516	1058.01	1.15
298.15	0.623	1070.96	1.15
298.15	0.7154	1082.29	1.15
298.15	0.8157	1094.78	1.16
298.15	0.9098	1106.64	1.16
298.15	0.9559	1112.67	1.16
303.15	0.0466	981.56	1.13
303.15	0.0991	987.54	1.14
303.15	0.1918	998.37	1.14
303.15	0.32	1013.56	1.14
303.15	0.4199	1024.85	1.14
303.15	0.516	1036.48	1.14
303.15	0.623	1049.62	1.15
303.15	0.7154	1061.13	1.15
303.15	0.8157	1073.77	1.15
303.15	0.9098	1085.89	1.15
303.15	0.9559	1092.02	1.16
308.15	0.0466	959.5	1.13
308.15	0.0991	965.54	1.13
308.15	0.1918	976.43	1.13
308.15	0.32	991.71	1.14
308.15	0.4199	1003.29	1.14
308.15	0.516	1015.04	1.14
308.15	0.623	1028.36	1.14
308.15	0.7154	1040.06	1.15
308.15	0.8157	1052.97	1.15
308.15	0.9098	1065.28	1.15
308.15	0.9559	1071.45	1.15
313.15	0.0466	937.74	1.13
313.15	0.0991	943.72	1.13
313.15	0.1918	954.72	1.13
313.15	0.32	970.22	1.13
313.15	0.4199	981.83	1.13
313.15	0.516	993.77	1.14
313.15	0.623	1007.26	1.14
313.15	0.7154	1019.07	1.14
313.15	0.8157	1032.2	1.14
313.15	0.9098	1044.76	1.15
313.15	0.9559	1051.09	1.15

System: diisopropyl ether + 1-chlorobutane; phases: Liquid
Fixed: Pressure, kPa = 101
Property: Mass density, kg/m3 (Liquid); method: VIBTUB:UFactor:6
Temperature, K	Mole fraction of 1-chlorobutane	Mass density, kg/m3	uncertainty
283.15	0.0466	740.095	0.905
283.15	0.0991	747.139	0.89
283.15	0.1918	759.833	0.864
283.15	0.32	778.726	0.826
283.15	0.4199	793.339	0.796
283.15	0.516	808.586	0.765
283.15	0.623	826.434	0.729
283.15	0.7154	842.63	0.697
283.15	0.8157	861.003	0.66
283.15	0.9098	879.099	0.624
283.15	0.9559	888.28	0.605
288.15	0.0466	734.99	0.915
288.15	0.0991	741.966	0.901
288.15	0.1918	754.629	0.875
288.15	0.32	773.471	0.836
288.15	0.4199	788.055	0.807
288.15	0.516	803.274	0.776
288.15	0.623	821.073	0.74
288.15	0.7154	837.246	0.707
288.15	0.8157	855.588	0.671
288.15	0.9098	873.635	0.635
288.15	0.9559	882.81	0.616
293.15	0.0466	729.792	0.926
293.15	0.0991	736.75	0.911
293.15	0.1918	749.383	0.886
293.15	0.32	768.192	0.847
293.15	0.4199	782.731	0.818
293.15	0.516	797.924	0.787
293.15	0.623	815.68	0.751
293.15	0.7154	831.821	0.718
293.15	0.8157	850.133	0.682
293.15	0.9098	868.142	0.645
293.15	0.9559	877.303	0.627
298.15	0.0466	724.56	0.937
298.15	0.0991	731.492	0.922
298.15	0.1918	744.091	0.896
298.15	0.32	762.854	0.858
298.15	0.4199	777.351	0.828
298.15	0.516	792.506	0.798
298.15	0.623	810.177	0.762
298.15	0.7154	826.321	0.729
298.15	0.8157	844.587	0.693
298.15	0.9098	862.556	0.657
298.15	0.9559	871.691	0.638
303.15	0.0466	719.283	0.947
303.15	0.0991	726.204	0.933
303.15	0.1918	738.777	0.907
303.15	0.32	757.526	0.869
303.15	0.4199	771.984	0.839
303.15	0.516	787.119	0.809
303.15	0.623	804.761	0.773
303.15	0.7154	820.882	0.74
303.15	0.8157	839.124	0.704
303.15	0.9098	857.076	0.668
303.15	0.9559	866.204	0.649
308.15	0.0466	713.967	0.958
308.15	0.0991	720.87	0.944
308.15	0.1918	733.414	0.918
308.15	0.32	752.126	0.88
308.15	0.4199	766.553	0.851
308.15	0.516	781.656	0.82
308.15	0.623	799.266	0.784
308.15	0.7154	815.358	0.752
308.15	0.8157	833.567	0.715
308.15	0.9098	851.486	0.679
308.15	0.9559	860.595	0.661
313.15	0.0466	708.604	0.969
313.15	0.0991	715.486	0.955
313.15	0.1918	728.002	0.93
313.15	0.32	746.649	0.891
313.15	0.4199	761.063	0.862
313.15	0.516	776.136	0.831
313.15	0.623	793.704	0.795
313.15	0.7154	809.769	0.763
313.15	0.8157	827.935	0.726
313.15	0.9098	845.816	0.69
313.15	0.9559	854.913	0.672

System: 2-chlorobutane + diisopropyl ether; phases: Liquid
Fixed: Pressure, kPa = 101
Property: Refractive index (Na D-line) (Liquid); method: Standard Abbe refractometry
Temperature, K	Mole fraction of 2-chlorobutane	Refractive index (Na D-line)	uncertainty
283.15	0.0519	1.374766	0.000369
283.15	0.0988	1.375873	0.000369
283.15	0.2006	1.378393	0.000369
283.15	0.3211	1.381553	0.000369
283.15	0.4201	1.38427	0.000369
283.15	0.532	1.387449	0.000369
283.15	0.6244	1.390156	0.000369
283.15	0.726	1.393235	0.000369
283.15	0.8163	1.39608	0.000369
283.15	0.8817	1.398191	0.000369
283.15	0.9634	1.400968	0.000369
288.15	0.0519	1.372031	0.000369
288.15	0.0988	1.373141	0.000369
288.15	0.2006	1.375664	0.000369
288.15	0.3211	1.378827	0.000369
288.15	0.4201	1.381541	0.000369
288.15	0.532	1.38472	0.000369
288.15	0.6244	1.387429	0.000369
288.15	0.726	1.390507	0.000369
288.15	0.8163	1.393361	0.000369
288.15	0.8817	1.395477	0.000369
288.15	0.9634	1.398252	0.000369
293.15	0.0519	1.369306	0.000369
293.15	0.0988	1.370414	0.000369
293.15	0.2006	1.372939	0.000369
293.15	0.3211	1.376101	0.000369
293.15	0.4201	1.378816	0.000369
293.15	0.532	1.381991	0.000369
293.15	0.6244	1.3847	0.000369
293.15	0.726	1.387776	0.000369
293.15	0.8163	1.39063	0.000369
293.15	0.8817	1.392747	0.000369
293.15	0.9634	1.395521	0.000369
298.15	0.0519	1.366439	0.000369
298.15	0.0988	1.367557	0.000369
298.15	0.2006	1.370091	0.000369
298.15	0.3211	1.373262	0.000369
298.15	0.4201	1.375985	0.000369
298.15	0.532	1.379174	0.000369
298.15	0.6244	1.38189	0.000369
298.15	0.726	1.384975	0.000369
298.15	0.8163	1.38784	0.000369
298.15	0.8817	1.38997	0.000369
298.15	0.9634	1.392756	0.000369
303.15	0.0519	1.363611	0.000369
303.15	0.0988	1.364729	0.000369
303.15	0.2006	1.367267	0.000369
303.15	0.3211	1.370441	0.000369
303.15	0.4201	1.373166	0.000369
303.15	0.532	1.376361	0.000369
303.15	0.6244	1.379083	0.000369
303.15	0.726	1.382178	0.000369
303.15	0.8163	1.385051	0.000369
303.15	0.8817	1.387188	0.000369
303.15	0.9634	1.389971	0.000369
308.15	0.0519	1.360765	0.000369
308.15	0.0988	1.361886	0.000369
308.15	0.2006	1.364429	0.000369
308.15	0.3211	1.3676	0.000369
308.15	0.4201	1.370329	0.000369
308.15	0.532	1.37353	0.000369
308.15	0.6244	1.376257	0.000369
308.15	0.726	1.379359	0.000369
308.15	0.8163	1.382239	0.000369
308.15	0.8817	1.384377	0.000369
308.15	0.9634	1.387164	0.000369
313.15	0.0519	1.357879	0.000369
313.15	0.0988	1.359002	0.000369
313.15	0.2006	1.361552	0.000369
313.15	0.3211	1.364727	0.000369
313.15	0.4201	1.367462	0.000369
313.15	0.532	1.370668	0.000369
313.15	0.6244	1.373399	0.000369
313.15	0.726	1.376512	0.000369
313.15	0.8163	1.379402	0.000369
313.15	0.8817	1.381541	0.000369
313.15	0.9634	1.384341	0.000369

System: 2-chlorobutane + diisopropyl ether; phases: Liquid
Fixed: Pressure, kPa = 101
Property: Speed of sound, m/s (Liquid); method: Sing-around technique in a fixed-path interferometer
Temperature, K	Mole fraction of 2-chlorobutane	Speed of sound, m/s	uncertainty
283.15	0.0519	1068.8	1.15
283.15	0.0988	1071.68	1.15
283.15	0.2006	1077.96	1.15
283.15	0.3211	1085.36	1.15
283.15	0.4201	1091.48	1.15
283.15	0.532	1098.51	1.16
283.15	0.6244	1104.33	1.16
283.15	0.726	1110.74	1.16
283.15	0.8163	1116.35	1.16
283.15	0.8817	1120.43	1.16
283.15	0.9634	1125.49	1.16
288.15	0.0519	1046.49	1.15
288.15	0.0988	1049.43	1.15
288.15	0.2006	1055.82	1.15
288.15	0.3211	1063.39	1.15
288.15	0.4201	1069.66	1.15
288.15	0.532	1076.88	1.15
288.15	0.6244	1082.89	1.15
288.15	0.726	1089.55	1.15
288.15	0.8163	1095.36	1.16
288.15	0.8817	1099.58	1.16
288.15	0.9634	1104.89	1.16
293.15	0.0519	1024.05	1.14
293.15	0.0988	1027.08	1.14
293.15	0.2006	1033.66	1.14
293.15	0.3211	1041.42	1.15
293.15	0.4201	1047.87	1.15
293.15	0.532	1055.32	1.15
293.15	0.6244	1061.53	1.15
293.15	0.726	1068.3	1.15
293.15	0.8163	1074.39	1.15
293.15	0.8817	1078.74	1.15
293.15	0.9634	1084.29	1.15
298.15	0.0519	1001.8	1.14
298.15	0.0988	1004.88	1.14
298.15	0.2006	1011.53	1.14
298.15	0.3211	1019.42	1.14
298.15	0.4201	1026.06	1.14
298.15	0.532	1033.77	1.14
298.15	0.6244	1040.17	1.15
298.15	0.726	1047.2	1.15
298.15	0.8163	1053.45	1.15
298.15	0.8817	1057.92	1.15
298.15	0.9634	1063.65	1.15
303.15	0.0519	979.57	1.13
303.15	0.0988	982.73	1.13
303.15	0.2006	989.5	1.14
303.15	0.3211	997.66	1.14
303.15	0.4201	1004.4	1.1
303.15	0.532	1012.26	1.14
303.15	0.6244	1018.82	1.14
303.15	0.726	1026.06	1.14
303.15	0.8163	1032.57	1.14
303.15	0.8817	1037.21	1.14
303.15	0.9634	1043.19	1.15
308.15	0.0519	957.51	1.13
308.15	0.0988	960.7	1.1
308.15	0.2006	967.56	1.13
308.15	0.3211	975.92	1.13
308.15	0.4201	982.81	1.13
308.15	0.532	990.84	1.14
308.15	0.6244	997.54	1.14
308.15	0.726	1004.99	1.14
308.15	0.8163	1011.61	1.14
308.15	0.8817	1016.4	1.14
308.15	0.9634	1022.56	1.14
313.15	0.0519	935.64	1.13
313.15	0.0988	938.87	1.13
313.15	0.2006	945.88	1.13
313.15	0.3211	954.34	1.13
313.15	0.4201	961.42	1.13
313.15	0.532	969.67	1.13
313.15	0.6244	976.57	1.13
313.15	0.726	984.26	1.13
313.15	0.8163	991.15	1.14
313.15	0.8817	996.09	1.14
313.15	0.9634	1002.46	1.14

System: 2-chlorobutane + diisopropyl ether; phases: Liquid
Fixed: Pressure, kPa = 101
Property: Mass density, kg/m3 (Liquid); method: VIBTUB:UFactor:6
Temperature, K	Mole fraction of 2-chlorobutane	Mass density, kg/m3	uncertainty
283.15	0.0519	740.159	0.905
283.15	0.0988	745.897	0.894
283.15	0.2006	758.792	0.867
283.15	0.3211	774.756	0.835
283.15	0.4201	788.575	0.807
283.15	0.532	804.971	0.774
283.15	0.6244	819.223	0.746
283.15	0.726	835.602	0.713
283.15	0.8163	850.907	0.682
283.15	0.8817	862.411	0.66
283.15	0.9634	877.39	0.63
288.15	0.0519	734.981	0.916
288.15	0.0988	740.712	0.904
288.15	0.2006	753.569	0.878
288.15	0.3211	769.483	0.846
288.15	0.4201	783.251	0.818
288.15	0.532	799.602	0.785
288.15	0.6244	813.814	0.756
288.15	0.726	830.144	0.724
288.15	0.8163	845.414	0.693
288.15	0.8817	856.901	0.671
288.15	0.9634	871.819	0.641
293.15	0.0519	729.792	0.927
293.15	0.0988	735.485	0.915
293.15	0.2006	748.303	0.889
293.15	0.3211	764.161	0.857
293.15	0.4201	777.889	0.829
293.15	0.532	794.197	0.796
293.15	0.6244	808.369	0.767
293.15	0.726	824.657	0.735
293.15	0.8163	839.877	0.704
293.15	0.8817	851.332	0.682
293.15	0.9634	866.214	0.652
298.15	0.0519	724.535	0.937
298.15	0.0988	730.22	0.926
298.15	0.2006	742.995	0.9
298.15	0.3211	758.802	0.867
298.15	0.4201	772.485	0.84
298.15	0.532	788.75	0.807
298.15	0.6244	802.882	0.778
298.15	0.726	819.123	0.746
298.15	0.8163	834.307	0.716
298.15	0.8817	845.724	0.693
298.15	0.9634	860.57	0.663
303.15	0.0519	719.276	0.948
303.15	0.0988	724.919	0.937
303.15	0.2006	737.649	0.911
303.15	0.3211	753.411	0.878
303.15	0.4201	767.06	0.851
303.15	0.532	783.263	0.818
303.15	0.6244	797.355	0.79
303.15	0.726	813.555	0.757
303.15	0.8163	828.698	0.727
303.15	0.8817	840.084	0.704
303.15	0.9634	854.895	0.675
308.15	0.0519	713.939	0.959
308.15	0.0988	719.569	0.948
308.15	0.2006	732.261	0.922
308.15	0.3211	747.973	0.89
308.15	0.4201	761.571	0.862
308.15	0.532	777.737	0.829
308.15	0.6244	791.784	0.801
308.15	0.726	807.944	0.768
308.15	0.8163	823.046	0.738
308.15	0.8817	834.402	0.716
308.15	0.9634	849.179	0.686
313.15	0.0519	708.573	0.97
313.15	0.0988	714.181	0.959
313.15	0.2006	726.833	0.933
313.15	0.3211	742.484	0.901
313.15	0.4201	756.049	0.873
313.15	0.532	772.166	0.841
313.15	0.6244	786.18	0.812
313.15	0.726	802.287	0.78
313.15	0.8163	817.349	0.75
313.15	0.8817	828.683	0.727
313.15	0.9634	843.442	0.698

System: diisopropyl ether + 1-chloro-2-methylpropane; phases: Liquid
Fixed: Pressure, kPa = 101
Property: Refractive index (Na D-line) (Liquid); method: Standard Abbe refractometry
Temperature, K	Mole fraction of 1-chloro-2-methylpropane	Refractive index (Na D-line)	uncertainty
283.15	0.0549	1.37495	0.000369
283.15	0.091	1.375898	0.000369
283.15	0.1977	1.378692	0.000369
283.15	0.2934	1.381284	0.000369
283.15	0.3911	1.384042	0.000369
283.15	0.5137	1.387615	0.000369
283.15	0.6034	1.390337	0.000369
283.15	0.6769	1.392631	0.000369
283.15	0.8059	1.396796	0.000369
283.15	0.9111	1.400385	0.000369
283.15	0.9646	1.402258	0.000369
288.15	0.0549	1.372214	0.000369
288.15	0.091	1.373159	0.000369
288.15	0.1977	1.375953	0.000369
288.15	0.2934	1.37855	0.000369
288.15	0.3911	1.381307	0.000369
288.15	0.5137	1.384875	0.000369
288.15	0.6034	1.387596	0.000369
288.15	0.6769	1.389893	0.000369
288.15	0.8059	1.394052	0.000369
288.15	0.9111	1.397636	0.000369
288.15	0.9646	1.399513	0.000369
293.15	0.0549	1.369488	0.000369
293.15	0.091	1.370427	0.000369
293.15	0.1977	1.373219	0.000369
293.15	0.2934	1.37581	0.000369
293.15	0.3911	1.378566	0.000369
293.15	0.5137	1.382127	0.000369
293.15	0.6034	1.384841	0.000369
293.15	0.6769	1.387131	0.000369
293.15	0.8059	1.391286	0.000369
293.15	0.9111	1.394867	0.000369
293.15	0.9646	1.396737	0.000369
298.15	0.0549	1.366626	0.000369
298.15	0.091	1.36757	0.000369
298.15	0.1977	1.370376	0.000369
298.15	0.2934	1.372982	0.000369
298.15	0.3911	1.37575	0.000369
298.15	0.5137	1.379322	0.000369
298.15	0.6034	1.382049	0.000369
298.15	0.6769	1.384351	0.000369
298.15	0.8059	1.388518	0.000369
298.15	0.9111	1.392116	0.000369
298.15	0.9646	1.394	0.000369
303.15	0.0549	1.363794	0.000369
303.15	0.091	1.364737	0.000369
303.15	0.1977	1.367543	0.000369
303.15	0.2934	1.37015	0.000369
303.15	0.3911	1.372919	0.000369
303.15	0.5137	1.376491	0.000369
303.15	0.6034	1.379216	0.000369
303.15	0.6769	1.381518	0.000369
303.15	0.8059	1.385683	0.000369
303.15	0.9111	1.389279	0.000369
303.15	0.9646	1.391158	0.000369
308.15	0.0549	1.360945	0.000369
308.15	0.091	1.361883	0.000369
308.15	0.1977	1.364695	0.000369
308.15	0.2934	1.367304	0.000369
308.15	0.3911	1.370077	0.000369
308.15	0.5137	1.37365	0.000369
308.15	0.6034	1.376378	0.000369
308.15	0.6769	1.37868	0.000369
308.15	0.8059	1.382849	0.000369
308.15	0.9111	1.386449	0.000369
308.15	0.9646	1.388332	0.000369
313.15	0.0549	1.358061	0.000369
313.15	0.091	1.359	0.000369
313.15	0.1977	1.361818	0.000369
313.15	0.2934	1.364442	0.000369
313.15	0.3911	1.367226	0.000369
313.15	0.5137	1.370808	0.000369
313.15	0.6034	1.373539	0.000369
313.15	0.6769	1.375851	0.000369
313.15	0.8059	1.380026	0.000369
313.15	0.9111	1.383639	0.000369
313.15	0.9646	1.385529	0.000369

System: diisopropyl ether + 1-chloro-2-methylpropane; phases: Liquid
Fixed: Pressure, kPa = 101
Property: Speed of sound, m/s (Liquid); method: Sing-around technique in a fixed-path interferometer
Temperature, K	Mole fraction of 1-chloro-2-methylpropane	Speed of sound, m/s	uncertainty
283.15	0.0549	1069.14	1.15
283.15	0.091	1071.67	1.15
283.15	0.1977	1079.63	1.15
283.15	0.2934	1086.95	1.15
283.15	0.3911	1094.41	1.16
283.15	0.5137	1103.67	1.16
283.15	0.6034	1110.5	1.16
283.15	0.6769	1116.19	1.16
283.15	0.8059	1126.32	1.16
283.15	0.9111	1134.68	1.16
283.15	0.9646	1138.96	1.16
288.15	0.0549	1046.83	1.15
288.15	0.091	1049.41	1.15
288.15	0.1977	1057.45	1.15
288.15	0.2934	1064.82	1.15
288.15	0.3911	1072.34	1.15
288.15	0.5137	1081.75	1.15
288.15	0.6034	1088.69	1.15
288.15	0.6769	1094.49	1.16
288.15	0.8059	1104.87	1.16
288.15	0.9111	1113.53	1.16
288.15	0.9646	1117.89	1.16
293.15	0.0549	1024.37	1.14
293.15	0.091	1026.98	1.14
293.15	0.1977	1035.1	1.14
293.15	0.2934	1042.64	1.15
293.15	0.3911	1050.31	1.15
293.15	0.5137	1059.87	1.15
293.15	0.6034	1066.92	1.15
293.15	0.6769	1072.79	1.15
293.15	0.8059	1083.43	1.15
293.15	0.9111	1092.23	1.16
293.15	0.9646	1096.78	1.16
298.15	0.0549	1002.07	1.14
298.15	0.091	1004.7	1.14
298.15	0.1977	1012.95	1.14
298.15	0.2934	1020.53	1.14
298.15	0.3911	1028.23	1.14
298.15	0.5137	1037.95	1.14
298.15	0.6034	1045.15	1.15
298.15	0.6769	1051.15	1.15
298.15	0.8059	1062.03	1.15
298.15	0.9111	1071.05	1.15
298.15	0.9646	1075.61	1.15
303.15	0.0549	979.86	1.13
303.15	0.091	982.53	1.13
303.15	0.1977	990.87	1.14
303.15	0.2934	998.49	1.14
303.15	0.3911	1006.34	1.14
303.15	0.5137	1016.23	1.14
303.15	0.6034	1023.55	1.14
303.15	0.6769	1029.65	1.14
303.15	0.8059	1040.75	1.15
303.15	0.9111	1050.02	1.15
303.15	0.9646	1054.76	1.15
308.15	0.0549	957.82	1.13
308.15	0.091	960.52	1.13
308.15	0.1977	968.88	1.13
308.15	0.2934	976.54	1.13
308.15	0.3911	984.48	1.13
308.15	0.5137	994.58	1.14
308.15	0.6034	1002.01	1.14
308.15	0.6769	1008.22	1.14
308.15	0.8059	1019.58	1.14
308.15	0.9111	1028.98	1.14
308.15	0.9646	1033.83	1.14
313.15	0.0549	935.95	1.13
313.15	0.091	938.67	1.13
313.15	0.1977	947.16	1.13
313.15	0.2934	954.94	1.13
313.15	0.3911	963	1.13
313.15	0.5137	973.17	1.13
313.15	0.6034	980.73	1.13
313.15	0.6769	987.04	1.14
313.15	0.8059	998.57	1.14
313.15	0.9111	1008.12	1.14
313.15	0.9646	1013.05	1.14

System: diisopropyl ether + 1-chloro-2-methylpropane; phases: Liquid
Fixed: Pressure, kPa = 101
Property: Mass density, kg/m3 (Liquid); method: VIBTUB:UFactor:6
Temperature, K	Mole fraction of 1-chloro-2-methylpropane	Mass density, kg/m3	uncertainty
283.15	0.0549	740.509	0.905
283.15	0.091	745.071	0.895
283.15	0.1977	758.96	0.867
283.15	0.2934	772.077	0.841
283.15	0.3911	785.941	0.813
283.15	0.5137	804.21	0.776
283.15	0.6034	818.258	0.748
283.15	0.6769	830.206	0.724
283.15	0.8059	852.473	0.679
283.15	0.9111	871.773	0.641
283.15	0.9646	881.981	0.621
288.15	0.0549	735.346	0.915
288.15	0.091	739.888	0.906
288.15	0.1977	753.737	0.878
288.15	0.2934	766.807	0.851
288.15	0.3911	780.617	0.823
288.15	0.5137	798.831	0.787
288.15	0.6034	812.821	0.758
288.15	0.6769	824.734	0.735
288.15	0.8059	846.936	0.691
288.15	0.9111	866.179	0.652
288.15	0.9646	876.368	0.632
293.15	0.0549	730.142	0.926
293.15	0.091	734.678	0.917
293.15	0.1977	748.467	0.889
293.15	0.2934	761.481	0.862
293.15	0.3911	775.245	0.834
293.15	0.5137	793.406	0.797
293.15	0.6034	807.35	0.769
293.15	0.6769	819.228	0.746
293.15	0.8059	841.356	0.702
293.15	0.9111	860.549	0.664
293.15	0.9646	870.717	0.644
298.15	0.0549	724.887	0.937
298.15	0.091	729.395	0.928
298.15	0.1977	743.114	0.9
298.15	0.2934	756.06	0.873
298.15	0.3911	769.763	0.845
298.15	0.5137	787.825	0.809
298.15	0.6034	801.699	0.781
298.15	0.6769	813.519	0.757
298.15	0.8059	835.53	0.713
298.15	0.9111	854.603	0.676
298.15	0.9646	864.749	0.656
303.15	0.0549	719.603	0.948
303.15	0.091	724.11	0.938
303.15	0.1977	737.798	0.91
303.15	0.2934	750.738	0.884
303.15	0.3911	764.421	0.856
303.15	0.5137	782.446	0.82
303.15	0.6034	796.305	0.792
303.15	0.6769	808.11	0.768
303.15	0.8059	830.111	0.724
303.15	0.9111	849.196	0.686
303.15	0.9646	859.307	0.666
308.15	0.0549	714.28	0.959
308.15	0.091	718.759	0.949
308.15	0.1977	732.397	0.922
308.15	0.2934	745.3	0.895
308.15	0.3911	758.935	0.867
308.15	0.5137	776.901	0.831
308.15	0.6034	790.719	0.803
308.15	0.6769	802.492	0.78
308.15	0.8059	824.422	0.736
308.15	0.9111	843.468	0.698
308.15	0.9646	853.542	0.678
313.15	0.0549	708.887	0.97
313.15	0.091	713.334	0.961
313.15	0.1977	726.882	0.933
313.15	0.2934	739.693	0.907
313.15	0.3911	753.227	0.879
313.15	0.5137	771.077	0.843
313.15	0.6034	784.802	0.815
313.15	0.6769	796.487	0.792
313.15	0.8059	818.264	0.748
313.15	0.9111	837.168	0.71
313.15	0.9646	847.176	0.691

System: diisopropyl ether + 2-chloro-2-methylpropane; phases: Liquid
Fixed: Pressure, kPa = 101
Property: Refractive index (Na D-line) (Liquid); method: Standard Abbe refractometry
Temperature, K	Mole fraction of 2-chloro-2-methylpropane	Refractive index (Na D-line)	uncertainty
283.15	0.049	1.374262	0.000369
283.15	0.0996	1.374984	0.000369
283.15	0.1991	1.376448	0.000369
283.15	0.3212	1.378343	0.000369
283.15	0.4189	1.379936	0.000369
283.15	0.5148	1.381572	0.000369
283.15	0.6213	1.383478	0.000369
283.15	0.7152	1.385244	0.000369
283.15	0.8138	1.38719	0.000369
283.15	0.9079	1.389145	0.000369
283.15	0.9552	1.390164	0.000369
288.15	0.049	1.371518	0.000369
288.15	0.0996	1.37223	0.000369
288.15	0.1991	1.373677	0.000369
288.15	0.3212	1.37555	0.000369
288.15	0.4189	1.377125	0.000369
288.15	0.5148	1.378742	0.000369
288.15	0.6213	1.380626	0.000369
288.15	0.7152	1.382373	0.000369
288.15	0.8138	1.384295	0.000369
288.15	0.9079	1.386226	0.000369
288.15	0.9552	1.387233	0.000369
293.15	0.049	1.368782	0.000369
293.15	0.0996	1.369484	0.000369
293.15	0.1991	1.370909	0.000369
293.15	0.3212	1.372754	0.000369
293.15	0.4189	1.374305	0.000369
293.15	0.5148	1.375898	0.000369
293.15	0.6213	1.377753	0.000369
293.15	0.7152	1.379474	0.000369
293.15	0.8138	1.381366	0.000369
293.15	0.9079	1.383266	0.000369
293.15	0.9552	1.384257	0.000369
298.15	0.049	1.365911	0.000369
298.15	0.0996	1.366609	0.000369
298.15	0.1991	1.368025	0.000369
298.15	0.3212	1.369861	0.000369
298.15	0.4189	1.371403	0.000369
298.15	0.5148	1.372988	0.000369
298.15	0.6213	1.374833	0.000369
298.15	0.7152	1.376543	0.000369
298.15	0.8138	1.378425	0.000369
298.15	0.9079	1.380315	0.000369
298.15	0.9552	1.381299	0.000369
303.15	0.049	1.363071	0.000369
303.15	0.0996	1.363761	0.000369
303.15	0.1991	1.365162	0.000369
303.15	0.3212	1.366973	0.000369
303.15	0.4189	1.368498	0.000369
303.15	0.5148	1.370063	0.000369
303.15	0.6213	1.371885	0.000369
303.15	0.7152	1.373573	0.000369
303.15	0.8138	1.375431	0.000369
303.15	0.9079	1.377297	0.000369
303.15	0.9552	1.378269	0.000369
308.15	0.049	1.360211	0.000369
308.15	0.0996	1.360894	0.000369
308.15	0.1991	1.362281	0.000369
308.15	0.3212	1.364075	0.000369
308.15	0.4189	1.365585	0.000369
308.15	0.5148	1.367135	0.000369
308.15	0.6213	1.368939	0.000369
308.15	0.7152	1.37061	0.000369
308.15	0.8138	1.372449	0.000369
308.15	0.9079	1.374296	0.000369
308.15	0.9552	1.375258	0.000369
313.15	0.049	1.357314	0.000369
313.15	0.0996	1.357989	0.000369
313.15	0.1991	1.359362	0.000369
313.15	0.3212	1.361137	0.000369
313.15	0.4189	1.362631	0.000369
313.15	0.5148	1.364163	0.000369
313.15	0.6213	1.365947	0.000369
313.15	0.7152	1.3676	0.000369
313.15	0.8138	1.36942	0.000369
313.15	0.9079	1.371245	0.000369
313.15	0.9552	1.372195	0.000369

System: diisopropyl ether + 2-chloro-2-methylpropane; phases: Liquid
Fixed: Pressure, kPa = 101
Property: Speed of sound, m/s (Liquid); method: Sing-around technique in a fixed-path interferometer
Temperature, K	Mole fraction of 2-chloro-2-methylpropane	Speed of sound, m/s	uncertainty
283.15	0.049	1064.88	1.15
283.15	0.0996	1064.14	1.15
283.15	0.1991	1062.65	1.15
283.15	0.3212	1060.71	1.15
283.15	0.4189	1059.09	1.15
283.15	0.5148	1057.41	1.15
283.15	0.6213	1055.41	1.15
283.15	0.7152	1053.53	1.15
283.15	0.8138	1051.4	1.15
283.15	0.9079	1049.23	1.15
283.15	0.9552	1048.07	1.15
288.15	0.049	1042.52	1.15
288.15	0.0996	1041.81	1.15
288.15	0.1991	1040.4	1.15
288.15	0.3212	1038.55	1.14
288.15	0.4189	1037.01	1.14
288.15	0.5148	1035.42	1.14
288.15	0.6213	1033.55	1.14
288.15	0.7152	1031.77	1.14
288.15	0.8138	1029.76	1.14
288.15	0.9079	1027.68	1.14
288.15	0.9552	1026.56	1.14
293.15	0.049	1020.02	1.14
293.15	0.0996	1019.36	1.14
293.15	0.1991	1018.03	1.14
293.15	0.3212	1016.3	1.14
293.15	0.4189	1014.87	1.14
293.15	0.5148	1013.38	1.14
293.15	0.6213	1011.65	1.14
293.15	0.7152	1009.96	1.14
293.15	0.8138	1008.07	1.14
293.15	0.9079	1006.15	1.14
293.15	0.9552	1005.09	1.14
298.15	0.049	997.71	1.14
298.15	0.0996	997.09	1.14
298.15	0.1991	995.89	1.14
298.15	0.3212	994.32	1.14
298.15	0.4189	993.03	1.14
298.15	0.5148	991.68	1.14
298.15	0.6213	990.11	1.14
298.15	0.7152	988.62	1.14
298.15	0.8138	986.91	1.14
298.15	0.9079	985.13	1.13
298.15	0.9552	984.18	1.13
303.15	0.049	975.46	1.13
303.15	0.0996	974.84	1.13
303.15	0.1991	973.65	1.13
303.15	0.3212	972.13	1.13
303.15	0.4189	970.88	1.13
303.15	0.5148	969.59	1.13
303.15	0.6213	968.1	1.13
303.15	0.7152	966.67	1.13
303.15	0.8138	965.04	1.13
303.15	0.9079	963.34	1.13
303.15	0.9552	962.38	1.13
308.15	0.049	953.42	1.13
308.15	0.0996	952.84	1.13
308.15	0.1991	951.71	1.13
308.15	0.3212	950.28	1.13
308.15	0.4189	949.13	1.13
308.15	0.5148	947.93	1.13
308.15	0.6213	946.56	1.13
308.15	0.7152	945.25	1.13
308.15	0.8138	943.74	1.13
308.15	0.9079	942.17	1.13
308.15	0.9552	941.27	1.13
313.15	0.049	931.51	1.13
313.15	0.0996	930.96	1.13
313.15	0.1991	929.87	1.12
313.15	0.3212	928.52	1.12
313.15	0.4189	927.44	1.12
313.15	0.5148	926.35	1.12
313.15	0.6213	925.1	1.12
313.15	0.7152	923.88	1.12
313.15	0.8138	922.47	1.12
313.15	0.9079	921	1.12
313.15	0.9552	920.15	1.12

System: diisopropyl ether + 2-chloro-2-methylpropane; phases: Liquid
Fixed: Pressure, kPa = 101
Property: Mass density, kg/m3 (Liquid); method: VIBTUB:UFactor:6
Temperature, K	Mole fraction of 2-chloro-2-methylpropane	Mass density, kg/m3	uncertainty
283.15	0.049	738.51	0.908
283.15	0.0996	743.477	0.898
283.15	0.1991	753.625	0.877
283.15	0.3212	766.738	0.851
283.15	0.4189	777.752	0.828
283.15	0.5148	789.053	0.806
283.15	0.6213	802.211	0.779
283.15	0.7152	814.386	0.755
283.15	0.8138	827.84	0.728
283.15	0.9079	841.342	0.701
283.15	0.9552	848.393	0.687
288.15	0.049	733.338	0.919
288.15	0.0996	738.271	0.909
288.15	0.1991	748.35	0.888
288.15	0.3212	761.373	0.862
288.15	0.4189	772.305	0.839
288.15	0.5148	783.527	0.817
288.15	0.6213	796.59	0.79
288.15	0.7152	808.683	0.766
288.15	0.8138	822.038	0.739
288.15	0.9079	835.444	0.712
288.15	0.9552	842.442	0.698
293.15	0.049	728.121	0.93
293.15	0.0996	733.024	0.92
293.15	0.1991	743.024	0.899
293.15	0.3212	755.959	0.873
293.15	0.4189	766.815	0.851
293.15	0.5148	777.959	0.828
293.15	0.6213	790.929	0.802
293.15	0.7152	802.935	0.778
293.15	0.8138	816.189	0.751
293.15	0.9079	829.491	0.724
293.15	0.9552	836.437	0.71
298.15	0.049	722.867	0.94
298.15	0.0996	727.738	0.93
298.15	0.1991	737.666	0.91
298.15	0.3212	750.506	0.884
298.15	0.4189	761.286	0.862
298.15	0.5148	772.351	0.839
298.15	0.6213	785.228	0.813
298.15	0.7152	797.145	0.789
298.15	0.8138	810.301	0.763
298.15	0.9079	823.502	0.736
298.15	0.9552	830.397	0.723
303.15	0.049	717.578	0.951
303.15	0.0996	722.411	0.941
303.15	0.1991	732.264	0.921
303.15	0.3212	745.015	0.895
303.15	0.4189	755.716	0.873
303.15	0.5148	766.702	0.851
303.15	0.6213	779.48	0.825
303.15	0.7152	791.311	0.801
303.15	0.8138	804.371	0.775
303.15	0.9079	817.469	0.749
303.15	0.9552	824.312	0.735
308.15	0.049	712.24	0.962
308.15	0.0996	717.041	0.952
308.15	0.1991	726.821	0.932
308.15	0.3212	739.479	0.906
308.15	0.4189	750.102	0.885
308.15	0.5148	761.005	0.863
308.15	0.6213	773.688	0.837
308.15	0.7152	785.433	0.813
308.15	0.8138	798.394	0.787
308.15	0.9079	811.393	0.761
308.15	0.9552	818.179	0.747
313.15	0.049	706.86	0.973
313.15	0.0996	711.627	0.964
313.15	0.1991	721.331	0.944
313.15	0.3212	733.893	0.918
313.15	0.4189	744.44	0.896
313.15	0.5148	755.257	0.874
313.15	0.6213	767.848	0.849
313.15	0.7152	779.502	0.825
313.15	0.8138	792.364	0.799
313.15	0.9079	805.264	0.773
313.15	0.9552	811.999	0.76
