Measured thermophysical data. Solubility of Clopidogrel Hydrogen Sulfate (Form II) in Different Solvents
Source: J. Chem. Eng. Data, 2010, 10.1021/je100022w
Compound 1: ethanol, C2H6O, InChI=1S/C2H6O/c1-2-3/h3H,2H2,1H3, purity 99.5%
Compound 2: propan-1-ol, C3H8O, InChI=1S/C3H8O/c1-2-3-4/h4H,2-3H2,1H3, purity 99.5%
Compound 3: propan-2-ol, C3H8O, InChI=1S/C3H8O/c1-3(2)4/h3-4H,1-2H3, purity 99.5%
Compound 4: butan-1-ol, C4H10O, InChI=1S/C4H10O/c1-2-3-4-5/h5H,2-4H2,1H3, purity 99.5%
Compound 5: acetone, C3H6O, InChI=1S/C3H6O/c1-3(2)4/h1-2H3, purity 99.5%
Compound 6: (S)-(+)-Clopidogrel hydrogen sulfate, C16H18ClNO6S2, InChI=1S/C16H16ClNO2S.H2O4S/c1-20-16(19)15(12-4-2-3-5-13(12)17)18-8-6-14-11(10-18)7-9-21-14;1-5(2,3)4/h2-5,7,9,15H,6,8,10H2,1H3;(H2,1,2,3,4)/t15-;/m0./s1

System: (S)-(+)-Clopidogrel hydrogen sulfate; phases: Crystal 2, Liquid, Gas
Property: Triple point temperature, K (Crystal 2); method: DSC
Triple point temperature, K	uncertainty
449.15	1

System: ethanol + (S)-(+)-Clopidogrel hydrogen sulfate; phases: Liquid, Crystal 2
Fixed: Pressure, kPa = 101.325
Property: Mole fraction of (S)-(+)-Clopidogrel hydrogen sulfate (Liquid); method: Titration method
Temperature, K	Mole fraction of (S)-(+)-Clopidogrel hydrogen sulfate	uncertainty
278.15	0.006242	0.000624
283.15	0.006985	0.000699
288.15	0.007961	0.000796
293.15	0.009169	0.000917
298.15	0.01067	0.00107
303.15	0.01244	0.00124
308.15	0.01479	0.00148
313.25	0.01799	0.0018
318.15	0.02156	0.00216

System: propan-1-ol + (S)-(+)-Clopidogrel hydrogen sulfate; phases: Liquid, Crystal 2
Fixed: Pressure, kPa = 101.325
Property: Mole fraction of (S)-(+)-Clopidogrel hydrogen sulfate (Liquid); method: Titration method
Temperature, K	Mole fraction of (S)-(+)-Clopidogrel hydrogen sulfate	uncertainty
278.15	0.001436	0.000144
283.15	0.00198	0.000198
288.15	0.002584	0.000258
293.15	0.003179	0.000318
298.15	0.003743	0.000374
303.15	0.004295	0.00043
308.15	0.005232	0.000523
313.15	0.006356	0.000636
318.15	0.008223	0.000822

System: propan-2-ol + (S)-(+)-Clopidogrel hydrogen sulfate; phases: Liquid, Crystal 2
Fixed: Pressure, kPa = 101.325
Property: Mole fraction of (S)-(+)-Clopidogrel hydrogen sulfate (Liquid); method: Titration method
Temperature, K	Mole fraction of (S)-(+)-Clopidogrel hydrogen sulfate	uncertainty
278.15	4.263e-05	4.26e-06
283.2	7.724e-05	7.73e-06
288.12	0.0001459	1.46e-05
293.2	0.0002746	2.75e-05
298.21	0.0004919	4.92e-05
303.17	0.0007505	7.51e-05
308.2	0.001052	0.000105
313.15	0.001399	0.00014
318.15	0.001843	0.000184

System: butan-1-ol + (S)-(+)-Clopidogrel hydrogen sulfate; phases: Liquid, Crystal 2
Fixed: Pressure, kPa = 101.325
Property: Mole fraction of (S)-(+)-Clopidogrel hydrogen sulfate (Liquid); method: Titration method
Temperature, K	Mole fraction of (S)-(+)-Clopidogrel hydrogen sulfate	uncertainty
278.15	0.0005912	5.91e-05
283.15	0.0007346	7.35e-05
288.15	0.0009752	9.75e-05
293.15	0.001238	0.000124
298.15	0.001635	0.000164
303.15	0.002126	0.000213
308.15	0.002698	0.00027
313.15	0.003343	0.000334
318.15	0.00426	0.000426

System: acetone + (S)-(+)-Clopidogrel hydrogen sulfate; phases: Liquid, Crystal 2
Fixed: Pressure, kPa = 101.325
Property: Mole fraction of (S)-(+)-Clopidogrel hydrogen sulfate (Liquid); method: Titration method
Temperature, K	Mole fraction of (S)-(+)-Clopidogrel hydrogen sulfate	uncertainty
278.1	0.0003802	3.8e-05
283.15	0.0004355	4.36e-05
288.24	0.0005032	5.03e-05
293.13	0.0005903	5.9e-05
298.23	0.0006925	6.93e-05
303.29	0.0008278	8.28e-05
308.36	0.0009687	9.69e-05
313.23	0.001126	0.000113
318.05	0.001334	0.000133
