Measured thermophysical data. Speed of Sound Results in 2,3,3,3-Tetrafluoropropene (R-1234yf) and trans-1,3,3,3-Tetrafluoropropene (R-1234ze(E)) in the Temperature Range of (260 to 360) K
Source: J. Chem. Eng. Data, 2011, 10.1021/je100896n
Compound 1: 2,3,3,3-tetrafluoro-1-propene, C3H2F4, InChI=1S/C3H2F4/c1-2(4)3(5,6)7/h1H2, purity 99%
Compound 2: trans-1,3,3,3-tetrafluoropropene, C3H2F4, InChI=1S/C3H2F4/c4-2-1-3(5,6)7/h1-2H/b2-1+, purity 99%

System: 2,3,3,3-tetrafluoro-1-propene; phases: Fluid (supercritical or subcritical phases)
Property: Speed of sound, m/s (Fluid (supercritical or subcritical phases)); method: Pulse-echo method
Temperature, K	Pressure, kPa	Speed of sound, m/s	uncertainty
259.99	4968	655.687	1.411
259.998	1989	632.048	1.428
259.999	3044	640.566	1.426
259.999	5993	663.374	1.408
260.003	4057	648.573	1.42
285	5983	565.092	1.518
285.003	4006	546.269	1.509
285.006	2033	525.903	1.632
285.008	5090	556.713	1.489
285.009	3011	536.181	1.535
310	5016	456.806	1.656
310.004	6057	469.099	1.633
310.006	4019	444	1.726
310.008	3042	430.668	1.793
310.011	2013	415.618	2.164
334.98	5937	371.375	1.93
334.998	5008	355.82	2.061
335	2073	293.744	2.65
335.002	3039	317.176	2.5
335.003	3985	336.924	2.235
359.937	6062	275.994	2.778
359.957	4997	248.553	2.775

System: trans-1,3,3,3-tetrafluoropropene; phases: Fluid (supercritical or subcritical phases)
Property: Speed of sound, m/s (Fluid (supercritical or subcritical phases)); method: Pulse-echo method
Temperature, K	Pressure, kPa	Speed of sound, m/s	uncertainty
259.981	1980	715.114	1.394
259.983	3989	728.837	1.392
259.998	8007	754.65	1.379
260.002	6021	742.08	1.385
260.007	10070	767.161	1.379
285	1956	606.383	1.465
285.002	4021	624.262	1.442
285.003	6056	640.716	1.419
285.003	9989	670.059	1.437
285.005	8005	655.641	1.401
309.998	2063	497.644	1.702
310.001	10112	578.788	1.488
310.005	3947	519.145	1.571
310.006	8005	559.879	1.474
310.007	6041	540.979	1.519
335	10020	488.505	1.624
335.005	7985	465.596	1.625
335.008	5978	440.563	1.725
335.009	4027	413.085	1.888
335.013	2007	379.56	1.983
360.003	6047	340.102	2.197
360.023	3998	296.312	2.383
360.031	8052	373.946	1.904
360.031	10036	402.498	1.805
