Measured thermophysical data. Measurement and Correlation of the Vapor Pressure of Ethyltrimethoxysilane
Source: J. Chem. Eng. Data, 2010, 10.1021/je100017w
Compound 1: ethyltrimethoxysilane, C5H14O3Si, InChI=1S/C5H14O3Si/c1-5-9(6-2,7-3)8-4/h5H2,1-4H3

System: ethyltrimethoxysilane; phases: Liquid, Gas
Property: Vapor or sublimation pressure, kPa (Liquid); method: EBULLIO:UFactor:32
Temperature, K	Vapor or sublimation pressure, kPa	uncertainty
306.35	2.325	0.257
311.45	3.325	0.259
315.95	4.325	0.263
319.8	5.325	0.272
324.15	6.325	0.288
328.65	8.325	0.32
334.15	10.325	0.356
338.95	13.325	0.417
343.65	16.325	0.475
347.65	19.325	0.539
351.35	22.325	0.604
354.55	25.325	0.671
357.45	28.325	0.738
360.15	31.325	0.805
362.65	34.325	0.874
364.95	37.325	0.936
367.55	40.325	1.003
369.65	43.325	1.091
371.05	46.325	1.135
374.05	49.325	1.197
375.85	52.325	1.322
376.45	55.325	1.645
379.85	58.325	1.394
381.15	61.325	1.508
382.55	64.325	1.613
383.15	67.325	1.65
384.85	70.325	1.701
385.85	73.325	1.837
386.65	76.325	1.915
387.55	79.325	1.919
388.95	82.325	1.98
389.95	85.325	2.073
390.95	88.325	2.089
392.95	91.325	2.198
393.05	94.325	2.277
393.75	97.325	2.415
393.95	100.325	2.341
397.15	101.325	2.349
