Measured thermophysical data. Solubility of Decabromodiphenyl Ether in Different Solvents at (283.0 to 323.0) K
Source: J. Chem. Eng. Data, 2010, 10.1021/je100316k
Compound 1: 6,6'-oxybis(1,2,3,4,5-pentabromobenzene), C12Br10O, InChI=1S/C12Br10O/c13-1-3(15)7(19)11(8(20)4(1)16)23-12-9(21)5(17)2(14)6(18)10(12)22, purity 99%
Compound 2: acetone, C3H6O, InChI=1S/C3H6O/c1-3(2)4/h1-2H3
Compound 3: ethyl acetate, C4H8O2, InChI=1S/C4H8O2/c1-3-6-4(2)5/h3H2,1-2H3
Compound 4: 1-methyl-4-(1-methylethenyl)cyclohexene, C10H16, InChI=1S/C10H16/c1-8(2)10-6-4-9(3)5-7-10/h4,10H,1,5-7H2,2-3H3
Compound 5: toluene, C7H8, InChI=1S/C7H8/c1-7-5-3-2-4-6-7/h2-6H,1H3
Compound 6: tetrahydrofuran, C4H8O, InChI=1S/C4H8O/c1-2-4-5-3-1/h1-4H2

System: acetone + 6,6'-oxybis(1,2,3,4,5-pentabromobenzene); phases: Liquid, Crystal
Fixed: Pressure, kPa = 101
Property: Mole fraction of 6,6'-oxybis(1,2,3,4,5-pentabromobenzene) (Liquid); method: Chromatography
Temperature, K	Mole fraction of 6,6'-oxybis(1,2,3,4,5-pentabromobenzene)	uncertainty
283	4.4e-05	8e-06
293	6e-05	5e-06
303	9.1e-05	2.2e-05
313	0.000119	6e-06
323	0.000145	1.3e-05

System: ethyl acetate + 6,6'-oxybis(1,2,3,4,5-pentabromobenzene); phases: Liquid, Crystal
Fixed: Pressure, kPa = 101
Property: Mole fraction of 6,6'-oxybis(1,2,3,4,5-pentabromobenzene) (Liquid); method: Chromatography
Temperature, K	Mole fraction of 6,6'-oxybis(1,2,3,4,5-pentabromobenzene)	uncertainty
283	0.000133	3.4e-05
293	0.000173	1.5e-05
303	0.000252	3.4e-05
313	0.000346	7e-05
323	0.000455	4.9e-05

System: 1-methyl-4-(1-methylethenyl)cyclohexene + 6,6'-oxybis(1,2,3,4,5-pentabromobenzene); phases: Liquid, Crystal
Fixed: Pressure, kPa = 101
Property: Mole fraction of 6,6'-oxybis(1,2,3,4,5-pentabromobenzene) (Liquid); method: Chromatography
Temperature, K	Mole fraction of 6,6'-oxybis(1,2,3,4,5-pentabromobenzene)	uncertainty
283	0.001616	0.000309
293	0.002418	0.000569
303	0.002824	0.000707
313	0.003971	0.000304
323	0.004848	0.00048

System: toluene + 6,6'-oxybis(1,2,3,4,5-pentabromobenzene); phases: Liquid, Crystal
Fixed: Pressure, kPa = 101
Property: Mole fraction of 6,6'-oxybis(1,2,3,4,5-pentabromobenzene) (Liquid); method: Chromatography
Temperature, K	Mole fraction of 6,6'-oxybis(1,2,3,4,5-pentabromobenzene)	uncertainty
283	0.00274	0.000393
293	0.003623	0.000287
303	0.005202	0.00084
313	0.006506	0.000437
323	0.007707	0.000474

System: tetrahydrofuran + 6,6'-oxybis(1,2,3,4,5-pentabromobenzene); phases: Liquid, Crystal
Fixed: Pressure, kPa = 101
Property: Mole fraction of 6,6'-oxybis(1,2,3,4,5-pentabromobenzene) (Liquid); method: Chromatography
Temperature, K	Mole fraction of 6,6'-oxybis(1,2,3,4,5-pentabromobenzene)	uncertainty
283	0.004487	0.00051
293	0.005235	0.000667
303	0.006074	0.00155
313	0.006949	0.00126
323	0.008504	0.000352
