Measured thermophysical data. P.rho.T Data for Hydrogen Sulfide + Propane from (263 to 363) K at Pressures up to 40 MPa
Source: J. Chem. Eng. Data, 2011, 10.1021/je100851w
Compound 1: propane, C3H8, InChI=1S/C3H8/c1-3-2/h3H2,1-2H3
Compound 2: hydrogen sulfide, H2S, InChI=1S/H2S/h1H2

System: propane + hydrogen sulfide; phases: Gas
Property: Mass density, kg/m3 (Gas); method: Vibrating tube method
Temperature, K	Pressure, kPa	Mole fraction of hydrogen sulfide	Mass density, kg/m3	uncertainty
263.11	8	0.2227	0.1	0.1
263.11	159	0.2227	3.1	0.1
263.11	298	0.2227	6.1	0.1
263.11	438	0.2227	9.1	0.1
268.09	9	0.2691	0.2	0.1
268.09	180	0.2691	3.5	0.1
268.09	335	0.2691	6.7	0.1
268.09	476	0.2691	9.7	0.1
293.28	14	0.2227	0.2	0.1
293.28	186	0.2227	3.3	0.1
293.28	350	0.2227	6.3	0.1
293.28	509	0.2227	9.4	0.1
293.28	665	0.2227	12.6	0.1
293.28	804	0.2227	15.6	0.1
293.28	932	0.2227	18.7	0.1
293.28	1050	0.2227	21.9	0.1
313.12	202	0.2691	3.3	0.1
313.12	382	0.2691	6.4	0.1
313.12	558	0.2691	9.5	0.1
313.12	722	0.2691	12.6	0.1
313.12	878	0.2691	15.7	0.1
313.12	1040	0.2691	19	0.1
313.12	1178	0.2691	22	0.1
313.12	1322	0.2691	25.3	0.1
313.12	1455	0.2691	28.5	0.1
313.12	1580	0.2691	31.7	0.1
313.12	1693	0.2691	34.9	0.1
313.12	1773	0.2691	37.9	0.1
333.22	50	0.2227	0.8	0.1
333.22	260	0.2227	4.1	0.1
333.22	470	0.2227	7.5	0.1
333.22	671	0.2227	10.9	0.1
333.22	838	0.2227	13.9	0.1
333.22	995	0.2227	16.9	0.1
333.22	1186	0.2227	20.5	0.1
333.22	1363	0.2227	24.1	0.1
333.22	1512	0.2227	27.2	0.1
333.22	1663	0.2227	30.6	0.1
333.22	1805	0.2227	33.9	0.1
333.22	1931	0.2227	37	0.1
333.22	2048	0.2227	40	0.1
333.22	2176	0.2227	43.6	0.1
333.22	2300	0.2227	47.2	0.1
333.22	2398	0.2227	50.2	0.1
333.22	2551	0.2227	55.6	0.1
333.22	2630	0.2227	59.1	0.1
333.22	2722	0.2227	62.4	0.1
333.22	2778	0.2227	65.4	0.1

System: propane + hydrogen sulfide; phases: Liquid
Property: Mass density, kg/m3 (Liquid); method: Vibrating tube method
Temperature, K	Pressure, kPa	Mole fraction of hydrogen sulfide	Mass density, kg/m3	uncertainty
263.11	707	0.2227	571.2	0.3
263.11	2357	0.2227	574.3	0.3
263.11	4057	0.2227	577.3	0.3
263.11	5814	0.2227	580.3	0.4
263.11	7697	0.2227	583.3	0.4
263.11	9735	0.2227	586.4	0.5
263.11	11879	0.2227	589.5	0.5
263.11	14087	0.2227	592.6	0.5
263.11	16300	0.2227	595.6	0.6
263.11	18708	0.2227	598.6	0.6
263.11	21118	0.2227	601.6	0.7
263.11	23736	0.2227	604.6	0.7
263.11	26466	0.2227	607.7	0.8
263.11	29282	0.2227	610.8	0.8
263.11	32290	0.2227	613.9	0.9
263.11	35311	0.2227	616.9	0.9
263.11	38486	0.2227	620	1
263.11	41881	0.2227	623.1	1
268.09	818	0.2691	570	0.3
268.09	2369	0.2691	573.1	0.3
268.09	3999	0.2691	576.3	0.3
268.09	5608	0.2691	579.3	0.4
268.09	7451	0.2691	582.5	0.4
268.09	9258	0.2691	585.5	0.4
268.09	11262	0.2691	588.7	0.5
268.09	13236	0.2691	591.8	0.5
268.09	15455	0.2691	595	0.6
268.09	17739	0.2691	598.2	0.6
268.09	20006	0.2691	601.2	0.6
268.09	22487	0.2691	604.4	0.7
268.09	24903	0.2691	607.4	0.7
268.09	27518	0.2691	610.5	0.8
268.09	30199	0.2691	613.6	0.8
268.09	33045	0.2691	616.7	0.9
268.09	36027	0.2691	619.8	0.9
268.09	39139	0.2691	622.9	1
293.28	3770	0.2227	518.4	0.4
293.28	4686	0.2227	521.6	0.4
293.28	5576	0.2227	524.8	0.4
293.28	6556	0.2227	527.8	0.4
293.28	7610	0.2227	530.9	0.5
293.28	8755	0.2227	534.1	0.5
293.28	9941	0.2227	537.3	0.5
293.28	11195	0.2227	540.5	0.5
293.28	12466	0.2227	543.5	0.6
293.28	13825	0.2227	546.6	0.6
293.28	15156	0.2227	549.6	0.6
293.28	16605	0.2227	552.6	0.6
293.28	18128	0.2227	555.6	0.7
293.28	19790	0.2227	558.8	0.7
293.28	21473	0.2227	561.9	0.7
293.28	23224	0.2227	564.9	0.8
293.28	25127	0.2227	568.1	0.8
293.28	27137	0.2227	571.3	0.8
293.28	29216	0.2227	574.5	0.9
293.28	31365	0.2227	577.6	0.9
293.28	33453	0.2227	580.6	1
293.28	35831	0.2227	583.8	1
313.12	2189	0.2691	491.5	0.3
313.12	2787	0.2691	494.6	0.4
313.12	3465	0.2691	498	0.4
313.12	4173	0.2691	501.2	0.4
313.12	4917	0.2691	504.4	0.4
313.12	5710	0.2691	507.6	0.4
313.12	6516	0.2691	510.6	0.5
313.12	7434	0.2691	513.9	0.5
313.12	8423	0.2691	517.3	0.5
313.12	9421	0.2691	520.5	0.5
313.12	10495	0.2691	523.7	0.5
313.12	11669	0.2691	527.1	0.6
313.12	12933	0.2691	530.5	0.6
313.12	14205	0.2691	533.7	0.6
313.12	15491	0.2691	536.9	0.6
313.12	16847	0.2691	540	0.7
313.12	18303	0.2691	543.3	0.7
313.12	19787	0.2691	546.4	0.7
313.12	21354	0.2691	549.6	0.8
313.12	22903	0.2691	552.6	0.8
313.12	24556	0.2691	555.7	0.8
313.12	26292	0.2691	558.8	0.9
313.12	28082	0.2691	561.8	0.9
313.12	29973	0.2691	564.9	0.9
313.12	32005	0.2691	568.1	1
313.12	34062	0.2691	571.2	1
313.12	36163	0.2691	574.3	1
313.12	38383	0.2691	577.4	1.1
333.22	3571	0.2227	438.6	0.3
333.22	3861	0.2227	441.9	0.4
333.22	4197	0.2227	445.2	0.4
333.22	4915	0.2227	450.2	0.4
333.22	5323	0.2227	453.4	0.4
333.22	5731	0.2227	456.4	0.4
333.22	6177	0.2227	459.5	0.4
333.22	6686	0.2227	462.8	0.4
333.22	7239	0.2227	466.1	0.4
333.22	7781	0.2227	469.2	0.5
333.22	8351	0.2227	472.3	0.5
333.22	8992	0.2227	475.5	0.5
333.22	9907	0.2227	479.8	0.5
333.22	10643	0.2227	482.8	0.5
333.22	11360	0.2227	485.8	0.6
333.22	12135	0.2227	488.8	0.6
333.22	12959	0.2227	491.9	0.6
333.22	13811	0.2227	495	0.6
333.22	14817	0.2227	498.4	0.7
333.22	15868	0.2227	501.8	0.7
333.22	16856	0.2227	504.8	0.7
333.22	17893	0.2227	507.8	0.7
333.22	18975	0.2227	510.8	0.8
333.22	20100	0.2227	513.8	0.8
333.22	21435	0.2227	517.2	0.8
333.22	22830	0.2227	520.5	0.8
333.22	24120	0.2227	523.5	0.9
333.22	25466	0.2227	526.5	0.9
333.22	26959	0.2227	529.7	0.9
333.22	28465	0.2227	532.7	0.9
333.22	30160	0.2227	536	1
333.22	31961	0.2227	539.4	1
333.22	33791	0.2227	542.6	1
333.22	35752	0.2227	546	1.1
333.22	37781	0.2227	549.3	1.1
333.22	39778	0.2227	552.5	1.2

System: propane + hydrogen sulfide; phases: Fluid (supercritical or subcritical phases)
Fixed: Temperature, K = 363.24
Fixed: Mole fraction of hydrogen sulfide = 0.2691
Property: Mass density, kg/m3 (Fluid (supercritical or subcritical phases)); method: Vibrating tube method
Pressure, kPa	Mass density, kg/m3	uncertainty
9	0.1	0.1
313	4.4	0.1
596	8.6	0.1
842	12.3	0.1
1110	16.6	0.1
1358	20.8	0.1
1602	25	0.1
1810	28.7	0.1
2014	32.7	0.1
2204	36.6	0.1
2401	40.6	0.1
2576	44.4	0.1
2742	48.3	0.1
2905	52.3	0.1
3058	56.2	0.1
3211	60.3	0.1
3358	64.4	0.1
3493	68.4	0.1
3613	72.3	0.1
3752	76.3	0.1
3878	80.7	0.2
3964	84.5	0.2
4056	88.4	0.2
4156	92.4	0.2
4237	96.3	0.2
4354	102.5	0.2
4468	108.5	0.3
4619	120.8	0.3
4747	132.2	0.4
4838	142.5	1.1
4877	152.9	1.2
4905	166.8	1.4
4932	180.1	1.9
4954	190.9	1.9
4982	203.7	1.8
5002	216	1.8
5021	229.7	1.7
5043	241.1	1.7
5101	254	1.4
5146	266.2	1.1
5182	277.5	1.1
5220	288.7	1.1
5267	299.6	1
5324	307.2	0.8
5360	313.4	0.6
5410	319.7	0.6
5474	326	0.5
5549	332.3	0.5
5632	339.4	0.4
5762	346.5	0.4
5914	353.3	0.4
6056	359.2	0.4
6228	365.4	0.4
6441	371.6	0.4
6679	377.7	0.4
6961	383.9	0.4
7276	390	0.4
7639	396.1	0.4
8055	402.1	0.4
8511	408	0.4
9002	413.7	0.5
9557	419.4	0.5
10183	425.2	0.5
10878	431.1	0.5
11648	436.9	0.5
12515	442.7	0.6
13444	448.5	0.6
14452	454.1	0.6
15616	460.1	0.6
16807	465.7	0.7
18163	471.5	0.7
19596	477.1	0.8
20717	481.2	0.8
21739	484.7	0.8
22936	488.7	0.9
24149	492.4	0.9
25434	496.2	0.9
26773	500	1
28220	503.8	1
29831	507.9	1
31352	511.5	1.1
32889	515	1.1
34710	519	1.1
