Measured thermophysical data. Excess Gibbs Energies of the Ternary System 2-Methoxyethanol + Tetrahydrofuran + Cyclohexane and Other Relevant Binaries at 298.15 K
Source: J. Chem. Eng. Data, 2010, 10.1021/je100556t
Compound 1: 2-methoxyethan-1-ol, C3H8O2, InChI=1S/C3H8O2/c1-5-3-2-4/h4H,2-3H2,1H3, purity 99.5%
Compound 2: ethanol, C2H6O, InChI=1S/C2H6O/c1-2-3/h3H,2H2,1H3, purity 99.5%
Compound 3: 2-ethoxyethan-1-ol, C4H10O2, InChI=1S/C4H10O2/c1-2-6-4-3-5/h5H,2-4H2,1H3, purity 99.5%
Compound 4: tetrahydrofuran, C4H8O, InChI=1S/C4H8O/c1-2-4-5-3-1/h1-4H2, purity 99.5%
Compound 5: cyclohexane, C6H12, InChI=1S/C6H12/c1-2-4-6-5-3-1/h1-6H2, purity 99.5%

System: 2-methoxyethan-1-ol; phases: Liquid
Property: Molar volume, m3/mol (Liquid); method: VIBTUB:UFactor:4
Temperature, K	Pressure, kPa	Molar volume, m3/mol	uncertainty
298.15	101.325	7.926e-05	3e-08

System: ethanol; phases: Liquid
Property: Molar volume, m3/mol (Liquid); method: VIBTUB:UFactor:4
Temperature, K	Pressure, kPa	Molar volume, m3/mol	uncertainty
298.15	101.325	5.866e-05	5e-08

System: 2-ethoxyethan-1-ol; phases: Liquid
Property: Molar volume, m3/mol (Liquid); method: VIBTUB:UFactor:4
Temperature, K	Pressure, kPa	Molar volume, m3/mol	uncertainty
298.15	101.325	9.742e-05	4e-08

System: tetrahydrofuran; phases: Liquid
Property: Molar volume, m3/mol (Liquid); method: VIBTUB:UFactor:4
Temperature, K	Pressure, kPa	Molar volume, m3/mol	uncertainty
298.15	101.325	8.174e-05	4e-08

System: cyclohexane; phases: Liquid
Property: Molar volume, m3/mol (Liquid); method: VIBTUB:UFactor:4
Temperature, K	Pressure, kPa	Molar volume, m3/mol	uncertainty
298.15	101.325	0.00010875	9e-08

System: 2-methoxyethan-1-ol + tetrahydrofuran; phases: Gas, Liquid
Fixed: Temperature, K = 298.15
Property: Mole fraction of 2-methoxyethan-1-ol (Gas); method: CHROM:UFactor:8
Mole fraction of 2-methoxyethan-1-ol	Mole fraction of 2-methoxyethan-1-ol	uncertainty
0.0319	0.0043	0.002
0.056	0.0074	0.0021
0.0861	0.011	0.0021
0.1941	0.0229	0.0026
0.3018	0.0336	0.0031
0.4026	0.0437	0.0037
0.4464	0.0493	0.004
0.4923	0.0527	0.0043
0.5917	0.0685	0.0056
0.6874	0.0913	0.0082
0.7994	0.1364	0.0158
0.9066	0.2577	0.0281

System: 2-methoxyethan-1-ol + cyclohexane; phases: Gas, Liquid
Fixed: Temperature, K = 298.15
Property: Mole fraction of 2-methoxyethan-1-ol (Gas); method: CHROM:UFactor:8
Mole fraction of 2-methoxyethan-1-ol	Mole fraction of 2-methoxyethan-1-ol	uncertainty
0.0019	0.0147	0.0092
0.0031	0.0203	0.009
0.004	0.0222	0.0093
0.0044	0.0264	0.0092
0.0076	0.0398	0.0063
0.0134	0.0512	0.0052
0.0146	0.0571	0.0054
0.0281	0.0744	0.0056
0.0408	0.0653	0.0049
0.0695	0.0718	0.0054
0.1062	0.0764	0.0057
0.1791	0.079	0.0059
0.2212	0.0806	0.006
0.288	0.0804	0.006
0.3393	0.0817	0.0061
0.4163	0.0801	0.006
0.4416	0.0824	0.0061
0.501	0.0786	0.0058
0.5143	0.0786	0.007
0.5172	0.0775	0.007
0.6044	0.0857	0.0068
0.6194	0.0887	0.007
0.6984	0.088	0.0065
0.7239	0.0879	0.0066
0.8064	0.0963	0.0076
0.8368	0.1068	0.0097
0.862	0.1145	0.0108
0.908	0.1336	0.0456
0.9144	0.1493	0.0266
0.9248	0.1569	0.0323
0.952	0.2082	0.1027
0.9559	0.229	0.0727
0.9703	0.2779	0.1173
0.9807	0.3807	0.2509
0.9905	0.5395	0.1577

System: ethanol + 2-methoxyethan-1-ol; phases: Gas, Liquid
Fixed: Temperature, K = 298.15
Property: Mole fraction of 2-methoxyethan-1-ol (Gas); method: CHROM:UFactor:8
Mole fraction of 2-methoxyethan-1-ol	Mole fraction of 2-methoxyethan-1-ol	uncertainty
0.0724	0.0159	0.0023
0.11	0.0223	0.0026
0.1278	0.0282	0.0028
0.1787	0.0392	0.0034
0.1842	0.0405	0.0035
0.2694	0.0626	0.0049
0.3015	0.0704	0.0055
0.3682	0.0916	0.0073
0.4251	0.1164	0.0092
0.4542	0.1231	0.0094
0.5711	0.1821	0.015
0.6925	0.2584	0.0219
0.7431	0.3173	0.0303
0.8476	0.4552	0.044
0.9112	0.6015	0.0452
0.9219	0.6215	0.0674
0.9432	0.7044	0.0774

System: 2-ethoxyethan-1-ol + cyclohexane; phases: Gas, Liquid
Fixed: Temperature, K = 298.15
Property: Mole fraction of 2-ethoxyethan-1-ol (Gas); method: CHROM:UFactor:8
Mole fraction of 2-ethoxyethan-1-ol	Mole fraction of 2-ethoxyethan-1-ol	uncertainty
0.0012	0.0031	0.0026
0.0032	0.0061	0.0029
0.0052	0.0085	0.0028
0.0065	0.0096	0.0027
0.0132	0.015	0.0025
0.0288	0.0213	0.0025
0.0464	0.0248	0.0026
0.0891	0.0302	0.0029
0.1355	0.0331	0.003
0.1889	0.0351	0.0031
0.2987	0.0366	0.0032
0.4014	0.0388	0.0033
0.4862	0.0413	0.004
0.4973	0.039	0.0033
0.5114	0.0413	0.0038
0.6036	0.0449	0.0037
0.6584	0.0478	0.0039
0.7668	0.057	0.0048
0.8396	0.0713	0.0071
0.8944	0.0934	0.0207
0.9641	0.2044	0.1497
0.9815	0.3388	0.2685
0.9844	0.3807	0.2484
0.9871	0.4275	0.2532
0.9916	0.52	0.1763

System: 2-methoxyethan-1-ol + tetrahydrofuran + cyclohexane; phases: Gas, Liquid
Fixed: Temperature, K = 298.15
Property: Mole fraction of 2-methoxyethan-1-ol (Gas); method: CHROM:UFactor:8
Mole fraction of 2-methoxyethan-1-ol	Mole fraction of tetrahydrofuran	Mole fraction of 2-methoxyethan-1-ol	uncertainty
0.0013	0.0995	0.0029	0.0029
0.0033	0.0499	0.0108	0.0049
0.0045	0.0992	0.0099	0.0042
0.0045	0.199	0.0055	0.0027
0.0087	0.0496	0.0227	0.0042
0.0101	0.0985	0.0189	0.0035
0.0123	0.2	0.0126	0.0028
0.018	0.0491	0.0359	0.004
0.0194	0.49	0.0075	0.0022
0.0206	0.0975	0.031	0.0032
0.0219	0.181	0.0206	0.0027
0.0253	0.0488	0.043	0.0038
0.0377	0.925	0.006	0.0021
0.0443	0.0951	0.0453	0.0038
0.0446	0.0478	0.0544	0.0044
0.0473	0.476	0.015	0.0023
0.0539	0.0943	0.0471	0.0038
0.0617	0.173	0.0419	0.0036
0.0625	0.329	0.025	0.0027
0.0825	0.733	0.0135	0.0023
0.0864	0.183	0.0433	0.0036
0.091	0.592	0.0204	0.0025
0.0914	0.817	0.0126	0.0022
0.1242	0.438	0.0285	0.0028
0.1305	0.0866	0.0602	0.0046
0.1807	0.655	0.0245	0.0027
0.2142	0.275	0.0456	0.0037
0.2432	0.378	0.0413	0.0035
0.2454	0.0752	0.0675	0.005
0.2553	0.485	0.0392	0.0034
0.2826	0.143	0.0625	0.0047
0.3069	0.554	0.0362	0.0032
0.3539	0.323	0.0503	0.004
0.3549	0.0643	0.0708	0.0053
0.3769	0.218	0.0571	0.0044
0.3772	0.125	0.0673	0.0051
0.4041	0.388	0.0517	0.0041
0.4497	0.0548	0.0726	0.0054
0.4715	0.106	0.0698	0.0052
0.4726	0.264	0.0596	0.0046
0.4898	0.408	0.0556	0.0043
0.5009	0.0497	0.0844	0.0063
0.5877	0.33	0.0663	0.005
0.6042	0.0791	0.0763	0.0057
0.6047	0.198	0.067	0.0052
0.6378	0.0361	0.0897	0.0067
0.682	0.254	0.0838	0.0064
0.7072	0.0586	0.0834	0.0102
0.731	0.135	0.0829	0.0063
0.7898	0.168	0.1158	0.0115
0.8046	0.0195	0.1033	0.0084
0.8183	0.0363	0.1002	0.0101
0.8519	0.0741	0.117	0.0128
0.9002	0.0798	0.2081	0.0348
0.9181	0.0164	0.1519	0.0168
0.9415	0.0293	0.2187	0.0419

System: 2-methoxyethan-1-ol + tetrahydrofuran + cyclohexane; phases: Gas, Liquid
Fixed: Temperature, K = 298.15
Property: Mole fraction of tetrahydrofuran (Gas); method: CHROM:UFactor:8
Mole fraction of 2-methoxyethan-1-ol	Mole fraction of tetrahydrofuran	Mole fraction of tetrahydrofuran	uncertainty
0.0013	0.0995	0.2295	0.0177
0.0033	0.0499	0.1447	0.0116
0.0045	0.0992	0.2206	0.0167
0.0045	0.199	0.3848	0.0291
0.0087	0.0496	0.1358	0.011
0.0101	0.0985	0.2276	0.0173
0.0123	0.2	0.3737	0.028
0.018	0.0491	0.127	0.0103
0.0194	0.49	0.6249	0.0295
0.0206	0.0975	0.2142	0.0164
0.0219	0.181	0.3589	0.0273
0.0253	0.0488	0.1204	0.0097
0.0377	0.925	0.9513	0.0251
0.0443	0.0951	0.1958	0.015
0.0446	0.0478	0.1108	0.009
0.0473	0.476	0.5998	0.0308
0.0539	0.0943	0.1883	0.0145
0.0617	0.173	0.3188	0.0242
0.0625	0.329	0.4741	0.0358
0.0825	0.733	0.8003	0.0243
0.0864	0.183	0.3118	0.0237
0.091	0.592	0.6934	0.027
0.0914	0.817	0.8822	0.0247
0.1242	0.438	0.5537	0.0343
0.1305	0.0866	0.1576	0.0121
0.1807	0.655	0.7668	0.0253
0.2142	0.275	0.3925	0.03
0.2432	0.378	0.496	0.038
0.2454	0.0752	0.1301	0.0101
0.2553	0.485	0.6222	0.0307
0.2826	0.143	0.2301	0.0175
0.3069	0.554	0.7246	0.0271
0.3539	0.323	0.4457	0.0346
0.3549	0.0643	0.1094	0.0087
0.3769	0.218	0.3249	0.0249
0.3772	0.125	0.2018	0.0159
0.4041	0.388	0.5624	0.0347
0.4497	0.0548	0.0921	0.0075
0.4715	0.106	0.1742	0.0133
0.4726	0.264	0.3958	0.0318
0.4898	0.408	0.6624	0.0311
0.5009	0.0497	0.0888	0.0073
0.5877	0.33	0.6272	0.033
0.6042	0.0791	0.1394	0.011
0.6047	0.198	0.3413	0.0279
0.6378	0.0361	0.0691	0.0062
0.682	0.254	0.5903	0.0371
0.7072	0.0586	0.1152	0.0201
0.731	0.135	0.2877	0.0235
0.7898	0.168	0.5268	0.0501
0.8046	0.0195	0.0461	0.0082
0.8183	0.0363	0.0897	0.0092
0.8519	0.0741	0.2303	0.0266
0.9002	0.0798	0.4389	0.0724
0.9181	0.0164	0.0671	0.0154
0.9415	0.0293	0.177	0.0299
