Measured thermophysical data. Activity Coefficients at Infinite Dilution for Hydrocarbons in Fatty Alcohols Determined by Gas-Liquid Chromatography
Source: J. Chem. Eng. Data, 2011, 10.1021/je1005517
Compound 1: pentane, C5H12, InChI=1S/C5H12/c1-3-5-4-2/h3-5H2,1-2H3
Compound 2: 1-octadecanol, C18H38O, InChI=1S/C18H38O/c1-2-3-4-5-6-7-8-9-10-11-12-13-14-15-16-17-18-19/h19H,2-18H2,1H3
Compound 3: hexane, C6H14, InChI=1S/C6H14/c1-3-5-6-4-2/h3-6H2,1-2H3
Compound 4: octane, C8H18, InChI=1S/C8H18/c1-3-5-7-8-6-4-2/h3-8H2,1-2H3
Compound 5: methanol, CH4O, InChI=1S/CH4O/c1-2/h2H,1H3
Compound 6: ethanol, C2H6O, InChI=1S/C2H6O/c1-2-3/h3H,2H2,1H3
Compound 7: propan-1-ol, C3H8O, InChI=1S/C3H8O/c1-2-3-4/h4H,2-3H2,1H3
Compound 8: butan-1-ol, C4H10O, InChI=1S/C4H10O/c1-2-3-4-5/h5H,2-4H2,1H3
Compound 9: dichloromethane, CH2Cl2, InChI=1S/CH2Cl2/c2-1-3/h1H2
Compound 10: 1-chloropropane, C3H7Cl, InChI=1S/C3H7Cl/c1-2-3-4/h2-3H2,1H3
Compound 11: 1-chlorobutane, C4H9Cl, InChI=1S/C4H9Cl/c1-2-3-4-5/h2-4H2,1H3
Compound 12: trichloromethane, CHCl3, InChI=1S/CHCl3/c2-1(3)4/h1H
Compound 13: tetrachloromethane, CCl4, InChI=1S/CCl4/c2-1(3,4)5
Compound 14: acetone, C3H6O, InChI=1S/C3H6O/c1-3(2)4/h1-2H3
Compound 15: tetrahydrofuran, C4H8O, InChI=1S/C4H8O/c1-2-4-5-3-1/h1-4H2
Compound 16: ethyl acetate, C4H8O2, InChI=1S/C4H8O2/c1-3-6-4(2)5/h3H2,1-2H3
Compound 17: butyl ethanoate, C6H12O2, InChI=1S/C6H12O2/c1-3-4-5-8-6(2)7/h3-5H2,1-2H3
Compound 18: acetonitrile, C2H3N, InChI=1S/C2H3N/c1-2-3/h1H3
Compound 19: 1-pentene, C5H10, InChI=1S/C5H10/c1-3-5-4-2/h3H,1,4-5H2,2H3
Compound 20: 1-heptene, C7H14, InChI=1S/C7H14/c1-3-5-7-6-4-2/h3H,1,4-7H2,2H3
Compound 21: cyclohexane, C6H12, InChI=1S/C6H12/c1-2-4-6-5-3-1/h1-6H2
Compound 22: toluene, C7H8, InChI=1S/C7H8/c1-7-5-3-2-4-6-7/h2-6H,1H3
Compound 23: diethyl ether, C4H10O, InChI=1S/C4H10O/c1-3-5-4-2/h3-4H2,1-2H3
Compound 24: 1-eicosanol, C20H42O, InChI=1S/C20H42O/c1-2-3-4-5-6-7-8-9-10-11-12-13-14-15-16-17-18-19-20-21/h21H,2-20H2,1H3

System: pentane + 1-octadecanol; phases: Liquid
Fixed: Pressure, kPa = 101
Fixed: Mole fraction of pentane = 0
Property: Activity coefficient of pentane (Liquid); method: GC
Temperature, K	Activity coefficient of pentane	uncertainty
333.15	0.0292	0.0018
338.15	0.0272	0.0016
343.15	0.0259	0.0016
348.15	0.0243	0.0015
353.15	0.0231	0.0014

System: hexane + 1-octadecanol; phases: Liquid
Fixed: Pressure, kPa = 101
Fixed: Mole fraction of hexane = 0
Property: Activity coefficient of hexane (Liquid); method: GC
Temperature, K	Activity coefficient of hexane	uncertainty
333.15	0.0551	0.0033
338.15	0.0468	0.0028
343.15	0.0411	0.0025
348.15	0.0359	0.0022
353.15	0.0315	0.0019

System: octane + 1-octadecanol; phases: Liquid
Fixed: Pressure, kPa = 101
Fixed: Mole fraction of octane = 0
Property: Activity coefficient of octane (Liquid); method: GC
Temperature, K	Activity coefficient of octane	uncertainty
333.15	0.0513	0.0031
338.15	0.0497	0.003
343.15	0.0485	0.0029
348.15	0.0473	0.0028
353.15	0.0461	0.0028

System: methanol + 1-octadecanol; phases: Liquid
Fixed: Pressure, kPa = 101
Fixed: Mole fraction of methanol = 0
Property: Activity coefficient of methanol (Liquid); method: GC
Temperature, K	Activity coefficient of methanol	uncertainty
333.15	0.0423	0.0025
338.15	0.0386	0.0023
343.15	0.0357	0.0021
348.15	0.033	0.002
353.15	0.0306	0.0018

System: ethanol + 1-octadecanol; phases: Liquid
Fixed: Pressure, kPa = 101.3
Fixed: Mole fraction of ethanol = 0
Property: Activity coefficient of ethanol (Liquid); method: GC
Temperature, K	Activity coefficient of ethanol	uncertainty
333.15	0.0433	0.0026
338.15	0.0396	0.0024
343.15	0.0369	0.0022
348.15	0.0343	0.0021
353.15	0.032	0.002

System: propan-1-ol + 1-octadecanol; phases: Liquid
Fixed: Pressure, kPa = 101.3
Fixed: Mole fraction of propan-1-ol = 0
Property: Activity coefficient of propan-1-ol (Liquid); method: GC
Temperature, K	Activity coefficient of propan-1-ol	uncertainty
333.15	0.0722	0.0043
338.15	0.0625	0.0038
343.15	0.0597	0.0036
348.15	0.055	0.003
353.15	0.051	0.003

System: butan-1-ol + 1-octadecanol; phases: Liquid
Fixed: Pressure, kPa = 101.3
Fixed: Mole fraction of butan-1-ol = 0
Property: Activity coefficient of butan-1-ol (Liquid); method: GC
Temperature, K	Activity coefficient of butan-1-ol	uncertainty
333.15	0.1537	0.0092
338.15	0.136	0.008
343.15	0.1209	0.0073
348.15	0.1101	0.0066
353.15	0.0992	0.006

System: dichloromethane + 1-octadecanol; phases: Liquid
Fixed: Pressure, kPa = 101.3
Fixed: Mole fraction of dichloromethane = 0
Property: Activity coefficient of dichloromethane (Liquid); method: GC
Temperature, K	Activity coefficient of dichloromethane	uncertainty
333.15	0.0262	0.0016
338.15	0.0233	0.0014
343.15	0.0212	0.0013
348.15	0.0194	0.0012
353.15	0.0178	0.0011

System: 1-octadecanol + 1-chloropropane; phases: Liquid
Fixed: Pressure, kPa = 101.3
Fixed: Mole fraction of 1-chloropropane = 0
Property: Activity coefficient of 1-chloropropane (Liquid); method: GC
Temperature, K	Activity coefficient of 1-chloropropane	uncertainty
333.15	0.0331	0.002
338.15	0.0294	0.0018
343.15	0.0269	0.0016
348.15	0.0245	0.0015
353.15	0.0225	0.0014

System: 1-chlorobutane + 1-octadecanol; phases: Liquid
Fixed: Pressure, kPa = 101
Fixed: Mole fraction of 1-chlorobutane = 0
Property: Activity coefficient of 1-chlorobutane (Liquid); method: GC
Temperature, K	Activity coefficient of 1-chlorobutane	uncertainty
333.15	0.0389	0.0023
338.15	0.036	0.0022
343.15	0.0338	0.002
348.15	0.0321	0.0019
353.15	0.03	0.0018

System: trichloromethane + 1-octadecanol; phases: Liquid
Fixed: Pressure, kPa = 101
Fixed: Mole fraction of trichloromethane = 0
Property: Activity coefficient of trichloromethane (Liquid); method: GC
Temperature, K	Activity coefficient of trichloromethane	uncertainty
333.15	0.0227	0.0014
338.15	0.022	0.0013
343.15	0.0214	0.0013
348.15	0.0208	0.0012
353.15	0.0202	0.0012

System: tetrachloromethane + 1-octadecanol; phases: Liquid
Fixed: Pressure, kPa = 101
Fixed: Mole fraction of tetrachloromethane = 0
Property: Activity coefficient of tetrachloromethane (Liquid); method: GC
Temperature, K	Activity coefficient of tetrachloromethane	uncertainty
333.15	0.0288	0.0017
338.15	0.0285	0.0017
343.15	0.0283	0.0017
348.15	0.028	0.0017
353.15	0.0278	0.0017

System: acetone + 1-octadecanol; phases: Liquid
Fixed: Pressure, kPa = 101
Fixed: Mole fraction of acetone = 0
Property: Activity coefficient of acetone (Liquid); method: GC
Temperature, K	Activity coefficient of acetone	uncertainty
333.15	0.0185	0.0011
338.15	0.0179	0.0011
343.15	0.0174	0.001
348.15	0.017	0.001
353.15	0.0166	0.001

System: tetrahydrofuran + 1-octadecanol; phases: Liquid
Fixed: Pressure, kPa = 101
Fixed: Mole fraction of tetrahydrofuran = 0
Property: Activity coefficient of tetrahydrofuran (Liquid); method: GC
Temperature, K	Activity coefficient of tetrahydrofuran	uncertainty
333.15	0.0204	0.0012
338.15	0.0188	0.0011
343.15	0.0177	0.0011
348.15	0.0166	0.001
353.15	0.0156	0.0009

System: 1-octadecanol + ethyl acetate; phases: Liquid
Fixed: Pressure, kPa = 101.3
Fixed: Mole fraction of ethyl acetate = 0
Property: Activity coefficient of ethyl acetate (Liquid); method: GC
Temperature, K	Activity coefficient of ethyl acetate	uncertainty
333.15	0.0445	0.0027
338.15	0.0408	0.0024
343.15	0.0384	0.0023
348.15	0.036	0.0022
353.15	0.0335	0.002

System: 1-octadecanol + butyl ethanoate; phases: Liquid
Fixed: Pressure, kPa = 101.3
Fixed: Mole fraction of butyl ethanoate = 0
Property: Activity coefficient of butyl ethanoate (Liquid); method: GC
Temperature, K	Activity coefficient of butyl ethanoate	uncertainty
333.15	0.0526	0.0032
338.15	0.0468	0.0028
343.15	0.0428	0.0026
348.15	0.0391	0.0023
353.15	0.0358	0.0021

System: acetonitrile + 1-octadecanol; phases: Liquid
Fixed: Pressure, kPa = 101
Fixed: Mole fraction of acetonitrile = 0
Property: Activity coefficient of acetonitrile (Liquid); method: GC
Temperature, K	Activity coefficient of acetonitrile	uncertainty
333.15	0.1076	0.0065
338.15	0.0969	0.0058
343.15	0.0901	0.0054
348.15	0.0832	0.005
353.15	0.0766	0.0046

System: 1-pentene + 1-octadecanol; phases: Liquid
Fixed: Pressure, kPa = 101.3
Fixed: Mole fraction of 1-pentene = 0
Property: Activity coefficient of 1-pentene (Liquid); method: GC
Temperature, K	Activity coefficient of 1-pentene	uncertainty
333.15	0.0261	0.0016
338.15	0.0245	0.0015
343.15	0.0234	0.0014
348.15	0.0222	0.0013
353.15	0.0213	0.0013

System: 1-octadecanol + 1-heptene; phases: Liquid
Fixed: Pressure, kPa = 101.3
Fixed: Mole fraction of 1-heptene = 0
Property: Activity coefficient of 1-heptene (Liquid); method: GC
Temperature, K	Activity coefficient of 1-heptene	uncertainty
333.15	0.0431	0.0026
338.15	0.0417	0.0025
343.15	0.0407	0.0024
348.15	0.0397	0.0024
353.15	0.0388	0.0023

System: cyclohexane + 1-octadecanol; phases: Liquid
Fixed: Pressure, kPa = 101
Fixed: Mole fraction of cyclohexane = 0
Property: Activity coefficient of cyclohexane (Liquid); method: GC
Temperature, K	Activity coefficient of cyclohexane	uncertainty
333.15	0.0365	0.0022
338.15	0.0337	0.002
343.15	0.0315	0.0019
348.15	0.0294	0.0018
353.15	0.0274	0.0016

System: toluene + 1-octadecanol; phases: Liquid
Fixed: Pressure, kPa = 101
Fixed: Mole fraction of toluene = 0
Property: Activity coefficient of toluene (Liquid); method: GC
Temperature, K	Activity coefficient of toluene	uncertainty
333.15	0.0372	0.0022
338.15	0.0355	0.0021
343.15	0.0343	0.0021
348.15	0.0331	0.002
353.15	0.0318	0.0019

System: diethyl ether + 1-octadecanol; phases: Liquid
Fixed: Pressure, kPa = 101
Fixed: Mole fraction of diethyl ether = 0
Property: Activity coefficient of diethyl ether (Liquid); method: GC
Temperature, K	Activity coefficient of diethyl ether	uncertainty
333.15	0.0257	0.0015
338.15	0.0235	0.0014
343.15	0.0219	0.0013
348.15	0.0204	0.0012
353.15	0.019	0.001

System: pentane + 1-eicosanol; phases: Liquid
Fixed: Pressure, kPa = 101
Fixed: Mole fraction of pentane = 0
Property: Activity coefficient of pentane (Liquid); method: GC
Temperature, K	Activity coefficient of pentane	uncertainty
338.15	0.0954	0.0057
343.15	0.0801	0.0048
348.15	0.0668	0.004
353.15	0.0564	0.0034

System: hexane + 1-eicosanol; phases: Liquid
Fixed: Pressure, kPa = 101
Fixed: Mole fraction of hexane = 0
Property: Activity coefficient of hexane (Liquid); method: GC
Temperature, K	Activity coefficient of hexane	uncertainty
338.15	0.1288	0.0077
343.15	0.1239	0.0074
348.15	0.1193	0.0072
353.15	0.1148	0.0069

System: octane + 1-eicosanol; phases: Liquid
Fixed: Pressure, kPa = 101
Fixed: Mole fraction of octane = 0
Property: Activity coefficient of octane (Liquid); method: GC
Temperature, K	Activity coefficient of octane	uncertainty
338.15	0.187	0.0112
343.15	0.1606	0.0096
348.15	0.1381	0.0083
353.15	0.1204	0.0072

System: methanol + 1-eicosanol; phases: Liquid
Fixed: Pressure, kPa = 101
Fixed: Mole fraction of methanol = 0
Property: Activity coefficient of methanol (Liquid); method: GC
Temperature, K	Activity coefficient of methanol	uncertainty
338.15	0.1219	0.0073
343.15	0.0967	0.0058
348.15	0.0737	0.0044
353.15	0.0574	0.0034

System: ethanol + 1-eicosanol; phases: Liquid
Fixed: Pressure, kPa = 101
Fixed: Mole fraction of ethanol = 0
Property: Activity coefficient of ethanol (Liquid); method: GC
Temperature, K	Activity coefficient of ethanol	uncertainty
338.15	0.1244	0.0075
343.15	0.1174	0.007
348.15	0.1056	0.0063
353.15	0.095	0.0057

System: propan-1-ol + 1-eicosanol; phases: Liquid
Fixed: Pressure, kPa = 101
Fixed: Mole fraction of propan-1-ol = 0
Property: Activity coefficient of propan-1-ol (Liquid); method: GC
Temperature, K	Activity coefficient of propan-1-ol	uncertainty
338.15	0.2131	0.0128
343.15	0.193	0.0116
348.15	0.1751	0.0105
353.15	0.1586	0.0095

System: butan-1-ol + 1-eicosanol; phases: Liquid
Fixed: Pressure, kPa = 101
Fixed: Mole fraction of butan-1-ol = 0
Property: Activity coefficient of butan-1-ol (Liquid); method: GC
Temperature, K	Activity coefficient of butan-1-ol	uncertainty
338.15	0.431	0.0259
343.15	0.3868	0.0232
348.15	0.3521	0.0211
353.15	0.3162	0.019

System: dichloromethane + 1-eicosanol; phases: Liquid
Fixed: Pressure, kPa = 101
Fixed: Mole fraction of dichloromethane = 0
Property: Activity coefficient of dichloromethane (Liquid); method: GC
Temperature, K	Activity coefficient of dichloromethane	uncertainty
338.15	0.079	0.0047
343.15	0.0642	0.0039
348.15	0.0532	0.0032
353.15	0.0435	0.0026

System: 1-chloropropane + 1-eicosanol; phases: Liquid
Fixed: Pressure, kPa = 101
Fixed: Mole fraction of 1-chloropropane = 0
Property: Activity coefficient of 1-chloropropane (Liquid); method: GC
Temperature, K	Activity coefficient of 1-chloropropane	uncertainty
338.15	0.0779	0.0047
343.15	0.0778	0.0047
348.15	0.0778	0.0047
353.15	0.0777	0.0047

System: 1-chlorobutane + 1-eicosanol; phases: Liquid
Fixed: Pressure, kPa = 101
Fixed: Mole fraction of 1-chlorobutane = 0
Property: Activity coefficient of 1-chlorobutane (Liquid); method: GC
Temperature, K	Activity coefficient of 1-chlorobutane	uncertainty
338.15	0.0991	0.0059
343.15	0.0954	0.0057
348.15	0.0919	0.0055
353.15	0.0886	0.0053

System: trichloromethane + 1-eicosanol; phases: Liquid
Fixed: Pressure, kPa = 101
Fixed: Mole fraction of trichloromethane = 0
Property: Activity coefficient of trichloromethane (Liquid); method: GC
Temperature, K	Activity coefficient of trichloromethane	uncertainty
338.15	0.0632	0.0038
343.15	0.0622	0.0037
348.15	0.0612	0.0037
353.15	0.0604	0.0036

System: tetrachloromethane + 1-eicosanol; phases: Liquid
Fixed: Pressure, kPa = 101
Fixed: Mole fraction of tetrachloromethane = 0
Property: Activity coefficient of tetrachloromethane (Liquid); method: GC
Temperature, K	Activity coefficient of tetrachloromethane	uncertainty
338.15	0.0862	0.0052
343.15	0.081	0.0049
348.15	0.076	0.0046
353.15	0.0714	0.0043

System: acetone + 1-eicosanol; phases: Liquid
Fixed: Pressure, kPa = 101
Fixed: Mole fraction of acetone = 0
Property: Activity coefficient of acetone (Liquid); method: GC
Temperature, K	Activity coefficient of acetone	uncertainty
338.15	0.0557	0.0033
343.15	0.0572	0.0034
348.15	0.0587	0.0035
353.15	0.0602	0.0036

System: tetrahydrofuran + 1-eicosanol; phases: Liquid
Fixed: Pressure, kPa = 101
Fixed: Mole fraction of tetrahydrofuran = 0
Property: Activity coefficient of tetrahydrofuran (Liquid); method: GC
Temperature, K	Activity coefficient of tetrahydrofuran	uncertainty
338.15	0.0581	0.0035
343.15	0.0543	0.0033
348.15	0.0506	0.003
353.15	0.0471	0.0028

System: ethyl acetate + 1-eicosanol; phases: Liquid
Fixed: Pressure, kPa = 101
Fixed: Mole fraction of ethyl acetate = 0
Property: Activity coefficient of ethyl acetate (Liquid); method: GC
Temperature, K	Activity coefficient of ethyl acetate	uncertainty
338.15	0.1233	0.0074
343.15	0.1104	0.0066
348.15	0.099	0.0059
353.15	0.0888	0.0053

System: butyl ethanoate + 1-eicosanol; phases: Liquid
Fixed: Pressure, kPa = 101
Fixed: Mole fraction of butyl ethanoate = 0
Property: Activity coefficient of butyl ethanoate (Liquid); method: GC
Temperature, K	Activity coefficient of butyl ethanoate	uncertainty
338.15	0.14	0.0084
343.15	0.1312	0.0079
348.15	0.1229	0.0074
353.15	0.1152	0.0069

System: acetonitrile + 1-eicosanol; phases: Liquid
Fixed: Pressure, kPa = 101
Fixed: Mole fraction of acetonitrile = 0
Property: Activity coefficient of acetonitrile (Liquid); method: GC
Temperature, K	Activity coefficient of acetonitrile	uncertainty
338.15	0.3093	0.0186
343.15	0.2647	0.0159
348.15	0.2288	0.0137
353.15	0.1972	0.0118

System: 1-pentene + 1-eicosanol; phases: Liquid
Fixed: Pressure, kPa = 101
Fixed: Mole fraction of 1-pentene = 0
Property: Activity coefficient of 1-pentene (Liquid); method: GC
Temperature, K	Activity coefficient of 1-pentene	uncertainty
338.15	0.0813	0.0049
343.15	0.0742	0.0045
348.15	0.0664	0.004
353.15	0.06	0.0036

System: 1-heptene + 1-eicosanol; phases: Liquid
Fixed: Pressure, kPa = 101
Fixed: Mole fraction of 1-heptene = 0
Property: Activity coefficient of 1-heptene (Liquid); method: GC
Temperature, K	Activity coefficient of 1-heptene	uncertainty
338.15	0.1237	0.0074
343.15	0.1181	0.0071
348.15	0.1126	0.0068
353.15	0.1076	0.0065

System: cyclohexane + 1-eicosanol; phases: Liquid
Fixed: Pressure, kPa = 101
Fixed: Mole fraction of cyclohexane = 0
Property: Activity coefficient of cyclohexane (Liquid); method: GC
Temperature, K	Activity coefficient of cyclohexane	uncertainty
338.15	0.108	0.0065
343.15	0.1022	0.0061
348.15	0.0969	0.0058
353.15	0.0918	0.0055

System: toluene + 1-eicosanol; phases: Liquid
Fixed: Pressure, kPa = 101
Fixed: Mole fraction of toluene = 0
Property: Activity coefficient of toluene (Liquid); method: GC
Temperature, K	Activity coefficient of toluene	uncertainty
338.15	0.5437	0.0326
343.15	0.4793	0.0288
348.15	0.4207	0.0252
353.15	0.3731	0.0224

System: diethyl ether + 1-eicosanol; phases: Liquid
Fixed: Pressure, kPa = 101
Fixed: Mole fraction of diethyl ether = 0
Property: Activity coefficient of diethyl ether (Liquid); method: GC
Temperature, K	Activity coefficient of diethyl ether	uncertainty
338.15	0.0652	0.0039
343.15	0.0624	0.0037
348.15	0.0598	0.0036
353.15	0.0572	0.0034
