Measured thermophysical data. Effect of Headgroup Size on the Thermodynamic Properties of Micellization of Dodecyltrialkylammonium Bromides
Source: J. Chem. Eng. Data, 2011, 10.1021/je100598x
Compound 1: dodecyltrimethylammonium bromide, C15H34BrN, InChI=1S/C15H34N.BrH/c1-5-6-7-8-9-10-11-12-13-14-15-16(2,3)4;/h5-15H2,1-4H3;1H/q+1;/p-1
Compound 2: dodecyltriethylammonium bromide, C18H40BrN, InChI=1S/C18H40N.BrH/c1-5-9-10-11-12-13-14-15-16-17-18-19(6-2,7-3)8-4;/h5-18H2,1-4H3;1H/q+1;/p-1
Compound 3: dodecyltripropylammonium bromide, C21H46BrN, InChI=1S/C21H46N.BrH/c1-5-9-10-11-12-13-14-15-16-17-21-22(18-6-2,19-7-3)20-8-4;/h5-21H2,1-4H3;1H/q+1;/p-1
Compound 4: dodecyltributylammonium bromide, C24H52BrN, InChI=1S/C24H52N.BrH/c1-5-9-13-14-15-16-17-18-19-20-24-25(21-10-6-2,22-11-7-3)23-12-8-4;/h5-24H2,1-4H3;1H/q+1;/p-1
Compound 5: water, H2O, InChI=1S/H2O/h1H2

System: dodecyltrimethylammonium bromide + water; phases: Liquid
Fixed: Pressure, kPa = 101
Property: Electrical conductivity, S/m (Liquid); method: Direct current cell with electrodes
Temperature, K	Amount concentration (molarity), mol/dm3 of dodecyltrimethylammonium bromide	Electrical conductivity, S/m	uncertainty
288.15	0.001961	0.01571	0.00016
288.15	0.003846	0.0294	0.0003
288.15	0.00566	0.0421	0.0004
288.15	0.007407	0.0542	0.0005
288.15	0.009091	0.0654	0.0007
288.15	0.01071	0.0762	0.0008
288.15	0.01228	0.0863	0.0009
288.15	0.01379	0.0954	0.001
288.15	0.01525	0.105	0.0011
288.15	0.01667	0.1103	0.0011
288.15	0.01758	0.1125	0.0011
288.15	0.01848	0.1143	0.0011
288.15	0.01936	0.116	0.0012
288.15	0.02021	0.1175	0.0012
288.15	0.02105	0.1189	0.0012
288.15	0.02188	0.1203	0.0012
288.15	0.02268	0.1216	0.0012
288.15	0.02347	0.1229	0.0012
288.15	0.02424	0.1242	0.0012
288.15	0.025	0.1255	0.0013
288.15	0.02611	0.1274	0.0013
288.15	0.02718	0.1292	0.0013
288.15	0.02823	0.131	0.0013
288.15	0.02925	0.1327	0.0013
288.15	0.03023	0.1344	0.0013
293.15	0.001961	0.01754	0.00018
293.15	0.003846	0.0332	0.0003
293.15	0.00566	0.0478	0.0005
293.15	0.007407	0.0614	0.0006
293.15	0.009091	0.0743	0.0007
293.15	0.01071	0.0865	0.0009
293.15	0.01228	0.098	0.001
293.15	0.01379	0.1089	0.0011
293.15	0.01525	0.1193	0.0012
293.15	0.01667	0.1251	0.0013
293.15	0.01758	0.1275	0.0013
293.15	0.01848	0.1296	0.0013
293.15	0.01936	0.1315	0.0013
293.15	0.02021	0.1332	0.0013
293.15	0.02105	0.1349	0.0014
293.15	0.02188	0.1366	0.0014
293.15	0.02268	0.1381	0.0014
293.15	0.02347	0.1396	0.0014
293.15	0.02424	0.1411	0.0014
293.15	0.025	0.1425	0.0014
293.15	0.02611	0.1448	0.0015
293.15	0.02718	0.1469	0.0015
293.15	0.02823	0.1489	0.0015
293.15	0.02925	0.151	0.0015
293.15	0.03023	0.1529	0.0015
298.15	0.001961	0.01964	0.0002
298.15	0.003846	0.0372	0.0004
298.15	0.00566	0.0533	0.0005
298.15	0.007407	0.0689	0.0007
298.15	0.009091	0.0833	0.0008
298.15	0.01071	0.0964	0.001
298.15	0.01228	0.1099	0.0011
298.15	0.01379	0.1222	0.0012
298.15	0.01525	0.1337	0.0013
298.15	0.01667	0.1405	0.0014
298.15	0.01758	0.1433	0.0014
298.15	0.01848	0.1458	0.0015
298.15	0.01936	0.1479	0.0015
298.15	0.02021	0.1501	0.0015
298.15	0.02105	0.1521	0.0015
298.15	0.02188	0.154	0.0015
298.15	0.02268	0.1558	0.0016
298.15	0.02347	0.1576	0.0016
298.15	0.02424	0.1593	0.0016
298.15	0.025	0.161	0.0016
298.15	0.02611	0.1636	0.0016
298.15	0.02718	0.1661	0.0017
298.15	0.02823	0.1686	0.0017
298.15	0.02925	0.171	0.0017
298.15	0.03023	0.1733	0.0017
303.15	0.001961	0.0218	0.0002
303.15	0.003846	0.0411	0.0004
303.15	0.00566	0.0592	0.0006
303.15	0.007407	0.0762	0.0008
303.15	0.009091	0.0921	0.0009
303.15	0.01071	0.1075	0.0011
303.15	0.01228	0.1218	0.0012
303.15	0.01379	0.1356	0.0014
303.15	0.01525	0.1485	0.0015
303.15	0.01667	0.1569	0.0016
303.15	0.01758	0.1605	0.0016
303.15	0.01848	0.1634	0.0016
303.15	0.01936	0.1661	0.0017
303.15	0.02021	0.168	0.0017
303.15	0.02105	0.17	0.0017
303.15	0.02188	0.172	0.0017
303.15	0.02268	0.1741	0.0017
303.15	0.02347	0.1764	0.0018
303.15	0.02424	0.1783	0.0018
303.15	0.025	0.1805	0.0018
303.15	0.02611	0.1831	0.0018
303.15	0.02718	0.1858	0.0019
303.15	0.02823	0.1885	0.0019
303.15	0.02925	0.1912	0.0019
303.15	0.03023	0.1937	0.0019
308.15	0.001961	0.0238	0.0002
308.15	0.003846	0.045	0.0005
308.15	0.00566	0.0647	0.0006
308.15	0.007407	0.0833	0.0008
308.15	0.009091	0.1007	0.001
308.15	0.01071	0.1172	0.0012
308.15	0.01228	0.1328	0.0013
308.15	0.01379	0.1478	0.0015
308.15	0.01525	0.162	0.0016
308.15	0.01667	0.1727	0.0017
308.15	0.01758	0.1771	0.0018
308.15	0.01848	0.1807	0.0018
308.15	0.01936	0.1837	0.0018
308.15	0.02021	0.1867	0.0019
308.15	0.02105	0.1895	0.0019
308.15	0.02188	0.1922	0.0019
308.15	0.02268	0.1951	0.002
308.15	0.02347	0.1977	0.002
308.15	0.02424	0.2	0.002
308.15	0.025	0.203	0.002
308.15	0.02611	0.206	0.0021
308.15	0.02718	0.21	0.0021
308.15	0.02823	0.213	0.0021
308.15	0.02925	0.217	0.0022
308.15	0.03023	0.22	0.0022
313.15	0.001961	0.0261	0.0003
313.15	0.003846	0.0494	0.0005
313.15	0.00566	0.0711	0.0007
313.15	0.007407	0.0914	0.0009
313.15	0.009091	0.1109	0.0011
313.15	0.01071	0.1289	0.0013
313.15	0.01228	0.1463	0.0015
313.15	0.01379	0.1623	0.0016
313.15	0.01525	0.1776	0.0018
313.15	0.01667	0.1907	0.0019
313.15	0.01758	0.1965	0.002
313.15	0.01848	0.201	0.002
313.15	0.01936	0.205	0.0021
313.15	0.02021	0.209	0.0021
313.15	0.02105	0.212	0.0021
313.15	0.02188	0.215	0.0022
313.15	0.02268	0.218	0.0022
313.15	0.02347	0.22	0.0022
313.15	0.02424	0.223	0.0022
313.15	0.025	0.226	0.0023
313.15	0.02611	0.23	0.0023
313.15	0.02718	0.234	0.0023
313.15	0.02823	0.238	0.0024
313.15	0.02925	0.242	0.0024
313.15	0.03023	0.246	0.0025
318.15	0.001961	0.0279	0.0003
318.15	0.003846	0.0531	0.0005
318.15	0.00566	0.076	0.0008
318.15	0.007407	0.0969	0.001
318.15	0.009091	0.1194	0.0012
318.15	0.01071	0.1391	0.0014
318.15	0.01228	0.1576	0.0016
318.15	0.01379	0.1752	0.0018
318.15	0.01525	0.1919	0.0019
318.15	0.01667	0.206	0.0021
318.15	0.01758	0.215	0.0022
318.15	0.01848	0.222	0.0022
318.15	0.01936	0.226	0.0023
318.15	0.02021	0.23	0.0023
318.15	0.02105	0.234	0.0023
318.15	0.02188	0.238	0.0024
318.15	0.02268	0.242	0.0024
318.15	0.02347	0.246	0.0025
318.15	0.02424	0.249	0.0025
318.15	0.025	0.252	0.0025
318.15	0.02611	0.258	0.0026
318.15	0.02718	0.263	0.0026
318.15	0.02823	0.268	0.0027
318.15	0.02925	0.272	0.0027
318.15	0.03023	0.277	0.0028

System: water + dodecyltriethylammonium bromide; phases: Liquid
Fixed: Pressure, kPa = 101
Property: Electrical conductivity, S/m (Liquid); method: Direct current cell with electrodes
Temperature, K	Amount concentration (molarity), mol/dm3 of dodecyltriethylammonium bromide	Electrical conductivity, S/m	uncertainty
288.15	0.001316	0.01052	0.00011
288.15	0.002597	0.02	0.0002
288.15	0.003846	0.0289	0.0003
288.15	0.005063	0.0374	0.0004
288.15	0.00625	0.0456	0.0005
288.15	0.007407	0.053	0.0005
288.15	0.008536	0.0609	0.0006
288.15	0.009638	0.0681	0.0007
288.15	0.01071	0.0751	0.0008
288.15	0.01177	0.0818	0.0008
288.15	0.01279	0.0884	0.0009
288.15	0.01379	0.0946	0.0009
288.15	0.01477	0.0997	0.001
288.15	0.01573	0.1033	0.001
288.15	0.01667	0.106	0.0011
288.15	0.01758	0.1084	0.0011
288.15	0.01848	0.1105	0.0011
288.15	0.01936	0.1125	0.0011
288.15	0.02021	0.1144	0.0011
288.15	0.02105	0.1163	0.0012
288.15	0.02188	0.118	0.0012
288.15	0.02268	0.1198	0.0012
288.15	0.02347	0.1215	0.0012
288.15	0.02424	0.1231	0.0012
288.15	0.025	0.1248	0.0013
293.15	0.001316	0.01189	0.00012
293.15	0.002597	0.0226	0.0002
293.15	0.003846	0.0327	0.0003
293.15	0.005063	0.0423	0.0004
293.15	0.00625	0.0516	0.0005
293.15	0.007407	0.0604	0.0006
293.15	0.008536	0.0689	0.0007
293.15	0.009638	0.077	0.0008
293.15	0.01071	0.085	0.0009
293.15	0.01177	0.0926	0.0009
293.15	0.01279	0.1	0.001
293.15	0.01379	0.1068	0.0011
293.15	0.01477	0.1119	0.0011
293.15	0.01573	0.1154	0.0012
293.15	0.01667	0.1184	0.0012
293.15	0.01758	0.121	0.0012
293.15	0.01848	0.1235	0.0012
293.15	0.01936	0.126	0.0013
293.15	0.02021	0.1282	0.0013
293.15	0.02105	0.1303	0.0013
293.15	0.02188	0.1324	0.0013
293.15	0.02268	0.1344	0.0013
293.15	0.02347	0.1364	0.0014
293.15	0.02424	0.1383	0.0014
293.15	0.025	0.1403	0.0014
298.15	0.001316	0.0132	0.0001
298.15	0.002597	0.0252	0.0003
298.15	0.003846	0.0365	0.0004
298.15	0.005063	0.0473	0.0005
298.15	0.00625	0.0576	0.0006
298.15	0.007407	0.0676	0.0007
298.15	0.008536	0.0771	0.0008
298.15	0.009638	0.0862	0.0009
298.15	0.01071	0.095	0.001
298.15	0.01177	0.1035	0.001
298.15	0.01279	0.1116	0.0011
298.15	0.01379	0.119	0.0012
298.15	0.01477	0.1243	0.0012
298.15	0.01573	0.1281	0.0013
298.15	0.01667	0.1315	0.0013
298.15	0.01758	0.1345	0.0013
298.15	0.01848	0.1373	0.0014
298.15	0.01936	0.1401	0.0014
298.15	0.02021	0.1427	0.0014
298.15	0.02105	0.1451	0.0015
298.15	0.02188	0.1476	0.0015
298.15	0.02268	0.15	0.0015
298.15	0.02347	0.1524	0.0015
298.15	0.02424	0.1546	0.0015
298.15	0.025	0.1567	0.0016
303.15	0.001316	0.01464	0.00015
303.15	0.002597	0.028	0.0003
303.15	0.003846	0.0406	0.0004
303.15	0.005063	0.0526	0.0005
303.15	0.00625	0.0641	0.0006
303.15	0.007407	0.0752	0.0008
303.15	0.008536	0.0859	0.0009
303.15	0.009638	0.0962	0.001
303.15	0.01071	0.106	0.0011
303.15	0.01177	0.1154	0.0012
303.15	0.01279	0.1245	0.0012
303.15	0.01379	0.1325	0.0013
303.15	0.01477	0.1382	0.0014
303.15	0.01573	0.1426	0.0014
303.15	0.01667	0.1463	0.0015
303.15	0.01758	0.1498	0.0015
303.15	0.01848	0.1528	0.0015
303.15	0.01936	0.1559	0.0016
303.15	0.02021	0.1587	0.0016
303.15	0.02105	0.1616	0.0016
303.15	0.02188	0.1645	0.0016
303.15	0.02268	0.1671	0.0017
303.15	0.02347	0.1698	0.0017
303.15	0.02424	0.1723	0.0017
303.15	0.025	0.1748	0.0018
308.15	0.001316	0.01605	0.00016
308.15	0.002597	0.0306	0.0003
308.15	0.003846	0.0443	0.0004
308.15	0.005063	0.0573	0.0006
308.15	0.00625	0.0698	0.0007
308.15	0.007407	0.0819	0.0008
308.15	0.008536	0.0934	0.0009
308.15	0.009638	0.1047	0.001
308.15	0.01071	0.1156	0.0012
308.15	0.01177	0.1259	0.0013
308.15	0.01279	0.1358	0.0014
308.15	0.01379	0.1445	0.0014
308.15	0.01477	0.1513	0.0015
308.15	0.01573	0.1563	0.0016
308.15	0.01667	0.1607	0.0016
308.15	0.01758	0.1649	0.0017
308.15	0.01848	0.1685	0.0017
308.15	0.01936	0.1721	0.0017
308.15	0.02021	0.1755	0.0018
308.15	0.02105	0.1788	0.0018
308.15	0.02188	0.1821	0.0018
308.15	0.02268	0.1853	0.0019
308.15	0.02347	0.1887	0.0019
308.15	0.02424	0.1916	0.0019
308.15	0.025	0.1946	0.0019
313.15	0.001316	0.01759	0.00018
313.15	0.002597	0.0335	0.0003
313.15	0.003846	0.0486	0.0005
313.15	0.005063	0.0631	0.0006
313.15	0.00625	0.0768	0.0008
313.15	0.007407	0.09	0.0009
313.15	0.008536	0.1028	0.001
313.15	0.009638	0.1151	0.0012
313.15	0.01071	0.127	0.0013
313.15	0.01177	0.1385	0.0014
313.15	0.01279	0.1494	0.0015
313.15	0.01379	0.1592	0.0016
313.15	0.01477	0.1668	0.0017
313.15	0.01573	0.1726	0.0017
313.15	0.01667	0.1776	0.0018
313.15	0.01758	0.1821	0.0018
313.15	0.01848	0.1865	0.0019
313.15	0.01936	0.1911	0.0019
313.15	0.02021	0.1949	0.002
313.15	0.02105	0.1986	0.002
313.15	0.02188	0.202	0.002
313.15	0.02268	0.206	0.0021
313.15	0.02347	0.209	0.0021
313.15	0.02424	0.213	0.0021
313.15	0.025	0.216	0.0022
318.15	0.001316	0.01896	0.00019
318.15	0.002597	0.0363	0.0004
318.15	0.003846	0.0526	0.0005
318.15	0.005063	0.0682	0.0007
318.15	0.00625	0.0831	0.0008
318.15	0.007407	0.0976	0.001
318.15	0.008536	0.1114	0.0011
318.15	0.009638	0.1247	0.0012
318.15	0.01071	0.1374	0.0014
318.15	0.01177	0.1498	0.0015
318.15	0.01279	0.1607	0.0016
318.15	0.01379	0.173	0.0017
318.15	0.01477	0.1822	0.0018
318.15	0.01573	0.1893	0.0019
318.15	0.01667	0.1955	0.002
318.15	0.01758	0.2	0.002
318.15	0.01848	0.206	0.0021
318.15	0.01936	0.211	0.0021
318.15	0.02021	0.215	0.0022
318.15	0.02105	0.22	0.0022
318.15	0.02188	0.224	0.0022
318.15	0.02268	0.228	0.0023
318.15	0.02347	0.232	0.0023
318.15	0.02424	0.236	0.0024
318.15	0.025	0.24	0.0024

System: water + dodecyltripropylammonium bromide; phases: Liquid
Fixed: Pressure, kPa = 101
Property: Electrical conductivity, S/m (Liquid); method: Direct current cell with electrodes
Temperature, K	Amount concentration (molarity), mol/dm3 of dodecyltripropylammonium bromide	Electrical conductivity, S/m	uncertainty
288.15	0.001055	0.008186	8.2e-05
288.15	0.002089	0.0153	0.0002
288.15	0.003101	0.0222	0.0002
288.15	0.004092	0.0285	0.0003
288.15	0.005063	0.0346	0.0004
288.15	0.006015	0.0405	0.0004
288.15	0.006948	0.0461	0.0005
288.15	0.007862	0.0516	0.0005
288.15	0.008759	0.0566	0.0006
288.15	0.009639	0.0619	0.0006
288.15	0.0105	0.0661	0.0007
288.15	0.01135	0.0702	0.0007
288.15	0.01218	0.0731	0.0007
288.15	0.01319	0.0759	0.0008
288.15	0.01419	0.0783	0.0008
288.15	0.01516	0.0806	0.0008
288.15	0.01657	0.0837	0.0008
288.15	0.01794	0.0866	0.0009
288.15	0.01927	0.0895	0.0009
288.15	0.02055	0.0921	0.0009
288.15	0.02179	0.0947	0.0009
288.15	0.023	0.0973	0.001
288.15	0.02417	0.0996	0.001
293.15	0.001055	0.009086	9.1e-05
293.15	0.002089	0.01734	0.00017
293.15	0.003101	0.025	0.0003
293.15	0.004092	0.0326	0.0003
293.15	0.005063	0.0398	0.0004
293.15	0.006015	0.0467	0.0005
293.15	0.006948	0.0533	0.0005
293.15	0.007862	0.0594	0.0006
293.15	0.008759	0.0658	0.0007
293.15	0.009639	0.0714	0.0007
293.15	0.0105	0.0761	0.0008
293.15	0.01135	0.0797	0.0008
293.15	0.01218	0.0825	0.0008
293.15	0.01319	0.0851	0.0009
293.15	0.01419	0.0883	0.0009
293.15	0.01516	0.0906	0.0009
293.15	0.01657	0.0942	0.0009
293.15	0.01794	0.0976	0.001
293.15	0.01927	0.1009	0.001
293.15	0.02055	0.1041	0.001
293.15	0.02179	0.1072	0.0011
293.15	0.023	0.1101	0.0011
293.15	0.02417	0.113	0.0011
298.15	0.001055	0.01006	0.0001
298.15	0.002089	0.01942	0.00019
298.15	0.003101	0.0282	0.0003
298.15	0.004092	0.0367	0.0004
298.15	0.005063	0.0448	0.0005
298.15	0.006015	0.0527	0.0005
298.15	0.006948	0.0599	0.0006
298.15	0.007862	0.0674	0.0007
298.15	0.008759	0.0743	0.0007
298.15	0.009639	0.0804	0.0008
298.15	0.0105	0.0846	0.0008
298.15	0.01135	0.0883	0.0009
298.15	0.01218	0.0919	0.0009
298.15	0.01319	0.0953	0.001
298.15	0.01419	0.0985	0.001
298.15	0.01516	0.1015	0.001
298.15	0.01657	0.1058	0.0011
298.15	0.01794	0.1099	0.0011
298.15	0.01927	0.1137	0.0011
298.15	0.02055	0.1174	0.0012
298.15	0.02179	0.1211	0.0012
298.15	0.023	0.1245	0.0012
298.15	0.02417	0.1278	0.0013
303.15	0.001055	0.01131	0.00011
303.15	0.002089	0.0217	0.0002
303.15	0.003101	0.0316	0.0003
303.15	0.004092	0.041	0.0004
303.15	0.005063	0.0501	0.0005
303.15	0.006015	0.059	0.0006
303.15	0.006948	0.0675	0.0007
303.15	0.007862	0.0757	0.0008
303.15	0.008759	0.0832	0.0008
303.15	0.009639	0.0896	0.0009
303.15	0.0105	0.0945	0.0009
303.15	0.01135	0.0984	0.001
303.15	0.01218	0.1018	0.001
303.15	0.01319	0.1056	0.0011
303.15	0.01419	0.1093	0.0011
303.15	0.01516	0.1128	0.0011
303.15	0.01657	0.1177	0.0012
303.15	0.01794	0.1224	0.0012
303.15	0.01927	0.1268	0.0013
303.15	0.02055	0.1312	0.0013
303.15	0.02179	0.1353	0.0014
303.15	0.023	0.1392	0.0014
303.15	0.02417	0.1433	0.0014
308.15	0.001055	0.01244	0.00012
308.15	0.002089	0.0238	0.0002
308.15	0.003101	0.0345	0.0003
308.15	0.004092	0.0449	0.0005
308.15	0.005063	0.0546	0.0005
308.15	0.006015	0.0643	0.0006
308.15	0.006948	0.0741	0.0007
308.15	0.007862	0.083	0.0008
308.15	0.008759	0.0913	0.0009
308.15	0.009639	0.0982	0.001
308.15	0.0105	0.1035	0.001
308.15	0.01135	0.1079	0.0011
308.15	0.01218	0.1117	0.0011
308.15	0.01319	0.1161	0.0012
308.15	0.01419	0.1203	0.0012
308.15	0.01516	0.1242	0.0012
308.15	0.01657	0.1299	0.0013
308.15	0.01794	0.1352	0.0014
308.15	0.01927	0.1404	0.0014
308.15	0.02055	0.1451	0.0015
308.15	0.02179	0.15	0.0015
308.15	0.023	0.1545	0.0015
308.15	0.02417	0.1589	0.0016
313.15	0.001055	0.01366	0.00014
313.15	0.002089	0.0261	0.0003
313.15	0.003101	0.038	0.0004
313.15	0.004092	0.0496	0.0005
313.15	0.005063	0.0605	0.0006
313.15	0.006015	0.0712	0.0007
313.15	0.006948	0.0816	0.0008
313.15	0.007862	0.0912	0.0009
313.15	0.008759	0.1001	0.001
313.15	0.009639	0.1076	0.0011
313.15	0.0105	0.1136	0.0011
313.15	0.01135	0.1185	0.0012
313.15	0.01218	0.1228	0.0012
313.15	0.01319	0.1278	0.0013
313.15	0.01419	0.1325	0.0013
313.15	0.01516	0.137	0.0014
313.15	0.01657	0.1433	0.0014
313.15	0.01794	0.1495	0.0015
313.15	0.01927	0.1553	0.0016
313.15	0.02055	0.161	0.0016
313.15	0.02179	0.1662	0.0017
313.15	0.023	0.1709	0.0017
313.15	0.02417	0.1753	0.0018
318.15	0.001055	0.01475	0.00015
318.15	0.002089	0.0282	0.0003
318.15	0.003101	0.0412	0.0004
318.15	0.004092	0.0538	0.0005
318.15	0.005063	0.0657	0.0007
318.15	0.006015	0.0774	0.0008
318.15	0.006948	0.0886	0.0009
318.15	0.007862	0.0991	0.001
318.15	0.008759	0.1089	0.0011
318.15	0.009639	0.1173	0.0012
318.15	0.0105	0.1242	0.0012
318.15	0.01135	0.1298	0.0013
318.15	0.01218	0.1348	0.0013
318.15	0.01319	0.1405	0.0014
318.15	0.01419	0.1461	0.0015
318.15	0.01516	0.1512	0.0015
318.15	0.01657	0.1573	0.0016
318.15	0.01794	0.1653	0.0017
318.15	0.01927	0.1719	0.0017
318.15	0.02055	0.1782	0.0018
318.15	0.02179	0.1843	0.0018
318.15	0.023	0.1906	0.0019
318.15	0.02417	0.1956	0.002

System: water + dodecyltributylammonium bromide; phases: Liquid
Fixed: Pressure, kPa = 101
Property: Electrical conductivity, S/m (Liquid); method: Direct current cell with electrodes
Temperature, K	Amount concentration (molarity), mol/dm3 of dodecyltributylammonium bromide	Electrical conductivity, S/m	uncertainty
288.15	0.000658	0.005218	5.2e-05
288.15	0.001299	0.009805	9.8e-05
288.15	0.001923	0.01419	0.00014
288.15	0.002532	0.01845	0.00018
288.15	0.003125	0.0226	0.0002
288.15	0.003704	0.0265	0.0003
288.15	0.004268	0.0303	0.0003
288.15	0.004819	0.034	0.0003
288.15	0.005357	0.0377	0.0004
288.15	0.005882	0.041	0.0004
288.15	0.006395	0.0441	0.0004
288.15	0.006896	0.0466	0.0005
288.15	0.007386	0.0485	0.0005
288.15	0.007865	0.05	0.0005
288.15	0.008333	0.0513	0.0005
288.15	0.008791	0.0523	0.0005
288.15	0.009239	0.0537	0.0005
288.15	0.009677	0.0548	0.0006
288.15	0.01011	0.0556	0.0006
288.15	0.01053	0.0572	0.0006
288.15	0.01094	0.0583	0.0006
288.15	0.01134	0.0594	0.0006
288.15	0.01174	0.0605	0.0006
288.15	0.01212	0.0615	0.0006
288.15	0.0125	0.0626	0.0006
293.15	0.000658	0.00579	6e-05
293.15	0.001299	0.01101	0.00011
293.15	0.001923	0.01604	0.00016
293.15	0.002532	0.0208	0.0002
293.15	0.003125	0.0254	0.0003
293.15	0.003704	0.03	0.0003
293.15	0.004268	0.0341	0.0003
293.15	0.004819	0.0384	0.0004
293.15	0.005357	0.0423	0.0004
293.15	0.005882	0.0459	0.0005
293.15	0.006395	0.0487	0.0005
293.15	0.006896	0.0509	0.0005
293.15	0.007386	0.0524	0.0005
293.15	0.007865	0.0542	0.0005
293.15	0.008333	0.0554	0.0006
293.15	0.008791	0.0568	0.0006
293.15	0.009239	0.0582	0.0006
293.15	0.009677	0.0598	0.0006
293.15	0.01011	0.061	0.0006
293.15	0.01053	0.0623	0.0006
293.15	0.01094	0.0636	0.0006
293.15	0.01134	0.0649	0.0007
293.15	0.01174	0.0661	0.0007
293.15	0.01212	0.0673	0.0007
293.15	0.0125	0.0685	0.0007
298.15	0.000658	0.006494	6.5e-05
298.15	0.001299	0.01226	0.00012
298.15	0.001923	0.01794	0.00018
298.15	0.002532	0.0233	0.0002
298.15	0.003125	0.0287	0.0003
298.15	0.003704	0.0335	0.0003
298.15	0.004268	0.0383	0.0004
298.15	0.004819	0.0429	0.0004
298.15	0.005357	0.0472	0.0005
298.15	0.005882	0.0508	0.0005
298.15	0.006395	0.0532	0.0005
298.15	0.006896	0.0556	0.0006
298.15	0.007386	0.0575	0.0006
298.15	0.007865	0.059	0.0006
298.15	0.008333	0.061	0.0006
298.15	0.008791	0.0622	0.0006
298.15	0.009239	0.0641	0.0006
298.15	0.009677	0.0652	0.0007
298.15	0.01011	0.0671	0.0007
298.15	0.01053	0.0686	0.0007
298.15	0.01094	0.0701	0.0007
298.15	0.01134	0.0716	0.0007
298.15	0.01174	0.073	0.0007
298.15	0.01212	0.0744	0.0007
298.15	0.0125	0.0758	0.0008
303.15	0.000658	0.007326	7.3e-05
303.15	0.001299	0.0138	0.0001
303.15	0.001923	0.0201	0.0002
303.15	0.002532	0.0262	0.0003
303.15	0.003125	0.0319	0.0003
303.15	0.003704	0.0374	0.0004
303.15	0.004268	0.0427	0.0004
303.15	0.004819	0.0476	0.0005
303.15	0.005357	0.052	0.0005
303.15	0.005882	0.0554	0.0006
303.15	0.006395	0.0578	0.0006
303.15	0.006896	0.0601	0.0006
303.15	0.007386	0.0626	0.0006
303.15	0.007865	0.0647	0.0006
303.15	0.008333	0.0666	0.0007
303.15	0.008791	0.0685	0.0007
303.15	0.009239	0.0703	0.0007
303.15	0.009677	0.0721	0.0007
303.15	0.01011	0.0737	0.0007
303.15	0.01053	0.0757	0.0008
303.15	0.01094	0.0774	0.0008
303.15	0.01134	0.0791	0.0008
303.15	0.01174	0.0807	0.0008
303.15	0.01212	0.0824	0.0008
303.15	0.0125	0.084	0.0008
308.15	0.000658	0.00785	8e-05
308.15	0.001299	0.01502	0.00015
308.15	0.001923	0.0218	0.0002
308.15	0.002532	0.0283	0.0003
308.15	0.003125	0.0346	0.0004
308.15	0.003704	0.0407	0.0004
308.15	0.004268	0.0465	0.0005
308.15	0.004819	0.0517	0.0005
308.15	0.005357	0.0567	0.0006
308.15	0.005882	0.0599	0.0006
308.15	0.006395	0.0629	0.0006
308.15	0.006896	0.0658	0.0007
308.15	0.007386	0.0678	0.0007
308.15	0.007865	0.0706	0.0007
308.15	0.008333	0.0728	0.0007
308.15	0.008791	0.0749	0.0008
308.15	0.009239	0.077	0.0008
308.15	0.009677	0.0789	0.0008
308.15	0.01011	0.0804	0.0008
308.15	0.01053	0.0829	0.0008
308.15	0.01094	0.0849	0.0009
308.15	0.01134	0.0868	0.0009
308.15	0.01174	0.0887	0.0009
308.15	0.01212	0.0905	0.0009
308.15	0.0125	0.0923	0.0009
313.15	0.000658	0.008542	8.5e-05
313.15	0.001299	0.01631	0.00016
313.15	0.001923	0.0238	0.0002
313.15	0.002532	0.0309	0.0003
313.15	0.003125	0.0378	0.0004
313.15	0.003704	0.0445	0.0004
313.15	0.004268	0.0509	0.0005
313.15	0.004819	0.0566	0.0006
313.15	0.005357	0.0619	0.0006
313.15	0.005882	0.0658	0.0007
313.15	0.006395	0.069	0.0007
313.15	0.006896	0.072	0.0007
313.15	0.007386	0.0747	0.0007
313.15	0.007865	0.0773	0.0008
313.15	0.008333	0.0798	0.0008
313.15	0.008791	0.0822	0.0008
313.15	0.009239	0.0845	0.0008
313.15	0.009677	0.0867	0.0009
313.15	0.01011	0.0889	0.0009
313.15	0.01053	0.0913	0.0009
313.15	0.01094	0.0935	0.0009
313.15	0.01134	0.0957	0.001
313.15	0.01174	0.0978	0.001
313.15	0.01212	0.0998	0.001
313.15	0.0125	0.1019	0.001
318.15	0.000658	0.00923	9e-05
318.15	0.001299	0.0177	0.0002
318.15	0.001923	0.0258	0.0003
318.15	0.002532	0.0336	0.0003
318.15	0.003125	0.0412	0.0004
318.15	0.003704	0.0484	0.0005
318.15	0.004268	0.0551	0.0006
318.15	0.004819	0.0619	0.0006
318.15	0.005357	0.0672	0.0007
318.15	0.005882	0.0712	0.0007
318.15	0.006395	0.0752	0.0008
318.15	0.006896	0.0785	0.0008
318.15	0.007386	0.0817	0.0008
318.15	0.007865	0.0845	0.0008
318.15	0.008333	0.0874	0.0009
318.15	0.008791	0.09	0.0009
318.15	0.009239	0.0926	0.0009
318.15	0.009677	0.0952	0.001
318.15	0.01011	0.0976	0.001
318.15	0.01053	0.1003	0.001
318.15	0.01094	0.1028	0.001
318.15	0.01134	0.1052	0.0011
318.15	0.01174	0.1076	0.0011
318.15	0.01212	0.1099	0.0011
318.15	0.0125	0.1122	0.0011
