Measured thermophysical data. Liquid-Liquid Equilibrium in Ternary Systems Containing Ethylene Glycol, Monofunctional Benzene Derivative, and Ethyl Acetate
Source: J. Chem. Eng. Data, 2011, 10.1021/je100921h
Compound 1: 1,2-ethanediol, C2H6O2, InChI=1S/C2H6O2/c3-1-2-4/h3-4H,1-2H2, purity 99.7%
Compound 2: ethyl acetate, C4H8O2, InChI=1S/C4H8O2/c1-3-6-4(2)5/h3H2,1-2H3, purity 99.7%
Compound 3: toluene, C7H8, InChI=1S/C7H8/c1-7-5-3-2-4-6-7/h2-6H,1H3, purity 99.7%
Compound 4: anisole, C7H8O, InChI=1S/C7H8O/c1-8-7-5-3-2-4-6-7/h2-6H,1H3, purity 99.7%
Compound 5: acetophenone, C8H8O, InChI=1S/C8H8O/c1-7(9)8-5-3-2-4-6-8/h2-6H,1H3, purity 99%

System: 1,2-ethanediol; phases: Liquid
Property: Mass density, kg/m3 (Liquid); method: Vibrating tube method
Temperature, K	Pressure, kPa	Mass density, kg/m3	uncertainty
298.15	101.325	1109.9	0.14

System: ethyl acetate; phases: Liquid
Property: Mass density, kg/m3 (Liquid); method: Vibrating tube method
Temperature, K	Pressure, kPa	Mass density, kg/m3	uncertainty
298.15	101.325	894.4	0.12

System: toluene; phases: Liquid
Property: Mass density, kg/m3 (Liquid); method: Vibrating tube method
Temperature, K	Pressure, kPa	Mass density, kg/m3	uncertainty
298.15	101.325	862.27	0.14

System: anisole; phases: Liquid
Property: Mass density, kg/m3 (Liquid); method: Vibrating tube method
Temperature, K	Pressure, kPa	Mass density, kg/m3	uncertainty
298.15	101.325	989.13	0.09

System: acetophenone; phases: Liquid
Property: Mass density, kg/m3 (Liquid); method: Vibrating tube method
Temperature, K	Pressure, kPa	Mass density, kg/m3	uncertainty
298.15	101.325	1023	0.3

System: acetophenone + 1,2-ethanediol + ethyl acetate; phases: Liquid mixture 2, Liquid mixture 1
Fixed: Temperature, K = 298.15
Fixed: Pressure, kPa = 101.3
Property: Mole fraction of ethyl acetate (Liquid mixture 2); method: Chromatography
Property: Mole fraction of ethyl acetate (Liquid mixture 1); method: Chromatography
Property: Mole fraction of acetophenone (Liquid mixture 1); method: Chromatography
Mole fraction of acetophenone	Mole fraction of ethyl acetate	uncertainty	Mole fraction of ethyl acetate	uncertainty	Mole fraction of acetophenone	uncertainty
0.6318	0.1964	0.012	0.0344	0.0169	0.0987	
0.0991	0.7673	0.0145	0.1279	0.0099	0.0172	
0.474	0.3549	0.0117	0.0651	0.0146	0.0812	
0.415	0.4195	0.0119	0.0753	0.0119	0.0714	
0.2984	0.5376	0.0124	0.0957	0.0119	0.0534	
0.2116	0.6452	0.0136	0.1128	0.0107	0.0371	
0.856	0		0		0.1161	
0	0.8764	0.0132	0.1398	0.0081	0	

System: 1,2-ethanediol + toluene + ethyl acetate; phases: Liquid mixture 2, Liquid mixture 1
Fixed: Temperature, K = 298.15
Fixed: Pressure, kPa = 101.3
Property: Mole fraction of toluene (Liquid mixture 2); method: Chromatography
Property: Mole fraction of toluene (Liquid mixture 1); method: Chromatography
Property: Mole fraction of ethyl acetate (Liquid mixture 1); method: Chromatography
Mole fraction of ethyl acetate	Mole fraction of toluene	uncertainty	Mole fraction of toluene	uncertainty	Mole fraction of ethyl acetate	uncertainty
0.0906	0.9048	0.0145	0.021	0.0048	0.0085	
0.1216	0.8725	0.0141	0.0208	0.0048	0.0116	
0.1676	0.824	0.0134	0.0204	0.0048	0.0168	
0.2195	0.7694	0.0127	0.0195	0.0048	0.0243	
0.3743	0.6065	0.0095	0.0185	0.0048	0.0342	
0.3958	0.5813	0.0092	0.0182	0.0048	0.0395	
0.5179	0.4469	0.0116	0.0163	0.0048	0.0568	
0.6032	0.3424	0.0122	0.0148	0.0048	0.0699	
0.6529	0.2867	0.0125	0.0138	0.0049	0.0783	
0.743	0.1804	0.015	0.01	0.0049	0.0979	
0.8161	0.0785	0.0173	0.0059	0.0049	0.1297	
0	0.9982	0.0018	0.0217	0.0048	0	
0.8764	0		0		0.1398	

System: anisole + 1,2-ethanediol + ethyl acetate; phases: Liquid mixture 2, Liquid mixture 1
Fixed: Temperature, K = 298.15
Fixed: Pressure, kPa = 101.3
Property: Mole fraction of anisole (Liquid mixture 2); method: Chromatography
Property: Mole fraction of anisole (Liquid mixture 1); method: Chromatography
Property: Mole fraction of ethyl acetate (Liquid mixture 1); method: Chromatography
Mole fraction of ethyl acetate	Mole fraction of anisole	uncertainty	Mole fraction of anisole	uncertainty	Mole fraction of ethyl acetate	uncertainty
0.1284	0.8559	0.0162	0.032	0.0093	0.0113	
0.2322	0.7435	0.015	0.0304	0.0094	0.0229	
0.318	0.6529	0.0144	0.0291	0.0094	0.028	
0.4259	0.5272	0.0143	0.0264	0.0094	0.042	
0.5619	0.3761	0.0142	0.0221	0.0095	0.0649	
0.6474	0.2732	0.0146	0.0168	0.0095	0.0818	
0.7673	0.1385	0.0162	0.0109	0.0094	0.1101	
0.8032	0.0921	0.0178	0.007	0.007	0.1284	
0	0.9915	0.0085	0.0341	0.0092	0	
0.8764	0		0		0.1398	
