Measured thermophysical data. Vapor-Liquid Equilibrium and Liquid-Liquid Equilibrium of Methyl Acetate +  Methanol + 1-Ethyl-3-methylimidazolium Acetate
Source: J. Chem. Eng. Data, 2011, 10.1021/je100932m
Compound 1: methyl ethanoate, C3H6O2, InChI=1S/C3H6O2/c1-3(4)5-2/h1-2H3
Compound 2: methanol, CH4O, InChI=1S/CH4O/c1-2/h2H,1H3
Compound 3: 1-ethyl-3-methylimidazolium acetate, C8H14N2O2, InChI=1S/C6H11N2.C2H4O2/c1-3-8-5-4-7(2)6-8;1-2(3)4/h4-6H,3H2,1-2H3;1H3,(H,3,4)/q+1;/p-1

System: methyl ethanoate; phases: Liquid, Gas
Property: Vapor or sublimation pressure, kPa (Liquid); method: EBULLIO:UFactor:2
Temperature, K	Vapor or sublimation pressure, kPa	uncertainty
329.97	101.3	0.86

System: methanol; phases: Liquid, Gas
Property: Vapor or sublimation pressure, kPa (Liquid); method: EBULLIO:UFactor:2
Temperature, K	Vapor or sublimation pressure, kPa	uncertainty
337.57	101.3	0.86

System: methanol + methyl ethanoate; phases: Liquid, Gas
Fixed: Pressure, kPa = 101.3
Property: Boiling temperature at pressure P, K (Liquid); method: EBULLIO:UFactor:2
Mole fraction of methyl ethanoate	Boiling temperature at pressure P, K	uncertainty
0	337.57	0.17
0.102	332.82	0.28
0.203	330.08	0.22
0.299	328.51	0.19
0.406	327.65	0.18
0.511	326.96	0.17
0.603	326.79	0.17
0.706	326.6	0.17
0.806	326.96	0.18
0.902	327.89	0.19
1	329.97	0.17

System: methanol + methyl ethanoate; phases: Gas, Liquid
Fixed: Pressure, kPa = 101.3
Property: Mole fraction of methyl ethanoate (Gas); method: CHROM:UFactor:2
Mole fraction of methyl ethanoate	Mole fraction of methyl ethanoate	uncertainty
0	0	
0.102	0.26	0.013
0.203	0.379	0.011
0.299	0.468	0.011
0.406	0.535	0.01
0.511	0.573	0.01
0.603	0.628	0.009
0.706	0.687	0.009
0.806	0.748	0.009
0.902	0.845	0.01
1	1	

System: methanol + methyl ethanoate + 1-ethyl-3-methylimidazolium acetate; phases: Gas, Liquid mixture 1, Liquid mixture 2
Fixed: Pressure, kPa = 101.3
Property: Mole fraction of methyl ethanoate (Gas); method: CHROM:UFactor:2
Temperature, K	Mole fraction of methyl ethanoate	uncertainty
330.37	0.885	0.02
330.59	0.921	0.02
330.71	0.941	0.02
331.22	0.954	0.02
331.43	1	0.02
331.6	1	0.02
332.18	1	0.02

System: methanol + methyl ethanoate + 1-ethyl-3-methylimidazolium acetate; phases: Liquid, Gas
Fixed: Pressure, kPa = 101.3
Property: Boiling temperature at pressure P, K (Liquid); method: EBULLIO:UFactor:2
Mole fraction of 1-ethyl-3-methylimidazolium acetate	Solvent: Mole fraction of methyl ethanoate	Boiling temperature at pressure P, K	uncertainty
0.097	0.799	329.93	0.18
0.098	0.396	329.22	0.19
0.099	0.101	334.82	0.29
0.099	0.596	328.82	0.18
0.099	0.893	330.49	0.18
0.1	0	335.21	0.25
0.1	0.499	328.62	0.18
0.1	0.698	329.18	0.18
0.101	0.201	332.43	0.26
0.101	0.304	330.21	0.22
0.197	0.492	329.53	0.18
0.199	0.199	334.78	0.28
0.199	0.299	332.12	0.24
0.199	0.399	330.4	0.2
0.2	0	338.31	0.29
0.2	0.101	337.82	0.28
0.2	0.6	329.68	0.18
0.2	0.699	329.8	0.18
0.2	0.8	330.48	0.18
0.288	0.188	337.3	0.31
0.295	0.599	330.18	0.17
0.296	0.101	341.19	0.29
0.296	0.498	330.21	0.19
0.3	0	342.82	0.32
0.301	0.368	332	0.2
0.304	0.405	331.52	0.2

System: methanol + methyl ethanoate + 1-ethyl-3-methylimidazolium acetate; phases: Gas, Liquid
Fixed: Pressure, kPa = 101.3
Property: Mole fraction of methyl ethanoate (Gas); method: CHROM:UFactor:2
Mole fraction of 1-ethyl-3-methylimidazolium acetate	Solvent: Mole fraction of methyl ethanoate	Mole fraction of methyl ethanoate	uncertainty
0.097	0.799	0.842	0.008
0.098	0.396	0.598	0.01
0.099	0.101	0.278	0.015
0.099	0.596	0.718	0.009
0.099	0.893	0.908	0.008
0.1	0	0	
0.1	0.499	0.668	0.009
0.1	0.698	0.781	0.009
0.101	0.201	0.437	0.012
0.101	0.304	0.524	0.011
0.197	0.492	0.724	0.009
0.199	0.199	0.486	0.013
0.199	0.299	0.594	0.01
0.199	0.399	0.652	0.01
0.2	0	0	
0.2	0.101	0.31	0.017
0.2	0.6	0.784	0.008
0.2	0.699	0.842	0.008
0.2	0.8	0.892	0.007
0.288	0.188	0.516	0.011
0.295	0.599	0.845	0.008
0.296	0.101	0.348	0.014
0.296	0.498	0.786	0.008
0.3	0	0	
0.301	0.368	0.701	0.009
0.304	0.405	0.724	0.009

System: methanol + methyl ethanoate + 1-ethyl-3-methylimidazolium acetate; phases: Liquid mixture 2, Liquid mixture 1
Fixed: Temperature, K = 299.15
Fixed: Pressure, kPa = 101.3
Property: Mole fraction of methanol (Liquid mixture 2); method: CHROM:UFactor:2
Property: Mole fraction of methanol (Liquid mixture 1); method: CHROM:UFactor:2
Property: Mole fraction of methyl ethanoate (Liquid mixture 1); method: CHROM:UFactor:2
Mole fraction of methyl ethanoate	Mole fraction of methanol	uncertainty	Mole fraction of methanol	uncertainty	Mole fraction of methyl ethanoate	uncertainty
0.129	0		0		0.938	
0.133	0.041	0.006	0.007	0.007	0.93	
0.15	0.103	0.015	0.019	0.009	0.927	
0.187	0.168	0.015	0.039	0.008	0.901	
0.198	0.214	0.015	0.056	0.008	0.882	
0.228	0.263	0.012	0.083	0.009	0.851	
0.253	0.303	0.009	0.119	0.008	0.818	
0.306	0.329	0.008	0.152	0.008	0.77	
0.355	0.34	0.008	0.175	0.008	0.732	
0.375	0.349	0.008	0.213	0.008	0.695	
0.413	0.348	0.008	0.234	0.007	0.662	
