Measured thermophysical data. Phase Equilibria in Binary Mixtures of Propane and Phenanthrene: Experimental Data and Modeling with the GC-EoS
Source: J. Chem. Eng. Data, 2011, 10.1021/je101058b
Compound 1: phenanthrene, C14H10, InChI=1S/C14H10/c1-3-7-13-11(5-1)9-10-12-6-2-4-8-14(12)13/h1-10H, purity 99%
Compound 2: propane, C3H8, InChI=1S/C3H8/c1-3-2/h3H2,1-2H3, purity 99.91%

System: phenanthrene; phases: Liquid
Property: Molar volume, m3/mol (Liquid); method: Pycnometric method
Temperature, K	Pressure, kPa	Molar volume, m3/mol	uncertainty
377.69	2049	0.000167865	1.06e-07
377.69	4049	0.00016772	1.06e-07
377.69	6049	0.000167416	1.06e-07
377.69	8049	0.000167187	1.06e-07
377.69	10049	0.000167042	1.06e-07
385.54	2049	0.000168811	1.1e-07
385.54	4049	0.000168589	1.09e-07
385.54	6049	0.000168269	1.09e-07
385.54	8049	0.000168054	1.09e-07
385.54	10049	0.000167932	1.09e-07
393.38	2049	0.000169845	1.13e-07
393.38	4049	0.000169586	1.13e-07
393.38	6049	0.000169222	1.13e-07
393.38	8049	0.000169043	1.13e-07
393.38	10049	0.000168925	1.13e-07
401.26	2049	0.000170765	1.17e-07
401.26	4049	0.000170538	1.16e-07
401.26	6049	0.000170173	1.16e-07
401.26	8049	0.000169986	1.16e-07
401.26	10049	0.000169812	1.16e-07
409.13	2049	0.000171738	1.2e-07
409.13	4049	0.000171483	1.2e-07
409.13	6049	0.000171219	1.2e-07
409.13	8049	0.000171036	1.2e-07
409.13	10049	0.000170903	1.2e-07
417.06	2049	0.000172777	1.24e-07
417.06	4049	0.000172554	1.24e-07
417.06	6049	0.000172255	1.24e-07
417.06	8049	0.000171914	1.23e-07
417.06	10049	0.00017175	1.23e-07
424.84	2049	0.000173794	1.28e-07
424.84	4049	0.000173544	1.28e-07
424.84	6049	0.000173229	1.27e-07
424.84	8049	0.000172902	1.27e-07
424.84	10049	0.000172734	1.27e-07

System: propane + phenanthrene; phases: Crystal, Liquid mixture 2, Gas
Property: Vapor or sublimation pressure, kPa (Crystal); method: Calletet apparatus
Temperature, K	Vapor or sublimation pressure, kPa	uncertainty
351.14	2933	80
351.66	2866	80
352.63	2767	80
353.61	2653	80
354.58	2560	80
355.57	2473	80
355.88	2440	80
356.56	2362	80
357.34	2254	80
357.54	2238	80
358.55	2086	80
358.76	2070	80
360.23	1891	80
361.72	1685	80
362.17	1808	80
363.13	1490	80
363.93	1420	80
364.39	1403	80
364.61	1265	80
365.42	1184	82
365.54	1086	82
366.5	986	80
366.85	905	80
367.32	865	80
368.26	719	80
368.78	706	80
369.92	526	80
370.8	377	80

System: propane + phenanthrene; phases: Gas, Liquid mixture 2, Liquid mixture 1
Property: Vapor or sublimation pressure, kPa (Gas); method: Calletet apparatus
Temperature, K	Vapor or sublimation pressure, kPa	uncertainty
352.27	2996	5
354.24	3106	5
356.23	3232	5
358.17	3347	6
360.15	3468	6
362.14	3588	6
364.12	3719	6
366.09	3843	6
368.08	3977	6
370.06	4116	6
372.05	4260	6
374.04	4411	6
376.14	4568	7
377.3	4673	7

System: propane + phenanthrene; phases: Crystal, Gas, Liquid mixture 1
Property: Vapor or sublimation pressure, kPa (Crystal); method: Calletet apparatus
Temperature, K	Vapor or sublimation pressure, kPa	uncertainty
337.36	2279	20
338.38	2319	20
339.36	2353	20
340.36	2397	20
341.39	2471	20
342.26	2483	20
343.33	2569	20
344.37	2598	20
345.39	2644	20
346.35	2690	20
347.33	2741	20
348.31	2788	20

System: propane + phenanthrene; phases: Crystal, Liquid mixture 2, Liquid mixture 1
Property: Vapor or sublimation pressure, kPa (Crystal); method: Calletet apparatus
Temperature, K	Vapor or sublimation pressure, kPa	uncertainty
351.02	4931	464
351.09	3307	141
351.09	5751	142
351.16	3943	19
351.27	3521	77

System: propane + phenanthrene; phases: Liquid mixture 2, Liquid mixture 1
Property: Vapor or sublimation pressure, kPa (Liquid mixture 2); method: Cailletet Apparatus
Mole fraction of phenanthrene	Temperature, K	Vapor or sublimation pressure, kPa	uncertainty
0.2499	353.27	21770	48
0.2499	362.39	19525	47
0.2499	371.59	17985	43
0.2499	380.31	17050	40
0.2499	388.55	16545	39
0.2499	397.67	16260	37
0.2499	407.37	16220	36
0.2499	416.24	16355	36
0.2499	425.54	16610	35
0.3532	353.77	19930	121
0.3532	363.04	17815	81
0.3532	372.39	16410	74
0.3532	381.56	15550	68
0.3532	389.76	15110	64
0.3532	399.38	14930	59
0.3532	408.64	14970	56
0.3532	418.17	15160	54
0.3532	427.42	15480	53
0.4529	360.3	12445	134
0.4529	369.74	11445	121
0.4529	378.7	10975	107
0.4529	387.85	10800	96
0.4529	397.11	11070	88
0.4529	406.3	11385	82
0.4529	415.38	11860	77
0.4529	424.88	12385	74
0.5394	350.02	6301	200
0.5394	351.99	6129	200
0.5394	353.95	5989	180
0.5394	358.88	5764	156
0.5394	363.84	5659	155
0.5394	368.73	5669	133
0.5394	373.64	5785	111
0.5394	378.53	5984	114
0.5394	383.53	6234	95
0.5394	388.38	6519	81
0.5394	396.31	7052	71
0.5394	404.21	7613	65
0.5394	412.18	8177	64
0.5394	420.18	8731	64
0.5394	428.02	9256	65
0.56	351.21	4151	194
0.56	356.2	4047	183
0.56	361.11	4072	165
0.56	366.07	4225	146
0.56	370.99	4440	129
0.56	375.93	4756	114
0.56	380.87	5141	101
0.56	388.55	5738	78
0.56	396.45	6378	70
0.56	404.33	6991	66
0.56	412.32	7574	65
0.56	420.01	8107	65
0.56	427.31	8601	64

System: propane + phenanthrene; phases: Liquid mixture 2, Gas
Property: Vapor or sublimation pressure, kPa (Liquid mixture 2); method: Cailletet Apparatus
Mole fraction of phenanthrene	Temperature, K	Vapor or sublimation pressure, kPa	uncertainty
0.5799	352.34	2981	15
0.5799	356.34	3195	15
0.5799	361.25	3472	17
0.5799	363.73	3616	19
0.5799	368.7	3926	22
0.5799	372.53	4184	22
0.5799	381.25	4820	28
0.5799	385.2	5116	32
0.5799	389.1	5416	35
0.5799	393.12	5727	38
0.5799	398.55	6103	42
0.5799	403.27	6481	45
0.5799	408.23	6847	48
0.5799	413.24	7191	51
0.5799	418.21	7533	54
0.5799	423.14	7876	56
0.5799	428.17	8202	58
0.5799	433.77	8545	59
0.6669	356.07	2572	15
0.6669	360.01	2729	15
0.6669	365.25	2931	16
0.6669	370.21	3137	18
0.6669	375.23	3352	19
0.6669	380.18	3569	23
0.6669	385.19	3788	25
0.6669	390.24	4005	27
0.6669	395.23	4234	29
0.6669	400.2	4460	32
0.6669	405.24	4691	34
0.6669	410.17	4915	37
0.6669	415.19	5144	39
0.6669	420.27	5372	41
0.6669	424.66	5575	43
0.6669	429.6	5791	46
0.7474	359.61	2263	12
0.7474	364.59	2416	15
0.7474	369.56	2572	16
0.7474	374.56	2734	17
0.7474	379.57	2900	18
0.7474	384.55	3069	20
0.7474	389.57	3236	21
0.7474	394.61	3410	23
0.7474	399.61	3583	24
0.7474	404.59	3754	26
0.7474	409.83	3933	27
0.7474	414.64	4104	29
0.7474	419.64	4273	30
0.7474	424.65	4442	31
0.7474	429.63	4611	35
0.8228	362.84	1803	16
0.8228	368.01	1911	19
0.8228	372.9	2013	20
0.8228	377.61	2118	21
0.8228	383.03	2238	23
0.8228	388.09	2348	25
0.8228	393.21	2464	26
0.8228	398.11	2576	28
0.8228	403.03	2688	29
0.8228	408.06	2804	30
0.8228	413.07	2913	32
0.8228	418.05	3024	33
0.8228	423.1	3141	35
0.8228	426.63	3221	36
0.8784	367.6	1353	20
0.8784	375.46	1461	24
0.8784	383.32	1572	25
0.8784	391.2	1687	28
0.8784	399.12	1803	30
0.8784	406.99	1920	32
0.8784	414.93	2037	34
0.8784	422.81	2153	36
0.8784	430.81	2270	38
0.9461	374.51	647	24
0.9461	382.42	694	26
0.9461	392.25	753	28
0.9461	400.12	801	30
0.9461	407.99	851	32
0.9461	415.84	900	34
0.9461	423.67	950	36
0.9461	431.65	997	38

System: propane + phenanthrene; phases: Liquid mixture 1, Crystal
Fixed: Mole fraction of phenanthrene = 0.0494
Property: Vapor or sublimation pressure, kPa (Liquid mixture 1); method: Cailletet Apparatus
Temperature, K	Vapor or sublimation pressure, kPa	uncertainty
347.46	12050	30
348.17	11050	31
348.81	10050	27
349.73	9050	21
350.84	8050	19

System: propane + phenanthrene; phases: Liquid mixture 2, Crystal
Property: Vapor or sublimation pressure, kPa (Liquid mixture 2); method: Cailletet Apparatus
Mole fraction of phenanthrene	Temperature, K	Vapor or sublimation pressure, kPa	uncertainty
0.5394	351.43	7050	250
0.5394	351.63	8050	274
0.5394	351.85	9050	273
0.5394	352.07	10050	284
0.5394	352.33	11050	286
0.5394	352.56	12050	294
0.56	351.4	4550	222
0.56	351.77	6050	232
0.56	352.15	7550	240
0.56	352.53	9050	246
0.56	352.88	10551	186
0.56	353.26	12051	190
0.5799	351.54	3251	217
0.5799	351.82	4552	199
0.5799	352.21	6051	191
0.5799	352.59	7551	190
0.5799	352.8	8551	190
0.6669	355.68	3051	307
0.6669	356.02	4051	321
0.6669	356.3	5051	268
0.6669	356.8	7051	253
0.6669	357.41	9051	246
0.6669	358	11052	248
0.7474	358.43	3047	242
0.7474	358.74	4047	244
0.7474	359.04	5047	245
0.7474	359.64	7047	245
0.7474	360.25	9048	249
0.7474	360.83	11048	412
0.8228	362.93	3051	410
0.8228	363.22	4051	397
0.8228	363.55	5050	388
0.8228	364.19	7050	391
0.8228	364.81	9050	392
0.8228	365.45	11051	391
0.8784	365.95	1951	393
0.8784	366.43	3551	387
0.8784	366.95	5051	382
0.8784	367.43	6552	408
0.8784	367.83	8051	458
0.8784	368.31	9551	436
0.8784	368.81	11052	434
0.9461	370.29	1051	431
0.9461	370.79	2551	428
0.9461	371.31	4051	426
0.9461	371.82	5551	431
0.9461	372.32	7051	416
0.9461	372.89	8550	397

System: propane + phenanthrene; phases: Liquid mixture 1, Liquid mixture 2
Property: Vapor or sublimation pressure, kPa (Liquid mixture 1); method: Cailletet Apparatus
Mole fraction of phenanthrene	Temperature, K	Vapor or sublimation pressure, kPa	uncertainty
0.0294	350.68	2885	476
0.0294	354.58	3110	393
0.0294	354.66	3358	393
0.0294	357.72	3330	430
0.0294	359.58	3897	352
0.0294	363.53	4381	350
0.0294	366.42	4622	325
0.0294	371.41	5132	304
0.0294	376.38	5836	309.8
0.0294	381.39	6391	259.9
0.0294	387.37	7034	229.8
0.0294	393.33	7674	197.1
0.0294	399.31	8260	185
0.0294	405.32	8795	180
0.0294	411.34	9269	181
0.0294	417.35	9644	186
0.0396	356.02	5596	424
0.0396	361.98	5957	373
0.0396	367.96	6449	347
0.0396	373.92	7054	315
0.0396	379.91	7549	271
0.0396	385.87	8044	249
0.0396	391.86	8509	230
0.0396	397.85	9047	178
0.0396	403.82	9564	174
0.0396	409.83	10054	174
0.0396	415.83	10499	179
0.0396	421.8	10909	170
0.0396	427.75	11292	169
0.0494	351.82	7709	559
0.0494	351.94	7730	559
0.0494	354.32	7740	451
0.0494	356.75	7720	438
0.0494	356.81	7749	440
0.0494	359.18	7780	390
0.0494	361.63	7850	387
0.0494	361.71	7809	387
0.0494	364.16	7980	388
0.0494	366.66	8070	348
0.0494	371.56	8340	319
0.0494	376.49	8650	293
0.0494	384.34	9130	248
0.0494	392.22	9690	246
0.0494	400.06	10240	212
0.0494	407.9	10790	180
0.0494	415.75	11360	172
0.0494	423.6	11850	169
0.0711	353.52	12665	252
0.0711	362.54	12085	201
0.0711	371.19	11865	167
0.0711	381.11	11965	140
0.0711	390.26	12255	125
0.1488	353.62	20955	215
0.1488	362.89	18885	184
0.1488	372.09	17540	154.6
0.1488	381.01	16750	128
0.1488	390.16	16310	108
0.1488	399.49	16150	105
0.1488	407.83	16185	111
0.1488	417.56	16290	101
