Measured thermophysical data. Thermodynamic and Acoustic Properties of Binary Mixtures of Ethers. 2. Diisopropyl Ether with Arylamines at (303.15, 313.15, and 323.15) K and Application of ERAS Model to Aniline Mixtures with Diisopropyl Ether and Oxolane
Source: J. Chem. Eng. Data, 2011, 10.1021/je1008262
Compound 1: diisopropyl ether, C6H14O, InChI=1S/C6H14O/c1-5(2)7-6(3)4/h5-6H,1-4H3, purity 99.5%
Compound 2: aniline, C6H7N, InChI=1S/C6H7N/c7-6-4-2-1-3-5-6/h1-5H,7H2, purity 99.5%
Compound 3: N-methylaniline, C7H9N, InChI=1S/C7H9N/c1-8-7-5-3-2-4-6-7/h2-6,8H,1H3, purity 99.5%
Compound 4: N-ethylaminobenzene, C8H11N, InChI=1S/C8H11N/c1-2-9-8-6-4-3-5-7-8/h3-7,9H,2H2,1H3, purity 99.5%

System: diisopropyl ether; phases: Liquid
Fixed: Pressure, kPa = 101
Property: Speed of sound, m/s (Liquid); method: Linear variable-path acoustic interferometer
Temperature, K	Speed of sound, m/s	uncertainty
303.15	975	2
313.15	934	2
323.15	891	2
323.15	892	2

System: diisopropyl ether; phases: Liquid
Fixed: Pressure, kPa = 101
Property: Mass density, kg/m3 (Liquid); method: PYCNOM:UFactor:2
Temperature, K	Mass density, kg/m3	uncertainty
303.15	713.3	0.4
313.15	702.9	0.4
323.15	692.3	0.5

System: aniline; phases: Liquid
Fixed: Pressure, kPa = 101
Property: Speed of sound, m/s (Liquid); method: Linear variable-path acoustic interferometer
Temperature, K	Speed of sound, m/s	uncertainty
303.15	1615	3
313.15	1581	3
323.15	1548	3

System: aniline; phases: Liquid
Fixed: Pressure, kPa = 101
Property: Mass density, kg/m3 (Liquid); method: PYCNOM::UFactor:2
Temperature, K	Mass density, kg/m3	uncertainty
303.15	1012.9	0.6
313.15	1004.9	0.6
323.15	996.9	0.7

System: N-methylaniline; phases: Liquid
Fixed: Pressure, kPa = 101
Property: Speed of sound, m/s (Liquid); method: Linear variable-path acoustic interferometer
Temperature, K	Speed of sound, m/s	uncertainty
303.15	1548	3
313.15	1512	3
323.15	1477	3

System: N-methylaniline; phases: Liquid
Fixed: Pressure, kPa = 101
Property: Mass density, kg/m3 (Liquid); method: PYCNOM::UFactor:2
Temperature, K	Mass density, kg/m3	uncertainty
303.15	978.2	0.6
313.15	969.8	0.6
323.15	961.5	0.6

System: N-ethylaminobenzene; phases: Liquid
Fixed: Pressure, kPa = 101
Property: Speed of sound, m/s (Liquid); method: Linear variable-path acoustic interferometer
Temperature, K	Speed of sound, m/s	uncertainty
303.15	1497	3
313.15	1462	3
323.15	1431	3

System: N-ethylaminobenzene; phases: Liquid
Fixed: Pressure, kPa = 101
Property: Mass density, kg/m3 (Liquid); method: PYCNOM::UFactor:2
Temperature, K	Mass density, kg/m3	uncertainty
303.15	952.6	0.5
313.15	944.2	0.6
323.15	935.9	0.6

System: aniline + diisopropyl ether; phases: Liquid
Fixed: Pressure, kPa = 101
Property: Speed of sound, m/s (Liquid); method: Linear variable-path acoustic interferometer
Temperature, K	Mole fraction of diisopropyl ether	Speed of sound, m/s	uncertainty
303.15	0	1615	3
303.15	0.0707	1555	3
303.15	0.1488	1492	3
303.15	0.2307	1431	3
303.15	0.3178	1368	3
303.15	0.4169	1301	3
303.15	0.5201	1234	2
303.15	0.6208	1175	2
303.15	0.7396	1108	2
303.15	0.8673	1041	2
303.15	1	975	2
313.15	0	1581	3
313.15	0.0707	1526	3
313.15	0.1488	1465	3
313.15	0.2307	1401	3
313.15	0.3178	1338	3
313.15	0.4169	1268	2
313.15	0.5201	1203	2
313.15	0.6208	1142	2
313.15	0.7396	1075	2
313.15	0.8673	1005	2
313.15	1	934	2
323.15	0	1548	3
323.15	0.0707	1497	3
323.15	0.1488	1437	3
323.15	0.2307	1372	3
323.15	0.3178	1306	3
323.15	0.4169	1236	2
323.15	0.5201	1169	2
323.15	0.6208	1108	2
323.15	0.7396	1041	2
323.15	0.8673	970	2
323.15	1	891	2

System: aniline + diisopropyl ether; phases: Liquid
Fixed: Pressure, kPa = 101
Property: Mass density, kg/m3 (Liquid); method: PYCNOM:UFactor:2
Mole fraction of diisopropyl ether	Temperature, K	Mass density, kg/m3	uncertainty
0	303.15	1012.9	0.6
0	313.15	1004.9	0.6
0	323.15	996.9	0.7
0.0707	303.15	988.8	0.6
0.0707	313.15	981.6	0.6
0.0707	323.15	974.3	0.6
0.1488	303.15	962.3	0.5
0.1488	313.15	955.8	0.6
0.1488	323.15	949.4	0.6
0.2307	303.15	935	0.5
0.2307	313.15	929.1	0.6
0.2307	323.15	923.2	0.6
0.3178	303.15	907	0.5
0.3178	313.15	901.3	0.5
0.3178	323.15	895.8	0.6
0.4169	303.15	875.8	0.5
0.4169	313.15	870.3	0.5
0.4169	323.15	864.8	0.6
0.5201	303.15	844.2	0.5
0.5201	313.15	838.7	0.5
0.5201	323.15	833.1	0.6
0.6208	303.15	814.1	0.5
0.6208	313.15	808.5	0.5
0.6208	323.15	802.9	0.5
0.7396	303.15	779.7	0.4
0.7396	313.15	773.8	0.5
0.7396	323.15	767.9	0.5
0.8673	303.15	744.9	0.4
0.8673	313.15	737.8	0.4
0.8673	323.15	730.8	0.5
1	303.15	713.3	0.4
1	313.15	702.9	0.4
1	323.15	692.3	0.5

System: N-methylaniline + diisopropyl ether; phases: Liquid
Fixed: Pressure, kPa = 101
Property: Speed of sound, m/s (Liquid); method: Linear variable-path acoustic interferometer
Temperature, K	Mole fraction of diisopropyl ether	Speed of sound, m/s	uncertainty
303.15	0	1548	3
303.15	0.0742	1501	3
303.15	0.1544	1449	3
303.15	0.2393	1395	3
303.15	0.3269	1342	3
303.15	0.4266	1282	2
303.15	0.5274	1224	2
303.15	0.6283	1169	2
303.15	0.7442	1107	2
303.15	0.8661	1041	2
303.15	1	975	2
313.15	0	1512	3
313.15	0.0742	1465	3
313.15	0.1544	1414	3
313.15	0.2393	1360	3
313.15	0.3269	1307	2
313.15	0.4266	1248	2
313.15	0.5274	1190	2
313.15	0.6283	1134	2
313.15	0.7442	1072	2
313.15	0.8661	1007	2
313.15	1	934	2
323.15	0	1477	3
323.15	0.0742	1430	3
323.15	0.1544	1379	3
323.15	0.2393	1326	3
323.15	0.3269	1273	2
323.15	0.4266	1214	2
323.15	0.5274	1156	2
323.15	0.6283	1099	2
323.15	0.7442	1035	2
323.15	0.8661	966	2
323.15	1	892	2

System: N-methylaniline + diisopropyl ether; phases: Liquid
Fixed: Pressure, kPa = 101
Property: Mass density, kg/m3 (Liquid); method: PYCNOM:UFactor:2
Temperature, K	Mole fraction of diisopropyl ether	Mass density, kg/m3	uncertainty
303.15	0	978.2	0.6
303.15	0.0742	958.3	0.5
303.15	0.1544	936.8	0.5
303.15	0.2393	914	0.5
303.15	0.3269	890.6	0.5
303.15	0.4266	864.1	0.5
303.15	0.5274	837.3	0.5
303.15	0.6283	810.5	0.5
303.15	0.7442	779.8	0.4
303.15	0.8661	747.7	0.4
303.15	1	713.3	0.4
313.15	0	969.8	0.6
313.15	0.0742	951.4	0.6
313.15	0.1544	930.5	0.6
313.15	0.2393	907.9	0.5
313.15	0.3269	884.5	0.5
313.15	0.4266	857.8	0.5
313.15	0.5274	831	0.5
313.15	0.6283	804.2	0.5
313.15	0.7442	773.2	0.5
313.15	0.8661	740.1	0.4
313.15	1	702.9	0.4
323.15	0	961.5	0.6
323.15	0.0742	944.6	0.6
323.15	0.1544	924.4	0.6
323.15	0.2393	901.9	0.6
323.15	0.3269	878.3	0.6
323.15	0.4266	851.4	0.6
323.15	0.5274	824.5	0.5
323.15	0.6283	797.7	0.5
323.15	0.7442	766.6	0.5
323.15	0.8661	732.5	0.5
323.15	1	692.3	0.5

System: N-ethylaminobenzene + diisopropyl ether; phases: Liquid
Fixed: Pressure, kPa = 101
Property: Speed of sound, m/s (Liquid); method: Linear variable-path acoustic interferometer
Temperature, K	Mole fraction of diisopropyl ether	Speed of sound, m/s	uncertainty
303.15	0	1497	3
303.15	0.0735	1459	3
303.15	0.1577	1417	3
303.15	0.241	1372	3
303.15	0.3228	1329	3
303.15	0.4216	1275	2
303.15	0.5267	1219	2
303.15	0.6288	1167	2
303.15	0.7478	1105	2
303.15	0.8697	1043	2
303.15	1	975	2
313.15	0	1462	3
313.15	0.0735	1425	3
313.15	0.1577	1382	3
313.15	0.241	1340	3
313.15	0.3228	1296	2
313.15	0.4216	1243	2
313.15	0.5267	1187	2
313.15	0.6288	1132	2
313.15	0.7478	1068	2
313.15	0.8697	1004	2
313.15	1	934	2
323.15	0	1431	3
323.15	0.0735	1391	3
323.15	0.1577	1346	3
323.15	0.241	1301	2
323.15	0.3228	1258	2
323.15	0.4216	1205	2
323.15	0.5267	1149	2
323.15	0.6288	1094	2
323.15	0.7478	1030	2
323.15	0.8697	963	2
323.15	1	892	2

System: N-ethylaminobenzene + diisopropyl ether; phases: Liquid
Fixed: Pressure, kPa = 101
Property: Mass density, kg/m3 (Liquid); method: PYCNOM:UFactor:2
Temperature, K	Mole fraction of diisopropyl ether	Mass density, kg/m3	uncertainty
303.15	0	952.6	0.5
303.15	0.0735	936.7	0.5
303.15	0.1577	917.9	0.5
303.15	0.241	899.3	0.5
303.15	0.3228	880.9	0.5
303.15	0.4216	858.5	0.5
303.15	0.5267	833.9	0.5
303.15	0.6288	809	0.5
303.15	0.7478	778.7	0.4
303.15	0.8697	746.7	0.4
303.15	1	713.3	0.4
313.15	0	944.2	0.6
313.15	0.0735	929	0.6
313.15	0.1577	910.9	0.5
313.15	0.241	892.5	0.5
313.15	0.3228	874.1	0.5
313.15	0.4216	851.5	0.5
313.15	0.5267	826.7	0.5
313.15	0.6288	801.7	0.5
313.15	0.7478	771.3	0.5
313.15	0.8697	738.7	0.4
313.15	1	702.9	0.4
323.15	0	935.9	0.6
323.15	0.0735	921.2	0.6
323.15	0.1577	903.7	0.6
323.15	0.241	885.7	0.6
323.15	0.3228	867.4	0.6
323.15	0.4216	844.6	0.6
323.15	0.5267	819.5	0.5
323.15	0.6288	794.4	0.5
323.15	0.7478	763.9	0.5
323.15	0.8697	730.8	0.5
323.15	1	692.3	0.5
