Measured thermophysical data. Apparent Molar Volume and Surface Tension of Dilute Aqueous Solutions of Carboxylic Acids
Source: J. Chem. Eng. Data, 2011, 10.1021/je1002829
Compound 1: water, H2O, InChI=1S/H2O/h1H2
Compound 2: propanoic acid, C3H6O2, InChI=1S/C3H6O2/c1-2-3(4)5/h2H2,1H3,(H,4,5), purity 99.5%
Compound 3: butanoic acid, C4H8O2, InChI=1S/C4H8O2/c1-2-3-4(5)6/h2-3H2,1H3,(H,5,6), purity 99.5%
Compound 4: pentanoic acid, C5H10O2, InChI=1S/C5H10O2/c1-2-3-4-5(6)7/h2-4H2,1H3,(H,6,7), purity 99%
Compound 5: hexanoic acid, C6H12O2, InChI=1S/C6H12O2/c1-2-3-4-5-6(7)8/h2-5H2,1H3,(H,7,8), purity 99.5%

System: propanoic acid; phases: Liquid, Gas
Property: Surface tension liquid-gas, N/m (Liquid); method: DROPV:UFactor:4
Temperature, K	Surface tension liquid-gas, N/m	uncertainty
293.15	0.02668	0.00078
298.15	0.02611	0.00077
303.15	0.0257	0.00076
308.15	0.02516	0.00076

System: propanoic acid; phases: Liquid
Fixed: Pressure, kPa = 101.325
Property: Mass density, kg/m3 (Liquid); method: Vibrating tube method
Temperature, K	Mass density, kg/m3	uncertainty
293.15	993.42	0.12
298.15	988.21	0.12
303.15	982.88	0.12
308.15	977.43	0.12

System: butanoic acid; phases: Liquid, Gas
Property: Surface tension liquid-gas, N/m (Liquid); method: DROPV:UFactor:4
Temperature, K	Surface tension liquid-gas, N/m	uncertainty
293.15	0.02673	0.00078
298.15	0.02619	0.00077
303.15	0.02556	0.00076
308.15	0.02503	0.00075

System: butanoic acid; phases: Liquid
Fixed: Pressure, kPa = 101.325
Property: Mass density, kg/m3 (Liquid); method: Vibrating tube method
Temperature, K	Mass density, kg/m3	uncertainty
293.15	957.61	0.13
298.15	952.77	0.13
303.15	947.94	0.13
308.15	942.91	0.13

System: pentanoic acid; phases: Liquid, Gas
Property: Surface tension liquid-gas, N/m (Liquid); method: DROPV:UFactor:4
Temperature, K	Surface tension liquid-gas, N/m	uncertainty
293.15	0.02713	0.00079
298.15	0.0268	0.00079
303.15	0.02623	0.00078
308.15	0.0258	0.00077

System: pentanoic acid; phases: Liquid
Fixed: Pressure, kPa = 101.325
Property: Mass density, kg/m3 (Liquid); method: Vibrating tube method
Temperature, K	Mass density, kg/m3	uncertainty
293.15	938.29	0.3
298.15	933.9	0.3
303.15	929.39	0.3
308.15	924.73	0.3

System: hexanoic acid; phases: Liquid, Gas
Property: Surface tension liquid-gas, N/m (Liquid); method: DROPV:UFactor:4
Temperature, K	Surface tension liquid-gas, N/m	uncertainty
293.15	0.02812	0.0008
298.15	0.02754	0.00079
303.15	0.02712	0.00078
308.15	0.02666	0.00078

System: hexanoic acid; phases: Liquid
Fixed: Pressure, kPa = 101.325
Property: Mass density, kg/m3 (Liquid); method: Vibrating tube method
Temperature, K	Mass density, kg/m3	uncertainty
293.15	925.38	0.14
298.15	921.2	0.14
303.15	917.02	0.14
308.15	912.6	0.14

System: propanoic acid + water; phases: Liquid, Air at 1 atmosphere
Property: Surface tension liquid-gas, N/m (Liquid); method: DROPV:UFactor:4
Temperature, K	Mole fraction of propanoic acid	Surface tension liquid-gas, N/m	uncertainty
293.15	0	0.07258	0.00142
293.15	0.00861	0.05375	0.00117
293.15	0.01457	0.0498	0.0011
293.15	0.02075	0.04686	0.00106
293.15	0.03268	0.04279	0.001
293.15	0.0455	0.03975	0.00096
293.15	0.05436	0.0382	0.00094
293.15	0.06602	0.03671	0.00091
293.15	0.0747	0.03593	0.0009
293.15	0.0869	0.03519	0.00089
293.15	0.10947	0.03448	0.00088
293.15	0.12803	0.0341	0.00088
293.15	0.1494	0.03368	0.00087
293.15	0.17102	0.03322	0.00087
293.15	0.18229	0.03296	0.00086
298.15	0	0.07181	0.00141
298.15	0.00861	0.05245	0.00114
298.15	0.01457	0.04901	0.00109
298.15	0.02075	0.04629	0.00105
298.15	0.03268	0.0423	0.00099
298.15	0.0455	0.03916	0.00095
298.15	0.05436	0.03755	0.00093
298.15	0.06602	0.03604	0.00091
298.15	0.0747	0.03528	0.00089
298.15	0.0869	0.03459	0.00088
298.15	0.10947	0.03394	0.00088
298.15	0.12803	0.03359	0.00087
298.15	0.1494	0.03318	0.00087
298.15	0.17102	0.03271	0.00086
298.15	0.18229	0.03245	0.00085
303.15	0	0.07104	0.0014
303.15	0.00861	0.05218	0.00113
303.15	0.01457	0.04847	0.00108
303.15	0.02075	0.04579	0.00104
303.15	0.03268	0.04169	0.00098
303.15	0.0455	0.03843	0.00094
303.15	0.05436	0.03683	0.00092
303.15	0.06602	0.03536	0.0009
303.15	0.0747	0.0346	0.00089
303.15	0.0869	0.03385	0.00087
303.15	0.10947	0.03304	0.00086
303.15	0.12803	0.03268	0.00086
303.15	0.1494	0.03243	0.00085
303.15	0.17102	0.03227	0.00085
303.15	0.18229	0.03221	0.00085
308.15	0	0.07023	0.00138
308.15	0.00861	0.05148	0.00113
308.15	0.01457	0.04797	0.00107
308.15	0.02075	0.04531	0.00103
308.15	0.03268	0.04123	0.00098
308.15	0.0455	0.03789	0.00093
308.15	0.05436	0.03618	0.00091
308.15	0.06602	0.03461	0.00089
308.15	0.0747	0.03385	0.00087
308.15	0.0869	0.03319	0.00087
308.15	0.10947	0.03262	0.00086
308.15	0.12803	0.03235	0.00085
308.15	0.1494	0.032	0.00085
308.15	0.17102	0.03151	0.00084
308.15	0.18229	0.03121	0.00084

System: propanoic acid + water; phases: Liquid
Fixed: Pressure, kPa = 101
Property: Mass density, kg/m3 (Liquid); method: Pycnometric method
Temperature, K	Mole fraction of propanoic acid	Mass density, kg/m3	uncertainty
293.15	0	998.18	0.34
293.15	0.01457	1000.94	0.37
293.15	0.03268	1004.5	0.37
293.15	0.05436	1008.59	0.42
293.15	0.0869	1014.63	0.49
293.15	0.10191	1017.46	0.51
293.15	0.12803	1020.75	0.48
293.15	0.17102	1025.1	0.54
293.15	0.19472	1025.78	0.59
293.15	0.23182	1026.54	0.64
293.15	0.24852	1026.51	0.68
293.15	0.2755	1026.19	0.69
293.15	0.30426	1025.42	0.68
293.15	0.33298	1024.97	0.67
293.15	0.37008	1024.09	0.66
293.15	0.40007	1023.22	0.7
298.15	0	997.01	0.37
298.15	0.01457	999.46	0.39
298.15	0.03268	1002.95	0.39
298.15	0.05436	1006.51	0.43
298.15	0.0869	1011.95	0.5
298.15	0.10191	1014.23	0.54
298.15	0.12803	1017.92	0.54
298.15	0.17102	1021.28	0.63
298.15	0.19472	1022.21	0.63
298.15	0.23182	1022.48	0.67
298.15	0.24852	1022.21	0.68
298.15	0.2755	1021.74	0.69
298.15	0.30426	1021.28	0.68
298.15	0.33298	1020.74	0.68
298.15	0.37008	1019.95	0.7
298.15	0.40007	1018.88	0.72
303.15	0	995.61	0.39
303.15	0.01457	997.79	0.4
303.15	0.03268	1001.28	0.44
303.15	0.05436	1004.63	0.46
303.15	0.0869	1009.33	0.49
303.15	0.10191	1011.41	0.51
303.15	0.12803	1014.77	0.56
303.15	0.17102	1017.58	0.63
303.15	0.19472	1018.26	0.67
303.15	0.23182	1018.39	0.69
303.15	0.24852	1018.12	0.69
303.15	0.2755	1017.72	0.7
303.15	0.30426	1017.05	0.71
303.15	0.33298	1016.65	0.74
303.15	0.37008	1015.5	0.77
303.15	0.40007	1014.2	0.76
308.15	0	994	0.41
308.15	0.01457	996.38	0.41
308.15	0.03268	998.86	0.48
308.15	0.05436	1002.08	0.5
308.15	0.0869	1006.91	0.5
308.15	0.10191	1008.86	0.52
308.15	0.12803	1011.7	0.63
308.15	0.17102	1013.89	0.68
308.15	0.19472	1014.09	0.7
308.15	0.23182	1014.03	0.73
308.15	0.24852	1013.78	0.72
308.15	0.2755	1013.1	0.74
308.15	0.30426	1012.52	0.75
308.15	0.33298	1011.57	0.81
308.15	0.37008	1010.29	0.82
308.15	0.40007	1009.37	0.78

System: butanoic acid + water; phases: Liquid, Air at 1 atmosphere
Property: Surface tension liquid-gas, N/m (Liquid); method: DROPV:UFactor:4
Temperature, K	Mole fraction of butanoic acid	Surface tension liquid-gas, N/m	uncertainty
293.15	0	0.07258	0.00142
293.15	0.00475	0.0505	0.00111
293.15	0.00655	0.04588	0.00104
293.15	0.00903	0.04159	0.00098
293.15	0.00998	0.04032	0.00097
293.15	0.01274	0.03741	0.00092
293.15	0.01432	0.03611	0.00091
293.15	0.01655	0.0346	0.00088
293.15	0.03346	0.02928	0.00081
293.15	0.04522	0.02848	0.0008
293.15	0.05825	0.02846	0.0008
293.15	0.08723	0.02861	0.0008
293.15	0.09948	0.02852	0.0008
293.15	0.11469	0.02839	0.0008
293.15	0.13404	0.02824	0.0008
293.15	0.14284	0.02819	0.0008
293.15	0.17672	0.02821	0.0008
298.15	0	0.07181	0.00141
298.15	0.00475	0.05001	0.0011
298.15	0.00655	0.04532	0.00104
298.15	0.00903	0.04095	0.00097
298.15	0.00998	0.03969	0.00096
298.15	0.01274	0.03684	0.00092
298.15	0.01432	0.0356	0.0009
298.15	0.01655	0.03416	0.00088
298.15	0.03346	0.02891	0.00081
298.15	0.04522	0.02833	0.0008
298.15	0.05825	0.02838	0.0008
298.15	0.08723	0.0283	0.0008
298.15	0.09948	0.02824	0.0008
298.15	0.11469	0.02817	0.00079
298.15	0.13404	0.0281	0.00079
298.15	0.14284	0.02807	0.00079
298.15	0.17672	0.02801	0.00079
303.15	0	0.07104	0.0014
303.15	0.00475	0.04913	0.00109
303.15	0.00655	0.0447	0.00103
303.15	0.00903	0.04038	0.00097
303.15	0.00998	0.03911	0.00095
303.15	0.01274	0.03624	0.00091
303.15	0.01432	0.03499	0.00089
303.15	0.01655	0.03358	0.00087
303.15	0.03346	0.02859	0.0008
303.15	0.04522	0.02814	0.00079
303.15	0.05825	0.0281	0.00079
303.15	0.08723	0.02792	0.00079
303.15	0.09948	0.02788	0.00079
303.15	0.11469	0.02784	0.00079
303.15	0.13404	0.02782	0.00079
303.15	0.14284	0.02781	0.00079
303.15	0.17672	0.02779	0.00079
308.15	0	0.07023	0.00138
308.15	0.00475	0.04856	0.00108
308.15	0.00655	0.04405	0.00102
308.15	0.00903	0.03972	0.00096
308.15	0.00998	0.03847	0.00094
308.15	0.01274	0.03568	0.0009
308.15	0.01432	0.0345	0.00088
308.15	0.01655	0.03316	0.00086
308.15	0.03346	0.02845	0.0008
308.15	0.04522	0.02795	0.00079
308.15	0.05825	0.02787	0.00079
308.15	0.08723	0.02772	0.00079
308.15	0.09948	0.02767	0.00079
308.15	0.11469	0.02763	0.00079
308.15	0.13404	0.02758	0.00079
308.15	0.14284	0.02756	0.00079
308.15	0.17672	0.02747	0.00079

System: butanoic acid + water; phases: Liquid
Fixed: Pressure, kPa = 101
Property: Mass density, kg/m3 (Liquid); method: Pycnometric method
Temperature, K	Mole fraction of butanoic acid	Mass density, kg/m3	uncertainty
293.15	0	998.18	0.34
293.15	0.01655	1002.55	0.42
293.15	0.02141	1003.38	0.43
293.15	0.03346	1004.38	0.45
293.15	0.03727	1004.49	0.46
293.15	0.04522	1004.3	0.48
293.15	0.04995	1004.13	0.49
293.15	0.05825	1003.61	0.5
293.15	0.06959	1002.83	0.52
293.15	0.07723	1002.34	0.55
293.15	0.09004	1001.61	0.54
293.15	0.09948	1001.12	0.55
293.15	0.11715	1000.27	0.56
293.15	0.13104	999.59	0.57
293.15	0.14429	998.82	0.59
293.15	0.17672	997.16	0.59
298.15	0	997.01	0.37
298.15	0.01655	1000.29	0.45
298.15	0.02141	1001.03	0.46
298.15	0.03346	1001.93	0.47
298.15	0.03727	1001.94	0.48
298.15	0.04522	1001.66	0.49
298.15	0.04995	1001.39	0.5
298.15	0.05825	1000.77	0.51
298.15	0.06959	999.9	0.52
298.15	0.07723	999.13	0.56
298.15	0.09004	998.48	0.55
298.15	0.09948	997.91	0.56
298.15	0.11715	996.95	0.57
298.15	0.13104	996.11	0.59
298.15	0.14429	995.31	0.59
298.15	0.17672	993.56	0.6
303.15	0	995.61	0.39
303.15	0.01655	998.03	0.46
303.15	0.02141	998.67	0.47
303.15	0.03346	999.47	0.48
303.15	0.03727	999.38	0.49
303.15	0.04522	999.01	0.5
303.15	0.04995	998.64	0.51
303.15	0.05825	997.92	0.52
303.15	0.06959	996.96	0.53
303.15	0.07723	995.79	0.56
303.15	0.09004	995.24	0.57
303.15	0.09948	994.7	0.56
303.15	0.11715	993.63	0.57
303.15	0.13104	992.63	0.59
303.15	0.14429	991.8	0.6
303.15	0.17672	989.96	0.6
308.15	0	994	1
308.15	0.01655	995.86	0.46
308.15	0.02141	996.41	0.48
308.15	0.03346	997.11	0.5
308.15	0.03727	996.93	0.49
308.15	0.04522	996.46	0.51
308.15	0.04995	995.99	0.51
308.15	0.05825	995.18	0.52
308.15	0.06959	994.11	0.56
308.15	0.07723	992.85	0.51
308.15	0.09004	991.96	0.57
308.15	0.09948	991.51	0.58
308.15	0.11715	990.42	0.58
308.15	0.13104	989.31	0.58
308.15	0.14429	988.32	0.59
308.15	0.17672	986.45	0.61

System: pentanoic acid + water; phases: Liquid, Air at 1 atmosphere
Property: Surface tension liquid-gas, N/m (Liquid); method: DROPV:UFactor:4
Temperature, K	Mole fraction of pentanoic acid	Surface tension liquid-gas, N/m	uncertainty
293.15	0	0.07258	0.00142
293.15	0.00016	0.06392	0.0013
293.15	0.00048	0.05745	0.0012
293.15	0.00056	0.05619	0.00119
293.15	0.00083	0.05245	0.00113
293.15	0.00099	0.05054	0.00111
293.15	0.00121	0.04825	0.00108
293.15	0.0015	0.04582	0.00104
293.15	0.00173	0.04426	0.00102
293.15	0.00196	0.04294	0.001
293.15	0.00219	0.04178	0.00099
293.15	0.00259	0.03997	0.00096
293.15	0.00283	0.03897	0.00095
293.15	0.00299	0.03832	0.00094
293.15	0.00326	0.03725	0.00092
293.15	0.00349	0.03638	0.00091
298.15	0	0.07181	0.00141
298.15	0.00016	0.06463	0.00131
298.15	0.00048	0.0574	0.0012
298.15	0.00056	0.05609	0.00119
298.15	0.00083	0.05212	0.00113
298.15	0.00099	0.05005	0.0011
298.15	0.00121	0.04766	0.00107
298.15	0.0015	0.04532	0.00103
298.15	0.00173	0.04388	0.00101
298.15	0.00196	0.04257	0.001
298.15	0.00219	0.04126	0.00098
298.15	0.00259	0.03916	0.00095
298.15	0.00283	0.03818	0.00094
298.15	0.00299	0.0376	0.00093
298.15	0.00326	0.03651	0.00091
298.15	0.00349	0.03561	0.0009
303.15	0	0.07104	0.0014
303.15	0.00016	0.0636	0.00129
303.15	0.00048	0.05682	0.0012
303.15	0.00056	0.05549	0.00118
303.15	0.00083	0.05163	0.00112
303.15	0.00099	0.04971	0.0011
303.15	0.00121	0.04743	0.00106
303.15	0.0015	0.04493	0.00103
303.15	0.00173	0.04328	0.00101
303.15	0.00196	0.04186	0.00099
303.15	0.00219	0.04063	0.00097
303.15	0.00259	0.0388	0.00094
303.15	0.00283	0.03781	0.00093
303.15	0.00299	0.03718	0.00092
303.15	0.00326	0.0361	0.00091
303.15	0.00349	0.03515	0.00089
308.15	0	0.07023	0.00138
308.15	0.00016	0.06301	0.00128
308.15	0.00048	0.05637	0.00119
308.15	0.00056	0.05507	0.00117
308.15	0.00083	0.05127	0.00112
308.15	0.00099	0.04938	0.00109
308.15	0.00121	0.04713	0.00106
308.15	0.0015	0.04464	0.00103
308.15	0.00173	0.043	0.001
308.15	0.00196	0.04159	0.00098
308.15	0.00219	0.04036	0.00097
308.15	0.00259	0.03854	0.00094
308.15	0.00283	0.03757	0.00093
308.15	0.00299	0.03694	0.00092
308.15	0.00326	0.0359	0.0009
308.15	0.00349	0.03497	0.00089

System: pentanoic acid + water; phases: Liquid
Fixed: Pressure, kPa = 101
Property: Mass density, kg/m3 (Liquid); method: Pycnometric method
Temperature, K	Mole fraction of pentanoic acid	Mass density, kg/m3	uncertainty
293.15	0.00015	998.24	0.34
293.15	0.00043	998.28	0.34
293.15	0.0006	998.31	0.34
293.15	0.00106	998.36	0.35
293.15	0.00143	998.42	0.35
293.15	0.00148	998.43	0.35
293.15	0.0018	998.47	0.35
293.15	0.00195	998.49	0.35
293.15	0.00205	998.5	0.35
293.15	0.00222	998.52	0.35
293.15	0.00228	998.54	0.35
293.15	0.0025	998.56	0.35
293.15	0.00271	998.58	0.35
293.15	0.00289	998.62	0.35
293.15	0.00305	998.63	0.35
293.15	0.0035	998.69	0.35
298.15	0.00015	997.08	0.37
298.15	0.00043	997.12	0.37
298.15	0.0006	997.14	0.37
298.15	0.00106	997.18	0.37
298.15	0.00143	997.22	0.37
298.15	0.00148	997.23	0.37
298.15	0.0018	997.25	0.37
298.15	0.00195	997.28	0.37
298.15	0.00205	997.29	0.37
298.15	0.00222	997.29	0.37
298.15	0.00228	997.31	0.37
298.15	0.0025	997.33	0.37
298.15	0.00271	997.35	0.37
298.15	0.00289	997.37	0.37
298.15	0.00305	997.4	0.37
298.15	0.0035	997.43	0.37
303.15	0.00015	995.67	0.39
303.15	0.00043	995.68	0.4
303.15	0.0006	995.72	0.4
303.15	0.00106	995.77	0.4
303.15	0.00143	995.77	0.4
303.15	0.00148	995.79	0.4
303.15	0.0018	995.81	0.4
303.15	0.00195	995.82	0.4
303.15	0.00205	995.83	0.4
303.15	0.00222	995.83	0.4
303.15	0.00228	995.84	0.4
303.15	0.0025	995.86	0.4
303.15	0.00271	995.88	0.4
303.15	0.00289	995.89	0.4
303.15	0.00305	995.91	0.4
303.15	0.0035	995.94	0.4
308.15	0.00015	994.07	0.41
308.15	0.00043	994.07	0.41
308.15	0.0006	994.09	0.42
308.15	0.00106	994.1	0.42
308.15	0.00143	994.12	0.42
308.15	0.00148	994.12	0.42
308.15	0.0018	994.13	0.42
308.15	0.00195	994.15	0.42
308.15	0.00205	994.14	0.42
308.15	0.00222	994.16	0.42
308.15	0.00228	994.16	0.42
308.15	0.0025	994.18	0.42
308.15	0.00271	994.19	0.42
308.15	0.00289	994.19	0.42
308.15	0.00305	994.21	0.42
308.15	0.0035	994.23	0.42

System: hexanoic acid + water; phases: Liquid, Air at 1 atmosphere
Property: Surface tension liquid-gas, N/m (Liquid); method: DROPV:UFactor:4
Temperature, K	Mole fraction of hexanoic acid	Surface tension liquid-gas, N/m	uncertainty
293.15	0	0.07258	0.00142
293.15	8e-05	0.06326	0.00129
293.15	0.00016	0.0566	0.00119
293.15	0.00023	0.05229	0.00113
293.15	0.00032	0.04825	0.00108
293.15	0.00037	0.04655	0.00105
293.15	0.00046	0.04403	0.00102
293.15	0.00051	0.04283	0.001
293.15	0.00062	0.04057	0.00097
293.15	0.00069	0.03919	0.00095
293.15	0.00077	0.03772	0.00093
293.15	0.00084	0.03664	0.00091
293.15	0.00091	0.03566	0.0009
293.15	0.0011	0.03379	0.00087
293.15	0.00115	0.03355	0.00087
298.15	0	0.07181	0.00141
298.15	8e-05	0.06269	0.00128
298.15	0.00016	0.05602	0.00118
298.15	0.00023	0.0518	0.00113
298.15	0.00032	0.04798	0.00107
298.15	0.00037	0.04617	0.00105
298.15	0.00046	0.04354	0.00101
298.15	0.00051	0.04262	0.001
298.15	0.00062	0.0406	0.00097
298.15	0.00069	0.03902	0.00095
298.15	0.00077	0.03736	0.00092
298.15	0.00084	0.03628	0.00091
298.15	0.00091	0.03523	0.00089
298.15	0.0011	0.03317	0.00086
298.15	0.00115	0.03294	0.00086
303.15	0	0.07104	0.0014
303.15	8e-05	0.06267	0.00128
303.15	0.00016	0.05609	0.00119
303.15	0.00023	0.05181	0.00113
303.15	0.00032	0.04793	0.00107
303.15	0.00037	0.04598	0.00104
303.15	0.00046	0.04322	0.00101
303.15	0.00051	0.04244	0.00099
303.15	0.00062	0.04057	0.00097
303.15	0.00069	0.03898	0.00095
303.15	0.00077	0.03736	0.00092
303.15	0.00084	0.03621	0.00091
303.15	0.00091	0.03504	0.00089
303.15	0.0011	0.03282	0.00086
303.15	0.00115	0.03257	0.00086
308.15	0	0.07023	0.00138
308.15	8e-05	0.06216	0.00127
308.15	0.00016	0.05602	0.00118
308.15	0.00023	0.05194	0.00113
308.15	0.00032	0.04806	0.00107
308.15	0.00037	0.04629	0.00105
308.15	0.00046	0.04367	0.00101
308.15	0.00051	0.0426	0.001
308.15	0.00062	0.04045	0.00097
308.15	0.00069	0.03889	0.00094
308.15	0.00077	0.0372	0.00092
308.15	0.00084	0.03607	0.00091
308.15	0.00091	0.03496	0.00089
308.15	0.0011	0.03246	0.00085
308.15	0.00115	0.03211	0.00085

System: hexanoic acid + water; phases: Liquid
Fixed: Pressure, kPa = 101
Property: Mass density, kg/m3 (Liquid); method: Pycnometric method
Temperature, K	Mole fraction of hexanoic acid	Mass density, kg/m3	uncertainty
293.15	0.00015	998.24	0.34
293.15	0.00043	998.28	0.34
293.15	0.0006	998.31	0.34
293.15	0.00106	998.36	0.35
293.15	0.00143	998.42	0.35
293.15	0.00148	998.43	0.35
293.15	0.0018	998.47	0.35
293.15	0.00195	998.49	0.35
293.15	0.00205	998.5	0.35
293.15	0.00222	998.52	0.35
293.15	0.00228	998.54	0.35
293.15	0.0025	998.56	0.35
293.15	0.00271	998.58	0.35
293.15	0.00289	998.62	0.35
293.15	0.00305	998.63	0.35
293.15	0.0035	998.69	0.35
298.15	0.00015	997.08	0.37
298.15	0.00043	997.12	0.37
298.15	0.0006	997.14	0.37
298.15	0.00106	997.18	0.37
298.15	0.00143	997.22	0.37
298.15	0.00148	997.23	0.37
298.15	0.0018	997.25	0.37
298.15	0.00195	997.28	0.37
298.15	0.00205	997.29	0.37
298.15	0.00222	997.29	0.37
298.15	0.00228	997.31	0.37
298.15	0.0025	997.33	0.37
298.15	0.00271	997.35	0.37
298.15	0.00289	997.37	0.37
298.15	0.00305	997.4	0.37
298.15	0.0035	997.43	0.37
303.15	0.00015	995.67	0.39
303.15	0.00043	995.68	0.4
303.15	0.0006	995.72	0.4
303.15	0.00106	995.77	0.4
303.15	0.00143	995.77	0.4
303.15	0.00148	995.79	0.4
303.15	0.0018	995.81	0.4
303.15	0.00195	995.82	0.4
303.15	0.00205	995.83	0.4
303.15	0.00222	995.83	0.4
303.15	0.00228	995.84	0.4
303.15	0.0025	995.86	0.4
303.15	0.00271	995.88	0.4
303.15	0.00289	995.89	0.4
303.15	0.00305	995.91	0.4
303.15	0.0035	995.94	0.4
308.15	0.00015	994.07	0.41
308.15	0.00043	994.07	0.41
308.15	0.0006	994.09	0.42
308.15	0.00106	994.1	0.42
308.15	0.00143	994.12	0.42
308.15	0.00148	994.12	0.42
308.15	0.0018	994.13	0.42
308.15	0.00195	994.15	0.42
308.15	0.00205	994.14	0.42
308.15	0.00222	994.16	0.42
308.15	0.00228	994.16	0.42
308.15	0.0025	994.18	0.42
308.15	0.00271	994.19	0.42
308.15	0.00289	994.19	0.42
308.15	0.00305	994.21	0.42
308.15	0.0035	994.23	0.42
