Measured thermophysical data. Densities, Viscosities, and Surface Tensions of the System Water + Diethylene Glycol
Source: J. Chem. Eng. Data, 2011, 10.1021/je1009976
Compound 1: diethylene glycol, C4H10O3, InChI=1S/C4H10O3/c5-1-3-7-4-2-6/h5-6H,1-4H2, purity 99%
Compound 2: water, H2O, InChI=1S/H2O/h1H2, purity 99.9%

System: diethylene glycol; phases: Liquid
Fixed: Pressure, kPa = 101
Property: Viscosity, Pa*s (Liquid); method: Capillary tube (Ostwald; Ubbelohde) method
Temperature, K	Viscosity, Pa*s	uncertainty
303.15	0.022156	0.000456
308.15	0.017934	0.000442
313.15	0.014706	0.000427
318.15	0.012191	0.000418
323.15	0.010195	0.000413

System: diethylene glycol; phases: Liquid
Fixed: Pressure, kPa = 101
Property: Mass density, kg/m3 (Liquid); method: Pycnometric method
Temperature, K	Mass density, kg/m3	uncertainty
303.15	1109.48	0.75
308.15	1105.72	0.75
313.15	1102.11	0.76
318.15	1098.35	0.76
323.15	1094.94	0.75

System: diethylene glycol + water; phases: Liquid
Fixed: Pressure, kPa = 101
Property: Viscosity, Pa*s (Liquid); method: Capillary tube (Ostwald; Ubbelohde) method
Temperature, K	Mole fraction of diethylene glycol	Viscosity, Pa*s	uncertainty
303.15	0	0.000801	0.0004
303.15	0.05006	0.001556	0.0004
303.15	0.10162	0.002582	0.000401
303.15	0.15119	0.00383	0.000401
303.15	0.20121	0.005261	0.000402
303.15	0.24774	0.006653	0.000404
303.15	0.29804	0.008301	0.000405
303.15	0.35046	0.009851	0.000408
303.15	0.44827	0.012538	0.000414
303.15	0.54213	0.01506	0.00042
303.15	0.65175	0.01746	0.00043
303.15	0.75248	0.019297	0.000439
303.15	0.78643	0.019903	0.000441
303.15	0.84987	0.02061	0.000446
303.15	0.90053	0.021307	0.000449
303.15	0.95032	0.021741	0.000454
303.15	1	0.022156	0.000456
308.15	0	0.000722	0.0004
308.15	0.05006	0.00137	0.0004
308.15	0.10162	0.002242	0.0004
308.15	0.15119	0.003286	0.000401
308.15	0.20121	0.004448	0.000402
308.15	0.24774	0.005591	0.000403
308.15	0.29804	0.00691	0.000404
308.15	0.35046	0.008154	0.000407
308.15	0.44827	0.010291	0.000411
308.15	0.54213	0.012284	0.000417
308.15	0.65175	0.014112	0.000423
308.15	0.75248	0.015645	0.000429
308.15	0.78643	0.016124	0.000431
308.15	0.84987	0.016738	0.000434
308.15	0.90053	0.01723	0.000438
308.15	0.95032	0.017529	0.00044
308.15	1	0.017934	0.000442
313.15	0	0.000656	0.0004
313.15	0.05006	0.001222	0.0004
313.15	0.10162	0.001962	0.0004
313.15	0.15119	0.002833	0.000401
313.15	0.20121	0.003806	0.000401
313.15	0.24774	0.004739	0.000402
313.15	0.29804	0.00582	0.000403
313.15	0.35046	0.006821	0.000404
313.15	0.44827	0.008514	0.000407
313.15	0.54213	0.010145	0.000411
313.15	0.65175	0.011634	0.000414
313.15	0.75248	0.012824	0.000419
313.15	0.78643	0.013229	0.00042
313.15	0.84987	0.013728	0.000422
313.15	0.90053	0.014081	0.000424
313.15	0.95032	0.014408	0.000425
313.15	1	0.014706	0.000427
318.15	0	0.000598	0.0004
318.15	0.05006	0.001091	0.0004
318.15	0.10162	0.001729	0.0004
318.15	0.15119	0.002459	0.0004
318.15	0.20121	0.003286	0.000401
318.15	0.24774	0.004052	0.000401
318.15	0.29804	0.004962	0.000402
318.15	0.35046	0.005768	0.000403
318.15	0.44827	0.007148	0.000405
318.15	0.54213	0.008478	0.000407
318.15	0.65175	0.009672	0.00041
318.15	0.75248	0.010647	0.000412
318.15	0.78643	0.010956	0.000413
318.15	0.84987	0.011423	0.000415
318.15	0.90053	0.011689	0.000415
318.15	0.95032	0.011921	0.000416
318.15	1	0.012191	0.000418
323.15	0	0.000549	0.0004
323.15	0.05006	0.000985	0.0004
323.15	0.10162	0.001535	0.0004
323.15	0.15119	0.002161	0.0004
323.15	0.20121	0.002846	0.000401
323.15	0.24774	0.003506	0.000401
323.15	0.29804	0.004252	0.000402
323.15	0.35046	0.004929	0.000402
323.15	0.44827	0.006071	0.000404
323.15	0.54213	0.007143	0.000406
323.15	0.65175	0.008114	0.000408
323.15	0.75248	0.008937	0.000409
323.15	0.78643	0.00919	0.00041
323.15	0.84987	0.009461	0.000411
323.15	0.90053	0.009799	0.000412
323.15	0.95032	0.009999	0.000412
323.15	1	0.010195	0.000413

System: diethylene glycol + water; phases: Liquid
Fixed: Pressure, kPa = 101
Property: Mass density, kg/m3 (Liquid); method: Pycnometric method
Temperature, K	Mole fraction of diethylene glycol	Mass density, kg/m3	uncertainty
303.15	0	995.6	0.37
303.15	0.05006	1028.38	0.35
303.15	0.10162	1051.83	0.34
303.15	0.15119	1067.99	0.35
303.15	0.20121	1078.71	0.51
303.15	0.24774	1086.55	0.52
303.15	0.29804	1092.27	0.56
303.15	0.35046	1096.22	0.58
303.15	0.44827	1101.17	0.55
303.15	0.54213	1103.74	0.63
303.15	0.65175	1106.25	0.64
303.15	0.75248	1107.78	0.68
303.15	0.78643	1107.94	0.7
303.15	0.84987	1108.55	0.69
303.15	0.90053	1108.84	0.73
303.15	0.95032	1109.66	0.74
303.15	1	1109.48	0.75
308.15	0	994.12	0.39
308.15	0.05006	1026.09	0.47
308.15	0.10162	1048.94	0.53
308.15	0.15119	1065.34	0.54
308.15	0.20121	1075.25	0.6
308.15	0.24774	1082.95	0.61
308.15	0.29804	1088.52	0.63
308.15	0.35046	1092.42	0.65
308.15	0.44827	1097.58	0.65
308.15	0.54213	1100.11	0.66
308.15	0.65175	1102.58	0.67
308.15	0.75248	1103.95	0.7
308.15	0.78643	1104.26	0.7
308.15	0.84987	1104.93	0.7
308.15	0.90053	1105.16	0.72
308.15	0.95032	1105.58	0.75
308.15	1	1105.72	0.75
313.15	0	992.25	0.42
313.15	0.05006	1023.67	0.49
313.15	0.10162	1046.02	0.54
313.15	0.15119	1062.04	0.58
313.15	0.20121	1071.77	0.61
313.15	0.24774	1079.42	0.62
313.15	0.29804	1084.97	0.61
313.15	0.35046	1088.68	0.65
313.15	0.44827	1093.68	0.67
313.15	0.54213	1096.37	0.65
313.15	0.65175	1098.97	0.67
313.15	0.75248	1100.25	0.7
313.15	0.78643	1100.56	0.7
313.15	0.84987	1101.32	0.71
313.15	0.90053	1101.55	0.72
313.15	0.95032	1101.98	0.74
313.15	1	1102.11	0.76
318.15	0	990.3	0.44
318.15	0.05006	1021.08	0.51
318.15	0.10162	1043.03	0.55
318.15	0.15119	1058.72	0.6
318.15	0.20121	1068.24	0.63
318.15	0.24774	1075.76	0.63
318.15	0.29804	1081.58	0.65
318.15	0.35046	1084.97	0.65
318.15	0.44827	1089.91	0.67
318.15	0.54213	1092.91	0.67
318.15	0.65175	1095.29	0.7
318.15	0.75248	1096.58	0.68
318.15	0.78643	1096.89	0.7
318.15	0.84987	1097.62	0.72
318.15	0.90053	1097.87	0.73
318.15	0.95032	1098.33	0.75
318.15	1	1098.35	0.76
323.15	0	988.1	0.46
323.15	0.05006	1018.36	0.9
323.15	0.10162	1039.94	0.79
323.15	0.15119	1055.2	0.86
323.15	0.20121	1064.5	0.68
323.15	0.24774	1072.18	0.74
323.15	0.29804	1077.47	0.77
323.15	0.35046	1081.16	0.72
323.15	0.44827	1086.1	0.75
323.15	0.54213	1088.98	0.73
323.15	0.65175	1091.34	0.73
323.15	0.75248	1093.18	0.7
323.15	0.78643	1093.37	0.69
323.15	0.84987	1093.91	0.74
323.15	0.90053	1094.19	0.74
323.15	0.95032	1094.55	0.76
323.15	1	1094.94	0.75
