Measured thermophysical data. Acoustic and Thermodynamic Properties of 2-Ethyl-1-hexanol by Means of High-Pressure Speed of Sound Measurements at Temperatures from (293 to 318) K and Pressures up to 101 MPa
Source: J. Chem. Eng. Data, 2011, 10.1021/je100927m
Compound 1: 2-ethyl-1-hexanol, C8H18O, InChI=1S/C8H18O/c1-3-5-6-8(4-2)7-9/h8-9H,3-7H2,1-2H3, purity 99.6%

System: 2-ethyl-1-hexanol; phases: Liquid
Property: Refractive index (Na D-line) (Liquid); method: Standard Abbe refractometry
Temperature, K	Pressure, kPa	Refractive index (Na D-line)	uncertainty
298.15	101.325	1.4292	0.0009

System: 2-ethyl-1-hexanol; phases: Liquid
Fixed: Pressure, kPa = 101.325
Property: Mass density, kg/m3 (Liquid); method: VIBTUB:UFactor:2
Temperature, K	Mass density, kg/m3	uncertainty
283.15	839.89	0.23
288.15	836.26	0.23
293.15	832.62	0.23
298.14	828.96	0.24
303.15	825.28	0.24
308.15	821.58	0.24
313.14	817.86	0.24
318.15	814.11	0.25
323.15	810.33	0.25
328.15	806.52	0.25
333.15	802.68	0.25
338.14	798.8	0.26
343.15	794.87	0.26
348.15	790.91	0.26
353.15	786.89	0.27
358.15	782.83	0.27
363.15	778.72	0.27

System: 2-ethyl-1-hexanol; phases: Liquid
Property: Speed of sound, m/s (Liquid); method: Pulse-echo method
Pressure, kPa	Temperature, K	Speed of sound, m/s	uncertainty
101	293.15	1336.28	1.02
101	298.15	1318.44	1.01
101	303.15	1300.61	1.01
101	308.15	1282.77	1
101	313.15	1264.94	0.99
101	318.15	1247.1	0.98
15200	292.89	1418.51	1.05
15200	298.19	1400.23	1.07
15200	303.15	1383.53	1.06
15200	308.13	1367.15	1.05
15200	313.1	1351.15	1.04
15200	318.26	1334.79	1.07
30390	292.89	1487.16	1.13
30390	298.19	1470.11	1.14
30390	303.15	1454.42	1.13
30390	308.13	1438.87	1.13
30390	313.1	1423.98	1.12
30390	318.26	1408.75	1.13
45590	292.89	1549.63	1.22
45590	298.19	1533.2	1.22
45590	303.15	1518.4	1.21
45590	308.13	1503.82	1.21
45590	313.1	1489.57	1.21
45590	318.26	1475.22	1.21
60790	292.89	1607.23	1.3
60790	298.19	1591.51	1.3
60790	303.15	1577.48	1.3
60790	308.13	1563.46	1.29
60790	313.1	1549.74	1.29
60790	318.26	1535.88	1.3
75990	292.89	1660.42	1.37
75990	298.19	1645.44	1.38
75990	303.15	1631.84	1.37
75990	308.13	1618.57	1.37
75990	313.1	1605.47	1.37
75990	318.26	1592.22	1.38
91180	292.89	1710.47	1.46
91180	298.19	1695.97	1.46
91180	303.15	1682.67	1.46
91180	308.13	1669.75	1.46
91180	313.1	1657.18	1.46
91180	318.26	1644.45	1.46
101320	292.89	1741.98	1.51
101320	298.19	1728	1.51
101320	303.15	1715.06	1.52
101320	308.13	1702.55	1.51
101320	313.1	1689.92	1.51
101320	318.26	1677.39	1.51
