Measured thermophysical data. Isothermal Vapor-Liquid Equilibrium for Methanol and 2,3-Dimethyl-1-butene at 343.06 K, 353.27 K, 363.19 K, and 372.90 K
Source: J. Chem. Eng. Data, 2011, 10.1021/je101304x
Compound 1: methanol, CH4O, InChI=1S/CH4O/c1-2/h2H,1H3, purity 99.4%
Compound 2: 2,3-dimethyl-1-butene, C6H12, InChI=1S/C6H12/c1-5(2)6(3)4/h6H,1H2,2-4H3, purity 99.5%
Compound 3: benzene, C6H6, InChI=1S/C6H6/c1-2-4-6-5-3-1/h1-6H, purity 99.5%
Compound 4: cyclohexane, C6H12, InChI=1S/C6H12/c1-2-4-6-5-3-1/h1-6H2, purity 99.8%

System: methanol; phases: Liquid, Gas
Property: Vapor or sublimation pressure, kPa (Liquid); method: Ebulliometric method (Recirculating still)
Temperature, K	Vapor or sublimation pressure, kPa	uncertainty
333.42	85.4	1.2
334.56	89.5	1.2
337.65	101.3	1.2
342.17	120.9	1.3
343.06	124.8	1.5
346.64	142.6	1.4
350.25	163.2	1.5
353.17	181	1.5
353.27	181.7	1.7
356.35	202.7	1.6
358.91	221.3	1.7
361.45	241.4	1.8
363.19	255.9	2.1
363.85	261.6	1.9
366.88	288.9	2
370.13	321.3	2.1
372.04	341.2	2.3
372.9	350.9	2.4
375.89	385.4	2.3

System: 2,3-dimethyl-1-butene; phases: Liquid, Gas
Property: Vapor or sublimation pressure, kPa (Liquid); method: Ebulliometric method (Recirculating still)
Temperature, K	Vapor or sublimation pressure, kPa	uncertainty
341.87	153.7	1.3
343.06	158.1	1.5
343.95	162.3	1.3
345.83	171.3	1.3
347.12	178.2	1.4
348.71	186.4	1.4
350.49	196.3	1.4
352.78	208.6	1.4
353.27	211.3	1.7
354.06	216.3	1.5
356.15	228.9	1.5
358.73	244.9	1.5
361.3	262.1	1.6
362.89	273.7	1.7
363.19	275.3	1.9
364.38	284.9	1.6
365.57	292.7	1.7
366.96	303.8	1.8
368.24	313.9	1.7
369.04	319.7	1.7
370.13	328.6	1.8
371.12	336.4	1.8
372.21	346.1	1.9
372.9	351.5	2.2
373.7	358.8	1.9
374.59	366.7	1.9
375.19	372.1	1.9
375.78	377.4	1.9
376.87	386.8	1.9
377.37	391.7	2

System: benzene; phases: Liquid, Gas
Property: Vapor or sublimation pressure, kPa (Liquid); method: Ebulliometric method (Recirculating still)
Temperature, K	Vapor or sublimation pressure, kPa	uncertainty
403.15	379.3	4.1

System: cyclohexane; phases: Liquid, Gas
Property: Vapor or sublimation pressure, kPa (Liquid); method: Ebulliometric method (Recirculating still)
Temperature, K	Vapor or sublimation pressure, kPa	uncertainty
403.15	362.8	3.9

System: benzene + cyclohexane; phases: Liquid, Gas
Fixed: Temperature, K = 403.15
Property: Vapor or sublimation pressure, kPa (Liquid); method: Ebulliometric method (Recirculating still)
Mole fraction of benzene	Vapor or sublimation pressure, kPa	uncertainty
0	362.8	3.7
0.1107	372.8	3.8
0.1676	377.6	3.8
0.2184	381.2	3.9
0.2715	385.1	3.9
0.3402	389	3.9
0.3948	391.9	3.9
0.4408	393.5	4
0.4986	395	4
0.5552	396.1	4
0.6048	396.5	4
0.7382	394.5	4
0.8537	388.8	3.9
1	379.3	3.8

System: benzene + cyclohexane; phases: Gas, Liquid
Fixed: Temperature, K = 403.15
Property: Mole fraction of benzene (Gas); method: CHROM:UFactor:4
Mole fraction of benzene	Mole fraction of benzene	uncertainty
0	0	
0.1107	0.1301	0.0102
0.1676	0.1943	0.0109
0.2184	0.2426	0.0119
0.2715	0.3005	0.0133
0.3402	0.3645	0.015
0.3948	0.4213	0.0166
0.4408	0.456	0.018
0.4986	0.5083	0.0192
0.5552	0.5619	0.0172
0.6048	0.6017	0.0159
0.7382	0.7276	0.0125
0.8537	0.8441	0.0102
1	1	

System: methanol + 2,3-dimethyl-1-butene; phases: Liquid, Gas
Property: Vapor or sublimation pressure, kPa (Liquid); method: Ebulliometric method (Recirculating still)
Mole fraction of methanol	Temperature, K	Vapor or sublimation pressure, kPa	uncertainty
0	343.06	158.1	1.5
0	353.27	211.3	1.7
0	363.19	275.3	1.9
0	372.9	351.5	2.2
0.0295	363.19	331.4	9.8
0.0535	372.9	460.8	15.9
0.0651	372.9	491.1	8
0.0679	363.19	386.5	6.5
0.0782	353.27	315.2	7.2
0.0875	343.06	221.7	4.2
0.1035	353.27	322.8	2.5
0.1053	372.9	530.1	6.1
0.1184	363.19	422	3.6
0.1303	343.06	230.5	2.4
0.1327	372.9	550.1	4.9
0.1769	372.9	575.5	3.8
0.1858	363.19	442.7	3.3
0.1943	353.27	336.1	2.8
0.2162	353.27	338	2.5
0.2351	343.06	244	2.3
0.2429	363.19	452.3	3.2
0.278	353.27	342.4	2.6
0.2846	372.9	600.1	3.7
0.2937	343.06	244.8	2.2
0.3101	363.19	461.2	3.2
0.333	353.27	343.6	2.5
0.3444	343.06	245.7	2.2
0.3793	372.9	610.1	3.7
0.3871	363.19	465.6	3.2
0.3948	353.27	345.1	2.6
0.4282	372.9	614	3.8
0.4318	363.19	466.3	3.2
0.4525	353.27	346.6	2.6
0.4564	343.06	247	2.2
0.4727	372.9	618.6	3.8
0.4961	343.06	245.8	2.2
0.499	363.19	467	3.2
0.4996	353.27	346.5	2.6
0.5064	372.9	618.2	3.8
0.5312	353.27	346.2	2.6
0.5505	343.06	245.1	2.3
0.5824	372.9	615.1	3.7
0.5833	363.19	466.3	3.2
0.5872	353.27	345.3	2.6
0.6073	343.06	243.6	2.3
0.6557	363.19	463.6	3.2
0.6596	353.27	343	2.6
0.6596	372.9	610.9	3.7
0.661	343.06	243.2	2.2
0.7063	353.27	341.4	2.5
0.7101	343.06	241.5	2.3
0.7223	372.9	606.9	3.8
0.7262	363.19	456.7	3.3
0.7382	353.27	338.1	2.8
0.7669	343.06	236.1	2.5
0.7821	372.9	591.2	4.2
0.7884	353.27	332.6	3.8
0.818	363.19	443.2	3.9
0.8932	372.9	538.7	4.9
0.9009	343.06	210.6	2.3
0.9178	363.19	388.2	4.9
0.9406	343.06	186.9	4.1
0.9406	372.9	489.1	8.8
0.9571	353.27	249.7	10.1
0.9633	343.06	172.6	5.7
0.9707	363.19	325.1	8.9
0.9738	372.9	425.3	13.8
0.9816	353.27	212.3	9.9
0.9841	343.06	147.2	7.4
0.9945	343.06	134.9	6.7
0.9972	363.19	263.4	6.1
0.9995	353.27	183.2	1.8
0.9996	343.06	126.1	1.6
0.9997	372.9	354.6	2.6
1	343.06	124.8	1.5
1	353.27	181.7	1.7
1	363.19	255.9	2.1
1	372.9	350.9	2.4

System: methanol + 2,3-dimethyl-1-butene; phases: Gas, Liquid
Property: Mole fraction of methanol (Gas); method: CHROM:UFactor:3
Mole fraction of methanol	Temperature, K	Mole fraction of methanol	uncertainty
0	343.06	0	
0	353.27	0	
0	363.19	0	
0	372.9	0	
0.0295	363.19	0.1895	0.0285
0.0535	372.9	0.2678	0.0188
0.0651	372.9	0.2997	0.0143
0.0679	363.19	0.3137	0.016
0.0782	353.27	0.3528	0.0255
0.0875	343.06	0.3241	0.0203
0.1035	353.27	0.3718	0.0116
0.1053	372.9	0.3615	0.0141
0.1184	363.19	0.379	0.012
0.1303	343.06	0.3595	0.0114
0.1327	372.9	0.3979	0.0126
0.1769	372.9	0.4165	0.0125
0.1858	363.19	0.4197	0.0127
0.1943	353.27	0.4059	0.0122
0.2162	353.27	0.4134	0.0123
0.2351	343.06	0.4035	0.0122
0.2429	363.19	0.4378	0.0129
0.278	353.27	0.4243	0.0125
0.2846	372.9	0.4659	0.0136
0.2937	343.06	0.4173	0.0123
0.3101	363.19	0.4571	0.0132
0.333	353.27	0.4365	0.0127
0.3444	343.06	0.4264	0.0125
0.3793	372.9	0.4854	0.0139
0.3871	363.19	0.4657	0.0134
0.3948	353.27	0.4391	0.0128
0.4282	372.9	0.4969	0.0142
0.4318	363.19	0.4706	0.0136
0.4525	353.27	0.4469	0.013
0.4564	343.06	0.4287	0.0125
0.4727	372.9	0.4989	0.0142
0.4961	343.06	0.4309	0.0126
0.499	363.19	0.4845	0.0139
0.4996	353.27	0.4489	0.013
0.5064	372.9	0.5013	0.0142
0.5312	353.27	0.4533	0.0131
0.5505	343.06	0.4347	0.0127
0.5824	372.9	0.5049	0.0141
0.5833	363.19	0.4916	0.014
0.5872	353.27	0.4609	0.0133
0.6073	343.06	0.4412	0.0129
0.6557	363.19	0.5028	0.0142
0.6596	353.27	0.4689	0.0135
0.6596	372.9	0.5235	0.0138
0.661	343.06	0.4516	0.0131
0.7063	353.27	0.4794	0.0138
0.7101	343.06	0.4616	0.0133
0.7223	372.9	0.5391	0.0134
0.7262	363.19	0.5089	0.0141
0.7382	353.27	0.4854	0.014
0.7669	343.06	0.4703	0.014
0.7821	372.9	0.5531	0.0134
0.7884	353.27	0.5049	0.0156
0.818	363.19	0.5439	0.0138
0.8932	372.9	0.6225	0.0127
0.9009	343.06	0.5688	0.0138
0.9178	363.19	0.6348	0.0141
0.9406	343.06	0.6361	0.0176
0.9406	372.9	0.7018	0.0175
0.9571	353.27	0.7138	0.0312
0.9633	343.06	0.7139	0.0284
0.9707	363.19	0.7817	0.0245
0.9738	372.9	0.8205	0.0305
0.9816	353.27	0.8325	0.0403
0.9841	343.06	0.8307	0.0411
0.9945	343.06	0.9296	0.0527
0.9972	363.19	0.9689	0.0215
0.9995	353.27	0.9947	0.0053
0.9996	343.06	0.9961	0.0039
0.9997	372.9	0.9968	0.0032
1	343.06	1	
1	353.27	1	
1	363.19	1	
1	372.9	1	
