Measured thermophysical data. Liquid-Liquid Equilibria for {1-Ethyl-3-methylimidazolium Diethylphosphate or 1-Ethyl-3-methylimidazolium Ethylsulfate} + 4,6-Dimethyldibenzothiophene + Dodecane Systems at 298.2 K and 313.2 K
Source: J. Chem. Eng. Data, 2011, 10.1021/je100991y
Compound 1: 1-ethyl-3-methylimidazolium diethyl phosphate, C10H21N2O4P, InChI=1S/C6H11N2.C4H11O4P/c1-3-8-5-4-7(2)6-8;1-3-7-9(5,6)8-4-2/h4-6H,3H2,1-2H3;3-4H2,1-2H3,(H,5,6)/q+1;/p-1
Compound 2: 1-ethyl-3-methylimidazolium ethyl sulfate, C8H16N2O4S, InChI=1S/C6H11N2.C2H6O4S/c1-3-8-5-4-7(2)6-8;1-2-6-7(3,4)5/h4-6H,3H2,1-2H3;2H2,1H3,(H,3,4,5)/q+1;/p-1
Compound 3: 4,6-dimethyldibenzo[b,d]thiophene, C14H12S, InChI=1S/C14H12S/c1-9-5-3-7-11-12-8-4-6-10(2)14(12)15-13(9)11/h3-8H,1-2H3
Compound 4: dodecane, C12H26, InChI=1S/C12H26/c1-3-5-7-9-11-12-10-8-6-4-2/h3-12H2,1-2H3

System: 1-ethyl-3-methylimidazolium diethyl phosphate; phases: Liquid
Fixed: Pressure, kPa = 101.325
Property: Refractive index (Na D-line) (Liquid); method: Standard Abbe refractometry
Temperature, K	Refractive index (Na D-line)	uncertainty
298.2	1.4733	0.0006
313.2	1.4691	0.0006

System: 1-ethyl-3-methylimidazolium ethyl sulfate; phases: Liquid
Fixed: Pressure, kPa = 101.325
Property: Refractive index (Na D-line) (Liquid); method: Standard Abbe refractometry
Temperature, K	Refractive index (Na D-line)	uncertainty
298.2	1.4789	0.0011
313.2	1.4745	0.0011

System: dodecane; phases: Liquid
Fixed: Pressure, kPa = 101.325
Property: Refractive index (Na D-line) (Liquid); method: Standard Abbe refractometry
Temperature, K	Refractive index (Na D-line)	uncertainty
298.2	1.4196	0.0006
313.2	1.4131	0.0006

System: dodecane + 4,6-dimethyldibenzo[b,d]thiophene; phases: Liquid, Crystal
Fixed: Pressure, kPa = 95
Property: Refractive index (Na D-line) (Liquid); method: Standard Abbe refractometry
Temperature, K	Refractive index (Na D-line)	uncertainty
298.2	1.4216	0.0006
313.2	1.4163	0.0006

System: dodecane + 4,6-dimethyldibenzo[b,d]thiophene; phases: Liquid, Crystal
Fixed: Pressure, kPa = 95
Property: Mass fraction of 4,6-dimethyldibenzo[b,d]thiophene (Liquid); method: Titration method
Temperature, K	Mass fraction of 4,6-dimethyldibenzo[b,d]thiophene	uncertainty
298.2	0.0128	0.001
313.2	0.019	0.001

System: dodecane + 4,6-dimethyldibenzo[b,d]thiophene; phases: Liquid
Fixed: Pressure, kPa = 95
Property: Refractive index (Na D-line) (Liquid); method: Standard Abbe refractometry
Temperature, K	Mass fraction of 4,6-dimethyldibenzo[b,d]thiophene	Refractive index (Na D-line)	uncertainty
298.2	0	1.4196	0.0006
298.2	0.0037	1.4201	0.0006
298.2	0.0062	1.4206	0.0006
298.2	0.0089	1.421	0.0006
313.2	0	1.4131	0.0006
313.2	0.0037	1.4137	0.0006
313.2	0.0062	1.4141	0.0006
313.2	0.0089	1.4146	0.0006

System: dodecane + 4,6-dimethyldibenzo[b,d]thiophene + 1-ethyl-3-methylimidazolium diethyl phosphate; phases: Liquid mixture 1, Liquid mixture 2
Fixed: Pressure, kPa = 95
Property: Refractive index (Na D-line) (Liquid mixture 1); method: Standard Abbe refractometry
Temperature, K	Mass fraction of 1-ethyl-3-methylimidazolium diethyl phosphate	Refractive index (Na D-line)	uncertainty
298.2	0.9921	1.4735	0.0008
298.2	0.9942	1.4733	0.0008
298.2	0.9957	1.4731	0.0008
298.2	0.9967	1.4727	0.0008
313.2	0.9873	1.4694	0.0006
313.2	0.9902	1.4691	0.0006
313.2	0.9937	1.4686	0.0006
313.2	0.9951	1.4685	0.0006

System: dodecane + 4,6-dimethyldibenzo[b,d]thiophene + 1-ethyl-3-methylimidazolium diethyl phosphate; phases: Liquid mixture 1, Liquid mixture 2
Fixed: Pressure, kPa = 95
Property: Refractive index (Na D-line) (Liquid mixture 1); method: Standard Abbe refractometry
Temperature, K	Mole fraction of 4,6-dimethyldibenzo[b,d]thiophene	Refractive index (Na D-line)	uncertainty
298.2	0.0024	1.4201	0.0008
298.2	0.0045	1.4205	0.0008
298.2	0.0065	1.4209	0.0007
313.2	0.0062	1.4144	0.0007
313.2	0.0086	1.4149	0.0007
313.2	0.0101	1.4152	0.0007

System: dodecane + 4,6-dimethyldibenzo[b,d]thiophene + 1-ethyl-3-methylimidazolium diethyl phosphate; phases: Liquid mixture 1, Liquid mixture 2
Fixed: Pressure, kPa = 95
Property: Refractive index (Na D-line) (Liquid mixture 1); method: Standard Abbe refractometry
Temperature, K	Mole fraction of 4,6-dimethyldibenzo[b,d]thiophene	Refractive index (Na D-line)	uncertainty
298.2	0.0004	1.4729	0.0008
298.2	0.0011	1.473	0.0008
298.2	0.0017	1.4731	0.0008
313.2	0.0023	1.4687	0.0006
313.2	0.0041	1.469	0.0006
313.2	0.0053	1.4693	0.0006

System: dodecane + 4,6-dimethyldibenzo[b,d]thiophene + 1-ethyl-3-methylimidazolium diethyl phosphate; phases: Liquid mixture 1, Liquid mixture 2
Fixed: Pressure, kPa = 95
Property: Mass fraction of 4,6-dimethyldibenzo[b,d]thiophene (Liquid mixture 1); method: Titration method
Temperature, K	Mass fraction of 1-ethyl-3-methylimidazolium diethyl phosphate	Mass fraction of 4,6-dimethyldibenzo[b,d]thiophene	uncertainty
298.2	0.9921	0.0035	0.0007
298.2	0.9942	0.0025	0.0007
298.2	0.9957	0.0012	0.0008
298.2	0.9967	0	
313.2	0.9873	0.0045	0.0006
313.2	0.9902	0.0037	0.0007
313.2	0.9937	0.0008	0.0008
313.2	0.9951	0	

System: dodecane + 4,6-dimethyldibenzo[b,d]thiophene + 1-ethyl-3-methylimidazolium diethyl phosphate; phases: Liquid mixture 2, Liquid mixture 1
Fixed: Pressure, kPa = 95
Property: Mole fraction of 4,6-dimethyldibenzo[b,d]thiophene (Liquid mixture 2); method: Titration method
Property: Mole fraction of 1-ethyl-3-methylimidazolium diethyl phosphate (Liquid mixture 1); method: Titration method
Property: Mole fraction of 4,6-dimethyldibenzo[b,d]thiophene (Liquid mixture 1); method: Titration method
Temperature, K	Mole fraction of 1-ethyl-3-methylimidazolium diethyl phosphate	Mole fraction of 4,6-dimethyldibenzo[b,d]thiophene	uncertainty	Mole fraction of 1-ethyl-3-methylimidazolium diethyl phosphate	uncertainty	Mole fraction of 4,6-dimethyldibenzo[b,d]thiophene	uncertainty
298.2	0.9936	0.0004	0.0004	0		0.0024	
298.2	0.993	0.0011	0.0009	0		0.0045	
298.2	0.9925	0.0017	0.0009	0		0.0065	
313.2	0.9903	0.0023	0.0007	0		0.0062	
313.2	0.9868	0.0041	0.0007	0		0.0086	
313.2	0.9833	0.0053	0.0007	0		0.0101	

System: dodecane + 4,6-dimethyldibenzo[b,d]thiophene + 1-ethyl-3-methylimidazolium ethyl sulfate; phases: Liquid mixture 1, Liquid mixture 2
Fixed: Pressure, kPa = 95
Property: Refractive index (Na D-line) (Liquid mixture 1); method: Standard Abbe refractometry
Temperature, K	Mass fraction of 1-ethyl-3-methylimidazolium ethyl sulfate	Refractive index (Na D-line)	uncertainty
298.2	0.9965	1.479	0.0009
298.2	0.997	1.4791	0.0009
298.2	0.9971	1.4789	0.0009
298.2	0.9974	1.4789	0.0009
298.2	0.9983	1.4788	0.0007
313.2	0.9945	1.4754	0.0008
313.2	0.9953	1.4751	0.0008
313.2	0.9961	1.475	0.0007
313.2	0.9986	1.4749	0.0007

System: dodecane + 4,6-dimethyldibenzo[b,d]thiophene + 1-ethyl-3-methylimidazolium ethyl sulfate; phases: Liquid mixture 1, Liquid mixture 2
Fixed: Temperature, K = 313.2
Fixed: Pressure, kPa = 95
Property: Refractive index (Na D-line) (Liquid mixture 1); method: Standard Abbe refractometry
Mole fraction of 4,6-dimethyldibenzo[b,d]thiophene	Refractive index (Na D-line)	uncertainty
0.0007	1.475	0.0009
0.0014	1.4751	0.0009
0.002	1.4752	0.0009

System: dodecane + 4,6-dimethyldibenzo[b,d]thiophene + 1-ethyl-3-methylimidazolium ethyl sulfate; phases: Liquid mixture 1, Liquid mixture 2
Fixed: Pressure, kPa = 95
Property: Refractive index (Na D-line) (Liquid mixture 1); method: Standard Abbe refractometry
Temperature, K	Mole fraction of 4,6-dimethyldibenzo[b,d]thiophene	Refractive index (Na D-line)	uncertainty
298.2	0.0027	1.4201	0.0009
298.2	0.0057	1.4207	0.0009
298.2	0.0097	1.4215	0.0009
313.2	0.0072	1.4146	0.0008
313.2	0.0106	1.4153	0.0008
313.2	0.0135	1.4159	0.0008

System: dodecane + 4,6-dimethyldibenzo[b,d]thiophene + 1-ethyl-3-methylimidazolium ethyl sulfate; phases: Liquid mixture 1, Liquid mixture 2
Fixed: Pressure, kPa = 95
Property: Mass fraction of 4,6-dimethyldibenzo[b,d]thiophene (Liquid mixture 1); method: Titration method
Temperature, K	Mass fraction of 1-ethyl-3-methylimidazolium ethyl sulfate	Mass fraction of 4,6-dimethyldibenzo[b,d]thiophene	uncertainty
298.2	0.9965	0.001	0.0008
298.2	0.997	0.0006	0.0006
298.2	0.9971	0.0004	0.0004
298.2	0.9974	0.0002	0.0002
298.2	0.9983	0	
313.2	0.9945	0.003	0.0013
313.2	0.9953	0.0014	0.0011
313.2	0.9961	0.0006	0.0006
313.2	0.9986	0	

System: dodecane + 4,6-dimethyldibenzo[b,d]thiophene + 1-ethyl-3-methylimidazolium ethyl sulfate; phases: Liquid mixture 2, Liquid mixture 1
Fixed: Pressure, kPa = 95
Property: Mole fraction of 4,6-dimethyldibenzo[b,d]thiophene (Liquid mixture 2); method: Titration method
Property: Mole fraction of 1-ethyl-3-methylimidazolium ethyl sulfate (Liquid mixture 1); method: Titration method
Property: Mole fraction of 4,6-dimethyldibenzo[b,d]thiophene (Liquid mixture 1); method: Titration method
Temperature, K	Mole fraction of 1-ethyl-3-methylimidazolium ethyl sulfate	Mole fraction of 4,6-dimethyldibenzo[b,d]thiophene	uncertainty	Mole fraction of 1-ethyl-3-methylimidazolium ethyl sulfate	uncertainty	Mole fraction of 4,6-dimethyldibenzo[b,d]thiophene	uncertainty
298.2	0.9967	0.0002	0.0002	0		0.0027	
298.2	0.9962	0.0005	0.0005	0		0.0057	
298.2	0.9961	0.0009	0.0009	0		0.0097	
313.2	0.9948	0.0007	0.0007	0		0.0072	
313.2	0.9938	0.0014	0.0007	0		0.0106	
313.2	0.9936	0.002	0.0009	0		0.0135	
