Measured thermophysical data. The Joining of Measurement and Prediction: The Enthalpy of Formation of 1,4-Cubanedicarboxylic Acid
Source: J. Chem. Eng. Data, 2011, 10.1021/je101124p
Compound 1: carbon dioxide, CO2, InChI=1S/CO2/c2-1-3
Compound 2: water, H2O, InChI=1S/H2O/h1H2
Compound 3: oxygen, O2, InChI=1S/O2/c1-2
Compound 4: pentacyclo[4.2.0.02,5.03,8.04,7]octane-1,4-dicarboxylic acid, C10H8O4, InChI=1S/C10H8O4/c11-7(12)9-1-2-4(9)6-5(9)3(1)10(2,6)8(13)14/h1-6H,(H,11,12)(H,13,14), purity 97%
Compound 5: tricyclo[3.3.1.1(3,7)]decane-1-carboxylic acid, C11H16O2, InChI=1S/C11H16O2/c12-10(13)11-4-7-1-8(5-11)3-9(2-7)6-11/h7-9H,1-6H2,(H,12,13), purity 97%

System: pentacyclo[4.2.0.02,5.03,8.04,7]octane-1,4-dicarboxylic acid; phases: Crystal, Liquid, Air at 1 atmosphere
Property: Molar enthalpy of transition or fusion, kJ/mol (Crystal); method: DSC
Molar enthalpy of transition or fusion, kJ/mol	uncertainty
17.4	2.4

System: pentacyclo[4.2.0.02,5.03,8.04,7]octane-1,4-dicarboxylic acid; phases: Crystal, Liquid, Air at 1 atmosphere
Property: Normal melting temperature, K (Crystal); method: DTA
Normal melting temperature, K	uncertainty
495	0.5

System: pentacyclo[4.2.0.02,5.03,8.04,7]octane-1,4-dicarboxylic acid; phases: Liquid, Gas
Property: Molar enthalpy of vaporization or sublimation, kJ/mol (Liquid); method: Correlation gas chromatography
Temperature, K	Molar enthalpy of vaporization or sublimation, kJ/mol	uncertainty
298	122.5	16.2

System: tricyclo[3.3.1.1(3,7)]decane-1-carboxylic acid; phases: Crystal, Liquid, Air at 1 atmosphere
Property: Molar enthalpy of transition or fusion, kJ/mol (Crystal); method: DSC
Molar enthalpy of transition or fusion, kJ/mol	uncertainty
16.2	0.9

System: tricyclo[3.3.1.1(3,7)]decane-1-carboxylic acid; phases: Crystal, Liquid, Air at 1 atmosphere
Property: Normal melting temperature, K (Crystal); method: DTA
Normal melting temperature, K	uncertainty
447.2	0.5

System: tricyclo[3.3.1.1(3,7)]decane-1-carboxylic acid; phases: Liquid, Gas
Property: Molar enthalpy of vaporization or sublimation, kJ/mol (Liquid); method: Correlation gas chromatography
Temperature, K	Molar enthalpy of vaporization or sublimation, kJ/mol	uncertainty
298	91.1	7.6

Reaction: -1 pentacyclo[4.2.0.02,5.03,8.04,7]octane-1,4-dicarboxylic acid + 10 carbon dioxide + 4 water + -10 oxygen
Property: Specific internal energy of reaction at constant volume, J/g
-24574.8
