Measured thermophysical data. Liquid-Liquid Equilibrium of Ternary and Quaternary Systems Including Methyl Acetate, Benzene, Toluene, and Water at 283.2 K under Atmosphere
Source: J. Chem. Eng. Data, 2010, 10.1021/je100077z
Compound 1: methyl ethanoate, C3H6O2, InChI=1S/C3H6O2/c1-3(4)5-2/h1-2H3, purity 99.5%
Compound 2: benzene, C6H6, InChI=1S/C6H6/c1-2-4-6-5-3-1/h1-6H, purity 99.5%
Compound 3: toluene, C7H8, InChI=1S/C7H8/c1-7-5-3-2-4-6-7/h2-6H,1H3, purity 99.5%
Compound 4: water, H2O, InChI=1S/H2O/h1H2

System: methyl ethanoate + toluene + water; phases: Liquid mixture 1, Liquid mixture 2
Fixed: Temperature, K = 283.2
Fixed: Pressure, kPa = 101.3
Property: Mole fraction of toluene (Liquid mixture 1); method: Chromatography
Property: Mole fraction of toluene (Liquid mixture 2); method: Chromatography
Property: Mole fraction of methyl ethanoate (Liquid mixture 2); method: Chromatography
Mole fraction of methyl ethanoate	Mole fraction of toluene	uncertainty	Mole fraction of toluene	uncertainty	Mole fraction of methyl ethanoate	uncertainty
0.8356	0.0587	0.0379	1.1e-05	1.1e-05	0.0591	
0.778	0.1514	0.0339	4.2e-05	4.2e-05	0.0574	
0.6958	0.2512	0.0312	4.8e-05	4.8e-05	0.0524	
0.5933	0.3722	0.0304	4.5e-05	4.5e-05	0.0195	
0.5374	0.4307	0.0294	9.1e-05	9.1e-05	0.0149	
0.444	0.5316	0.0294	2.9e-05	2.9e-05	0.011	
0.3087	0.6746	0.0288	1.5e-05	1.5e-05	0.0058	
0.1097	0.8757	0.0284	1.9e-05	1.9e-05	0.0005	

System: benzene + methyl ethanoate + water; phases: Liquid mixture 1, Liquid mixture 2
Fixed: Temperature, K = 283.2
Fixed: Pressure, kPa = 101.3
Property: Mole fraction of benzene (Liquid mixture 1); method: Chromatography
Property: Mole fraction of benzene (Liquid mixture 2); method: Chromatography
Property: Mole fraction of methyl ethanoate (Liquid mixture 2); method: Chromatography
Mole fraction of methyl ethanoate	Mole fraction of benzene	uncertainty	Mole fraction of benzene	uncertainty	Mole fraction of methyl ethanoate	uncertainty
0.8198	0.0811	0.033	0.00024	0.00024	0.0647	
0.8008	0.1158	0.0321	0.00029	0.00029	0.0595	
0.6139	0.3509	0.0318	0.00035	0.00035	0.0357	
0.5386	0.4371	0.0294	0.00024	0.00024	0.0304	
0.3223	0.6638	0.029	0.00031	0.00031	0.0213	
0.2043	0.7861	0.0287	0.00026	0.00026	0.0112	
0.0895	0.9027	0.0285	0.00028	0.00028	0.0045	
