Measured thermophysical data. Solubility of Florfenicol in Different Solvents at Temperatures from (278 to 318) K
Source: J. Chem. Eng. Data, 2011, 10.1021/je1008284
Compound 1: water, H2O, InChI=1S/H2O/h1H2
Compound 2: florfenicol, C12H14Cl2FNO4S, InChI=1S/C12H14Cl2FNO4S/c1-21(19,20)8-4-2-7(3-5-8)10(17)9(6-15)16-12(18)11(13)14/h2-5,9-11,17H,6H2,1H3,(H,16,18)/t9-,10-/m1/s1
Compound 3: methanol, CH4O, InChI=1S/CH4O/c1-2/h2H,1H3
Compound 4: ethanol, C2H6O, InChI=1S/C2H6O/c1-2-3/h3H,2H2,1H3
Compound 5: acetone, C3H6O, InChI=1S/C3H6O/c1-3(2)4/h1-2H3
Compound 6: tetrahydrofuran, C4H8O, InChI=1S/C4H8O/c1-2-4-5-3-1/h1-4H2
Compound 7: propan-1-ol, C3H8O, InChI=1S/C3H8O/c1-2-3-4/h4H,2-3H2,1H3

System: florfenicol; phases: Crystal, Liquid, Air at 1 atmosphere
Property: Normal melting temperature, K (Crystal); method: VISOBS
Normal melting temperature, K	uncertainty
426.15	1.06

System: water + florfenicol; phases: Liquid, Crystal
Fixed: Pressure, kPa = 101
Property: Mole fraction of florfenicol (Liquid); method: lasers
Temperature, K	Mole fraction of florfenicol	uncertainty
278.8	2.48e-05	1.4e-06
283.85	2.86e-05	1.7e-06
289.1	3.62e-05	2.1e-06
293.95	4.64e-05	2.7e-06
298.7	5.49e-05	3.2e-06
303.15	6.96e-05	4.1e-06
308.13	8.81e-05	5.1e-06
313.25	0.0001139	6.6e-06
317.5	0.0001404	8.2e-06

System: methanol + florfenicol; phases: Liquid, Crystal
Fixed: Pressure, kPa = 101
Property: Mole fraction of florfenicol (Liquid); method: lasers
Temperature, K	Mole fraction of florfenicol	uncertainty
278.55	0.0040757	0.0001904
283.5	0.0048828	0.0002281
288.85	0.0059828	0.0002796
293.8	0.007239	0.0003385
298.65	0.0087762	0.0004106
302.95	0.01053	0.000493
308.43	0.013173	0.000617
314.7	0.017035	0.000799
319.65	0.020975	0.000984

System: ethanol + florfenicol; phases: Liquid, Crystal
Fixed: Pressure, kPa = 101
Property: Mole fraction of florfenicol (Liquid); method: lasers
Temperature, K	Mole fraction of florfenicol	uncertainty
278.55	0.0012567	5.47e-05
283.45	0.0015324	6.69e-05
288.8	0.0021192	9.23e-05
293.7	0.0025937	0.0001128
298.45	0.0031549	0.0001372
302.7	0.0037933	0.0001651
308.05	0.0048003	0.000209
313.35	0.0061385	0.0002672
317.75	0.0074595	0.0003245

System: acetone + florfenicol; phases: Liquid, Crystal
Fixed: Pressure, kPa = 101
Property: Mole fraction of florfenicol (Liquid); method: lasers
Temperature, K	Mole fraction of florfenicol	uncertainty
279.25	0.02614	0.001105
284.35	0.029418	0.001244
289.1	0.032713	0.001383
294.45	0.036791	0.001556
297.75	0.039626	0.001677
304.15	0.045781	0.001939
308.95	0.051794	0.002195
313.5	0.057859	0.002454
319.25	0.066415	0.002819

System: tetrahydrofuran + florfenicol; phases: Liquid, Crystal
Fixed: Pressure, kPa = 101
Property: Mole fraction of florfenicol (Liquid); method: lasers
Temperature, K	Mole fraction of florfenicol	uncertainty
279.65	0.029334	0.001217
284.55	0.031683	0.001314
289.35	0.034214	0.00142
294.5	0.037415	0.001553
297.65	0.039779	0.001652
303.65	0.044661	0.001855
308.45	0.049194	0.002044
313.05	0.054249	0.002256
318.75	0.061093	0.002541

System: propan-1-ol + florfenicol; phases: Liquid, Crystal
Fixed: Pressure, kPa = 101
Property: Mole fraction of florfenicol (Liquid); method: lasers
Temperature, K	Mole fraction of florfenicol	uncertainty
278.35	0.0007997	3.39e-05
284.05	0.0010561	4.46e-05
289	0.0013363	5.64e-05
293.5	0.0016523	6.98e-05
298.65	0.0021138	8.93e-05
303.55	0.002684	0.0001134
308.27	0.0033853	0.0001431
313.35	0.0043579	0.0001842
317.75	0.0054446	0.0002299

System: acetone + water + florfenicol; phases: Liquid, Crystal
Fixed: Pressure, kPa = 101
Property: Mole fraction of florfenicol (Liquid); method: lasers
Temperature, K	Solvent: Mole fraction of acetone	Mole fraction of florfenicol	uncertainty
278	0.549	0.029943	0.001336
278.05	0.2367	0.0031891	0.0001552
278.65	0.4157	0.01751	0.000804
278.66	0.0341	4.89e-05	2.8e-06
278.9	0.0731	0.0001202	6.5e-06
279	0.1172	0.0003372	1.76e-05
279.25	0.3166	0.008497	0.000401
279.32	0.1707	0.00106	5.58e-05
283.2	0.0341	6.25e-05	3.5e-06
283.2	0.3166	0.0099521	0.0004712
283.3	0.0731	0.0001558	8.5e-06
283.35	0.1707	0.00137	6.95e-05
283.45	0.1172	0.0004426	2.32e-05
283.45	0.2367	0.0041858	0.0002048
283.45	0.4157	0.020322	0.000933
283.5	0.549	0.034246	0.001529
287.95	0.0341	7.95e-05	4.5e-06
288	0.0731	0.0002082	1.13e-05
288	0.1172	0.0005904	3.11e-05
288.8	0.4157	0.023744	0.001091
288.85	0.1707	0.001898	9.63e-05
288.85	0.3166	0.012442	0.000589
289.3	0.549	0.039303	0.001756
289.37	0.2367	0.005565	0.000272
293.03	0.4157	0.027077	0.001246
293.08	0.1172	0.0008153	4.29e-05
293.1	0.0731	0.000284	1.54e-05
293.15	0.0341	0.0001058	6e-06
293.6	0.3166	0.015116	0.000717
293.73	0.1707	0.0025355	0.0001286
294	0.549	0.044335	0.001983
294.15	0.2367	0.0070291	0.0003441
297.8	0.3166	0.017986	0.000854
298.15	0.1707	0.0032689	0.0001661
298.4	0.549	0.049521	0.002218
298.5	0.4157	0.032358	0.001491
298.65	0.2367	0.0087882	0.0004305
299.15	0.0341	0.0001472	8.3e-06
299.15	0.0731	0.0004073	2.22e-05
299.15	0.1172	0.0011807	6.21e-05
303	0.4157	0.03772	0.00174
303.35	0.0341	0.0001927	1.09e-05
303.45	0.0731	0.0005348	2.91e-05
303.5	0.3166	0.022484	0.001068
303.6	0.1172	0.0015664	8.24e-05
303.8	0.549	0.056586	0.002538
303.97	0.2367	0.011389	0.000558
304.05	0.1707	0.0046422	0.0002357
307.95	0.2367	0.013844	0.000679
307.95	0.3166	0.026643	0.001267
307.95	0.549	0.062485	0.002806
308.2	0.1172	0.0020872	0.0001099
308.35	0.1707	0.0059842	0.0003041
308.43	0.0341	0.0002503	1.41e-05
308.45	0.0731	0.0007114	3.87e-05
308.95	0.4157	0.045169	0.002088
311.45	0.549	0.067988	0.003057
311.5	0.2367	0.016103	0.000791
312.75	0.1172	0.0028059	0.0001474
312.95	0.0731	0.0009501	5.17e-05
312.95	0.3166	0.032297	0.001538
313.15	0.1707	0.0080388	0.0004087
313.15	0.4157	0.052076	0.002411
313.25	0.0341	0.0003279	1.85e-05
316.65	0.2367	0.020383	0.001004
316.85	0.549	0.077127	0.003474
317.4	0.3166	0.038073	0.001815
317.6	0.1707	0.010533	0.00054
317.8	0.1172	0.003576	0.0001911
317.8	0.4157	0.058782	0.002723
318.15	0.0731	0.0012977	7.16e-05
318.75	0.0341	0.0004414	2.48e-05
