Measured thermophysical data. Measurement and Correlation of Solubilities of Asiaticoside in Water, Methanol, Ethanol, n-Propanol, n-Butanol, and a Methanol + Water Mixture from (278.15 to 343.15) K
Source: J. Chem. Eng. Data, 2011, 10.1021/je101208p
Compound 1: asiaticoside, C48H78O19, InChI=1S/C48H78O19/c1-20-10-13-48(15-14-46(6)23(29(48)21(20)2)8-9-28-44(4)16-24(51)39(60)45(5,19-50)27(44)11-12-47(28,46)7)43(61)67-42-36(58)33(55)31(53)26(65-42)18-62-40-37(59)34(56)38(25(17-49)64-40)66-41-35(57)32(54)30(52)22(3)63-41/h8,20-22,24-42,49-60H,9-19H2,1-7H3/t20-,21+,22+,24-,25-,26-,27-,28-,29+,30+,31-,32-,33+,34-,35-,36-,37-,38-,39+,40-,41+,42+,44+,45+,46-,47-,48+/m1/s1
Compound 2: water, H2O, InChI=1S/H2O/h1H2, purity 99.8%
Compound 3: methanol, CH4O, InChI=1S/CH4O/c1-2/h2H,1H3, purity 99.5%
Compound 4: ethanol, C2H6O, InChI=1S/C2H6O/c1-2-3/h3H,2H2,1H3, purity 99.5%
Compound 5: propan-1-ol, C3H8O, InChI=1S/C3H8O/c1-2-3-4/h4H,2-3H2,1H3, purity 99.5%
Compound 6: butan-1-ol, C4H10O, InChI=1S/C4H10O/c1-2-3-4-5/h5H,2-4H2,1H3, purity 99.5%

System: water + asiaticoside; phases: Liquid, Crystal
Fixed: Pressure, kPa = 101
Property: Mole fraction of asiaticoside (Liquid); method: Chromatography
Temperature, K	Mole fraction of asiaticoside	uncertainty
298.15	1.9e-06	2e-07
303.15	2.1e-06	3e-07
308.15	2.5e-06	3e-07
313.15	3.1e-06	4e-07
318.15	4.2e-06	5e-07
323.15	5.4e-06	7e-07
328.15	7.1e-06	9e-07
333.15	1.02e-05	1.3e-06

System: methanol + asiaticoside; phases: Liquid, Crystal
Fixed: Pressure, kPa = 101
Property: Mole fraction of asiaticoside (Liquid); method: Chromatography
Temperature, K	Mole fraction of asiaticoside	uncertainty
278.15	0.0009023	6.28e-05
283.15	0.0009037	6.29e-05
288.15	0.0009728	6.77e-05
293.15	0.0010254	7.14e-05
298.15	0.0011264	7.85e-05
303.15	0.0012209	8.51e-05
308.15	0.0013869	9.67e-05
313.15	0.0016025	0.0001117
318.15	0.0018242	0.0001272
323.15	0.0021595	0.0001507
328.15	0.0025251	0.0001777

System: ethanol + asiaticoside; phases: Liquid, Crystal
Fixed: Pressure, kPa = 101
Property: Mole fraction of asiaticoside (Liquid); method: Chromatography
Temperature, K	Mole fraction of asiaticoside	uncertainty
298.15	0.0001404	6.8e-06
303.15	0.0001425	6.9e-06
308.15	0.0001458	7.1e-06
313.15	0.0001516	7.3e-06
318.15	0.0001653	8e-06
323.15	0.0001758	8.5e-06
328.15	0.0001952	9.5e-06
333.15	0.0002172	1.05e-05

System: propan-1-ol + asiaticoside; phases: Liquid, Crystal
Fixed: Pressure, kPa = 101
Property: Mole fraction of asiaticoside (Liquid); method: Chromatography
Temperature, K	Mole fraction of asiaticoside	uncertainty
298.15	5.2e-05	2e-06
303.15	6.06e-05	2.3e-06
308.15	6.78e-05	2.5e-06
313.15	8.06e-05	3e-06
318.15	9.61e-05	3.6e-06
323.15	0.0001193	4.5e-06
328.15	0.0001443	5.4e-06
333.15	0.0001806	6.8e-06
338.15	0.0002297	8.6e-06
343.15	0.0003042	1.14e-05

System: butan-1-ol + asiaticoside; phases: Liquid, Crystal
Fixed: Pressure, kPa = 101
Property: Mole fraction of asiaticoside (Liquid); method: Chromatography
Temperature, K	Mole fraction of asiaticoside	uncertainty
298.15	2.44e-05	8e-07
303.15	2.93e-05	1e-06
308.15	3.45e-05	1.1e-06
313.15	4.22e-05	1.4e-06
318.15	5.1e-05	2e-06
323.15	6.36e-05	1.9e-06
328.15	8.03e-05	2.4e-06
333.15	0.0001009	3.1e-06
338.15	0.0001319	4e-06
343.15	0.000175	5e-06

System: methanol + water + asiaticoside; phases: Liquid, Crystal
Fixed: Pressure, kPa = 101
Property: Mole fraction of asiaticoside (Liquid); method: Chromatography
Temperature, K	Solvent: Mole fraction of methanol	Mole fraction of asiaticoside	uncertainty
298.15	0.05882	5.9e-06	7e-07
298.15	0.1233	1.08e-05	1.2e-06
298.15	0.1942	2.77e-05	3e-06
298.15	0.2727	5.62e-05	5.7e-06
298.15	0.36	0.00011	1e-05
298.15	0.4576	0.0001728	1.58e-05
298.15	0.5676	0.0002181	1.88e-05
298.15	0.6923	0.0002148	1.73e-05
298.15	0.8351	0.0001976	1.48e-05
298.15	0.874	0.0002055	1.52e-05
298.15	0.9144	0.0002444	1.77e-05
298.15	0.9564	0.0003724	2.64e-05
298.15	0.978	0.0005638	3.97e-05
303.15	0.05882	6.9e-06	8e-07
303.15	0.1233	1.44e-05	1.6e-06
303.15	0.1942	3.71e-05	4e-06
303.15	0.2727	7.44e-05	7.6e-06
303.15	0.36	0.0001427	1.38e-05
303.15	0.4576	0.0002277	2.08e-05
303.15	0.5676	0.0002782	2.39e-05
303.15	0.6923	0.0002757	2.22e-05
303.15	0.8351	0.0002524	1.9e-05
303.15	0.874	0.000259	1.9e-05
303.15	0.9144	0.0003074	2.23e-05
303.15	0.9564	0.0004588	3.26e-05
303.15	0.978	0.0006749	4.75e-05
308.15	0.05882	8.1e-06	1e-06
308.15	0.1233	1.81e-05	2e-06
308.15	0.1942	4.55e-05	4.9e-06
308.15	0.2727	0.0001012	1.04e-05
308.15	0.36	0.0001905	1.85e-05
308.15	0.4576	0.0003046	2.79e-05
308.15	0.5676	0.0003794	3.26e-05
308.15	0.6923	0.0003718	3e-05
308.15	0.8351	0.0003251	2.44e-05
308.15	0.874	0.0003347	2.47e-05
308.15	0.9144	0.0003933	2.85e-05
308.15	0.9564	0.0005777	4.11e-05
308.15	0.978	0.0008153	5.74e-05
313.15	0.05882	9.8e-06	1.2e-06
313.15	0.1233	2.4e-05	3e-06
313.15	0.1942	6.55e-05	7.1e-06
313.15	0.2727	0.0001414	1.45e-05
313.15	0.36	0.0002656	2.57e-05
313.15	0.4576	0.0004056	3.71e-05
313.15	0.5676	0.0004952	4.26e-05
313.15	0.6923	0.0004775	3.85e-05
313.15	0.8351	0.0004265	3.21e-05
313.15	0.874	0.0004505	3.33e-05
313.15	0.9144	0.0005146	3.73e-05
313.15	0.9564	0.000746	5.3e-05
313.15	0.978	0.0010394	7.32e-05
318.15	0.05882	1.24e-05	1.5e-06
318.15	0.1233	3.17e-05	3.6e-06
318.15	0.1942	8.35e-05	9e-06
318.15	0.2727	0.0001891	1.93e-05
318.15	0.36	0.0003428	3.32e-05
318.15	0.4576	0.000536	4.9e-05
318.15	0.5676	0.000645	5.5e-05
318.15	0.6923	0.0006325	5.1e-05
318.15	0.8351	0.0005851	4.4e-05
318.15	0.874	0.0005899	4.36e-05
318.15	0.9144	0.0006768	4.91e-05
318.15	0.9564	0.0009524	6.78e-05
318.15	0.978	0.0012297	8.66e-05
323.15	0.05882	1.55e-05	1.8e-06
323.15	0.1233	4.07e-05	4.6e-06
323.15	0.1942	0.00011	1e-05
323.15	0.2727	0.0002478	2.53e-05
323.15	0.36	0.0004742	4.59e-05
323.15	0.4576	0.0007193	6.58e-05
323.15	0.5676	0.0008392	7.22e-05
323.15	0.6923	0.0008018	6.47e-05
323.15	0.8351	0.0007816	5.88e-05
323.15	0.874	0.0007851	5.8e-05
323.15	0.9144	0.0008829	6.4e-05
323.15	0.9564	0.0012111	8.62e-05
323.15	0.978	0.0014573	0.0001068
328.15	0.05882	1.88e-05	2.2e-06
328.15	0.1233	5.64e-05	6.4e-06
328.15	0.1942	0.0001518	1.64e-05
328.15	0.2727	0.0003292	3.37e-05
328.15	0.36	0.0006357	6.15e-05
328.15	0.4576	0.0009557	8.73e-05
328.15	0.5676	0.0011219	9.65e-05
328.15	0.6923	0.0010829	8.73e-05
328.15	0.8351	0.001018	7.7e-05
328.15	0.874	0.0010169	7.51e-05
328.15	0.9144	0.0011095	8.06e-05
328.15	0.9564	0.0015552	0.0001108
328.15	0.978	0.0019807	0.0001398
