Measured thermophysical data. Solubilities of Sodium, Potassium, and Copper(II) Sulfates in Ethanol-Water Solutions
Source: J. Chem. Eng. Data, 2011, 10.1021/je100979d
Compound 1: water, H2O, InChI=1S/H2O/h1H2
Compound 2: copper sulfate, CuO4S, InChI=1S/Cu.H2O4S/c;1-5(2,3)4/h;(H2,1,2,3,4)/q+2;/p-2, purity 99%
Compound 3: sodium sulfate, Na2O4S, InChI=1S/2Na.H2O4S/c;;1-5(2,3)4/h;;(H2,1,2,3,4)/q2*+1;/p-2, purity 99%
Compound 4: potassium sulfate, K2O4S, InChI=1S/2K.H2O4S/c;;1-5(2,3)4/h;;(H2,1,2,3,4)/q2*+1;/p-2, purity 99%
Compound 5: ethanol, C2H6O, InChI=1S/C2H6O/c1-2-3/h3H,2H2,1H3, purity 99.5%

System: water + copper sulfate; phases: Liquid, Crystal
Fixed: Pressure, kPa = 101.325
Property: Molality, mol/kg of copper sulfate (Liquid); method: density and refractive index values from the literature
Temperature, K	Molality, mol/kg of copper sulfate	uncertainty
278.15	1.063	0.003
288.15	1.243	0.004
298.15	1.431	0.004

System: water + copper sulfate; phases: Liquid, Crystal
Fixed: Pressure, kPa = 101.325
Property: Refractive index (Na D-line) (Liquid); method: Standard Abbe refractometry
Temperature, K	Refractive index (Na D-line)	uncertainty
278.15	1.35746	0.00059
288.15	1.36172	0.0006
298.15	1.36606	0.0006

System: water + copper sulfate; phases: Liquid, Crystal
Fixed: Pressure, kPa = 101.325
Property: Mass density, kg/m3 (Liquid); method: Vibrating tube method
Temperature, K	Mass density, kg/m3	uncertainty
278.15	1159.73	0.23
288.15	1185.85	0.25
298.15	1212.66	0.27

System: water + sodium sulfate; phases: Liquid, Crystal of intercomponent compound 1
Fixed: Pressure, kPa = 101.325
Property: Molality, mol/kg of sodium sulfate (Liquid); method: density and refractive index values from the literature
Temperature, K	Molality, mol/kg of sodium sulfate	uncertainty
278.15	0.45	0.001
288.15	0.932	0.003
298.15	1.954	0.006

System: water + sodium sulfate; phases: Liquid, Crystal
Fixed: Pressure, kPa = 101.325
Property: Refractive index (Na D-line) (Liquid); method: Standard Abbe refractometry
Temperature, K	Refractive index (Na D-line)	uncertainty
278.15	1.33855	0.0009
288.15	1.34651	0.00117
298.15	1.36054	0.00146

System: water + sodium sulfate; phases: Liquid, Crystal
Fixed: Pressure, kPa = 101.325
Property: Mass density, kg/m3 (Liquid); method: Vibrating tube method
Temperature, K	Mass density, kg/m3	uncertainty
278.15	1051.59	0.26
288.15	1105.14	0.38
298.15	1207.01	0.51

System: water + potassium sulfate; phases: Liquid, Crystal
Fixed: Pressure, kPa = 101.325
Property: Molality, mol/kg of potassium sulfate (Liquid); method: density and refractive index values from the literature
Temperature, K	Molality, mol/kg of potassium sulfate	uncertainty
278.15	0.49	0.002
288.15	0.597	0.002
298.15	0.705	0.002
308.15	0.8	0.002
318.15	0.908	0.003

System: water + potassium sulfate; phases: Liquid, Crystal
Fixed: Pressure, kPa = 101.325
Property: Refractive index (Na D-line) (Liquid); method: Standard Abbe refractometry
Temperature, K	Refractive index (Na D-line)	uncertainty
278.15	1.33885	0.00045
288.15	1.34065	0.00045
298.15	1.3424	0.00044
308.15	1.34392	0.00044
318.15	1.3456	0.00045

System: ethanol + water + copper sulfate; phases: Liquid, Crystal
Fixed: Pressure, kPa = 101.325
Property: Molality, mol/kg of copper sulfate (Liquid); method: density and refractive index values from the literature
Temperature, K	Solvent: Mass fraction of ethanol	Molality, mol/kg of copper sulfate	uncertainty
278.15	0	1.063	0.003
278.15	0.0277	0.737	0.002
278.15	0.0522	0.529	0.002
278.15	0.0799	0.363	0.001
278.15	0.1108	0.242	0.001
278.15	0.1322	0.182	0.001
278.15	0.1538	0.135	0.001
278.15	0.1747	0.101	0.001
278.15	0.2039	0.073	0.001
288.15	0	1.243	0.004
288.15	0.0267	0.909	0.003
288.15	0.0513	0.684	0.002
288.15	0.0779	0.496	0.002
288.15	0.1084	0.348	0.001
288.15	0.133	0.254	0.001
288.15	0.1589	0.184	0.001
288.15	0.1856	0.13	0.001
288.15	0.2025	0.1	0.001
298.15	0	1.431	0.004
298.15	0.0259	1.123	0.003
298.15	0.0487	0.889	0.003
298.15	0.0781	0.652	0.002
298.15	0.1016	0.503	0.002
298.15	0.1279	0.371	0.001
298.15	0.1473	0.289	0.001
298.15	0.1702	0.22	0.001
298.15	0.1976	0.158	0.001

System: ethanol + water + copper sulfate; phases: Liquid, Crystal
Fixed: Pressure, kPa = 101.325
Property: Refractive index (Na D-line) (Liquid); method: Standard Abbe refractometry
Temperature, K	Solvent: Mass fraction of ethanol	Refractive index (Na D-line)	uncertainty
278.15	0	1.35746	0.00059
278.15	0.0277	1.35126	0.00054
278.15	0.0522	1.34726	0.00053
278.15	0.0799	1.34445	0.00049
278.15	0.1108	1.343	0.00048
278.15	0.1322	1.34264	0.00045
278.15	0.1538	1.34262	0.00044
278.15	0.1747	1.3429	0.00043
278.15	0.2039	1.34376	0.00042
288.15	0	1.36172	0.0006
288.15	0.0267	1.35551	0.00061
288.15	0.0513	1.35121	0.00059
288.15	0.0779	1.34782	0.00055
288.15	0.1084	1.3457	0.00051
288.15	0.133	1.34463	0.00048
288.15	0.1589	1.34429	0.00045
288.15	0.1856	1.34434	0.00044
288.15	0.2025	1.34446	0.00043
298.15	0	1.36606	0.0006
298.15	0.0259	1.3607	0.00066
298.15	0.0487	1.35625	0.00065
298.15	0.0781	1.35189	0.00061
298.15	0.1016	1.34941	0.00053
298.15	0.1279	1.34752	0.00049
298.15	0.1473	1.34651	0.00046
298.15	0.1702	1.346	0.00046
298.15	0.1976	1.34588	0.00044

System: ethanol + water + copper sulfate; phases: Liquid, Crystal
Fixed: Pressure, kPa = 101.325
Property: Mass density, kg/m3 (Liquid); method: Vibrating tube method
Temperature, K	Solvent: Mass fraction of ethanol	Mass density, kg/m3	uncertainty
278.15	0	1159.73	0.23
278.15	0.0277	1106.59	0.19
278.15	0.0522	1070.32	0.17
278.15	0.0799	1040.09	0.14
278.15	0.1108	1016.52	0.13
278.15	0.1322	1004.06	0.12
278.15	0.1538	993.63	0.11
278.15	0.1747	985.43	0.11
278.15	0.2039	976.86	0.11
288.15	0	1185.85	0.25
288.15	0.0267	1132.44	0.22
288.15	0.0513	1093.89	0.2
288.15	0.0779	1060.52	0.17
288.15	0.1084	1033.03	0.14
288.15	0.133	1014.83	0.13
288.15	0.1589	1000.38	0.11
288.15	0.1856	988.21	0.11
288.15	0.2025	981.18	0.11
298.15	0	1212.66	0.27
298.15	0.0259	1164.04	0.25
298.15	0.0487	1124.9	0.23
298.15	0.0781	1083.91	0.2
298.15	0.1016	1057.52	0.16
298.15	0.1279	1033.35	0.14
298.15	0.1473	1018.06	0.13
298.15	0.1702	1004.1	0.12
298.15	0.1976	990.66	0.11

System: ethanol + water + sodium sulfate; phases: Liquid, Crystal
Fixed: Pressure, kPa = 101.325
Property: Molality, mol/kg of sodium sulfate (Liquid); method: density and refractive index values from the literature
Temperature, K	Solvent: Mass fraction of ethanol	Molality, mol/kg of sodium sulfate	uncertainty
278.15	0	0.45	0.001
278.15	0.029	0.347	0.001
278.15	0.0548	0.276	0.001
278.15	0.0806	0.219	0.001
278.15	0.1094	0.171	0.001
278.15	0.1351	0.136	0.001
278.15	0.1566	0.111	0.001
278.15	0.1749	0.097	0.001
278.15	0.2028	0.073	0.001
278.15	0.2276	0.058	0.001
278.15	0.2542	0.048	0.001
278.15	0.2803	0.039	0.001
278.15	0.3057	0.032	0.001
288.15	0	0.932	0.003
288.15	0.026	0.747	0.002
288.15	0.0524	0.602	0.002
288.15	0.0755	0.489	0.002
288.15	0.1096	0.372	0.001
288.15	0.1329	0.3	0.001
288.15	0.1563	0.244	0.001
288.15	0.1761	0.21	0.001
288.15	0.2039	0.168	0.001
288.15	0.2263	0.139	0.001
288.15	0.2551	0.11	0.001
288.15	0.2854	0.088	0.001
298.15	0	1.954	0.006
298.15	0.0278	1.651	0.005
298.15	0.0515	1.408	0.004
298.15	0.0689	1.229	0.004
298.15	0.0965	1.016	0.003
298.15	0.1221	0.83	0.003
298.15	0.1428	0.696	0.002
298.15	0.1764	0.539	0.002
298.15	0.1928	0.458	0.001
298.15	0.2298	0.32	0.001
298.15	0.2517	0.272	0.001
298.15	0.2737	0.222	0.001
298.15	0.3001	0.17	0.001

System: ethanol + water + sodium sulfate; phases: Liquid, Crystal
Fixed: Pressure, kPa = 101.325
Property: Refractive index (Na D-line) (Liquid); method: Standard Abbe refractometry
Temperature, K	Solvent: Mole fraction of ethanol	Refractive index (Na D-line)	uncertainty
278.15	0	1.33855	0.0009
278.15	0.029	1.33824	0.00077
278.15	0.0548	1.33842	0.00069
278.15	0.0806	1.3389	0.00061
278.15	0.1094	1.33972	0.00054
278.15	0.1351	1.34056	0.0005
278.15	0.1566	1.34133	0.00047
278.15	0.1749	1.34208	0.00046
278.15	0.2028	1.34316	0.00044
278.15	0.2276	1.34418	0.00043
278.15	0.2542	1.34532	0.00042
278.15	0.2803	1.3464	0.00042
278.15	0.3057	1.34742	0.00042
288.15	0	1.34651	0.00117
288.15	0.026	1.34488	0.00107
288.15	0.0524	1.34397	0.00096
288.15	0.0755	1.34339	0.00086
288.15	0.1096	1.3433	0.0007
288.15	0.1329	1.34335	0.00062
288.15	0.1563	1.34363	0.0006
288.15	0.1761	1.34407	0.00054
288.15	0.2039	1.34477	0.0005
288.15	0.2263	1.3454	0.00046
288.15	0.2551	1.34632	0.00044
288.15	0.2854	1.34738	0.00043
298.15	0	1.36054	0.00146
298.15	0.0278	1.358	0.00139
298.15	0.0515	1.35591	0.00125
298.15	0.0689	1.3543	0.00114
298.15	0.0965	1.35261	0.00095
298.15	0.1221	1.3511	0.00083
298.15	0.1428	1.35005	0.00083
298.15	0.1764	1.34917	0.00065
298.15	0.1928	1.34867	0.00056
298.15	0.2298	1.34824	0.00051
298.15	0.2517	1.34851	0.00047
298.15	0.2737	1.34879	0.00044
298.15	0.3001	1.34928	0.00044

System: ethanol + water + sodium sulfate; phases: Liquid, Crystal
Fixed: Pressure, kPa = 101.325
Property: Mass density, kg/m3 (Liquid); method: Vibrating tube method
Temperature, K	Solvent: Mass fraction of ethanol	Mass density, kg/m3	uncertainty
278.15	0	1051.59	0.26
278.15	0.029	1034.01	0.22
278.15	0.0548	1021.01	0.19
278.15	0.0806	1009.99	0.16
278.15	0.1094	999.86	0.14
278.15	0.1351	991.88	0.13
278.15	0.1566	985.85	0.13
278.15	0.1749	981.52	0.12
278.15	0.2028	974.68	0.12
278.15	0.2276	969.15	0.12
278.15	0.2542	963.77	0.12
278.15	0.2803	958.46	0.12
278.15	0.3057	953.27	0.12
288.15	0	1105.14	0.38
288.15	0.026	1079.74	0.33
288.15	0.0524	1058.77	0.29
288.15	0.0755	1042.03	0.26
288.15	0.1096	1023.11	0.2
288.15	0.1329	1011.33	0.18
288.15	0.1563	1001.36	0.17
288.15	0.1761	994.41	0.15
288.15	0.2039	985.4	0.14
288.15	0.2263	978.62	0.13
288.15	0.2551	970.7	0.13
288.15	0.2854	963.03	0.13
298.15	0	1207.01	0.51
298.15	0.0278	1171.97	0.47
298.15	0.0515	1143.2	0.42
298.15	0.0689	1121.88	0.38
298.15	0.0965	1094.83	0.31
298.15	0.1221	1070.81	0.27
298.15	0.1428	1053.05	0.26
298.15	0.1764	1030.56	0.2
298.15	0.1928	1019.08	0.17
298.15	0.2298	997.92	0.14
298.15	0.2517	988.91	0.13
298.15	0.2737	979.61	0.12
298.15	0.3001	969.26	0.13

System: ethanol + water + potassium sulfate; phases: Liquid, Crystal
Fixed: Pressure, kPa = 101.325
Property: Molality, mol/kg of potassium sulfate (Liquid); method: density and refractive index values from the literature
Temperature, K	Solvent: Mass fraction of ethanol	Molality, mol/kg of potassium sulfate	uncertainty
278.15	0	0.49	0.002
278.15	0.02589	0.371	0.001
278.15	0.04996	0.29	0.001
278.15	0.07314	0.221	0.001
278.15	0.09651	0.174	0.001
278.15	0.12456	0.123	0.001
278.15	0.15108	0.097	0.001
278.15	0.1649	0.083	0.001
278.15	0.18293	0.068	0.001
278.15	0.19452	0.056	0.001
278.15	0.22928	0.04	0.001
278.15	0.24468	0.038	0.001
288.15	0	0.597	0.002
288.15	0.02646	0.462	0.001
288.15	0.05014	0.36	0.001
288.15	0.07446	0.283	0.001
288.15	0.09589	0.227	0.001
288.15	0.12075	0.175	0.001
288.15	0.15294	0.133	0.001
288.15	0.17543	0.105	0.001
288.15	0.20163	0.084	0.001
288.15	0.22324	0.067	0.001
288.15	0.24338	0.051	0.001
298.15	0	0.705	0.002
298.15	0.02528	0.557	0.002
298.15	0.04855	0.448	0.001
298.15	0.07275	0.356	0.001
298.15	0.09913	0.277	0.001
298.15	0.12722	0.215	0.001
298.15	0.1496	0.174	0.001
298.15	0.17648	0.133	0.001
298.15	0.20163	0.11	0.001
298.15	0.22397	0.088	0.001
298.15	0.24659	0.072	0.001
308.15	0	0.8	0.002
308.15	0.02444	0.645	0.002
308.15	0.04866	0.519	0.002
308.15	0.07357	0.412	0.001
308.15	0.10142	0.314	0.001
308.15	0.12565	0.249	0.001
308.15	0.1488	0.203	0.001
308.15	0.17648	0.16	0.001
308.15	0.20233	0.125	0.001
308.15	0.22484	0.1	0.001
308.15	0.24822	0.081	0.001
318.15	0	0.908	0.003
318.15	0.02257	0.746	0.002
318.15	0.04866	0.596	0.002
318.15	0.07753	0.471	0.002
318.15	0.10142	0.384	0.001
318.15	0.12565	0.31	0.001
318.15	0.1488	0.249	0.001
318.15	0.17648	0.2	0.001
318.15	0.20163	0.166	0.001
318.15	0.22514	0.135	0.001
318.15	0.24822	0.108	0.001

System: ethanol + water + potassium sulfate; phases: Liquid, Crystal
Fixed: Pressure, kPa = 101.325
Property: Refractive index (Na D-line) (Liquid); method: Standard Abbe refractometry
Temperature, K	Solvent: Mass fraction of ethanol	Refractive index (Na D-line)	uncertainty
278.15	0	1.33885	0.00045
278.15	0.02589	1.33833	0.00044
278.15	0.04996	1.33831	0.00043
278.15	0.07314	1.33844	0.00043
278.15	0.09651	1.33895	0.00042
278.15	0.12456	1.33966	0.00042
278.15	0.15108	1.34072	0.00042
278.15	0.1649	1.34126	0.00042
278.15	0.18293	1.34198	0.00042
278.15	0.19452	1.3424	0.00042
278.15	0.22928	1.34395	0.00041
278.15	0.24468	1.34467	0.00041
288.15	0	1.34065	0.00045
288.15	0.02646	1.33996	0.00044
288.15	0.05014	1.3396	0.00043
288.15	0.07446	1.33966	0.00043
288.15	0.09589	1.3399	0.00042
288.15	0.12075	1.34041	0.00042
288.15	0.15294	1.34147	0.00042
288.15	0.17543	1.34222	0.00042
288.15	0.20163	1.34325	0.00042
288.15	0.22324	1.34407	0.00041
288.15	0.24338	1.3448	0.00041
298.15	0	1.3424	0.00044
298.15	0.02528	1.34152	0.00044
298.15	0.04855	1.34104	0.00043
298.15	0.07275	1.34086	0.00043
298.15	0.09913	1.34099	0.00042
298.15	0.12722	1.3415	0.00042
298.15	0.1496	1.34202	0.00042
298.15	0.17648	1.34275	0.00042
298.15	0.20163	1.34368	0.00041
298.15	0.22397	1.34443	0.00041
298.15	0.24659	1.34526	0.00041
308.15	0	1.34392	0.00044
308.15	0.02444	1.34293	0.00044
308.15	0.04866	1.34228	0.00043
308.15	0.07357	1.34189	0.00043
308.15	0.10142	1.34179	0.00042
308.15	0.12565	1.34201	0.00042
308.15	0.1488	1.34247	0.00042
308.15	0.17648	1.34322	0.00042
308.15	0.20233	1.34396	0.00041
308.15	0.22484	1.34466	0.00041
308.15	0.24822	1.34547	0.00041
318.15	0	1.3456	0.00045
318.15	0.02257	1.34447	0.00044
318.15	0.04866	1.34358	0.00044
318.15	0.07753	1.34314	0.00043
318.15	0.10142	1.343	0.00043
318.15	0.12565	1.34306	0.00043
318.15	0.1488	1.34326	0.00042
318.15	0.17648	1.34388	0.00042
318.15	0.20163	1.34457	0.00042
318.15	0.22514	1.34521	0.00042
318.15	0.24822	1.34586	0.00041
