Measured thermophysical data. Solubilities of Phenylphosphinic Acid, Methylphenylphosphinic Acid, Hexachlorocyclotriphosphazene, and Hexaphenoxycyclotriphosphazene in Selected Solvents
Source: J. Chem. Eng. Data, 2011, 10.1021/je1009812
Compound 1: phenylphosphinic acid, C6H7O2P, InChI=1S/C6H7O2P/c7-9(8)6-4-2-1-3-5-6/h1-5,9H,(H,7,8), purity 99%
Compound 2: methylphenylphosphinic acid, C7H9O2P, InChI=1S/C7H9O2P/c1-10(8,9)7-5-3-2-4-6-7/h2-6H,1H3,(H,8,9), purity 99%
Compound 3: 1,3,5,2,4,6-triazatriphosphorine, 2,2,4,4,6,6-hexachloro-2,2,4,4,6,6-hexahydro-, Cl6N3P3, InChI=1S/Cl6N3P3/c1-10(2)7-11(3,4)9-12(5,6)8-10
Compound 4: 2,2,4,4,6,6-hexahydro-2,2,4,4,6,6-hexaphenoxy-1,3,5,2,4,6-triazatriphosphorine, C36H30N3O6P3, InChI=1S/C36H30N3O6P3/c1-7-19-31(20-8-1)40-46(41-32-21-9-2-10-22-32)37-47(42-33-23-11-3-12-24-33,43-34-25-13-4-14-26-34)39-48(38-46,44-35-27-15-5-16-28-35)45-36-29-17-6-18-30-36/h1-30H, purity 99%
Compound 5: methanol, CH4O, InChI=1S/CH4O/c1-2/h2H,1H3, purity 99.5%
Compound 6: ethanol, C2H6O, InChI=1S/C2H6O/c1-2-3/h3H,2H2,1H3, purity 99.7%
Compound 7: 2-ethoxyethan-1-ol, C4H10O2, InChI=1S/C4H10O2/c1-2-6-4-3-5/h5H,2-4H2,1H3, purity 99.5%
Compound 8: toluene, C7H8, InChI=1S/C7H8/c1-7-5-3-2-4-6-7/h2-6H,1H3, purity 99.5%
Compound 9: acetone, C3H6O, InChI=1S/C3H6O/c1-3(2)4/h1-2H3, purity 99.5%
Compound 10: ethyl acetate, C4H8O2, InChI=1S/C4H8O2/c1-3-6-4(2)5/h3H2,1-2H3, purity 99.5%
Compound 11: dichloromethane, CH2Cl2, InChI=1S/CH2Cl2/c2-1-3/h1H2, purity 99.5%
Compound 12: trichloromethane, CHCl3, InChI=1S/CHCl3/c2-1(3)4/h1H, purity 99%
Compound 13: benzene, C6H6, InChI=1S/C6H6/c1-2-4-6-5-3-1/h1-6H, purity 99.5%
Compound 14: tetrahydrofuran, C4H8O, InChI=1S/C4H8O/c1-2-4-5-3-1/h1-4H2, purity 99.5%
Compound 15: acetonitrile, C2H3N, InChI=1S/C2H3N/c1-2-3/h1H3, purity 99%
Compound 16: heptane, C7H16, InChI=1S/C7H16/c1-3-5-7-6-4-2/h3-7H2,1-2H3, purity 99%
Compound 17: water, H2O, InChI=1S/H2O/h1H2, purity 99.9%
Compound 18: diethyl ether, C4H10O, InChI=1S/C4H10O/c1-3-5-4-2/h3-4H2,1-2H3

System: phenylphosphinic acid; phases: Crystal, Liquid, Air at 1 atmosphere
Property: Molar enthalpy of transition or fusion, kJ/mol (Crystal); method: DSC
Molar enthalpy of transition or fusion, kJ/mol	uncertainty
12.8	0.42

System: phenylphosphinic acid; phases: Crystal, Liquid, Air at 1 atmosphere
Property: Normal melting temperature, K (Crystal); method: DTA
Normal melting temperature, K	uncertainty
356	0.63

System: methylphenylphosphinic acid; phases: Crystal, Liquid, Air at 1 atmosphere
Property: Molar enthalpy of transition or fusion, kJ/mol (Crystal); method: DSC
Molar enthalpy of transition or fusion, kJ/mol	uncertainty
25.45	0.74

System: methylphenylphosphinic acid; phases: Crystal, Liquid, Air at 1 atmosphere
Property: Normal melting temperature, K (Crystal); method: DTA
Normal melting temperature, K	uncertainty
409.35	0.63

System: 1,3,5,2,4,6-triazatriphosphorine, 2,2,4,4,6,6-hexachloro-2,2,4,4,6,6-hexahydro-; phases: Crystal, Liquid, Air at 1 atmosphere
Property: Molar enthalpy of transition or fusion, kJ/mol (Crystal); method: DSC
Molar enthalpy of transition or fusion, kJ/mol	uncertainty
19.61	0.64

System: 1,3,5,2,4,6-triazatriphosphorine, 2,2,4,4,6,6-hexachloro-2,2,4,4,6,6-hexahydro-; phases: Crystal, Liquid, Air at 1 atmosphere
Property: Normal melting temperature, K (Crystal); method: DTA
Normal melting temperature, K	uncertainty
385.86	0.63

System: 2,2,4,4,6,6-hexahydro-2,2,4,4,6,6-hexaphenoxy-1,3,5,2,4,6-triazatriphosphorine; phases: Crystal, Liquid, Air at 1 atmosphere
Property: Molar enthalpy of transition or fusion, kJ/mol (Crystal); method: DSC
Molar enthalpy of transition or fusion, kJ/mol	uncertainty
51.07	1.38

System: 2,2,4,4,6,6-hexahydro-2,2,4,4,6,6-hexaphenoxy-1,3,5,2,4,6-triazatriphosphorine; phases: Crystal, Liquid, Air at 1 atmosphere
Property: Normal melting temperature, K (Crystal); method: DTA
Normal melting temperature, K	uncertainty
387.11	0.63

System: methanol + phenylphosphinic acid; phases: Liquid, Crystal
Fixed: Pressure, kPa = 101
Property: Mole fraction of phenylphosphinic acid (Liquid); method: gravimetric method
Temperature, K	Mole fraction of phenylphosphinic acid	uncertainty
283.25	0.08893	0.00376
293.55	0.17262	0.00723
298.15	0.21539	0.00906
303.75	0.27946	0.01183
308.35	0.34367	0.01468
313.45	0.42919	0.01866
318.25	0.5256	0.02278
323.65	0.65545	0.02679

System: ethanol + phenylphosphinic acid; phases: Liquid, Crystal
Fixed: Pressure, kPa = 101
Property: Mole fraction of phenylphosphinic acid (Liquid); method: gravimetric method
Temperature, K	Mole fraction of phenylphosphinic acid	uncertainty
283.25	0.08893	0.00364
288.65	0.11238	0.0046
293.15	0.1357	0.00555
298.35	0.16753	0.00686
303.45	0.20456	0.00839
308.25	0.24536	0.01008
313.45	0.29693	0.01224
318.55	0.35587	0.01474
323.35	0.41978	0.0175

System: ethyl acetate + phenylphosphinic acid; phases: Liquid, Crystal
Fixed: Pressure, kPa = 101
Property: Mole fraction of phenylphosphinic acid (Liquid); method: gravimetric method
Temperature, K	Mole fraction of phenylphosphinic acid	uncertainty
293.45	0.01438	0.00058
298.15	0.01849	0.00075
303.25	0.02748	0.00112
313.45	0.04936	0.002
318.25	0.0661	0.00268
328.35	0.1073	0.00434
333.25	0.1356	0.00549
338.55	0.1739	0.00703

System: dichloromethane + phenylphosphinic acid; phases: Liquid, Crystal
Fixed: Pressure, kPa = 101
Property: Mole fraction of phenylphosphinic acid (Liquid); method: gravimetric method
Temperature, K	Mole fraction of phenylphosphinic acid	uncertainty
288.15	0.02921	0.00119
293.35	0.03862	0.00156
296.25	0.04584	0.00186
298.15	0.05285	0.00215
303.45	0.07088	0.00287
308.25	0.09103	0.00368

System: acetone + phenylphosphinic acid; phases: Liquid, Crystal
Fixed: Pressure, kPa = 101
Property: Mole fraction of phenylphosphinic acid (Liquid); method: gravimetric method
Temperature, K	Mole fraction of phenylphosphinic acid	uncertainty
293.35	0.03051	0.00127
298.15	0.04482	0.00184
303.55	0.06714	0.00274
308.25	0.08793	0.0036
313.45	0.1243	0.00512
318.25	0.18617	0.00766
323.35	0.25589	0.01048

System: trichloromethane + phenylphosphinic acid; phases: Liquid, Crystal
Fixed: Pressure, kPa = 101
Property: Mole fraction of phenylphosphinic acid (Liquid); method: gravimetric method
Temperature, K	Mole fraction of phenylphosphinic acid	uncertainty
293.15	0.13356	0.00538
298.45	0.15732	0.00633
303.25	0.18611	0.0075
308.25	0.2284	0.0092
313.15	0.26909	0.01084
318.35	0.31503	0.01268
323.25	0.35679	0.01437

System: 2-ethoxyethan-1-ol + phenylphosphinic acid; phases: Liquid, Crystal
Fixed: Pressure, kPa = 101
Property: Mole fraction of phenylphosphinic acid (Liquid); method: gravimetric method
Temperature, K	Mole fraction of phenylphosphinic acid	uncertainty
288.15	0.12375	0.00498
293.85	0.13586	0.00546
298.25	0.14798	0.00596
303.45	0.16472	0.00663
313.15	0.20526	0.00827
318.25	0.22646	0.00912
323.65	0.23952	0.00964
328.25	0.25932	0.01045
333.45	0.28343	0.01142
338.35	0.30839	0.01244
343.25	0.34346	0.01386
348.25	0.37187	0.01502
353.25	0.39705	0.01605
358.55	0.43396	0.01756
363.15	0.459	0.01859

System: toluene + phenylphosphinic acid; phases: Liquid, Crystal
Fixed: Pressure, kPa = 101
Property: Mole fraction of phenylphosphinic acid (Liquid); method: gravimetric method
Temperature, K	Mole fraction of phenylphosphinic acid	uncertainty
293.15	0.0187	0.00077
298.35	0.02822	0.00115
303.45	0.0389	0.00158
313.25	0.06516	0.00264
318.15	0.09342	0.0038
323.35	0.12474	0.00506
328.15	0.1615	0.0065
333.55	0.19847	0.00803
338.45	0.25449	0.01031
343.15	0.31578	0.01282
348.35	0.41296	0.01678

System: benzene + phenylphosphinic acid; phases: Liquid, Crystal
Fixed: Pressure, kPa = 101
Property: Mole fraction of phenylphosphinic acid (Liquid); method: gravimetric method
Temperature, K	Mole fraction of phenylphosphinic acid	uncertainty
299.15	0.054	0.0022
303.65	0.07091	0.00292
308.55	0.11077	0.00452
313.25	0.14545	0.00597
318.45	0.22542	0.00923
323.15	0.30848	0.01261
328.35	0.41516	0.01701
333.15	0.55438	0.02258

System: phenylphosphinic acid + water; phases: Liquid, Crystal
Fixed: Pressure, kPa = 101
Property: Mole fraction of phenylphosphinic acid (Liquid); method: gravimetric method
Temperature, K	Mole fraction of phenylphosphinic acid	uncertainty
297.79	0.00946	0.00042
300.25	0.01109	0.00049
302.4	0.01294	0.00057
305.22	0.01593	0.0007
309.93	0.02177	0.00096
312.84	0.03047	0.00135
318.15	0.0433	0.00191
323.35	0.05724	0.00254
328.15	0.08501	0.00378
333.45	0.11022	0.00493
338.25	0.16056	0.00725
343.15	0.20763	0.00944

System: ethanol + methylphenylphosphinic acid; phases: Liquid, Crystal
Fixed: Pressure, kPa = 101
Property: Mole fraction of methylphenylphosphinic acid (Liquid); method: gravimetric method
Temperature, K	Mole fraction of methylphenylphosphinic acid	uncertainty
566.4	0.2055	0.00852
571.3	0.26578	0.01102
576.5	0.33247	0.01383
581.4	0.39012	0.01634
586.7	0.48607	0.02071
591.6	0.61416	0.02511
596.3	0.73359	0.02958
601.4	0.87162	0.03499

System: ethyl acetate + methylphenylphosphinic acid; phases: Liquid, Crystal
Fixed: Pressure, kPa = 101
Property: Mole fraction of methylphenylphosphinic acid (Liquid); method: gravimetric method
Temperature, K	Mole fraction of methylphenylphosphinic acid	uncertainty
561.5	0.04836	0.00196
566.3	0.06208	0.00251
571.4	0.07498	0.00303
576.6	0.09411	0.00382
586.5	0.15165	0.00613
591.3	0.18183	0.00736
601.3	0.26543	0.01073
606.5	0.30425	0.01232
611.3	0.3593	0.01458
616.4	0.42767	0.01739

System: dichloromethane + methylphenylphosphinic acid; phases: Liquid, Crystal
Fixed: Pressure, kPa = 101
Property: Mole fraction of methylphenylphosphinic acid (Liquid); method: gravimetric method
Temperature, K	Mole fraction of methylphenylphosphinic acid	uncertainty
561.7	0.0465	0.00192
566.8	0.06971	0.00286
569.3	0.09042	0.00371
571.5	0.1045	0.00434
576.4	0.16401	0.00673
581.5	0.23466	0.00956

System: methanol + methylphenylphosphinic acid; phases: Liquid, Crystal
Fixed: Pressure, kPa = 101
Property: Mole fraction of methylphenylphosphinic acid (Liquid); method: gravimetric method
Temperature, K	Mole fraction of methylphenylphosphinic acid	uncertainty
571.5	0.31718	0.01358
576.3	0.34318	0.01476
581.3	0.3718	0.01609
586.4	0.40596	0.01772
591.5	0.4392	0.01935
596.3	0.47081	0.02097
601.4	0.49868	0.02245

System: trichloromethane + methylphenylphosphinic acid; phases: Liquid, Crystal
Fixed: Pressure, kPa = 101
Property: Mole fraction of methylphenylphosphinic acid (Liquid); method: gravimetric method
Temperature, K	Mole fraction of methylphenylphosphinic acid	uncertainty
566.3	0.11167	0.0045
571.4	0.13168	0.0053
576.3	0.1558	0.00628
581.5	0.1883	0.00758
586.3	0.21417	0.00863
591.6	0.25523	0.01028
596.3	0.2882	0.01162
601.3	0.3398	0.01371

System: toluene + methylphenylphosphinic acid; phases: Liquid, Crystal
Fixed: Pressure, kPa = 101
Property: Mole fraction of methylphenylphosphinic acid (Liquid); method: gravimetric method
Temperature, K	Mole fraction of methylphenylphosphinic acid	uncertainty
566.4	0.12006	0.00486
571.5	0.14696	0.00593
576.4	0.16751	0.00676
581.5	0.20431	0.00825
586.3	0.22919	0.00927
596.4	0.3271	0.01324
601.5	0.37682	0.01526
606.4	0.41824	0.01696
611.3	0.47917	0.0195
616.6	0.56428	0.0228

System: 2-ethoxyethan-1-ol + methylphenylphosphinic acid; phases: Liquid, Crystal
Fixed: Pressure, kPa = 101
Property: Mole fraction of methylphenylphosphinic acid (Liquid); method: gravimetric method
Temperature, K	Mole fraction of methylphenylphosphinic acid	uncertainty
571.3	0.25216	0.01019
576.3	0.28886	0.01167
586.4	0.34791	0.01407
591.3	0.39721	0.0161
596.5	0.44061	0.01788
601.4	0.47156	0.01916
606.3	0.51934	0.02108
611.6	0.58661	0.02364
616.5	0.63922	0.02568
621.5	0.69649	0.02793
626.3	0.75089	0.03008

System: benzene + methylphenylphosphinic acid; phases: Liquid, Crystal
Fixed: Pressure, kPa = 101
Property: Mole fraction of methylphenylphosphinic acid (Liquid); method: gravimetric method
Temperature, K	Mole fraction of methylphenylphosphinic acid	uncertainty
566.4	0.03858	0.00158
571.3	0.05408	0.00222
576.3	0.08089	0.00331
581.5	0.11265	0.00461
586.4	0.1625	0.00664
591.3	0.2183	0.00892
596.4	0.30116	0.01235
601.3	0.41941	0.01725
606.5	0.56276	0.02292

System: acetone + methylphenylphosphinic acid; phases: Liquid, Crystal
Fixed: Pressure, kPa = 101
Property: Mole fraction of methylphenylphosphinic acid (Liquid); method: gravimetric method
Temperature, K	Mole fraction of methylphenylphosphinic acid	uncertainty
566.3	0.04733	0.00193
571.3	0.06094	0.00249
576.4	0.08163	0.00333
581.3	0.09952	0.00406
586.5	0.12682	0.00518
591.3	0.16494	0.00674
596.4	0.20409	0.00833

System: methylphenylphosphinic acid + water; phases: Liquid, Crystal
Fixed: Pressure, kPa = 101
Property: Mole fraction of methylphenylphosphinic acid (Liquid); method: gravimetric method
Temperature, K	Mole fraction of methylphenylphosphinic acid	uncertainty
571.3	0.0154	0.00069
576.5	0.02037	0.0009
583.6	0.027	0.0012
587.4	0.03195	0.00142
593.6	0.04136	0.00184
597.3	0.04771	0.00213
602.4	0.05792	0.00259
606.8	0.0679	0.00304
611.9	0.08648	0.00388
616.6	0.09684	0.00436
621.4	0.11971	0.00542

System: ethanol + 1,3,5,2,4,6-triazatriphosphorine, 2,2,4,4,6,6-hexachloro-2,2,4,4,6,6-hexahydro-; phases: Liquid, Crystal
Fixed: Pressure, kPa = 101
Property: Mole fraction of 1,3,5,2,4,6-triazatriphosphorine, 2,2,4,4,6,6-hexachloro-2,2,4,4,6,6-hexahydro- (Liquid); method: gravimetric method
Temperature, K	Mole fraction of 1,3,5,2,4,6-triazatriphosphorine, 2,2,4,4,6,6-hexachloro-2,2,4,4,6,6-hexahydro-	uncertainty
298.45	0.01061	0.00047
303.25	0.01643	0.00073
308.45	0.02948	0.00131
313.35	0.04873	0.00219
319.85	0.09385	0.0042
324.35	0.14636	0.00658
328.15	0.1943	0.00888
333.55	0.3163	0.01483

System: ethyl acetate + 1,3,5,2,4,6-triazatriphosphorine, 2,2,4,4,6,6-hexachloro-2,2,4,4,6,6-hexahydro-; phases: Liquid, Crystal
Fixed: Pressure, kPa = 101
Property: Mole fraction of 1,3,5,2,4,6-triazatriphosphorine, 2,2,4,4,6,6-hexachloro-2,2,4,4,6,6-hexahydro- (Liquid); method: gravimetric method
Temperature, K	Mole fraction of 1,3,5,2,4,6-triazatriphosphorine, 2,2,4,4,6,6-hexachloro-2,2,4,4,6,6-hexahydro-	uncertainty
298.55	0.07012	0.00289
303.35	0.08293	0.00342
308.35	0.09882	0.00407
313.45	0.116	0.00478
319.95	0.14415	0.00595
324.15	0.16346	0.00676
328.05	0.18483	0.00765
333.65	0.2149	0.00891

System: tetrahydrofuran + 1,3,5,2,4,6-triazatriphosphorine, 2,2,4,4,6,6-hexachloro-2,2,4,4,6,6-hexahydro-; phases: Liquid, Crystal
Fixed: Pressure, kPa = 101
Property: Mole fraction of 1,3,5,2,4,6-triazatriphosphorine, 2,2,4,4,6,6-hexachloro-2,2,4,4,6,6-hexahydro- (Liquid); method: gravimetric method
Temperature, K	Mole fraction of 1,3,5,2,4,6-triazatriphosphorine, 2,2,4,4,6,6-hexachloro-2,2,4,4,6,6-hexahydro-	uncertainty
293.25	0.17725	0.00743
299.15	0.19911	0.00837
303.15	0.215	0.00905
308.35	0.2381	0.01006
312.85	0.2592	0.01098
318.95	0.2867	0.01219
323.15	0.31003	0.01324
328.35	0.33736	0.01447

System: acetone + 1,3,5,2,4,6-triazatriphosphorine, 2,2,4,4,6,6-hexachloro-2,2,4,4,6,6-hexahydro-; phases: Liquid, Crystal
Fixed: Pressure, kPa = 101
Property: Mole fraction of 1,3,5,2,4,6-triazatriphosphorine, 2,2,4,4,6,6-hexachloro-2,2,4,4,6,6-hexahydro- (Liquid); method: gravimetric method
Temperature, K	Mole fraction of 1,3,5,2,4,6-triazatriphosphorine, 2,2,4,4,6,6-hexachloro-2,2,4,4,6,6-hexahydro-	uncertainty
293.15	0.02957	0.00126
300.45	0.04259	0.0018
303.25	0.04776	0.00203
308.25	0.05997	0.00255
313.25	0.07432	0.00316
318.35	0.09367	0.00399
322.95	0.1117	0.00476

System: dichloromethane + 1,3,5,2,4,6-triazatriphosphorine, 2,2,4,4,6,6-hexachloro-2,2,4,4,6,6-hexahydro-; phases: Liquid, Crystal
Fixed: Pressure, kPa = 101
Property: Mole fraction of 1,3,5,2,4,6-triazatriphosphorine, 2,2,4,4,6,6-hexachloro-2,2,4,4,6,6-hexahydro- (Liquid); method: gravimetric method
Temperature, K	Mole fraction of 1,3,5,2,4,6-triazatriphosphorine, 2,2,4,4,6,6-hexachloro-2,2,4,4,6,6-hexahydro-	uncertainty
293.15	0.11417	0.00472
298.05	0.13311	0.0055
300.55	0.1435	0.00594
303.35	0.15539	0.00643
305.65	0.16527	0.00685
308.35	0.17954	0.00745

System: acetonitrile + 1,3,5,2,4,6-triazatriphosphorine, 2,2,4,4,6,6-hexachloro-2,2,4,4,6,6-hexahydro-; phases: Liquid, Crystal
Fixed: Pressure, kPa = 101
Property: Mole fraction of 1,3,5,2,4,6-triazatriphosphorine, 2,2,4,4,6,6-hexachloro-2,2,4,4,6,6-hexahydro- (Liquid); method: gravimetric method
Temperature, K	Mole fraction of 1,3,5,2,4,6-triazatriphosphorine, 2,2,4,4,6,6-hexachloro-2,2,4,4,6,6-hexahydro-	uncertainty
293.15	0.00175	8e-05
299.85	0.00253	0.00011
303.25	0.00303	0.00013
308.45	0.00401	0.00018
313.05	0.00494	0.00022
318.55	0.0066	0.00029
323.25	0.0082	0.00036
328.25	0.01046	0.00046
332.35	0.01285	0.00057
338.25	0.01624	0.00072

System: 2-ethoxyethan-1-ol + 1,3,5,2,4,6-triazatriphosphorine, 2,2,4,4,6,6-hexachloro-2,2,4,4,6,6-hexahydro-; phases: Liquid, Crystal
Fixed: Pressure, kPa = 101
Property: Mole fraction of 1,3,5,2,4,6-triazatriphosphorine, 2,2,4,4,6,6-hexachloro-2,2,4,4,6,6-hexahydro- (Liquid); method: gravimetric method
Temperature, K	Mole fraction of 1,3,5,2,4,6-triazatriphosphorine, 2,2,4,4,6,6-hexachloro-2,2,4,4,6,6-hexahydro-	uncertainty
299.95	0.0322	0.00132
303.35	0.0365	0.00151
308.35	0.05315	0.00219
313.15	0.06353	0.00262
318.65	0.08616	0.00357
323.35	0.11575	0.0048
328.05	0.14731	0.00609
332.45	0.17146	0.00711
338.25	0.23034	0.00961
343.15	0.29876	0.01253
348.35	0.37344	0.01579
353.15	0.4568	0.0196

System: toluene + 1,3,5,2,4,6-triazatriphosphorine, 2,2,4,4,6,6-hexachloro-2,2,4,4,6,6-hexahydro-; phases: Liquid, Crystal
Fixed: Pressure, kPa = 101
Property: Mole fraction of 1,3,5,2,4,6-triazatriphosphorine, 2,2,4,4,6,6-hexachloro-2,2,4,4,6,6-hexahydro- (Liquid); method: gravimetric method
Temperature, K	Mole fraction of 1,3,5,2,4,6-triazatriphosphorine, 2,2,4,4,6,6-hexachloro-2,2,4,4,6,6-hexahydro-	uncertainty
298.15	0.05847	0.0024
301.55	0.06449	0.00264
303.25	0.06768	0.00278
308.45	0.07818	0.00321
312.85	0.088	0.00361
318.25	0.10129	0.00416
322.85	0.11377	0.00467
328.25	0.12984	0.00534

System: heptane + 1,3,5,2,4,6-triazatriphosphorine, 2,2,4,4,6,6-hexachloro-2,2,4,4,6,6-hexahydro-; phases: Liquid, Crystal
Fixed: Pressure, kPa = 101
Property: Mole fraction of 1,3,5,2,4,6-triazatriphosphorine, 2,2,4,4,6,6-hexachloro-2,2,4,4,6,6-hexahydro- (Liquid); method: gravimetric method
Temperature, K	Mole fraction of 1,3,5,2,4,6-triazatriphosphorine, 2,2,4,4,6,6-hexachloro-2,2,4,4,6,6-hexahydro-	uncertainty
293.15	0.0046	0.00019
298.25	0.00687	0.00028
303.35	0.00936	0.00039
308.45	0.01386	0.00057
313.45	0.01825	0.00075
318.35	0.02664	0.0011
323.05	0.03557	0.00146
328.15	0.04619	0.00189

System: ethanol + 2,2,4,4,6,6-hexahydro-2,2,4,4,6,6-hexaphenoxy-1,3,5,2,4,6-triazatriphosphorine; phases: Liquid, Crystal
Fixed: Pressure, kPa = 101
Property: Mole fraction of 2,2,4,4,6,6-hexahydro-2,2,4,4,6,6-hexaphenoxy-1,3,5,2,4,6-triazatriphosphorine (Liquid); method: gravimetric method
Temperature, K	Mole fraction of 2,2,4,4,6,6-hexahydro-2,2,4,4,6,6-hexaphenoxy-1,3,5,2,4,6-triazatriphosphorine	uncertainty
298.25	0.00955	0.00049
300.95	0.00988	0.00051
303.25	0.01022	0.00053
308.15	0.01096	0.00056
313.45	0.01193	0.00061
318.75	0.0129	0.00066
323.05	0.01365	0.0007
328.35	0.01468	0.00076

System: ethyl acetate + 2,2,4,4,6,6-hexahydro-2,2,4,4,6,6-hexaphenoxy-1,3,5,2,4,6-triazatriphosphorine; phases: Liquid, Crystal
Fixed: Pressure, kPa = 101
Property: Mole fraction of 2,2,4,4,6,6-hexahydro-2,2,4,4,6,6-hexaphenoxy-1,3,5,2,4,6-triazatriphosphorine (Liquid); method: gravimetric method
Temperature, K	Mole fraction of 2,2,4,4,6,6-hexahydro-2,2,4,4,6,6-hexaphenoxy-1,3,5,2,4,6-triazatriphosphorine	uncertainty
298.15	0.05921	0.0026
300.95	0.06552	0.00288
303.25	0.06989	0.00307
308.25	0.08291	0.00365
313.25	0.09828	0.00435
319.05	0.11936	0.0053
323.15	0.13638	0.00607
328.25	0.15885	0.00711

System: tetrahydrofuran + 2,2,4,4,6,6-hexahydro-2,2,4,4,6,6-hexaphenoxy-1,3,5,2,4,6-triazatriphosphorine; phases: Liquid, Crystal
Fixed: Pressure, kPa = 101
Property: Mole fraction of 2,2,4,4,6,6-hexahydro-2,2,4,4,6,6-hexaphenoxy-1,3,5,2,4,6-triazatriphosphorine (Liquid); method: gravimetric method
Temperature, K	Mole fraction of 2,2,4,4,6,6-hexahydro-2,2,4,4,6,6-hexaphenoxy-1,3,5,2,4,6-triazatriphosphorine	uncertainty
293.25	0.15101	0.00706
298.15	0.17459	0.00822
304.35	0.20009	0.0095
308.25	0.22246	0.01066
314.25	0.25264	0.01225
318.45	0.28516	0.01403
323.15	0.31512	0.01573
328.25	0.34611	0.01757

System: acetone + 2,2,4,4,6,6-hexahydro-2,2,4,4,6,6-hexaphenoxy-1,3,5,2,4,6-triazatriphosphorine; phases: Liquid, Crystal
Fixed: Pressure, kPa = 101
Property: Mole fraction of 2,2,4,4,6,6-hexahydro-2,2,4,4,6,6-hexaphenoxy-1,3,5,2,4,6-triazatriphosphorine (Liquid); method: gravimetric method
Temperature, K	Mole fraction of 2,2,4,4,6,6-hexahydro-2,2,4,4,6,6-hexaphenoxy-1,3,5,2,4,6-triazatriphosphorine	uncertainty
293.15	0.02954	0.00142
296.45	0.03491	0.00168
300.25	0.0423	0.00204
304.35	0.0496	0.00239
308.25	0.0588	0.00285
314.25	0.07818	0.00381
318.35	0.093	0.00456
323.15	0.11665	0.00576

System: dichloromethane + 2,2,4,4,6,6-hexahydro-2,2,4,4,6,6-hexaphenoxy-1,3,5,2,4,6-triazatriphosphorine; phases: Liquid, Crystal
Fixed: Pressure, kPa = 101
Property: Mole fraction of 2,2,4,4,6,6-hexahydro-2,2,4,4,6,6-hexaphenoxy-1,3,5,2,4,6-triazatriphosphorine (Liquid); method: gravimetric method
Temperature, K	Mole fraction of 2,2,4,4,6,6-hexahydro-2,2,4,4,6,6-hexaphenoxy-1,3,5,2,4,6-triazatriphosphorine	uncertainty
293.35	0.09904	0.00442
295.95	0.11079	0.00496
300.35	0.13854	0.00624
303.15	0.15834	0.00716
306.05	0.17901	0.00814
310.35	0.21935	0.01008

System: acetonitrile + 2,2,4,4,6,6-hexahydro-2,2,4,4,6,6-hexaphenoxy-1,3,5,2,4,6-triazatriphosphorine; phases: Liquid, Crystal
Fixed: Pressure, kPa = 101
Property: Mole fraction of 2,2,4,4,6,6-hexahydro-2,2,4,4,6,6-hexaphenoxy-1,3,5,2,4,6-triazatriphosphorine (Liquid); method: gravimetric method
Temperature, K	Mole fraction of 2,2,4,4,6,6-hexahydro-2,2,4,4,6,6-hexaphenoxy-1,3,5,2,4,6-triazatriphosphorine	uncertainty
298.25	0.00397	0.00022
303.55	0.00604	0.00033
308.25	0.00821	0.00045
313.35	0.01217	0.00066
318.35	0.01697	0.00093
323.45	0.02433	0.00133
328.15	0.03319	0.00182
333.25	0.04566	0.00252

System: 2-ethoxyethan-1-ol + 2,2,4,4,6,6-hexahydro-2,2,4,4,6,6-hexaphenoxy-1,3,5,2,4,6-triazatriphosphorine; phases: Liquid, Crystal
Fixed: Pressure, kPa = 101
Property: Mole fraction of 2,2,4,4,6,6-hexahydro-2,2,4,4,6,6-hexaphenoxy-1,3,5,2,4,6-triazatriphosphorine (Liquid); method: gravimetric method
Temperature, K	Mole fraction of 2,2,4,4,6,6-hexahydro-2,2,4,4,6,6-hexaphenoxy-1,3,5,2,4,6-triazatriphosphorine	uncertainty
298.15	0.0065	0.00028
300.95	0.00742	0.00032
303.25	0.00811	0.00035
310.15	0.01058	0.00046
314.55	0.01263	0.00055
318.75	0.01485	0.00065
323.65	0.01815	0.00079
328.05	0.02117	0.00092
333.15	0.02593	0.00113
343.25	0.03517	0.00153
348.35	0.04196	0.00183
353.15	0.04783	0.00209

System: toluene + 2,2,4,4,6,6-hexahydro-2,2,4,4,6,6-hexaphenoxy-1,3,5,2,4,6-triazatriphosphorine; phases: Liquid, Crystal
Fixed: Pressure, kPa = 101
Property: Mole fraction of 2,2,4,4,6,6-hexahydro-2,2,4,4,6,6-hexaphenoxy-1,3,5,2,4,6-triazatriphosphorine (Liquid); method: gravimetric method
Temperature, K	Mole fraction of 2,2,4,4,6,6-hexahydro-2,2,4,4,6,6-hexaphenoxy-1,3,5,2,4,6-triazatriphosphorine	uncertainty
298.05	0.05717	0.0025
300.95	0.065	0.00284
303.35	0.07167	0.00313
310.25	0.09042	0.00396
314.45	0.10631	0.00467
318.65	0.12334	0.00544
323.55	0.14988	0.00665
327.95	0.17336	0.00773
333.15	0.2089	0.00939
338.25	0.24608	0.01116

System: heptane + 2,2,4,4,6,6-hexahydro-2,2,4,4,6,6-hexaphenoxy-1,3,5,2,4,6-triazatriphosphorine; phases: Liquid, Crystal
Fixed: Pressure, kPa = 101
Property: Mole fraction of 2,2,4,4,6,6-hexahydro-2,2,4,4,6,6-hexaphenoxy-1,3,5,2,4,6-triazatriphosphorine (Liquid); method: gravimetric method
Temperature, K	Mole fraction of 2,2,4,4,6,6-hexahydro-2,2,4,4,6,6-hexaphenoxy-1,3,5,2,4,6-triazatriphosphorine	uncertainty
298.15	0.00349	0.00015
303.45	0.00393	0.00017
308.35	0.00442	0.00019
313.05	0.00494	0.00021
318.25	0.00558	0.00024
323.35	0.00618	0.00026
328.25	0.00687	0.00029
333.15	0.00751	0.00032

System: diethyl ether + 1,3,5,2,4,6-triazatriphosphorine, 2,2,4,4,6,6-hexachloro-2,2,4,4,6,6-hexahydro-; phases: Liquid, Crystal
Fixed: Pressure, kPa = 101
Property: Mole fraction of 1,3,5,2,4,6-triazatriphosphorine, 2,2,4,4,6,6-hexachloro-2,2,4,4,6,6-hexahydro- (Liquid); method: gravimetric method
Temperature, K	Mole fraction of 1,3,5,2,4,6-triazatriphosphorine, 2,2,4,4,6,6-hexachloro-2,2,4,4,6,6-hexahydro-	uncertainty
293.25	0.09441	0.00393
296.15	0.1035	0.00431
299.05	0.11396	0.00475
301.15	0.12248	0.00511
303.25	0.13032	0.00544
305.15	0.13882	0.0058

System: diethyl ether + 2,2,4,4,6,6-hexahydro-2,2,4,4,6,6-hexaphenoxy-1,3,5,2,4,6-triazatriphosphorine; phases: Liquid, Crystal
Fixed: Pressure, kPa = 101
Property: Mole fraction of 2,2,4,4,6,6-hexahydro-2,2,4,4,6,6-hexaphenoxy-1,3,5,2,4,6-triazatriphosphorine (Liquid); method: gravimetric method
Temperature, K	Mole fraction of 2,2,4,4,6,6-hexahydro-2,2,4,4,6,6-hexaphenoxy-1,3,5,2,4,6-triazatriphosphorine	uncertainty
293.15	0.0101	0.00046
296.25	0.01216	0.00055
299.05	0.01404	0.00063
300.35	0.01543	0.0007
303.15	0.01777	0.0008
306.05	0.02112	0.00095
