Measured thermophysical data. Densities, Excess Molar Volumes, Isothermal Compressibilities, and Isobaric Expansivities of Dimethyl Carbonate + Cyclohexane Systems at Temperatures from (293.15 to 313.15) K and Pressures from (0.1 to 40) MPa
Source: J. Chem. Eng. Data, 2010, 10.1021/je100353j
Compound 1: dimethyl carbonate, C3H6O3, InChI=1S/C3H6O3/c1-5-3(4)6-2/h1-2H3, purity 99.5%
Compound 2: cyclohexane, C6H12, InChI=1S/C6H12/c1-2-4-6-5-3-1/h1-6H2, purity 99.5%

System: dimethyl carbonate; phases: Liquid
Fixed: Pressure, kPa = 101.325
Property: Mass density, kg/m3 (Liquid); method: VIBTUB:UFactor:4
Temperature, K	Mass density, kg/m3	uncertainty
293.15	1069.8	0.4
298.15	1063.2	0.4
303.15	1056.5	0.4
308.15	1049.8	0.4
313.15	1043	0.4

System: dimethyl carbonate; phases: Liquid
Property: Mass density, kg/m3 (Liquid); method: BELLOWS:UFactor:4
Temperature, K	Pressure, kPa	Mass density, kg/m3	uncertainty
293.15	5000	1074.4	0.5
293.15	10000	1078.6	0.5
293.15	20000	1086.9	0.6
293.15	30000	1094.5	0.8
293.15	40000	1101.9	1
298.15	5000	1068	0.5
298.15	10000	1072.4	0.5
298.15	20000	1080.8	0.6
298.15	30000	1088.7	0.8
298.15	40000	1096.2	1
303.15	5000	1061.3	0.5
303.15	10000	1066	0.5
303.15	20000	1074.7	0.6
303.15	30000	1082.9	0.7
303.15	40000	1090.4	0.9
303.15	10000	1065	0.5
308.15	5000	1054.6	0.4
308.15	10000	1059.4	0.5
308.15	20000	1068.5	0.6
308.15	30000	1077	0.7
308.15	40000	1084.8	0.9
313.15	5000	1048.1	0.4
313.15	10000	1053	0.5
313.15	20000	1062.3	0.5
313.15	30000	1071	0.7
313.15	40000	1079	0.8

System: cyclohexane; phases: Liquid
Fixed: Pressure, kPa = 101.325
Property: Mass density, kg/m3 (Liquid); method: VIBTUB:UFactor:4
Temperature, K	Mass density, kg/m3	uncertainty
293.15	778.8	0.5
298.15	773.9	0.6
303.15	769.3	0.6
308.15	764.5	0.6
313.15	759.7	0.6

System: cyclohexane; phases: Liquid
Property: Mass density, kg/m3 (Liquid); method: BELLOWS:UFactor:4
Temperature, K	Pressure, kPa	Mass density, kg/m3	uncertainty
293.15	5000	782.8	0.7
293.15	10000	786.6	0.8
293.15	20000	793.9	1.1
293.15	30000	801	1.4
293.15	40000	807.8	1.7
298.15	5000	778.3	0.7
298.15	10000	782.3	0.9
298.15	20000	789.8	1.1
298.15	30000	796.7	1.4
298.15	40000	802.9	1.7
303.15	5000	773.6	0.7
303.15	10000	777.8	0.9
303.15	20000	785.7	1.2
303.15	30000	792.8	1.4
303.15	40000	799.2	1.7
308.15	5000	769	0.7
308.15	10000	773.4	0.9
308.15	20000	781.5	1.2
308.15	30000	788.8	1.5
308.15	40000	795.5	1.7
313.15	5000	764.5	0.7
313.15	10000	768.9	0.9
313.15	20000	777.4	1.2
313.15	30000	784.8	1.5
313.15	40000	791.8	1.8

System: cyclohexane + dimethyl carbonate; phases: Liquid
Property: Mass density, kg/m3 (Liquid); method: BELLOWS:UFactor:4
Temperature, K	Pressure, kPa	Mole fraction of dimethyl carbonate	Mass density, kg/m3	uncertainty
293.15	100	0	778.8	0.5
293.15	100	0.1	797.9	0.5
293.15	100	0.2	818.3	0.5
293.15	100	0.3	842.3	0.5
293.15	100	0.4	866	0.5
293.15	100	0.5	893.7	0.5
293.15	100	0.6	923.6	0.5
293.15	100	0.7	957.5	0.4
293.15	100	0.8	991	0.5
293.15	100	0.9	1030.4	0.4
293.15	100	1	1069.8	0.4
293.15	5000	0	782.8	0.7
293.15	5000	0.1	802.2	0.7
293.15	5000	0.2	822.7	0.6
293.15	5000	0.3	846.9	0.6
293.15	5000	0.4	870.7	0.6
293.15	5000	0.5	898.5	0.5
293.15	5000	0.6	928.4	0.5
293.15	5000	0.7	962.3	0.4
293.15	5000	0.8	995.8	0.4
293.15	5000	0.9	1035.1	0.4
293.15	5000	1	1074.4	0.5
293.15	10000	0	786.6	0.8
293.15	10000	0.1	806.2	0.8
293.15	10000	0.2	827	0.7
293.15	10000	0.3	851.2	0.7
293.15	10000	0.4	875.3	0.6
293.15	10000	0.5	903.1	0.6
293.15	10000	0.6	933	0.5
293.15	10000	0.7	966.9	0.4
293.15	10000	0.8	1000.3	0.4
293.15	10000	0.9	1039.5	0.4
293.15	10000	1	1078.6	0.5
293.15	20000	0	793.9	1.1
293.15	20000	0.1	813.9	1
293.15	20000	0.2	835	1
293.15	20000	0.3	859.6	0.8
293.15	20000	0.4	883.9	0.8
293.15	20000	0.5	911.8	0.6
293.15	20000	0.6	941.8	0.5
293.15	20000	0.7	975.7	0.4
293.15	20000	0.8	1009	0.4
293.15	20000	0.9	1048	0.5
293.15	20000	1	1086.9	0.6
293.15	30000	0	801	1.4
293.15	30000	0.1	821.3	1.3
293.15	30000	0.2	842.7	1.2
293.15	30000	0.3	867.5	1
293.15	30000	0.4	892	0.9
293.15	30000	0.5	920	0.7
293.15	30000	0.6	950	0.6
293.15	30000	0.7	983.8	0.4
293.15	30000	0.8	1017.1	0.4
293.15	30000	0.9	1055.8	0.6
293.15	30000	1	1094.5	0.8
293.15	40000	0	807.8	1.7
293.15	40000	0.1	828.5	1.5
293.15	40000	0.2	850.2	1.3
293.15	40000	0.3	875.2	1.2
293.15	40000	0.4	899.8	1
293.15	40000	0.5	928	0.8
293.15	40000	0.6	958	0.6
293.15	40000	0.7	991.8	0.4
293.15	40000	0.8	1025	0.5
293.15	40000	0.9	1063.5	0.7
293.15	40000	1	1101.9	1
298.15	100	0	773.9	0.6
298.15	100	0.1	792.3	0.5
298.15	100	0.2	812.5	0.5
298.15	100	0.3	836.3	0.5
298.15	100	0.4	860	0.5
298.15	100	0.5	887.4	0.5
298.15	100	0.6	917	0.5
298.15	100	0.7	950.8	0.4
298.15	100	0.8	984.2	0.4
298.15	100	0.9	1023.2	0.4
298.15	100	1	1063.2	0.4
298.15	5000	0	778.3	0.7
298.15	5000	0.1	796.9	0.7
298.15	5000	0.2	817.3	0.6
298.15	5000	0.3	841.3	0.6
298.15	5000	0.4	865.1	0.6
298.15	5000	0.5	892.6	0.5
298.15	5000	0.6	922.2	0.5
298.15	5000	0.7	956	0.4
298.15	5000	0.8	989.4	0.4
298.15	5000	0.9	1028.2	0.4
298.15	5000	1	1068	0.5
298.15	10000	0	782.3	0.9
298.15	10000	0.1	801.2	0.8
298.15	10000	0.2	821.8	0.7
298.15	10000	0.3	846	0.7
298.15	10000	0.4	870	0.6
298.15	10000	0.5	897.5	0.6
298.15	10000	0.6	927.1	0.5
298.15	10000	0.7	960.8	0.4
298.15	10000	0.8	994.2	0.4
298.15	10000	0.9	1032.8	0.4
298.15	10000	1	1072.4	0.5
298.15	20000	0	789.8	1.1
298.15	20000	0.1	809.2	1.1
298.15	20000	0.2	830.2	1
298.15	20000	0.3	854.6	0.9
298.15	20000	0.4	878.8	0.8
298.15	20000	0.5	906.5	0.7
298.15	20000	0.6	936.1	0.5
298.15	20000	0.7	969.8	0.4
298.15	20000	0.8	1003.1	0.4
298.15	20000	0.9	1041.5	0.5
298.15	20000	1	1080.8	0.6
298.15	30000	0	796.7	1.4
298.15	30000	0.1	816.5	1.3
298.15	30000	0.2	837.8	1.2
298.15	30000	0.3	862.5	1
298.15	30000	0.4	887	0.9
298.15	30000	0.5	914.8	0.7
298.15	30000	0.6	944.5	0.6
298.15	30000	0.7	978.2	0.4
298.15	30000	0.8	1011.4	0.4
298.15	30000	0.9	1049.7	0.6
298.15	30000	1	1088.7	0.8
298.15	40000	0	802.9	1.7
298.15	40000	0.1	823.2	1.5
298.15	40000	0.2	844.8	1.4
298.15	40000	0.3	869.8	1.2
298.15	40000	0.4	894.5	1
298.15	40000	0.5	922.5	0.8
298.15	40000	0.6	952.3	0.6
298.15	40000	0.7	986.1	0.4
298.15	40000	0.8	1019.3	0.4
298.15	40000	0.9	1057.4	0.7
298.15	40000	1	1096.2	1
303.15	100	0	769.3	0.6
303.15	100	0.1	786.9	0.5
303.15	100	0.2	806.9	0.5
303.15	100	0.3	830.4	0.5
303.15	100	0.4	854.1	0.5
303.15	100	0.5	881.2	0.5
303.15	100	0.6	910.1	0.5
303.15	100	0.7	944.1	0.4
303.15	100	0.8	977.4	0.4
303.15	100	0.9	1015.8	0.4
303.15	100	1	1056.5	0.4
303.15	5000	0	773.6	0.7
303.15	5000	0.1	791.4	0.7
303.15	5000	0.2	811.7	0.6
303.15	5000	0.3	835.4	0.6
303.15	5000	0.4	859.2	0.6
303.15	5000	0.5	886.4	0.5
303.15	5000	0.6	915.4	0.5
303.15	5000	0.7	949.3	0.5
303.15	5000	0.8	982.6	0.4
303.15	5000	0.9	1020.9	0.4
303.15	5000	1	1061.3	0.5
303.15	10000	0	777.8	0.9
303.15	10000	0.1	796	0.8
303.15	10000	0.2	816.5	0.8
303.15	10000	0.3	840.4	0.7
303.15	10000	0.4	864.4	0.6
303.15	10000	0.5	891.6	0.6
303.15	10000	0.6	920.6	0.5
303.15	10000	0.7	954.5	0.5
303.15	10000	0.8	987.7	0.4
303.15	10000	0.9	1025.8	0.4
303.15	10000	1	1065	0.5
303.15	20000	0	785.7	1.2
303.15	20000	0.1	804.5	1.1
303.15	20000	0.2	825.3	1
303.15	20000	0.3	849.5	0.9
303.15	20000	0.4	873.8	0.8
303.15	20000	0.5	901.2	0.7
303.15	20000	0.6	930.3	0.6
303.15	20000	0.7	964.1	0.5
303.15	20000	0.8	997.1	0.4
303.15	20000	0.9	1035	0.5
303.15	20000	1	1074.7	0.6
303.15	30000	0	792.8	1.4
303.15	30000	0.1	812.1	1.3
303.15	30000	0.2	833.4	1.2
303.15	30000	0.3	857.9	1.1
303.15	30000	0.4	882.3	0.9
303.15	30000	0.5	909.9	0.8
303.15	30000	0.6	939.1	0.6
303.15	30000	0.7	972.8	0.5
303.15	30000	0.8	1005.8	0.4
303.15	30000	0.9	1043.6	0.5
303.15	30000	1	1082.9	0.7
303.15	40000	0	799.2	1.7
303.15	40000	0.1	819	1.6
303.15	40000	0.2	840.7	1.4
303.15	40000	0.3	865.4	1.2
303.15	40000	0.4	890.1	1
303.15	40000	0.5	917.8	0.8
303.15	40000	0.6	947.2	0.6
303.15	40000	0.7	980.9	0.4
303.15	40000	0.8	1013.8	0.4
303.15	40000	0.9	1051.4	0.6
303.15	40000	1	1090.4	0.9
308.15	100	0	764.5	0.6
308.15	100	0.1	781.2	0.6
308.15	100	0.2	801.4	0.5
308.15	100	0.3	824.4	0.5
308.15	100	0.4	847.9	0.5
308.15	100	0.5	874.8	0.5
308.15	100	0.6	903.4	0.5
308.15	100	0.7	936.9	0.5
308.15	100	0.8	969.7	0.4
308.15	100	0.9	1008.6	0.4
308.15	100	1	1049.8	0.4
308.15	5000	0	769	0.7
308.15	5000	0.1	786.1	0.7
308.15	5000	0.2	806.5	0.7
308.15	5000	0.3	829.7	0.6
308.15	5000	0.4	853.4	0.6
308.15	5000	0.5	880.3	0.5
308.15	5000	0.6	908.9	0.5
308.15	5000	0.7	942.3	0.5
308.15	5000	0.8	975.1	0.4
308.15	5000	0.9	1013.7	0.4
308.15	5000	1	1054.6	0.4
308.15	10000	0	773.4	0.9
308.15	10000	0.1	790.8	0.8
308.15	10000	0.2	811.4	0.8
308.15	10000	0.3	834.8	0.7
308.15	10000	0.4	858.6	0.7
308.15	10000	0.5	885.6	0.6
308.15	10000	0.6	914.2	0.5
308.15	10000	0.7	947.7	0.5
308.15	10000	0.8	980.4	0.4
308.15	10000	0.9	1018.8	0.4
308.15	10000	1	1059.4	0.5
308.15	20000	0	781.5	1.2
308.15	20000	0.1	799.5	1.1
308.15	20000	0.2	820.5	1
308.15	20000	0.3	844.2	0.9
308.15	20000	0.4	868.3	0.8
308.15	20000	0.5	895.5	0.7
308.15	20000	0.6	924.2	0.6
308.15	20000	0.7	957.6	0.5
308.15	20000	0.8	990.2	0.4
308.15	20000	0.9	1028.4	0.4
308.15	20000	1	1068.5	0.6
308.15	30000	0	788.8	1.5
308.15	30000	0.1	807.4	1.4
308.15	30000	0.2	828.7	1.2
308.15	30000	0.3	852.8	1.1
308.15	30000	0.4	877.1	1
308.15	30000	0.5	904.4	0.8
308.15	30000	0.6	933.3	0.6
308.15	30000	0.7	966.7	0.5
308.15	30000	0.8	999.3	0.4
308.15	30000	0.9	1037.3	0.5
308.15	30000	1	1077	0.7
308.15	40000	0	795.5	1.7
308.15	40000	0.1	814.6	1.6
308.15	40000	0.2	836.3	1.4
308.15	40000	0.3	860.6	1.3
308.15	40000	0.4	885.2	1.1
308.15	40000	0.5	912.7	0.9
308.15	40000	0.6	941.7	0.7
308.15	40000	0.7	975	0.5
308.15	40000	0.8	1007.6	0.4
308.15	40000	0.9	1045.4	0.6
308.15	40000	1	1084.8	0.9
313.15	100	0	759.7	0.6
313.15	100	0.1	775.6	0.5
313.15	100	0.2	795.8	0.5
313.15	100	0.3	818.5	0.5
313.15	100	0.4	841.9	0.5
313.15	100	0.5	868.6	0.5
313.15	100	0.6	896.7	0.4
313.15	100	0.7	929.7	0.5
313.15	100	0.8	962.3	0.4
313.15	100	0.9	1001.1	0.4
313.15	100	1	1043	0.4
313.15	5000	0	764.5	0.7
313.15	5000	0.1	780.8	0.7
313.15	5000	0.2	801.3	0.7
313.15	5000	0.3	824.1	0.6
313.15	5000	0.4	847.7	0.6
313.15	5000	0.5	874.4	0.5
313.15	5000	0.6	902.6	0.5
313.15	5000	0.7	935.5	0.5
313.15	5000	0.8	968	0.4
313.15	5000	0.9	1006.6	0.4
313.15	5000	1	1048.1	0.4
313.15	10000	0	768.9	0.9
313.15	10000	0.1	785.6	0.8
313.15	10000	0.2	806.2	0.8
313.15	10000	0.3	829.3	0.7
313.15	10000	0.4	853	0.7
313.15	10000	0.5	879.8	0.6
313.15	10000	0.6	908.1	0.5
313.15	10000	0.7	941	0.5
313.15	10000	0.8	973.5	0.4
313.15	10000	0.9	1011.9	0.4
313.15	10000	1	1053	0.5
313.15	20000	0	777.4	1.2
313.15	20000	0.1	794.8	1.1
313.15	20000	0.2	815.8	1
313.15	20000	0.3	839.2	0.9
313.15	20000	0.4	863.2	0.8
313.15	20000	0.5	890.2	0.7
313.15	20000	0.6	918.5	0.6
313.15	20000	0.7	951.4	0.5
313.15	20000	0.8	983.8	0.4
313.15	20000	0.9	1021.8	0.4
313.15	20000	1	1062.3	0.5
313.15	30000	0	784.8	1.5
313.15	30000	0.1	802.9	1.4
313.15	30000	0.2	824.2	1.3
313.15	30000	0.3	848	1.1
313.15	30000	0.4	872.2	1
313.15	30000	0.5	899.4	0.8
313.15	30000	0.6	927.9	0.7
313.15	30000	0.7	960.8	0.5
313.15	30000	0.8	993.1	0.4
313.15	30000	0.9	1030.9	0.5
313.15	30000	1	1071	0.7
313.15	40000	0	791.8	1.8
313.15	40000	0.1	810.5	1.6
313.15	40000	0.2	832.1	1.5
313.15	40000	0.3	856.2	1.3
313.15	40000	0.4	880.7	1.1
313.15	40000	0.5	908	0.9
313.15	40000	0.6	936.7	0.7
313.15	40000	0.7	969.5	0.5
313.15	40000	0.8	1001.9	0.3
313.15	40000	0.9	1039.4	0.5
313.15	40000	1	1079	0.8
