Measured thermophysical data. Surface Tensions of Bis(trifluoromethylsulfonyl)imide Anion-Based Ionic Liquids
Source: J. Chem. Eng. Data, 2010, 10.1021/je100253m
Compound 1: 1-butyl-2,3-dimethyl-1H-imidazolium bis(trifluoromethylsulfonyl)amide, C11H17F6N3O4S2, InChI=1S/C9H17N2.C2F6NO4S2/c1-4-5-6-11-8-7-10(3)9(11)2;3-1(4,5)14(10,11)9-15(12,13)2(6,7)8/h7-8H,4-6H2,1-3H3;/q+1;-1, purity 99%
Compound 2: 1,3-diethylimidazolium bis[(trifluoromethyl)sulfonyl]imide, C9H13F6N3O4S2, InChI=1S/C7H13N2.C2F6NO4S2/c1-3-8-5-6-9(4-2)7-8;3-1(4,5)14(10,11)9-15(12,13)2(6,7)8/h5-7H,3-4H2,1-2H3;/q+1;-1, purity 99%
Compound 3: 3-methyl-1-propylpyridinium bis(trifluoromethylsulfonyl)imide, C11H14F6N2O4S2, InChI=1S/C9H14N.C2F6NO4S2/c1-3-6-10-7-4-5-9(2)8-10;3-1(4,5)14(10,11)9-15(12,13)2(6,7)8/h4-5,7-8H,3,6H2,1-2H3;/q+1;-1, purity 99%
Compound 4: 1-methyl-1-propylpyrrolidinium bis[(trifluoromethyl)sulfonyl]imide, C10H18F6N2O4S2, InChI=1S/C8H18N.C2F6NO4S2/c1-3-6-9(2)7-4-5-8-9;3-1(4,5)14(10,11)9-15(12,13)2(6,7)8/h3-8H2,1-2H3;/q+1;-1, purity 99%
Compound 5: 1-butyl-1-methylpyrrolidinium bis[(trifluoromethyl)sulfonyl]imide, C11H20F6N2O4S2, InChI=1S/C9H20N.C2F6NO4S2/c1-3-4-7-10(2)8-5-6-9-10;3-1(4,5)14(10,11)9-15(12,13)2(6,7)8/h3-9H2,1-2H3;/q+1;-1, purity 99%
Compound 6: trihexyl(tetradecyl)phosphonium bis[(trifluoromethyl)sulfonyl]imide, C34H68F6NO4PS2, InChI=1S/C32H68P.C2F6NO4S2/c1-5-9-13-17-18-19-20-21-22-23-24-28-32-33(29-25-14-10-6-2,30-26-15-11-7-3)31-27-16-12-8-4;3-1(4,5)14(10,11)9-15(12,13)2(6,7)8/h5-32H2,1-4H3;/q+1;-1, purity 99%

System: 1-butyl-2,3-dimethyl-1H-imidazolium bis(trifluoromethylsulfonyl)amide; phases: Liquid, Air at 1 atmosphere
Property: Surface tension liquid-gas, N/m (Liquid); method: Ring tensiometer
Temperature, K	Surface tension liquid-gas, N/m	uncertainty
293.15	0.0374	0.00055
303.15	0.03554	0.00052
313.15	0.03383	0.0005
323.15	0.0322	0.00048
333.15	0.03049	0.00046
343.15	0.02874	0.00044

System: 1,3-diethylimidazolium bis[(trifluoromethyl)sulfonyl]imide; phases: Liquid, Air at 1 atmosphere
Property: Surface tension liquid-gas, N/m (Liquid); method: Ring tensiometer
Temperature, K	Surface tension liquid-gas, N/m	uncertainty
293.15	0.03576	0.00052
303.15	0.03537	0.00052
313.15	0.03494	0.00051
323.15	0.03456	0.00051
333.15	0.03415	0.0005
343.15	0.0337	0.0005

System: 3-methyl-1-propylpyridinium bis(trifluoromethylsulfonyl)imide; phases: Liquid, Air at 1 atmosphere
Property: Surface tension liquid-gas, N/m (Liquid); method: Ring tensiometer
Temperature, K	Surface tension liquid-gas, N/m	uncertainty
293.15	0.036	0.00053
303.15	0.03553	0.00052
313.15	0.0351	0.00052
323.15	0.03453	0.00051
333.15	0.03405	0.0005
343.15	0.03355	0.0005

System: 1-methyl-1-propylpyrrolidinium bis[(trifluoromethyl)sulfonyl]imide; phases: Liquid, Air at 1 atmosphere
Property: Surface tension liquid-gas, N/m (Liquid); method: Ring tensiometer
Temperature, K	Surface tension liquid-gas, N/m	uncertainty
293.15	0.03254	0.00048
303.15	0.03195	0.00048
313.15	0.0315	0.00047
323.15	0.031	0.00046
333.15	0.03047	0.00046
343.15	0.02997	0.00045

System: 1-butyl-1-methylpyrrolidinium bis[(trifluoromethyl)sulfonyl]imide; phases: Liquid, Air at 1 atmosphere
Property: Surface tension liquid-gas, N/m (Liquid); method: Ring tensiometer
Temperature, K	Surface tension liquid-gas, N/m	uncertainty
293.15	0.03493	0.00051
303.15	0.03435	0.00051
313.15	0.03365	0.0005
323.15	0.03317	0.00049
333.15	0.03261	0.00048
343.15	0.03196	0.00048

System: trihexyl(tetradecyl)phosphonium bis[(trifluoromethyl)sulfonyl]imide; phases: Liquid, Air at 1 atmosphere
Property: Surface tension liquid-gas, N/m (Liquid); method: Ring tensiometer
Temperature, K	Surface tension liquid-gas, N/m	uncertainty
293.15	0.03075	0.00046
303.15	0.03025	0.00046
313.15	0.02952	0.00045
323.15	0.02887	0.00044
333.15	0.02821	0.00043
343.15	0.02759	0.00042
