Measured thermophysical data. Liquid-Liquid Equilibria of the (Water + Ethanol + Linalyl Acetate) Ternary System at Different Temperatures
Source: J. Chem. Eng. Data, 2011, 10.1021/je101035p
Compound 1: ethanol, C2H6O, InChI=1S/C2H6O/c1-2-3/h3H,2H2,1H3, purity 99%
Compound 2: linalool acetate, C12H20O2, InChI=1S/C12H20O2/c1-6-12(5,14-11(4)13)9-7-8-10(2)3/h6,8H,1,7,9H2,2-5H3, purity 95%
Compound 3: water, H2O, InChI=1S/H2O/h1H2, purity 99.99%

System: ethanol; phases: Liquid, Gas
Property: Normal boiling temperature, K (Liquid); method: Distillation
Normal boiling temperature, K	uncertainty
351.44	1.07

System: ethanol; phases: Liquid
Property: Refractive index (Na D-line) (Liquid); method: Standard Abbe refractometry
Temperature, K	Pressure, kPa	Refractive index (Na D-line)	uncertainty
293.2	101.325	1.36115	0.0007

System: ethanol; phases: Liquid
Property: Mass density, kg/m3 (Liquid); method: Vibrating tube method
Temperature, K	Pressure, kPa	Mass density, kg/m3	uncertainty
293.2	101.325	789.26	0.24

System: linalool acetate; phases: Liquid, Gas
Property: Normal boiling temperature, K (Liquid); method: Distillation
Normal boiling temperature, K	uncertainty
493.15	1.17

System: linalool acetate; phases: Liquid
Property: Refractive index (Na D-line) (Liquid); method: Standard Abbe refractometry
Temperature, K	Pressure, kPa	Refractive index (Na D-line)	uncertainty
294	101.325	1.45445	0.00121

System: linalool acetate; phases: Liquid
Property: Mass density, kg/m3 (Liquid); method: Vibrating tube method
Temperature, K	Pressure, kPa	Mass density, kg/m3	uncertainty
293.2	101.325	895.06	4.37

System: ethanol + linalool acetate + water; phases: Liquid mixture 1, Liquid mixture 2
Fixed: Pressure, kPa = 101
Property: Mole fraction of ethanol (Liquid mixture 1); method: Titration method
Temperature, K	Mole fraction of water	Mole fraction of ethanol	uncertainty
298.2	0.0089	0	
298.2	0.0294	0.1222	0.0053
298.2	0.0622	0.2423	0.0079
298.2	0.1115	0.335	0.0104
298.2	0.1773	0.4117	0.0128
298.2	0.2407	0.4571	0.0142
298.2	0.3018	0.4919	0.0152
298.2	0.607	0.364	0.0113
298.2	0.7038	0.2736	0.0087
298.2	0.8481	0.1311	0.0055
298.2	0.9986	0	
308.2	0.0047	0	
308.2	0.0488	0.2161	0.0073
308.2	0.0837	0.3268	0.0101
308.2	0.1066	0.3606	0.0112
308.2	0.1584	0.4208	0.013
308.2	0.2122	0.478	0.0148
308.2	0.3207	0.5368	0.0144
308.2	0.3565	0.5391	0.0143
308.2	0.5117	0.4675	0.0145
308.2	0.5962	0.3996	0.0124
308.2	0.7965	0.2006	0.0069
308.2	0.9988	0	
318.2	0.0033	0	
318.2	0.0369	0.1931	0.0068
318.2	0.1084	0.3628	0.0112
318.2	0.1578	0.4205	0.013
318.2	0.2111	0.4775	0.0148
318.2	0.3285	0.5339	0.0144
318.2	0.3581	0.5338	0.0144
318.2	0.4943	0.4805	0.0149
318.2	0.5827	0.3995	0.0124
318.2	0.7875	0.2066	0.0071
318.2	0.9986	0	

System: ethanol + linalool acetate + water; phases: Liquid mixture 1, Liquid mixture 2
Fixed: Pressure, kPa = 101.3
Property: Mole fraction of water (Liquid mixture 1); method: Titration method
Property: Mole fraction of water (Liquid mixture 2); method: Titration method
Property: Mole fraction of ethanol (Liquid mixture 2); method: Titration method
Temperature, K	Mole fraction of ethanol	Mole fraction of water	uncertainty	Mole fraction of water	uncertainty	Mole fraction of ethanol	uncertainty
298.2	0.1004	0.8826	0.0066	0.0521	0.0044	0.1983	
298.2	0.1853	0.7965	0.0081	0.0419	0.0043	0.1595	
298.2	0.2687	0.71	0.01	0.0333	0.0042	0.1271	
298.2	0.3257	0.651	0.0117	0.0268	0.0042	0.0986	
298.2	0.3929	0.5735	0.0141	0.0152	0.0041	0.044	
298.2	0.4398	0.5111	0.0161	0.0077	0.0041	0.0135	
308.2	0.0992	0.8928	0.0064	0.0388	0.0042	0.2018	
308.2	0.2157	0.7751	0.0085	0.033	0.0041	0.1292	
308.2	0.2901	0.7004	0.0102	0.0217	0.0041	0.0867	
308.2	0.3592	0.6308	0.0122	0.0203	0.0041	0.0571	
308.2	0.4296	0.5543	0.0145	0.0088	0.0043	0.0298	
318.2	0.1523	0.839	0.0073	0.0297	0.0042	0.1649	
318.2	0.2288	0.7615	0.0088	0.0221	0.0041	0.1265	
318.2	0.2769	0.713	0.01	0.0168	0.0041	0.0902	
318.2	0.335	0.6467	0.0119	0.0137	0.004	0.06	
