Measured thermophysical data. Density and Surface Tension of Ionic Liquids [Cnpy][NTf2] (n = 2, 4,  5)
Source: J. Chem. Eng. Data, 2010, 10.1021/je100507n
Compound 1: 1-ethylpyridinium bis[(trifluoromethyl)sulfonyl]imide, C9H10F6N2O4S2, InChI=1S/C7H10N.C2F6NO4S2/c1-2-8-6-4-3-5-7-8;3-1(4,5)14(10,11)9-15(12,13)2(6,7)8/h3-7H,2H2,1H3;/q+1;-1
Compound 2: 1-butylpyridinium bis[(trifluoromethyl)sulfonyl]imide, C11H14F6N2O4S2, InChI=1S/C9H14N.C2F6NO4S2/c1-2-3-7-10-8-5-4-6-9-10;3-1(4,5)14(10,11)9-15(12,13)2(6,7)8/h4-6,8-9H,2-3,7H2,1H3;/q+1;-1
Compound 3: 1-pentylpyridinium bis(trifluoromethylsulfonyl)amide, C12H16F6N2O4S2, InChI=1S/C10H16N.C2F6NO4S2/c1-2-3-5-8-11-9-6-4-7-10-11;3-1(4,5)14(10,11)9-15(12,13)2(6,7)8/h4,6-7,9-10H,2-3,5,8H2,1H3;/q+1;-1

System: 1-ethylpyridinium bis[(trifluoromethyl)sulfonyl]imide; phases: Crystal 1, Liquid, Air at 1 atmosphere
Property: Molar enthalpy of transition or fusion, kJ/mol (Crystal 1); method: DSC:UFactor:4
Molar enthalpy of transition or fusion, kJ/mol	uncertainty
18.9	2.3

System: 1-ethylpyridinium bis[(trifluoromethyl)sulfonyl]imide; phases: Glass, Liquid, Air at 1 atmosphere
Property: Triple point temperature, K (Glass); method: DTA
Triple point temperature, K	uncertainty
235.24	3

System: 1-ethylpyridinium bis[(trifluoromethyl)sulfonyl]imide; phases: Crystal 2, Crystal 1, Air at 1 atmosphere
Property: Triple point temperature, K (Crystal 2); method: DTA
Triple point temperature, K	uncertainty
292.8	0.5

System: 1-ethylpyridinium bis[(trifluoromethyl)sulfonyl]imide; phases: Crystal 1, Liquid, Air at 1 atmosphere
Property: Normal melting temperature, K (Crystal 1); method: DTA
Normal melting temperature, K	uncertainty
303.65	1

System: 1-ethylpyridinium bis[(trifluoromethyl)sulfonyl]imide; phases: Liquid
Fixed: Pressure, kPa = 101.325
Property: Mass density, kg/m3 (Liquid); method: Buoyancy - hydrostatic balance with magnetic suspension - one sinker
Temperature, K	Mass density, kg/m3	uncertainty
288.15	1545.7	13
293.15	1541.4	12.9
298.15	1537.5	12.9
303.15	1533.2	12.8
308.15	1529.1	12.7
313.15	1524.9	12.7
318.15	1520.5	12.6
323.15	1516.4	12.5
328.15	1512.2	12.4
333.15	1507.8	12.4
338.15	1503.7	12.3

System: 1-ethylpyridinium bis[(trifluoromethyl)sulfonyl]imide; phases: Liquid, Air at 1 atmosphere
Property: Surface tension liquid-gas, N/m (Liquid); method: Ring tensiometer
Temperature, K	Surface tension liquid-gas, N/m	uncertainty
288.15	0.0377	0.0011
293.15	0.0376	0.0011
298.15	0.0374	0.0011
303.15	0.0371	0.0011
308.15	0.0369	0.0011
313.15	0.0367	0.001
318.15	0.0366	0.001
323.15	0.0364	0.001
328.15	0.0361	0.001
333.15	0.0359	0.001
338.15	0.0356	0.001

System: 1-butylpyridinium bis[(trifluoromethyl)sulfonyl]imide; phases: Crystal, Liquid, Air at 1 atmosphere
Property: Molar enthalpy of transition or fusion, kJ/mol (Crystal); method: DSC:UFactor:4
Molar enthalpy of transition or fusion, kJ/mol	uncertainty
27.9	3.2

System: 1-butylpyridinium bis[(trifluoromethyl)sulfonyl]imide; phases: Crystal, Liquid, Air at 1 atmosphere
Property: Normal melting temperature, K (Crystal); method: DTA
Normal melting temperature, K	uncertainty
299.05	1

System: 1-butylpyridinium bis[(trifluoromethyl)sulfonyl]imide; phases: Liquid
Fixed: Pressure, kPa = 101.325
Property: Mass density, kg/m3 (Liquid); method: Buoyancy - hydrostatic balance with magnetic suspension - one sinker
Temperature, K	Mass density, kg/m3	uncertainty
298.15	1454.7	11.5
303.15	1450.6	11.5
308.15	1446.2	11.4
313.15	1441.7	11.3
318.15	1437.2	11.2
323.15	1433.2	11.2
328.15	1429.1	11.1
333.15	1424.5	11.1
338.15	1420.5	11

System: 1-butylpyridinium bis[(trifluoromethyl)sulfonyl]imide; phases: Liquid, Air at 1 atmosphere
Property: Surface tension liquid-gas, N/m (Liquid); method: Ring tensiometer
Temperature, K	Surface tension liquid-gas, N/m	uncertainty
298.15	0.0334	0.001
303.15	0.0332	0.001
308.15	0.0329	0.0009
313.15	0.0328	0.0009
318.15	0.0324	0.0009
323.15	0.0321	0.0009
328.15	0.032	0.0009
333.15	0.0318	0.0009

System: 1-pentylpyridinium bis(trifluoromethylsulfonyl)amide; phases: Crystal, Liquid, Air at 1 atmosphere
Property: Molar enthalpy of transition or fusion, kJ/mol (Crystal); method: DSC:UFactor:4
Molar enthalpy of transition or fusion, kJ/mol	uncertainty
22.8	2.7

System: 1-pentylpyridinium bis(trifluoromethylsulfonyl)amide; phases: Glass, Liquid, Air at 1 atmosphere
Property: Triple point temperature, K (Glass); method: DTA
Triple point temperature, K	uncertainty
196.22	3

System: 1-pentylpyridinium bis(trifluoromethylsulfonyl)amide; phases: Crystal, Liquid, Air at 1 atmosphere
Property: Normal melting temperature, K (Crystal); method: DTA
Normal melting temperature, K	uncertainty
272.84	1

System: 1-pentylpyridinium bis(trifluoromethylsulfonyl)amide; phases: Liquid
Fixed: Pressure, kPa = 101.325
Property: Mass density, kg/m3 (Liquid); method: Buoyancy - hydrostatic balance with magnetic suspension - one sinker
Temperature, K	Mass density, kg/m3	uncertainty
283.15	1433.1	11.2
288.15	1429.6	11.1
293.15	1425.9	11.1
298.15	1421.4	11
303.15	1416.9	10.9
308.15	1412.8	10.9
313.15	1408.3	10.8
318.15	1403.8	10.7
323.15	1398.9	10.7
328.15	1394.2	10.6
333.15	1389.3	10.5
338.15	1385.1	10.5

System: 1-pentylpyridinium bis(trifluoromethylsulfonyl)amide; phases: Liquid, Air at 1 atmosphere
Property: Surface tension liquid-gas, N/m (Liquid); method: Ring tensiometer
Temperature, K	Surface tension liquid-gas, N/m	uncertainty
283.15	0.0331	0.001
288.15	0.0328	0.0009
293.15	0.0327	0.0009
298.15	0.0325	0.0009
303.15	0.0322	0.0009
308.15	0.032	0.0009
313.15	0.0318	0.0009
318.15	0.0315	0.0009
323.15	0.0313	0.0009
328.15	0.0311	0.0009
333.15	0.0308	0.0009
338.15	0.0305	0.0009
