Measured thermophysical data. Deterpenation of Citrus Essential Oil by Liquid-Liquid Extraction with 1-Alkyl-3-methylimidazolium Bis(trifluoromethylsulfonyl)amide Ionic Liquids
Source: J. Chem. Eng. Data, 2011, 10.1021/je1011339
Compound 1: 1-ethyl-3-methylimidazolium bis((trifluoromethyl)sulfonyl)imide, C8H11F6N3O4S2, InChI=1S/C6H11N2.C2F6NO4S2/c1-3-8-5-4-7(2)6-8;3-1(4,5)14(10,11)9-15(12,13)2(6,7)8/h4-6H,3H2,1-2H3;/q+1;-1
Compound 2: 1-hexyl-3-methylimidazolium bis[(trifluoromethyl)sulfonyl]imide, C12H19F6N3O4S2, InChI=1S/C10H19N2.C2F6NO4S2/c1-3-4-5-6-7-12-9-8-11(2)10-12;3-1(4,5)14(10,11)9-15(12,13)2(6,7)8/h8-10H,3-7H2,1-2H3;/q+1;-1
Compound 3: 1-decyl-3-methylimidazolium bis(trifluoromethylsulfonyl)amide, C16H27F6N3O4S2, InChI=1S/C14H27N2.C2F6NO4S2/c1-3-4-5-6-7-8-9-10-11-16-13-12-15(2)14-16;3-1(4,5)14(10,11)9-15(12,13)2(6,7)8/h12-14H,3-11H2,1-2H3;/q+1;-1
Compound 4: (R)-1-methyl-4-(1-methylethenyl)cyclohexene, C10H16, InChI=1S/C10H16/c1-8(2)10-6-4-9(3)5-7-10/h4,10H,1,5-7H2,2-3H3/t10-/m0/s1, purity 97%
Compound 5: 3,7-dimethyl-1,6-octadien-3-ol, C10H18O, InChI=1S/C10H18O/c1-5-10(4,11)8-6-7-9(2)3/h5,7,11H,1,6,8H2,2-4H3, purity 97%

System: 1-ethyl-3-methylimidazolium bis((trifluoromethyl)sulfonyl)imide; phases: Liquid
Property: Refractive index (Na D-line) (Liquid); method: Standard Abbe refractometry
Temperature, K	Pressure, kPa	Refractive index (Na D-line)	uncertainty
298.15	101.325	1.42298	0.00068

System: 1-ethyl-3-methylimidazolium bis((trifluoromethyl)sulfonyl)imide; phases: Liquid
Property: Mass density, kg/m3 (Liquid); method: Vibrating tube method
Temperature, K	Pressure, kPa	Mass density, kg/m3	uncertainty
298.15	101.325	1518.91	0.36

System: 1-hexyl-3-methylimidazolium bis[(trifluoromethyl)sulfonyl]imide; phases: Liquid
Property: Refractive index (Na D-line) (Liquid); method: Standard Abbe refractometry
Temperature, K	Pressure, kPa	Refractive index (Na D-line)	uncertainty
298.15	101.325	1.42879	0.00033

System: 1-hexyl-3-methylimidazolium bis[(trifluoromethyl)sulfonyl]imide; phases: Liquid
Property: Mass density, kg/m3 (Liquid); method: Vibrating tube method
Temperature, K	Pressure, kPa	Mass density, kg/m3	uncertainty
298.15	101.325	1372.09	0.28

System: 1-decyl-3-methylimidazolium bis(trifluoromethylsulfonyl)amide; phases: Liquid
Property: Refractive index (Na D-line) (Liquid); method: Standard Abbe refractometry
Temperature, K	Pressure, kPa	Refractive index (Na D-line)	uncertainty
298.15	101.325	1.43584	0.00033

System: 1-decyl-3-methylimidazolium bis(trifluoromethylsulfonyl)amide; phases: Liquid
Property: Mass density, kg/m3 (Liquid); method: Vibrating tube method
Temperature, K	Pressure, kPa	Mass density, kg/m3	uncertainty
298.15	101.325	1278.4	0.23

System: (R)-1-methyl-4-(1-methylethenyl)cyclohexene; phases: Liquid
Property: Refractive index (Na D-line) (Liquid); method: Standard Abbe refractometry
Temperature, K	Pressure, kPa	Refractive index (Na D-line)	uncertainty
298.15	101.325	1.47081	0.00068

System: (R)-1-methyl-4-(1-methylethenyl)cyclohexene; phases: Liquid
Property: Mass density, kg/m3 (Liquid); method: Vibrating tube method
Temperature, K	Pressure, kPa	Mass density, kg/m3	uncertainty
298.15	101.325	838.68	1.4

System: 3,7-dimethyl-1,6-octadien-3-ol; phases: Liquid
Property: Refractive index (Na D-line) (Liquid); method: Standard Abbe refractometry
Temperature, K	Pressure, kPa	Refractive index (Na D-line)	uncertainty
298.15	101.325	1.45961	0.00068

System: 3,7-dimethyl-1,6-octadien-3-ol; phases: Liquid
Property: Mass density, kg/m3 (Liquid); method: Vibrating tube method
Temperature, K	Pressure, kPa	Mass density, kg/m3	uncertainty
298.15	101.325	856.83	1.45

System: (R)-1-methyl-4-(1-methylethenyl)cyclohexene + 1-ethyl-3-methylimidazolium bis((trifluoromethyl)sulfonyl)imide; phases: Liquid mixture 1, Liquid mixture 2
Property: Mole fraction of (R)-1-methyl-4-(1-methylethenyl)cyclohexene (Liquid mixture 1); method: OTHER
Temperature, K	Pressure, kPa	Mole fraction of (R)-1-methyl-4-(1-methylethenyl)cyclohexene	uncertainty
298.15	101.3	0.049	0.018

System: (R)-1-methyl-4-(1-methylethenyl)cyclohexene + 1-ethyl-3-methylimidazolium bis((trifluoromethyl)sulfonyl)imide; phases: Liquid mixture 2, Liquid mixture 1
Property: Mole fraction of (R)-1-methyl-4-(1-methylethenyl)cyclohexene (Liquid mixture 2); method: analysis
Temperature, K	Pressure, kPa	Mole fraction of (R)-1-methyl-4-(1-methylethenyl)cyclohexene	uncertainty
298.15	101.3	0.0001	0.0001

System: 3,7-dimethyl-1,6-octadien-3-ol + 1-ethyl-3-methylimidazolium bis((trifluoromethyl)sulfonyl)imide; phases: Liquid mixture 1, Liquid mixture 2
Property: Mole fraction of 3,7-dimethyl-1,6-octadien-3-ol (Liquid mixture 1); method: OTHER
Temperature, K	Pressure, kPa	Mole fraction of 3,7-dimethyl-1,6-octadien-3-ol	uncertainty
298.15	101.3	0.237	0.018

System: 3,7-dimethyl-1,6-octadien-3-ol + 1-ethyl-3-methylimidazolium bis((trifluoromethyl)sulfonyl)imide; phases: Liquid mixture 2, Liquid mixture 1
Property: Mole fraction of 3,7-dimethyl-1,6-octadien-3-ol (Liquid mixture 2); method: analysis
Temperature, K	Pressure, kPa	Mole fraction of 3,7-dimethyl-1,6-octadien-3-ol	uncertainty
298.15	101.3	0.0001	0.0001

System: (R)-1-methyl-4-(1-methylethenyl)cyclohexene + 1-hexyl-3-methylimidazolium bis[(trifluoromethyl)sulfonyl]imide; phases: Liquid mixture 1, Liquid mixture 2
Property: Mole fraction of (R)-1-methyl-4-(1-methylethenyl)cyclohexene (Liquid mixture 1); method: OTHER
Temperature, K	Pressure, kPa	Mole fraction of (R)-1-methyl-4-(1-methylethenyl)cyclohexene	uncertainty
298.15	101.3	0.16	0.018

System: (R)-1-methyl-4-(1-methylethenyl)cyclohexene + 1-hexyl-3-methylimidazolium bis[(trifluoromethyl)sulfonyl]imide; phases: Liquid mixture 2, Liquid mixture 1
Property: Mole fraction of (R)-1-methyl-4-(1-methylethenyl)cyclohexene (Liquid mixture 2); method: analysis
Temperature, K	Pressure, kPa	Mole fraction of (R)-1-methyl-4-(1-methylethenyl)cyclohexene	uncertainty
298.15	101.3	0.0001	0.0001

System: 3,7-dimethyl-1,6-octadien-3-ol + 1-hexyl-3-methylimidazolium bis[(trifluoromethyl)sulfonyl]imide; phases: Liquid mixture 1, Liquid mixture 2
Property: Mole fraction of 3,7-dimethyl-1,6-octadien-3-ol (Liquid mixture 1); method: OTHER
Temperature, K	Pressure, kPa	Mole fraction of 3,7-dimethyl-1,6-octadien-3-ol	uncertainty
298.15	101.3	0.573	0.018

System: 3,7-dimethyl-1,6-octadien-3-ol + 1-hexyl-3-methylimidazolium bis[(trifluoromethyl)sulfonyl]imide; phases: Liquid mixture 2, Liquid mixture 1
Property: Mole fraction of 3,7-dimethyl-1,6-octadien-3-ol (Liquid mixture 2); method: OTHER
Pressure, kPa	Temperature, K	Mole fraction of 3,7-dimethyl-1,6-octadien-3-ol	uncertainty
101.3	298.15	0.998	0.002

System: (R)-1-methyl-4-(1-methylethenyl)cyclohexene + 1-decyl-3-methylimidazolium bis(trifluoromethylsulfonyl)amide; phases: Liquid mixture 1, Liquid mixture 2
Property: Mole fraction of (R)-1-methyl-4-(1-methylethenyl)cyclohexene (Liquid mixture 1); method: OTHER
Temperature, K	Pressure, kPa	Mole fraction of (R)-1-methyl-4-(1-methylethenyl)cyclohexene	uncertainty
298.15	101.3	0.427	0.018

System: 3,7-dimethyl-1,6-octadien-3-ol + 1-decyl-3-methylimidazolium bis(trifluoromethylsulfonyl)amide; phases: Liquid mixture 1, Liquid mixture 2
Property: Mole fraction of 3,7-dimethyl-1,6-octadien-3-ol (Liquid mixture 1); method: OTHER
Temperature, K	Pressure, kPa	Mole fraction of 3,7-dimethyl-1,6-octadien-3-ol	uncertainty
298.15	101.3	0.851	0.018

System: 3,7-dimethyl-1,6-octadien-3-ol + 1-decyl-3-methylimidazolium bis(trifluoromethylsulfonyl)amide; phases: Liquid mixture 2, Liquid mixture 1
Property: Mole fraction of 3,7-dimethyl-1,6-octadien-3-ol (Liquid mixture 2); method: OTHER
Pressure, kPa	Temperature, K	Mole fraction of 3,7-dimethyl-1,6-octadien-3-ol	uncertainty
101.3	298.15	0.984	0.014

System: 3,7-dimethyl-1,6-octadien-3-ol + (R)-1-methyl-4-(1-methylethenyl)cyclohexene + 1-ethyl-3-methylimidazolium bis((trifluoromethyl)sulfonyl)imide; phases: Liquid mixture 2, Liquid mixture 1
Fixed: Temperature, K = 298.15
Fixed: Pressure, kPa = 101.3
Property: Mole fraction of (R)-1-methyl-4-(1-methylethenyl)cyclohexene (Liquid mixture 2); method: OTHER
Property: Mole fraction of (R)-1-methyl-4-(1-methylethenyl)cyclohexene (Liquid mixture 1); method: OTHER
Property: Mole fraction of 3,7-dimethyl-1,6-octadien-3-ol (Liquid mixture 1); method: OTHER
Mole fraction of 3,7-dimethyl-1,6-octadien-3-ol	Mole fraction of (R)-1-methyl-4-(1-methylethenyl)cyclohexene	uncertainty	Mole fraction of (R)-1-methyl-4-(1-methylethenyl)cyclohexene	uncertainty	Mole fraction of 3,7-dimethyl-1,6-octadien-3-ol	uncertainty
0	1		0.049	0.018	0	
0.044	0.956	0.02	0.046	0.018	0.019	
0.159	0.841	0.02	0.041	0.018	0.051	
0.297	0.703	0.02	0.042	0.018	0.081	
0.426	0.574	0.02	0.036	0.018	0.102	
0.55	0.45	0.02	0.034	0.018	0.13	
0.671	0.329	0.02	0.028	0.019	0.153	
0.793	0.207	0.02	0.02	0.019	0.185	
0.924	0.076	0.02	0.008	0.008	0.214	
1	0		0		0.237	

System: 3,7-dimethyl-1,6-octadien-3-ol + (R)-1-methyl-4-(1-methylethenyl)cyclohexene + 1-hexyl-3-methylimidazolium bis[(trifluoromethyl)sulfonyl]imide; phases: Liquid mixture 2, Liquid mixture 1
Fixed: Temperature, K = 298.15
Fixed: Pressure, kPa = 101.3
Property: Mole fraction of 3,7-dimethyl-1,6-octadien-3-ol (Liquid mixture 2); method: OTHER
Property: Mole fraction of (R)-1-methyl-4-(1-methylethenyl)cyclohexene (Liquid mixture 1); method: OTHER
Property: Mole fraction of 3,7-dimethyl-1,6-octadien-3-ol (Liquid mixture 1); method: OTHER
Mole fraction of (R)-1-methyl-4-(1-methylethenyl)cyclohexene	Mole fraction of 3,7-dimethyl-1,6-octadien-3-ol	uncertainty	Mole fraction of (R)-1-methyl-4-(1-methylethenyl)cyclohexene	uncertainty	Mole fraction of 3,7-dimethyl-1,6-octadien-3-ol	uncertainty
1	0		0.16	0.018	0	
0.972	0.028	0.02	0.161	0.018	0.028	
0.906	0.094	0.02	0.165	0.018	0.082	
0.782	0.218	0.02	0.158	0.018	0.153	
0.645	0.355	0.02	0.163	0.018	0.229	
0.53	0.47	0.02	0.155	0.018	0.284	
0.456	0.544	0.02	0.143	0.019	0.32	
0.385	0.615	0.02	0.133	0.02	0.349	
0.336	0.664	0.02	0.116	0.02	0.377	
0.232	0.768	0.02	0.091	0.02	0.428	
0.148	0.852	0.02	0.059	0.021	0.486	
0	0.998	0.002	0		0.573	

System: 3,7-dimethyl-1,6-octadien-3-ol + (R)-1-methyl-4-(1-methylethenyl)cyclohexene + 1-decyl-3-methylimidazolium bis(trifluoromethylsulfonyl)amide; phases: Liquid mixture 2, Liquid mixture 1
Fixed: Temperature, K = 298.15
Fixed: Pressure, kPa = 101.3
Property: Mole fraction of 3,7-dimethyl-1,6-octadien-3-ol (Liquid mixture 2); method: OTHER
Property: Mole fraction of (R)-1-methyl-4-(1-methylethenyl)cyclohexene (Liquid mixture 1); method: OTHER
Property: Mole fraction of 3,7-dimethyl-1,6-octadien-3-ol (Liquid mixture 1); method: OTHER
Mole fraction of (R)-1-methyl-4-(1-methylethenyl)cyclohexene	Mole fraction of 3,7-dimethyl-1,6-octadien-3-ol	uncertainty	Mole fraction of (R)-1-methyl-4-(1-methylethenyl)cyclohexene	uncertainty	Mole fraction of 3,7-dimethyl-1,6-octadien-3-ol	uncertainty
1	0		0.427	0.018	0	
0.978	0.022	0.02	0.435	0.018	0.033	
0.919	0.081	0.02	0.442	0.018	0.108	
0.812	0.188	0.02	0.44	0.018	0.203	
0.634	0.363	0.02	0.4	0.02	0.325	
0.502	0.495	0.02	0.347	0.021	0.423	
0.392	0.602	0.02	0.283	0.023	0.505	
0.292	0.701	0.02	0.221	0.023	0.591	
0.239	0.752	0.019	0.187	0.023	0.629	
0.16	0.828	0.02	0.126	0.023	0.708	
0.102	0.886	0.02	0.08	0.024	0.756	
0.039	0.946	0.019	0.032	0.023	0.817	
0	0.984	0.014	0		0.851	
