Measured thermophysical data. Excess Molar Enthalpies of Methyl Acetoacetate + (Methanol, + Ethanol, + 1-Propanol, and + 2-Propanol) at T = (288.2, 298.2, 313.2, and 328.2) K and p = 101.3 kPa
Source: J. Chem. Eng. Data, 2011, 10.1021/je1006482
Compound 1: methyl 3-oxobutanoate, C5H8O3, InChI=1S/C5H8O3/c1-4(6)3-5(7)8-2/h3H2,1-2H3, purity 99.4%
Compound 2: methanol, CH4O, InChI=1S/CH4O/c1-2/h2H,1H3, purity 99.8%
Compound 3: ethanol, C2H6O, InChI=1S/C2H6O/c1-2-3/h3H,2H2,1H3, purity 99.7%
Compound 4: propan-1-ol, C3H8O, InChI=1S/C3H8O/c1-2-3-4/h4H,2-3H2,1H3, purity 99.5%
Compound 5: propan-2-ol, C3H8O, InChI=1S/C3H8O/c1-3(2)4/h3-4H,1-2H3, purity 99.5%

System: methyl 3-oxobutanoate; phases: Liquid
Fixed: Pressure, kPa = 101.325
Property: Mass density, kg/m3 (Liquid); method: VIBTUB:UFactor:5
Temperature, K	Mass density, kg/m3	uncertainty
288.2	1081.928	0.401
298.2	1071.179	0.378
313.2	1055.008	0.344
328.2	1038.777	0.309
338.2	1027.89	0.286
348.2	1016.946	0.263

System: methanol + methyl 3-oxobutanoate; phases: Liquid
Fixed: Pressure, kPa = 101.3
Property: Excess molar enthalpy (molar enthalpy of mixing), kJ/mol (Liquid); method: Flow calorimetry
Temperature, K	Mole fraction of methyl 3-oxobutanoate	Excess molar enthalpy (molar enthalpy of mixing), kJ/mol	uncertainty
288.2	0.1004	0.533	0.012
288.2	0.2001	0.875	0.019
288.2	0.3	1.097	0.024
288.2	0.3506	1.173	0.025
288.2	0.4003	1.224	0.026
288.2	0.4497	1.248	0.027
288.2	0.5001	1.261	0.027
288.2	0.551	1.247	0.027
288.2	0.5993	1.21	0.026
288.2	0.6492	1.161	0.025
288.2	0.7004	1.076	0.023
288.2	0.7993	0.847	0.019
288.2	0.8988	0.494	0.011
298.2	0.1004	0.567	0.013
298.2	0.2001	0.93	0.02
298.2	0.3	1.169	0.025
298.2	0.3506	1.246	0.027
298.2	0.4003	1.293	0.028
298.2	0.4497	1.318	0.028
298.2	0.5001	1.336	0.029
298.2	0.551	1.315	0.028
298.2	0.5993	1.286	0.028
298.2	0.6492	1.215	0.026
298.2	0.7004	1.14	0.025
298.2	0.7993	0.878	0.019
298.2	0.8988	0.49	0.011
313.2	0.1004	0.619	0.014
313.2	0.2001	1.028	0.022
313.2	0.3	1.281	0.028
313.2	0.3506	1.373	0.029
313.2	0.4003	1.421	0.03
313.2	0.4497	1.452	0.031
313.2	0.5001	1.458	0.031
313.2	0.551	1.445	0.031
313.2	0.5993	1.4	0.03
313.2	0.6492	1.322	0.028
313.2	0.7004	1.221	0.026
313.2	0.7993	0.929	0.02
313.2	0.8988	0.521	0.012
328.2	0.1004	0.664	0.015
328.2	0.2001	1.091	0.024
328.2	0.3	1.378	0.03
328.2	0.3506	1.466	0.031
328.2	0.4003	1.524	0.033
328.2	0.4497	1.549	0.033
328.2	0.5001	1.55	0.033
328.2	0.551	1.532	0.033
328.2	0.5993	1.477	0.032
328.2	0.6492	1.39	0.03
328.2	0.7004	1.28	0.028
328.2	0.7993	0.973	0.021
328.2	0.8988	0.539	0.012

System: ethanol + methyl 3-oxobutanoate; phases: Liquid
Fixed: Pressure, kPa = 101.3
Property: Excess molar enthalpy (molar enthalpy of mixing), kJ/mol (Liquid); method: Flow calorimetry
Temperature, K	Mole fraction of methyl 3-oxobutanoate	Excess molar enthalpy (molar enthalpy of mixing), kJ/mol	uncertainty
288.2	0.1003	0.733	0.016
288.2	0.2002	1.163	0.025
288.2	0.2995	1.423	0.031
288.2	0.3494	1.512	0.033
288.2	0.3995	1.568	0.034
288.2	0.4495	1.608	0.035
288.2	0.5008	1.62	0.035
288.2	0.5497	1.608	0.035
288.2	0.5995	1.571	0.034
288.2	0.65	1.505	0.032
288.2	0.7011	1.408	0.03
288.2	0.7996	1.125	0.025
288.2	0.9006	0.647	0.015
298.2	0.1003	0.786	0.018
298.2	0.2002	1.268	0.028
298.2	0.2995	1.578	0.034
298.2	0.3494	1.668	0.036
298.2	0.3995	1.742	0.037
298.2	0.4495	1.782	0.038
298.2	0.5008	1.791	0.038
298.2	0.5497	1.773	0.038
298.2	0.5995	1.731	0.037
298.2	0.65	1.651	0.035
298.2	0.7011	1.533	0.033
298.2	0.7996	1.204	0.026
298.2	0.9006	0.686	0.016
313.2	0.1003	0.878	0.02
313.2	0.2002	1.437	0.031
313.2	0.2995	1.774	0.038
313.2	0.3494	1.894	0.041
313.2	0.3995	1.968	0.042
313.2	0.4495	2.007	0.043
313.2	0.5008	2.014	0.043
313.2	0.5497	1.992	0.043
313.2	0.5995	1.93	0.041
313.2	0.65	1.839	0.039
313.2	0.7011	1.695	0.036
313.2	0.7996	1.308	0.028
313.2	0.9006	0.725	0.017
328.2	0.1003	0.952	0.021
328.2	0.2002	1.55	0.033
328.2	0.2995	1.888	0.04
328.2	0.3494	2.003	0.043
328.2	0.3995	2.095	0.045
328.2	0.4495	2.13	0.045
328.2	0.5008	2.132	0.045
328.2	0.5497	2.101	0.045
328.2	0.5995	2.022	0.043
328.2	0.65	1.912	0.041
328.2	0.7011	1.754	0.038
328.2	0.7996	1.333	0.029
328.2	0.9006	0.728	0.017

System: propan-1-ol + methyl 3-oxobutanoate; phases: Liquid
Fixed: Pressure, kPa = 101.3
Property: Excess molar enthalpy (molar enthalpy of mixing), kJ/mol (Liquid); method: Flow calorimetry
Temperature, K	Mole fraction of methyl 3-oxobutanoate	Excess molar enthalpy (molar enthalpy of mixing), kJ/mol	uncertainty
288.2	0.0994	0.824	0.018
288.2	0.1995	1.303	0.029
288.2	0.2993	1.591	0.034
288.2	0.3492	1.685	0.036
288.2	0.3995	1.757	0.038
288.2	0.45	1.806	0.039
288.2	0.5008	1.821	0.039
288.2	0.5498	1.815	0.039
288.2	0.6007	1.779	0.038
288.2	0.6495	1.716	0.037
288.2	0.7	1.62	0.035
288.2	0.8001	1.312	0.029
288.2	0.9003	0.778	0.018
298.2	0.0994	0.918	0.021
298.2	0.1995	1.47	0.032
298.2	0.2993	1.799	0.039
298.2	0.3492	1.916	0.041
298.2	0.3995	1.997	0.043
298.2	0.45	2.035	0.044
298.2	0.5008	2.053	0.044
298.2	0.5498	2.039	0.044
298.2	0.6007	1.99	0.043
298.2	0.6495	1.91	0.041
298.2	0.7	1.788	0.038
298.2	0.8001	1.408	0.031
298.2	0.9003	0.803	0.018
313.2	0.0994	1.022	0.023
313.2	0.1995	1.672	0.036
313.2	0.2993	2.071	0.044
313.2	0.3492	2.206	0.047
313.2	0.3995	2.298	0.049
313.2	0.45	2.341	0.05
313.2	0.5008	2.348	0.05
313.2	0.5498	2.315	0.049
313.2	0.6007	2.234	0.048
313.2	0.6495	2.123	0.045
313.2	0.7	1.972	0.042
313.2	0.8001	1.511	0.033
313.2	0.9003	0.849	0.019
328.2	0.0994	1.098	0.025
328.2	0.1995	1.811	0.039
328.2	0.2993	2.25	0.048
328.2	0.3492	2.375	0.051
328.2	0.3995	2.468	0.053
328.2	0.45	2.508	0.053
328.2	0.5008	2.515	0.054
328.2	0.5498	2.454	0.052
328.2	0.6007	2.361	0.05
328.2	0.6495	2.228	0.048
328.2	0.7	2.041	0.044
328.2	0.8001	1.549	0.034
328.2	0.9003	0.861	0.02

System: propan-2-ol + methyl 3-oxobutanoate; phases: Liquid
Fixed: Pressure, kPa = 101.3
Property: Excess molar enthalpy (molar enthalpy of mixing), kJ/mol (Liquid); method: Flow calorimetry
Temperature, K	Mole fraction of methyl 3-oxobutanoate	Excess molar enthalpy (molar enthalpy of mixing), kJ/mol	uncertainty
288.2	0.1002	0.956	0.021
288.2	0.2005	1.46	0.032
288.2	0.2998	1.766	0.038
288.2	0.35	1.873	0.04
288.2	0.4004	1.929	0.042
288.2	0.4493	1.981	0.043
288.2	0.4998	1.993	0.043
288.2	0.5504	1.979	0.043
288.2	0.6008	1.935	0.042
288.2	0.6492	1.859	0.04
288.2	0.6991	1.748	0.038
288.2	0.7997	1.405	0.031
288.2	0.9002	0.81	0.018
298.2	0.1002	1.049	0.023
298.2	0.2005	1.648	0.036
298.2	0.2998	2.01	0.043
298.2	0.35	2.109	0.045
298.2	0.4004	2.196	0.047
298.2	0.4493	2.242	0.048
298.2	0.4998	2.243	0.048
298.2	0.5504	2.221	0.048
298.2	0.6008	2.167	0.046
298.2	0.6492	2.068	0.044
298.2	0.6991	1.927	0.041
298.2	0.7997	1.509	0.033
298.2	0.9002	0.86	0.02
313.2	0.1002	1.139	0.025
313.2	0.2005	1.854	0.04
313.2	0.2998	2.266	0.049
313.2	0.35	2.382	0.051
313.2	0.4004	2.467	0.053
313.2	0.4493	2.513	0.054
313.2	0.4998	2.504	0.053
313.2	0.5504	2.463	0.053
313.2	0.6008	2.366	0.051
313.2	0.6492	2.243	0.048
313.2	0.6991	2.063	0.044
313.2	0.7997	1.566	0.034
313.2	0.9002	0.859	0.02
328.2	0.1002	1.194	0.027
328.2	0.2005	1.963	0.042
328.2	0.2998	2.412	0.052
328.2	0.35	2.532	0.054
328.2	0.4004	2.65	0.057
328.2	0.4493	2.673	0.057
328.2	0.4998	2.651	0.057
328.2	0.5504	2.592	0.055
328.2	0.6008	2.48	0.053
328.2	0.6492	2.336	0.05
328.2	0.6991	2.133	0.046
328.2	0.7997	1.597	0.035
328.2	0.9002	0.881	0.02
