Measured thermophysical data. Densities of the Ternary Systems Y(NO3)3 + La(NO3)3 + H2O, La(NO3)3 + Ce(NO3)3 + H2O, and La(NO3)3 + Nd(NO3)3 + H2O and Their Binary Subsystems at Different Temperatures
Source: J. Chem. Eng. Data, 2011, 10.1021/je100875a
Compound 1: yttrium nitrate, N3O9Y, InChI=1S/3NO3.Y/c3*2-1(3)4;/q3*-1;+3
Compound 2: cerium nitrate, CeN3O9, InChI=1S/Ce.3NO3/c;3*2-1(3)4/q+3;3*-1
Compound 3: lanthanum(III) nitrate, LaN3O9, InChI=1S/La.3NO3/c;3*2-1(3)4/q+3;3*-1
Compound 4: neodymium(III) nitrate, N3NdO9, InChI=1S/3NO3.Nd/c3*2-1(3)4;/q3*-1;+3
Compound 5: water, H2O, InChI=1S/H2O/h1H2

System: water + cerium nitrate; phases: Liquid
Fixed: Pressure, kPa = 101
Property: Mass density, kg/m3 (Liquid); method: VIBTUB:UFactor:2
Temperature, K	Molality, mol/kg of cerium nitrate	Mass density, kg/m3	uncertainty
293.15	0.5112	1131.2	0.2
293.15	1.0313	1252.8	0.3
293.15	1.5546	1361.9	0.4
293.15	1.9969	1446.2	0.4
293.15	3.1308	1633.2	0.6
293.15	3.9676	1746.4	0.6
293.15	4.4616	1806	0.7
298.15	0.5112	1129.3	0.2
298.15	1.0313	1250.2	0.3
298.15	1.5546	1358.8	0.3
298.15	1.9969	1443.1	0.4
298.15	3.1308	1629.1	0.6
298.15	3.9676	1742.4	0.6
298.15	4.4616	1801.8	0.7
308.15	0.5112	1124.7	0.2
308.15	1.0313	1244.4	0.3
308.15	1.5546	1352	0.3
308.15	1.9969	1435.7	0.4
308.15	3.1308	1620.5	0.6
308.15	3.9676	1733.1	0.6
308.15	4.4616	1792.2	0.7

System: water + lanthanum(III) nitrate; phases: Liquid
Fixed: Pressure, kPa = 101
Property: Mass density, kg/m3 (Liquid); method: VIBTUB:UFactor:2
Temperature, K	Molality, mol/kg of lanthanum(III) nitrate	Mass density, kg/m3	uncertainty
293.15	0.4953	1125.6	0.2
293.15	0.9893	1240.6	0.3
293.15	1.4797	1343.1	0.3
293.15	1.9704	1436.9	0.4
293.15	2.9299	1595.8	0.5
293.15	3.9001	1729.3	0.6
293.15	4.3846	1787.9	0.7
298.15	0.4953	1123.8	0.2
298.15	0.9893	1238.1	0.3
298.15	1.4797	1340.1	0.3
298.15	1.9704	1433.6	0.4
298.15	2.9299	1591.8	0.5
298.15	3.9001	1725.3	0.6
298.15	4.3846	1783.8	0.7
308.15	0.4953	1119.2	0.2
308.15	0.9893	1231.6	0.3
308.15	1.4797	1333.5	0.3
308.15	1.9704	1426.3	0.4
308.15	2.9299	1583.4	0.5
308.15	3.9001	1716.3	0.6
308.15	4.3846	1774.6	0.7

System: water + neodymium(III) nitrate; phases: Liquid
Fixed: Pressure, kPa = 101
Property: Mass density, kg/m3 (Liquid); method: VIBTUB:UFactor:2
Temperature, K	Molality, mol/kg of neodymium(III) nitrate	Mass density, kg/m3	uncertainty
566.3	0.522	1136.1	0.4
566.3	1.0213	1255.1	0.5
566.3	1.5554	1369.8	0.6
566.3	2.0934	1474.7	0.7
566.3	3.0857	1642.1	0.9
566.3	4.1242	1785.9	1.1
566.3	4.2972	1807	1.1
571.3	0.522	1134.2	0.4
571.3	1.0213	1252.5	0.5
571.3	1.5554	1366.7	0.6
571.3	2.0934	1471.1	0.7
571.3	3.0857	1637.8	0.9
571.3	4.1242	1781.1	1.1
571.3	4.2972	1802.7	1.2
581.3	0.522	1129.6	0.4
581.3	1.0213	1246.7	0.5
581.3	1.5554	1359.9	0.7
581.3	2.0934	1463.5	0.8
581.3	3.0857	1628.8	1
581.3	4.1242	1771.4	1.1
581.3	4.2972	1792.8	1.2

System: water + yttrium nitrate; phases: Liquid
Fixed: Pressure, kPa = 101
Property: Mass density, kg/m3 (Liquid); method: VIBTUB:UFactor:2
Temperature, K	Molality, mol/kg of yttrium nitrate	Mass density, kg/m3	uncertainty
293.15	0.4989	1105.5	0.2
293.15	0.9965	1202.6	0.2
293.15	1.4972	1290.8	0.3
293.15	1.982	1368.7	0.4
293.15	2.9475	1502.8	0.5
293.15	3.9452	1615.7	0.5
293.15	4.9575	1708.9	0.6
298.15	0.27747	1057.4	0.2
298.15	0.32132	1066.6	0.2
298.15	0.37064	1076.9	0.2
298.15	0.41718	1086.5	0.2
298.15	0.4989	1103.5	0.2
298.15	0.9965	1200.2	0.2
298.15	1.4972	1287.8	0.3
298.15	1.982	1365.4	0.4
298.15	2.9475	1498.9	0.5
298.15	3.9452	1611.4	0.5
298.15	4.9575	1704.3	0.6
308.15	0.4989	1099.2	0.2
308.15	0.9965	1194.7	0.2
308.15	1.4972	1281.4	0.3
308.15	1.982	1358.2	0.3
308.15	2.9475	1490.5	0.5
308.15	3.9452	1602.2	0.5
308.15	4.9575	1694.7	0.6

System: water + lanthanum(III) nitrate + yttrium nitrate; phases: Liquid
Fixed: Pressure, kPa = 101
Property: Mass density, kg/m3 (Liquid); method: VIBTUB:UFactor:2
Temperature, K	Molality, mol/kg of yttrium nitrate	Molality, mol/kg of lanthanum(III) nitrate	Mass density, kg/m3	uncertainty
293.15	0.2468	0.7443	1231	0.3
293.15	0.4914	0.5015	1221.6	0.2
293.15	0.4943	1.479	1420.3	0.4
293.15	0.7308	2.2034	1573.5	0.5
293.15	0.7454	0.2493	1212	0.2
293.15	0.9762	2.9351	1703.5	0.6
293.15	0.9888	0.9874	1403	0.4
293.15	1.4577	1.4809	1550.9	0.5
293.15	1.4851	0.494	1386.3	0.4
293.15	1.9589	1.9636	1674.9	0.6
293.15	2.2043	0.7388	1527.5	0.5
293.15	2.9485	0.9853	1646.1	0.6
298.15	0.2468	0.7443	1228.8	0.3
298.15	0.4914	0.5015	1219.1	0.2
298.15	0.4943	1.479	1416.8	0.4
298.15	0.7308	2.2034	1569.6	0.5
298.15	0.7454	0.2493	1209.3	0.2
298.15	0.9762	2.9351	1698.5	0.6
298.15	0.9888	0.9874	1399	0.4
298.15	1.4577	1.4809	1546.6	0.5
298.15	1.4851	0.494	1382.8	0.4
298.15	1.9589	1.9636	1670.4	0.6
298.15	2.2043	0.7388	1523.2	0.5
298.15	2.9485	0.9853	1641.9	0.6
308.15	0.2468	0.7443	1222.8	0.2
308.15	0.4914	0.5015	1214	0.2
308.15	0.4943	1.479	1409.8	0.4
308.15	0.7308	2.2034	1561.1	0.5
308.15	0.7454	0.2493	1203.7	0.2
308.15	0.9762	2.9351	1689.9	0.6
308.15	0.9888	0.9874	1392.9	0.4
308.15	1.4577	1.4809	1538.4	0.5
308.15	1.4851	0.494	1375.5	0.4
308.15	1.9589	1.9636	1661.5	0.6
308.15	2.2043	0.7388	1514.9	0.5
308.15	2.9485	0.9853	1632.3	0.6

System: water + lanthanum(III) nitrate + cerium nitrate; phases: Liquid
Fixed: Pressure, kPa = 101
Property: Mass density, kg/m3 (Liquid); method: VIBTUB:UFactor:2
Temperature, K	Molality, mol/kg of lanthanum(III) nitrate	Molality, mol/kg of cerium nitrate	Mass density, kg/m3	uncertainty
293.15	0.2553	0.7651	1249.5	0.3
293.15	0.4926	1.4977	1444.1	0.4
293.15	0.5119	0.4977	1246.8	0.3
293.15	0.7491	0.2504	1243.1	0.3
293.15	0.7679	2.3103	1624	0.6
293.15	0.9848	2.9658	1742.9	0.6
293.15	0.9855	0.9982	1442.1	0.4
293.15	1.4777	0.4994	1439.5	0.4
293.15	1.5247	1.5015	1614.1	0.5
293.15	1.9656	1.968	1738.6	0.6
293.15	2.2352	0.7423	1605.7	0.5
293.15	2.9339	0.983	1734.6	0.6
298.15	0.2553	0.7651	1247.2	0.3
298.15	0.4926	1.4977	1440.9	0.4
298.15	0.5119	0.4977	1244.1	0.3
298.15	0.7491	0.2504	1241.3	0.3
298.15	0.7679	2.3103	1620	0.6
298.15	0.9848	2.9658	1738.2	0.6
298.15	0.9855	0.9982	1438.9	0.4
298.15	1.4777	0.4994	1436.6	0.4
298.15	1.5247	1.5015	1610.5	0.5
298.15	1.9656	1.968	1734.5	0.6
298.15	2.2352	0.7423	1601.5	0.5
298.15	2.9339	0.983	1730.1	0.6
308.15	0.2553	0.7651	1240.9	0.3
308.15	0.4926	1.4977	1433.4	0.4
308.15	0.5119	0.4977	1238.3	0.3
308.15	0.7491	0.2504	1235.3	0.3
308.15	0.7679	2.3103	1611.9	0.5
308.15	0.9848	2.9658	1729.6	0.6
308.15	0.9855	0.9982	1431.2	0.4
308.15	1.4777	0.4994	1429.2	0.4
308.15	1.5247	1.5015	1601.8	0.5
308.15	1.9656	1.968	1724.8	0.6
308.15	2.2352	0.7423	1593.2	0.5
308.15	2.9339	0.983	1721	0.6

System: water + neodymium(III) nitrate + lanthanum(III) nitrate; phases: Liquid
Fixed: Pressure, kPa = 101
Property: Mass density, kg/m3 (Liquid); method: VIBTUB:UFactor:2
Temperature, K	Molality, mol/kg of lanthanum(III) nitrate	Molality, mol/kg of neodymium(III) nitrate	Mass density, kg/m3	uncertainty
293.15	0.2529	0.7602	1251.2	0.3
293.15	0.5028	0.5023	1247.2	0.3
293.15	0.5107	1.5508	1465	0.5
293.15	0.748	0.2492	1245	0.3
293.15	0.7598	2.2855	1631.1	0.7
293.15	1.0105	1.0198	1455.7	0.5
293.15	1.0112	3.0548	1772.4	0.8
293.15	1.4705	0.5311	1446.7	0.4
293.15	1.4941	1.5122	1619.1	0.6
293.15	1.9959	2.0136	1758.4	0.7
293.15	2.2268	0.7404	1607.9	0.6
293.15	2.9581	0.9962	1744.2	0.7
298.15	0.2529	0.7602	1249.3	0.3
298.15	0.5028	0.5023	1245.9	0.3
298.15	0.5107	1.5508	1461.5	0.5
298.15	0.748	0.2492	1241.8	0.3
298.15	0.7598	2.2855	1626.8	0.7
298.15	1.0105	1.0198	1453.1	0.4
298.15	1.0112	3.0548	1767.8	0.8
298.15	1.4705	0.5311	1443.5	0.4
298.15	1.4941	1.5122	1615.6	0.6
298.15	1.9959	2.0136	1754.4	0.7
298.15	2.2268	0.7404	1604.3	0.6
298.15	2.9581	0.9962	1740.4	0.7
308.15	0.2529	0.7602	1242.5	0.3
308.15	0.5028	0.5023	1238.5	0.3
308.15	0.5107	1.5508	1453.6	0.5
308.15	0.748	0.2492	1235.9	0.3
308.15	0.7598	2.2855	1617.5	0.6
308.15	1.0105	1.0198	1445.2	0.4
308.15	1.0112	3.0548	1758	0.8
308.15	1.4705	0.5311	1436.5	0.4
308.15	1.4941	1.5122	1606.6	0.6
308.15	1.9959	2.0136	1744.9	0.7
308.15	2.2268	0.7404	1595.5	0.5
308.15	2.9581	0.9962	1731	0.7
