Measured thermophysical data. Solubility of Candesartan Cilexetil in Different Solvents at Various Temperatures
Source: J. Chem. Eng. Data, 2011, 10.1021/je101020m
Compound 1: 1-(((cyclohexyloxy)carbonyl)oxy)ethyl 1-((2-(1H-tetrazol-5-yl)-[1,1'-biphenyl]-4-yl)methyl)-2-ethoxy-1H-benzo[d]imidazole-7-carboxylate, C33H34N6O6, InChI=1S/C33H34N6O6/c1-3-42-32-34-28-16-10-15-26(31(40)43-21(2)44-33(41)45-24-13-8-5-9-14-24)29(28)39(32)20-22-17-18-25(23-11-6-4-7-12-23)27(19-22)30-35-37-38-36-30/h4,6-7,10-12,15-19,21,24H,3,5,8-9,13-14,20H2,1-2H3,(H,35,36,37,38), purity 99.5%
Compound 2: ethanol, C2H6O, InChI=1S/C2H6O/c1-2-3/h3H,2H2,1H3
Compound 3: propan-1-ol, C3H8O, InChI=1S/C3H8O/c1-2-3-4/h4H,2-3H2,1H3
Compound 4: propan-2-ol, C3H8O, InChI=1S/C3H8O/c1-3(2)4/h3-4H,1-2H3
Compound 5: acetone, C3H6O, InChI=1S/C3H6O/c1-3(2)4/h1-2H3
Compound 6: butanone, C4H8O, InChI=1S/C4H8O/c1-3-4(2)5/h3H2,1-2H3
Compound 7: acetonitrile, C2H3N, InChI=1S/C2H3N/c1-2-3/h1H3

System: acetone + 1-(((cyclohexyloxy)carbonyl)oxy)ethyl 1-((2-(1H-tetrazol-5-yl)-[1,1'-biphenyl]-4-yl)methyl)-2-ethoxy-1H-benzo[d]imidazole-7-carboxylate; phases: Liquid, Crystal
Fixed: Pressure, kPa = 101
Property: Mole fraction of 1-(((cyclohexyloxy)carbonyl)oxy)ethyl 1-((2-(1H-tetrazol-5-yl)-[1,1'-biphenyl]-4-yl)methyl)-2-ethoxy-1H-benzo[d]imidazole-7-carboxylate (Liquid); method: Gravimetric method
Temperature, K	Mole fraction of 1-(((cyclohexyloxy)carbonyl)oxy)ethyl 1-((2-(1H-tetrazol-5-yl)-[1,1'-biphenyl]-4-yl)methyl)-2-ethoxy-1H-benzo[d]imidazole-7-carboxylate	uncertainty
278.15	0.00383	0.00013
283.15	0.0046689	0.0001617
288.15	0.0056637	0.0001962
293.15	0.0067265	0.0002331
298.15	0.0078327	0.0002716
303.15	0.0094611	0.0003283
308.15	0.0111019	0.0003855
313.15	0.0132851	0.0004617
318.15	0.0155015	0.0005393
323.15	0.01823	0.00063

System: butanone + 1-(((cyclohexyloxy)carbonyl)oxy)ethyl 1-((2-(1H-tetrazol-5-yl)-[1,1'-biphenyl]-4-yl)methyl)-2-ethoxy-1H-benzo[d]imidazole-7-carboxylate; phases: Liquid, Crystal
Fixed: Pressure, kPa = 101
Property: Mole fraction of 1-(((cyclohexyloxy)carbonyl)oxy)ethyl 1-((2-(1H-tetrazol-5-yl)-[1,1'-biphenyl]-4-yl)methyl)-2-ethoxy-1H-benzo[d]imidazole-7-carboxylate (Liquid); method: Gravimetric method
Temperature, K	Mole fraction of 1-(((cyclohexyloxy)carbonyl)oxy)ethyl 1-((2-(1H-tetrazol-5-yl)-[1,1'-biphenyl]-4-yl)methyl)-2-ethoxy-1H-benzo[d]imidazole-7-carboxylate	uncertainty
278.15	0.0057523	0.000184
283.15	0.0065348	0.0002091
288.15	0.007492	0.00024
293.15	0.0085978	0.0002753
298.15	0.0100076	0.0003206
303.15	0.0117538	0.0003768
308.15	0.0137474	0.0004409
313.15	0.0160319	0.0005146
318.15	0.0190048	0.0006106
323.15	0.0223927	0.0007203
328.15	0.0264141	0.0008508
333.15	0.0310216	0.001001

System: acetonitrile + 1-(((cyclohexyloxy)carbonyl)oxy)ethyl 1-((2-(1H-tetrazol-5-yl)-[1,1'-biphenyl]-4-yl)methyl)-2-ethoxy-1H-benzo[d]imidazole-7-carboxylate; phases: Liquid, Crystal
Fixed: Pressure, kPa = 101
Property: Mole fraction of 1-(((cyclohexyloxy)carbonyl)oxy)ethyl 1-((2-(1H-tetrazol-5-yl)-[1,1'-biphenyl]-4-yl)methyl)-2-ethoxy-1H-benzo[d]imidazole-7-carboxylate (Liquid); method: Gravimetric method
Temperature, K	Mole fraction of 1-(((cyclohexyloxy)carbonyl)oxy)ethyl 1-((2-(1H-tetrazol-5-yl)-[1,1'-biphenyl]-4-yl)methyl)-2-ethoxy-1H-benzo[d]imidazole-7-carboxylate	uncertainty
278.15	0.0002567	1.06e-05
283.15	0.0003276	1.35e-05
288.15	0.0004388	1.81e-05
293.15	0.0005816	2.39e-05
298.15	0.0007079	2.91e-05
303.15	0.0009122	3.76e-05
308.15	0.0012744	5.25e-05
313.15	0.0015877	6.54e-05
318.15	0.0019508	8.04e-05
323.15	0.0026273	0.0001083
328.15	0.0034268	0.0001413
333.15	0.0044239	0.0001825

System: propan-1-ol + 1-(((cyclohexyloxy)carbonyl)oxy)ethyl 1-((2-(1H-tetrazol-5-yl)-[1,1'-biphenyl]-4-yl)methyl)-2-ethoxy-1H-benzo[d]imidazole-7-carboxylate; phases: Liquid, Crystal
Fixed: Pressure, kPa = 101
Property: Mole fraction of 1-(((cyclohexyloxy)carbonyl)oxy)ethyl 1-((2-(1H-tetrazol-5-yl)-[1,1'-biphenyl]-4-yl)methyl)-2-ethoxy-1H-benzo[d]imidazole-7-carboxylate (Liquid); method: Gravimetric method
Temperature, K	Mole fraction of 1-(((cyclohexyloxy)carbonyl)oxy)ethyl 1-((2-(1H-tetrazol-5-yl)-[1,1'-biphenyl]-4-yl)methyl)-2-ethoxy-1H-benzo[d]imidazole-7-carboxylate	uncertainty
278.15	0.0006204	2.12e-05
283.15	0.0007925	2.7e-05
288.15	0.0009818	3.35e-05
293.15	0.0013247	4.52e-05
298.15	0.0017206	5.87e-05
303.15	0.002084	7.1e-05
308.15	0.0028343	9.67e-05
313.15	0.0037338	0.0001274
318.15	0.004524	0.000154
323.15	0.0058996	0.0002016
328.15	0.0075925	0.0002596
333.15	0.0097728	0.0003344

System: propan-2-ol + 1-(((cyclohexyloxy)carbonyl)oxy)ethyl 1-((2-(1H-tetrazol-5-yl)-[1,1'-biphenyl]-4-yl)methyl)-2-ethoxy-1H-benzo[d]imidazole-7-carboxylate; phases: Liquid, Crystal
Fixed: Pressure, kPa = 101
Property: Mole fraction of 1-(((cyclohexyloxy)carbonyl)oxy)ethyl 1-((2-(1H-tetrazol-5-yl)-[1,1'-biphenyl]-4-yl)methyl)-2-ethoxy-1H-benzo[d]imidazole-7-carboxylate (Liquid); method: Gravimetric method
Temperature, K	Mole fraction of 1-(((cyclohexyloxy)carbonyl)oxy)ethyl 1-((2-(1H-tetrazol-5-yl)-[1,1'-biphenyl]-4-yl)methyl)-2-ethoxy-1H-benzo[d]imidazole-7-carboxylate	uncertainty
278.15	0.0002621	8.9e-06
283.15	0.0003687	1.26e-05
288.15	0.0005201	1.77e-05
293.15	0.0006995	2.38e-05
298.15	0.0009294	3.17e-05
303.15	0.0012798	4.36e-05
308.15	0.0016963	5.79e-05
313.15	0.0022064	7.53e-05
318.15	0.0029824	0.0001018
323.15	0.0039077	0.0001334
328.15	0.0052576	0.0001796
333.15	0.0066673	0.0002278

System: ethanol + 1-(((cyclohexyloxy)carbonyl)oxy)ethyl 1-((2-(1H-tetrazol-5-yl)-[1,1'-biphenyl]-4-yl)methyl)-2-ethoxy-1H-benzo[d]imidazole-7-carboxylate; phases: Liquid, Crystal
Fixed: Pressure, kPa = 101
Property: Mole fraction of 1-(((cyclohexyloxy)carbonyl)oxy)ethyl 1-((2-(1H-tetrazol-5-yl)-[1,1'-biphenyl]-4-yl)methyl)-2-ethoxy-1H-benzo[d]imidazole-7-carboxylate (Liquid); method: Gravimetric method
Temperature, K	Mole fraction of 1-(((cyclohexyloxy)carbonyl)oxy)ethyl 1-((2-(1H-tetrazol-5-yl)-[1,1'-biphenyl]-4-yl)methyl)-2-ethoxy-1H-benzo[d]imidazole-7-carboxylate	uncertainty
278.15	0.0005488	2.12e-05
283.15	0.000655	2.5e-05
288.15	0.0008561	3.3e-05
293.15	0.0010312	3.98e-05
298.15	0.0013036	5.03e-05
303.15	0.0016317	6.3e-05
308.15	0.0020288	7.83e-05
313.15	0.0027053	0.0001045
318.15	0.0035484	0.0001371
323.15	0.0045766	0.000177
328.15	0.005732	0.000222
333.15	0.0077236	0.0002991
