Measured thermophysical data. Electrical Conductivity of Caprolactam Tetrabutylammonium Bromide Ionic Liquids in Aqueous and Alcohol Binary Systems
Source: J. Chem. Eng. Data, 2010, 10.1021/je100361s
Compound 1: tetrabutylammonium bromide, C16H36BrN, InChI=1S/C16H36N.BrH/c1-5-9-13-17(14-10-6-2,15-11-7-3)16-12-8-4;/h5-16H2,1-4H3;1H/q+1;/p-1
Compound 2: 1-aza-2-cycloheptanone, C6H11NO, InChI=1S/C6H11NO/c8-6-4-2-1-3-5-7-6/h1-5H2,(H,7,8)
Compound 3: water, H2O, InChI=1S/H2O/h1H2
Compound 4: ethanol, C2H6O, InChI=1S/C2H6O/c1-2-3/h3H,2H2,1H3
Compound 5: propan-2-ol, C3H8O, InChI=1S/C3H8O/c1-3(2)4/h3-4H,1-2H3
Compound 6: butan-1-ol, C4H10O, InChI=1S/C4H10O/c1-2-3-4-5/h5H,2-4H2,1H3

System: water; phases: Liquid
Fixed: Pressure, kPa = 101.325
Property: Electrical conductivity, S/m (Liquid); method: Shanghai Precision & Scientific Instrument Co., LTD (DDS-307)
Temperature, K	Electrical conductivity, S/m	uncertainty
298.15	0.002667	0.00016
303.15	0.002873	0.000172
308.15	0.003225	0.000194
313.15	0.003492	0.00021
318.15	0.003751	0.000225

System: ethanol; phases: Liquid
Fixed: Pressure, kPa = 101.325
Property: Electrical conductivity, S/m (Liquid); method: Shanghai Precision & Scientific Instrument Co., LTD (DDS-307)
Temperature, K	Electrical conductivity, S/m	uncertainty
298.15	0.000413	2.48e-05
303.15	0.0005045	3.03e-05
308.15	0.0005842	3.51e-05
313.15	0.0006438	3.86e-05
318.15	0.0007114	4.27e-05

System: propan-2-ol; phases: Liquid
Fixed: Pressure, kPa = 101.325
Property: Electrical conductivity, S/m (Liquid); method: Shanghai Precision & Scientific Instrument Co., LTD (DDS-307)
Temperature, K	Electrical conductivity, S/m	uncertainty
298.15	5.201e-05	3.12e-06
303.15	7e-05	4.2e-06
308.15	7.503e-05	4.5e-06
313.15	8.081e-05	4.85e-06
318.15	8.425e-05	5.06e-06

System: butan-1-ol; phases: Liquid
Fixed: Pressure, kPa = 101.325
Property: Electrical conductivity, S/m (Liquid); method: Shanghai Precision & Scientific Instrument Co., LTD (DDS-307)
Temperature, K	Electrical conductivity, S/m	uncertainty
298.15	4.401e-05	2.64e-06
303.15	5.552e-05	3.33e-06
308.15	6.58e-05	3.95e-06
313.15	6.903e-05	4.14e-06
318.15	8e-05	4.8e-06

System: 1-aza-2-cycloheptanone + tetrabutylammonium bromide + water; phases: Liquid
Fixed: Pressure, kPa = 101
Property: Electrical conductivity, S/m (Liquid); method: Shanghai Precision & Scientific Instrument Co., LTD (DDS-307)
Mole fraction of 1-aza-2-cycloheptanone	Mole fraction of tetrabutylammonium bromide	Temperature, K	Electrical conductivity, S/m	uncertainty
6.01e-05	3e-05	297.35	1.859e-06	2e-07
6.01e-05	3e-05	299.15	1.94e-06	2e-07
6.01e-05	3e-05	302.35	2.076e-06	2e-07
6.01e-05	3e-05	303.25	2.096e-06	2e-07
6.01e-05	3e-05	306.25	2.177e-06	2e-07
6.01e-05	3e-05	308.65	2.216e-06	2e-07
6.01e-05	3e-05	311.15	2.266e-06	2e-07
6.01e-05	3e-05	313.65	2.321e-06	2e-07
6.01e-05	3e-05	317.35	2.367e-06	2e-07
6.01e-05	3e-05	320.15	2.49e-06	2e-07
6.01e-05	3e-05	325.15	2.574e-06	2e-07
6.01e-05	3e-05	327.65	2.654e-06	2e-07
6.01e-05	3e-05	329.45	2.674e-06	2e-07
6.01e-05	3e-05	331.45	3.022e-06	2e-07
0.00012	6e-05	298.2	3.14e-06	2e-07
0.00012	6e-05	299.6	3.288e-06	2e-07
0.00012	6e-05	308.3	3.678e-06	2.21e-07
0.00012	6e-05	312.2	3.69e-06	2.2e-07
0.00012	6e-05	316.2	3.72e-06	2.2e-07
0.00012	6e-05	318.2	3.849e-06	2.31e-07
0.00012	6e-05	322.2	3.95e-06	2.4e-07
0.00012	6e-05	325.2	4.127e-06	2.48e-07
0.00012	6e-05	328.2	4.296e-06	2.58e-07
0.00012	6e-05	333.2	4.916e-06	2.95e-07
0.00024	0.00012	298.95	6.427e-06	3.86e-07
0.00024	0.00012	301.75	6.716e-06	4.03e-07
0.00024	0.00012	308.05	7.023e-06	4.21e-07
0.00024	0.00012	310.15	7.073e-06	4.24e-07
0.00024	0.00012	311.35	7.104e-06	4.26e-07
0.00024	0.00012	313.15	7.115e-06	4.27e-07
0.00024	0.00012	315.35	7.128e-06	4.28e-07
0.00024	0.00012	316.75	7.153e-06	4.29e-07
0.00024	0.00012	320.75	7.328e-06	4.4e-07
0.00024	0.00012	322.45	7.413e-06	4.45e-07
0.00024	0.00012	325.35	7.646e-06	4.59e-07
0.00024	0.00012	327.15	7.746e-06	4.65e-07
0.00024	0.00012	329.55	7.965e-06	4.78e-07
0.00024	0.00012	330.15	8.061e-06	4.84e-07
0.00024	0.00012	332.45	8.286e-06	4.97e-07
0.00048	0.00024	294.35	1.098e-05	6.6e-07
0.00048	0.00024	296.15	1.184e-05	7.1e-07
0.00048	0.00024	298.15	1.233e-05	7.4e-07
0.00048	0.00024	301.45	1.283e-05	7.7e-07
0.00048	0.00024	304.75	1.319e-05	7.9e-07
0.00048	0.00024	306.45	1.377e-05	8.3e-07
0.00048	0.00024	309.85	1.362e-05	8.2e-07
0.00048	0.00024	313.65	1.379e-05	8.3e-07
0.00048	0.00024	315.65	1.387e-05	8.3e-07
0.00048	0.00024	318.35	1.397e-05	8.4e-07
0.00048	0.00024	321.15	1.395e-05	8.4e-07
0.00048	0.00024	322.75	1.396e-05	8.4e-07
0.00048	0.00024	326.55	1.429e-05	8.6e-07
0.00048	0.00024	327.65	1.428e-05	8.6e-07
0.00048	0.00024	329.25	1.414e-05	8.5e-07
0.00096	0.00048	296.75	1.941e-05	1.17e-06
0.00096	0.00048	298.65	2.227e-05	1.34e-06
0.00096	0.00048	300.75	2.3e-05	1e-06
0.00096	0.00048	306.85	2.44e-05	1.5e-06
0.00096	0.00048	308.95	2.471e-05	1.48e-06
0.00096	0.00048	311.35	2.496e-05	1.5e-06
0.00096	0.00048	313.95	2.519e-05	1.51e-06
0.00096	0.00048	315.95	2.529e-05	1.52e-06
0.00096	0.00048	317.55	2.543e-05	1.53e-06
0.00096	0.00048	320.85	2.545e-05	1.53e-06
0.00096	0.00048	323.45	2.546e-05	1.53e-06
0.00096	0.00048	325.75	2.544e-05	1.53e-06
0.00096	0.00048	327.25	2.541e-05	1.52e-06
0.00096	0.00048	329.25	2.546e-05	1.53e-06
0.00192	0.00096	294.45	3.575e-05	2.15e-06
0.00192	0.00096	298.65	3.923e-05	2.35e-06
0.00192	0.00096	300.15	4e-05	2.4e-06
0.00192	0.00096	301.35	4.051e-05	2.43e-06
0.00192	0.00096	303.15	4.119e-05	2.47e-06
0.00192	0.00096	305.65	4.165e-05	2.5e-06
0.00192	0.00096	306.65	4.188e-05	2.51e-06
0.00192	0.00096	308.95	4.219e-05	2.53e-06
0.00192	0.00096	310.75	4.249e-05	2.55e-06
0.00192	0.00096	312.75	4.28e-05	2.6e-06
0.00192	0.00096	316.05	4.301e-05	2.58e-06
0.00192	0.00096	319.25	4.325e-05	2.6e-06
0.00192	0.00096	322.15	4.331e-05	2.6e-06
0.00192	0.00096	328.25	4.382e-05	2.63e-06
0.00382	0.00191	294.95	5.684e-05	3.41e-06
0.00382	0.00191	295.35	5.807e-05	3.48e-06
0.00382	0.00191	296.05	5.971e-05	3.58e-06
0.00382	0.00191	296.95	6.107e-05	3.66e-06
0.00382	0.00191	298.15	6.23e-05	3.7e-06
0.00382	0.00191	301.35	6.529e-05	3.92e-06
0.00382	0.00191	303.55	6.661e-05	4e-06
0.00382	0.00191	305.35	6.774e-05	4.07e-06
0.00382	0.00191	307.15	6.864e-05	4.12e-06
0.00382	0.00191	309.85	6.904e-05	4.14e-06
0.00382	0.00191	311.55	6.979e-05	4.19e-06
0.00382	0.00191	314.05	7.033e-05	4.22e-06
0.00382	0.00191	315.95	7.082e-05	4.25e-06
0.00382	0.00191	318.35	7.13e-05	4.3e-06
0.00382	0.00191	320.75	7.149e-05	4.29e-06

System: ethanol + 1-aza-2-cycloheptanone + tetrabutylammonium bromide; phases: Liquid
Fixed: Pressure, kPa = 101
Property: Electrical conductivity, S/m (Liquid); method: Shanghai Precision & Scientific Instrument Co., LTD (DDS-307)
Mole fraction of 1-aza-2-cycloheptanone	Mole fraction of tetrabutylammonium bromide	Temperature, K	Electrical conductivity, S/m	uncertainty
0	9.67e-05	303.95	7.304e-07	2e-07
0.000193	9.67e-05	291.85	5.664e-07	2e-07
0.000193	9.67e-05	292.65	6.169e-07	2e-07
0.000193	9.67e-05	293.55	6.267e-07	2e-07
0.000193	9.67e-05	295.55	6.835e-07	2e-07
0.000193	9.67e-05	296.55	6.983e-07	2e-07
0.000193	9.67e-05	298.55	7.143e-07	2e-07
0.000193	9.67e-05	300.45	7.237e-07	2e-07
0.000193	9.67e-05	303.95	7.294e-07	2e-07
0.000193	9.67e-05	305.85	7.296e-07	2e-07
0.000193	9.67e-05	308.45	7.334e-07	2e-07
0.000193	9.67e-05	309.55	7.345e-07	2e-07
0.000193	9.67e-05	313.35	7.216e-07	2e-07
0.000193	9.67e-05	315.95	7.235e-07	2e-07
0.000193	9.67e-05	319.05	7.341e-07	2e-07
0.000193	9.67e-05	320.65	7.428e-07	2e-07
0.000193	9.67e-05	322.05	7.497e-07	2e-07
0.000193	9.67e-05	323.35	7.54e-07	2e-07
0.000193	9.67e-05	325.45	7.743e-07	2e-07
0.000773	0.000387	298.25	1.746e-06	2e-07
0.000773	0.000387	299.45	1.787e-06	2e-07
0.000773	0.000387	300.35	1.807e-06	2e-07
0.000773	0.000387	302.85	1.857e-06	2e-07
0.000773	0.000387	305.85	1.867e-06	2e-07
0.000773	0.000387	308.95	1.929e-06	2e-07
0.000773	0.000387	311.85	1.936e-06	2e-07
0.000773	0.000387	314.95	1.936e-06	2e-07
0.000773	0.000387	319.85	1.939e-06	2e-07
0.000773	0.000387	321.85	1.934e-06	2e-07
0.000773	0.000387	325.35	1.93e-06	2e-07
0.000773	0.000387	327.35	1.913e-06	2e-07
0.000773	0.000387	329.45	1.919e-06	2e-07
0.000773	0.000387	330.65	1.925e-06	2e-07
0.000773	0.000387	332.05	1.937e-06	2e-07
0.000773	0.000387	336.05	1.939e-06	2e-07
0.000773	0.000387	338.55	1.941e-06	2e-07
0.000773	0.000387	339.85	1.947e-06	2e-07
0.000773	0.000387	342.25	1.953e-06	2e-07
0.00309	0.00154	294.25	4.989e-06	2.99e-07
0.00309	0.00154	294.95	5.043e-06	3.03e-07
0.00309	0.00154	296.05	5.094e-06	3.06e-07
0.00309	0.00154	297.55	5.162e-06	3.1e-07
0.00309	0.00154	301.35	5.215e-06	3.13e-07
0.00309	0.00154	302.45	5.235e-06	3.14e-07
0.00309	0.00154	303.55	5.239e-06	3.14e-07
0.00309	0.00154	305.55	5.243e-06	3.15e-07
0.00309	0.00154	307.35	5.261e-06	3.16e-07
0.00309	0.00154	308.95	5.263e-06	3.16e-07
0.00309	0.00154	310.65	5.264e-06	3.16e-07
0.00309	0.00154	312.05	5.273e-06	3.16e-07
0.00309	0.00154	314.05	5.266e-06	3.16e-07
0.00309	0.00154	315.85	5.275e-06	3.17e-07
0.00309	0.00154	319.55	5.273e-06	3.16e-07
0.00309	0.00154	322.85	5.273e-06	3.16e-07
0.00309	0.00154	324.85	5.26e-06	3.2e-07
0.00309	0.00154	326.25	5.269e-06	3.16e-07
0.00309	0.00154	327.75	5.282e-06	3.17e-07
0.0114	0.0057	294.15	1.213e-05	7.3e-07
0.0114	0.0057	294.55	1.231e-05	7.4e-07
0.0114	0.0057	295.95	1.252e-05	7.5e-07
0.0114	0.0057	298.45	1.27e-05	8e-07
0.0114	0.0057	300.45	1.282e-05	7.7e-07
0.0114	0.0057	301.65	1.288e-05	7.7e-07
0.0114	0.0057	303.45	1.293e-05	7.8e-07
0.0114	0.0057	305.25	1.3e-05	1e-06
0.0114	0.0057	307.25	1.307e-05	7.8e-07
0.0114	0.0057	308.95	1.309e-05	7.9e-07
0.0114	0.0057	310.75	1.312e-05	7.9e-07
0.0114	0.0057	313.95	1.314e-05	7.9e-07
0.0114	0.0057	317.55	1.319e-05	7.9e-07
0.0114	0.0057	320.45	1.319e-05	7.9e-07
0.0114	0.0057	324.75	1.32e-05	8e-07
0.0114	0.0057	326.35	1.321e-05	7.9e-07
0.0114	0.0057	329.35	1.347e-05	8.1e-07
0.0114	0.0057	331.65	1.346e-05	8.1e-07
0.0114	0.0057	333.55	1.345e-05	8.1e-07
0.0296	0.0148	293.05	2.184e-05	1.31e-06
0.0296	0.0148	294.25	2.216e-05	1.33e-06
0.0296	0.0148	297.35	2.358e-05	1.41e-06
0.0296	0.0148	300.75	2.424e-05	1.45e-06
0.0296	0.0148	303.15	2.459e-05	1.48e-06
0.0296	0.0148	306.85	2.509e-05	1.51e-06
0.0296	0.0148	310.85	2.528e-05	1.52e-06
0.0296	0.0148	313.55	2.534e-05	1.52e-06
0.0296	0.0148	314.95	2.537e-05	1.52e-06
0.0296	0.0148	317.15	2.543e-05	1.53e-06
0.0296	0.0148	320.65	2.541e-05	1.52e-06
0.0296	0.0148	322.25	2.53e-05	1.5e-06

System: propan-2-ol + 1-aza-2-cycloheptanone + tetrabutylammonium bromide; phases: Liquid
Fixed: Pressure, kPa = 101
Property: Electrical conductivity, S/m (Liquid); method: Shanghai Precision & Scientific Instrument Co., LTD (DDS-307)
Mole fraction of 1-aza-2-cycloheptanone	Mole fraction of tetrabutylammonium bromide	Temperature, K	Electrical conductivity, S/m	uncertainty
0	0.00202	294.35	1.267e-06	2e-07
0	0.00202	295.25	1.274e-06	2e-07
0	0.00202	298.65	1.297e-06	2e-07
0	0.00202	301.15	1.316e-06	2e-07
0	0.00202	302.15	1.327e-06	2e-07
0	0.00202	305.75	1.352e-06	2e-07
0	0.00202	306.65	1.359e-06	2e-07
0	0.00202	307.45	1.367e-06	2e-07
0	0.00202	309.35	1.377e-06	2e-07
0	0.00202	310.55	1.384e-06	2e-07
0	0.00202	313.15	1.403e-06	2e-07
0	0.00202	315.85	1.415e-06	2e-07
0	0.00202	317.35	1.428e-06	2e-07
0	0.00202	318.35	1.432e-06	2e-07
0	0.00202	320.25	1.441e-06	2e-07
0	0.00202	321.65	1.451e-06	2e-07
0	0.00202	323.65	1.521e-06	2e-07
0	0.00202	325.05	1.526e-06	2e-07
0	0.00202	327.75	1.533e-06	2e-07
0	0.00202	330.05	1.537e-06	2e-07
0.000253	0.000127	291.55	1.932e-07	2e-07
0.000253	0.000127	293.15	1.956e-07	2e-07
0.000253	0.000127	295.65	1.993e-07	2e-07
0.000253	0.000127	297.15	2.017e-07	2e-07
0.000253	0.000127	298.95	2.029e-07	2e-07
0.000253	0.000127	300.65	2.051e-07	2e-07
0.000253	0.000127	302.85	2.084e-07	2e-07
0.000253	0.000127	305.25	2.098e-07	2e-07
0.000253	0.000127	307.45	2.138e-07	2e-07
0.000253	0.000127	310.05	2.161e-07	2e-07
0.000253	0.000127	312.05	2.195e-07	2e-07
0.000253	0.000127	314.35	2.217e-07	2e-07
0.000253	0.000127	316.85	2.242e-07	2e-07
0.000253	0.000127	318.65	2.259e-07	2e-07
0.000253	0.000127	320.65	2.276e-07	2e-07
0.000253	0.000127	322.45	2.292e-07	2e-07
0.000253	0.000127	324.45	2.297e-07	2e-07
0.000253	0.000127	327.55	2.308e-07	2e-07
0.000253	0.000127	329.25	2.312e-07	2e-07
0.000253	0.000127	330.45	2.318e-07	2e-07
0.000253	0.000127	333.05	2.318e-07	2e-07
0.000253	0.000127	334.35	2.32e-07	2e-07
0.000253	0.000127	336.25	2.321e-07	2e-07
0.000253	0.000127	337.55	2.325e-07	2e-07
0.00101	0.000507	293.15	4.856e-07	2e-07
0.00101	0.000507	294.65	4.893e-07	2e-07
0.00101	0.000507	296.45	4.959e-07	2e-07
0.00101	0.000507	298.85	4.99e-07	2e-07
0.00101	0.000507	300.65	5.01e-07	2e-07
0.00101	0.000507	303.65	5.072e-07	2e-07
0.00101	0.000507	305.55	5.096e-07	2e-07
0.00101	0.000507	307.55	5.143e-07	2e-07
0.00101	0.000507	309.85	5.421e-07	2e-07
0.00101	0.000507	312.05	5.477e-07	2e-07
0.00101	0.000507	314.45	5.512e-07	2e-07
0.00101	0.000507	316.45	5.517e-07	2e-07
0.00101	0.000507	318.35	5.605e-07	2e-07
0.00101	0.000507	320.35	5.637e-07	2e-07
0.00101	0.000507	322.05	5.677e-07	2e-07
0.00101	0.000507	323.85	5.7e-07	2e-07
0.00101	0.000507	325.65	5.729e-07	2e-07
0.00101	0.000507	327.25	5.759e-07	2e-07
0.00101	0.000507	329.25	5.757e-07	2e-07
0.00101	0.000507	331.95	5.781e-07	2e-07
0.00101	0.000507	333.75	5.782e-07	2e-07
0.00101	0.000507	335.45	5.79e-07	2e-07
0.00101	0.000507	337.15	5.809e-07	2e-07
0.00101	0.000507	338.55	5.812e-07	2e-07
0.00403	0.00202	294.35	1.267e-06	2e-07
0.00403	0.00202	295.25	1.274e-06	2e-07
0.00403	0.00202	297.45	1.297e-06	2e-07
0.00403	0.00202	298.65	1.297e-06	2e-07
0.00403	0.00202	301.15	1.316e-06	2e-07
0.00403	0.00202	302.15	1.327e-06	2e-07
0.00403	0.00202	305.75	1.352e-06	2e-07
0.00403	0.00202	306.65	1.359e-06	2e-07
0.00403	0.00202	307.45	1.367e-06	2e-07
0.00403	0.00202	309.35	1.377e-06	2e-07
0.00403	0.00202	310.55	1.384e-06	2e-07
0.00403	0.00202	313.15	1.403e-06	2e-07
0.00403	0.00202	315.85	1.415e-06	2e-07
0.00403	0.00202	317.35	1.428e-06	2e-07
0.00403	0.00202	318.35	1.432e-06	2e-07
0.00403	0.00202	320.25	1.441e-06	2e-07
0.00403	0.00202	321.65	1.451e-06	2e-07
0.00403	0.00202	323.65	1.521e-06	2e-07
0.00403	0.00202	325.05	1.526e-06	2e-07
0.00403	0.00202	326.55	1.529e-06	2e-07
0.00403	0.00202	327.75	1.533e-06	2e-07
0.00403	0.00202	330.05	1.537e-06	2e-07
0.00403	0.00202	330.95	1.538e-06	2e-07
0.00403	0.00202	332.75	1.541e-06	2e-07
0.00403	0.00202	333.85	1.538e-06	2e-07
0.00403	0.00202	336.15	1.54e-06	2e-07
0.00403	0.00202	339.95	1.541e-06	2e-07
0.00403	0.00202	340.95	1.541e-06	2e-07
0.00484	0.00121	293.45	9.85e-07	2e-07
0.00484	0.00121	294.25	9.89e-07	2e-07
0.00484	0.00121	295.35	1.003e-06	2e-07
0.00484	0.00121	296.85	1.019e-06	2e-07
0.00484	0.00121	298.35	1.026e-06	2e-07
0.00484	0.00121	300.05	1.038e-06	2e-07
0.00484	0.00121	301.75	1.052e-06	2e-07
0.00484	0.00121	303.65	1.065e-06	2e-07
0.00484	0.00121	305.55	1.079e-06	2e-07
0.00484	0.00121	307.45	1.094e-06	2e-07
0.00484	0.00121	309.25	1.103e-06	2e-07
0.00484	0.00121	311.05	1.104e-06	2e-07
0.00484	0.00121	312.85	1.125e-06	2e-07
0.00484	0.00121	314.65	1.126e-06	2e-07
0.00484	0.00121	316.45	1.139e-06	2e-07
0.00484	0.00121	318.35	1.146e-06	2e-07
0.00484	0.00121	319.85	1.153e-06	2e-07
0.00484	0.00121	321.45	1.159e-06	2e-07
0.00484	0.00121	323.05	1.164e-06	2e-07
0.00484	0.00121	325.65	1.172e-06	2e-07
0.00484	0.00121	328.15	1.179e-06	2e-07
0.00484	0.00121	329.65	1.18e-06	2e-07
0.00484	0.00121	330.35	1.183e-06	2e-07
0.00484	0.00121	332.35	1.184e-06	2e-07
0.00519	0.000864	293.25	7.705e-07	2e-07
0.00519	0.000864	294.55	7.742e-07	2e-07
0.00519	0.000864	295.75	7.841e-07	2e-07
0.00519	0.000864	297.25	7.933e-07	2e-07
0.00519	0.000864	298.85	7.992e-07	2e-07
0.00519	0.000864	300.55	8.082e-07	2e-07
0.00519	0.000864	302.25	8.192e-07	2e-07
0.00519	0.000864	304.25	8.283e-07	2e-07
0.00519	0.000864	306.05	8.385e-07	2e-07
0.00519	0.000864	307.45	8.518e-07	2e-07
0.00519	0.000864	310.25	8.577e-07	2e-07
0.00519	0.000864	311.65	8.664e-07	2e-07
0.00519	0.000864	313.55	8.689e-07	2e-07
0.00519	0.000864	315.45	8.752e-07	2e-07
0.00519	0.000864	317.15	8.826e-07	2e-07
0.00519	0.000864	318.35	8.865e-07	2e-07
0.00519	0.000864	320.55	8.89e-07	2e-07
0.00519	0.000864	322.35	8.935e-07	2e-07
0.00519	0.000864	323.85	8.945e-07	2e-07
0.00519	0.000864	325.45	8.974e-07	2e-07
0.00519	0.000864	326.85	9.005e-07	2e-07
0.00519	0.000864	328.55	9.012e-07	2e-07
0.00519	0.000864	330.75	9.013e-07	2e-07
0.00519	0.000864	332.75	9.014e-07	2e-07
0.0149	0.00743	292.35	3.213e-06	2e-07
0.0149	0.00743	295.75	3.302e-06	2e-07
0.0149	0.00743	297.35	3.347e-06	2.01e-07
0.0149	0.00743	299.45	3.375e-06	2.03e-07
0.0149	0.00743	302.55	3.44e-06	2.1e-07
0.0149	0.00743	304.95	3.482e-06	2.09e-07
0.0149	0.00743	306.95	3.542e-06	2.13e-07
0.0149	0.00743	308.65	3.567e-06	2.14e-07
0.0149	0.00743	310.45	3.606e-06	2.16e-07
0.0149	0.00743	312.35	3.655e-06	2.19e-07
0.0149	0.00743	314.35	3.686e-06	2.21e-07
0.0149	0.00743	316.15	3.724e-06	2.23e-07
0.0149	0.00743	319.45	3.775e-06	2.27e-07
0.0149	0.00743	323.75	3.844e-06	2.31e-07
0.0149	0.00743	324.65	3.851e-06	2.31e-07
0.0149	0.00743	327.75	3.908e-06	2.34e-07
0.0149	0.00743	329.65	3.929e-06	2.36e-07
0.0149	0.00743	331.45	3.957e-06	2.37e-07
0.0149	0.00743	332.65	3.978e-06	2.39e-07
0.0149	0.00743	334.85	3.975e-06	2.39e-07
0.0149	0.00743	335.75	3.991e-06	2.39e-07
0.0149	0.00743	336.45	4.003e-06	2.4e-07
0.0149	0.00743	337.85	4.025e-06	2.42e-07
0.0149	0.00743	339.65	4.038e-06	2.42e-07
0.0383	0.0191	290.55	6.262e-06	3.76e-07
0.0383	0.0191	295.35	6.601e-06	3.96e-07
0.0383	0.0191	297.75	6.791e-06	4.07e-07
0.0383	0.0191	299.35	6.842e-06	4.11e-07
0.0383	0.0191	300.65	6.92e-06	4.2e-07
0.0383	0.0191	302.35	7.053e-06	4.23e-07
0.0383	0.0191	304.45	7.145e-06	4.29e-07
0.0383	0.0191	306.75	7.308e-06	4.38e-07
0.0383	0.0191	309.85	7.472e-06	4.48e-07
0.0383	0.0191	313.15	7.601e-06	4.56e-07
0.0383	0.0191	314.95	7.743e-06	4.65e-07
0.0383	0.0191	317.75	8.362e-06	5.02e-07
0.0383	0.0191	319.35	8.436e-06	5.06e-07
0.0383	0.0191	321.75	8.567e-06	5.14e-07
0.0383	0.0191	322.75	8.646e-06	5.19e-07
0.0383	0.0191	325.15	8.735e-06	5.24e-07
0.0383	0.0191	327.15	8.843e-06	5.31e-07
0.0383	0.0191	330.35	8.945e-06	5.37e-07
0.0383	0.0191	332.15	9.054e-06	5.43e-07
0.0383	0.0191	333.85	9.085e-06	5.45e-07
0.0383	0.0191	335.95	9.17e-06	5.5e-07
0.0383	0.0191	336.95	9.234e-06	5.54e-07
0.0383	0.0191	337.65	9.263e-06	5.56e-07
0.0383	0.0191	338.85	9.289e-06	5.57e-07

System: butan-1-ol + 1-aza-2-cycloheptanone + tetrabutylammonium bromide; phases: Liquid
Fixed: Pressure, kPa = 101
Property: Electrical conductivity, S/m (Liquid); method: Shanghai Precision & Scientific Instrument Co., LTD (DDS-307)
Mole fraction of 1-aza-2-cycloheptanone	Mole fraction of tetrabutylammonium bromide	Temperature, K	Electrical conductivity, S/m	uncertainty
0.000305	0.000152	290.45	1.478e-07	2e-07
0.000305	0.000152	293.35	1.502e-07	2e-07
0.000305	0.000152	294.75	1.511e-07	2e-07
0.000305	0.000152	296.55	1.531e-07	2e-07
0.000305	0.000152	298.45	1.539e-07	2e-07
0.000305	0.000152	300.45	1.556e-07	2e-07
0.000305	0.000152	302.35	1.571e-07	2e-07
0.000305	0.000152	304.45	1.578e-07	2e-07
0.000305	0.000152	306.55	1.592e-07	2e-07
0.000305	0.000152	308.85	1.604e-07	2e-07
0.000305	0.000152	310.65	1.615e-07	2e-07
0.000305	0.000152	312.65	1.631e-07	2e-07
0.000305	0.000152	314.95	1.638e-07	2e-07
0.000305	0.000152	316.85	1.646e-07	2e-07
0.000305	0.000152	318.85	1.653e-07	2e-07
0.000305	0.000152	320.95	1.662e-07	2e-07
0.000305	0.000152	322.75	1.669e-07	2e-07
0.000305	0.000152	325.35	1.677e-07	2e-07
0.000305	0.000152	327.85	1.688e-07	2e-07
0.000305	0.000152	331.25	1.689e-07	2e-07
0.000305	0.000152	333.15	1.69e-07	2e-07
0.000305	0.000152	336.25	1.689e-07	2e-07
0.000305	0.000152	338.55	1.69e-07	2e-07
0.00122	0.00061	289.75	3.582e-07	2e-07
0.00122	0.00061	291.85	3.604e-07	2e-07
0.00122	0.00061	296.45	3.636e-07	2e-07
0.00122	0.00061	297.85	3.662e-07	2e-07
0.00122	0.00061	299.65	3.653e-07	2e-07
0.00122	0.00061	301.85	3.678e-07	2e-07
0.00122	0.00061	304.05	3.679e-07	2e-07
0.00122	0.00061	306.15	3.692e-07	2e-07
0.00122	0.00061	308.35	3.706e-07	2e-07
0.00122	0.00061	310.65	3.72e-07	2e-07
0.00122	0.00061	312.75	3.748e-07	2e-07
0.00122	0.00061	314.95	3.752e-07	2e-07
0.00122	0.00061	316.95	3.774e-07	2e-07
0.00122	0.00061	319.05	3.789e-07	2e-07
0.00122	0.00061	321.05	3.801e-07	2e-07
0.00122	0.00061	322.75	3.815e-07	2e-07
0.00122	0.00061	324.75	3.82e-07	2e-07
0.00122	0.00061	326.45	3.834e-07	2e-07
0.00122	0.00061	328.35	3.848e-07	2e-07
0.00485	0.00242	291.15	9.617e-07	2e-07
0.00485	0.00242	291.45	9.63e-07	2e-07
0.00485	0.00242	293.75	9.726e-07	2e-07
0.00485	0.00242	295.25	9.81e-07	2e-07
0.00485	0.00242	297.35	9.919e-07	2e-07
0.00485	0.00242	299.45	9.961e-07	2e-07
0.00485	0.00242	301.65	1.004e-06	2e-07
0.00485	0.00242	303.85	1.009e-06	2e-07
0.00485	0.00242	306.95	1.019e-06	2e-07
0.00485	0.00242	308.35	1.025e-06	2e-07
0.00485	0.00242	310.75	1.033e-06	2e-07
0.00485	0.00242	313.25	1.042e-06	2e-07
0.00485	0.00242	315.55	1.049e-06	2e-07
0.00485	0.00242	318.55	1.056e-06	2e-07
0.00485	0.00242	322.15	1.066e-06	2e-07
0.00485	0.00242	324.85	1.069e-06	2e-07
0.00485	0.00242	327.35	1.072e-06	2e-07
0.00485	0.00242	329.65	1.074e-06	2e-07
0.00485	0.00242	331.85	1.075e-06	2e-07
0.0178	0.0089	293.95	2.03e-06	2e-07
0.0178	0.0089	294.95	2.083e-06	2e-07
0.0178	0.0089	297.35	2.153e-06	2e-07
0.0178	0.0089	299.95	2.331e-06	2e-07
0.0178	0.0089	301.45	2.379e-06	2e-07
0.0178	0.0089	302.85	2.399e-06	2e-07
0.0178	0.0089	304.75	2.429e-06	2e-07
0.0178	0.0089	306.95	2.47e-06	2e-07
0.0178	0.0089	309.25	2.5e-06	2e-07
0.0178	0.0089	311.15	2.528e-06	2e-07
0.0178	0.0089	312.85	2.548e-06	2e-07
0.0178	0.0089	314.85	2.571e-06	2e-07
0.0178	0.0089	316.75	2.606e-06	2e-07
0.0178	0.0089	318.95	2.627e-06	2e-07
0.0178	0.0089	320.55	2.641e-06	2e-07
0.0178	0.0089	322.45	2.668e-06	2e-07
0.0178	0.0089	324.35	2.67e-06	2e-07
0.0178	0.0089	327.75	2.716e-06	2e-07
0.0178	0.0089	329.15	2.719e-06	2e-07
0.0178	0.0089	331.85	2.745e-06	2e-07
0.0178	0.0089	333.35	2.759e-06	2e-07
0.0178	0.0089	335.65	2.754e-06	2e-07
0.0178	0.0089	337.35	2.775e-06	2e-07
0.0178	0.0089	339.15	2.775e-06	2e-07
0.0455	0.0227	292.55	5.056e-06	3.03e-07
0.0455	0.0227	295.05	5.107e-06	3.06e-07
0.0455	0.0227	298.45	5.198e-06	3.12e-07
0.0455	0.0227	300.35	5.249e-06	3.15e-07
0.0455	0.0227	302.35	5.314e-06	3.19e-07
0.0455	0.0227	305.15	5.36e-06	3.2e-07
0.0455	0.0227	307.35	5.43e-06	3.3e-07
0.0455	0.0227	309.75	5.471e-06	3.28e-07
0.0455	0.0227	311.55	5.536e-06	3.32e-07
0.0455	0.0227	313.65	5.595e-06	3.36e-07
0.0455	0.0227	316.55	5.702e-06	3.42e-07
0.0455	0.0227	318.55	5.766e-06	3.46e-07
0.0455	0.0227	320.45	5.836e-06	3.5e-07
0.0455	0.0227	322.15	5.904e-06	3.54e-07
0.0455	0.0227	324.45	5.97e-06	3.6e-07
0.0455	0.0227	327.75	6.124e-06	3.67e-07
0.0455	0.0227	329.45	6.156e-06	3.69e-07
0.0455	0.0227	330.95	6.226e-06	3.74e-07
0.0455	0.0227	332.35	6.75e-06	4.1e-07
0.0455	0.0227	335.15	6.848e-06	4.11e-07
0.0455	0.0227	337.35	6.948e-06	4.17e-07
0.0455	0.0227	339.55	7.019e-06	4.21e-07
0.0455	0.0227	341.15	7.084e-06	4.25e-07
0.0455	0.0227	343.65	7.183e-06	4.31e-07
