Measured thermophysical data. Physico-Chemical Properties of Non-Newtonian Shear Thickening Diisopropyl-ethylammonium-Based Protic Ionic Liquids and Their Mixtures with Water and Acetonitrile
Source: J. Chem. Eng. Data, 2011, 10.1021/je101191e
Compound 1: N-ethyl-N-isopropylpropan-2-aminium heptanoate, C15H33NO2, InChI=1S/C8H19N.C7H14O2/c1-6-9(7(2)3)8(4)5;1-2-3-4-5-6-7(8)9/h7-8H,6H2,1-5H3;2-6H2,1H3,(H,8,9)
Compound 2: N-ethyl-N-isopropylpropan-2-aminium octanoate, C16H35NO2, InChI=1S/C8H19N.C8H16O2/c1-6-9(7(2)3)8(4)5;1-2-3-4-5-6-7-8(9)10/h7-8H,6H2,1-5H3;2-7H2,1H3,(H,9,10)
Compound 3: water, H2O, InChI=1S/H2O/h1H2
Compound 4: acetonitrile, C2H3N, InChI=1S/C2H3N/c1-2-3/h1H3, purity 99%
Compound 5: N-ethyl-N-(1-methylethyl)-1-methylethanamine, C8H19N, InChI=1S/C8H19N/c1-6-9(7(2)3)8(4)5/h7-8H,6H2,1-5H3, purity 99%
Compound 6: heptanoic acid, C7H14O2, InChI=1S/C7H14O2/c1-2-3-4-5-6-7(8)9/h2-6H2,1H3,(H,8,9), purity 98%
Compound 7: octanoic acid, C8H16O2, InChI=1S/C8H16O2/c1-2-3-4-5-6-7-8(9)10/h2-7H2,1H3,(H,9,10), purity 98%

System: N-ethyl-N-(1-methylethyl)-1-methylethanamine; phases: Liquid
Property: Mass density, kg/m3 (Liquid); method: Pycnometric method
Temperature, K	Pressure, kPa	Mass density, kg/m3	uncertainty
298.15	101.325	742	3

System: heptanoic acid; phases: Liquid
Property: Mass density, kg/m3 (Liquid); method: Pycnometric method
Temperature, K	Pressure, kPa	Mass density, kg/m3	uncertainty
298.15	101.325	918	3.8

System: octanoic acid; phases: Liquid
Property: Mass density, kg/m3 (Liquid); method: Pycnometric method
Temperature, K	Pressure, kPa	Mass density, kg/m3	uncertainty
298.15	101.325	910	3.7

System: water + N-ethyl-N-isopropylpropan-2-aminium heptanoate; phases: Liquid
Fixed: Temperature, K = 298.15
Fixed: Pressure, kPa = 101.3
Property: Viscosity, Pa*s (Liquid); method: Concentric cylinders viscometry
Mole fraction of N-ethyl-N-isopropylpropan-2-aminium heptanoate	Viscosity, Pa*s	uncertainty
0	0.000891	5.4e-05
0.1	0.02199	0.00132
0.2	0.04371	0.00263
0.3	0.04158	0.00251
0.4	0.03151	0.0019
0.5	0.02692	0.00163
0.6	0.02365	0.00144
0.7	0.02267	0.00138
0.8	0.01807	0.00111
0.9	0.01444	0.00089
1	0.01223	0.00076

System: water + N-ethyl-N-isopropylpropan-2-aminium heptanoate; phases: Liquid
Fixed: Temperature, K = 298.15
Fixed: Pressure, kPa = 101.3
Property: Mass density, kg/m3 (Liquid); method: Pycnometric method
Mole fraction of N-ethyl-N-isopropylpropan-2-aminium heptanoate	Mass density, kg/m3	uncertainty
0	997	4
0.0998	966.3	3.9
0.198	936.2	3.8
0.299	913.6	3.7
0.4007	900.3	3.6
0.5007	889.9	3.6
0.5941	884	3.6
0.6913	877.2	3.6
0.7896	872.6	3.6
0.9014	869.5	3.7
1	866.5	3.8

System: water + N-ethyl-N-isopropylpropan-2-aminium octanoate; phases: Liquid
Fixed: Temperature, K = 298.15
Fixed: Pressure, kPa = 101.3
Property: Viscosity, Pa*s (Liquid); method: Concentric cylinders viscometry
Mole fraction of N-ethyl-N-isopropylpropan-2-aminium octanoate	Viscosity, Pa*s	uncertainty
0	0.000891	5.4e-05
0.1	0.03661	0.0022
0.2	0.05236	0.00315
0.3	0.04239	0.00256
0.4	0.03219	0.00195
0.5	0.02762	0.00167
0.6	0.02619	0.00159
0.7	0.02129	0.0013
0.8	0.01805	0.00111
0.9	0.01665	0.00103
1	0.01352	0.00084

System: water + N-ethyl-N-isopropylpropan-2-aminium octanoate; phases: Liquid
Fixed: Temperature, K = 298.15
Fixed: Pressure, kPa = 101.3
Property: Mass density, kg/m3 (Liquid); method: Pycnometric method
Mole fraction of N-ethyl-N-isopropylpropan-2-aminium octanoate	Mass density, kg/m3	uncertainty
0	997	4
0.0948	955.1	3.8
0.193	927.3	3.7
0.2908	905.7	3.7
0.3981	890.6	3.6
0.505	877.4	3.6
0.5846	872.2	3.6
0.6749	867.2	3.6
0.7994	862.9	3.6
0.86	861	3.6
1	858.5	3.7

System: acetonitrile + N-ethyl-N-isopropylpropan-2-aminium heptanoate; phases: Liquid
Fixed: Temperature, K = 298.15
Fixed: Pressure, kPa = 101.3
Property: Viscosity, Pa*s (Liquid); method: Concentric cylinders viscometry
Mole fraction of N-ethyl-N-isopropylpropan-2-aminium heptanoate	Viscosity, Pa*s	uncertainty
0	0.000335	2.1e-05
0.1	0.00109	6.6e-05
0.2	0.001826	0.000111
0.3	0.00251	0.000152
0.4	0.003875	0.000236
0.5	0.005158	0.000314
0.6	0.007013	0.000429
0.7	0.009	0.000552
0.8	0.0116	0.00071
0.9	0.0135	0.00083
1	0.01223	0.00076

System: acetonitrile + N-ethyl-N-isopropylpropan-2-aminium heptanoate; phases: Liquid
Fixed: Temperature, K = 298.15
Fixed: Pressure, kPa = 101.3
Property: Mass density, kg/m3 (Liquid); method: Pycnometric method
Mole fraction of N-ethyl-N-isopropylpropan-2-aminium heptanoate	Mass density, kg/m3	uncertainty
0	768.6	3.1
0.1016	820.6	3.3
0.2003	840.8	3.4
0.3046	849.7	3.5
0.402	853.8	3.5
0.5021	857.1	3.5
0.6083	859.8	3.6
0.705	862.3	3.6
0.8013	863.9	3.6
0.9013	865.4	3.7
1	866.5	3.8

System: acetonitrile + N-ethyl-N-isopropylpropan-2-aminium octanoate; phases: Liquid
Fixed: Temperature, K = 298.15
Fixed: Pressure, kPa = 101.3
Property: Viscosity, Pa*s (Liquid); method: Concentric cylinders viscometry
Mole fraction of N-ethyl-N-isopropylpropan-2-aminium octanoate	Viscosity, Pa*s	uncertainty
0	0.000335	2.1e-05
0.1	0.001291	7.8e-05
0.2	0.001947	0.000118
0.3	0.002865	0.000174
0.4	0.004921	0.000299
0.5	0.006897	0.00042
0.6	0.008725	0.000533
0.7	0.011	0.00067
0.8	0.01331	0.00082
0.9	0.01482	0.00091
1	0.01352	0.00084

System: acetonitrile + N-ethyl-N-isopropylpropan-2-aminium octanoate; phases: Liquid
Fixed: Temperature, K = 298.15
Fixed: Pressure, kPa = 101.3
Property: Mass density, kg/m3 (Liquid); method: Pycnometric method
Mole fraction of N-ethyl-N-isopropylpropan-2-aminium octanoate	Mass density, kg/m3	uncertainty
0	768.6	3.1
0.0948	815.2	3.3
0.193	834.3	3.4
0.2908	842.2	3.4
0.3981	847.3	3.5
0.505	850	3.5
0.5846	852	3.5
0.6749	853.3	3.5
0.7994	855.8	3.6
0.86	856.5	3.6
1	858.5	3.7
