Measured thermophysical data. Vapor-Liquid Equilibria, Density, and Speed of Sound of Aqueous Solutions of Sodium Dihydrogen Citrate or Disodium Hydrogen Citrate
Source: J. Chem. Eng. Data, 2010, 10.1021/je100864e
Compound 1: disodium hydrogen citrate, C6H6Na2O7, InChI=1S/C6H8O7.2Na/c7-3(8)1-6(13,5(11)12)2-4(9)10;;/h13H,1-2H2,(H,7,8)(H,9,10)(H,11,12);;/q;2*+1/p-2
Compound 2: sodium dihydrogen citrate, C6H7NaO7, InChI=1S/C6H8O7.Na/c7-3(8)1-6(13,5(11)12)2-4(9)10;/h13H,1-2H2,(H,7,8)(H,9,10)(H,11,12);/q;+1/p-1
Compound 3: water, H2O, InChI=1S/H2O/h1H2

System: disodium hydrogen citrate + water; phases: Liquid, Gas
Fixed: Temperature, K = 298.15
Property: Osmotic coefficient (Liquid); method: ISOPIE
Molality, mol/kg of disodium hydrogen citrate	Osmotic coefficient	uncertainty
0.2817	0.806	0.01
0.2939	0.792	0.01
0.3096	0.77	0.012
0.3227	0.773	0.011
0.3856	0.759	0.012
0.4011	0.753	0.012
0.4258	0.75	0.013
0.4592	0.724	0.014
0.4761	0.726	0.014
0.4822	0.728	0.014
0.5501	0.714	0.014
0.6381	0.71	0.015
0.6827	0.706	0.015
0.6915	0.705	0.015
0.6951	0.707	0.015
0.6997	0.708	0.015
1.0183	0.689	0.016
1.09	0.688	0.016
1.1069	0.682	0.016
1.2465	0.688	0.016
1.3292	0.682	0.016
1.5788	0.694	0.015
1.6352	0.694	0.015
1.6586	0.69	0.016
1.7309	0.69	0.016
1.788	0.701	0.015
1.928	0.702	0.015
1.9336	0.693	0.015
1.9996	0.704	0.015
2.3273	0.711	0.014
2.3928	0.712	0.014
2.4387	0.711	0.014

System: disodium hydrogen citrate + water; phases: Liquid, Gas
Fixed: Temperature, K = 298.15
Property: (Relative) activity of water (Liquid); method: isopiestic
Molality, mol/kg of disodium hydrogen citrate	(Relative) activity of water	uncertainty
0.2817	0.9878	0.0004
0.2939	0.9875	0.0004
0.3096	0.9872	0.0004
0.3227	0.9866	0.0004
0.3856	0.9843	0.0004
0.4011	0.9838	0.0004
0.4258	0.9829	0.0004
0.4592	0.9822	0.0004
0.4761	0.9815	0.0004
0.4822	0.9812	0.0004
0.5501	0.979	0.0004
0.6381	0.9758	0.0004
0.6827	0.9743	0.0004
0.6915	0.974	0.0004
0.6951	0.9738	0.0004
0.6997	0.9736	0.0004
1.0183	0.9628	0.0004
1.09	0.9603	0.0004
1.1069	0.96	0.0004
1.2465	0.9547	0.0004
1.3292	0.9522	0.0004
1.5788	0.9425	0.0004
1.6352	0.9405	0.0004
1.6586	0.94	0.0004
1.7309	0.9375	0.0004
1.788	0.9345	0.0004
1.928	0.9295	0.0004
1.9336	0.9301	0.0004
1.9996	0.9267	0.0004
2.3273	0.9145	0.0004
2.3928	0.912	0.0004
2.4387	0.9105	0.0004

System: disodium hydrogen citrate + water; phases: Liquid
Fixed: Pressure, kPa = 101
Property: Speed of sound, m/s (Liquid); method: Pulse-echo method
Temperature, K	Mole fraction of disodium hydrogen citrate	Speed of sound, m/s	uncertainty
288.15	0	1466.25	0.8
288.15	0.0095	1468.24	0.8
288.15	0.0114	1468.58	0.8
288.15	0.0133	1468.97	0.8
288.15	0.015	1469.21	0.8
288.15	0.0172	1469.62	0.8
288.15	0.0187	1469.9	0.8
288.15	0.021	1470.31	0.8
288.15	0.0229	1470.57	0.8
288.15	0.0267	1471.14	0.8
288.15	0.0307	1471.86	0.8
288.15	0.0344	1472.45	0.8
288.15	0.0374	1473.03	0.8
288.15	0.057	1476.32	0.81
288.15	0.0771	1479.59	0.81
288.15	0.0953	1482.49	0.81
288.15	0.1157	1485.72	0.82
288.15	0.1332	1488.43	0.82
288.15	0.1542	1491.62	0.83
288.15	0.1773	1495.12	0.83
288.15	0.1964	1497.99	0.84
288.15	0.2144	1500.72	0.85
288.15	0.2229	1502.02	0.85
288.15	0.2509	1506.17	0.86
288.15	0.283	1510.93	0.87
288.15	0.2965	1512.87	0.87
288.15	0.3375	1518.89	0.89
293.15	0	1482.66	0.8
293.15	0.0095	1484.28	0.8
293.15	0.0114	1484.59	0.8
293.15	0.0133	1484.95	0.8
293.15	0.015	1485.2	0.8
293.15	0.0172	1485.58	0.8
293.15	0.0187	1485.83	0.8
293.15	0.021	1486.22	0.8
293.15	0.0229	1486.49	0.8
293.15	0.0267	1487.08	0.8
293.15	0.0307	1487.76	0.8
293.15	0.0344	1488.35	0.8
293.15	0.0374	1488.87	0.8
293.15	0.057	1491.99	0.8
293.15	0.0771	1495.12	0.81
293.15	0.0953	1497.89	0.81
293.15	0.1157	1500.98	0.82
293.15	0.1332	1503.58	0.82
293.15	0.1542	1506.55	0.83
293.15	0.1773	1509.96	0.83
293.15	0.1964	1512.75	0.84
293.15	0.2144	1515.35	0.84
293.15	0.2229	1516.61	0.85
293.15	0.2509	1520.61	0.86
293.15	0.283	1525.17	0.87
293.15	0.2965	1527.03	0.87
293.15	0.3375	1532.8	0.9
298.15	0	1497	0.79
298.15	0.0095	1498.47	0.79
298.15	0.0114	1498.78	0.79
298.15	0.0133	1499.12	0.79
298.15	0.015	1499.34	0.79
298.15	0.0172	1499.72	0.79
298.15	0.0187	1499.94	0.79
298.15	0.021	1500.33	0.79
298.15	0.0229	1500.59	0.79
298.15	0.0267	1501.14	0.79
298.15	0.0307	1501.79	0.79
298.15	0.0344	1502.35	0.79
298.15	0.0374	1502.86	0.79
298.15	0.057	1505.81	0.8
298.15	0.0771	1508.8	0.8
298.15	0.0953	1511.45	0.8
298.15	0.1157	1514.42	0.81
298.15	0.1332	1516.89	0.81
298.15	0.1542	1519.76	0.82
298.15	0.1773	1523.04	0.83
298.15	0.1964	1525.7	0.83
298.15	0.2144	1528.22	0.84
298.15	0.2229	1529.41	0.84
298.15	0.2509	1533.24	0.85
298.15	0.283	1537.59	0.86
298.15	0.2965	1539.39	0.87
298.15	0.3375	1544.92	0.88
303.15	0	1509.44	0.78
303.15	0.0095	1510.77	0.78
303.15	0.0114	1511.07	0.78
303.15	0.0133	1511.38	0.78
303.15	0.015	1511.62	0.78
303.15	0.0172	1511.95	0.78
303.15	0.0187	1512.18	0.78
303.15	0.021	1512.55	0.78
303.15	0.0229	1512.8	0.78
303.15	0.0267	1513.35	0.79
303.15	0.0307	1513.96	0.79
303.15	0.0344	1514.51	0.79
303.15	0.0374	1514.97	0.79
303.15	0.057	1517.84	0.79
303.15	0.0771	1520.7	0.79
303.15	0.0953	1523.27	0.8
303.15	0.1157	1526.09	0.8
303.15	0.1332	1528.48	0.81
303.15	0.1542	1531.25	0.81
303.15	0.1773	1534.36	0.82
303.15	0.1964	1536.92	0.83
303.15	0.2144	1539.32	0.83
303.15	0.2229	1540.47	0.84
303.15	0.2509	1544.12	0.85
303.15	0.283	1548.29	0.86
303.15	0.2965	1550.02	0.86
303.15	0.3375	1555.32	0.88
308.15	0	1520.12	0.78
308.15	0.0095	1521.44	0.78
308.15	0.0114	1521.69	0.78
308.15	0.0133	1521.98	0.78
308.15	0.015	1522.22	0.78
308.15	0.0172	1522.54	0.78
308.15	0.0187	1522.76	0.78
308.15	0.021	1523.1	0.78
308.15	0.0229	1523.35	0.78
308.15	0.0267	1523.88	0.78
308.15	0.0307	1524.47	0.78
308.15	0.0344	1525	0.79
308.15	0.0374	1525.44	0.79
308.15	0.057	1528.19	0.79
308.15	0.0771	1530.94	0.79
308.15	0.0953	1533.38	0.8
308.15	0.1157	1536.09	0.8
308.15	0.1332	1538.39	0.81
308.15	0.1542	1541.05	0.81
308.15	0.1773	1544.02	0.82
308.15	0.1964	1546.48	0.83
308.15	0.2144	1548.79	0.83
308.15	0.2229	1549.89	0.83
308.15	0.2509	1553.4	0.84
308.15	0.283	1557.41	0.86
308.15	0.2965	1559.07	0.86
308.15	0.3375	1564.17	0.88

System: disodium hydrogen citrate + water; phases: Liquid
Fixed: Pressure, kPa = 101
Property: Mass density, kg/m3 (Liquid); method: VIBTUB:UFactor:6
Temperature, K	Molality, mol/kg of disodium hydrogen citrate	Mass density, kg/m3	uncertainty
288.15	0	999.099	0.244
288.15	0.0095	1000.549	0.244
288.15	0.0114	1000.839	0.244
288.15	0.0133	1001.129	0.244
288.15	0.015	1001.384	0.243
288.15	0.0172	1001.709	0.243
288.15	0.0187	1001.928	0.246
288.15	0.021	1002.285	0.246
288.15	0.0229	1002.564	0.244
288.15	0.0267	1003.125	0.247
288.15	0.0307	1003.729	0.248
288.15	0.0344	1004.28	0.249
288.15	0.0374	1004.732	0.251
288.15	0.057	1007.641	0.254
288.15	0.0771	1010.578	0.259
288.15	0.0953	1013.222	0.264
288.15	0.1157	1016.162	0.27
288.15	0.1332	1018.672	0.274
288.15	0.1542	1021.643	0.28
288.15	0.1773	1024.897	0.286
288.15	0.1964	1027.565	0.291
288.15	0.2144	1030.073	0.297
288.15	0.2229	1031.249	0.298
288.15	0.2509	1035.092	0.306
288.15	0.283	1039.466	0.316
288.15	0.2965	1041.296	0.319
288.15	0.3375	1046.821	0.332
293.15	0	998.203	0.251
293.15	0.0095	999.632	0.274
293.15	0.0114	999.92	0.242
293.15	0.0133	1000.206	0.24
293.15	0.015	1000.457	0.243
293.15	0.0172	1000.78	0.237
293.15	0.0187	1000.992	0.247
293.15	0.021	1001.347	0.243
293.15	0.0229	1001.623	0.245
293.15	0.0267	1002.177	0.244
293.15	0.0307	1002.772	0.245
293.15	0.0344	1003.318	0.246
293.15	0.0374	1003.764	0.232
293.15	0.057	1006.634	0.252
293.15	0.0771	1009.538	0.256
293.15	0.0953	1012.153	0.261
293.15	0.1157	1015.055	0.267
293.15	0.1332	1017.537	0.271
293.15	0.1542	1020.481	0.277
293.15	0.1773	1023.696	0.283
293.15	0.1964	1026.334	0.288
293.15	0.2144	1028.813	0.293
293.15	0.2229	1029.972	0.296
293.15	0.2509	1033.78	0.303
293.15	0.283	1038.111	0.312
293.15	0.2965	1039.924	0.316
293.15	0.3375	1045.394	0.328
298.15	0	997.043	0.251
298.15	0.0095	998.455	0.272
298.15	0.0114	998.74	0.244
298.15	0.0133	999.021	0.241
298.15	0.015	999.268	0.242
298.15	0.0172	999.588	0.236
298.15	0.0187	999.8	0.245
298.15	0.021	1000.15	0.24
298.15	0.0229	1000.422	0.242
298.15	0.0267	1000.97	0.241
298.15	0.0307	1001.56	0.243
298.15	0.0344	1002.099	0.243
298.15	0.0374	1002.539	0.231
298.15	0.057	1005.379	0.249
298.15	0.0771	1008.253	0.254
298.15	0.0953	1010.839	0.258
298.15	0.1157	1013.714	0.264
298.15	0.1332	1016.168	0.268
298.15	0.1542	1019.085	0.274
298.15	0.1773	1022.265	0.28
298.15	0.1964	1024.877	0.285
298.15	0.2144	1027.334	0.29
298.15	0.2229	1028.484	0.292
298.15	0.2509	1032.256	0.3
298.15	0.283	1036.548	0.309
298.15	0.2965	1038.343	0.313
298.15	0.3375	1043.766	0.324
303.15	0	995.645	0.253
303.15	0.0095	997.044	0.271
303.15	0.0114	997.324	0.246
303.15	0.0133	997.605	0.244
303.15	0.015	997.849	0.244
303.15	0.0172	998.164	0.239
303.15	0.0187	998.374	0.246
303.15	0.021	998.719	0.242
303.15	0.0229	998.99	0.243
303.15	0.0267	999.532	0.24
303.15	0.0307	1000.116	0.24
303.15	0.0344	1000.65	0.24
303.15	0.0374	1001.087	0.228
303.15	0.057	1003.899	0.246
303.15	0.0771	1006.746	0.25
303.15	0.0953	1009.308	0.255
303.15	0.1157	1012.157	0.26
303.15	0.1332	1014.588	0.265
303.15	0.1542	1017.479	0.27
303.15	0.1773	1020.631	0.276
303.15	0.1964	1023.222	0.282
303.15	0.2144	1025.657	0.286
303.15	0.2229	1026.798	0.289
303.15	0.2509	1030.539	0.296
303.15	0.283	1034.797	0.305
303.15	0.2965	1036.577	0.309
303.15	0.3375	1041.957	0.32
308.15	0	994.029	0.251
308.15	0.0095	995.414	0.249
308.15	0.0114	995.691	0.248
308.15	0.0133	995.97	0.247
308.15	0.015	996.213	0.245
308.15	0.0172	996.524	0.244
308.15	0.0187	996.735	0.246
308.15	0.021	997.077	0.245
308.15	0.0229	997.344	0.242
308.15	0.0267	997.881	0.243
308.15	0.0307	998.461	0.242
308.15	0.0344	998.99	0.241
308.15	0.0374	999.421	0.24
308.15	0.057	1002.212	0.242
308.15	0.0771	1005.035	0.247
308.15	0.0953	1007.575	0.251
308.15	0.1157	1010.401	0.257
308.15	0.1332	1012.815	0.261
308.15	0.1542	1015.682	0.266
308.15	0.1773	1018.81	0.272
308.15	0.1964	1021.378	0.278
308.15	0.2144	1023.798	0.283
308.15	0.2229	1024.927	0.284
308.15	0.2509	1028.639	0.292
308.15	0.283	1032.867	0.301
308.15	0.2965	1034.635	0.305
308.15	0.3375	1039.976	0.316

System: water + sodium dihydrogen citrate; phases: Liquid, Gas
Fixed: Temperature, K = 298.15
Property: Osmotic coefficient (Liquid); method: ISOPIE
Molality, mol/kg of sodium dihydrogen citrate	Osmotic coefficient	uncertainty
0.3252	0.849	0.008
0.4619	0.829	0.009
0.5944	0.82	0.009
0.7158	0.803	0.01
0.7377	0.81	0.01
0.7458	0.805	0.01
0.7565	0.801	0.01
0.7666	0.798	0.01
0.78	0.81	0.01
0.9089	0.801	0.01
1.0963	0.813	0.009

System: water + sodium dihydrogen citrate; phases: Liquid, Gas
Fixed: Temperature, K = 298.15
Property: (Relative) activity of water (Liquid); method: isopiestic
Molality, mol/kg of sodium dihydrogen citrate	(Relative) activity of water	uncertainty
0.3252	0.9901	0.0004
0.4619	0.9863	0.0004
0.5944	0.9826	0.0004
0.7158	0.9795	0.0004
0.7377	0.9787	0.0004
0.7458	0.9786	0.0004
0.7565	0.9784	0.0004
0.7666	0.9782	0.0004
0.78	0.9775	0.0004
0.9089	0.9741	0.0004
1.0963	0.9684	0.0004

System: water + sodium dihydrogen citrate; phases: Liquid
Fixed: Pressure, kPa = 101
Property: Speed of sound, m/s (Liquid); method: Pulse-echo method
Temperature, K	Molality, mol/kg of sodium dihydrogen citrate	Speed of sound, m/s	uncertainty
288.15	0.0093	1467.66	0.8
288.15	0.0117	1467.93	0.8
288.15	0.0125	1467.95	0.8
288.15	0.0138	1468.14	0.8
288.15	0.0155	1468.32	0.8
288.15	0.0163	1468.43	0.8
288.15	0.0187	1468.69	0.8
288.15	0.0202	1468.9	0.8
288.15	0.0209	1468.91	0.8
288.15	0.024	1469.26	0.8
288.15	0.0279	1469.76	0.8
288.15	0.0327	1470.18	0.8
288.15	0.0376	1470.76	0.8
288.15	0.0409	1471.11	0.8
288.15	0.047	1471.8	0.8
288.15	0.0681	1473.99	0.8
288.15	0.0937	1476.78	0.8
288.15	0.1194	1479.51	0.8
288.15	0.144	1482.03	0.8
288.15	0.1678	1484.56	0.8
288.15	0.1911	1486.98	0.8
288.15	0.2165	1489.46	0.8
288.15	0.2412	1492	0.8
288.15	0.2934	1497.28	0.8
288.15	0.3205	1499.95	0.8
288.15	0.3395	1501.78	0.8
288.15	0.3728	1505.07	0.81
288.15	0.3936	1507.06	0.81
293.15	0.0093	1483.68	0.8
293.15	0.0117	1483.91	0.8
293.15	0.0125	1483.98	0.8
293.15	0.0138	1484.14	0.8
293.15	0.0155	1484.32	0.8
293.15	0.0163	1484.41	0.8
293.15	0.0187	1484.69	0.8
293.15	0.0202	1484.8	0.8
293.15	0.0209	1484.88	0.8
293.15	0.024	1485.22	0.8
293.15	0.0279	1485.64	0.8
293.15	0.0327	1486.05	0.8
293.15	0.0376	1486.59	0.8
293.15	0.0409	1486.94	0.8
293.15	0.047	1487.56	0.8
293.15	0.0681	1489.69	0.8
293.15	0.0937	1492.28	0.8
293.15	0.1194	1494.84	0.8
293.15	0.144	1497.24	0.8
293.15	0.1678	1499.56	0.8
293.15	0.1911	1501.81	0.8
293.15	0.2165	1504.12	0.8
293.15	0.2412	1506.5	0.8
293.15	0.2934	1511.48	0.8
293.15	0.3205	1513.99	0.8
293.15	0.3395	1515.75	0.8
293.15	0.3728	1518.84	0.8
293.15	0.3936	1520.74	0.81
298.15	0.0093	1497.87	0.79
298.15	0.0117	1498.11	0.79
298.15	0.0125	1498.15	0.79
298.15	0.0138	1498.33	0.79
298.15	0.0155	1498.48	0.79
298.15	0.0163	1498.55	0.79
298.15	0.0187	1498.8	0.79
298.15	0.0202	1498.91	0.79
298.15	0.0209	1499.01	0.79
298.15	0.024	1499.31	0.79
298.15	0.0279	1499.7	0.79
298.15	0.0327	1500.09	0.79
298.15	0.0376	1500.61	0.79
298.15	0.0409	1500.93	0.79
298.15	0.047	1501.51	0.79
298.15	0.0681	1503.5	0.79
298.15	0.0937	1505.92	0.79
298.15	0.1194	1508.31	0.79
298.15	0.144	1510.55	0.79
298.15	0.1678	1512.73	0.79
298.15	0.1911	1514.86	0.79
298.15	0.2165	1517.01	0.79
298.15	0.2412	1519.27	0.79
298.15	0.2934	1523.96	0.8
298.15	0.3205	1526.34	0.8
298.15	0.3395	1528	0.8
298.15	0.3728	1530.9	0.8
298.15	0.3936	1532.68	0.8
303.15	0.0093	1510.2	0.78
303.15	0.0117	1510.41	0.78
303.15	0.0125	1510.51	0.78
303.15	0.0138	1510.61	0.78
303.15	0.0155	1510.76	0.78
303.15	0.0163	1510.83	0.78
303.15	0.0187	1511.05	0.78
303.15	0.0202	1511.18	0.78
303.15	0.0209	1511.26	0.78
303.15	0.024	1511.55	0.78
303.15	0.0279	1511.89	0.78
303.15	0.0327	1512.3	0.78
303.15	0.0376	1512.74	0.78
303.15	0.0409	1513.1	0.78
303.15	0.047	1513.61	0.78
303.15	0.0681	1515.48	0.78
303.15	0.0937	1517.76	0.78
303.15	0.1194	1520	0.78
303.15	0.144	1522.12	0.79
303.15	0.1678	1524.18	0.79
303.15	0.1911	1526.16	0.79
303.15	0.2165	1528.24	0.79
303.15	0.2412	1530.34	0.79
303.15	0.2934	1534.74	0.79
303.15	0.3205	1536.99	0.79
303.15	0.3395	1538.53	0.79
303.15	0.3728	1541.23	0.79
303.15	0.3936	1542.92	0.79
308.15	0.0093	1520.82	0.78
308.15	0.0117	1521.03	0.78
308.15	0.0125	1521.11	0.78
308.15	0.0138	1521.21	0.78
308.15	0.0155	1521.36	0.78
308.15	0.0163	1521.43	0.78
308.15	0.0187	1521.64	0.78
308.15	0.0202	1521.76	0.78
308.15	0.0209	1521.83	0.78
308.15	0.024	1522.1	0.78
308.15	0.0279	1522.43	0.78
308.15	0.0327	1522.79	0.78
308.15	0.0376	1523.22	0.78
308.15	0.0409	1523.54	0.78
308.15	0.047	1524.05	0.78
308.15	0.0681	1525.8	0.78
308.15	0.0937	1527.94	0.78
308.15	0.1194	1530.06	0.78
308.15	0.144	1532.05	0.78
308.15	0.1678	1533.98	0.79
308.15	0.1911	1535.84	0.79
308.15	0.2165	1537.8	0.8
308.15	0.2412	1539.77	0.79
308.15	0.2934	1543.9	0.79
308.15	0.3205	1546	0.79
308.15	0.3395	1547.47	0.79
308.15	0.3728	1550.03	0.79
308.15	0.3936	1551.61	0.79

System: water + sodium dihydrogen citrate; phases: Liquid
Fixed: Pressure, kPa = 101
Property: Mass density, kg/m3 (Liquid); method: VIBTUB:UFactor:6
Temperature, K	Molality, mol/kg of sodium dihydrogen citrate	Mass density, kg/m3	uncertainty
288.15	0.0093	1000.172	0.219
288.15	0.0117	1000.436	0.221
288.15	0.0125	1000.534	0.222
288.15	0.0138	1000.676	0.221
288.15	0.0155	1000.872	0.223
288.15	0.0163	1000.965	0.223
288.15	0.0187	1001.239	0.224
288.15	0.0202	1001.416	0.223
288.15	0.0209	1001.487	0.218
288.15	0.024	1001.853	0.225
288.15	0.0279	1002.29	0.225
288.15	0.0327	1002.844	0.226
288.15	0.0376	1003.395	0.228
288.15	0.0409	1003.78	0.228
288.15	0.047	1004.468	0.229
288.15	0.0681	1006.848	0.234
288.15	0.0937	1009.709	0.24
288.15	0.1194	1012.549	0.245
288.15	0.144	1015.246	0.251
288.15	0.1678	1017.828	0.256
288.15	0.1911	1020.349	0.262
288.15	0.2165	1023.066	0.267
288.15	0.2412	1025.702	0.273
288.15	0.2934	1031.202	0.285
288.15	0.3205	1034.039	0.292
288.15	0.3395	1036.01	0.296
288.15	0.3728	1039.434	0.304
288.15	0.3936	1041.567	0.309
293.15	0.0093	999.26	0.239
293.15	0.0117	999.519	0.213
293.15	0.0125	999.616	0.227
293.15	0.0138	999.756	0.224
293.15	0.0155	999.956	0.214
293.15	0.0163	1000.042	0.228
293.15	0.0187	1000.313	0.218
293.15	0.0202	1000.486	0.213
293.15	0.0209	1000.557	0.192
293.15	0.024	1000.915	0.223
293.15	0.0279	1001.347	0.224
293.15	0.0327	1001.894	0.224
293.15	0.0376	1002.438	0.224
293.15	0.0409	1002.817	0.227
293.15	0.047	1003.494	0.228
293.15	0.0681	1005.843	0.232
293.15	0.0937	1008.667	0.237
293.15	0.1194	1011.469	0.243
293.15	0.144	1014.129	0.248
293.15	0.1678	1016.679	0.254
293.15	0.1911	1019.169	0.259
293.15	0.2165	1021.859	0.265
293.15	0.2412	1024.455	0.27
293.15	0.2934	1029.891	0.282
293.15	0.3205	1032.692	0.288
293.15	0.3395	1034.641	0.293
293.15	0.3728	1038.027	0.3
293.15	0.3936	1040.136	0.304
298.15	0.0093	998.086	0.239
298.15	0.0117	998.341	0.216
298.15	0.0125	998.436	0.228
298.15	0.0138	998.576	0.225
298.15	0.0155	998.772	0.217
298.15	0.0163	998.856	0.229
298.15	0.0187	999.125	0.22
298.15	0.0202	999.296	0.214
298.15	0.0209	999.364	0.192
298.15	0.024	999.72	0.222
298.15	0.0279	1000.146	0.221
298.15	0.0327	1000.685	0.221
298.15	0.0376	1001.222	0.221
298.15	0.0409	1001.597	0.225
298.15	0.047	1002.266	0.225
298.15	0.0681	1004.587	0.229
298.15	0.0937	1007.375	0.234
298.15	0.1194	1010.145	0.24
298.15	0.144	1012.774	0.245
298.15	0.1678	1015.295	0.251
298.15	0.1911	1017.758	0.256
298.15	0.2165	1020.417	0.261
298.15	0.2412	1022.983	0.267
298.15	0.2934	1028.359	0.279
298.15	0.3205	1031.131	0.285
298.15	0.3395	1033.06	0.289
298.15	0.3728	1036.409	0.297
298.15	0.3936	1038.498	0.301
303.15	0.0093	996.675	0.24
303.15	0.0117	996.93	0.219
303.15	0.0125	997.022	0.23
303.15	0.0138	997.161	0.228
303.15	0.0155	997.353	0.22
303.15	0.0163	997.436	0.231
303.15	0.0187	997.702	0.223
303.15	0.0202	997.872	0.218
303.15	0.0209	997.94	0.195
303.15	0.024	998.29	0.224
303.15	0.0279	998.715	0.223
303.15	0.0327	999.246	0.221
303.15	0.0376	999.776	0.219
303.15	0.0409	1000.147	0.222
303.15	0.047	1000.81	0.222
303.15	0.0681	1003.105	0.226
303.15	0.0937	1005.862	0.231
303.15	0.1194	1008.602	0.237
303.15	0.144	1011.204	0.242
303.15	0.1678	1013.699	0.247
303.15	0.1911	1016.135	0.253
303.15	0.2165	1018.768	0.258
303.15	0.2412	1021.31	0.263
303.15	0.2934	1026.632	0.275
303.15	0.3205	1029.376	0.281
303.15	0.3395	1031.284	0.285
303.15	0.3728	1034.603	0.293
303.15	0.3936	1036.672	0.297
308.15	0.0093	995.048	0.228
308.15	0.0117	995.3	0.228
308.15	0.0125	995.39	0.228
308.15	0.0138	995.527	0.229
308.15	0.0155	995.72	0.229
308.15	0.0163	995.802	0.228
308.15	0.0187	996.063	0.228
308.15	0.0202	996.232	0.227
308.15	0.0209	996.299	0.221
308.15	0.024	996.648	0.227
308.15	0.0279	997.067	0.226
308.15	0.0327	997.594	0.224
308.15	0.0376	998.119	0.224
308.15	0.0409	998.486	0.223
308.15	0.047	999.141	0.221
308.15	0.0681	1001.413	0.222
308.15	0.0937	1004.146	0.228
308.15	0.1194	1006.858	0.233
308.15	0.144	1009.436	0.238
308.15	0.1678	1011.906	0.243
308.15	0.1911	1014.317	0.249
308.15	0.2165	1016.928	0.254
308.15	0.2412	1019.446	0.259
308.15	0.2934	1024.719	0.271
308.15	0.3205	1027.441	0.277
308.15	0.3395	1029.332	0.281
308.15	0.3728	1032.621	0.289
308.15	0.3936	1034.673	0.293
