Measured thermophysical data. Densities, Speeds of Sound, and Isentropic Compressibilities of Binary Mixtures of {Alkan-1-ols + 1,2-Dimethylbenzene, or 1,3-Dimethylbenzene, or 1,4-Dimethylbenzene, or Ethylbenzene} at (293.15, 303.15, and 313.15) K
Source: J. Chem. Eng. Data, 2011, 10.1021/je100734t
Compound 1: nonan-1-ol, C9H20O, InChI=1S/C9H20O/c1-2-3-4-5-6-7-8-9-10/h10H,2-9H2,1H3, purity 99.5%
Compound 2: decan-1-ol, C10H22O, InChI=1S/C10H22O/c1-2-3-4-5-6-7-8-9-10-11/h11H,2-10H2,1H3, purity 99.5%
Compound 3: 1,2-dimethylbenzene, C8H10, InChI=1S/C8H10/c1-7-5-3-4-6-8(7)2/h3-6H,1-2H3, purity 99.5%
Compound 4: 1,3-dimethylbenzene, C8H10, InChI=1S/C8H10/c1-7-4-3-5-8(2)6-7/h3-6H,1-2H3, purity 99%
Compound 5: 1,4-dimethylbenzene, C8H10, InChI=1S/C8H10/c1-7-3-5-8(2)6-4-7/h3-6H,1-2H3, purity 99%
Compound 6: ethylbenzene, C8H10, InChI=1S/C8H10/c1-2-8-6-4-3-5-7-8/h3-7H,2H2,1H3, purity 99.7%

System: nonan-1-ol; phases: Liquid
Fixed: Pressure, kPa = 101
Property: Speed of sound, m/s (Liquid); method: Pulse-echo method
Temperature, K	Speed of sound, m/s	uncertainty
293.15	1381	2
303.15	1347	2
313.15	1314	2

System: nonan-1-ol; phases: Liquid
Fixed: Pressure, kPa = 101
Property: Mass density, kg/m3 (Liquid); method: VIBTUB::UFactor:4
Temperature, K	Mass density, kg/m3	uncertainty
293.15	827.7	0.43
303.15	820.82	0.44
313.15	813.88	0.45

System: decan-1-ol; phases: Liquid
Fixed: Pressure, kPa = 101
Property: Speed of sound, m/s (Liquid); method: Pulse-echo method
Temperature, K	Speed of sound, m/s	uncertainty
293.15	1396	2
303.15	1362	2
313.15	1329	2

System: decan-1-ol; phases: Liquid
Fixed: Pressure, kPa = 101
Property: Mass density, kg/m3 (Liquid); method: VIBTUB:UFactor:4
Temperature, K	Mass density, kg/m3	uncertainty
293.15	829.98	0.42
303.15	823.1	0.44
313.15	816.27	0.45

System: 1,2-dimethylbenzene; phases: Liquid
Fixed: Pressure, kPa = 101
Property: Speed of sound, m/s (Liquid); method: Pulse-echo method
Temperature, K	Speed of sound, m/s	uncertainty
293.15	1369	2
303.15	1328	2
313.15	1289	2

System: 1,2-dimethylbenzene; phases: Liquid
Fixed: Pressure, kPa = 101
Property: Mass density, kg/m3 (Liquid); method: VIBTUB::UFactor:4
Temperature, K	Mass density, kg/m3	uncertainty
293.15	879.49	0.35
303.15	871.14	0.36
313.15	862.59	0.38

System: 1,3-dimethylbenzene; phases: Liquid
Fixed: Pressure, kPa = 101
Property: Speed of sound, m/s (Liquid); method: Pulse-echo method
Temperature, K	Speed of sound, m/s	uncertainty
293.15	1341	2
293.15	1340	2
303.15	1300	2
313.15	1259	2

System: 1,3-dimethylbenzene; phases: Liquid
Fixed: Pressure, kPa = 101
Property: Mass density, kg/m3 (Liquid); method: VIBTUB::UFactor:4
Temperature, K	Mass density, kg/m3	uncertainty
293.15	864.18	0.49
303.15	855.56	0.5
313.15	846.9	0.51

System: 1,4-dimethylbenzene; phases: Liquid
Fixed: Pressure, kPa = 101
Property: Speed of sound, m/s (Liquid); method: Pulse-echo method
Temperature, K	Speed of sound, m/s	uncertainty
293.15	1330	2
303.15	1289	2
313.15	1249	2

System: 1,4-dimethylbenzene; phases: Liquid
Fixed: Pressure, kPa = 101
Property: Mass density, kg/m3 (Liquid); method: VIBTUB::UFactor:4
Temperature, K	Mass density, kg/m3	uncertainty
293.15	860.96	0.49
303.15	852.25	0.5
313.15	843.51	0.51

System: ethylbenzene; phases: Liquid
Fixed: Pressure, kPa = 101
Property: Speed of sound, m/s (Liquid); method: Pulse-echo method
Temperature, K	Speed of sound, m/s	uncertainty
293.15	1340	2
303.15	1298	2
313.15	1257	2

System: ethylbenzene; phases: Liquid
Fixed: Pressure, kPa = 101
Property: Mass density, kg/m3 (Liquid); method: VIBTUB::UFactor:4
Temperature, K	Mass density, kg/m3	uncertainty
293.15	867.14	0.35
303.15	858.37	0.36
313.15	849.55	0.37

System: 1,2-dimethylbenzene + nonan-1-ol; phases: Liquid
Fixed: Pressure, kPa = 101
Property: Speed of sound, m/s (Liquid); method: Pulse-echo method
Temperature, K	Mole fraction of 1,2-dimethylbenzene	Speed of sound, m/s	uncertainty
293.15	0	1381	2
293.15	0.0653	1380	2
293.15	0.136	1378	2
293.15	0.1773	1377	2
293.15	0.2281	1375	2
293.15	0.2834	1373	2
293.15	0.3463	1370	2
293.15	0.4203	1368	2
293.15	0.4761	1366	2
293.15	0.5478	1364	2
293.15	0.6327	1362	2
293.15	0.7121	1361	2
293.15	0.7974	1361	2
293.15	0.8695	1363	2
293.15	0.9287	1365	2
293.15	1	1369	2
303.15	0	1347	2
303.15	0.0653	1345	2
303.15	0.136	1343	2
303.15	0.1773	1341	2
303.15	0.2281	1339	2
303.15	0.2834	1336	2
303.15	0.3463	1334	2
303.15	0.4203	1330	2
303.15	0.4761	1328	2
303.15	0.5478	1326	2
303.15	0.6327	1323	2
303.15	0.7121	1322	2
303.15	0.7974	1322	2
303.15	0.8695	1322	2
303.15	0.9287	1324	2
303.15	1	1328	2
313.15	0	1314	2
313.15	0.0653	1312	2
313.15	0.136	1309	2
313.15	0.1773	1307	2
313.15	0.2281	1304	2
313.15	0.2834	1301	2
313.15	0.3463	1298	2
313.15	0.4203	1295	2
313.15	0.4761	1292	2
313.15	0.5478	1289	2
313.15	0.6327	1286	2
313.15	0.7121	1285	2
313.15	0.7974	1284	2
313.15	0.8695	1284	2
313.15	0.9287	1285	2
313.15	1	1289	2

System: 1,2-dimethylbenzene + nonan-1-ol; phases: Liquid
Fixed: Pressure, kPa = 101
Property: Mass density, kg/m3 (Liquid); method: VIBTUB:UFactor:4
Temperature, K	Mole fraction of 1,2-dimethylbenzene	Mass density, kg/m3	uncertainty
293.15	0	827.7	0.43
293.15	0.0653	830.13	0.42
293.15	0.136	832.82	0.42
293.15	0.1773	834.44	0.42
293.15	0.2281	836.48	0.42
293.15	0.2834	838.77	0.41
293.15	0.3463	841.46	0.41
293.15	0.4203	844.78	0.4
293.15	0.4761	847.41	0.4
293.15	0.5478	850.96	0.39
293.15	0.6327	855.43	0.39
293.15	0.7121	859.93	0.38
293.15	0.7974	865.14	0.37
293.15	0.8695	869.88	0.37
293.15	0.9287	874.08	0.36
293.15	1	879.49	0.35
303.15	0	820.82	0.44
303.15	0.0653	823.15	0.44
303.15	0.136	825.73	0.43
303.15	0.1773	827.29	0.43
303.15	0.2281	829.25	0.43
303.15	0.2834	831.45	0.42
303.15	0.3463	834.04	0.42
303.15	0.4203	837.24	0.41
303.15	0.4761	839.78	0.41
303.15	0.5478	843.21	0.41
303.15	0.6327	847.54	0.4
303.15	0.7121	851.92	0.39
303.15	0.7974	856.99	0.39
303.15	0.8695	861.63	0.38
303.15	0.9287	865.73	0.37
303.15	1	871.14	0.36
313.15	0	813.88	0.45
313.15	0.0653	816.1	0.45
313.15	0.136	818.58	0.44
313.15	0.1773	820.07	0.44
313.15	0.2281	821.95	0.44
313.15	0.2834	824.06	0.43
313.15	0.3463	826.55	0.43
313.15	0.4203	829.63	0.43
313.15	0.4761	832.07	0.42
313.15	0.5478	835.38	0.42
313.15	0.6327	839.57	0.41
313.15	0.7121	843.83	0.41
313.15	0.7974	848.77	0.4
313.15	0.8695	853.31	0.39
313.15	0.9287	857.34	0.39
313.15	1	862.59	0.38

System: 1,3-dimethylbenzene + nonan-1-ol; phases: Liquid
Fixed: Pressure, kPa = 101
Property: Speed of sound, m/s (Liquid); method: Pulse-echo method
Temperature, K	Mole fraction of 1,3-dimethylbenzene	Speed of sound, m/s	uncertainty
293.15	0	1381	2
293.15	0.066	1378	2
293.15	0.127	1375	2
293.15	0.1739	1373	2
293.15	0.2461	1368	2
293.15	0.2913	1365	2
293.15	0.3635	1361	2
293.15	0.4422	1355	2
293.15	0.4872	1353	2
293.15	0.5648	1348	2
293.15	0.6251	1345	2
293.15	0.6873	1342	2
293.15	0.7713	1339	2
293.15	0.8507	1338	2
293.15	0.9284	1339	2
293.15	1	1341	2
303.15	0	1347	2
303.15	0.066	1343	2
303.15	0.127	1340	2
303.15	0.1739	1337	2
303.15	0.2461	1332	2
303.15	0.2913	1328	2
303.15	0.3635	1323	2
303.15	0.4422	1317	2
303.15	0.4872	1314	2
303.15	0.5648	1309	2
303.15	0.6251	1305	2
303.15	0.6873	1302	2
303.15	0.7713	1299	2
303.15	0.8507	1298	2
303.15	0.9284	1298	2
303.15	1	1300	2
313.15	0	1314	2
313.15	0.066	1310	2
313.15	0.127	1306	2
313.15	0.1739	1302	2
313.15	0.2461	1297	2
313.15	0.2913	1293	2
313.15	0.3635	1287	2
313.15	0.4422	1281	2
313.15	0.4872	1277	2
313.15	0.5648	1272	2
313.15	0.6251	1268	2
313.15	0.6873	1264	2
313.15	0.7713	1260	2
313.15	0.8507	1258	2
313.15	0.9284	1257	2
313.15	1	1259	2

System: 1,3-dimethylbenzene + nonan-1-ol; phases: Liquid
Fixed: Pressure, kPa = 101
Property: Mass density, kg/m3 (Liquid); method: VIBTUB:UFactor:4
Temperature, K	Mole fraction of 1,3-dimethylbenzene	Mass density, kg/m3	uncertainty
293.15	0	827.7	0.43
293.15	0.066	829.52	0.43
293.15	0.127	831.23	0.43
293.15	0.1739	832.57	0.43
293.15	0.2461	834.67	0.44
293.15	0.2913	836.03	0.44
293.15	0.3635	838.25	0.44
293.15	0.4422	840.77	0.45
293.15	0.4872	842.27	0.45
293.15	0.5648	844.95	0.45
293.15	0.6251	847.15	0.46
293.15	0.6873	849.54	0.46
293.15	0.7713	853	0.47
293.15	0.8507	856.56	0.47
293.15	0.9284	860.34	0.48
293.15	1	864.18	0.49
303.15	0	820.82	0.44
303.15	0.066	822.53	0.44
303.15	0.127	824.14	0.44
303.15	0.1739	825.39	0.44
303.15	0.2461	827.36	0.45
303.15	0.2913	828.63	0.45
303.15	0.3635	830.72	0.45
303.15	0.4422	833.1	0.46
303.15	0.4872	834.52	0.46
303.15	0.5648	837.08	0.46
303.15	0.6251	839.19	0.47
303.15	0.6873	841.47	0.47
303.15	0.7713	844.78	0.48
303.15	0.8507	848.19	0.48
303.15	0.9284	851.84	0.49
303.15	1	855.56	0.5
313.15	0	813.88	0.45
313.15	0.066	815.47	0.45
313.15	0.127	816.98	0.45
313.15	0.1739	818.16	0.45
313.15	0.2461	820.01	0.46
313.15	0.2913	821.21	0.46
313.15	0.3635	823.17	0.46
313.15	0.4422	825.42	0.47
313.15	0.4872	826.76	0.47
313.15	0.5648	829.18	0.48
313.15	0.6251	831.18	0.48
313.15	0.6873	833.35	0.48
313.15	0.7713	836.5	0.49
313.15	0.8507	839.76	0.5
313.15	0.9284	843.28	0.5
313.15	1	846.9	0.51

System: 1,4-dimethylbenzene + nonan-1-ol; phases: Liquid
Fixed: Pressure, kPa = 101
Property: Speed of sound, m/s (Liquid); method: Pulse-echo method
Temperature, K	Mole fraction of 1,4-dimethylbenzene	Speed of sound, m/s	uncertainty
293.15	0	1381	2
293.15	0.0611	1378	2
293.15	0.1108	1375	2
293.15	0.1652	1372	2
293.15	0.226	1368	2
293.15	0.2932	1363	2
293.15	0.3651	1357	2
293.15	0.4248	1353	2
293.15	0.5023	1347	2
293.15	0.558	1343	2
293.15	0.6359	1338	2
293.15	0.7123	1334	2
293.15	0.7744	1332	2
293.15	0.8514	1330	2
293.15	0.9286	1329	2
293.15	1	1330	2
303.15	0	1347	2
303.15	0.0611	1343	2
303.15	0.1108	1340	2
303.15	0.1652	1336	2
303.15	0.226	1331	2
303.15	0.2932	1326	2
303.15	0.3651	1320	2
303.15	0.4248	1315	2
303.15	0.5023	1308	2
303.15	0.558	1304	2
303.15	0.6359	1299	2
303.15	0.7123	1294	2
303.15	0.7744	1291	2
303.15	0.8514	1289	2
303.15	0.9286	1288	2
303.15	1	1289	2
313.15	0	1314	2
313.15	0.0611	1310	2
313.15	0.1108	1306	2
313.15	0.1652	1301	2
313.15	0.226	1296	2
313.15	0.2932	1290	2
313.15	0.3651	1284	2
313.15	0.4248	1278	2
313.15	0.5023	1272	2
313.15	0.558	1267	2
313.15	0.6359	1261	2
313.15	0.7123	1256	2
313.15	0.7744	1252	2
313.15	0.8514	1249	2
313.15	0.9286	1248	2
313.15	1	1249	2

System: 1,4-dimethylbenzene + nonan-1-ol; phases: Liquid
Fixed: Pressure, kPa = 101
Property: Mass density, kg/m3 (Liquid); method: VIBTUB:UFactor:4
Temperature, K	Mole fraction of 1,4-dimethylbenzene	Mass density, kg/m3	uncertainty
293.15	0	827.7	0.43
293.15	0.0611	829.31	0.43
293.15	0.1108	830.62	0.43
293.15	0.1652	832.08	0.43
293.15	0.226	833.72	0.44
293.15	0.2932	835.56	0.44
293.15	0.3651	837.59	0.44
293.15	0.4248	839.34	0.45
293.15	0.5023	841.69	0.45
293.15	0.558	843.46	0.46
293.15	0.6359	846.06	0.46
293.15	0.7123	848.77	0.47
293.15	0.7744	851.12	0.47
293.15	0.8514	854.23	0.48
293.15	0.9286	857.59	0.48
293.15	1	860.96	0.49
303.15	0	820.82	0.44
303.15	0.0611	822.32	0.44
303.15	0.1108	823.55	0.44
303.15	0.1652	824.91	0.44
303.15	0.226	826.44	0.45
303.15	0.2932	828.16	0.45
303.15	0.3651	830.07	0.45
303.15	0.4248	831.7	0.46
303.15	0.5023	833.91	0.46
303.15	0.558	835.58	0.47
303.15	0.6359	838.04	0.47
303.15	0.7123	840.61	0.48
303.15	0.7744	842.84	0.48
303.15	0.8514	845.81	0.49
303.15	0.9286	849.02	0.49
303.15	1	852.25	0.5
313.15	0	813.88	0.45
313.15	0.0611	815.27	0.45
313.15	0.1108	816.41	0.45
313.15	0.1652	817.67	0.46
313.15	0.226	819.1	0.46
313.15	0.2932	820.7	0.46
313.15	0.3651	822.47	0.46
313.15	0.4248	824	0.47
313.15	0.5023	826.07	0.47
313.15	0.558	827.63	0.48
313.15	0.6359	829.95	0.48
313.15	0.7123	832.39	0.49
313.15	0.7744	834.5	0.49
313.15	0.8514	837.33	0.5
313.15	0.9286	840.41	0.5
313.15	1	843.51	0.51

System: ethylbenzene + nonan-1-ol; phases: Liquid
Fixed: Pressure, kPa = 101
Property: Speed of sound, m/s (Liquid); method: Pulse-echo method
Temperature, K	Mole fraction of ethylbenzene	Speed of sound, m/s	uncertainty
293.15	0	1381	2
293.15	0.0611	1378	2
293.15	0.1285	1374	2
293.15	0.1791	1371	2
293.15	0.2466	1366	2
293.15	0.3151	1362	2
293.15	0.3717	1358	2
293.15	0.4254	1354	2
293.15	0.5007	1349	2
293.15	0.5756	1345	2
293.15	0.6411	1341	2
293.15	0.7122	1339	2
293.15	0.7798	1337	2
293.15	0.8557	1336	2
293.15	0.9341	1338	2
293.15	1	1340	2
303.15	0	1347	2
303.15	0.0611	1343	2
303.15	0.1285	1338	2
303.15	0.1791	1335	2
303.15	0.2466	1330	2
303.15	0.3151	1324	2
303.15	0.3717	1320	2
303.15	0.4254	1316	2
303.15	0.5007	1311	2
303.15	0.5756	1306	2
303.15	0.6411	1302	2
303.15	0.7122	1298	2
303.15	0.7798	1296	2
303.15	0.8557	1295	2
303.15	0.9341	1295	2
303.15	1	1298	2
313.15	0	1314	2
313.15	0.0611	1309	2
313.15	0.1285	1304	2
313.15	0.1791	1300	2
313.15	0.2466	1294	2
313.15	0.3151	1288	2
313.15	0.3717	1283	2
313.15	0.4254	1279	2
313.15	0.5007	1273	2
313.15	0.5756	1267	2
313.15	0.6411	1263	2
313.15	0.7122	1259	2
313.15	0.7798	1257	2
313.15	0.8557	1255	2
313.15	0.9341	1254	2
313.15	1	1257	2

System: ethylbenzene + nonan-1-ol; phases: Liquid
Fixed: Pressure, kPa = 101
Property: Mass density, kg/m3 (Liquid); method: VIBTUB:UFactor:4
Temperature, K	Mole fraction of ethylbenzene	Mass density, kg/m3	uncertainty
293.15	0	827.7	0.43
293.15	0.0611	829.32	0.42
293.15	0.1285	831.14	0.42
293.15	0.1791	832.56	0.42
293.15	0.2466	834.5	0.41
293.15	0.3151	836.57	0.41
293.15	0.3717	838.35	0.4
293.15	0.4254	840.12	0.4
293.15	0.5007	842.74	0.39
293.15	0.5756	845.55	0.39
293.15	0.6411	848.19	0.38
293.15	0.7122	851.28	0.38
293.15	0.7798	854.46	0.37
293.15	0.8557	858.37	0.36
293.15	0.9341	862.85	0.36
293.15	1	867.14	0.35
303.15	0	820.82	0.44
303.15	0.0611	822.34	0.43
303.15	0.1285	824.06	0.43
303.15	0.1791	825.4	0.43
303.15	0.2466	827.23	0.42
303.15	0.3151	829.17	0.42
303.15	0.3717	830.85	0.41
303.15	0.4254	832.51	0.41
303.15	0.5007	834.99	0.41
303.15	0.5756	837.63	0.4
303.15	0.6411	840.11	0.39
303.15	0.7122	843.05	0.39
303.15	0.7798	846.08	0.38
303.15	0.8557	849.81	0.38
303.15	0.9341	854.1	0.37
303.15	1	858.37	0.36
313.15	0	813.88	0.45
313.15	0.0611	815.3	0.45
313.15	0.1285	816.91	0.44
313.15	0.1791	818.16	0.44
313.15	0.2466	819.87	0.43
313.15	0.3151	821.69	0.43
313.15	0.3717	823.26	0.43
313.15	0.4254	824.82	0.42
313.15	0.5007	827.14	0.42
313.15	0.5756	829.63	0.41
313.15	0.6411	831.97	0.41
313.15	0.7122	834.74	0.4
313.15	0.7798	837.59	0.4
313.15	0.8557	841.14	0.39
313.15	0.9341	845.28	0.38
313.15	1	849.55	0.37

System: 1,2-dimethylbenzene + decan-1-ol; phases: Liquid
Fixed: Pressure, kPa = 101
Property: Speed of sound, m/s (Liquid); method: Pulse-echo method
Temperature, K	Mole fraction of 1,2-dimethylbenzene	Speed of sound, m/s	uncertainty
293.15	0	1396	2
293.15	0.0766	1394	2
293.15	0.1331	1391	2
293.15	0.1823	1389	2
293.15	0.2509	1386	2
293.15	0.3173	1383	2
293.15	0.3896	1379	2
293.15	0.4556	1376	2
293.15	0.5261	1372	2
293.15	0.6054	1369	2
293.15	0.6597	1367	2
293.15	0.7364	1365	2
293.15	0.8029	1364	2
293.15	0.873	1364	2
293.15	0.9447	1366	2
293.15	1	1369	2
303.15	0	1362	2
303.15	0.0766	1359	2
303.15	0.1331	1356	2
303.15	0.1823	1354	2
303.15	0.2509	1350	2
303.15	0.3173	1347	2
303.15	0.3896	1343	2
303.15	0.4556	1339	2
303.15	0.5261	1335	2
303.15	0.6054	1332	2
303.15	0.6597	1329	2
303.15	0.7364	1327	2
303.15	0.8029	1325	2
303.15	0.873	1325	2
303.15	0.9447	1326	2
303.15	1	1328	2
313.15	0	1329	2
313.15	0.0766	1325	2
313.15	0.1331	1322	2
313.15	0.1823	1319	2
313.15	0.2509	1315	2
313.15	0.3173	1311	2
313.15	0.3896	1307	2
313.15	0.4556	1303	2
313.15	0.5261	1298	2
313.15	0.6054	1294	2
313.15	0.6597	1292	2
313.15	0.7364	1289	2
313.15	0.8029	1287	2
313.15	0.873	1287	2
313.15	0.9447	1287	2
313.15	1	1289	2

System: 1,2-dimethylbenzene + decan-1-ol; phases: Liquid
Fixed: Pressure, kPa = 101
Property: Mass density, kg/m3 (Liquid); method: VIBTUB:UFactor:4
Temperature, K	Mole fraction of 1,2-dimethylbenzene	Mass density, kg/m3	uncertainty
293.15	0	829.98	0.42
293.15	0.0766	832.48	0.42
293.15	0.1331	834.38	0.42
293.15	0.1823	836.1	0.42
293.15	0.2509	838.57	0.41
293.15	0.3173	841.06	0.41
293.15	0.3896	843.95	0.4
293.15	0.4556	846.73	0.4
293.15	0.5261	849.91	0.4
293.15	0.6054	853.77	0.39
293.15	0.6597	856.61	0.39
293.15	0.7364	860.94	0.38
293.15	0.8029	865.03	0.37
293.15	0.873	869.74	0.37
293.15	0.9447	875.04	0.36
293.15	1	879.49	0.35
303.15	0	823.1	0.44
303.15	0.0766	825.52	0.43
303.15	0.1331	827.33	0.43
303.15	0.1823	828.96	0.43
303.15	0.2509	831.31	0.42
303.15	0.3173	833.71	0.42
303.15	0.3896	836.48	0.42
303.15	0.4556	839.16	0.41
303.15	0.5261	842.23	0.41
303.15	0.6054	845.95	0.4
303.15	0.6597	848.71	0.4
303.15	0.7364	852.91	0.39
303.15	0.8029	856.89	0.39
303.15	0.873	861.49	0.38
303.15	0.9447	866.72	0.37
303.15	1	871.14	0.36
313.15	0	816.27	0.45
313.15	0.0766	818.51	0.44
313.15	0.1331	820.23	0.44
313.15	0.1823	821.79	0.44
313.15	0.2509	824.05	0.43
313.15	0.3173	826.36	0.43
313.15	0.3896	829.02	0.43
313.15	0.4556	831.61	0.42
313.15	0.5261	834.57	0.42
313.15	0.6054	838.18	0.41
313.15	0.6597	840.85	0.41
313.15	0.7364	844.92	0.4
313.15	0.8029	848.8	0.4
313.15	0.873	853.27	0.39
313.15	0.9447	858.33	0.38
313.15	1	862.59	0.38

System: 1,3-dimethylbenzene + decan-1-ol; phases: Liquid
Fixed: Pressure, kPa = 101
Property: Speed of sound, m/s (Liquid); method: Pulse-echo method
Temperature, K	Mole fraction of 1,3-dimethylbenzene	Speed of sound, m/s	uncertainty
293.15	0	1396	2
293.15	0.0627	1392	2
293.15	0.1424	1388	2
293.15	0.2052	1383	2
293.15	0.2618	1379	2
293.15	0.3217	1375	2
293.15	0.3934	1369	2
293.15	0.4989	1361	2
293.15	0.5581	1357	2
293.15	0.6343	1352	2
293.15	0.7131	1348	2
293.15	0.7991	1344	2
293.15	0.8465	1342	2
293.15	0.8964	1341	2
293.15	0.9421	1341	2
293.15	1	1340	2
303.15	0	1362	2
303.15	0.0627	1358	2
303.15	0.1424	1352	2
303.15	0.2052	1347	2
303.15	0.2618	1343	2
303.15	0.3217	1338	2
303.15	0.3934	1332	2
303.15	0.4989	1324	2
303.15	0.5581	1319	2
303.15	0.6343	1313	2
303.15	0.7131	1308	2
303.15	0.7991	1304	2
303.15	0.8465	1302	2
303.15	0.8964	1300	2
303.15	0.9421	1300	2
303.15	1	1300	2
313.15	0	1329	2
313.15	0.0627	1324	2
313.15	0.1424	1318	2
313.15	0.2052	1312	2
313.15	0.2618	1308	2
313.15	0.3217	1302	2
313.15	0.3934	1296	2
313.15	0.4989	1287	2
313.15	0.5581	1282	2
313.15	0.6343	1276	2
313.15	0.7131	1270	2
313.15	0.7991	1265	2
313.15	0.8465	1262	2
313.15	0.8964	1260	2
313.15	0.9421	1259	2
313.15	1	1259	2

System: 1,3-dimethylbenzene + decan-1-ol; phases: Liquid
Fixed: Pressure, kPa = 101
Property: Mass density, kg/m3 (Liquid); method: VIBTUB:UFactor:4
Temperature, K	Mole fraction of 1,3-dimethylbenzene	Mass density, kg/m3	uncertainty
293.15	0	829.98	0.42
293.15	0.0627	831.48	0.43
293.15	0.1424	833.39	0.43
293.15	0.2052	834.93	0.43
293.15	0.2618	836.35	0.44
293.15	0.3217	837.9	0.44
293.15	0.3934	839.84	0.44
293.15	0.4989	842.94	0.45
293.15	0.5581	844.81	0.45
293.15	0.6343	847.44	0.46
293.15	0.7131	850.41	0.46
293.15	0.7991	853.99	0.47
293.15	0.8465	856.11	0.47
293.15	0.8964	858.52	0.48
293.15	0.9421	860.9	0.48
293.15	1	864.18	0.49
303.15	0	823.1	0.44
303.15	0.0627	824.51	0.44
303.15	0.1424	826.27	0.44
303.15	0.2052	827.72	0.44
303.15	0.2618	829.06	0.45
303.15	0.3217	830.53	0.45
303.15	0.3934	832.37	0.45
303.15	0.4989	835.28	0.46
303.15	0.5581	837.05	0.46
303.15	0.6343	839.52	0.47
303.15	0.7131	842.31	0.47
303.15	0.7991	845.71	0.48
303.15	0.8465	847.74	0.48
303.15	0.8964	850.09	0.49
303.15	0.9421	852.38	0.49
303.15	1	855.56	0.5
313.15	0	816.27	0.45
313.15	0.0627	817.53	0.45
313.15	0.1424	819.18	0.45
313.15	0.2052	820.53	0.45
313.15	0.2618	821.78	0.46
313.15	0.3217	823.14	0.46
313.15	0.3934	824.85	0.46
313.15	0.4989	827.6	0.47
313.15	0.5581	829.26	0.47
313.15	0.6343	831.6	0.48
313.15	0.7131	834.24	0.49
313.15	0.7991	837.47	0.49
313.15	0.8465	839.4	0.5
313.15	0.8964	841.61	0.5
313.15	0.9421	843.82	0.5
313.15	1	846.9	0.51

System: 1,4-dimethylbenzene + decan-1-ol; phases: Liquid
Fixed: Pressure, kPa = 101
Property: Speed of sound, m/s (Liquid); method: Pulse-echo method
Temperature, K	Mole fraction of 1,4-dimethylbenzene	Speed of sound, m/s	uncertainty
293.15	0	1396	2
293.15	0.0806	1391	2
293.15	0.1731	1385	2
293.15	0.2506	1378	2
293.15	0.3197	1373	2
293.15	0.3693	1368	2
293.15	0.4336	1362	2
293.15	0.4929	1357	2
293.15	0.5771	1350	2
293.15	0.662	1344	2
293.15	0.7265	1340	2
293.15	0.7763	1337	2
293.15	0.8293	1335	2
293.15	0.8891	1333	2
293.15	0.9369	1332	2
293.15	1	1330	2
303.15	0	1362	2
303.15	0.0806	1356	2
303.15	0.1731	1349	2
303.15	0.2506	1342	2
303.15	0.3197	1336	2
303.15	0.3693	1331	2
303.15	0.4336	1325	2
303.15	0.4929	1320	2
303.15	0.5771	1312	2
303.15	0.662	1305	2
303.15	0.7265	1300	2
303.15	0.7763	1297	2
303.15	0.8293	1294	2
303.15	0.8891	1292	2
303.15	0.9369	1290	2
303.15	1	1289	2
313.15	0	1329	2
313.15	0.0806	1322	2
313.15	0.1731	1314	2
313.15	0.2506	1307	2
313.15	0.3197	1300	2
313.15	0.3693	1295	2
313.15	0.4336	1289	2
313.15	0.4929	1283	2
313.15	0.5771	1275	2
313.15	0.662	1267	2
313.15	0.7265	1262	2
313.15	0.7763	1258	2
313.15	0.8293	1255	2
313.15	0.8891	1252	2
313.15	0.9369	1250	2
313.15	1	1249	2

System: 1,4-dimethylbenzene + decan-1-ol; phases: Liquid
Fixed: Pressure, kPa = 101
Property: Mass density, kg/m3 (Liquid); method: VIBTUB:UFactor:4
Temperature, K	Mole fraction of 1,4-dimethylbenzene	Mass density, kg/m3	uncertainty
293.15	0	829.98	0.42
293.15	0.0806	831.76	0.43
293.15	0.1731	833.82	0.43
293.15	0.2506	835.6	0.44
293.15	0.3197	837.25	0.44
293.15	0.3693	838.49	0.44
293.15	0.4336	840.17	0.45
293.15	0.4929	841.79	0.45
293.15	0.5771	844.26	0.46
293.15	0.662	846.98	0.46
293.15	0.7265	849.2	0.47
293.15	0.7763	851.04	0.47
293.15	0.8293	853.13	0.48
293.15	0.8891	855.65	0.48
293.15	0.9369	857.84	0.48
293.15	1	860.96	0.49
303.15	0	823.1	0.44
303.15	0.0806	824.74	0.44
303.15	0.1731	826.66	0.44
303.15	0.2506	828.33	0.45
303.15	0.3197	829.88	0.45
303.15	0.3693	831.04	0.45
303.15	0.4336	832.6	0.46
303.15	0.4929	834.12	0.46
303.15	0.5771	836.42	0.47
303.15	0.662	838.96	0.47
303.15	0.7265	841.06	0.48
303.15	0.7763	842.8	0.48
303.15	0.8293	844.77	0.49
303.15	0.8891	847.2	0.49
303.15	0.9369	849.27	0.49
303.15	1	852.25	0.5
313.15	0	816.27	0.45
313.15	0.0806	817.76	0.45
313.15	0.1731	819.54	0.45
313.15	0.2506	821.08	0.46
313.15	0.3197	822.5	0.46
313.15	0.3693	823.57	0.46
313.15	0.4336	825.02	0.47
313.15	0.4929	826.43	0.47
313.15	0.5771	828.58	0.48
313.15	0.662	830.98	0.48
313.15	0.7265	832.94	0.49
313.15	0.7763	834.58	0.49
313.15	0.8293	836.44	0.5
313.15	0.8891	838.71	0.5
313.15	0.9369	840.68	0.51
313.15	1	843.51	0.51

System: ethylbenzene + decan-1-ol; phases: Liquid
Fixed: Pressure, kPa = 101
Property: Speed of sound, m/s (Liquid); method: Pulse-echo method
Temperature, K	Mole fraction of ethylbenzene	Speed of sound, m/s	uncertainty
293.15	0	1396	2
293.15	0.0666	1391	2
293.15	0.1392	1385	2
293.15	0.1932	1381	2
293.15	0.2642	1375	2
293.15	0.3355	1369	2
293.15	0.3936	1364	2
293.15	0.4483	1360	2
293.15	0.5238	1354	2
293.15	0.598	1349	2
293.15	0.6621	1344	2
293.15	0.7309	1341	2
293.15	0.7953	1338	2
293.15	0.8668	1336	2
293.15	0.9396	1336	2
293.15	1	1340	2
303.15	0	1362	2
303.15	0.0666	1356	2
303.15	0.1392	1350	2
303.15	0.1932	1345	2
303.15	0.2642	1339	2
303.15	0.3355	1333	2
303.15	0.3936	1327	2
303.15	0.4483	1322	2
303.15	0.5238	1316	2
303.15	0.598	1310	2
303.15	0.6621	1305	2
303.15	0.7309	1301	2
303.15	0.7953	1298	2
303.15	0.8668	1295	2
303.15	0.9396	1295	2
303.15	1	1298	2
313.15	0	1329	2
313.15	0.0666	1322	2
313.15	0.1392	1316	2
313.15	0.1932	1310	2
313.15	0.2642	1304	2
313.15	0.3355	1297	2
313.15	0.3936	1291	2
313.15	0.4483	1286	2
313.15	0.5238	1279	2
313.15	0.598	1273	2
313.15	0.6621	1268	2
313.15	0.7309	1263	2
313.15	0.7953	1259	2
313.15	0.8668	1256	2
313.15	0.9396	1255	2
313.15	1	1257	2

System: ethylbenzene + decan-1-ol; phases: Liquid
Fixed: Pressure, kPa = 101
Property: Mass density, kg/m3 (Liquid); method: VIBTUB:UFactor:4
Temperature, K	Mole fraction of ethylbenzene	Mass density, kg/m3	uncertainty
293.15	0	829.98	0.42
293.15	0.0666	831.5	0.42
293.15	0.1392	833.18	0.42
293.15	0.1932	834.47	0.41
293.15	0.2642	836.24	0.41
293.15	0.3355	838.11	0.4
293.15	0.3936	839.72	0.4
293.15	0.4483	841.33	0.4
293.15	0.5238	843.73	0.39
293.15	0.598	846.33	0.39
293.15	0.6621	848.79	0.38
293.15	0.7309	851.72	0.38
293.15	0.7953	854.7	0.37
293.15	0.8668	858.41	0.36
293.15	0.9396	862.65	0.36
293.15	1	867.14	0.35
303.15	0	823.1	0.43
303.15	0.0666	824.47	0.43
303.15	0.1392	826	0.43
303.15	0.1932	827.18	0.42
303.15	0.2642	828.8	0.42
303.15	0.3355	830.52	0.41
303.15	0.3936	832.03	0.41
303.15	0.4483	833.52	0.41
303.15	0.5238	835.78	0.4
303.15	0.598	838.23	0.4
303.15	0.6621	840.59	0.39
303.15	0.7309	843.4	0.39
303.15	0.7953	846.31	0.38
303.15	0.8668	849.96	0.37
303.15	0.9396	854.3	0.37
303.15	1	858.37	0.36
313.15	0	816.27	0.43
313.15	0.0666	817.46	0.43
313.15	0.1392	818.82	0.43
313.15	0.1932	819.88	0.42
313.15	0.2642	821.32	0.42
313.15	0.3355	822.85	0.41
313.15	0.3936	824.21	0.41
313.15	0.4483	825.58	0.41
313.15	0.5238	827.65	0.4
313.15	0.598	829.91	0.4
313.15	0.6621	832.13	0.39
313.15	0.7309	834.8	0.39
313.15	0.7953	837.56	0.38
313.15	0.8668	841.06	0.37
313.15	0.9396	845.13	0.37
313.15	1	849.55	0.36
