Measured thermophysical data. Excess Volume of the 1-Propanol + 1-Alkene Systems in Terms of an Equation of State with Association
Source: J. Chem. Eng. Data, 2010, 10.1021/je100595s
Compound 1: propan-1-ol, C3H8O, InChI=1S/C3H8O/c1-2-3-4/h4H,2-3H2,1H3
Compound 2: hex-1-ene, C6H12, InChI=1S/C6H12/c1-3-5-6-4-2/h3H,1,4-6H2,2H3, purity 99%
Compound 3: 1-decene, C10H20, InChI=1S/C10H20/c1-3-5-7-9-10-8-6-4-2/h3H,1,4-10H2,2H3, purity 99%
Compound 4: 1-heptene, C7H14, InChI=1S/C7H14/c1-3-5-7-6-4-2/h3H,1,4-7H2,2H3, purity 97%

System: propan-1-ol; phases: Liquid
Property: Refractive index (Na D-line) (Liquid); method: Standard Abbe refractometry
Temperature, K	Pressure, kPa	Refractive index (Na D-line)	uncertainty
293.15	101.325	1.38552	0.0004

System: propan-1-ol; phases: Liquid
Fixed: Pressure, kPa = 101
Property: Mass density, kg/m3 (Liquid); method: VIBTUB:UFactor:3
Temperature, K	Mass density, kg/m3	uncertainty
288.15	807.594	0.324
298.15	799.651	0.333
308.15	791.566	0.342

System: hex-1-ene; phases: Liquid
Property: Refractive index (Na D-line) (Liquid); method: Standard Abbe refractometry
Temperature, K	Pressure, kPa	Refractive index (Na D-line)	uncertainty
293.15	101.325	1.3879	0.0004

System: hex-1-ene; phases: Liquid
Property: Mass density, kg/m3 (Liquid); method: VIBTUB::UFactor:3
Pressure, kPa	Temperature, K	Mass density, kg/m3	uncertainty
101	298.15	668.28	0.486

System: 1-decene; phases: Liquid
Property: Refractive index (Na D-line) (Liquid); method: Standard Abbe refractometry
Temperature, K	Pressure, kPa	Refractive index (Na D-line)	uncertainty
293.15	101.325	1.42139	0.00041

System: 1-decene; phases: Liquid
Fixed: Pressure, kPa = 101
Property: Mass density, kg/m3 (Liquid); method: VIBTUB::UFactor:3
Temperature, K	Mass density, kg/m3	uncertainty
288.15	744.266	0.42
298.15	736.789	0.428
308.15	729.152	0.437

System: 1-heptene; phases: Liquid
Property: Refractive index (Na D-line) (Liquid); method: Standard Abbe refractometry
Temperature, K	Pressure, kPa	Refractive index (Na D-line)	uncertainty
293.15	101.325	1.39992	0.00041

System: 1-heptene; phases: Liquid
Property: Mass density, kg/m3 (Liquid); method: VIBTUB::UFactor:3
Pressure, kPa	Temperature, K	Mass density, kg/m3	uncertainty
101	298.15	692.519	0.477

System: propan-1-ol + hex-1-ene; phases: Liquid
Fixed: Pressure, kPa = 101
Fixed: Temperature, K = 298.15
Property: Mass density, kg/m3 (Liquid); method: VIBTUB:UFactor:3
Mole fraction of propan-1-ol	Mass density, kg/m3	uncertainty
0	668.28	0.486
0.0559	672.355	0.481
0.1058	676.386	0.477
0.1507	680.245	0.472
0.1992	684.668	0.467
0.2544	689.977	0.461
0.3009	694.674	0.456
0.352	700.098	0.449
0.3964	705.058	0.444
0.5009	717.645	0.429
0.5518	724.304	0.421
0.6016	731.083	0.414
0.7038	746.106	0.396
0.8088	763.299	0.377
0.8497	770.498	0.369
0.899	779.526	0.358
0.949	789.187	0.348
1	799.651	0.333

System: propan-1-ol + 1-heptene; phases: Liquid
Fixed: Pressure, kPa = 101
Fixed: Temperature, K = 298.15
Property: Mass density, kg/m3 (Liquid); method: VIBTUB:UFactor:3
Mole fraction of propan-1-ol	Mass density, kg/m3	uncertainty
0	692.519	0.477
0.0582	695.337	0.473
0.1049	697.995	0.468
0.1479	700.608	0.464
0.2018	704.107	0.459
0.2499	707.455	0.454
0.398	719.202	0.437
0.4975	728.425	0.425
0.5553	734.343	0.417
0.5959	738.777	0.411
0.6563	745.813	0.402
0.6972	750.887	0.395
0.7425	756.934	0.388
0.7947	764.331	0.378
0.8462	772.184	0.369
0.8955	780.309	0.359
0.951	790.169	0.347
1	799.651	0.333

System: propan-1-ol + 1-decene; phases: Liquid
Fixed: Pressure, kPa = 101
Property: Mass density, kg/m3 (Liquid); method: VIBTUB:UFactor:3
Temperature, K	Mole fraction of propan-1-ol	Mass density, kg/m3	uncertainty
288.15	0	744.266	0.42
288.15	0.0969	746.168	0.415
288.15	0.1318	747.012	0.413
288.15	0.1944	748.72	0.409
288.15	0.2361	749.969	0.407
288.15	0.2737	751.175	0.404
288.15	0.3258	752.991	0.401
288.15	0.3734	754.811	0.398
288.15	0.5038	760.736	0.388
288.15	0.5598	763.766	0.383
288.15	0.6102	766.811	0.378
288.15	0.6603	770.103	0.374
288.15	0.7918	780.895	0.359
288.15	0.8442	786.227	0.352
288.15	0.8939	792.034	0.345
288.15	1	807.594	0.324
298.15	0	736.789	0.428
298.15	0.0564	737.643	0.426
298.15	0.109	738.787	0.423
298.15	0.1582	740.016	0.42
298.15	0.255	742.822	0.414
298.15	0.3028	744.436	0.411
298.15	0.3551	746.338	0.408
298.15	0.4028	748.266	0.404
298.15	0.4501	750.33	0.401
298.15	0.4961	752.526	0.397
298.15	0.5495	755.35	0.39
298.15	0.5977	758.16	0.39
298.15	0.6479	761.404	0.384
298.15	0.798	773.549	0.367
298.15	0.85	778.926	0.36
298.15	0.8943	784.14	0.354
298.15	1	799.651	0.333
308.15	0	729.152	0.437
308.15	0.1008	730.734	0.432
308.15	0.1436	731.723	0.43
308.15	0.1972	733.107	0.427
308.15	0.2342	734.144	0.424
308.15	0.2701	735.279	0.422
308.15	0.3286	737.243	0.418
308.15	0.3713	738.842	0.416
308.15	0.4631	742.761	0.409
308.15	0.5207	745.59	0.404
308.15	0.5637	747.922	0.401
308.15	0.614	750.967	0.396
308.15	0.6632	754.214	0.392
308.15	0.7473	760.741	0.383
308.15	0.79	764.556	0.378
308.15	0.8432	769.962	0.371
308.15	0.8935	775.81	0.363
308.15	0.9422	782.344	0.355
308.15	1	791.566	0.342
