Measured thermophysical data. Measurement and Correlation of High Pressure Densities of Ionic Liquids, 1-Ethyl-3-methylimidazolium l-Lactate ([emim][Lactate]), 2-Hydroxyethyl-trimethylammonium l-Lactate ([(C2H4OH)(CH3)3N][Lactate]), and 1-Butyl-3-methylimidazolium Chloride ([bmim][Cl])
Source: J. Chem. Eng. Data, 2011, 10.1021/je1008747
Compound 1: 3-ethyl-1-methylimidazolium (S)-2-hydroxypropanoate, C9H16N2O3, InChI=1S/C6H11N2.C3H6O3/c1-3-8-5-4-7(2)6-8;1-2(4)3(5)6/h4-6H,3H2,1-2H3;2,4H,1H3,(H,5,6)/q+1;/p-1/t;2-/m.0/s1
Compound 2: 2-hydroxy-N,N,N-trimethylethanaminium (S)-2-hydroxypropanoate, C8H19NO4, InChI=1S/C5H14NO.C3H6O3/c1-6(2,3)4-5-7;1-2(4)3(5)6/h7H,4-5H2,1-3H3;2,4H,1H3,(H,5,6)/q+1;/p-1/t;2-/m.0/s1
Compound 3: 1-butyl-3-methylimidazolium chloride, C8H15ClN2, InChI=1S/C8H15N2.ClH/c1-3-4-5-10-7-6-9(2)8-10;/h6-8H,3-5H2,1-2H3;1H/q+1;/p-1

System: 3-ethyl-1-methylimidazolium (S)-2-hydroxypropanoate; phases: Liquid
Fixed: Pressure, kPa = 101.325
Property: Mass density, kg/m3 (Liquid); method: VIBTUB:UFactor:8
Temperature, K	Mass density, kg/m3	uncertainty
293.15	1149.7	2.8
298.15	1146.1	2.8
303.15	1142.5	2.8
308.15	1139	2.8
313.15	1135.6	2.8
318.15	1132.2	2.8
323.15	1128.8	2.7
328.15	1125.4	2.7
333.15	1122.1	2.7
338.15	1118.7	2.7
343.15	1115.4	2.7
348.15	1112.1	2.7
353.15	1108.8	2.7

System: 3-ethyl-1-methylimidazolium (S)-2-hydroxypropanoate; phases: Liquid
Property: Mass density, kg/m3 (Liquid); method: VIBTUB:UFactor:2
Pressure, kPa	Temperature, K	Mass density, kg/m3	uncertainty
100	312.6	1136	3
10000	312.6	1140	3
10000	332.1	1126	3
10000	352.1	1113	3
10000	372.2	1101	3
10000	392.4	1088	2
10000	412.4	1076	2
10000	432.2	1064	2
20000	312.6	1144	3
20000	332.1	1131	3
20000	352.1	1118	3
20000	372.2	1105	3
20000	392.4	1093	3
20000	412.4	1081	2
20000	432.2	1069	2
30000	312.6	1148	3
30000	332.1	1135	3
30000	352.1	1122	3
30000	372.2	1110	3
30000	392.4	1098	3
30000	412.4	1086	3
30000	432.2	1074	2
40000	312.6	1151	3
40000	332.1	1139	3
40000	352.1	1126	3
40000	372.2	1114	3
40000	392.4	1102	3
40000	412.4	1090	3
40000	432.2	1079	3
50000	312.6	1155	3
50000	332.1	1142	3
50000	352.1	1130	3
50000	372.2	1118	3
50000	392.4	1106	3
50000	412.4	1095	3
50000	432.2	1084	3
60000	312.6	1158	3
60000	332.1	1146	3
60000	352.1	1134	3
60000	372.2	1122	3
60000	392.4	1110	3
60000	412.4	1099	3
60000	432.2	1088	3
70000	312.6	1162	3
70000	332.1	1149	3
70000	352.1	1137	3
70000	372.2	1126	3
70000	392.4	1114	3
70000	412.4	1103	3
70000	432.2	1093	3
80000	312.6	1165	3
80000	332.1	1153	3
80000	352.1	1141	3
80000	372.2	1129	3
80000	392.4	1118	3
80000	412.4	1107	3
80000	432.2	1097	3
90000	312.6	1168	3
90000	332.1	1156	3
90000	352.1	1144	3
90000	372.2	1133	3
90000	392.4	1122	3
90000	412.4	1111	3
90000	432.2	1101	3
100000	312.6	1172	3
100000	332.1	1159	3
100000	352.1	1148	3
100000	372.2	1137	3
100000	392.4	1126	3
100000	412.4	1115	3
100000	432.2	1105	3
110000	312.6	1175	4
110000	332.1	1163	3
110000	352.1	1151	3
110000	372.2	1140	3
110000	392.4	1129	3
110000	412.4	1119	3
110000	432.2	1109	3
120000	312.6	1178	4
120000	332.1	1166	4
120000	352.1	1154	3
120000	372.2	1143	3
120000	392.4	1133	3
120000	412.4	1122	3
120000	432.2	1112	3
130000	312.6	1181	4
130000	332.1	1169	4
130000	352.1	1157	4
130000	372.2	1147	3
130000	392.4	1136	3
130000	412.4	1126	3
130000	432.2	1116	3
140000	312.6	1183	4
140000	332.1	1172	4
140000	352.1	1160	4
140000	372.2	1150	4
140000	392.4	1139	3
140000	412.4	1129	3
140000	432.2	1119	3
150000	312.6	1186	4
150000	332.1	1175	4
150000	352.1	1164	4
150000	372.2	1153	4
150000	392.4	1143	4
150000	412.4	1132	3
150000	432.2	1123	3
160000	312.6	1189	4
160000	332.1	1178	4
160000	352.1	1166	4
160000	372.2	1156	4
160000	392.4	1146	4
160000	412.4	1136	4
160000	432.2	1126	3
170000	312.6	1192	4
170000	332.1	1180	4
170000	352.1	1169	4
170000	372.2	1159	4
170000	392.4	1149	4
170000	412.4	1139	4
170000	432.2	1130	4
180000	312.6	1195	4
180000	332.1	1183	4
180000	352.1	1172	4
180000	372.2	1162	4
180000	392.4	1152	4
180000	412.4	1142	4
180000	432.2	1133	4
190000	312.6	1197	5
190000	332.1	1186	4
190000	352.1	1175	4
190000	372.2	1165	4
190000	392.4	1155	4
190000	412.4	1145	4
190000	432.2	1136	4
200000	312.6	1200	5
200000	332.1	1189	5
200000	352.1	1178	4
200000	372.2	1168	4
200000	392.4	1158	4
200000	412.4	1148	4
200000	432.2	1139	4

System: 2-hydroxy-N,N,N-trimethylethanaminium (S)-2-hydroxypropanoate; phases: Liquid
Fixed: Pressure, kPa = 101.325
Property: Mass density, kg/m3 (Liquid); method: VIBTUB:UFactor:8
Temperature, K	Mass density, kg/m3	uncertainty
293.15	1143.2	7.7
298.15	1139.9	7.7
303.15	1136.8	7.6
308.15	1133.6	7.6
313.15	1130.5	7.5
318.15	1127.3	7.5
323.15	1124.2	7.4
328.15	1121.1	7.4
333.15	1118.1	7.3
338.15	1115.1	7.3
343.15	1112.2	7.2
348.15	1109.3	7.2
353.15	1106.4	7.2

System: 2-hydroxy-N,N,N-trimethylethanaminium (S)-2-hydroxypropanoate; phases: Liquid
Property: Mass density, kg/m3 (Liquid); method: VIBTUB:UFactor:2
Pressure, kPa	Temperature, K	Mass density, kg/m3	uncertainty
100	312.4	1130	7
10000	312.4	1133	7
10000	332.3	1121	7
10000	352.2	1109	7
10000	372.3	1098	7
10000	392.4	1086	7
20000	312.4	1137	7
20000	332.3	1124	7
20000	352.2	1113	7
20000	372.3	1101	7
20000	392.4	1090	7
30000	312.4	1140	7
30000	332.3	1128	7
30000	352.2	1116	7
30000	372.3	1105	7
30000	392.4	1094	7
40000	312.4	1143	8
40000	332.3	1131	7
40000	352.2	1120	7
40000	372.3	1109	7
40000	392.4	1098	7
50000	312.4	1146	8
50000	332.3	1134	8
50000	352.2	1123	7
50000	372.3	1112	7
50000	392.4	1101	7
60000	312.4	1150	8
60000	332.3	1137	8
60000	352.2	1126	8
60000	372.3	1115	7
60000	392.4	1105	7
70000	312.4	1152	8
70000	332.3	1140	8
70000	352.2	1129	8
70000	372.3	1118	8
70000	392.4	1108	7
80000	312.4	1155	8
80000	332.3	1143	8
80000	352.2	1132	8
80000	372.3	1122	8
80000	392.4	1111	7
90000	312.4	1157	8
90000	332.3	1146	8
90000	352.2	1135	8
90000	372.3	1125	8
90000	392.4	1114	8
100000	312.4	1160	9
100000	332.3	1149	8
100000	352.2	1138	8
100000	372.3	1128	8
100000	392.4	1117	8
110000	312.4	1163	9
110000	332.3	1152	9
110000	352.2	1141	8
110000	372.3	1130	8
110000	392.4	1121	8
120000	312.4	1166	9
120000	332.3	1154	9
120000	352.2	1144	9
120000	372.3	1133	8
120000	392.4	1124	8
130000	312.4	1168	9
130000	332.3	1157	9
130000	352.2	1146	9
130000	372.3	1136	8
130000	392.4	1126	8
140000	312.4	1171	9
140000	332.3	1160	9
140000	352.2	1149	9
140000	372.3	1139	9
140000	392.4	1129	8
150000	312.4	1173	10
150000	332.3	1162	9
150000	352.2	1152	9
150000	372.3	1142	9
150000	392.4	1132	9
160000	312.4	1176	10
160000	332.3	1165	10
160000	352.2	1154	9
160000	372.3	1144	9
160000	392.4	1135	9
170000	312.4	1178	10
170000	332.3	1168	10
170000	352.2	1157	9
170000	372.3	1147	9
170000	392.4	1138	9
180000	312.4	1181	10
180000	332.3	1170	10
180000	352.2	1159	10
180000	372.3	1150	9
180000	392.4	1140	9
190000	312.4	1183	10
190000	332.3	1172	10
190000	352.2	1162	10
190000	372.3	1152	10
190000	392.4	1143	9
200000	312.4	1185	11
200000	332.3	1175	10
200000	352.2	1165	10
200000	372.3	1155	10
200000	392.4	1146	10

System: 1-butyl-3-methylimidazolium chloride; phases: Liquid
Fixed: Pressure, kPa = 101.325
Property: Mass density, kg/m3 (Liquid); method: VIBTUB:UFactor:8
Temperature, K	Mass density, kg/m3	uncertainty
348.15	1055.7	2.4
353.15	1053	2.4
358.15	1050.4	2.4
363.15	1047.7	2.4
368.15	1045.1	2.4
373.15	1042.6	2.4

System: 1-butyl-3-methylimidazolium chloride; phases: Liquid
Property: Mass density, kg/m3 (Liquid); method: VIBTUB:UFactor:2
Pressure, kPa	Temperature, K	Mass density, kg/m3	uncertainty
100	352.1	1054	2
10000	352.1	1058	2
10000	372.4	1046	2
10000	392.3	1034	2
10000	412.3	1022	2
10000	432.2	1011	2
10000	452	1000	2
20000	352.1	1062	2
20000	372.4	1050	2
20000	392.3	1038	2
20000	412.3	1027	2
20000	432.2	1016	2
20000	452	1005	2
30000	352.1	1067	2
30000	372.4	1055	2
30000	392.3	1043	2
30000	412.3	1032	2
30000	432.2	1021	2
30000	452	1010	2
40000	352.1	1071	2
40000	372.4	1059	2
40000	392.3	1047	2
40000	412.3	1036	2
40000	432.2	1026	2
40000	452	1015	2
50000	352.1	1074	3
50000	372.4	1063	2
50000	392.3	1052	2
50000	412.3	1041	2
50000	432.2	1030	2
50000	452	1020	2
60000	352.1	1078	3
60000	372.4	1067	3
60000	392.3	1056	2
60000	412.3	1045	2
60000	432.2	1035	2
60000	452	1024	2
70000	352.1	1082	3
70000	372.4	1071	3
70000	392.3	1059	3
70000	412.3	1049	2
70000	432.2	1039	2
70000	452	1028	2
80000	352.1	1085	3
80000	372.4	1074	3
80000	392.3	1063	3
80000	412.3	1053	2
80000	432.2	1043	2
80000	452	1032	2
90000	352.1	1089	3
90000	372.4	1078	3
90000	392.3	1067	3
90000	412.3	1057	3
90000	432.2	1047	2
90000	452	1037	2
100000	352.1	1093	3
100000	372.4	1081	3
100000	392.3	1071	3
100000	412.3	1061	3
100000	432.2	1051	3
100000	452	1041	2
110000	352.1	1096	3
110000	372.4	1085	3
110000	392.3	1075	3
110000	412.3	1064	3
110000	432.2	1055	3
110000	452	1045	3
120000	352.1	1099	3
120000	372.4	1088	3
120000	392.3	1078	3
120000	412.3	1068	3
120000	432.2	1059	3
120000	452	1048	3
130000	352.1	1102	3
130000	372.4	1092	3
130000	392.3	1081	3
130000	412.3	1072	3
130000	432.2	1062	3
130000	452	1052	3
140000	352.1	1106	3
140000	372.4	1095	3
140000	392.3	1085	3
140000	412.3	1076	3
140000	432.2	1066	3
140000	452	1056	3
150000	352.1	1109	3
150000	372.4	1099	3
150000	392.3	1088	3
150000	412.3	1079	3
150000	432.2	1069	3
150000	452	1060	3
160000	352.1	1112	3
160000	372.4	1102	3
160000	392.3	1092	3
160000	412.3	1082	3
160000	432.2	1073	3
160000	452	1063	3
170000	352.1	1115	3
170000	372.4	1105	3
170000	392.3	1095	3
170000	412.3	1086	3
170000	432.2	1076	3
170000	452	1067	3
180000	352.1	1118	3
180000	372.4	1108	3
180000	392.3	1099	3
180000	412.3	1089	3
180000	432.2	1080	3
180000	452	1070	3
190000	352.1	1121	4
190000	372.4	1111	3
190000	392.3	1102	3
190000	412.3	1092	3
190000	432.2	1083	3
190000	452	1074	3
200000	352.1	1124	4
200000	372.4	1115	4
200000	392.3	1105	3
200000	412.3	1096	3
200000	432.2	1087	3
200000	452	1077	3
