Measured thermophysical data. Solubilities of Benzene Carboxylic Acids in Isobutyl Acetate from (299.73 to 353.15) K
Source: J. Chem. Eng. Data, 2011, 10.1021/je101319f
Compound 1: benzoic acid, C7H6O2, InChI=1S/C7H6O2/c8-7(9)6-4-2-1-3-5-6/h1-5H,(H,8,9)
Compound 2: 4-methylbenzoic acid, C8H8O2, InChI=1S/C8H8O2/c1-6-2-4-7(5-3-6)8(9)10/h2-5H,1H3,(H,9,10)
Compound 3: 1,2-benzenedicarboxylic acid, C8H6O4, InChI=1S/C8H6O4/c9-7(10)5-3-1-2-4-6(5)8(11)12/h1-4H,(H,9,10)(H,11,12)
Compound 4: 1,3-benzenedicarboxylic acid, C8H6O4, InChI=1S/C8H6O4/c9-7(10)5-2-1-3-6(4-5)8(11)12/h1-4H,(H,9,10)(H,11,12)
Compound 5: 1,4-benzenedicarboxylic acid, C8H6O4, InChI=1S/C8H6O4/c9-7(10)5-1-2-6(4-3-5)8(11)12/h1-4H,(H,9,10)(H,11,12)
Compound 6: 2-methylpropyl ethanoate, C6H12O2, InChI=1S/C6H12O2/c1-5(2)4-8-6(3)7/h5H,4H2,1-3H3

System: benzoic acid + 2-methylpropyl ethanoate; phases: Liquid, Crystal
Fixed: Pressure, kPa = 101
Property: Mole fraction of benzoic acid (Liquid); method: laser light
Temperature, K	Mole fraction of benzoic acid	uncertainty
299.73	0.14	0.002
302.46	0.149	0.002
307.34	0.178	0.002
313.61	0.208	0.002
322.93	0.254	0.002
328.98	0.293	0.002
332.24	0.311	0.002
334.34	0.325	0.002
335.58	0.337	0.002
336.03	0.338	0.002
337.33	0.349	0.003
337.67	0.351	0.002
338.76	0.358	0.003
339.37	0.362	0.003
339.86	0.369	0.003
341.48	0.379	0.003
342.69	0.39	0.003
343.67	0.399	0.003

System: 4-methylbenzoic acid + 2-methylpropyl ethanoate; phases: Liquid, Crystal
Fixed: Pressure, kPa = 101
Property: Mole fraction of 4-methylbenzoic acid (Liquid); method: laser light
Temperature, K	Mole fraction of 4-methylbenzoic acid	uncertainty
300.19	0.0328	0.0012
303.04	0.0338	0.0012
306.43	0.0356	0.0012
310.28	0.0421	0.0012
312.7	0.0434	0.0012
315.36	0.0475	0.0012
319.97	0.0525	0.0012
323.16	0.0573	0.0012
324.84	0.0612	0.0012
325.76	0.0653	0.0013
329.67	0.0692	0.0012
332.48	0.0735	0.0012
333.91	0.0774	0.0012
335.96	0.0813	0.0012
337.49	0.0848	0.0012
339.46	0.0885	0.0012
341.07	0.0918	0.0012
342.68	0.0954	0.0012
344.69	0.0994	0.0013
345.82	0.1031	0.0013
347.26	0.1067	0.0013
348.41	0.11	0.0013

System: 1,2-benzenedicarboxylic acid + 2-methylpropyl ethanoate; phases: Liquid, Crystal
Fixed: Pressure, kPa = 101
Property: Mole fraction of 1,2-benzenedicarboxylic acid (Liquid); method: laser light
Temperature, K	Mole fraction of 1,2-benzenedicarboxylic acid	uncertainty
300.68	0.0011	0.0004
302.37	0.0012	0.0004
304.42	0.0012	0.0004
309.58	0.0016	0.0004
312.72	0.0022	0.0004
317.36	0.0026	0.0004
326.85	0.0032	0.0004
331.86	0.0037	0.0004
335.27	0.005	0.0004
340.04	0.0062	0.0004
342.69	0.0077	0.0004
348.7	0.0092	0.0004

System: 2-methylpropyl ethanoate + 1,3-benzenedicarboxylic acid; phases: Liquid, Crystal
Fixed: Pressure, kPa = 101
Property: Mole fraction of 2-methylpropyl ethanoate (Liquid); method: UV spectroscopy
Temperature, K	Mole fraction of 2-methylpropyl ethanoate	uncertainty
308.15	0.000352	0.0001
313.15	0.000388	0.0001
318.15	0.000438	0.0001
323.15	0.000507	0.0001
328.15	0.000691	0.0001
333.15	0.000917	0.0001
338.15	0.0013	0.0001
343.15	0.001663	0.0001
348.15	0.002009	0.0001
353.15	0.002209	0.0001

System: 1,4-benzenedicarboxylic acid + 2-methylpropyl ethanoate; phases: Liquid, Crystal
Fixed: Pressure, kPa = 101
Property: Mole fraction of 2-methylpropyl ethanoate (Liquid); method: UV spectroscopy
Temperature, K	Mole fraction of 2-methylpropyl ethanoate	uncertainty
305.15	2.38e-05	4e-06
308.15	2.57e-05	4e-06
313.15	3.22e-05	4e-06
318.15	3.41e-05	4e-06
323.15	3.86e-05	4e-06
328.15	5.78e-05	4e-06
333.15	7.07e-05	4e-06
338.15	8.25e-05	4e-06
343.15	8.91e-05	4e-06
348.15	0.0001043	4e-06
