Measured thermophysical data. Vapor-Liquid Equilibrium for the Binary System of N,N-Dimethylaniline with 2-Amino-3-methylpyridine
Source: J. Chem. Eng. Data, 2011, 10.1021/je101180r
Compound 1: N,N-dimethylaniline, C8H11N, InChI=1S/C8H11N/c1-9(2)8-6-4-3-5-7-8/h3-7H,1-2H3, purity 99%
Compound 2: 2-amino-3-methylpyridine, C6H8N2, InChI=1S/C6H8N2/c1-5-3-2-4-8-6(5)7/h2-4H,1H3,(H2,7,8)

System: N,N-dimethylaniline; phases: Liquid, Gas
Property: Vapor or sublimation pressure, kPa (Liquid); method: Ebulliometric method (Recirculating still)
Temperature, K	Vapor or sublimation pressure, kPa	uncertainty
373.7	5.158	0.11
384.96	8.041	0.184

System: 2-amino-3-methylpyridine; phases: Liquid, Gas
Property: Vapor or sublimation pressure, kPa (Liquid); method: Ebulliometric method (Recirculating still)
Temperature, K	Vapor or sublimation pressure, kPa	uncertainty
402.57	5.158	0.11
413.74	8.041	0.18

System: N,N-dimethylaniline + 2-amino-3-methylpyridine; phases: Liquid, Gas
Property: Boiling temperature at pressure P, K (Liquid); method: Ebulliometric method (Recirculating still)
Mole fraction of N,N-dimethylaniline	Pressure, kPa	Boiling temperature at pressure P, K	uncertainty
0	5.158	402.57	0.43
0	8.041	413.74	0.45
0.0442	5.158	399.15	0.87
0.0515	8.041	410.02	0.83
0.0707	5.158	397.3	0.75
0.0834	8.041	408.01	0.75
0.1203	5.158	394.48	0.65
0.1311	8.041	405.29	0.74
0.1768	8.041	402.6	0.68
0.1873	5.158	391.6	0.56
0.2445	8.041	399.32	0.58
0.2624	5.158	388.93	0.52
0.3208	8.041	396.73	0.52
0.3401	5.158	386.21	0.49
0.4115	5.158	384.35	0.46
0.4115	8.041	394.02	0.48
0.4888	5.158	382.32	0.44
0.5089	8.041	391.67	0.45
0.5875	5.158	380.27	0.42
0.6795	8.041	389.01	0.44
0.7342	5.158	378.15	0.42
0.8123	8.041	387.03	0.44
0.8633	5.158	376.15	0.43
0.9445	8.041	385.74	0.47
1	5.158	373.7	0.43
1	8.041	384.96	0.46

System: N,N-dimethylaniline + 2-amino-3-methylpyridine; phases: Gas, Liquid
Property: Mole fraction of N,N-dimethylaniline (Gas); method: CHROM:UFactor:2
Mole fraction of N,N-dimethylaniline	Pressure, kPa	Mole fraction of N,N-dimethylaniline	uncertainty
0	5.158	0	
0	8.041	0	
0.0442	5.158	0.1724	0.0379
0.0515	8.041	0.1855	0.0348
0.0707	5.158	0.2552	0.0282
0.0834	8.041	0.2742	0.0272
0.1203	5.158	0.3726	0.0232
0.1311	8.041	0.3845	0.0244
0.1768	8.041	0.4715	0.0204
0.1873	5.158	0.4886	0.0202
0.2445	8.041	0.5625	0.0176
0.2624	5.158	0.5873	0.0175
0.3208	8.041	0.6439	0.0157
0.3401	5.158	0.6721	0.015
0.4115	5.158	0.7231	0.0133
0.4115	8.041	0.7295	0.0137
0.4888	5.158	0.7737	0.0124
0.5089	8.041	0.7892	0.0119
0.5875	5.158	0.8234	0.0116
0.6795	8.041	0.8597	0.0112
0.7342	5.158	0.8868	0.0111
0.8123	8.041	0.9123	0.0109
0.8633	5.158	0.939	0.011
0.9445	8.041	0.9648	0.011
1	5.158	1	
1	8.041	1	
