Measured thermophysical data. Measurement and Correlation of Solubility of Cefuroxime Acid in Pure and Binary Solvents at Various Temperatures
Source: J. Chem. Eng. Data, 2010, 10.1021/je100397q
Compound 1: cefuroxime acid, C16H16N4O8S, InChI=1S/C16H16N4O8S/c1-26-19-9(8-3-2-4-27-8)12(21)18-10-13(22)20-11(15(23)24)7(5-28-16(17)25)6-29-14(10)20/h2-4,10,14H,5-6H2,1H3,(H2,17,25)(H,18,21)(H,23,24)/b19-9-/t10-,14-/m1/s1, purity 99.1%
Compound 2: ethanol, C2H6O, InChI=1S/C2H6O/c1-2-3/h3H,2H2,1H3, purity 99.98%
Compound 3: propan-2-ol, C3H8O, InChI=1S/C3H8O/c1-3(2)4/h3-4H,1-2H3, purity 99.94%
Compound 4: acetone, C3H6O, InChI=1S/C3H6O/c1-3(2)4/h1-2H3, purity 99.46%
Compound 5: water, H2O, InChI=1S/H2O/h1H2, purity 99.99%

System: water + cefuroxime acid; phases: Liquid, Crystal
Fixed: Pressure, kPa = 101
Property: Mole fraction of cefuroxime acid (Liquid); method: Laser Monitoring Observation Technique
Temperature, K	Mole fraction of cefuroxime acid	uncertainty
278.5	3e-05	1e-05
283.4	4e-05	1e-05
288.3	4e-05	1e-05
293.3	6e-05	1e-05
298.3	7e-05	1e-05
303.5	0.00012	1e-05
308.3	0.00022	2e-05
313.4	0.00026	3e-05

System: acetone + cefuroxime acid; phases: Liquid, Crystal
Fixed: Pressure, kPa = 101
Property: Mole fraction of cefuroxime acid (Liquid); method: Laser Monitoring Observation Technique
Temperature, K	Mole fraction of cefuroxime acid	uncertainty
278.5	0.00361	0.00035
283.4	0.00359	0.00035
288.3	0.00354	0.00034
293.3	0.00341	0.00033
298.3	0.00336	0.00033
303.5	0.0033	0.00032
308.3	0.00326	0.00032
313.4	0.00323	0.00031

System: ethanol + cefuroxime acid; phases: Liquid, Crystal
Fixed: Pressure, kPa = 101
Property: Mole fraction of cefuroxime acid (Liquid); method: Laser Monitoring Observation Technique
Temperature, K	Mole fraction of cefuroxime acid	uncertainty
278.5	0.00019	2e-05
283.4	0.00022	2e-05
288.3	0.00028	3e-05
293.3	0.00032	3e-05
298.3	0.00037	4e-05
303.5	0.00052	5e-05
308.3	0.00056	6e-05
313.4	0.00061	6e-05

System: propan-2-ol + cefuroxime acid; phases: Liquid, Crystal
Fixed: Pressure, kPa = 101
Property: Mole fraction of cefuroxime acid (Liquid); method: Laser Monitoring Observation Technique
Temperature, K	Mole fraction of cefuroxime acid	uncertainty
278.5	6e-05	1e-05
283.4	9e-05	1e-05
288.3	0.00011	1e-05
293.3	0.00012	1e-05
298.3	0.00012	1e-05
303.5	0.00015	2e-05
308.3	0.00027	3e-05
313.4	0.00032	3e-05

System: acetone + water + cefuroxime acid; phases: Liquid, Crystal
Fixed: Pressure, kPa = 101
Property: Mole fraction of cefuroxime acid (Liquid); method: Laser Monitoring Observation Technique
Temperature, K	Solvent: Mole fraction of acetone	Mole fraction of cefuroxime acid	uncertainty
278.5	0	3e-05	1e-05
278.5	0.277	0.00313	0.00039
278.5	0.474	0.0109	0.0011
278.5	0.596	0.0147	0.0015
278.5	0.693	0.0186	0.0018
278.5	0.768	0.0177	0.0018
278.5	1	0.00361	0.00035
283.4	0	4e-05	1e-05
283.4	0.267	0.00357	0.00043
283.4	0.464	0.0116	0.0012
283.4	0.597	0.0154	0.0015
283.4	0.71	0.019	0.0019
283.4	0.792	0.0174	0.0018
283.4	1	0.00359	0.00035
288.3	0	4e-05	1e-05
288.3	0.274	0.00474	0.00056
288.3	0.477	0.0149	0.0015
288.3	0.595	0.0193	0.0019
288.3	0.709	0.0191	0.0019
288.3	0.791	0.0162	0.0017
288.3	1	0.00354	0.00034
293.3	0	6e-05	1e-05
293.3	0.278	0.00583	0.00067
293.3	0.47	0.0163	0.0017
293.3	0.601	0.02	0.002
293.3	0.699	0.0192	0.0019
293.3	0.783	0.0158	0.0016
293.3	1	0.00341	0.00033
298.3	0	7e-05	1e-05
298.3	0.274	0.00653	0.00075
298.3	0.471	0.0174	0.0018
298.3	0.601	0.0206	0.002
298.3	0.705	0.0194	0.0019
298.3	0.772	0.0159	0.0017
298.3	1	0.00336	0.00033
303.5	0	0.00012	1e-05
303.5	0.277	0.00692	0.00078
303.5	0.47	0.0175	0.0018
303.5	0.594	0.0202	0.002
303.5	0.704	0.0196	0.0019
303.5	0.783	0.0158	0.0016
303.5	1	0.0033	0.00032
308.3	0	0.00022	2e-05
308.3	0.272	0.00774	0.00087
308.3	0.464	0.0186	0.0019
308.3	0.586	0.0221	0.0022
308.3	0.699	0.02	0.002
308.3	0.786	0.0158	0.0016
308.3	1	0.00326	0.00032
313.4	0	0.00026	3e-05
313.4	0.279	0.00977	0.00107
313.4	0.475	0.0199	0.002
313.4	0.592	0.0217	0.0021
313.4	0.698	0.0203	0.002
313.4	0.777	0.0152	0.0016
313.4	1	0.00323	0.00031

System: ethanol + acetone + cefuroxime acid; phases: Liquid, Crystal
Fixed: Pressure, kPa = 101
Property: Mole fraction of cefuroxime acid (Liquid); method: Laser Monitoring Observation Technique
Temperature, K	Solvent: Mole fraction of acetone	Mole fraction of cefuroxime acid	uncertainty
278.5	0	0.00019	2e-05
278.5	0.158	0.00137	0.00018
278.5	0.337	0.00421	0.00044
278.5	0.548	0.00714	0.0007
278.5	0.769	0.0078	0.00077
278.5	1	0.00361	0.00035
283.4	0	0.00022	2e-05
283.4	0.161	0.00145	0.00019
283.4	0.338	0.00432	0.00045
283.4	0.55	0.00719	0.00071
283.4	0.764	0.00775	0.00076
283.4	1	0.00359	0.00035
288.3	0	0.00028	3e-05
288.3	0.16	0.00157	0.00019
288.3	0.337	0.00425	0.00044
288.3	0.556	0.00728	0.00071
288.3	0.772	0.00752	0.00074
288.3	1	0.00354	0.00034
293.3	0	0.00032	3e-05
293.3	0.178	0.00172	0.00021
293.3	0.356	0.00454	0.00047
293.3	0.551	0.0073	0.00071
293.3	0.771	0.0073	0.00072
293.3	1	0.00341	0.00033
298.3	0	0.00037	4e-05
298.3	0.182	0.00201	0.00023
298.3	0.339	0.00427	0.00044
298.3	0.55	0.00731	0.00072
298.3	0.772	0.00689	0.00068
298.3	1	0.00336	0.00033
303.5	0	0.00052	5e-05
303.5	0.175	0.00198	0.00023
303.5	0.359	0.00461	0.00047
303.5	0.552	0.00737	0.00072
303.5	0.767	0.00678	0.00067
303.5	1	0.0033	0.00032
308.3	0	0.00056	6e-05
308.3	0.162	0.00233	0.00026
308.3	0.341	0.0051	0.00052
308.3	0.553	0.00757	0.00074
308.3	0.807	0.00659	0.00065
308.3	1	0.00326	0.00032
313.4	0	0.00061	6e-05
313.4	0.175	0.00241	0.00027
313.4	0.356	0.0053	0.00054
313.4	0.551	0.00762	0.00074
313.4	0.777	0.00649	0.00064
313.4	1	0.00323	0.00031

System: propan-2-ol + acetone + cefuroxime acid; phases: Liquid, Crystal
Fixed: Pressure, kPa = 101
Property: Mole fraction of cefuroxime acid (Liquid); method: Laser Monitoring Observation Technique
Temperature, K	Solvent: Mole fraction of acetone	Mole fraction of cefuroxime acid	uncertainty
278.5	0	6e-05	1e-05
278.5	0.202	0.00052	7e-05
278.5	0.401	0.00179	0.00019
278.5	0.618	0.00409	0.00041
278.5	0.81	0.00551	0.00054
278.5	1	0.00361	0.00035
283.4	0	9e-05	1e-05
283.4	0.203	0.00058	7e-05
283.4	0.406	0.00198	0.00021
283.4	0.616	0.00424	0.00042
283.4	0.813	0.00546	0.00053
283.4	1	0.00359	0.00035
288.3	0	0.00011	1e-05
288.3	0.199	0.00069	9e-05
288.3	0.402	0.00223	0.00023
288.3	0.617	0.0043	0.00043
288.3	0.815	0.00543	0.00053
288.3	1	0.00354	0.00034
293.3	0	0.00012	1e-05
293.3	0.2	0.00075	9e-05
293.3	0.403	0.00249	0.00026
293.3	0.613	0.00435	0.00043
293.3	0.811	0.0053	0.00052
293.3	1	0.00341	0.00033
298.3	0	0.00012	1e-05
298.3	0.196	0.00083	0.0001
298.3	0.398	0.00254	0.00026
298.3	0.618	0.00439	0.00043
298.3	0.815	0.00492	0.00048
298.3	1	0.00336	0.00033
303.5	0	0.00015	2e-05
303.5	0.202	0.00088	0.00011
303.5	0.401	0.0026	0.00027
303.5	0.621	0.0045	0.00044
303.5	0.81	0.00485	0.00047
303.5	1	0.0033	0.00032
308.3	0	0.00027	3e-05
308.3	0.201	0.00091	0.00011
308.3	0.407	0.00267	0.00027
308.3	0.617	0.0045	0.00044
308.3	0.814	0.0048	0.00047
308.3	1	0.00326	0.00032
313.4	0	0.00032	3e-05
313.4	0.199	0.0011	0.00012
313.4	0.404	0.00277	0.00028
313.4	0.619	0.00462	0.00045
313.4	0.809	0.00465	0.00045
313.4	1	0.00323	0.00031
