Measured thermophysical data. Accurate P-rho-T Data and Phase Boundary Determination for a Synthetic Residual Natural Gas Mixture
Source: J. Chem. Eng. Data, 2011, 10.1021/je100500t
Compound 1: methane, CH4, InChI=1S/CH4/h1H4, purity 99.99%
Compound 2: ethane, C2H6, InChI=1S/C2H6/c1-2/h1-2H3, purity 99.99%
Compound 3: propane, C3H8, InChI=1S/C3H8/c1-3-2/h3H2,1-2H3, purity 99.99%

System: methane + ethane + propane; phases: Gas, Liquid
Fixed: Mole fraction of ethane = 0.03961
Fixed: Mole fraction of methane = 0.95039
Property: Vapor or sublimation pressure, kPa (Gas); method: ISOPVT
Temperature, K	Vapor or sublimation pressure, kPa	uncertainty
203.15	2127	3
205.999	2735	4
206.54	5972	8
208.174	3436	5
208.34	5734	8
209.756	5224	7
209.879	4350	6

System: methane + ethane + propane; phases: Liquid, Gas
Fixed: Mole fraction of ethane = 0.03961
Fixed: Mole fraction of methane = 0.95039
Property: Mass density, kg/m3 (Liquid); method: ISOCHOR
Temperature, K	Mass density, kg/m3	uncertainty
203.15	25.282	0.026
205.999	33.847	0.035
206.54	165.779	0.171
208.174	45.158	0.046
208.34	125.294	0.129
209.756	90.963	0.094
209.879	63.619	0.065

System: methane + ethane + propane; phases: Fluid (supercritical or subcritical phases)
Fixed: Mole fraction of methane = 0.95039
Fixed: Mole fraction of ethane = 0.03961
Property: Mass density, kg/m3 (Fluid (supercritical or subcritical phases)); method: Buoyancy - hydrostatic balance with magnetic suspension - one sinker
Temperature, K	Pressure, kPa	Mass density, kg/m3	uncertainty
300	4965	36.976	0.039
300	5998	45.559	0.047
300	6994	54.107	0.056
300	8002	63.008	0.066
300	9998	81.252	0.085
300	12427	103.999	0.108
300	14992	127.615	0.132
300	20017	168.796	0.174
300	25012	200.944	0.206
300	30021	225.761	0.23
300	44944	274.513	0.279
300	49920	285.997	0.29
300	50254	286.701	0.291
350	2002	11.854	0.013
350	4998	30.447	0.032
350	10001	63.246	0.066
350	19987	128.08	0.132
350	30019	180.47	0.185
350	39996	218.303	0.223
350	49953	246.399	0.251
350	69915	286.052	0.291
350	79946	301.044	0.306
350	99921	325.172	0.33
350	119976	344.39	0.349
350	139909	360.259	0.365
350	149927	367.348	0.372
350	169848	380.063	0.385
400	4999	25.994	0.027
400	10004	52.804	0.055
400	19992	104.944	0.108
400	30035	150.199	0.154
400	40009	186.143	0.19
400	49929	214.526	0.219
400	59959	237.631	0.242
400	69948	256.657	0.261
400	79919	272.755	0.277
400	89963	286.787	0.291
400	99971	299.071	0.304
400	119622	319.587	0.324
400	139783	337.056	0.342

System: methane + ethane + propane; phases: Fluid (supercritical or subcritical phases)
Fixed: Mole fraction of methane = 0.95039
Fixed: Mole fraction of ethane = 0.03961
Property: Mass density, kg/m3 (Fluid (supercritical or subcritical phases)); method: ISOCHOR
Temperature, K	Pressure, kPa	Mass density, kg/m3	uncertainty
204.15	2141	25.28	0.027
205.15	2155	25.279	0.027
206.15	2169	25.277	0.027
206.15	2738	33.845	0.036
207.15	2183	25.276	0.027
207.15	2758	33.843	0.036
207.15	6063	165.763	0.182
208.15	6203	165.751	0.203
208.151	2779	33.841	0.036
208.154	2197	25.274	0.027
208.65	2204	25.273	0.027
208.65	2788	33.84	0.036
208.65	6278	165.745	0.2
209.15	2211	25.273	0.027
209.15	2798	33.839	0.036
209.15	3464	45.154	0.048
209.15	5821	125.281	0.144
209.15	6342	165.739	0.201
209.65	2218	25.272	0.027
210.15	2225	25.271	0.027
210.15	2817	33.837	0.036
210.15	3492	45.151	0.048
210.15	4363	63.616	0.074
210.15	5249	90.957	0.115
210.15	5916	125.273	0.144
210.65	2828	33.836	0.036
210.65	3506	45.149	0.048
210.65	4384	63.614	0.071
210.65	5284	90.954	0.113
211.15	2240	25.269	0.027
211.15	2838	33.835	0.036
211.15	3521	45.148	0.048
211.15	4405	63.612	0.071
211.15	5317	90.95	0.106
211.15	6013	125.264	0.148
211.65	2847	33.834	0.036
211.65	3535	45.147	0.048
211.65	4427	63.61	0.074
211.65	5350	90.947	0.103
212.15	3550	45.145	0.049
212.15	4448	63.608	0.069
212.15	6114	125.255	0.148
212.65	4470	63.606	0.074
213.15	2267	25.266	0.027
213.15	4491	63.603	0.079
213.15	5452	90.938	0.101
213.15	6219	125.246	0.149
213.65	4512	63.601	0.068
214.15	4534	63.599	0.077
223.15	3075	33.809	0.036
223.15	3859	45.113	0.048
223.15	4915	63.562	0.068
223.15	6112	90.877	0.099
223.15	7224	125.158	0.138
223.15	8340	165.569	0.181
223.151	2413	25.251	0.027
243.15	2690	25.22	0.027
243.15	3468	33.767	0.036
243.15	4405	45.056	0.048
243.15	5746	63.48	0.068
243.15	7406	90.755	0.097
243.15	11250	165.324	0.176
243.151	9167	124.982	0.133
263.15	2969	25.189	0.027
263.15	3856	33.725	0.036
263.15	6557	63.397	0.067
263.15	8678	90.633	0.096
263.15	11115	124.807	0.132
263.15	14157	165.08	0.174
263.151	4944	44.999	0.048
283.15	3245	25.158	0.026
283.15	4236	33.683	0.035
283.15	5473	44.943	0.047
283.15	7357	63.315	0.067
283.15	9933	90.511	0.096
283.15	13034	124.632	0.131
283.15	17046	164.838	0.173
303.15	3517	25.127	0.026
303.15	4613	33.642	0.035
303.15	5999	44.886	0.047
303.15	8147	63.234	0.067
303.15	11166	90.39	0.095
303.15	14927	124.459	0.131
303.15	19908	164.601	0.172
