Measured thermophysical data. Measurement and Modeling of the High-Pressure Phase Behavior of the Carbon Dioxide + Propene Oxide Binary System
Source: J. Chem. Eng. Data, 2010, 10.1021/je100142g
Compound 1: methyloxirane, C3H6O, InChI=1S/C3H6O/c1-3-2-4-3/h3H,2H2,1H3
Compound 2: carbon dioxide, CO2, InChI=1S/CO2/c2-1-3

System: methyloxirane + carbon dioxide; phases: Liquid, Gas
Property: Vapor or sublimation pressure, kPa (Liquid); method: CCELL:UFactor:16
Temperature, K	Mole fraction of carbon dioxide	Vapor or sublimation pressure, kPa	uncertainty
303.15	0.1	588	30
303.15	0.2	1034	52
303.15	0.32	1789	89
303.15	0.4	2290	114
303.15	0.5	2964	147
303.15	0.6	3781	188
303.15	0.7	4337	215
313.15	0.1	980	49
313.15	0.2	1545	77
313.15	0.32	2417	120
313.15	0.4	2973	148
313.15	0.5	3684	183
313.15	0.6	4418	220
313.15	0.7	5236	260
323.15	0.1	1100	55
323.15	0.2	1836	91
323.15	0.32	2862	142
323.15	0.4	3479	173
323.15	0.5	4390	218
323.15	0.6	5242	260
323.15	0.7	6089	302
333.15	0.1	1239	62
333.15	0.2	2165	108
333.15	0.32	3345	166
333.15	0.4	4046	201
333.15	0.5	5132	255
333.15	0.6	6110	303
333.15	0.7	7038	349
343.15	0.1	1530	76
343.15	0.2	2542	126
343.15	0.32	3785	188
343.15	0.4	4704	234
343.15	0.5	5792	288
343.15	0.6	6965	346
343.15	0.7	8079	401
353.15	0.1	1728	86
353.15	0.2	3040	151
353.15	0.32	4328	215
353.15	0.4	5306	264
353.15	0.5	6586	327
353.15	0.6	7731	384
353.15	0.7	9012	447
