Measured thermophysical data. Density and Viscosity of Aqueous (Piperazine + Carbon Dioxide) Solutions
Source: J. Chem. Eng. Data, 2011, 10.1021/je1012263
Compound 1: piperazine, C4H10N2, InChI=1S/C4H10N2/c1-2-6-4-3-5-1/h5-6H,1-4H2
Compound 2: water, H2O, InChI=1S/H2O/h1H2
Compound 3: carbon dioxide, CO2, InChI=1S/CO2/c2-1-3

System: piperazine + water; phases: Liquid
Fixed: Molality, mol/kg of piperazine = 1.67
Fixed: Pressure, kPa = 101
Property: Viscosity, Pa*s (Liquid); method: CONPLT:UFactor:2
Temperature, K	Viscosity, Pa*s	uncertainty
298.15	0.001877	4.4e-05
313.15	0.001307	3.2e-05
333.15	0.000895	2.3e-05

System: piperazine + water; phases: Liquid
Fixed: Molality, mol/kg of piperazine = 1.67
Fixed: Pressure, kPa = 101
Property: Mass density, kg/m3 (Liquid); method: VIBTUB:UFactor:8
Temperature, K	Mass density, kg/m3	uncertainty
293.15	1006.7	0.3
313.15	999.4	0.3
333.15	989.1	0.3

System: piperazine + carbon dioxide + water; phases: Liquid
Fixed: Pressure, kPa = 101
Property: Viscosity, Pa*s (Liquid); method: CONPLT:UFactor:2
Temperature, K	Molality, mol/kg of piperazine	Molality, mol/kg of carbon dioxide	Viscosity, Pa*s	uncertainty
298.15	1.55	1.516	0.001968	4.6e-05
298.15	1.57	1.416	0.001977	4.6e-05
298.15	1.58	1.246	0.001971	4.6e-05
298.15	1.59	1.08	0.001961	4.6e-05
298.15	1.61	0.728	0.00193	4.5e-05
298.15	1.61	0.894	0.001952	4.6e-05
298.15	1.63	0.545	0.001917	4.5e-05
298.15	1.64	0.186	0.001896	4.5e-05
298.15	1.64	0.366	0.00191	4.5e-05
298.15	1.67	0	0.001877	4.4e-05
298.15	3.01	3.182	0.00601	0.000135
298.15	3.03	3.023	0.005941	0.000134
298.15	3.06	2.822	0.005927	0.000133
298.15	3.11	2.504	0.005872	0.000132
298.15	3.16	2.216	0.005457	0.000123
298.15	3.21	1.78	0.005336	0.00012
298.15	3.68	3.397	0.01282	0.00029
298.15	3.72	3.023	0.0126	0.00029
298.15	3.81	2.815	0.01234	0.00027
298.15	3.86	2.495	0.0116	0.00026
298.15	3.93	2.091	0.01134	0.00038
298.15	4.01	1.726	0.01085	0.00024
298.15	4.14	3.695	0.02672	0.0006
298.15	4.24	3.471	0.02534	0.00056
298.15	4.33	3.169	0.02399	0.00055
298.15	4.41	2.714	0.0231	0.00053
298.15	4.41	3.726	0.03748	0.00083
298.15	4.52	2.347	0.02203	0.00049
298.15	4.59	1.879	0.02082	0.00064
298.15	4.69	3.343	0.03545	0.00122
298.15	4.73	2.875	0.03342	0.00074
298.15	4.73	3.985	0.06322	0.0014
298.15	4.8	2.436	0.03137	0.00098
298.15	4.85	3.62	0.06017	0.0013
298.15	4.96	3.169	0.05722	0.00157
298.15	5.07	2.697	0.05268	0.00108
298.15	5.23	2.65	0.04935	0.00108
298.15	6.47	3.137	0.5343	0.0512
298.15	6.53	2.577	0.3731	0.0304
298.15	6.7	2.123	0.3041	0.0223
313.15	1.55	1.516	0.001468	3.5e-05
313.15	1.57	1.416	0.001455	3.5e-05
313.15	1.58	1.246	0.001439	3.5e-05
313.15	1.59	1.08	0.001423	3.4e-05
313.15	1.61	0.728	0.001386	3.4e-05
313.15	1.61	0.894	0.001414	3.4e-05
313.15	1.63	0.545	0.001371	3.3e-05
313.15	1.64	0.186	0.001334	3.3e-05
313.15	1.64	0.366	0.001348	3.3e-05
313.15	1.67	0	0.001307	3.2e-05
313.15	3.01	3.182	0.003751	8.6e-05
313.15	3.03	3.023	0.003752	8.5e-05
313.15	3.06	2.822	0.003689	8.4e-05
313.15	3.11	2.504	0.003612	8.2e-05
313.15	3.16	2.216	0.003464	7.9e-05
313.15	3.21	1.78	0.003346	7.6e-05
313.15	3.25	1.433	0.003231	7.3e-05
313.15	3.68	3.397	0.007854	0.000176
313.15	3.72	3.023	0.007617	0.000172
313.15	3.81	2.815	0.007222	0.000162
313.15	3.86	2.495	0.006929	0.000156
313.15	3.93	2.091	0.006484	0.000168
313.15	4.01	1.726	0.006347	0.000142
313.15	4.14	3.695	0.01521	0.00034
313.15	4.24	3.471	0.01462	0.00033
313.15	4.33	3.169	0.0139	0.00031
313.15	4.41	2.714	0.0126	0.00028
313.15	4.41	3.726	0.02118	0.00048
313.15	4.52	2.347	0.01209	0.00027
313.15	4.59	1.879	0.01109	0.00028
313.15	4.69	3.343	0.01989	0.0005
313.15	4.73	2.875	0.01808	0.0004
313.15	4.73	3.985	0.03343	0.00075
313.15	4.8	2.436	0.01692	0.00043
313.15	4.85	3.62	0.03142	0.0007
313.15	4.96	3.169	0.02718	0.00064
313.15	5.07	2.697	0.02601	0.00058
313.15	5.23	2.65	0.02362	0.00053
313.15	6.47	3.137	0.1389	0.0061
313.15	6.53	2.577	0.1203	0.0047
313.15	6.7	2.123	0.09561	0.00303
333.15	1.57	1.416	0.001043	2.6e-05
333.15	1.58	1.246	0.001021	2.6e-05
333.15	1.59	1.08	0.001015	2.6e-05
333.15	1.61	0.728	0.000984	2.5e-05
333.15	1.61	0.894	0.000984	2.5e-05
333.15	1.63	0.545	0.000942	2.4e-05
333.15	1.64	0.186	0.000906	2.3e-05
333.15	1.64	0.366	0.000933	2.4e-05
333.15	1.67	0	0.000895	2.3e-05
333.15	3.01	3.182	0.002502	5.8e-05
333.15	3.03	3.023	0.002366	5.5e-05
333.15	3.06	2.822	0.002309	5.4e-05
333.15	3.11	2.504	0.00223	5.2e-05
333.15	3.16	2.216	0.002144	5e-05
333.15	3.21	1.78	0.002028	4.8e-05
333.15	3.25	1.433	0.001946	4.6e-05
333.15	3.68	3.397	0.00527	0.000119
333.15	3.72	3.023	0.004849	0.00011
333.15	3.81	2.815	0.00481	0.000108
333.15	3.86	2.495	0.004218	9.6e-05
333.15	3.93	2.091	0.00372	8.8e-05
333.15	4.01	1.726	0.003543	8e-05
333.15	4.14	3.695	0.01024	0.00023
333.15	4.24	3.471	0.009162	0.000204
333.15	4.33	3.169	0.008442	0.000189
333.15	4.41	2.714	0.007562	0.00017
333.15	4.41	3.726	0.01188	0.00026
333.15	4.52	2.347	0.006318	0.000143
333.15	4.59	1.879	0.005659	0.000132
333.15	4.69	3.343	0.01106	0.00026
333.15	4.73	2.875	0.009781	0.000217
333.15	4.73	3.985	0.01832	0.00041
333.15	4.8	2.436	0.009084	0.000212
333.15	4.85	3.62	0.01511	0.00034
333.15	4.96	3.169	0.01334	0.00031
333.15	5.07	2.697	0.01178	0.00026
333.15	5.23	2.65	0.01022	0.00023
333.15	6.47	3.137	0.05714	0.0012
333.15	6.53	2.577	0.04088	0.00091
333.15	6.7	2.123	0.03	0.00067

System: piperazine + carbon dioxide + water; phases: Liquid
Fixed: Pressure, kPa = 101
Property: Mass density, kg/m3 (Liquid); method: VIBTUB:UFactor:8
Temperature, K	Molality, mol/kg of piperazine	Molality, mol/kg of carbon dioxide	Mass density, kg/m3	uncertainty
293.15	1.55	1.516	1068.8	0.5
293.15	1.57	1.416	1064.4	0.5
293.15	1.58	1.246	1058.1	0.5
293.15	1.59	1.08	1051.5	0.4
293.15	1.61	0.728	1037.3	0.4
293.15	1.61	0.894	1044.1	0.4
293.15	1.63	0.545	1029.9	0.4
293.15	1.64	0.186	1014.6	0.3
293.15	1.64	0.366	1022.2	0.4
293.15	1.67	0	1006.7	0.3
293.15	3.01	3.182	1136.9	0.7
293.15	3.03	3.023	1127.8	0.7
293.15	3.06	2.822	1122.3	0.7
293.15	3.11	2.504	1111.1	0.6
293.15	3.16	2.216	1099.2	0.6
293.15	3.21	1.78	1087.4	0.5
293.15	3.25	1.433	1074.9	0.5
293.15	3.33	0.991	1062.2	0.5
293.15	3.36	0.753	1049.3	0.4
293.15	3.68	3.397	1159.6	0.8
293.15	3.72	3.023	1147.3	0.7
293.15	3.81	2.815	1134.1	0.7
293.15	3.86	2.495	1120.6	0.7
293.15	3.9	3.617	1173.4	0.8
293.15	3.93	2.091	1106.1	0.6
293.15	3.98	3.297	1160.1	0.8
293.15	4.01	1.726	1092.3	0.6
293.15	4.11	1.281	1076.9	0.5
293.15	4.11	2.917	1145.7	0.7
293.15	4.12	2.563	1130.8	0.7
293.15	4.14	3.695	1181.6	0.9
293.15	4.24	3.471	1168.7	0.8
293.15	4.26	2.15	1116.2	0.6
293.15	4.28	1.722	1100.7	0.6
293.15	4.33	3.169	1155.2	0.8
293.15	4.41	2.714	1137.2	0.7
293.15	4.41	3.726	1180.7	0.9
293.15	4.52	2.347	1123.4	0.7
293.15	4.59	1.879	1107	0.6
293.15	4.68	1.453	1090.9	0.6
293.15	4.69	3.343	1165	0.8
293.15	4.73	2.875	1149	0.8
293.15	4.73	3.985	1189.5	0.9
293.15	4.8	2.436	1132.3	0.7
293.15	4.85	3.62	1173.6	0.8
293.15	4.96	3.169	1156.9	0.8
293.15	5.07	2.697	1139.8	0.7
293.15	5.23	2.65	1121.9	0.7
293.15	6.47	3.137	1166.4	0.8
293.15	6.53	2.577	1145.3	0.8
293.15	6.7	2.123	1125.6	0.7
293.15	6.96	1.338	1100.6	0.6
313.15	1.55	1.516	1060.7	0.5
313.15	1.57	1.416	1056.7	0.5
313.15	1.58	1.246	1050.5	0.4
313.15	1.59	1.08	1043.8	0.4
313.15	1.61	0.728	1029.9	0.4
313.15	1.61	0.894	1036.5	0.4
313.15	1.63	0.545	1022.4	0.4
313.15	1.64	0.186	1007.2	0.3
313.15	1.64	0.366	1014.8	0.3
313.15	1.67	0	999.4	0.3
313.15	3.01	3.182	1127.6	0.7
313.15	3.03	3.023	1118.8	0.6
313.15	3.06	2.822	1113.3	0.6
313.15	3.11	2.504	1102.1	0.6
313.15	3.16	2.216	1090.2	0.6
313.15	3.21	1.78	1078.2	0.5
313.15	3.25	1.433	1065.5	0.5
313.15	3.33	0.991	1052.6	0.4
313.15	3.68	3.397	1150.1	0.7
313.15	3.72	3.023	1137.9	0.7
313.15	3.81	2.815	1124.6	0.7
313.15	3.86	2.495	1110.9	0.6
313.15	3.9	3.617	1163.8	0.8
313.15	3.93	2.091	1096.1	0.6
313.15	3.98	3.297	1150.4	0.8
313.15	4.01	1.726	1082.1	0.5
313.15	4.11	1.281	1066.1	0.5
313.15	4.11	2.917	1136	0.7
313.15	4.12	2.563	1121.3	0.7
313.15	4.14	3.695	1171.7	0.8
313.15	4.24	3.471	1158.9	0.8
313.15	4.26	2.15	1105.9	0.6
313.15	4.28	1.722	1090	0.6
313.15	4.33	3.169	1145.3	0.7
313.15	4.41	2.714	1127	0.7
313.15	4.41	3.726	1170.8	0.8
313.15	4.52	2.347	1112.8	0.6
313.15	4.59	1.879	1096.1	0.6
313.15	4.69	3.343	1154.9	0.8
313.15	4.73	2.875	1138.7	0.7
313.15	4.73	3.985	1179.3	0.9
313.15	4.8	2.436	1121.2	0.7
313.15	4.85	3.62	1163.2	0.8
313.15	4.96	3.169	1146.2	0.7
313.15	5.07	2.697	1128.3	0.7
313.15	5.23	2.65	1110.1	0.6
313.15	6.47	3.137	1153.7	0.8
313.15	6.53	2.577	1131.3	0.7
313.15	6.7	2.123	1110.8	0.6
313.15	6.96	1.338	1084.7	0.6
333.15	1.58	1.246	1040.7	0.4
333.15	1.59	1.08	1034.4	0.4
333.15	1.61	0.728	1020.2	0.4
333.15	1.61	0.894	1027	0.4
333.15	1.63	0.545	1012.9	0.3
333.15	1.64	0.186	997.4	0.3
333.15	1.64	0.366	1004.9	0.3
333.15	1.67	0	989.1	0.3
333.15	3.03	3.023	1108.1	0.6
333.15	3.06	2.822	1103.1	0.6
333.15	3.11	2.504	1092	0.6
333.15	3.16	2.216	1079.9	0.5
333.15	3.21	1.78	1067.6	0.5
333.15	3.25	1.433	1054.8	0.5
333.15	3.72	3.023	1127.7	0.7
333.15	3.81	2.815	1114.3	0.6
333.15	3.86	2.495	1100.4	0.6
333.15	3.93	2.091	1085.2	0.5
333.15	3.98	3.297	1140.2	0.7
333.15	4.01	1.726	1070.7	0.5
333.15	4.11	2.917	1125.7	0.7
333.15	4.12	2.563	1110.7	0.6
333.15	4.24	3.471	1148.7	0.7
333.15	4.26	2.15	1094.9	0.6
333.15	4.28	1.722	1078.5	0.5
333.15	4.33	3.169	1134.9	0.7
333.15	4.41	2.714	1116.3	0.6
333.15	4.41	3.726	1160.5	0.8
333.15	4.52	2.347	1101.7	0.6
333.15	4.59	1.879	1084.3	0.5
333.15	4.69	3.343	1144.6	0.7
333.15	4.73	2.875	1127.8	0.7
333.15	4.73	3.985	1169	0.8
333.15	4.8	2.436	1110	0.6
333.15	4.85	3.62	1152.7	0.8
333.15	4.96	3.169	1135.3	0.7
333.15	5.07	2.697	1116.7	0.7
333.15	5.23	2.65	1097.8	0.6
333.15	6.47	3.137	1141	0.7
333.15	6.53	2.577	1118.8	0.7
333.15	6.7	2.123	1096.2	0.6
333.15	6.96	1.338	1069.3	0.5
