Measured thermophysical data. Solubility of 5-Hydroxymethylfurfural in Supercritical Carbon Dioxide with and without Ethanol as Cosolvent at (314.1 to 343.2) K
Source: J. Chem. Eng. Data, 2011, 10.1021/je100985n
Compound 1: 5-(hydroxymethyl)furan-2-carbaldehyde, C6H6O3, InChI=1S/C6H6O3/c7-3-5-1-2-6(4-8)9-5/h1-3,8H,4H2, purity 98%
Compound 2: carbon dioxide, CO2, InChI=1S/CO2/c2-1-3
Compound 3: ethanol, C2H6O, InChI=1S/C2H6O/c1-2-3/h3H,2H2,1H3, purity 99.8%

System: 5-(hydroxymethyl)furan-2-carbaldehyde + carbon dioxide; phases: Gas, Liquid
Property: Boiling temperature at pressure P, K (Gas); method: Cloud point method
Mole fraction of 5-(hydroxymethyl)furan-2-carbaldehyde	Pressure, kPa	Boiling temperature at pressure P, K	uncertainty
0.000506	9740	314.1	1.1
0.000506	10990	323.98	1.33
0.000506	11850	333.76	1.58
0.000506	12740	343.2	1.5
0.000983	11580	314.1	1.2
0.000983	12820	323.98	1.21
0.000983	14000	333.76	1.41
0.000983	14940	343.2	1.5
0.001238	13310	314.1	1.4
0.001238	14430	323.98	1.53
0.001238	15290	333.76	2.13
0.001238	15720	343.2	3.2
0.001531	14780	314.1	1.5
0.001531	15830	323.98	1.84
0.001531	16590	333.76	2.1
0.001531	17200	343.2	2.4
0.00199	16600	314.1	1.6
0.00199	17650	323.98	1.86
0.00199	18370	333.76	2.29
0.00199	19070	343.2	2.3
0.002384	18740	314.1	2.3
0.002384	19580	323.98	2.27

System: 5-(hydroxymethyl)furan-2-carbaldehyde + carbon dioxide; phases: Gas, Liquid
Property: Mass density, kg/m3 (Gas); method: Mass and volume measurement
Temperature, K	Pressure, kPa	Mass density, kg/m3	uncertainty
314.1	9740	582.9	12.2
314.1	11580	695.4	11.4
314.1	13310	743.3	10.5
314.1	14780	771.4	10.3
314.1	16600	798.3	10.2
314.1	18740	823.4	10.1
323.98	10990	489.2	12.7
323.98	12820	619.7	11.7
323.98	14430	678.7	10.7
323.98	15830	713.6	10.4
323.98	17650	747.4	10.2
323.98	19580	775.4	10.2
333.76	11850	419.8	12.1
333.76	14000	557.2	11.7
333.76	15290	610.9	10.8
333.76	16590	650.8	10.4
333.76	18370	691.8	10.4
343.2	12740	389.6	11.4
343.2	14940	505.9	11.4
343.2	15720	540.5	10.8
343.2	17200	590.9	10.6
343.2	19070	640.2	10.4

System: ethanol + 5-(hydroxymethyl)furan-2-carbaldehyde + carbon dioxide; phases: Gas, Liquid
Property: Mass density, kg/m3 (Gas); method: Mass and volume measurement
Temperature, K	Pressure, kPa	Solvent: Mole fraction of ethanol	Mass density, kg/m3	uncertainty
314.1	9740	0	582.9	12.2
314.1	9740	0.025	584.5	11.2
314.1	9740	0.05	646.3	11.1
314.1	11580	0	695.4	11.4
314.1	11580	0.025	688.2	11.4
314.1	11580	0.05	727	10.9
314.1	13310	0	743.3	10.5
314.1	13310	0.025	759.4	10.9
314.1	13310	0.05	786.4	10.7
314.1	14780	0	771.4	10.3
314.1	14780	0.025	808.6	10.4
314.1	14780	0.05	834.1	10.4
314.1	16600	0	798.3	10.2
314.1	16600	0.025	840.2	10.3
314.1	16600	0.05	870.6	10.2
314.1	18740	0	823.4	10.1
314.1	18740	0.025	886.2	10.2
314.1	18740	0.05	910.2	10.2
323.98	10990	0	489.2	12.7
323.98	10990	0.025	555.6	11.1
323.98	10990	0.05	616.2	11.1
323.98	12820	0	619.7	11.7
323.98	12820	0.025	633	11.1
323.98	12820	0.05	693.8	10.9
323.98	14430	0	678.7	10.7
323.98	14430	0.025	709.4	11.1
323.98	14430	0.05	747.8	10.9
323.98	15830	0	713.6	10.4
323.98	15830	0.025	762.7	10.5
323.98	15830	0.05	818.6	10.5
323.98	17650	0	747.4	10.2
323.98	17650	0.025	801.3	10.4
323.98	17650	0.05	841.4	10.2
323.98	19580	0	775.4	10.2
323.98	19580	0.025	848.8	10.2
323.98	19580	0.05	876	10.2
333.76	11850	0	419.8	12.1
333.76	11850	0.025	521.9	10.7
333.76	11850	0.05	585	10.8
333.76	14000	0	557.2	11.7
333.76	14000	0.025	578.6	10.9
333.76	14000	0.05	661.2	10.9
333.76	15290	0	610.9	10.8
333.76	15290	0.025	657.1	11.5
333.76	15290	0.05	719.4	11
333.76	16590	0	650.8	10.4
333.76	16590	0.025	717.5	10.5
333.76	16590	0.05	767.8	10.5
333.76	18370	0	691.8	10.4
333.76	18370	0.025	751.3	10.3
333.76	18370	0.05	810.2	10.4
343.2	12740	0	389.6	11.4
343.2	12740	0.025	462.6	10.4
343.2	12740	0.05	554.2	10.7
343.2	14940	0	505.9	11.4
343.2	14940	0.025	521	11.1
343.2	14940	0.05	625.5	11.2
343.2	15720	0	540.5	10.8
343.2	15720	0.025	605.8	11.9
343.2	15720	0.05	688.2	11.1
343.2	17200	0	590.9	10.6
343.2	17200	0.025	671.4	10.5
343.2	17200	0.05	728.4	10.5
343.2	19070	0	640.2	10.4
343.2	19070	0.025	701	10.2

System: ethanol + 5-(hydroxymethyl)furan-2-carbaldehyde + carbon dioxide; phases: Gas, Liquid
Property: Mole fraction of 5-(hydroxymethyl)furan-2-carbaldehyde (Gas); method: Cloud point method
Temperature, K	Pressure, kPa	Solvent: Mole fraction of ethanol	Mole fraction of 5-(hydroxymethyl)furan-2-carbaldehyde	uncertainty
314.1	9740	0	0.000506	2.7e-05
314.1	9740	0.025	0.001056	2e-05
314.1	9740	0.05	0.002063	6.1e-05
314.1	11580	0	0.000983	2.4e-05
314.1	11580	0.025	0.001466	3.4e-05
314.1	11580	0.05	0.003026	7.2e-05
314.1	13310	0	0.001238	2.1e-05
314.1	13310	0.025	0.002016	4.5e-05
314.1	13310	0.05	0.004036	8.6e-05
314.1	14780	0	0.001531	2.8e-05
314.1	14780	0.025	0.002542	4.4e-05
314.1	14780	0.05	0.004996	9e-05
314.1	16600	0	0.00199	3e-05
314.1	16600	0.025	0.003015	5.2e-05
314.1	16600	0.05	0.005891	9.8e-05
314.1	18740	0	0.002384	3e-05
314.1	18740	0.025	0.003976	8.5e-05
314.1	18740	0.05	0.00706	0.000109
323.98	10990	0	0.000506	2.7e-05
323.98	10990	0.025	0.001056	2e-05
323.98	10990	0.05	0.002063	6.1e-05
323.98	12820	0	0.000983	2.4e-05
323.98	12820	0.025	0.001466	3.3e-05
323.98	12820	0.05	0.003026	7.4e-05
323.98	14430	0	0.001238	2.2e-05
323.98	14430	0.025	0.002016	4.5e-05
323.98	14430	0.05	0.004036	8.8e-05
323.98	15830	0	0.001531	2.8e-05
323.98	15830	0.025	0.002542	4.4e-05
323.98	15830	0.05	0.004996	9e-05
323.98	17650	0	0.00199	3e-05
323.98	17650	0.025	0.003015	5.4e-05
323.98	17650	0.05	0.005891	0.0001
323.98	19580	0	0.002384	3.2e-05
323.98	19580	0.025	0.003976	9.1e-05
323.98	19580	0.05	0.00706	0.000112
333.76	11850	0	0.000506	2.3e-05
333.76	11850	0.025	0.001056	1.8e-05
333.76	11850	0.05	0.002063	5.4e-05
333.76	14000	0	0.000983	2.4e-05
333.76	14000	0.025	0.001466	3.4e-05
333.76	14000	0.05	0.003026	7.4e-05
333.76	15290	0	0.001238	2.5e-05
333.76	15290	0.025	0.002016	4.8e-05
333.76	15290	0.05	0.004036	9.5e-05
333.76	16590	0	0.001531	2.9e-05
333.76	16590	0.025	0.002542	4.3e-05
333.76	16590	0.05	0.004996	9.1e-05
333.76	18370	0	0.00199	3.3e-05
333.76	18370	0.025	0.003015	7.4e-05
333.76	18370	0.05	0.005891	9.7e-05
343.2	12740	0	0.000506	2.3e-05
343.2	12740	0.025	0.001056	1.8e-05
343.2	12740	0.05	0.002063	5.3e-05
343.2	14940	0	0.000983	2.6e-05
343.2	14940	0.025	0.001466	3.8e-05
343.2	14940	0.05	0.003026	7.9e-05
343.2	15720	0	0.001238	2.7e-05
343.2	15720	0.025	0.002016	4.6e-05
343.2	15720	0.05	0.004036	0.000101
343.2	17200	0	0.001531	2.7e-05
343.2	17200	0.025	0.002542	4.1e-05
343.2	17200	0.05	0.004996	9.6e-05
343.2	19070	0	0.00199	3.2e-05
343.2	19070	0.025	0.003015	4.1e-05
