Measured thermophysical data. Thermodynamics of Ketone + Amine Mixtures. Part III. Volumetric and Speed of Sound Data at (293.15, 298.15, and 303.15) K for 2-Butanone + Aniline, + N-Methylaniline, or + Pyridine Systems
Source: J. Chem. Eng. Data, 2010, 10.1021/je100472t
Compound 1: N-methylaniline, C7H9N, InChI=1S/C7H9N/c1-8-7-5-3-2-4-6-7/h2-6,8H,1H3, purity 98%
Compound 2: aniline, C6H7N, InChI=1S/C6H7N/c7-6-4-2-1-3-5-6/h1-5H,7H2, purity 99.5%
Compound 3: pyridine, C5H5N, InChI=1S/C5H5N/c1-2-4-6-5-3-1/h1-5H, purity 99.5%
Compound 4: butanone, C4H8O, InChI=1S/C4H8O/c1-3-4(2)5/h3H2,1-2H3, purity 99.5%

System: N-methylaniline; phases: Liquid
Fixed: Pressure, kPa = 101.325
Property: Speed of sound, m/s (Liquid); method: Pulse-echo method
Temperature, K	Speed of sound, m/s	uncertainty
293.15	1582.5	2.1
298.15	1563.9	2.1
303.15	1546	2.1

System: N-methylaniline; phases: Liquid
Fixed: Pressure, kPa = 101.325
Property: Mass density, kg/m3 (Liquid); method: Vibrating tube method
Temperature, K	Mass density, kg/m3	uncertainty
293.15	986.295	0.821
298.15	982.278	0.816
303.15	978.284	0.812

System: aniline; phases: Liquid
Fixed: Pressure, kPa = 101.325
Property: Speed of sound, m/s (Liquid); method: Pulse-echo method
Temperature, K	Speed of sound, m/s	uncertainty
293.15	1657.01	0.94
298.15	1637.8	0.9
303.15	1619.3	0.9

System: aniline; phases: Liquid
Fixed: Pressure, kPa = 101.325
Property: Mass density, kg/m3 (Liquid); method: Vibrating tube method
Temperature, K	Mass density, kg/m3	uncertainty
293.15	1021.844	0.092
298.15	1017.511	0.09
303.15	1013.232	0.088

System: pyridine; phases: Liquid
Fixed: Pressure, kPa = 101.325
Property: Speed of sound, m/s (Liquid); method: Pulse-echo method
Temperature, K	Speed of sound, m/s	uncertainty
293.15	1436.6	0.9
298.15	1416.2	0.9
303.15	1396.9	0.9

System: pyridine; phases: Liquid
Fixed: Pressure, kPa = 101.325
Property: Mass density, kg/m3 (Liquid); method: Vibrating tube method
Temperature, K	Mass density, kg/m3	uncertainty
293.15	983.163	0.087
298.15	978.138	0.089
303.15	973.148	0.09

System: butanone; phases: Liquid
Fixed: Pressure, kPa = 101.325
Property: Speed of sound, m/s (Liquid); method: Pulse-echo method
Temperature, K	Speed of sound, m/s	uncertainty
293.15	1212	0.8
298.15	1190.8	0.8
303.15	1170.6	0.8

System: butanone; phases: Liquid
Fixed: Pressure, kPa = 101.325
Property: Mass density, kg/m3 (Liquid); method: Vibrating tube method
Temperature, K	Mass density, kg/m3	uncertainty
293.15	805.08	0.142
298.15	799.861	0.144
303.15	794.636	0.145

System: aniline + butanone; phases: Liquid
Fixed: Pressure, kPa = 101
Property: Speed of sound, m/s (Liquid); method: Pulse-echo method
Temperature, K	Mole fraction of butanone	Speed of sound, m/s	uncertainty
293.15	0.058	1633.73	0.94
293.15	0.1122	1612.22	0.93
293.15	0.1576	1594.71	0.93
293.15	0.2052	1576.01	0.92
293.15	0.2543	1556.68	0.91
293.15	0.3043	1536.62	0.91
293.15	0.3562	1515.48	0.9
293.15	0.4059	1495.18	0.9
293.15	0.453	1475.25	0.89
293.15	0.5048	1453.16	0.88
293.15	0.5443	1435.84	0.88
293.15	0.612	1405.44	0.87
293.15	0.648	1388.95	0.86
293.15	0.7044	1362.11	0.86
293.15	0.7754	1328.59	0.85
293.15	0.8081	1311.28	0.84
293.15	0.8493	1290.46	0.83
293.15	0.9027	1262.94	0.83
293.15	0.9476	1239.59	0.82
298.15	0.056	1615.43	0.93
298.15	0.1188	1593.59	0.93
298.15	0.1547	1576.89	0.92
298.15	0.2038	1557.51	0.91
298.15	0.2563	1536.46	0.91
298.15	0.3064	1516.35	0.9
298.15	0.3474	1499.63	0.9
298.15	0.4089	1474.12	0.89
298.15	0.4523	1455.79	0.88
298.15	0.5026	1434.14	0.88
298.15	0.5467	1414.88	0.87
298.15	0.6019	1390.03	0.86
298.15	0.6481	1368.49	0.86
298.15	0.7048	1341.93	0.85
298.15	0.7451	1322.03	0.84
298.15	0.803	1293.23	0.83
298.15	0.8487	1270.14	0.83
298.15	0.9019	1242.8	0.82
298.15	0.9489	1218.03	0.81
303.15	0.0582	1596.11	0.93
303.15	0.1097	1575.62	0.92
303.15	0.1485	1560.26	0.92
303.15	0.205	1537.97	0.91
303.15	0.2507	1520.34	0.9
303.15	0.3064	1497.88	0.9
303.15	0.3426	1482.95	0.89
303.15	0.414	1453.33	0.88
303.15	0.447	1439.45	0.88
303.15	0.491	1420.26	0.87
303.15	0.5537	1392.66	0.86
303.15	0.6044	1369.77	0.86
303.15	0.6434	1351.53	0.85
303.15	0.7038	1322.64	0.84
303.15	0.7716	1289.42	0.83
303.15	0.8079	1271.08	0.83
303.15	0.8481	1250.64	0.82
303.15	0.8988	1224.22	0.81
303.15	0.9466	1199.01	0.81

System: aniline + butanone; phases: Liquid
Fixed: Pressure, kPa = 101
Property: Mass density, kg/m3 (Liquid); method: Vibrating tube method
Temperature, K	Mole fraction of butanone	Mass density, kg/m3	uncertainty
293.15	0.058	1011.292	0.095
293.15	0.1122	1001.344	0.089
293.15	0.1576	993.678	0.09
293.15	0.2052	985.068	0.093
293.15	0.2543	976.056	0.096
293.15	0.3043	966.42	0.099
293.15	0.3562	956.208	0.103
293.15	0.4059	946.279	0.106
293.15	0.453	936.5	0.109
293.15	0.5048	925.617	0.112
293.15	0.5443	917.103	0.115
293.15	0.612	902.143	0.119
293.15	0.648	894.022	0.122
293.15	0.7044	880.787	0.126
293.15	0.7754	863.737	0.132
293.15	0.8081	855.598	0.135
293.15	0.8493	845.213	0.138
293.15	0.9027	831.249	0.142
293.15	0.9476	819.373	0.146
298.15	0.056	1007.337	0.091
298.15	0.1188	997.647	0.089
298.15	0.1547	990.216	0.093
298.15	0.2038	981.189	0.095
298.15	0.2563	971.23	0.098
298.15	0.3064	961.559	0.101
298.15	0.3474	953.414	0.104
298.15	0.4089	940.989	0.107
298.15	0.4523	932.032	0.11
298.15	0.5026	921.385	0.113
298.15	0.5467	911.916	0.116
298.15	0.6019	899.666	0.12
298.15	0.6481	889.131	0.124
298.15	0.7048	875.989	0.128
298.15	0.7451	866.153	0.131
298.15	0.803	851.853	0.136
298.15	0.8487	840.349	0.139
298.15	0.9019	826.554	0.144
298.15	0.9489	813.934	0.148
303.15	0.0582	1002.61	0.091
303.15	0.1097	993.104	0.093
303.15	0.1485	986.049	0.094
303.15	0.205	975.667	0.097
303.15	0.2507	967.388	0.099
303.15	0.3064	956.964	0.102
303.15	0.3426	949.873	0.104
303.15	0.414	935.434	0.109
303.15	0.447	928.634	0.111
303.15	0.491	919.218	0.114
303.15	0.5537	905.656	0.118
303.15	0.6044	894.417	0.122
303.15	0.6434	885.415	0.125
303.15	0.7038	871.181	0.129
303.15	0.7716	854.721	0.134
303.15	0.8079	845.614	0.138
303.15	0.8481	835.388	0.141
303.15	0.8988	822.096	0.145
303.15	0.9466	809.221	0.149

System: butanone + N-methylaniline; phases: Liquid
Fixed: Pressure, kPa = 101
Property: Speed of sound, m/s (Liquid); method: Pulse-echo method
Temperature, K	Mole fraction of butanone	Speed of sound, m/s	uncertainty
293.15	0.0627	1562.93	2.05
293.15	0.1133	1546.9	1.98
293.15	0.1564	1532.86	1.92
293.15	0.2058	1516.97	1.85
293.15	0.2538	1501.02	1.78
293.15	0.3018	1484.81	1.71
293.15	0.3464	1469.41	1.65
293.15	0.3938	1453.01	1.58
293.15	0.4435	1435.57	1.52
293.15	0.4907	1418.46	1.45
293.15	0.5508	1396.18	1.37
293.15	0.5959	1378.86	1.31
293.15	0.6529	1356.64	1.23
293.15	0.7489	1318.2	1.11
293.15	0.7938	1300.01	1.05
293.15	0.8492	1276.95	0.98
293.15	0.8981	1256.68	0.92
293.15	0.9525	1232.87	0.86
298.15	0.076	1540.12	2.03
298.15	0.1115	1528.78	1.98
298.15	0.1566	1514.16	1.92
298.15	0.2076	1497.6	1.84
298.15	0.2589	1480.59	1.77
298.15	0.2967	1467.74	1.72
298.15	0.3471	1450.49	1.65
298.15	0.3973	1432.77	1.58
298.15	0.4477	1414.78	1.51
298.15	0.495	1397.25	1.44
298.15	0.5471	1377.77	1.37
298.15	0.5992	1357.93	1.3
298.15	0.6921	1321.67	1.18
298.15	0.7463	1299.55	1.11
298.15	0.8007	1276.99	1.04
298.15	0.847	1257.46	0.98
298.15	0.8993	1235.12	0.92
298.15	0.9472	1214.45	0.86
303.15	0.0641	1525.99	2.05
303.15	0.1123	1510.65	1.98
303.15	0.1581	1495.93	1.91
303.15	0.2036	1481.08	1.85
303.15	0.2591	1462.5	1.77
303.15	0.3061	1446.49	1.7
303.15	0.3513	1430.76	1.64
303.15	0.4022	1412.9	1.57
303.15	0.4472	1396.45	1.5
303.15	0.5025	1376.1	1.43
303.15	0.5536	1356.87	1.36
303.15	0.5984	1339.7	1.3
303.15	0.6489	1320.14	1.23
303.15	0.6969	1300.71	1.17
303.15	0.7543	1277.07	1.09
303.15	0.8047	1256	1.03
303.15	0.8497	1237.07	0.97
303.15	0.8965	1216.77	0.91
303.15	0.9524	1192.15	0.85

System: butanone + N-methylaniline; phases: Liquid
Fixed: Pressure, kPa = 101
Property: Mass density, kg/m3 (Liquid); method: Vibrating tube method
Temperature, K	Mole fraction of butanone	Mass density, kg/m3	uncertainty
293.15	0.0627	977.942	0.739
293.15	0.1133	970.977	0.678
293.15	0.1564	964.888	0.628
293.15	0.2058	957.75	0.574
293.15	0.2538	950.572	0.526
293.15	0.3018	943.182	0.48
293.15	0.3464	936.057	0.441
293.15	0.3938	928.444	0.402
293.15	0.4435	920.205	0.364
293.15	0.4907	912.022	0.332
293.15	0.5508	901.21	0.294
293.15	0.5959	892.779	0.269
293.15	0.6529	881.753	0.241
293.15	0.7489	862.241	0.202
293.15	0.7938	852.894	0.188
293.15	0.8492	840.63	0.173
293.15	0.8981	829.68	0.163
293.15	0.9525	816.716	0.154
298.15	0.076	972.066	0.719
298.15	0.1115	967.149	0.676
298.15	0.1566	960.718	0.624
298.15	0.2076	953.334	0.569
298.15	0.2589	945.633	0.518
298.15	0.2967	939.765	0.483
298.15	0.3471	931.809	0.438
298.15	0.3973	923.563	0.398
298.15	0.4477	915.055	0.36
298.15	0.495	906.694	0.328
298.15	0.5471	897.284	0.296
298.15	0.5992	887.579	0.268
298.15	0.6921	869.471	0.224
298.15	0.7463	858.202	0.204
298.15	0.8007	846.555	0.187
298.15	0.847	836.277	0.175
298.15	0.8993	824.346	0.164
298.15	0.9472	813	0.156
303.15	0.0641	969.669	0.729
303.15	0.1123	962.964	0.671
303.15	0.1581	956.434	0.619
303.15	0.2036	949.789	0.571
303.15	0.2591	941.381	0.515
303.15	0.3061	934.049	0.472
303.15	0.3513	926.789	0.433
303.15	0.4022	918.424	0.392
303.15	0.4472	910.653	0.36
303.15	0.5025	900.926	0.323
303.15	0.5536	891.605	0.292
303.15	0.5984	883.203	0.268
303.15	0.6489	873.485	0.243
303.15	0.6969	863.705	0.223
303.15	0.7543	851.719	0.202
303.15	0.8047	840.797	0.187
303.15	0.8497	830.818	0.176
303.15	0.8965	819.999	0.166
303.15	0.9524	806.615	0.157

System: butanone + pyridine; phases: Liquid
Fixed: Pressure, kPa = 101
Property: Speed of sound, m/s (Liquid); method: Pulse-echo method
Temperature, K	Mole fraction of butanone	Speed of sound, m/s	uncertainty
293.15	0.0584	1424.61	0.87
293.15	0.101	1415.75	0.87
293.15	0.1557	1404.26	0.86
293.15	0.2073	1393.33	0.86
293.15	0.2479	1384.58	0.86
293.15	0.2928	1374.92	0.86
293.15	0.3534	1361.81	0.85
293.15	0.3992	1351.64	0.85
293.15	0.4535	1339.54	0.84
293.15	0.4962	1330.03	0.84
293.15	0.5461	1318.73	0.84
293.15	0.5481	1318.24	0.84
293.15	0.6003	1306.41	0.83
293.15	0.6425	1296.69	0.83
293.15	0.6948	1284.55	0.83
293.15	0.7267	1277.11	0.83
293.15	0.7519	1271.21	0.82
293.15	0.8053	1258.66	0.82
293.15	0.855	1246.86	0.82
293.15	0.8907	1238.36	0.81
293.15	0.9459	1224.94	0.81
298.15	0.0517	1405.65	0.86
298.15	0.1009	1395.36	0.86
298.15	0.151	1384.77	0.86
298.15	0.1952	1375.38	0.86
298.15	0.2473	1364.24	0.85
298.15	0.301	1352.53	0.85
298.15	0.3559	1340.44	0.84
298.15	0.4041	1329.73	0.84
298.15	0.4494	1319.62	0.84
298.15	0.4994	1308.4	0.83
298.15	0.5472	1297.57	0.83
298.15	0.5916	1287.41	0.83
298.15	0.6951	1263.53	0.82
298.15	0.7563	1249.19	0.82
298.15	0.8029	1238.08	0.81
298.15	0.8525	1226.24	0.81
298.15	0.8944	1216.21	0.81
298.15	0.9525	1202.26	0.8
303.15	0.0589	1384.67	0.86
303.15	0.117	1372.47	0.85
303.15	0.162	1362.93	0.85
303.15	0.2056	1353.6	0.85
303.15	0.2489	1344.25	0.85
303.15	0.3075	1331.49	0.84
303.15	0.3506	1322.05	0.84
303.15	0.4016	1310.8	0.83
303.15	0.4494	1299.97	0.83
303.15	0.4959	1289.48	0.83
303.15	0.5482	1277.68	0.82
303.15	0.5967	1266.56	0.82
303.15	0.6484	1254.57	0.82
303.15	0.6972	1243.11	0.81
303.15	0.7446	1232.07	0.81
303.15	0.7952	1220.01	0.81
303.15	0.8476	1207.59	0.8
303.15	0.8928	1196.75	0.8
303.15	0.9371	1186.04	0.8

System: butanone + pyridine; phases: Liquid
Fixed: Pressure, kPa = 101
Property: Mass density, kg/m3 (Liquid); method: Vibrating tube method
Temperature, K	Mole fraction of butanone	Mass density, kg/m3	uncertainty
293.15	0.0584	972.18	0.098
293.15	0.101	964.232	0.1
293.15	0.1557	954.114	0.103
293.15	0.2073	944.625	0.105
293.15	0.2479	937.177	0.107
293.15	0.2928	929.036	0.109
293.15	0.3534	918.142	0.112
293.15	0.3992	909.88	0.114
293.15	0.4535	900.169	0.117
293.15	0.4962	892.606	0.119
293.15	0.5461	883.748	0.121
293.15	0.5481	883.417	0.121
293.15	0.6003	874.227	0.124
293.15	0.6425	866.814	0.126
293.15	0.6948	857.663	0.129
293.15	0.7267	852.119	0.131
293.15	0.7519	847.742	0.132
293.15	0.8053	838.532	0.135
293.15	0.855	829.934	0.137
293.15	0.8907	823.832	0.139
293.15	0.9459	814.255	0.142
298.15	0.0517	968.413	0.099
298.15	0.1009	959.234	0.101
298.15	0.151	949.923	0.104
298.15	0.1952	941.811	0.106
298.15	0.2473	932.304	0.108
298.15	0.301	922.495	0.111
298.15	0.3559	912.585	0.114
298.15	0.4041	903.885	0.116
298.15	0.4494	895.816	0.118
298.15	0.4994	886.914	0.121
298.15	0.5472	878.48	0.123
298.15	0.5916	870.664	0.125
298.15	0.6951	852.55	0.131
298.15	0.7563	841.861	0.134
298.15	0.8029	833.777	0.136
298.15	0.8525	825.199	0.139
298.15	0.8944	817.974	0.141
298.15	0.9525	808.018	0.144
303.15	0.0589	962.089	0.1
303.15	0.117	951.238	0.103
303.15	0.162	942.929	0.105
303.15	0.2056	934.925	0.108
303.15	0.2489	926.99	0.11
303.15	0.3075	916.353	0.113
303.15	0.3506	908.572	0.115
303.15	0.4016	899.409	0.117
303.15	0.4494	890.804	0.12
303.15	0.4959	882.52	0.122
303.15	0.5482	873.285	0.125
303.15	0.5967	864.734	0.127
303.15	0.6484	855.625	0.13
303.15	0.6972	847.054	0.132
303.15	0.7446	838.804	0.135
303.15	0.7952	829.99	0.137
303.15	0.8476	820.935	0.14
303.15	0.8928	813.143	0.142
303.15	0.9371	805.515	0.144
