Measured thermophysical data. Densities and Excess Molar Volumes for Binary Mixtures of Ionic Liquid 1-Ethyl-3-methylimidazolium Ethylsulfate with Solvents
Source: J. Chem. Eng. Data, 2010, 10.1021/je1002237
Compound 1: 1-ethyl-3-methylimidazolium ethyl sulfate, C8H16N2O4S, InChI=1S/C6H11N2.C2H6O4S/c1-3-8-5-4-7(2)6-8;1-2-6-7(3,4)5/h4-6H,3H2,1-2H3;2H2,1H3,(H,3,4,5)/q+1;/p-1
Compound 2: acetone, C3H6O, InChI=1S/C3H6O/c1-3(2)4/h1-2H3
Compound 3: acetonitrile, C2H3N, InChI=1S/C2H3N/c1-2-3/h1H3
Compound 4: 4-methyl-1,3-dioxolan-2-one, C4H6O3, InChI=1S/C4H6O3/c1-3-2-6-4(5)7-3/h3H,2H2,1H3
Compound 5: dichloromethane, CH2Cl2, InChI=1S/CH2Cl2/c2-1-3/h1H2
Compound 6: methanol, CH4O, InChI=1S/CH4O/c1-2/h2H,1H3
Compound 7: ethanol, C2H6O, InChI=1S/C2H6O/c1-2-3/h3H,2H2,1H3
Compound 8: water, H2O, InChI=1S/H2O/h1H2

System: acetone + 1-ethyl-3-methylimidazolium ethyl sulfate; phases: Liquid
Fixed: Pressure, kPa = 101
Property: Mass density, kg/m3 (Liquid); method: VIBTUB:UFactor:6
Temperature, K	Mole fraction of acetone	Mass density, kg/m3	uncertainty
278.15	0	1251.04	1.11
278.15	0.0048	1250.35	1.11
278.15	0.0098	1249.71	1.1
278.15	0.015	1248.99	1.1
278.15	0.0249	1247.95	1.09
278.15	0.0399	1245.49	1.08
278.15	0.06	1242.52	1.06
278.15	0.0799	1239.64	1.05
278.15	0.1002	1236.48	1.04
278.15	0.1501	1228.75	1
278.15	0.2066	1218.26	0.96
278.15	0.2998	1200.04	0.89
278.15	0.3999	1176.43	0.82
278.15	0.5	1146.24	0.75
278.15	0.6	1109.44	0.66
278.15	0.7	1062.54	0.57
278.15	0.8	1001.65	0.47
278.15	0.9003	920.34	0.52
278.15	0.95	869.49	0.58
278.15	1	807.75	0.67
283.15	0	1247.5	1.1
283.15	0.0048	1246.8	1.1
283.15	0.0098	1246.16	1.09
283.15	0.015	1245.43	1.09
283.15	0.0249	1244.39	1.08
283.15	0.0399	1241.93	1.07
283.15	0.06	1238.99	1.06
283.15	0.0799	1236.15	1.04
283.15	0.1002	1233.02	1.03
283.15	0.1501	1225.24	0.99
283.15	0.2066	1214.69	0.95
283.15	0.2998	1196.37	0.88
283.15	0.3999	1172.65	0.81
283.15	0.5	1142.32	0.74
283.15	0.6	1105.35	0.66
283.15	0.7	1058.23	0.56
283.15	0.8	997.03	0.47
283.15	0.9003	915.32	0.52
283.15	0.95	864.22	0.59
283.15	1	802.15	0.68
288.15	0	1244.04	1.09
288.15	0.0048	1243.35	1.09
288.15	0.0098	1242.72	1.08
288.15	0.015	1242	1.08
288.15	0.0249	1240.97	1.07
288.15	0.0399	1238.51	1.06
288.15	0.06	1235.56	1.05
288.15	0.0799	1232.7	1.03
288.15	0.1002	1229.54	1.02
288.15	0.1501	1221.72	0.98
288.15	0.2066	1211.11	0.94
288.15	0.2998	1192.71	0.87
288.15	0.3999	1168.88	0.8
288.15	0.5	1138.42	0.73
288.15	0.6	1101.27	0.65
288.15	0.7	1053.92	0.56
288.15	0.8	992.4	0.47
288.15	0.9003	910.28	0.53
288.15	0.95	858.92	0.59
288.15	1	796.52	0.69
293.15	0	1240.66	1.08
293.15	0.0048	1239.97	1.08
293.15	0.0098	1239.31	1.08
293.15	0.015	1238.59	1.07
293.15	0.0249	1237.55	1.07
293.15	0.0399	1235.1	1.05
293.15	0.06	1232.12	1.04
293.15	0.0799	1229.24	1.03
293.15	0.1002	1226.07	1.01
293.15	0.1501	1218.21	0.98
293.15	0.2066	1207.54	0.93
293.15	0.2998	1189.06	0.87
293.15	0.3999	1165.13	0.8
293.15	0.5	1134.53	0.73
293.15	0.6	1097.2	0.64
293.15	0.7	1049.61	0.55
293.15	0.8	987.78	0.47
293.15	0.9003	905.21	0.54
293.15	0.95	853.61	0.6
293.15	1	790.86	0.7
298.15	0	1237.27	1.08
298.15	0.0048	1236.57	1.07
298.15	0.0098	1235.93	1.07
298.15	0.015	1235.2	1.06
298.15	0.0249	1234.16	1.06
298.15	0.0399	1231.67	1.05
298.15	0.06	1228.69	1.03
298.15	0.0799	1225.79	1.02
298.15	0.1002	1222.61	1
298.15	0.1501	1214.71	0.97
298.15	0.2066	1204	0.92
298.15	0.2998	1185.43	0.86
298.15	0.3999	1161.39	0.79
298.15	0.5	1130.65	0.72
298.15	0.6	1093.15	0.63
298.15	0.7	1045.32	0.54
298.15	0.8	983.15	0.48
298.15	0.9003	900.15	0.54
298.15	0.95	848.26	0.61
298.15	1	785.13	0.71
303.15	0	1233.89	1.07
303.15	0.0048	1233.18	1.06
303.15	0.0098	1232.54	1.06
303.15	0.015	1231.8	1.06
303.15	0.0249	1230.76	1.05
303.15	0.0399	1228.26	1.04
303.15	0.06	1225.26	1.02
303.15	0.0799	1222.35	1.01
303.15	0.1002	1219.16	0.99
303.15	0.1501	1211.21	0.96
303.15	0.2066	1200.46	0.92
303.15	0.2998	1181.81	0.85
303.15	0.3999	1157.66	0.78
303.15	0.5	1126.78	0.71
303.15	0.6	1089.1	0.63
303.15	0.7	1041.02	0.54
303.15	0.8	978.52	0.48
303.15	0.9003	895.06	0.55
303.15	0.95	842.89	0.62
303.15	1	779.38	0.72
308.15	0	1230.51	1.06
308.15	0.0048	1229.8	1.05
308.15	0.0098	1229.15	1.05
308.15	0.015	1228.41	1.05
308.15	0.0249	1227.37	1.04
308.15	0.0399	1224.86	1.03
308.15	0.06	1221.85	1.01
308.15	0.0799	1218.92	1
308.15	0.1002	1215.71	0.99
308.15	0.1501	1207.73	0.95
308.15	0.2066	1196.93	0.91
308.15	0.2998	1178.19	0.84
308.15	0.3999	1153.94	0.77
308.15	0.5	1122.92	0.7
308.15	0.6	1085.07	0.62
308.15	0.7	1036.74	0.53
308.15	0.8	973.88	0.49
308.15	0.9003	889.95	0.56
308.15	0.95	837.49	0.63
308.15	1	773.58	0.73

System: acetonitrile + 1-ethyl-3-methylimidazolium ethyl sulfate; phases: Liquid
Fixed: Pressure, kPa = 101
Property: Mass density, kg/m3 (Liquid); method: VIBTUB:UFactor:6
Temperature, K	Mole fraction of acetonitrile	Mass density, kg/m3	uncertainty
278.15	0	1251.04	1.11
278.15	0.0051	1250.84	1.11
278.15	0.0099	1250	1.1
278.15	0.0202	1249.09	1.1
278.15	0.0499	1245.66	1.07
278.15	0.1001	1239.88	1.04
278.15	0.1426	1236.22	1.01
278.15	0.2507	1218.64	0.94
278.15	0.3434	1202.08	0.87
278.15	0.4592	1177.36	0.8
278.15	0.5799	1140.91	0.71
278.15	0.679	1101.24	0.62
278.15	0.7423	1068.73	0.56
278.15	0.7865	1041.05	0.52
278.15	0.8539	988.5	0.46
278.15	0.897	945.89	0.49
278.15	0.9342	902.15	0.53
278.15	0.9567	871.14	0.57
278.15	0.9707	849.53	0.6
278.15	0.9803	833.78	0.63
278.15	0.9872	821.79	0.64
278.15	0.9925	812.49	0.66
278.15	0.9967	804.39	0.67
278.15	1	798.01	0.68
283.15	0	1247.5	1.1
283.15	0.0051	1247.29	1.1
283.15	0.0099	1246.45	1.09
283.15	0.0202	1245.54	1.09
283.15	0.0499	1242.09	1.07
283.15	0.1001	1236.38	1.03
283.15	0.1426	1232.77	1.01
283.15	0.2507	1215.07	0.93
283.15	0.3434	1198.44	0.87
283.15	0.4592	1173.6	0.79
283.15	0.5799	1137	0.7
283.15	0.679	1097.17	0.62
283.15	0.7423	1064.52	0.56
283.15	0.7865	1036.74	0.52
283.15	0.8539	983.97	0.47
283.15	0.897	941.18	0.5
283.15	0.9342	897.28	0.54
283.15	0.9567	866.13	0.58
283.15	0.9707	844.43	0.61
283.15	0.9803	828.62	0.63
283.15	0.9872	816.57	0.65
283.15	0.9925	807.23	0.67
283.15	0.9967	799.09	0.68
283.15	1	792.69	0.69
288.15	0	1244.04	1.09
288.15	0.0051	1243.84	1.09
288.15	0.0099	1243.01	1.08
288.15	0.0202	1242.11	1.08
288.15	0.0499	1238.68	1.06
288.15	0.1001	1232.93	1.02
288.15	0.1426	1229.28	1
288.15	0.2507	1211.5	0.92
288.15	0.3434	1194.79	0.86
288.15	0.4592	1169.85	0.78
288.15	0.5799	1133.1	0.7
288.15	0.679	1093.12	0.61
288.15	0.7423	1060.33	0.55
288.15	0.7865	1032.43	0.51
288.15	0.8539	979.43	0.47
288.15	0.897	936.47	0.5
288.15	0.9342	892.39	0.55
288.15	0.9567	861.1	0.59
288.15	0.9707	839.31	0.62
288.15	0.9803	823.44	0.64
288.15	0.9872	811.34	0.66
288.15	0.9925	801.95	0.68
288.15	0.9967	793.78	0.69
288.15	1	787.33	0.7
293.15	0	1240.66	1.08
293.15	0.0051	1240.44	1.08
293.15	0.0099	1239.61	1.08
293.15	0.0202	1238.69	1.07
293.15	0.0499	1235.26	1.05
293.15	0.1001	1229.48	1.01
293.15	0.1426	1225.81	0.99
293.15	0.2507	1207.95	0.91
293.15	0.3434	1191.15	0.85
293.15	0.4592	1166.12	0.78
293.15	0.5799	1129.22	0.69
293.15	0.679	1089.08	0.6
293.15	0.7423	1056.15	0.54
293.15	0.7865	1028.13	0.5
293.15	0.8539	974.91	0.47
293.15	0.897	931.76	0.51
293.15	0.9342	887.47	0.55
293.15	0.9567	856.07	0.59
293.15	0.9707	834.19	0.63
293.15	0.9803	818.24	0.65
293.15	0.9872	806.09	0.67
293.15	0.9925	796.67	0.69
293.15	0.9967	788.44	0.7
293.15	1	781.97	0.71
298.15	0	1237.27	1.08
298.15	0.0051	1237.06	1.07
298.15	0.0099	1236.22	1.07
298.15	0.0202	1235.31	1.06
298.15	0.0499	1231.85	1.04
298.15	0.1001	1226.04	1.01
298.15	0.1426	1222.35	0.98
298.15	0.2507	1204.39	0.9
298.15	0.3434	1187.54	0.84
298.15	0.4592	1162.39	0.77
298.15	0.5799	1125.35	0.68
298.15	0.679	1085.03	0.6
298.15	0.7423	1051.97	0.54
298.15	0.7865	1023.83	0.5
298.15	0.8539	970.37	0.47
298.15	0.897	927.04	0.51
298.15	0.9342	882.61	0.56
298.15	0.9567	851.01	0.6
298.15	0.9707	829.04	0.63
298.15	0.9803	813.02	0.66
298.15	0.9872	800.81	0.68
298.15	0.9925	791.34	0.69
298.15	0.9967	783.08	0.71
298.15	1	776.56	0.72
303.15	0	1233.89	1.07
303.15	0.0051	1233.68	1.06
303.15	0.0099	1232.83	1.06
303.15	0.0202	1231.91	1.05
303.15	0.0499	1228.44	1.03
303.15	0.1001	1222.6	1
303.15	0.1426	1218.9	0.97
303.15	0.2507	1200.86	0.9
303.15	0.3434	1183.93	0.83
303.15	0.4592	1158.68	0.76
303.15	0.5799	1121.49	0.67
303.15	0.679	1081	0.59
303.15	0.7423	1047.8	0.53
303.15	0.7865	1019.53	0.49
303.15	0.8539	965.84	0.48
303.15	0.897	922.31	0.52
303.15	0.9342	877.89	0.57
303.15	0.9567	845.95	0.61
303.15	0.9707	823.87	0.64
303.15	0.9803	807.78	0.67
303.15	0.9872	795.52	0.69
303.15	0.9925	786	0.7
303.15	0.9967	777.69	0.72
303.15	1	771.14	0.73
308.15	0	1230.51	1.06
308.15	0.0051	1230.3	1.06
308.15	0.0099	1229.45	1.05
308.15	0.0202	1228.53	1.04
308.15	0.0499	1225.03	1.02
308.15	0.1001	1219.16	0.99
308.15	0.1426	1215.45	0.97
308.15	0.2507	1197.33	0.89
308.15	0.3434	1180.33	0.83
308.15	0.4592	1154.98	0.76
308.15	0.5799	1117.63	0.67
308.15	0.679	1076.97	0.58
308.15	0.7423	1043.63	0.53
308.15	0.7865	1015.24	0.49
308.15	0.8539	961.31	0.48
308.15	0.897	917.58	0.52
308.15	0.9342	873.12	0.57
308.15	0.9567	840.87	0.62
308.15	0.9707	818.69	0.65
308.15	0.9803	802.52	0.68
308.15	0.9872	790.19	0.7
308.15	0.9925	780.62	0.71
308.15	0.9967	772.28	0.73
308.15	1	765.68	0.74

System: dichloromethane + 1-ethyl-3-methylimidazolium ethyl sulfate; phases: Liquid
Fixed: Pressure, kPa = 101
Property: Mass density, kg/m3 (Liquid); method: VIBTUB:UFactor:6
Temperature, K	Mole fraction of dichloromethane	Mass density, kg/m3	uncertainty
278.15	0	1251.04	1.11
278.15	0.0375	1252.39	1.1
278.15	0.0731	1254.22	1.08
278.15	0.1117	1255.78	1.07
278.15	0.1664	1258.85	1.06
278.15	0.2488	1263.74	1.04
278.15	0.3308	1268.9	1.02
278.15	0.4023	1274.69	1.01
278.15	0.4624	1279.33	1.01
278.15	0.5776	1290.69	1.01
278.15	0.6593	1299.95	1.01
278.15	0.7684	1315.91	1.02
278.15	0.8377	1327.28	1.04
278.15	0.8856	1335.58	1.05
278.15	0.9207	1341.3	1.06
278.15	0.9475	1345.71	1.06
278.15	0.9687	1349.06	1.07
278.15	0.9858	1351.32	1.07
278.15	1	1352.84	1.08
283.15	0	1247.5	1.1
283.15	0.0375	1248.82	1.09
283.15	0.0731	1250.64	1.08
283.15	0.1117	1252.22	1.06
283.15	0.1664	1255.31	1.05
283.15	0.2488	1260.06	1.03
283.15	0.3308	1265.09	1.01
283.15	0.4023	1270.74	1.01
283.15	0.4624	1275.26	1
283.15	0.5776	1286.28	1
283.15	0.6593	1295.23	1
283.15	0.7684	1310.52	1.01
283.15	0.8377	1321.28	1.02
283.15	0.8856	1328.97	1.04
283.15	0.9207	1334.16	1.04
283.15	0.9475	1338.05	1.05
283.15	0.9687	1340.91	1.05
283.15	0.9858	1342.72	1.06
283.15	1	1343.8	1.06
288.15	0	1244.04	1.09
288.15	0.0375	1245.38	1.08
288.15	0.0731	1247.19	1.07
288.15	0.1117	1248.72	1.06
288.15	0.1664	1251.75	1.04
288.15	0.2488	1256.38	1.02
288.15	0.3308	1261.28	1.01
288.15	0.4023	1266.78	1
288.15	0.4624	1271.18	0.99
288.15	0.5776	1281.87	0.99
288.15	0.6593	1290.51	0.99
288.15	0.7684	1305.14	1
288.15	0.8377	1315.26	1.01
288.15	0.8856	1322.35	1.02
288.15	0.9207	1326.99	1.03
288.15	0.9475	1330.35	1.03
288.15	0.9687	1332.71	1.04
288.15	0.9858	1334.07	1.04
288.15	1	1334.71	1.04
293.15	0	1240.66	1.08
293.15	0.0375	1241.96	1.07
293.15	0.0731	1243.72	1.06
293.15	0.1117	1245.22	1.05
293.15	0.1664	1248.14	1.03
293.15	0.2488	1252.7	1.01
293.15	0.3308	1257.48	1
293.15	0.4023	1262.82	0.99
293.15	0.4624	1267.11	0.98
293.15	0.5776	1277.47	0.98
293.15	0.6593	1285.8	0.98
293.15	0.7684	1299.77	0.99
293.15	0.8377	1309.25	1
293.15	0.8856	1315.72	1.01
293.15	0.9207	1319.81	1.01
293.15	0.9475	1322.64	1.02
293.15	0.9687	1324.48	1.02
293.15	0.9858	1325.38	1.02
293.15	1	1325.58	1.02
298.15	0	1237.27	1.08
298.15	0.0375	1238.55	1.06
298.15	0.0731	1240.27	1.05
298.15	0.1117	1241.73	1.04
298.15	0.1664	1244.63	1.02
298.15	0.2488	1249.03	1.01
298.15	0.3308	1253.69	0.99
298.15	0.4023	1258.9	0.98
298.15	0.4624	1263.05	0.97
298.15	0.5776	1273.07	0.97
298.15	0.6593	1281.09	0.97
298.15	0.7684	1294.38	0.98
298.15	0.8377	1303.21	0.99
298.15	0.8856	1309.05	0.99
298.15	0.9207	1312.58	1
298.15	0.9475	1314.87	1
298.15	0.9687	1316.18	1
298.15	0.9858	1316.61	1
298.15	1	1316.34	1
303.15	0	1233.89	1.07
303.15	0.0375	1235.13	1.05
303.15	0.0731	1236.81	1.04
303.15	0.1117	1238.24	1.03
303.15	0.1664	1241.08	1.02
303.15	0.2488	1245.37	1
303.15	0.3308	1249.9	0.98
303.15	0.4023	1254.97	0.97
303.15	0.4624	1259	0.96
303.15	0.5776	1268.69	0.96
303.15	0.6593	1276.39	0.96
303.15	0.7684	1289	0.97
303.15	0.8377	1297.16	0.97
303.15	0.8856	1302.36	0.98
303.15	0.9207	1305.32	0.98
303.15	0.9475	1307.06	0.99
303.15	0.9687	1307.85	0.99
303.15	0.9858	1307.8	0.98
303.15	1	1307.06	0.98
308.15	0	1230.51	1.06
308.15	0.0375	1231.72	1.05
308.15	0.0731	1233.36	1.03
308.15	0.1117	1234.76	1.02
308.15	0.1664	1237.55	1.01
308.15	0.2488	1241.71	0.99
308.15	0.3308	1246.13	0.97
308.15	0.4023	1251.05	0.96
308.15	0.4624	1254.96	0.96
308.15	0.5776	1264.32	0.95
308.15	0.6593	1271.69	0.95
308.15	0.7684	1283.61	0.96
308.15	0.8377	1291.11	0.96
308.15	0.8856	1295.65	0.97
308.15	0.9207	1298.03	0.97
308.15	0.9475	1299.21	0.97
308.15	0.9687	1299.46	0.97
308.15	0.9858	1298.92	0.97
308.15	1	1297.69	0.96

System: ethanol + 1-ethyl-3-methylimidazolium ethyl sulfate; phases: Liquid
Fixed: Pressure, kPa = 101
Property: Mass density, kg/m3 (Liquid); method: VIBTUB:UFactor:6
Temperature, K	Mole fraction of ethanol	Mass density, kg/m3	uncertainty
278.15	0	1251.4	1.11
278.15	0.016	1249.64	1.1
278.15	0.0254	1248.22	1.09
278.15	0.0425	1246.12	1.08
278.15	0.0877	1240.95	1.05
278.15	0.1178	1235.48	1.02
278.15	0.142	1231.31	1
278.15	0.2344	1216.31	0.94
278.15	0.4236	1174.57	0.8
278.15	0.6005	1116.78	0.66
278.15	0.7305	1055.36	0.55
278.15	0.833	987.08	0.46
278.15	0.9022	925.53	0.51
278.15	0.9567	863.73	0.58
278.15	0.9846	826.39	0.64
278.15	0.9924	814.42	0.66
278.15	0.9963	808.01	0.67
278.15	1	802.12	0.68
283.15	0	1247.84	1.1
283.15	0.016	1246.08	1.09
283.15	0.0254	1244.65	1.08
283.15	0.0425	1242.58	1.07
283.15	0.0877	1237.47	1.04
283.15	0.1178	1232.05	1.01
283.15	0.142	1227.85	0.99
283.15	0.2344	1212.79	0.93
283.15	0.4236	1170.96	0.79
283.15	0.6005	1113.06	0.66
283.15	0.7305	1051.54	0.54
283.15	0.833	983.14	0.47
283.15	0.9022	921.55	0.51
283.15	0.9567	860.74	0.59
283.15	0.9846	822.21	0.64
283.15	0.9924	810.28	0.66
283.15	0.9963	803.79	0.67
283.15	1	797.89	0.68
288.15	0	1244.39	1.09
288.15	0.016	1242.65	1.08
288.15	0.0254	1241.24	1.07
288.15	0.0425	1239.16	1.06
288.15	0.0877	1234.04	1.03
288.15	0.1178	1228.59	1.01
288.15	0.142	1224.38	0.99
288.15	0.2344	1209.28	0.92
288.15	0.4236	1167.36	0.79
288.15	0.6005	1109.36	0.65
288.15	0.7305	1047.72	0.53
288.15	0.833	979.21	0.47
288.15	0.9022	917.81	0.52
288.15	0.9567	856.8	0.59
288.15	0.9846	818.01	0.65
288.15	0.9924	806.17	0.67
288.15	0.9963	799.55	0.68
288.15	1	793.63	0.69
293.15	0	1241.01	1.08
293.15	0.016	1239.25	1.07
293.15	0.0254	1237.84	1.07
293.15	0.0425	1235.76	1.05
293.15	0.0877	1230.59	1.02
293.15	0.1178	1225.14	1
293.15	0.142	1220.92	0.98
293.15	0.2344	1205.78	0.91
293.15	0.4236	1163.79	0.78
293.15	0.6005	1105.67	0.64
293.15	0.7305	1043.92	0.53
293.15	0.833	975.3	0.47
293.15	0.9022	913.45	0.52
293.15	0.9567	851.32	0.6
293.15	0.9846	813.81	0.66
293.15	0.9924	801.75	0.68
293.15	0.9963	795.3	0.69
293.15	1	789.37	0.7
298.15	0	1237.63	1.08
298.15	0.016	1235.85	1.06
298.15	0.0254	1234.43	1.06
298.15	0.0425	1232.34	1.04
298.15	0.0877	1227.18	1.01
298.15	0.1178	1221.7	0.99
298.15	0.142	1217.47	0.97
298.15	0.2344	1202.3	0.9
298.15	0.4236	1160.21	0.77
298.15	0.6005	1101.99	0.64
298.15	0.7305	1040.12	0.52
298.15	0.833	971.37	0.47
298.15	0.9022	910.22	0.53
298.15	0.9567	848.59	0.6
298.15	0.9846	809.59	0.66
298.15	0.9924	797.8	0.68
298.15	0.9963	791.03	0.7
298.15	1	785.08	0.71
303.15	0	1234.24	1.07
303.15	0.016	1232.45	1.06
303.15	0.0254	1231.03	1.05
303.15	0.0425	1228.94	1.04
303.15	0.0877	1223.75	1.01
303.15	0.1178	1218.26	0.98
303.15	0.142	1214.02	0.96
303.15	0.2344	1198.83	0.9
303.15	0.4236	1156.65	0.76
303.15	0.6005	1098.32	0.63
303.15	0.7305	1036.36	0.52
303.15	0.833	967.46	0.48
303.15	0.9022	906.22	0.53
303.15	0.9567	844.44	0.61
303.15	0.9846	805.36	0.67
303.15	0.9924	793.53	0.69
303.15	0.9963	786.74	0.7
303.15	1	780.77	0.71
308.15	0	1230.87	1.06
308.15	0.016	1229.05	1.05
308.15	0.0254	1227.63	1.04
308.15	0.0425	1225.53	1.03
308.15	0.0877	1220.34	1
308.15	0.1178	1214.84	0.97
308.15	0.142	1210.59	0.95
308.15	0.2344	1195.36	0.89
308.15	0.4236	1153.1	0.76
308.15	0.6005	1094.66	0.63
308.15	0.7305	1032.55	0.51
308.15	0.833	963.54	0.48
308.15	0.9022	902.18	0.54
308.15	0.9567	840.27	0.62
308.15	0.9846	801.09	0.68
308.15	0.9924	789.23	0.7
308.15	0.9963	782.41	0.71
308.15	1	776.42	0.72

System: methanol + 1-ethyl-3-methylimidazolium ethyl sulfate; phases: Liquid
Fixed: Pressure, kPa = 101
Property: Mass density, kg/m3 (Liquid); method: VIBTUB:UFactor:6
Temperature, K	Mole fraction of methanol	Mass density, kg/m3	uncertainty
278.15	0	1251.04	1.11
278.15	0.005	1250.51	1.11
278.15	0.0097	1250.12	1.1
278.15	0.015	1249.8	1.1
278.15	0.0252	1248.78	1.09
278.15	0.0403	1247.44	1.08
278.15	0.0598	1245.64	1.07
278.15	0.08	1243.77	1.06
278.15	0.1001	1241.79	1.04
278.15	0.15	1236.8	1.01
278.15	0.2	1231.24	0.98
278.15	0.3	1218.1	0.92
278.15	0.4	1201.9	0.86
278.15	0.4999	1180.84	0.8
278.15	0.6	1153.55	0.73
278.15	0.7	1115.57	0.65
278.15	0.8	1059.76	0.55
278.15	0.9	971.1	0.47
278.15	0.95	902.84	0.53
278.15	0.98	849.24	0.6
278.15	1	805.53	0.67
283.15	0	1247.5	1.1
283.15	0.005	1246.96	1.1
283.15	0.0097	1246.57	1.09
283.15	0.015	1246.24	1.09
283.15	0.0252	1245.23	1.08
283.15	0.0403	1243.88	1.07
283.15	0.0598	1242.13	1.06
283.15	0.08	1240.29	1.05
283.15	0.1001	1238.35	1.04
283.15	0.15	1233.34	1
283.15	0.2	1227.75	0.97
283.15	0.3	1214.56	0.91
283.15	0.4	1198.3	0.85
283.15	0.4999	1177.18	0.79
283.15	0.6	1149.82	0.72
283.15	0.7	1111.73	0.64
283.15	0.8	1055.79	0.54
283.15	0.9	966.89	0.47
283.15	0.95	898.44	0.54
283.15	0.98	844.69	0.61
283.15	1	800.85	0.68
288.15	0	1244.04	1.09
288.15	0.005	1243.52	1.09
288.15	0.0097	1243.14	1.09
288.15	0.015	1242.81	1.08
288.15	0.0252	1241.82	1.08
288.15	0.0403	1240.48	1.07
288.15	0.0598	1238.72	1.05
288.15	0.08	1236.86	1.04
288.15	0.1001	1234.91	1.03
288.15	0.15	1229.88	1
288.15	0.2	1224.26	0.97
288.15	0.3	1211.02	0.9
288.15	0.4	1194.72	0.84
288.15	0.4999	1173.54	0.78
288.15	0.6	1146.1	0.71
288.15	0.7	1107.91	0.63
288.15	0.8	1051.82	0.53
288.15	0.9	962.68	0.47
288.15	0.95	894.05	0.54
288.15	0.98	840.15	0.62
288.15	1	796.16	0.69
293.15	0	1240.66	1.08
293.15	0.005	1240.13	1.08
293.15	0.0097	1239.75	1.08
293.15	0.015	1239.42	1.07
293.15	0.0252	1238.42	1.07
293.15	0.0403	1237.07	1.06
293.15	0.0598	1235.31	1.04
293.15	0.08	1233.44	1.03
293.15	0.1001	1231.47	1.02
293.15	0.15	1226.42	0.99
293.15	0.2	1220.78	0.96
293.15	0.3	1207.5	0.9
293.15	0.4	1191.15	0.84
293.15	0.4999	1169.91	0.78
293.15	0.6	1142.4	0.71
293.15	0.7	1104.11	0.63
293.15	0.8	1047.87	0.53
293.15	0.9	958.49	0.48
293.15	0.95	889.67	0.55
293.15	0.98	835.63	0.62
293.15	1	791.49	0.69
298.15	0	1237.27	1.08
298.15	0.005	1236.74	1.07
298.15	0.0097	1236.36	1.07
298.15	0.015	1236.02	1.07
298.15	0.0252	1235.02	1.06
298.15	0.0403	1233.67	1.05
298.15	0.0598	1231.89	1.04
298.15	0.08	1230.02	1.02
298.15	0.1001	1228.05	1.01
298.15	0.15	1222.98	0.98
298.15	0.2	1217.32	0.95
298.15	0.3	1203.99	0.89
298.15	0.4	1187.59	0.83
298.15	0.4999	1166.29	0.77
298.15	0.6	1138.71	0.7
298.15	0.7	1100.31	0.62
298.15	0.8	1043.92	0.52
298.15	0.9	954.29	0.48
298.15	0.95	885.26	0.55
298.15	0.98	831.05	0.63
298.15	1	786.77	0.7
303.15	0	1233.89	1.07
303.15	0.005	1233.36	1.06
303.15	0.0097	1232.97	1.06
303.15	0.015	1232.63	1.06
303.15	0.0252	1231.63	1.05
303.15	0.0403	1230.27	1.04
303.15	0.0598	1228.49	1.03
303.15	0.08	1226.61	1.02
303.15	0.1001	1224.63	1
303.15	0.15	1219.54	0.97
303.15	0.2	1213.87	0.94
303.15	0.3	1200.5	0.88
303.15	0.4	1184.05	0.82
303.15	0.4999	1162.69	0.76
303.15	0.6	1135.03	0.69
303.15	0.7	1096.53	0.61
303.15	0.8	1039.98	0.52
303.15	0.9	950.1	0.48
303.15	0.95	880.86	0.56
303.15	0.98	826.49	0.64
303.15	1	782.05	0.71
308.15	0	1230.51	1.06
308.15	0.005	1229.98	1.05
308.15	0.0097	1229.59	1.05
308.15	0.015	1229.24	1.05
308.15	0.0252	1228.25	1.04
308.15	0.0403	1226.88	1.03
308.15	0.0598	1225.09	1.02
308.15	0.08	1223.2	1.01
308.15	0.1001	1221.22	0.99
308.15	0.15	1216.12	0.96
308.15	0.2	1210.42	0.93
308.15	0.3	1197.01	0.87
308.15	0.4	1180.51	0.81
308.15	0.4999	1159.1	0.76
308.15	0.6	1131.37	0.69
308.15	0.7	1092.76	0.61
308.15	0.8	1036.05	0.52
308.15	0.9	945.91	0.49
308.15	0.95	876.46	0.57
308.15	0.98	821.91	0.65
308.15	1	777.3	0.72

System: 4-methyl-1,3-dioxolan-2-one + 1-ethyl-3-methylimidazolium ethyl sulfate; phases: Liquid
Fixed: Pressure, kPa = 101
Property: Mass density, kg/m3 (Liquid); method: VIBTUB:UFactor:6
Temperature, K	Mole fraction of 4-methyl-1,3-dioxolan-2-one	Mass density, kg/m3	uncertainty
278.15	0	1251.04	1.11
278.15	0.0266	1250.69	1.1
278.15	0.0513	1250.41	1.09
278.15	0.0755	1250.13	1.08
278.15	0.1231	1249.6	1.06
278.15	0.1825	1248.89	1.04
278.15	0.2548	1248.05	1.02
278.15	0.3178	1247.17	1
278.15	0.3778	1246.4	0.98
278.15	0.4859	1244.38	0.95
278.15	0.5725	1242.6	0.93
278.15	0.6971	1239.08	0.9
278.15	0.7812	1235.9	0.88
278.15	0.8427	1232.95	0.87
278.15	0.8893	1230.36	0.86
278.15	0.9259	1227.81	0.85
278.15	0.9554	1225.35	0.84
278.15	0.9797	1223.22	0.83
278.15	1	1220.93	0.83
283.15	0	1247.5	1.1
283.15	0.0266	1247.12	1.09
283.15	0.0513	1246.82	1.08
283.15	0.0755	1246.55	1.07
283.15	0.1231	1246.04	1.06
283.15	0.1825	1245.35	1.04
283.15	0.2548	1244.41	1.01
283.15	0.3178	1243.45	0.99
283.15	0.3778	1242.61	0.98
283.15	0.4859	1240.42	0.95
283.15	0.5725	1238.5	0.92
283.15	0.6971	1234.73	0.89
283.15	0.7812	1231.35	0.87
283.15	0.8427	1228.23	0.86
283.15	0.8893	1225.48	0.85
283.15	0.9259	1222.79	0.84
283.15	0.9554	1220.2	0.83
283.15	0.9797	1217.97	0.82
283.15	1	1215.57	0.82
288.15	0	1244.04	1.09
288.15	0.0266	1243.68	1.08
288.15	0.0513	1243.39	1.07
288.15	0.0755	1243.1	1.06
288.15	0.1231	1242.54	1.05
288.15	0.1825	1241.79	1.03
288.15	0.2548	1240.76	1
288.15	0.3178	1239.73	0.98
288.15	0.3778	1238.81	0.97
288.15	0.4859	1236.47	0.94
288.15	0.5725	1234.4	0.91
288.15	0.6971	1230.4	0.88
288.15	0.7812	1226.82	0.86
288.15	0.8427	1223.51	0.85
288.15	0.8893	1220.62	0.84
288.15	0.9259	1217.79	0.83
288.15	0.9554	1215.07	0.82
288.15	0.9797	1212.73	0.81
288.15	1	1210.21	0.81
293.15	0	1240.66	1.08
293.15	0.0266	1240.27	1.07
293.15	0.0513	1239.97	1.06
293.15	0.0755	1239.64	1.06
293.15	0.1231	1239.04	1.04
293.15	0.1825	1238.2	1.02
293.15	0.2548	1237.11	1
293.15	0.3178	1236.01	0.98
293.15	0.3778	1235.04	0.96
293.15	0.4859	1232.54	0.93
293.15	0.5725	1230.34	0.91
293.15	0.6971	1226.09	0.88
293.15	0.7812	1222.31	0.85
293.15	0.8427	1218.83	0.84
293.15	0.8893	1215.78	0.83
293.15	0.9259	1212.81	0.82
293.15	0.9554	1209.96	0.81
293.15	0.9797	1207.51	0.8
293.15	1	1204.88	0.8
298.15	0	1237.27	1.08
298.15	0.0266	1236.86	1.06
298.15	0.0513	1236.53	1.06
298.15	0.0755	1236.19	1.05
298.15	0.1231	1235.55	1.03
298.15	0.1825	1234.68	1.01
298.15	0.2548	1233.49	0.99
298.15	0.3178	1232.32	0.97
298.15	0.3778	1231.27	0.95
298.15	0.4859	1228.62	0.92
298.15	0.5725	1226.28	0.9
298.15	0.6971	1221.79	0.87
298.15	0.7812	1217.81	0.85
298.15	0.8427	1214.15	0.83
298.15	0.8893	1210.95	0.82
298.15	0.9259	1207.84	0.81
298.15	0.9554	1204.85	0.8
298.15	0.9797	1202.3	0.79
298.15	1	1199.55	0.78
303.15	0	1233.89	1.07
303.15	0.0266	1233.45	1.06
303.15	0.0513	1233.11	1.05
303.15	0.0755	1232.74	1.04
303.15	0.1231	1232.06	1.02
303.15	0.1825	1231.13	1
303.15	0.2548	1229.88	0.98
303.15	0.3178	1228.64	0.96
303.15	0.3778	1227.52	0.94
303.15	0.4859	1224.71	0.91
303.15	0.5725	1222.25	0.89
303.15	0.6971	1217.52	0.86
303.15	0.7812	1213.33	0.84
303.15	0.8427	1209.49	0.82
303.15	0.8893	1206.14	0.81
303.15	0.9259	1202.89	0.8
303.15	0.9554	1199.76	0.79
303.15	0.9797	1197.09	0.78
303.15	1	1194.23	0.77
308.15	0	1230.51	1.06
308.15	0.0266	1230.06	1.05
308.15	0.0513	1229.69	1.04
308.15	0.0755	1229.3	1.03
308.15	0.1231	1228.58	1.01
308.15	0.1825	1227.6	0.99
308.15	0.2548	1226.27	0.97
308.15	0.3178	1224.96	0.95
308.15	0.3778	1223.78	0.93
308.15	0.4859	1220.83	0.9
308.15	0.5725	1218.22	0.88
308.15	0.6971	1213.25	0.85
308.15	0.7812	1208.86	0.83
308.15	0.8427	1204.84	0.81
308.15	0.8893	1201.34	0.8
308.15	0.9259	1197.94	0.79
308.15	0.9554	1194.68	0.78
308.15	0.9797	1191.9	0.77
308.15	1	1188.91	0.76

System: water + 1-ethyl-3-methylimidazolium ethyl sulfate; phases: Liquid
Fixed: Pressure, kPa = 101
Property: Mass density, kg/m3 (Liquid); method: VIBTUB:UFactor:6
Temperature, K	Mole fraction of water	Mass density, kg/m3	uncertainty
278.15	0	1250.63	1.11
278.15	0.0136	1250.46	1.1
278.15	0.0253	1250.19	1.1
278.15	0.0415	1249.8	1.1
278.15	0.0729	1249.17	1.09
278.15	0.1429	1247.67	1.07
278.15	0.2344	1245.53	1.04
278.15	0.392	1239.94	1
278.15	0.5695	1228.84	0.94
278.15	0.7408	1207.89	0.87
278.15	0.9032	1149.37	0.73
278.15	0.9577	1094.19	0.62
278.15	0.984	1045.11	0.53
278.15	0.9923	1023.67	0.49
278.15	0.9963	1012.18	0.47
278.15	1	999.96	0.45
283.15	0	1247.18	1.1
283.15	0.0136	1246.91	1.1
283.15	0.0253	1246.63	1.09
283.15	0.0415	1246.24	1.09
283.15	0.0729	1245.66	1.08
283.15	0.1429	1244.26	1.06
283.15	0.2344	1242.12	1.03
283.15	0.392	1236.5	0.99
283.15	0.5695	1225.35	0.93
283.15	0.7408	1204.4	0.86
283.15	0.9032	1146.18	0.72
283.15	0.9577	1091.9	0.61
283.15	0.984	1043.88	0.52
283.15	0.9923	1022.91	0.49
283.15	0.9963	1011.69	0.47
283.15	1	999.69	0.45
288.15	0	1243.79	1.09
288.15	0.0136	1243.47	1.09
288.15	0.0253	1243.21	1.08
288.15	0.0415	1242.85	1.08
288.15	0.0729	1242.27	1.07
288.15	0.1429	1240.85	1.05
288.15	0.2344	1238.69	1.02
288.15	0.392	1233.06	0.98
288.15	0.5695	1221.87	0.92
288.15	0.7408	1200.9	0.85
288.15	0.9032	1142.95	0.71
288.15	0.9577	1089.5	0.61
288.15	0.984	1042.43	0.52
288.15	0.9923	1021.88	0.49
288.15	0.9963	1010.85	0.47
288.15	1	999.09	0.45
293.15	0	1240.39	1.08
293.15	0.0136	1240.09	1.08
293.15	0.0253	1239.82	1.08
293.15	0.0415	1239.46	1.07
293.15	0.0729	1238.88	1.06
293.15	0.1429	1237.44	1.04
293.15	0.2344	1235.28	1.02
293.15	0.392	1229.63	0.97
293.15	0.5695	1218.47	0.92
293.15	0.7408	1197.39	0.85
293.15	0.9032	1139.65	0.71
293.15	0.9577	1086.99	0.6
293.15	0.984	1040.71	0.52
293.15	0.9923	1020.61	0.49
293.15	0.9963	1009.45	0.47
293.15	1	998.2	0.45
298.15	0	1237	1.07
298.15	0.0136	1236.7	1.07
298.15	0.0253	1236.42	1.07
298.15	0.0415	1236.06	1.06
298.15	0.0729	1235.48	1.05
298.15	0.1429	1234.04	1.03
298.15	0.2344	1231.86	1.01
298.15	0.392	1226.2	0.96
298.15	0.5695	1214.98	0.91
298.15	0.7408	1193.86	0.84
298.15	0.9032	1136.37	0.7
298.15	0.9577	1084.4	0.6
298.15	0.984	1038.74	0.51
298.15	0.9923	1019.12	0.48
298.15	0.9963	1008.24	0.47
298.15	1	997.04	0.46
303.15	0	1233.63	1.07
303.15	0.0136	1233.31	1.06
303.15	0.0253	1233.03	1.06
303.15	0.0415	1232.67	1.05
303.15	0.0729	1232.09	1.04
303.15	0.1429	1230.64	1.03
303.15	0.2344	1228.46	1
303.15	0.392	1222.78	0.96
303.15	0.5695	1211.55	0.9
303.15	0.7408	1190.33	0.83
303.15	0.9032	1133.02	0.69
303.15	0.9577	1081.7	0.59
303.15	0.984	1036.44	0.51
303.15	0.9923	1017.42	0.48
303.15	0.9963	1006.56	0.46
303.15	1	995.64	0.46
308.15	0	1230.27	1.06
308.15	0.0136	1229.93	1.05
308.15	0.0253	1229.65	1.05
308.15	0.0415	1229.29	1.05
308.15	0.0729	1228.7	1.04
308.15	0.1429	1227.25	1.02
308.15	0.2344	1225.06	0.99
308.15	0.392	1219.36	0.95
308.15	0.5695	1208.12	0.89
308.15	0.7408	1186.78	0.83
308.15	0.9032	1129.61	0.69
308.15	0.9577	1078.89	0.59
308.15	0.984	1033.81	0.51
308.15	0.9923	1015.54	0.48
308.15	0.9963	1004.39	0.46
308.15	1	994.02	0.46
