Measured thermophysical data. Thermodynamic Study of Some Amino Acids, 2-Aminopropanoic Acid, 2-Amino-3-methylbutanoic Acid, 2-Amino-4-methylpentanoic Acid, and 2-Amino-3-phenylpropanoic Acid in Aqueous Saccharide Solutions at Different Temperatures: Volumetric and Ultrasonic Study
Source: J. Chem. Eng. Data, 2011, 10.1021/je100857s
Compound 1: (S)-2-aminopropanoic acid, C3H7NO2, InChI=1S/C3H7NO2/c1-2(4)3(5)6/h2H,4H2,1H3,(H,5,6)/t2-/m0/s1
Compound 2: L-valine, C5H11NO2, InChI=1S/C5H11NO2/c1-3(2)4(6)5(7)8/h3-4H,6H2,1-2H3,(H,7,8)/t4-/m0/s1
Compound 3: L-leucine, C6H13NO2, InChI=1S/C6H13NO2/c1-4(2)3-5(7)6(8)9/h4-5H,3,7H2,1-2H3,(H,8,9)/t5-/m0/s1
Compound 4: L-phenylalanine, C9H11NO2, InChI=1S/C9H11NO2/c10-8(9(11)12)6-7-4-2-1-3-5-7/h1-5,8H,6,10H2,(H,11,12)/t8-/m0/s1
Compound 5: D-cellobiose, C12H22O11, InChI=1S/C12H22O11/c13-1-3-5(15)6(16)9(19)12(22-3)23-10-4(2-14)21-11(20)8(18)7(10)17/h3-20H,1-2H2/t3-,4-,5-,6+,7-,8-,9-,10-,11-,12+/m1/s1
Compound 6: O-.alpha.-glucopyranosyl-(1,3)-O-.beta.-D- fructofuranosyl-(2,1)-.alpha.-D-glucopyranoside, C18H32O16, InChI=1S/C18H32O16/c19-1-5-8(23)11(26)13(28)16(30-5)32-15-10(25)7(3-21)33-18(15,4-22)34-17-14(29)12(27)9(24)6(2-20)31-17/h5-17,19-29H,1-4H2/t5-,6-,7-,8-,9-,10-,11+,12+,13-,14-,15+,16-,17-,18+/m1/s1
Compound 7: D-fructose, C6H12O6, InChI=1S/C6H12O6/c7-1-3(9)5(11)6(12)4(10)2-8/h3,5-9,11-12H,1-2H2/t3-,5-,6-/m1/s1
Compound 8: water, H2O, InChI=1S/H2O/h1H2

System: water; phases: Liquid
Fixed: Pressure, kPa = 101
Property: Mass density, kg/m3 (Liquid); method: VIBTUB::UFactor:6
Temperature, K	Mass density, kg/m3	uncertainty
293.15	998.219	0.192
298.15	997.05	0.195
303.15	995.645	0.198
308.15	994.02	0.202

System: water; phases: Liquid
Fixed: Pressure, kPa = 101
Property: Speed of sound, m/s (Liquid); method: Pulse-echo method
Temperature, K	Speed of sound, m/s	uncertainty
293.15	1482.98	0.74
298.15	1497.2	0.74
303.15	1509.46	0.75
308.15	1519.91	0.75

System: (S)-2-aminopropanoic acid + D-fructose + water; phases: Liquid
Fixed: Pressure, kPa = 101
Fixed: Solvent: Molality, mol/kg of D-fructose = 0.10199
Property: Mass density, kg/m3 (Liquid); method: VIBTUB:UFactor:6
Temperature, K	Molality, mol/kg of (S)-2-aminopropanoic acid	Mass density, kg/m3	uncertainty
293.15	0	1005.258	0.296
293.15	0.05669	1006.878	0.3
293.15	0.09581	1007.987	0.302
293.15	0.14773	1009.44	0.306
293.15	0.19786	1010.83	0.31
293.15	0.22825	1011.668	0.312
293.15	0.28104	1013.104	0.315
298.15	0	1004.028	0.292
298.15	0.05669	1005.634	0.296
298.15	0.09581	1006.732	0.299
298.15	0.14773	1008.175	0.303
298.15	0.19786	1009.553	0.306
298.15	0.22825	1010.384	0.309
298.15	0.28104	1011.806	0.312
303.15	0	1002.569	0.289
303.15	0.05669	1004.161	0.293
303.15	0.09581	1005.248	0.296
303.15	0.14773	1006.68	0.299
303.15	0.19786	1008.049	0.303
303.15	0.22825	1008.872	0.305
303.15	0.28104	1010.284	0.308
308.15	0	1000.9	0.285
308.15	0.05669	1002.473	0.288
308.15	0.09581	1003.551	0.291
308.15	0.14773	1004.972	0.295
308.15	0.19786	1006.33	0.298
308.15	0.22825	1007.149	0.3
308.15	0.28104	1008.561	0.304

System: (S)-2-aminopropanoic acid + D-fructose + water; phases: Liquid
Fixed: Pressure, kPa = 101
Fixed: Solvent: Molality, mol/kg of D-fructose = 0.10199
Property: Speed of sound, m/s (Liquid); method: Pulse-echo method
Temperature, K	Molality, mol/kg of (S)-2-aminopropanoic acid	Speed of sound, m/s	uncertainty
293.15	0	1490	1.01
293.15	0.05669	1494.01	1.02
293.15	0.09581	1496.78	1.02
293.15	0.14773	1500.49	1.02
293.15	0.19786	1504.1	1.02
293.15	0.22825	1506.17	1.02
293.15	0.28104	1510.06	1.02
298.15	0	1503.92	1.02
298.15	0.05669	1507.59	1.02
298.15	0.09581	1510.13	1.02
298.15	0.14773	1513.52	1.02
298.15	0.19786	1516.8	1.02
298.15	0.22825	1518.85	1.02
298.15	0.28104	1522.21	1.02
303.15	0	1515.85	1.02
303.15	0.05669	1519.54	1.02
303.15	0.09581	1522.1	1.02
303.15	0.14773	1525.5	1.02
303.15	0.19786	1528.82	1.02
303.15	0.22825	1530.85	1.03
303.15	0.28104	1534.32	1.03
308.15	0	1525.95	1.02
308.15	0.05669	1529.58	1.02
308.15	0.09581	1532.04	1.03
308.15	0.14773	1534.92	1.03
308.15	0.19786	1538.24	1.03
308.15	0.22825	1540.42	1.03
308.15	0.28104	1543.29	1.03

System: (S)-2-aminopropanoic acid + D-cellobiose + water; phases: Liquid
Fixed: Pressure, kPa = 101
Fixed: Solvent: Molality, mol/kg of D-cellobiose = 0.09815
Property: Mass density, kg/m3 (Liquid); method: VIBTUB:UFactor:6
Temperature, K	Molality, mol/kg of (S)-2-aminopropanoic acid	Mass density, kg/m3	uncertainty
293.15	0	1011.187	0.311
293.15	0.05758	1012.813	0.315
293.15	0.10918	1014.259	0.318
293.15	0.15693	1015.587	0.322
293.15	0.19792	1016.717	0.325
293.15	0.24961	1018.133	0.328
293.15	0.29398	1019.343	0.331
298.15	0	1009.944	0.307
298.15	0.05758	1011.555	0.312
298.15	0.10918	1012.987	0.315
298.15	0.15693	1014.303	0.319
298.15	0.19792	1015.422	0.321
298.15	0.24961	1016.825	0.325
298.15	0.29398	1018.025	0.328
303.15	0	1008.473	0.304
303.15	0.05758	1010.072	0.308
303.15	0.10918	1011.494	0.311
303.15	0.15693	1012.798	0.315
303.15	0.19792	1013.91	0.318
303.15	0.24961	1015.304	0.321
303.15	0.29398	1016.496	0.324
308.15	0	1006.794	0.299
308.15	0.05758	1008.386	0.304
308.15	0.10918	1009.797	0.307
308.15	0.15693	1011.095	0.31
308.15	0.19792	1012.203	0.313
308.15	0.24961	1013.588	0.317
308.15	0.29398	1014.762	0.32

System: (S)-2-aminopropanoic acid + D-cellobiose + water; phases: Liquid
Fixed: Pressure, kPa = 101
Fixed: Solvent: Molality, mol/kg of D-cellobiose = 0.09815
Property: Speed of sound, m/s (Liquid); method: Pulse-echo method
Temperature, K	Molality, mol/kg of (S)-2-aminopropanoic acid	Speed of sound, m/s	uncertainty
293.15	0	1493.51	1.02
293.15	0.05758	1497.71	1.02
293.15	0.10918	1501.47	1.02
293.15	0.15693	1504.97	1.02
293.15	0.19792	1507.92	1.02
293.15	0.24961	1511.65	1.02
293.15	0.29398	1514.96	1.02
298.15	0	1507.16	1.02
298.15	0.05758	1511.05	1.02
298.15	0.10918	1514.55	1.02
298.15	0.15693	1517.75	1.02
298.15	0.19792	1520.6	1.02
298.15	0.24961	1524.01	1.02
298.15	0.29398	1527.11	1.02
303.15	0	1518.87	1.02
303.15	0.05758	1522.75	1.02
303.15	0.10918	1526.24	1.02
303.15	0.15693	1529.48	1.02
303.15	0.19792	1532.26	1.03
303.15	0.24961	1535.73	1.03
303.15	0.29398	1538.78	1.03
308.15	0	1528.78	1.02
308.15	0.05758	1532.6	1.03
308.15	0.10918	1535.99	1.03
308.15	0.15693	1539.04	1.03
308.15	0.19792	1541.95	1.03
308.15	0.24961	1545.38	1.03
308.15	0.29398	1547.76	1.03

System: (S)-2-aminopropanoic acid + O-.alpha.-glucopyranosyl-(1,3)-O-.beta.-D- fructofuranosyl-(2,1)-.alpha.-D-glucopyranoside + water; phases: Liquid
Fixed: Pressure, kPa = 101
Fixed: Solvent: Molality, mol/kg of O-.alpha.-glucopyranosyl-(1,3)-O-.beta.-D- fructofuranosyl-(2,1)-.alpha.-D-glucopyranoside = 0.09059
Property: Mass density, kg/m3 (Liquid); method: VIBTUB:UFactor:6
Temperature, K	Molality, mol/kg of (S)-2-aminopropanoic acid	Mass density, kg/m3	uncertainty
293.15	0	1017.278	0.326
293.15	0.04586	1018.561	0.329
293.15	0.10491	1020.21	0.334
293.15	0.14444	1021.311	0.336
293.15	0.18219	1022.362	0.339
293.15	0.23272	1023.768	0.343
293.15	0.28971	1025.349	0.347
298.15	0	1016.017	0.323
298.15	0.04586	1017.271	0.326
298.15	0.10491	1018.881	0.33
298.15	0.14444	1019.954	0.333
298.15	0.18219	1020.978	0.336
298.15	0.23272	1022.349	0.339
298.15	0.28971	1023.885	0.343
303.15	0	1014.53	0.319
303.15	0.04586	1015.778	0.322
303.15	0.10491	1017.379	0.326
303.15	0.14444	1018.448	0.329
303.15	0.18219	1019.463	0.332
303.15	0.23272	1020.823	0.335
303.15	0.28971	1022.349	0.339
308.15	0	1012.836	0.315
308.15	0.04586	1014.084	0.318
308.15	0.10491	1015.686	0.322
308.15	0.14444	1016.755	0.325
308.15	0.18219	1017.773	0.327
308.15	0.23272	1019.134	0.331
308.15	0.28971	1020.663	0.335

System: (S)-2-aminopropanoic acid + O-.alpha.-glucopyranosyl-(1,3)-O-.beta.-D- fructofuranosyl-(2,1)-.alpha.-D-glucopyranoside + water; phases: Liquid
Fixed: Pressure, kPa = 101
Fixed: Solvent: Molality, mol/kg of O-.alpha.-glucopyranosyl-(1,3)-O-.beta.-D- fructofuranosyl-(2,1)-.alpha.-D-glucopyranoside = 0.09059
Property: Speed of sound, m/s (Liquid); method: Pulse-echo method
Temperature, K	Molality, mol/kg of (S)-2-aminopropanoic acid	Speed of sound, m/s	uncertainty
293.15	0	1496.44	1.02
293.15	0.04586	1499.66	1.02
293.15	0.10491	1503.78	1.02
293.15	0.14444	1506.47	1.02
293.15	0.18219	1509.09	1.02
293.15	0.23272	1512.48	1.02
293.15	0.28971	1516.55	1.02
298.15	0	1510.14	1.02
298.15	0.04586	1513.21	1.02
298.15	0.10491	1517.15	1.02
298.15	0.14444	1519.74	1.02
298.15	0.18219	1522.26	1.02
298.15	0.23272	1525.54	1.02
298.15	0.28971	1529.5	1.03
303.15	0	1521.8	1.02
303.15	0.04586	1524.79	1.02
303.15	0.10491	1528.6	1.02
303.15	0.14444	1531.14	1.03
303.15	0.18219	1533.57	1.03
303.15	0.23272	1536.74	1.03
303.15	0.28971	1540.6	1.03
308.15	0	1531.55	1.03
308.15	0.04586	1534.48	1.03
308.15	0.10491	1538.22	1.03
308.15	0.14444	1540.7	1.03
308.15	0.18219	1543.03	1.03
308.15	0.23272	1546.14	1.03
308.15	0.28971	1549.92	1.03

System: D-fructose + L-valine + water; phases: Liquid
Fixed: Pressure, kPa = 101
Fixed: Solvent: Molality, mol/kg of D-fructose = 0.10201
Property: Mass density, kg/m3 (Liquid); method: VIBTUB:UFactor:6
Temperature, K	Molality, mol/kg of L-valine	Mass density, kg/m3	uncertainty
293.15	0	1005.243	0.295
293.15	0.0504	1006.578	0.299
293.15	0.09454	1007.734	0.302
293.15	0.14704	1009.097	0.305
293.15	0.1914	1010.234	0.308
293.15	0.23291	1011.29	0.311
293.15	0.29956	1012.967	0.315
298.15	0	1004.013	0.292
298.15	0.0504	1005.334	0.296
298.15	0.09454	1006.478	0.299
298.15	0.14704	1007.823	0.302
298.15	0.1914	1008.947	0.305
298.15	0.23291	1009.986	0.308
298.15	0.29956	1011.631	0.312
303.15	0	1002.549	0.289
303.15	0.0504	1003.859	0.292
303.15	0.09454	1004.994	0.295
303.15	0.14704	1006.326	0.298
303.15	0.1914	1007.439	0.301
303.15	0.23291	1008.47	0.304
303.15	0.29956	1010.1	0.308
308.15	0	1000.875	0.284
308.15	0.0504	1002.179	0.288
308.15	0.09454	1003.304	0.291
308.15	0.14704	1004.615	0.294
308.15	0.1914	1005.703	0.297
308.15	0.23291	1006.705	0.299
308.15	0.29956	1008.284	0.303

System: D-fructose + L-valine + water; phases: Liquid
Fixed: Pressure, kPa = 101
Fixed: Solvent: Molality, mol/kg of D-fructose = 0.10201
Property: Speed of sound, m/s (Liquid); method: Pulse-echo method
Temperature, K	Molality, mol/kg of L-valine	Speed of sound, m/s	uncertainty
293.15	0	1490.47	1.01
293.15	0.0504	1495.71	1.02
293.15	0.09454	1500.3	1.02
293.15	0.14704	1505.75	1.02
293.15	0.1914	1510.09	1.02
293.15	0.23291	1514.18	1.02
293.15	0.29956	1519.56	1.02
298.15	0	1504.38	1.02
298.15	0.0504	1509.36	1.02
298.15	0.09454	1513.72	1.02
298.15	0.14704	1518.9	1.02
298.15	0.1914	1523.06	1.02
298.15	0.23291	1527.12	1.02
298.15	0.29956	1533.48	1.03
303.15	0	1516.16	1.02
303.15	0.0504	1520.81	1.02
303.15	0.09454	1524.85	1.02
303.15	0.14704	1529.66	1.02
303.15	0.1914	1533.89	1.03
303.15	0.23291	1537.18	1.03
303.15	0.29956	1543.76	1.03
308.15	0	1525.94	1.02
308.15	0.0504	1530.43	1.02
308.15	0.09454	1534.34	1.03
308.15	0.14704	1538.98	1.03
308.15	0.1914	1542.84	1.03
308.15	0.23291	1546.44	1.03
308.15	0.29956	1552.01	1.03

System: L-valine + D-cellobiose + water; phases: Liquid
Fixed: Pressure, kPa = 101
Fixed: Solvent: Molality, mol/kg of D-cellobiose = 0.10029
Property: Mass density, kg/m3 (Liquid); method: VIBTUB:UFactor:6
Temperature, K	Molality, mol/kg of L-valine	Mass density, kg/m3	uncertainty
293.15	0	1011.123	0.31
293.15	0.04997	1012.393	0.314
293.15	0.09983	1013.649	0.317
293.15	0.14687	1014.825	0.32
293.15	0.19389	1015.993	0.323
293.15	0.23993	1017.125	0.326
293.15	0.28587	1018.246	0.329
298.15	0	1009.878	0.307
298.15	0.04997	1011.134	0.31
298.15	0.09983	1012.377	0.314
298.15	0.14687	1013.542	0.317
298.15	0.19389	1014.699	0.32
298.15	0.23993	1015.817	0.322
298.15	0.28587	1016.928	0.325
303.15	0	1008.405	0.304
303.15	0.04997	1009.654	0.307
303.15	0.09983	1010.888	0.31
303.15	0.14687	1012.041	0.313
303.15	0.19389	1013.182	0.316
303.15	0.23993	1014.29	0.319
303.15	0.28587	1015.38	0.321
308.15	0	1006.725	0.299
308.15	0.04997	1007.964	0.302
308.15	0.09983	1009.188	0.306
308.15	0.14687	1010.332	0.308
308.15	0.19389	1011.468	0.311
308.15	0.23993	1012.565	0.314
308.15	0.28587	1013.656	0.317

System: L-valine + D-cellobiose + water; phases: Liquid
Fixed: Pressure, kPa = 101
Fixed: Solvent: Molality, mol/kg of D-cellobiose = 0.10029
Property: Speed of sound, m/s (Liquid); method: Pulse-echo method
Temperature, K	Molality, mol/kg of L-valine	Speed of sound, m/s	uncertainty
293.15	0	1495.34	1.02
293.15	0.04997	1500.24	1.02
293.15	0.09983	1505.14	1.02
293.15	0.14687	1509.7	1.02
293.15	0.19389	1514.31	1.02
293.15	0.23993	1518.72	1.02
293.15	0.28587	1523.15	1.02
298.15	0	1508.91	1.02
298.15	0.04997	1513.68	1.02
298.15	0.09983	1518.41	1.02
298.15	0.14687	1522.84	1.02
298.15	0.19389	1527.22	1.02
298.15	0.23993	1531.18	1.03
298.15	0.28587	1535.44	1.03
303.15	0	1520.18	1.02
303.15	0.04997	1524.71	1.02
303.15	0.09983	1529.21	1.02
303.15	0.14687	1533.46	1.03
303.15	0.19389	1537.76	1.03
303.15	0.23993	1541.91	1.03
303.15	0.28587	1545.93	1.03
308.15	0	1529.29	1.02
308.15	0.04997	1533.78	1.03
308.15	0.09983	1538.24	1.03
308.15	0.14687	1542.46	1.03
308.15	0.19389	1546.67	1.03
308.15	0.23993	1550.79	1.03
308.15	0.28587	1554.66	1.03

System: L-valine + O-.alpha.-glucopyranosyl-(1,3)-O-.beta.-D- fructofuranosyl-(2,1)-.alpha.-D-glucopyranoside + water; phases: Liquid
Fixed: Pressure, kPa = 101
Fixed: Solvent: Molality, mol/kg of O-.alpha.-glucopyranosyl-(1,3)-O-.beta.-D- fructofuranosyl-(2,1)-.alpha.-D-glucopyranoside = 0.10133
Property: Mass density, kg/m3 (Liquid); method: VIBTUB:UFactor:6
Temperature, K	Molality, mol/kg of L-valine	Mass density, kg/m3	uncertainty
293.15	0	1017.719	0.327
293.15	0.05287	1019.023	0.331
293.15	0.09693	1020.102	0.333
293.15	0.13871	1021.125	0.336
293.15	0.18633	1022.282	0.339
293.15	0.251	1023.843	0.343
293.15	0.27847	1024.512	0.344
298.15	0	1016.452	0.324
298.15	0.05287	1017.744	0.327
298.15	0.09693	1018.816	0.33
298.15	0.13871	1019.828	0.333
298.15	0.18633	1020.971	0.335
298.15	0.251	1022.514	0.339
298.15	0.27847	1023.175	0.341
303.15	0	1014.965	0.32
303.15	0.05287	1016.244	0.323
303.15	0.09693	1017.305	0.326
303.15	0.13871	1018.305	0.329
303.15	0.18633	1019.444	0.332
303.15	0.251	1020.97	0.335
303.15	0.27847	1021.625	0.337
308.15	0	1013.274	0.316
308.15	0.05287	1014.545	0.319
308.15	0.09693	1015.598	0.322
308.15	0.13871	1016.589	0.324
308.15	0.18633	1017.714	0.327
308.15	0.251	1019.228	0.331
308.15	0.27847	1019.869	0.333

System: L-valine + O-.alpha.-glucopyranosyl-(1,3)-O-.beta.-D- fructofuranosyl-(2,1)-.alpha.-D-glucopyranoside + water; phases: Liquid
Fixed: Pressure, kPa = 101
Fixed: Solvent: Molality, mol/kg of O-.alpha.-glucopyranosyl-(1,3)-O-.beta.-D- fructofuranosyl-(2,1)-.alpha.-D-glucopyranoside = 0.10133
Property: Speed of sound, m/s (Liquid); method: Pulse-echo method
Temperature, K	Molality, mol/kg of L-valine	Speed of sound, m/s	uncertainty
293.15	0	1497.34	1.02
293.15	0.05287	1502.64	1.02
293.15	0.09693	1507.06	1.02
293.15	0.13871	1511.22	1.02
293.15	0.18633	1515.95	1.02
293.15	0.251	1522.54	1.02
293.15	0.27847	1525.38	1.02
298.15	0	1511.22	1.02
298.15	0.05287	1516.27	1.02
298.15	0.09693	1520.47	1.02
298.15	0.13871	1524.27	1.02
298.15	0.18633	1528.74	1.02
298.15	0.251	1535.04	1.03
298.15	0.27847	1537.76	1.03
303.15	0	1522.7	1.02
303.15	0.05287	1527.55	1.02
303.15	0.09693	1531.56	1.03
303.15	0.13871	1535.34	1.03
303.15	0.18633	1539.6	1.03
303.15	0.251	1545.58	1.03
303.15	0.27847	1548.2	1.03
308.15	0	1532.05	1.03
308.15	0.05287	1536.81	1.03
308.15	0.09693	1540.76	1.03
308.15	0.13871	1544.48	1.03
308.15	0.18633	1548.72	1.03
308.15	0.251	1554.42	1.03
308.15	0.27847	1556.89	1.03

System: D-fructose + L-leucine + water; phases: Liquid
Fixed: Pressure, kPa = 101
Fixed: Solvent: Molality, mol/kg of D-fructose = 0.10327
Property: Mass density, kg/m3 (Liquid); method: VIBTUB:UFactor:6
Temperature, K	Molality, mol/kg of L-leucine	Mass density, kg/m3	uncertainty
293.15	0	1005.339	0.296
293.15	0.03514	1006.17	0.298
293.15	0.048	1006.471	0.299
293.15	0.09415	1007.54	0.301
293.15	0.095	1007.559	0.301
293.15	0.11577	1008.037	0.303
293.15	0.14367	1008.669	0.304
298.15	0	1004.11	0.293
298.15	0.03514	1004.93	0.295
298.15	0.048	1005.226	0.295
298.15	0.09415	1006.278	0.298
298.15	0.095	1006.296	0.298
298.15	0.11577	1006.76	0.299
298.15	0.14367	1007.377	0.301
303.15	0	1002.649	0.289
303.15	0.03514	1003.455	0.291
303.15	0.048	1003.747	0.292
303.15	0.09415	1004.782	0.294
303.15	0.095	1004.8	0.294
303.15	0.11577	1005.259	0.296
303.15	0.14367	1005.868	0.297
308.15	0	1000.978	0.285
308.15	0.03514	1001.773	0.287
308.15	0.048	1002.061	0.287
308.15	0.09415	1003.083	0.29
308.15	0.095	1003.101	0.29
308.15	0.11577	1003.557	0.291
308.15	0.14367	1004.16	0.293

System: D-fructose + L-leucine + water; phases: Liquid
Fixed: Pressure, kPa = 101
Fixed: Solvent: Molality, mol/kg of D-fructose = 0.10327
Property: Speed of sound, m/s (Liquid); method: Pulse-echo method
Temperature, K	Molality, mol/kg of L-leucine	Speed of sound, m/s	uncertainty
293.15	0	1490.44	1.01
293.15	0.03514	1494.76	1.02
293.15	0.048	1496.34	1.02
293.15	0.09415	1501.98	1.02
293.15	0.095	1502.1	1.02
293.15	0.11577	1504.08	1.02
293.15	0.14367	1508.04	1.02
298.15	0	1504.36	1.02
298.15	0.03514	1508.64	1.02
298.15	0.048	1510.2	1.02
298.15	0.09415	1515.82	1.02
298.15	0.095	1515.97	1.02
298.15	0.11577	1518.53	1.02
298.15	0.14367	1521.33	1.02
303.15	0	1516.19	1.02
303.15	0.03514	1520.14	1.02
303.15	0.048	1521.57	1.02
303.15	0.09415	1526.73	1.02
303.15	0.095	1526.9	1.02
303.15	0.11577	1528.35	1.02
303.15	0.14367	1531.97	1.03
308.15	0	1526.07	1.02
308.15	0.03514	1529.86	1.02
308.15	0.048	1531.23	1.03
308.15	0.09415	1535.62	1.03
308.15	0.095	1535.99	1.03
308.15	0.11577	1537.62	1.03
308.15	0.14367	1540.68	1.03

System: L-leucine + D-cellobiose + water; phases: Liquid
Fixed: Pressure, kPa = 101
Fixed: Solvent: Molality, mol/kg of D-cellobiose = 0.1006
Property: Mass density, kg/m3 (Liquid); method: VIBTUB:UFactor:6
Temperature, K	Molality, mol/kg of L-leucine	Mass density, kg/m3	uncertainty
293.15	0	1011.139	0.31
293.15	0.02884	1011.795	0.312
293.15	0.04655	1012.198	0.313
293.15	0.07528	1012.85	0.315
293.15	0.09865	1013.38	0.316
293.15	0.11448	1013.741	0.317
293.15	0.14266	1014.376	0.319
298.15	0	1009.895	0.307
298.15	0.02884	1010.543	0.309
298.15	0.04655	1010.942	0.31
298.15	0.07528	1011.591	0.312
298.15	0.09865	1012.119	0.313
298.15	0.11448	1012.477	0.314
298.15	0.14266	1013.117	0.316
303.15	0	1008.424	0.304
303.15	0.02884	1009.062	0.305
303.15	0.04655	1009.455	0.306
303.15	0.07528	1010.096	0.308
303.15	0.09865	1010.617	0.309
303.15	0.11448	1010.969	0.31
303.15	0.14266	1011.603	0.312
308.15	0	1006.744	0.299
308.15	0.02884	1007.376	0.301
308.15	0.04655	1007.764	0.302
308.15	0.07528	1008.396	0.304
308.15	0.09865	1008.91	0.305
308.15	0.11448	1009.256	0.306
308.15	0.14266	1009.878	0.307

System: L-leucine + D-cellobiose + water; phases: Liquid
Fixed: Pressure, kPa = 101
Fixed: Solvent: Molality, mol/kg of D-cellobiose = 0.1006
Property: Speed of sound, m/s (Liquid); method: Pulse-echo method
Temperature, K	Molality, mol/kg of L-leucine	Speed of sound, m/s	uncertainty
293.15	0	1493.85	1.02
293.15	0.02884	1497.34	1.02
293.15	0.04655	1499.48	1.02
293.15	0.07528	1502.94	1.02
293.15	0.09865	1505.75	1.02
293.15	0.11448	1507.65	1.02
293.15	0.14266	1510.96	1.02
298.15	0	1507.64	1.02
298.15	0.02884	1511.09	1.02
298.15	0.04655	1513.19	1.02
298.15	0.07528	1516.6	1.02
298.15	0.09865	1519.37	1.02
298.15	0.11448	1521.28	1.02
298.15	0.14266	1524.58	1.02
303.15	0	1519.49	1.02
303.15	0.02884	1522.74	1.02
303.15	0.04655	1524.72	1.02
303.15	0.07528	1527.92	1.02
303.15	0.09865	1530.48	1.03
303.15	0.11448	1532.25	1.03
303.15	0.14266	1535.45	1.03
308.15	0	1529.54	1.02
308.15	0.02884	1532.58	1.03
308.15	0.04655	1534.43	1.03
308.15	0.07528	1537.4	1.03
308.15	0.09865	1539.71	1.03
308.15	0.11448	1541.34	1.03
308.15	0.14266	1544.37	1.03

System: L-leucine + O-.alpha.-glucopyranosyl-(1,3)-O-.beta.-D- fructofuranosyl-(2,1)-.alpha.-D-glucopyranoside + water; phases: Liquid
Fixed: Pressure, kPa = 101
Fixed: Solvent: Molality, mol/kg of O-.alpha.-glucopyranosyl-(1,3)-O-.beta.-D- fructofuranosyl-(2,1)-.alpha.-D-glucopyranoside = 0.09647
Property: Mass density, kg/m3 (Liquid); method: VIBTUB:UFactor:6
Temperature, K	Molality, mol/kg of L-leucine	Mass density, kg/m3	uncertainty
293.15	0	1016.618	0.324
293.15	0.03092	1017.311	0.326
293.15	0.04754	1017.684	0.327
293.15	0.07602	1018.32	0.329
293.15	0.08835	1018.596	0.329
293.15	0.1091	1019.058	0.331
293.15	0.13503	1019.638	0.332
298.15	0	1015.363	0.321
298.15	0.03092	1016.042	0.323
298.15	0.04754	1016.408	0.324
298.15	0.07602	1017.034	0.325
298.15	0.08835	1017.305	0.326
298.15	0.1091	1017.76	0.327
298.15	0.13503	1018.329	0.329
303.15	0	1013.879	0.317
303.15	0.03092	1014.548	0.319
303.15	0.04754	1014.908	0.32
303.15	0.07602	1015.525	0.322
303.15	0.08835	1015.793	0.322
303.15	0.1091	1016.241	0.323
303.15	0.13503	1016.803	0.325
308.15	0	1012.189	0.313
308.15	0.03092	1012.851	0.315
308.15	0.04754	1013.206	0.316
308.15	0.07602	1013.816	0.317
308.15	0.08835	1014.08	0.318
308.15	0.1091	1014.52	0.319
308.15	0.13503	1015.077	0.321

System: L-leucine + O-.alpha.-glucopyranosyl-(1,3)-O-.beta.-D- fructofuranosyl-(2,1)-.alpha.-D-glucopyranoside + water; phases: Liquid
Fixed: Pressure, kPa = 101
Fixed: Solvent: Molality, mol/kg of O-.alpha.-glucopyranosyl-(1,3)-O-.beta.-D- fructofuranosyl-(2,1)-.alpha.-D-glucopyranoside = 0.09647
Property: Speed of sound, m/s (Liquid); method: Pulse-echo method
Temperature, K	Molality, mol/kg of L-leucine	Speed of sound, m/s	uncertainty
293.15	0	1495.94	1.02
293.15	0.03092	1499.77	1.02
293.15	0.04754	1501.82	1.02
293.15	0.07602	1505.34	1.02
293.15	0.08835	1506.8	1.02
293.15	0.1091	1509.42	1.02
293.15	0.13503	1512.5	1.02
298.15	0	1509.64	1.02
298.15	0.03092	1513.24	1.02
298.15	0.04754	1515.16	1.02
298.15	0.07602	1518.45	1.02
298.15	0.08835	1519.84	1.02
298.15	0.1091	1522.25	1.02
298.15	0.13503	1525.19	1.02
303.15	0	1521.46	1.02
303.15	0.03092	1524.85	1.02
303.15	0.04754	1526.66	1.02
303.15	0.07602	1529.74	1.02
303.15	0.08835	1530.97	1.03
303.15	0.1091	1533.33	1.03
303.15	0.13503	1536.1	1.03
308.15	0	1531.21	1.03
308.15	0.03092	1534.45	1.03
308.15	0.04754	1536.18	1.03
308.15	0.07602	1539.15	1.03
308.15	0.08835	1540.41	1.03
308.15	0.1091	1542.63	1.03
308.15	0.13503	1545.2	1.03

System: L-phenylalanine + water; phases: Liquid
Fixed: Pressure, kPa = 101
Property: Mass density, kg/m3 (Liquid); method: VIBTUB:UFactor:6
Temperature, K	Molality, mol/kg of L-phenylalanine	Mass density, kg/m3	uncertainty
293.15	0	998.219	0.192
293.15	0.01916	999.09	0.19
293.15	0.04614	1000.308	0.189
293.15	0.06873	1001.319	0.191
293.15	0.07529	1001.611	0.192
293.15	0.08564	1002.07	0.193
293.15	0.10466	1002.911	0.195
298.15	0	997.05	0.195
298.15	0.01916	997.908	0.193
298.15	0.04614	999.107	0.19
298.15	0.06873	1000.103	0.189
298.15	0.07529	1000.391	0.189
298.15	0.08564	1000.844	0.19
298.15	0.10466	1001.671	0.192
303.15	0	995.645	0.198
303.15	0.01916	996.494	0.196
303.15	0.04614	997.681	0.194
303.15	0.06873	998.668	0.191
303.15	0.07529	998.953	0.191
303.15	0.08564	999.401	0.19
303.15	0.10466	1000.223	0.189
308.15	0	994.02	0.202
308.15	0.01916	994.857	0.2
308.15	0.04614	996.027	0.198
308.15	0.06873	996.999	0.195
308.15	0.07529	997.28	0.195
308.15	0.08564	997.722	0.194
308.15	0.10466	998.531	0.192

System: L-phenylalanine + water; phases: Liquid
Fixed: Pressure, kPa = 101
Property: Speed of sound, m/s (Liquid); method: Pulse-echo method
Temperature, K	Molality, mol/kg of L-phenylalanine	Speed of sound, m/s	uncertainty
293.15	0	1482.98	0.74
293.15	0.01916	1485.3	0.74
293.15	0.04614	1488.56	0.74
293.15	0.06873	1491.3	0.74
293.15	0.07529	1492.08	0.74
293.15	0.08564	1493.33	0.74
293.15	0.10466	1495.63	0.75
298.15	0	1497.2	0.74
298.15	0.01916	1499.39	0.74
298.15	0.04614	1502.47	0.75
298.15	0.06873	1505.05	0.75
298.15	0.07529	1505.78	0.75
298.15	0.08564	1506.95	0.75
298.15	0.10466	1509.09	0.75
303.15	0	1509.46	0.75
303.15	0.01916	1511.52	0.75
303.15	0.04614	1514.42	0.75
303.15	0.06873	1516.85	0.75
303.15	0.07529	1517.54	0.75
303.15	0.08564	1518.62	0.75
303.15	0.10466	1520.65	0.75
308.15	0	1519.91	0.75
308.15	0.01916	1521.85	0.75
308.15	0.04614	1524.58	0.75
308.15	0.06873	1526.87	0.76
308.15	0.07529	1527.52	0.76
308.15	0.08564	1528.55	0.76
308.15	0.10466	1530.46	0.76

System: D-fructose + L-phenylalanine + water; phases: Liquid
Fixed: Pressure, kPa = 101
Fixed: Solvent: Molality, mol/kg of D-fructose = 0.10733
Property: Mass density, kg/m3 (Liquid); method: VIBTUB:UFactor:6
Temperature, K	Molality, mol/kg of L-phenylalanine	Mass density, kg/m3	uncertainty
293.15	0	1005.628	0.296
293.15	0.02149	1006.563	0.299
293.15	0.04951	1007.782	0.302
293.15	0.06322	1008.375	0.303
293.15	0.0756	1008.911	0.305
293.15	0.08562	1009.349	0.306
293.15	0.0996	1009.952	0.307
298.15	0	1004.394	0.293
298.15	0.02149	1005.318	0.296
298.15	0.04951	1006.524	0.299
298.15	0.06322	1007.112	0.3
298.15	0.0756	1007.642	0.302
298.15	0.08562	1008.076	0.303
298.15	0.0996	1008.685	0.304
303.15	0	1002.929	0.29
303.15	0.02149	1003.842	0.292
303.15	0.04951	1005.034	0.295
303.15	0.06322	1005.616	0.296
303.15	0.0756	1006.143	0.298
303.15	0.08562	1006.57	0.299
303.15	0.0996	1007.163	0.3
308.15	0	1001.261	0.285
308.15	0.02149	1002.161	0.288
308.15	0.04951	1003.336	0.291
308.15	0.06322	1003.912	0.292
308.15	0.0756	1004.427	0.293
308.15	0.08562	1004.845	0.295
308.15	0.0996	1005.432	0.296

System: D-fructose + L-phenylalanine + water; phases: Liquid
Fixed: Pressure, kPa = 101
Fixed: Solvent: Molality, mol/kg of D-fructose = 0.10733
Property: Speed of sound, m/s (Liquid); method: Pulse-echo method
Temperature, K	Molality, mol/kg of L-phenylalanine	Speed of sound, m/s	uncertainty
293.15	0	1490	1.01
293.15	0.02149	1492.65	1.02
293.15	0.04951	1496.09	1.02
293.15	0.06322	1497.77	1.02
293.15	0.0756	1499.28	1.02
293.15	0.08562	1500.49	1.02
293.15	0.0996	1502.19	1.02
298.15	0	1503.88	1.02
298.15	0.02149	1506.43	1.02
298.15	0.04951	1509.74	1.02
298.15	0.06322	1511.35	1.02
298.15	0.0756	1512.8	1.02
298.15	0.08562	1513.96	1.02
298.15	0.0996	1515.58	1.02
303.15	0	1515.86	1.02
303.15	0.02149	1518.25	1.02
303.15	0.04951	1521.35	1.02
303.15	0.06322	1522.85	1.02
303.15	0.0756	1524.21	1.02
303.15	0.08562	1525.29	1.02
303.15	0.0996	1526.79	1.02
308.15	0	1526.05	1.02
308.15	0.02149	1528.32	1.02
308.15	0.04951	1531.26	1.03
308.15	0.06322	1532.68	1.03
308.15	0.0756	1533.97	1.03
308.15	0.08562	1535.01	1.03
308.15	0.0996	1536.44	1.03

System: L-phenylalanine + D-cellobiose + water; phases: Liquid
Fixed: Pressure, kPa = 101
Fixed: Solvent: Molality, mol/kg of D-cellobiose = 0.0998
Property: Mass density, kg/m3 (Liquid); method: VIBTUB:UFactor:6
Temperature, K	Molality, mol/kg of L-phenylalanine	Mass density, kg/m3	uncertainty
293.15	0	1011.065	0.31
293.15	0.02209	1012.044	0.313
293.15	0.04927	1013.229	0.316
293.15	0.06809	1014.036	0.318
293.15	0.07631	1014.382	0.319
293.15	0.08647	1014.806	0.32
293.15	0.10652	1015.643	0.322
298.15	0	1009.822	0.307
298.15	0.02209	1010.781	0.31
298.15	0.04927	1011.946	0.313
298.15	0.06809	1012.742	0.315
298.15	0.07631	1013.087	0.315
298.15	0.08647	1013.511	0.317
298.15	0.10652	1014.338	0.319
303.15	0	1008.35	0.303
303.15	0.02209	1009.301	0.306
303.15	0.04927	1010.454	0.309
303.15	0.06809	1011.24	0.311
303.15	0.07631	1011.582	0.312
303.15	0.08647	1011.995	0.313
303.15	0.10652	1012.813	0.315
308.15	0	1006.669	0.299
308.15	0.02209	1007.614	0.302
308.15	0.04927	1008.756	0.304
308.15	0.06809	1009.53	0.306
308.15	0.07631	1009.868	0.307
308.15	0.08647	1010.28	0.308
308.15	0.10652	1011.083	0.31

System: L-phenylalanine + D-cellobiose + water; phases: Liquid
Fixed: Pressure, kPa = 101
Fixed: Solvent: Molality, mol/kg of D-cellobiose = 0.0998
Property: Speed of sound, m/s (Liquid); method: Pulse-echo method
Temperature, K	Molality, mol/kg of L-phenylalanine	Speed of sound, m/s	uncertainty
293.15	0	1495.24	1.02
293.15	0.02209	1498.19	1.02
293.15	0.04927	1501.83	1.02
293.15	0.06809	1504.36	1.02
293.15	0.07631	1505.46	1.02
293.15	0.08647	1506.81	1.02
293.15	0.10652	1508.76	1.02
298.15	0	1508.89	1.02
298.15	0.02209	1511.54	1.02
298.15	0.04927	1514.8	1.02
298.15	0.06809	1517.06	1.02
298.15	0.07631	1518.04	1.02
298.15	0.08647	1519.24	1.02
298.15	0.10652	1521.7	1.02
303.15	0	1520.78	1.02
303.15	0.02209	1523.21	1.02
303.15	0.04927	1526.2	1.02
303.15	0.06809	1528.28	1.02
303.15	0.07631	1529.17	1.02
303.15	0.08647	1530.3	1.03
303.15	0.10652	1532.58	1.03
308.15	0	1530.87	1.03
308.15	0.02209	1532.34	1.03
308.15	0.04927	1536.19	1.03
308.15	0.06809	1538.24	1.03
308.15	0.07631	1539.11	1.03
308.15	0.08647	1540.2	1.03
308.15	0.10652	1542.38	1.03

System: L-phenylalanine + O-.alpha.-glucopyranosyl-(1,3)-O-.beta.-D- fructofuranosyl-(2,1)-.alpha.-D-glucopyranoside + water; phases: Liquid
Fixed: Pressure, kPa = 101
Fixed: Solvent: Molality, mol/kg of O-.alpha.-glucopyranosyl-(1,3)-O-.beta.-D- fructofuranosyl-(2,1)-.alpha.-D-glucopyranoside = 0.09999
Property: Mass density, kg/m3 (Liquid); method: VIBTUB:UFactor:6
Temperature, K	Molality, mol/kg of L-phenylalanine	Mass density, kg/m3	uncertainty
293.15	0	1017.351	0.326
293.15	0.02263	1018.338	0.329
293.15	0.04925	1019.478	0.332
293.15	0.06759	1020.247	0.334
293.15	0.07459	1020.54	0.334
293.15	0.08884	1021.149	0.336
293.15	0.10485	1021.783	0.338
298.15	0	1016.093	0.323
298.15	0.02263	1017.062	0.326
298.15	0.04925	1018.184	0.328
298.15	0.06759	1018.946	0.33
298.15	0.07459	1019.235	0.331
298.15	0.08884	1019.821	0.333
298.15	0.10485	1020.468	0.334
303.15	0	1014.606	0.319
303.15	0.02263	1015.558	0.322
303.15	0.04925	1016.663	0.325
303.15	0.06759	1017.416	0.326
303.15	0.07459	1017.699	0.327
303.15	0.08884	1018.276	0.329
303.15	0.10485	1018.915	0.33
308.15	0	1012.915	0.315
308.15	0.02263	1013.845	0.317
308.15	0.04925	1014.931	0.32
308.15	0.06759	1015.675	0.322
308.15	0.07459	1015.957	0.323
308.15	0.08884	1016.533	0.324
308.15	0.10485	1017.174	0.326

System: L-phenylalanine + O-.alpha.-glucopyranosyl-(1,3)-O-.beta.-D- fructofuranosyl-(2,1)-.alpha.-D-glucopyranoside + water; phases: Liquid
Fixed: Pressure, kPa = 101
Fixed: Solvent: Molality, mol/kg of O-.alpha.-glucopyranosyl-(1,3)-O-.beta.-D- fructofuranosyl-(2,1)-.alpha.-D-glucopyranoside = 0.09999
Property: Speed of sound, m/s (Liquid); method: Pulse-echo method
Temperature, K	Molality, mol/kg of L-phenylalanine	Speed of sound, m/s	uncertainty
293.15	0	1496.19	1.02
293.15	0.02263	1499.08	1.02
293.15	0.04925	1502.5	1.02
293.15	0.06759	1504.88	1.02
293.15	0.07459	1505.79	1.02
293.15	0.08884	1507.53	1.02
293.15	0.10485	1509.6	1.02
298.15	0	1509.91	1.02
298.15	0.02263	1512.63	1.02
298.15	0.04925	1515.84	1.02
298.15	0.06759	1518.06	1.02
298.15	0.07459	1518.89	1.02
298.15	0.08884	1520.56	1.02
298.15	0.10485	1522.14	1.02
303.15	0	1521.72	1.02
303.15	0.02263	1524.28	1.02
303.15	0.04925	1527.29	1.02
303.15	0.06759	1529.36	1.02
303.15	0.07459	1530.13	1.02
303.15	0.08884	1531.7	1.03
303.15	0.10485	1533.28	1.03
308.15	0	1531.6	1.03
308.15	0.02263	1533.95	1.03
308.15	0.04925	1536.68	1.03
308.15	0.06759	1538.57	1.03
308.15	0.07459	1539.28	1.03
308.15	0.08884	1540.74	1.03
308.15	0.10485	1542.34	1.03

System: D-fructose + water; phases: Liquid
Fixed: Pressure, kPa = 101
Property: Mass density, kg/m3 (Liquid); method: VIBTUB:UFactor:6
Temperature, K	Molality, mol/kg of D-fructose	Mass density, kg/m3	uncertainty
293.15	0.10199	1005.258	0.296
298.15	0.10199	1004.028	0.292
303.15	0.10199	1002.569	0.289
308.15	0.10199	1000.9	0.285
293.15	0.10201	1005.243	0.295
298.15	0.10201	1004.013	0.292
303.15	0.10201	1002.549	0.289
308.15	0.10201	1000.875	0.284
293.15	0.10327	1005.339	0.296
298.15	0.10327	1004.11	0.293
303.15	0.10327	1002.649	0.289
308.15	0.10327	1000.978	0.285
293.15	0.10733	1005.628	0.296
298.15	0.10733	1004.394	0.293
303.15	0.10733	1002.929	0.29
308.15	0.10733	1001.261	0.285

System: D-fructose + water; phases: Liquid
Fixed: Pressure, kPa = 101
Property: Speed of sound, m/s (Liquid); method: Pulse-echo method
Temperature, K	Molality, mol/kg of D-fructose	Speed of sound, m/s	uncertainty
293.15	0.10199	1490	1.01
298.15	0.10199	1503.92	1.02
303.15	0.10199	1515.85	1.02
308.15	0.10199	1525.95	1.02
293.15	0.10201	1490.47	1.01
298.15	0.10201	1504.38	1.02
303.15	0.10201	1516.16	1.02
308.15	0.10201	1525.94	1.02
293.15	0.10327	1490.44	1.01
298.15	0.10327	1504.36	1.02
303.15	0.10327	1516.19	1.02
308.15	0.10327	1526.07	1.02
293.15	0.10733	1490	1.01
298.15	0.10733	1503.88	1.02
303.15	0.10733	1515.86	1.02
308.15	0.10733	1526.05	1.02

System: D-cellobiose + water; phases: Liquid
Fixed: Pressure, kPa = 101
Property: Mass density, kg/m3 (Liquid); method: VIBTUB:UFactor:6
Temperature, K	Molality, mol/kg of D-cellobiose	Mass density, kg/m3	uncertainty
293.15	0.09815	1011.187	0.311
298.15	0.09815	1009.944	0.307
303.15	0.09815	1008.473	0.304
308.15	0.09815	1006.794	0.299
293.15	0.10029	1011.123	0.31
298.15	0.10029	1009.878	0.307
303.15	0.10029	1008.405	0.304
308.15	0.10029	1006.725	0.299
293.15	0.1006	1011.139	0.31
298.15	0.1006	1009.895	0.307
303.15	0.1006	1008.424	0.304
308.15	0.1006	1006.744	0.299
293.15	0.0998	1011.065	0.31
298.15	0.0998	1009.822	0.307
303.15	0.0998	1008.35	0.303
308.15	0.0998	1006.669	0.299

System: D-cellobiose + water; phases: Liquid
Fixed: Pressure, kPa = 101
Property: Speed of sound, m/s (Liquid); method: Pulse-echo method
Temperature, K	Molality, mol/kg of D-cellobiose	Speed of sound, m/s	uncertainty
293.15	0.09815	1493.51	1.02
298.15	0.09815	1507.16	1.02
303.15	0.09815	1518.87	1.02
308.15	0.09815	1528.78	1.02
293.15	0.10029	1495.34	1.02
298.15	0.10029	1508.91	1.02
303.15	0.10029	1520.18	1.02
308.15	0.10029	1529.29	1.02
293.15	0.1006	1493.85	1.02
298.15	0.1006	1507.64	1.02
303.15	0.1006	1519.49	1.02
308.15	0.1006	1529.54	1.02
293.15	0.0998	1495.24	1.02
298.15	0.0998	1508.89	1.02
303.15	0.0998	1520.78	1.02
308.15	0.0998	1530.87	1.03

System: O-.alpha.-glucopyranosyl-(1,3)-O-.beta.-D- fructofuranosyl-(2,1)-.alpha.-D-glucopyranoside + water; phases: Liquid
Fixed: Pressure, kPa = 101
Property: Mass density, kg/m3 (Liquid); method: VIBTUB:UFactor:6
Temperature, K	Molality, mol/kg of O-.alpha.-glucopyranosyl-(1,3)-O-.beta.-D- fructofuranosyl-(2,1)-.alpha.-D-glucopyranoside	Mass density, kg/m3	uncertainty
293.15	0.09059	1017.278	0.326
298.15	0.09059	1016.017	0.323
303.15	0.09059	1014.53	0.319
308.15	0.09059	1012.836	0.315
293.15	0.10133	1017.719	0.327
298.15	0.10133	1016.452	0.324
303.15	0.10133	1014.965	0.32
308.15	0.10133	1013.274	0.316
293.15	0.09647	1016.618	0.324
298.15	0.09647	1015.363	0.321
303.15	0.09647	1013.879	0.317
308.15	0.09647	1012.189	0.313
293.15	0.09999	1017.351	0.326
298.15	0.09999	1016.093	0.323
303.15	0.09999	1014.606	0.319
308.15	0.09999	1012.915	0.315

System: O-.alpha.-glucopyranosyl-(1,3)-O-.beta.-D- fructofuranosyl-(2,1)-.alpha.-D-glucopyranoside + water; phases: Liquid
Fixed: Pressure, kPa = 101
Property: Speed of sound, m/s (Liquid); method: Pulse-echo method
Temperature, K	Molality, mol/kg of O-.alpha.-glucopyranosyl-(1,3)-O-.beta.-D- fructofuranosyl-(2,1)-.alpha.-D-glucopyranoside	Speed of sound, m/s	uncertainty
293.15	0.09059	1496.44	1.02
298.15	0.09059	1510.14	1.02
303.15	0.09059	1521.8	1.02
308.15	0.09059	1531.55	1.03
293.15	0.10133	1497.34	1.02
298.15	0.10133	1511.22	1.02
303.15	0.10133	1522.7	1.02
308.15	0.10133	1532.05	1.03
293.15	0.09647	1495.94	1.02
298.15	0.09647	1509.64	1.02
303.15	0.09647	1521.46	1.02
308.15	0.09647	1531.21	1.03
293.15	0.09999	1496.19	1.02
298.15	0.09999	1509.91	1.02
303.15	0.09999	1521.72	1.02
308.15	0.09999	1531.6	1.03
