Measured thermophysical data. Phase Equilibrium and Physical Properties for the Purification of Propylene Carbonate (PC) and y-Butyrolactone (GBL)
Source: J. Chem. Eng. Data, 2011, 10.1021/je100803e
Compound 1: 4-methyl-1,3-dioxolan-2-one, C4H6O3, InChI=1S/C4H6O3/c1-3-2-6-4(5)7-3/h3H,2H2,1H3
Compound 2: diethyl butanedioate, C8H14O4, InChI=1S/C8H14O4/c1-3-11-7(9)5-6-8(10)12-4-2/h3-6H2,1-2H3
Compound 3: .gamma.-butyrolactone, C4H6O2, InChI=1S/C4H6O2/c5-4-2-1-3-6-4/h1-3H2
Compound 4: 1,2-propanediol, C3H8O2, InChI=1S/C3H8O2/c1-3(5)2-4/h3-5H,2H2,1H3
Compound 5: water, H2O, InChI=1S/H2O/h1H2

System: 4-methyl-1,3-dioxolan-2-one; phases: Liquid, Gas
Property: Vapor or sublimation pressure, kPa (Liquid); method: Ebulliometric method (Recirculating still)
Temperature, K	Vapor or sublimation pressure, kPa	uncertainty
407.97	4	0.7
432.45	10	0.7
437.77	12	0.7
453.6	20	0.7
467.23	30	0.7
477.53	40	0.7
485.91	50	0.7

System: 4-methyl-1,3-dioxolan-2-one; phases: Liquid
Property: Refractive index (Na D-line) (Liquid); method: Standard Abbe refractometry
Temperature, K	Pressure, kPa	Refractive index (Na D-line)	uncertainty
298.15	101.325	1.4198	0.0004

System: 4-methyl-1,3-dioxolan-2-one; phases: Liquid
Property: Viscosity, Pa*s (Liquid); method: Capillary tube (Ostwald; Ubbelohde) method
Pressure, kPa	Temperature, K	Viscosity, Pa*s	uncertainty
101.3	298.15	0.0023897	2.06e-05

System: 4-methyl-1,3-dioxolan-2-one; phases: Liquid
Property: Mass density, kg/m3 (Liquid); method: VIBTUB:UFactor:2
Pressure, kPa	Temperature, K	Mass density, kg/m3	uncertainty
101.3	298.15	1199.4	0.2

System: diethyl butanedioate; phases: Crystal, Liquid, Air at 1 atmosphere
Property: Normal melting temperature, K (Crystal); method: VISOBS::UFactor:4
Normal melting temperature, K	uncertainty
251.63	0.62

System: diethyl butanedioate; phases: Liquid, Gas
Property: Vapor or sublimation pressure, kPa (Liquid); method: Ebulliometric method (Recirculating still)
Temperature, K	Vapor or sublimation pressure, kPa	uncertainty
392.46	4	1.6
417.39	10	1.6
423.15	12	1.6
437.53	20	1.6
453.15	30	1.6
462.1	40	1.6
467.78	50	1.6

System: diethyl butanedioate; phases: Liquid
Property: Refractive index (Na D-line) (Liquid); method: Standard Abbe refractometry
Temperature, K	Pressure, kPa	Refractive index (Na D-line)	uncertainty
298.15	101.325	1.4179	0.0004

System: diethyl butanedioate; phases: Liquid
Property: Viscosity, Pa*s (Liquid); method: Capillary tube (Ostwald; Ubbelohde) method
Pressure, kPa	Temperature, K	Viscosity, Pa*s	uncertainty
101.3	298.15	0.0023927	2.06e-05

System: diethyl butanedioate; phases: Liquid
Property: Mass density, kg/m3 (Liquid); method: VIBTUB:UFactor:2
Pressure, kPa	Temperature, K	Mass density, kg/m3	uncertainty
101.3	298.15	1035.5	0.1

System: .gamma.-butyrolactone; phases: Crystal, Liquid, Air at 1 atmosphere
Property: Normal melting temperature, K (Crystal); method: VISOBS::UFactor:4
Normal melting temperature, K	uncertainty
229.43	0.62

System: .gamma.-butyrolactone; phases: Liquid, Gas
Property: Vapor or sublimation pressure, kPa (Liquid); method: Ebulliometric method (Recirculating still)
Temperature, K	Vapor or sublimation pressure, kPa	uncertainty
376.99	4	0.2
400.58	10	0.2
405.68	12	0.2
420.76	20	0.2
433.66	30	0.2
443.36	40	0.2
451.22	50	0.2
457.88	60	0.2
463.68	70	0.2
468.84	80	0.2
473.49	90	0.2
477.54	100	0.2

System: .gamma.-butyrolactone; phases: Liquid
Property: Refractive index (Na D-line) (Liquid); method: Standard Abbe refractometry
Temperature, K	Pressure, kPa	Refractive index (Na D-line)	uncertainty
298.15	101.325	1.435	0.0004

System: .gamma.-butyrolactone; phases: Liquid
Property: Viscosity, Pa*s (Liquid); method: Capillary tube (Ostwald; Ubbelohde) method
Pressure, kPa	Temperature, K	Viscosity, Pa*s	uncertainty
101.3	298.15	0.001654	1.4e-05

System: .gamma.-butyrolactone; phases: Liquid
Property: Mass density, kg/m3 (Liquid); method: VIBTUB:UFactor:2
Pressure, kPa	Temperature, K	Mass density, kg/m3	uncertainty
101.3	298.15	1124.5	0.2

System: 1,2-propanediol; phases: Liquid, Gas
Property: Vapor or sublimation pressure, kPa (Liquid); method: Ebulliometric method (Recirculating still)
Temperature, K	Vapor or sublimation pressure, kPa	uncertainty
378	4	0.2
398.24	10	0.2
402.54	12	0.2
415.13	20	0.2
425.72	30	0.2
433.59	40	0.2
439.9	50	0.2
445.2	60	0.2
449.79	70	0.2
453.84	80	0.2
457.48	90	0.2
460.79	100	0.2

System: 1,2-propanediol; phases: Liquid
Property: Refractive index (Na D-line) (Liquid); method: Standard Abbe refractometry
Temperature, K	Pressure, kPa	Refractive index (Na D-line)	uncertainty
298.15	101.325	1.4313	0.0004

System: 1,2-propanediol; phases: Liquid
Property: Viscosity, Pa*s (Liquid); method: Capillary tube (Ostwald; Ubbelohde) method
Pressure, kPa	Temperature, K	Viscosity, Pa*s	uncertainty
101.3	298.15	0.0444453	0.0008953

System: 1,2-propanediol; phases: Liquid
Property: Mass density, kg/m3 (Liquid); method: VIBTUB::UFactor:2
Pressure, kPa	Temperature, K	Mass density, kg/m3	uncertainty
101.3	298.15	1031.6	0.1

System: water; phases: Crystal, Liquid, Air at 1 atmosphere
Property: Normal melting temperature, K (Crystal); method: VISOBS::UFactor:4
Normal melting temperature, K	uncertainty
273.05	0.62

System: 1,2-propanediol + 4-methyl-1,3-dioxolan-2-one; phases: Liquid
Fixed: Pressure, kPa = 101
Fixed: Temperature, K = 298.15
Property: Viscosity, Pa*s (Liquid); method: Capillary tube (Ostwald; Ubbelohde) method
Mole fraction of 1,2-propanediol	Viscosity, Pa*s	uncertainty
0	0.0023897	2.06e-05
0.01	0.0025335	2.19e-05
0.05	0.0024357	2.1e-05
0.2	0.0029211	2.57e-05
0.3	0.0035499	3.22e-05
0.4	0.0047576	4.54e-05
0.5	0.0060708	6.02e-05
0.6	0.0084613	8.97e-05
0.7	0.0118173	0.0001379
0.8	0.0173751	0.0002331
0.9	0.027535	0.000447
0.9499	0.0356605	0.0006494
1	0.0444453	0.0008953

System: 1,2-propanediol + 4-methyl-1,3-dioxolan-2-one; phases: Liquid
Fixed: Pressure, kPa = 101
Fixed: Temperature, K = 298.15
Property: Refractive index (Na D-line) (Liquid); method: Standard Abbe refractometry
Mole fraction of 1,2-propanediol	Refractive index (Na D-line)	uncertainty
0	1.4198	0.0004
0.05	1.4199	0.0004
0.1	1.4199	0.0004
0.2	1.4207	0.0004
0.3	1.4213	0.0004
0.4	1.4223	0.0004
0.5	1.4235	0.0004
0.6	1.4249	0.0004
0.7	1.4264	0.0004
0.8	1.4278	0.0004
0.9	1.4294	0.0004
0.9499	1.4305	0.0004
1	1.4313	0.0004

System: 1,2-propanediol + 4-methyl-1,3-dioxolan-2-one; phases: Liquid, Gas
Fixed: Pressure, kPa = 12
Property: Boiling temperature at pressure P, K (Liquid); method: EBULLIO:UFactor:2
Mole fraction of 1,2-propanediol	Boiling temperature at pressure P, K	uncertainty
0.0143	432.77	0.42
0.0575	425.17	0.42
0.0967	419.53	0.42
0.1157	417.63	0.42
0.1428	415.49	0.42
0.2216	411.49	0.42
0.3208	408.03	0.42
0.4427	405.52	0.42
0.5173	404.97	0.42
0.5863	404.35	0.42
0.6221	403.87	0.42
0.6908	403.28	0.42
0.7448	403.01	0.42
0.7677	402.85	0.42
0.8475	402.48	0.42
0.9445	402.2	0.42
0.966	402.19	0.42
0.9831	402.38	0.42

System: 1,2-propanediol + 4-methyl-1,3-dioxolan-2-one; phases: Liquid
Fixed: Pressure, kPa = 101
Fixed: Temperature, K = 298.15
Property: Mass density, kg/m3 (Liquid); method: VIBTUB:UFactor:2
Mole fraction of 1,2-propanediol	Mass density, kg/m3	uncertainty
0	1199.4	0.2
0.05	1190.9	0.2
0.1	1182.4	0.2
0.2	1166.4	0.2
0.3	1150.2	0.2
0.4	1134.2	0.2
0.5	1117.9	0.2
0.6	1101.6	0.2
0.7	1085.1	0.2
0.8	1068	0.1
0.9	1050.6	0.1
0.9499	1041.4	0.1
1	1031.6	0.1

System: 1,2-propanediol + 4-methyl-1,3-dioxolan-2-one; phases: Gas, Liquid
Fixed: Pressure, kPa = 12
Property: Mole fraction of 1,2-propanediol (Gas); method: CHROM:UFactor:4
Mole fraction of 1,2-propanediol	Mole fraction of 1,2-propanediol	uncertainty
0.0143	0.1671	0.0063
0.0575	0.3739	0.0139
0.0967	0.5041	0.0185
0.1157	0.5385	0.0172
0.1428	0.592	0.0152
0.2216	0.6716	0.0122
0.3208	0.7318	0.01
0.4427	0.7873	0.0079
0.5173	0.8097	0.0071
0.5863	0.8214	0.0066
0.6221	0.8319	0.0063
0.6908	0.8482	0.0056
0.7448	0.8626	0.0051
0.7677	0.8733	0.0047
0.8475	0.8952	0.0039
0.9445	0.949	0.0019
0.966	0.9682	0.0012
0.9831	0.9817	0.0007

System: .gamma.-butyrolactone + diethyl butanedioate; phases: Liquid
Fixed: Pressure, kPa = 101
Fixed: Temperature, K = 298.15
Property: Viscosity, Pa*s (Liquid); method: Capillary tube (Ostwald; Ubbelohde) method
Mole fraction of .gamma.-butyrolactone	Viscosity, Pa*s	uncertainty
0	0.0023927	2.06e-05
0.05	0.0023809	2.05e-05
0.1	0.0023749	2.04e-05
0.2	0.0023563	2.03e-05
0.2999	0.0023185	1.99e-05
0.4	0.0022839	1.96e-05
0.5	0.0022258	1.91e-05
0.6	0.0021532	1.84e-05
0.7	0.0020733	1.77e-05
0.8	0.0019522	1.66e-05
0.9	0.0018171	1.54e-05
0.95	0.0017446	1.47e-05
1	0.001654	1.4e-05

System: .gamma.-butyrolactone + diethyl butanedioate; phases: Liquid
Fixed: Pressure, kPa = 101
Fixed: Temperature, K = 298.15
Property: Refractive index (Na D-line) (Liquid); method: Standard Abbe refractometry
Mole fraction of .gamma.-butyrolactone	Refractive index (Na D-line)	uncertainty
0	1.4179	0.0004
0.05	1.4185	0.0004
0.1	1.419	0.0004
0.2	1.4201	0.0004
0.2999	1.4213	0.0004
0.4	1.4227	0.0004
0.5	1.4242	0.0004
0.6	1.4259	0.0004
0.7	1.4278	0.0004
0.8	1.4299	0.0004
0.9	1.4323	0.0004
0.95	1.4336	0.0004
1	1.435	0.0004

System: .gamma.-butyrolactone + diethyl butanedioate; phases: Liquid, Gas
Fixed: Pressure, kPa = 12
Property: Boiling temperature at pressure P, K (Liquid); method: EBULLIO:UFactor:2
Mole fraction of .gamma.-butyrolactone	Boiling temperature at pressure P, K	uncertainty
0.0415	419.9	0.42
0.0667	418.48	0.42
0.1138	417.31	0.42
0.156	415.96	0.42
0.22	414.97	0.42
0.2801	413.38	0.42
0.3368	412.31	0.42
0.3829	411.66	0.42
0.4263	410.79	0.42
0.4682	410.17	0.42
0.5126	409.16	0.42
0.5742	408.62	0.42
0.6502	407.95	0.42
0.7497	407.01	0.42
0.8438	406.28	0.42
0.8953	405.95	0.42
0.9456	405.88	0.42
0.9625	405.75	0.42
0.9759	405.86	0.42
0.9841	405.55	0.42
0.9918	405.6	0.42
0.9963	405.66	0.42

System: .gamma.-butyrolactone + diethyl butanedioate; phases: Liquid, Crystal
Fixed: Pressure, kPa = 101
Property: Solid-liquid equilibrium temperature, K (Liquid); method: VISOBS:UFactor:4
Mole fraction of .gamma.-butyrolactone	Solid-liquid equilibrium temperature, K	uncertainty
0	251.63	0.62
0.0501	250.97	0.62
0.3	243.01	0.62
0.4	238.51	0.62
0.5	232.06	0.62
0.6	225.76	0.62
0.7	218.05	0.62
0.78	210.08	0.62

System: .gamma.-butyrolactone + diethyl butanedioate; phases: Liquid, Crystal
Fixed: Pressure, kPa = 101
Property: Solid-liquid equilibrium temperature, K (Liquid); method: VISOBS:UFactor:4
Mole fraction of .gamma.-butyrolactone	Solid-liquid equilibrium temperature, K	uncertainty
0.8	210.45	0.62
0.84	215.95	0.62
0.87	220.09	0.62
0.9	223.05	0.62
0.95	227.65	0.62
1	229.43	0.62

System: .gamma.-butyrolactone + diethyl butanedioate; phases: Liquid
Fixed: Pressure, kPa = 101
Fixed: Temperature, K = 298.15
Property: Mass density, kg/m3 (Liquid); method: VIBTUB:UFactor:2
Mole fraction of .gamma.-butyrolactone	Mass density, kg/m3	uncertainty
0	1035.5	0.1
0.05	1037.5	0.1
0.1	1040	0.1
0.2	1045.3	0.1
0.2999	1051.1	0.1
0.4	1057.8	0.1
0.5	1065.3	0.1
0.6	1073.8	0.1
0.7	1083.5	0.2
0.8	1094.9	0.2
0.9	1108.4	0.2
0.95	1116.2	0.2
1	1124.5	0.2

System: .gamma.-butyrolactone + diethyl butanedioate; phases: Gas, Liquid
Fixed: Pressure, kPa = 12
Property: Mole fraction of .gamma.-butyrolactone (Gas); method: CHROM:UFactor:4
Mole fraction of .gamma.-butyrolactone	Mole fraction of .gamma.-butyrolactone	uncertainty
0.0415	0.0989	0.0037
0.0667	0.1724	0.0064
0.1138	0.2356	0.0088
0.156	0.3039	0.0113
0.22	0.3818	0.0142
0.2801	0.4539	0.0169
0.3368	0.5082	0.0183
0.3829	0.5509	0.0167
0.4263	0.5885	0.0153
0.4682	0.6184	0.0142
0.5126	0.6744	0.0121
0.5742	0.7	0.0112
0.6502	0.7522	0.0092
0.7497	0.8207	0.0067
0.8438	0.8808	0.0044
0.8953	0.9177	0.0031
0.9456	0.954	0.0017
0.9625	0.9689	0.0012
0.9759	0.9784	0.0008
0.9841	0.986	0.0006
0.9918	0.9927	0.0004
0.9963	0.9967	0.0003

System: .gamma.-butyrolactone + water; phases: Liquid
Fixed: Pressure, kPa = 101
Fixed: Temperature, K = 298.15
Property: Viscosity, Pa*s (Liquid); method: Capillary tube (Ostwald; Ubbelohde) method
Mole fraction of water	Viscosity, Pa*s	uncertainty
0	0.0016539	1.4e-05
0.05	0.001621	1.37e-05
0.1002	0.0015998	1.35e-05
0.2	0.0016059	1.35e-05
0.3	0.0016453	1.39e-05
0.4	0.0017058	1.44e-05
0.5	0.001766	1.49e-05
0.6	0.0018005	1.52e-05
0.7	0.0017872	1.51e-05
0.8	0.0016682	1.41e-05
0.9	0.0013852	1.17e-05
0.95	0.0011596	9.8e-06
1	0.0008756	7.5e-06

System: .gamma.-butyrolactone + water; phases: Liquid
Fixed: Pressure, kPa = 101
Fixed: Temperature, K = 298.15
Property: Refractive index (Na D-line) (Liquid); method: Standard Abbe refractometry
Mole fraction of water	Refractive index (Na D-line)	uncertainty
0	1.435	0.0004
0.05	1.4337	0.0004
0.1002	1.4325	0.0004
0.2	1.4295	0.0004
0.3	1.4265	0.0004
0.4	1.4226	0.0004
0.5	1.4175	0.0004
0.6	1.4116	0.0004
0.7	1.4017	0.0004
0.8	1.3888	0.0004
0.9	1.3684	0.0004
0.95	1.3531	0.0004
1	1.3325	0.0004

System: .gamma.-butyrolactone + water; phases: Liquid, Gas
Fixed: Pressure, kPa = 12
Property: Boiling temperature at pressure P, K (Liquid); method: EBULLIO:UFactor:2
Mole fraction of water	Boiling temperature at pressure P, K	uncertainty
0.0107	397.82	0.42
0.0159	386.5	0.42
0.0567	365.13	0.42
0.0898	356.23	0.42
0.1533	346.37	0.42
0.2073	337.05	0.42
0.2682	333.85	0.42
0.3722	330.09	0.42
0.4717	328.38	0.42
0.5209	327.46	0.42
0.5892	326.53	0.42
0.668	325.95	0.42
0.7319	325.15	0.42
0.7697	324.79	0.42
0.8017	324.58	0.42
0.8383	324.31	0.42
0.8911	324	0.42
0.9618	323.38	0.42
0.9839	323.05	0.42

System: .gamma.-butyrolactone + water; phases: Liquid, Crystal
Fixed: Pressure, kPa = 101
Property: Solid-liquid equilibrium temperature, K (Liquid); method: VISOBS:UFactor:4
Mole fraction of water	Solid-liquid equilibrium temperature, K	uncertainty
0	229.43	0.62
0.0502	227.89	0.62
0.1	226.31	0.62
0.1301	225.39	0.62
0.16	225.16	0.62

System: .gamma.-butyrolactone + water; phases: Liquid, Crystal
Fixed: Pressure, kPa = 101
Property: Solid-liquid equilibrium temperature, K (Liquid); method: VISOBS:UFactor:4
Mole fraction of water	Solid-liquid equilibrium temperature, K	uncertainty
0.18	228.86	0.62
0.2	232.25	0.62
0.3	241.47	0.62
0.4	248.55	0.62
0.5	252.39	0.62
0.6	256.39	0.62
0.7	259.24	0.62
0.8	262.11	0.62
0.8992	265.99	0.62
0.9498	269.18	0.62
1	273.05	0.62

System: .gamma.-butyrolactone + water; phases: Liquid
Fixed: Pressure, kPa = 101
Fixed: Temperature, K = 298.15
Property: Mass density, kg/m3 (Liquid); method: VIBTUB:UFactor:2
Mole fraction of water	Mass density, kg/m3	uncertainty
0	1124.5	0.2
0.05	1123	0.2
0.1002	1121.5	0.2
0.2	1118.2	0.2
0.3	1115.1	0.2
0.4	1110.9	0.2
0.5	1105.9	0.2
0.6	1098.8	0.2
0.7	1088.6	0.2
0.8	1073.2	0.1
0.9	1047.1	0.1
0.95	1026.6	0.2
1	997.1	0.1

System: .gamma.-butyrolactone + water; phases: Gas, Liquid
Fixed: Pressure, kPa = 12
Property: Mole fraction of water (Gas); method: CHROM:UFactor:16
Mole fraction of water	Mole fraction of water	uncertainty
0.0107	0.2469	0.0385
0.0159	0.5474	0.0683
0.0567	0.8094	0.0284
0.0898	0.9032	0.0144
0.1533	0.9439	0.0083
0.2073	0.9635	0.0054
0.2682	0.9632	0.0055
0.3722	0.9775	0.0033
0.4717	0.9805	0.0029
0.5209	0.9822	0.0026
0.5892	0.9837	0.0024
0.668	0.9847	0.0023
0.7319	0.9857	0.0021
0.7697	0.9865	0.002
0.8017	0.987	0.0019
0.8383	0.9878	0.0018
0.8911	0.9895	0.0016
0.9618	0.9932	0.001
0.9839	0.9959	0.0006
