Measured thermophysical data. Vapor-Liquid Equilibria for Ethyl Acetate + Methanol at (0.1, 0.5, and 0.7) MPa. Measurements with a New Ebulliometer
Source: J. Chem. Eng. Data, 2010, 10.1021/je100614r
Compound 1: ethyl acetate, C4H8O2, InChI=1S/C4H8O2/c1-3-6-4(2)5/h3H2,1-2H3, purity 99.5%
Compound 2: methanol, CH4O, InChI=1S/CH4O/c1-2/h2H,1H3, purity 99.9%

System: ethyl acetate; phases: Liquid
Property: Refractive index (Na D-line) (Liquid); method: Standard Abbe refractometry
Temperature, K	Pressure, kPa	Refractive index (Na D-line)	uncertainty
298.15	101.325	1.37	0.0007

System: ethyl acetate; phases: Liquid, Gas
Property: Vapor or sublimation pressure, kPa (Liquid); method: Ebulliometric method (Recirculating still)
Temperature, K	Vapor or sublimation pressure, kPa	uncertainty
350.15	100	10.4
408.75	500	45.25
423.95	700	38.5

System: ethyl acetate; phases: Liquid
Property: Mass density, kg/m3 (Liquid); method: VIBTUB::UFactor:3
Temperature, K	Pressure, kPa	Mass density, kg/m3	uncertainty
298.15	101	894.6	0.3

System: methanol; phases: Liquid
Property: Refractive index (Na D-line) (Liquid); method: Standard Abbe refractometry
Temperature, K	Pressure, kPa	Refractive index (Na D-line)	uncertainty
298.15	101.325	1.327	0.0007

System: methanol; phases: Liquid, Gas
Property: Vapor or sublimation pressure, kPa (Liquid); method: Ebulliometric method (Recirculating still)
Temperature, K	Vapor or sublimation pressure, kPa	uncertainty
337.85	100	8.4
385.35	500	36.5
397.55	700	30.8

System: methanol; phases: Liquid
Property: Mass density, kg/m3 (Liquid); method: VIBTUB::UFactor:3
Temperature, K	Pressure, kPa	Mass density, kg/m3	uncertainty
298.15	101	786.8	0.4

System: methanol + ethyl acetate; phases: Liquid
Fixed: Temperature, K = 298.15
Fixed: Pressure, kPa = 101
Property: Mass density, kg/m3 (Liquid); method: VIBTUB:UFactor:3
Mole fraction of ethyl acetate	Mass density, kg/m3	uncertainty
0	786.8	0.4
0.0513	799.6	1
0.1009	810.4	0.9
0.1537	820.5	0.8
0.2028	828.9	0.7
0.2535	836.5	0.6
0.3517	849.2	0.6
0.4527	859.9	0.5
0.4983	864.1	0.5
0.6042	872.7	0.4
0.7012	879.3	0.4
0.75	882.3	0.4
0.8036	885.3	0.4
0.85	887.7	0.4
0.8964	890	0.4
0.9391	892	0.4
1	894.6	0.3

System: methanol + ethyl acetate; phases: Liquid, Gas
Property: Boiling temperature at pressure P, K (Liquid); method: Ebulliometric method (Recirculating still)
Mole fraction of ethyl acetate	Pressure, kPa	Boiling temperature at pressure P, K	uncertainty
0	100	337.85	1.68
0	500	385.35	1.46
0	700	397.55	0.88
0.013	100	337.65	1.68
0.022	500	384.85	1.71
0.026	100	337.35	1.68
0.029	500	384.75	1.59
0.035	700	396.75	0.88
0.039	500	384.65	1.81
0.045	500	384.55	1.69
0.046	700	396.65	0.88
0.058	500	384.45	1.5
0.058	700	396.55	0.87
0.067	100	336.85	1.69
0.072	500	384.35	1.49
0.077	700	396.35	0.87
0.081	100	336.65	1.69
0.092	500	384.25	1.5
0.099	700	396.25	0.87
0.111	100	336.35	1.69
0.112	700	396.25	0.87
0.113	500	384.15	1.5
0.128	700	396.25	0.87
0.144	500	384.05	1.49
0.144	700	396.25	0.88
0.161	500	384.05	1.51
0.161	700	396.25	0.89
0.166	100	335.95	1.7
0.178	700	396.25	0.89
0.189	100	335.85	1.71
0.19	500	384.05	1.52
0.207	500	384.05	1.7
0.221	500	384.05	1.54
0.227	700	396.45	0.9
0.24	500	384.15	1.55
0.246	100	335.65	1.72
0.254	700	396.65	0.9
0.26	100	335.65	1.72
0.288	100	335.65	1.72
0.289	500	384.35	1.53
0.289	700	396.85	0.91
0.312	700	397.05	0.9
0.327	100	335.75	1.73
0.344	500	384.65	1.58
0.37	500	384.85	1.51
0.37	700	397.65	0.93
0.388	500	385.05	1.54
0.397	100	335.95	1.74
0.416	700	398.25	0.93
0.446	100	336.15	1.76
0.446	700	398.55	0.95
0.467	500	385.85	1.56
0.478	100	336.25	1.76
0.501	500	386.35	1.58
0.513	100	336.45	1.77
0.513	700	399.65	0.95
0.55	100	336.75	1.8
0.591	100	337.05	1.79
0.591	500	387.75	1.6
0.591	700	401.25	0.99
0.62	500	388.35	1.59
0.667	100	337.95	1.81
0.667	700	403.35	1
0.701	100	338.45	1.87
0.718	700	405.15	1.07
0.754	700	406.35	1.09
0.773	100	339.65	1.86
0.773	500	392.35	1.68
0.812	700	408.85	1.09
0.872	100	342.75	1.91
0.872	500	396.65	1.77
0.912	100	343.95	1.98
0.932	100	344.85	2.03
0.932	500	400.65	1.82
0.952	100	345.95	1.99
0.952	700	418.45	1.21
0.972	100	347.05	2.09
0.972	700	420.85	1.21
0.991	500	407.45	1.82
1	100	350.15	2.08
1	500	408.75	1.81
1	700	423.95	1.1

System: methanol + ethyl acetate; phases: Gas, Liquid
Property: Mole fraction of ethyl acetate (Gas); method: Density calibration data
Mole fraction of ethyl acetate	Pressure, kPa	Mole fraction of ethyl acetate	uncertainty
0	100	0	
0	500	0	
0	700	0	
0.013	100	0.026	0.009
0.022	500	0.034	0.007
0.026	100	0.049	0.007
0.029	500	0.044	0.006
0.035	700	0.047	0.007
0.039	500	0.055	0.006
0.045	500	0.063	0.006
0.046	700	0.06	0.006
0.058	500	0.077	0.006
0.058	700	0.072	0.006
0.067	100	0.101	0.006
0.072	500	0.092	0.006
0.077	700	0.092	0.006
0.081	100	0.117	0.006
0.092	500	0.112	0.005
0.099	700	0.112	0.005
0.111	100	0.149	0.006
0.112	700	0.122	0.005
0.113	500	0.13	0.005
0.128	700	0.133	0.005
0.144	500	0.155	0.005
0.144	700	0.144	0.005
0.161	500	0.166	0.005
0.161	700	0.155	0.005
0.166	100	0.201	0.006
0.178	700	0.166	0.005
0.189	100	0.22	0.005
0.19	500	0.178	0.004
0.207	500	0.188	0.005
0.221	500	0.197	0.005
0.227	700	0.19	0.005
0.24	500	0.208	0.005
0.246	100	0.26	0.005
0.254	700	0.208	0.005
0.26	100	0.267	0.005
0.288	100	0.281	0.005
0.289	500	0.234	0.005
0.289	700	0.227	0.004
0.312	700	0.234	0.004
0.327	100	0.304	0.005
0.344	500	0.261	0.005
0.37	500	0.275	0.005
0.37	700	0.261	0.005
0.388	500	0.289	0.005
0.397	100	0.336	0.005
0.416	700	0.282	0.005
0.446	100	0.361	0.005
0.446	700	0.297	0.005
0.467	500	0.328	0.005
0.478	100	0.379	0.005
0.501	500	0.344	0.005
0.513	100	0.397	0.005
0.513	700	0.336	0.005
0.55	100	0.416	0.005
0.591	100	0.436	0.005
0.591	500	0.388	0.005
0.591	700	0.378	0.005
0.62	500	0.406	0.004
0.667	100	0.478	0.005
0.667	700	0.436	0.005
0.701	100	0.501	0.005
0.718	700	0.478	0.005
0.754	700	0.513	0.006
0.773	100	0.564	0.006
0.773	500	0.538	0.006
0.812	700	0.577	0.008
0.872	100	0.684	0.007
0.872	500	0.667	0.007
0.912	100	0.755	0.008
0.932	100	0.793	0.009
0.932	500	0.773	0.01
0.952	100	0.832	0.011
0.952	700	0.832	0.013
0.972	100	0.892	0.015
0.972	700	0.892	0.015
0.991	500	0.952	0.004
1	100	1	
1	500	1	
1	700	1	
