Measured thermophysical data. Experimental Measurements and Correlations of Liquid-Liquid Equilibria for the Ternary and Quaternary Mixtures Formed by Dialkyl Carbonates at T = 298.15 K
Source: J. Chem. Eng. Data, 2011, 10.1021/je100878k
Compound 1: butan-1-ol, C4H10O, InChI=1S/C4H10O/c1-2-3-4-5/h5H,2-4H2,1H3, purity 99.6%
Compound 2: water, H2O, InChI=1S/H2O/h1H2, purity 99.9%
Compound 3: diethyl carbonate, C5H10O3, InChI=1S/C5H10O3/c1-3-7-5(6)8-4-2/h3-4H2,1-2H3, purity 99.2%
Compound 4: dimethyl carbonate, C3H6O3, InChI=1S/C3H6O3/c1-5-3(4)6-2/h1-2H3, purity 99%

System: butan-1-ol + diethyl carbonate + water; phases: Liquid mixture 1, Liquid mixture 2
Fixed: Temperature, K = 298.15
Fixed: Pressure, kPa = 101
Property: Mole fraction of butan-1-ol (Liquid mixture 1); method: Chromatography
Property: Mole fraction of butan-1-ol (Liquid mixture 2); method: Chromatography
Property: Mole fraction of water (Liquid mixture 2); method: Chromatography
Mole fraction of water	Mole fraction of butan-1-ol	uncertainty	Mole fraction of butan-1-ol	uncertainty	Mole fraction of water	uncertainty
0.0474	0		0		0.9978	
0.0502	0.0898	0.01	0.0035	0.0035	0.9886	
0.0833	0.1793	0.0101	0.0061	0.0061	0.9876	
0.1281	0.2593	0.0102	0.0103	0.01	0.9764	
0.2132	0.3384	0.0103	0.0113	0.01	0.9822	
0.2892	0.4022	0.0104	0.0134	0.01	0.9813	
0.3444	0.4564	0.0105	0.0144	0.01	0.9813	
0.3956	0.4847	0.0106	0.0165	0.01	0.9809	
0.4266	0.4937	0.0106	0.0172	0.01	0.981	
0.4608	0.4954	0.0106	0.0217	0.01	0.9769	
0.512	0.488	0.0106	0.0192	0.01	0.9808	

System: butan-1-ol + dimethyl carbonate + water; phases: Liquid mixture 2, Liquid mixture 1
Fixed: Pressure, kPa = 101
Fixed: Temperature, K = 298.15
Property: Mole fraction of butan-1-ol (Liquid mixture 2); method: Chromatography
Property: Mole fraction of butan-1-ol (Liquid mixture 1); method: Chromatography
Property: Mole fraction of water (Liquid mixture 1); method: Chromatography
Mole fraction of water	Mole fraction of butan-1-ol	uncertainty	Mole fraction of butan-1-ol	uncertainty	Mole fraction of water	uncertainty
0.9771	0		0		0.1339	
0.971	0.0072	0.0072	0.1613	0.0101	0.0862	
0.9653	0.0089	0.0089	0.2376	0.0101	0.1342	
0.9636	0.0121	0.0121	0.288	0.0102	0.1811	
0.9638	0.0146	0.0146	0.3487	0.0103	0.2305	
0.9644	0.0164	0.0164	0.4086	0.0104	0.2917	
0.9601	0.0226	0.0121	0.4575	0.0105	0.3606	
0.963	0.0246	0.0246	0.4863	0.0106	0.413	
0.9757	0.0209	0.0101	0.496	0.0106	0.4643	
0.9808	0.0192	0.0192	0.488	0.0106	0.512	
