Measured thermophysical data. Vapor-Liquid Equilibrium for Thiophene + Butane, + trans-But-2-ene, + 2-Methylpropane, and + 2-Methylpropene
Source: J. Chem. Eng. Data, 2011, 10.1021/je101343m
Compound 1: butane, C4H10, InChI=1S/C4H10/c1-3-4-2/h3-4H2,1-2H3, purity 99.8%
Compound 2: 2-methylpropane, C4H10, InChI=1S/C4H10/c1-4(2)3/h4H,1-3H3, purity 99.8%
Compound 3: 2-methylpropene, C4H8, InChI=1S/C4H8/c1-4(2)3/h1H2,2-3H3, purity 99.8%
Compound 4: (E)-2-butene, C4H8, InChI=1S/C4H8/c1-3-4-2/h3-4H,1-2H3/b4-3+, purity 99.8%
Compound 5: thiophene, C4H4S, InChI=1S/C4H4S/c1-2-4-5-3-1/h1-4H

System: butane; phases: Liquid, Gas
Property: Vapor or sublimation pressure, kPa (Liquid); method: Closed cell (Static) method
Temperature, K	Vapor or sublimation pressure, kPa	uncertainty
308.15	328.8	1
335.6	679.3	1.3
335.6	677.9	2.3

System: 2-methylpropane; phases: Liquid, Gas
Property: Vapor or sublimation pressure, kPa (Liquid); method: Closed cell (Static) method
Temperature, K	Vapor or sublimation pressure, kPa	uncertainty
308.14	467.4	1.1
335.83	926.6	1.6

System: 2-methylpropene; phases: Liquid, Gas
Property: Vapor or sublimation pressure, kPa (Liquid); method: Closed cell (Static) method
Temperature, K	Vapor or sublimation pressure, kPa	uncertainty
308.13	413.7	1
336.84	855.5	1.5

System: (E)-2-butene; phases: Liquid, Gas
Property: Vapor or sublimation pressure, kPa (Liquid); method: Closed cell (Static) method
Temperature, K	Vapor or sublimation pressure, kPa	uncertainty
308.14	317.3	1
335.86	666.1	1.3

System: thiophene; phases: Liquid, Gas
Property: Vapor or sublimation pressure, kPa (Liquid); method: Closed cell (Static) method
Temperature, K	Vapor or sublimation pressure, kPa	uncertainty
308.12	16.7	0.8
308.13	16.5	0.8
308.14	17.1	0.8
308.15	17.1	0.8
335.61	49.7	0.8
335.84	49.6	0.8
335.87	49.6	0.8
336.83	51.2	0.8

System: butane + thiophene; phases: Liquid, Gas
Property: Vapor or sublimation pressure, kPa (Liquid); method: Closed cell (Static) method
Temperature, K	Mole fraction of butane	Vapor or sublimation pressure, kPa	uncertainty
308.15	0	17.1	0.8
308.15	0.0112	27.1	0.8
308.15	0.0304	42.7	1.4
308.15	0.0495	56.7	1.6
308.15	0.0977	87.4	1.8
308.15	0.1466	112.5	2.3
308.15	0.1966	133.8	2.5
308.15	0.2458	151.4	2.6
308.15	0.2956	166.8	2.2
308.15	0.3462	180.4	2.4
308.15	0.3958	192.5	2.6
308.15	0.4483	204.2	2.6
308.15	0.4992	215	2.4
308.15	0.7486	264.8	2.3
308.15	0.798	275.7	2.3
308.15	0.8484	287.5	2.5
308.15	0.899	300.1	2.3
308.15	0.9496	313.9	1.9
308.15	0.9691	319.4	1.7
308.15	0.9913	326	1.6
308.15	1	328.8	1.5
308.16	0.4998	214.9	2.4
308.16	0.5491	224.6	2.4
308.16	0.5982	234.2	2.4
308.16	0.6478	244	2.4
308.16	0.6991	254.4	2.4
335.6	0.0105	65.1	2.2
335.6	0.0295	91.6	2.8
335.6	0.0482	115.8	3.4
335.6	1	677.9	2.3
335.61	0	49.7	0.8
335.61	0.0964	170.7	4.7
335.61	0.1451	217.5	5.5
335.61	0.1935	257.3	5.6
335.61	0.2439	293.3	5.8
335.61	0.3941	378.9	5.4
335.61	0.4963	427.2	8.2
335.61	0.4987	429	8.2
335.61	0.5476	450.6	5
335.61	0.7964	563.9	4.2
335.61	0.949	647.2	2.9
335.61	0.969	659.1	2.6
335.61	0.9889	671.3	2.4
335.62	0.293	324.3	5.7
335.62	0.3438	352.9	5.6
335.62	0.4452	403.6	5.3
335.62	0.5971	472.3	5
335.62	0.6455	493.8	4.9
335.62	0.6969	516.9	4.7
335.62	0.7462	539.7	4.6
335.62	0.846	589.3	3.9
335.62	0.8973	617.1	3.5

System: 2-methylpropane + thiophene; phases: Liquid, Gas
Property: Vapor or sublimation pressure, kPa (Liquid); method: Closed cell (Static) method
Temperature, K	Mole fraction of 2-methylpropane	Vapor or sublimation pressure, kPa	uncertainty
308.14	0	17.1	0.8
308.14	0.1028	129.5	1
308.14	0.1489	164.4	1.1
308.14	0.1985	194.8	1.1
308.14	0.2469	219.5	1.2
308.14	0.2979	241.2	1.3
308.14	0.5	305.8	1.5
308.14	0.5497	319.1	1.6
308.14	0.5991	332.1	1.6
308.14	0.6476	345.1	1.6
308.14	1	467.4	2.1
308.15	0.0174	40.7	0.8
308.15	0.0352	62.6	0.8
308.15	0.0544	83.9	0.9
308.15	0.3488	260.1	1.3
308.15	0.3979	276.2	1.4
308.15	0.4478	291.2	1.5
308.15	0.4986	305.5	1.5
308.15	0.6969	358.7	1.7
308.15	0.7473	373.4	1.7
308.15	0.7978	389.1	1.8
308.15	0.8464	405.3	1.9
308.15	0.8964	423.5	1.9
308.15	0.9487	444.6	2
308.15	0.9687	453.2	2.1
308.15	0.9918	463.4	2.1
335.83	0.0189	90.6	0.9
335.83	0.2947	444.9	2
335.83	0.3455	483.4	2.2
335.83	0.3961	518.2	2.3
335.83	0.4466	550.3	2.4
335.83	0.4972	580.9	2.5
335.83	0.4974	581.1	2.5
335.83	0.5463	609.6	2.7
335.83	0.5951	637.9	2.8
335.83	0.6464	667.7	2.9
335.83	0.6956	697.1	3
335.83	0.7455	728.3	3.2
335.83	0.8442	796	3.5
335.83	0.8952	834.8	3.6
335.83	0.9468	878	3.8
335.83	0.9677	896.6	3.9
335.83	0.9876	914.6	4
335.83	1	926.6	4
335.84	0	49.6	0.8
335.84	0.0353	123.5	1
335.84	0.053	156.8	1
335.84	0.1002	234.1	1.3
335.84	0.1473	298.2	1.5
335.84	0.1962	354.6	1.7
335.84	0.2458	403.2	1.9
335.84	0.7945	761	3.3

System: thiophene + 2-methylpropene; phases: Liquid, Gas
Property: Vapor or sublimation pressure, kPa (Liquid); method: Closed cell (Static) method
Temperature, K	Mole fraction of 2-methylpropene	Vapor or sublimation pressure, kPa	uncertainty
308.11	0.0359	42.8	1.7
308.11	0.5965	281.4	3.1
308.11	0.6468	295.5	3.1
308.11	0.8467	356.6	7
308.11	0.8971	374.1	2.3
308.12	0	16.7	0.8
308.12	0.0161	28.9	1.4
308.12	0.0536	54.8	2.1
308.12	0.0973	81.8	2.7
308.12	0.1462	108.9	3.3
308.12	0.1946	133.2	3.6
308.12	0.2443	155.8	3.8
308.12	0.2944	176.9	3.9
308.12	0.3442	196.5	3.9
308.12	0.395	215.7	4
308.12	0.4465	234.8	4.2
308.12	0.4968	254.2	3.8
308.12	0.4972	255.4	3.8
308.12	0.5476	268.3	3.1
308.12	0.6972	310.1	3.1
308.12	0.7966	340.3	2.8
308.12	0.9491	393.3	2
308.12	0.9693	401	1.9
308.12	0.9912	409.4	1.8
308.13	0.7467	325.1	3
308.13	1	413.7	1.7
336.83	0	51.2	0.8
336.83	0.2938	352.2	7.4
336.84	0.0058	59.2	1.8
336.84	0.0283	88.7	2.7
336.84	0.0468	111.8	3.4
336.84	0.094	166.7	5
336.84	0.1422	217.5	5.9
336.84	0.1915	264.9	6.7
336.84	0.2416	309.3	7.3
336.84	0.3461	392.5	7.7
336.84	0.3958	428.9	7.7
336.84	0.4472	465.5	8
336.84	0.4975	500.6	2.4
336.84	0.6444	594.5	6.8
336.84	0.6934	625.9	6.6
336.84	0.7433	658.7	6.3
336.84	0.9685	827.5	3.4
336.84	0.99	846	3.1
336.84	1	855.5	2.8
336.85	0.4955	501	2.4
336.85	0.5446	531.8	7.2
336.85	0.5931	562	7
336.85	0.7949	694.1	5.9
336.85	0.8458	730.6	5.3
336.85	0.8967	768.9	4.6
336.85	0.9479	809.9	3.7

System: thiophene + (E)-2-butene; phases: Liquid, Gas
Property: Vapor or sublimation pressure, kPa (Liquid); method: Closed cell (Static) method
Temperature, K	Mole fraction of (E)-2-butene	Vapor or sublimation pressure, kPa	uncertainty
308.13	0	16.5	0.8
308.13	0.1486	88.4	2.6
308.13	0.3482	154	2.9
308.14	0.0104	22.5	1.1
308.14	0.0303	33.6	1.4
308.14	0.0503	44.1	1.6
308.14	0.0997	67.7	2.2
308.14	0.1977	107	2.7
308.14	0.2495	124.6	2.9
308.14	0.2991	139.9	2.9
308.14	0.3986	167.4	2.9
308.14	0.4491	180.2	2.8
308.14	0.4989	192.3	4.7
308.14	0.5003	192.9	4.7
308.14	0.5496	204.4	2.7
308.14	0.5991	215.7	2.6
308.14	0.6475	226.7	2.6
308.14	0.6971	238.1	2.5
308.14	0.7466	249.7	2.4
308.14	0.7966	261.8	2.3
308.14	1	317.3	1.4
308.15	0.8476	274.6	2.1
308.15	0.8968	287.6	1.9
308.15	0.9503	302.5	1.6
308.15	0.9705	308.4	1.5
308.15	0.9887	313.8	1.5
335.86	0.6462	469.8	5.3
335.86	0.7937	544.8	4.5
335.86	0.844	572	4.1
335.86	0.8959	601.6	3.5
335.86	0.9688	645.8	2.6
335.86	0.9915	660.2	2.4
335.86	1	666.1	2.2
335.87	0	49.6	0.8
335.87	0.0493	99.5	2.7
335.87	0.0981	143.6	4.1
335.87	0.147	183.6	4.8
335.87	0.1966	220.3	5.2
335.87	0.2476	255.1	5.6
335.87	0.2971	286.1	5.7
335.87	0.3468	315.4	5.5
335.87	0.3974	343.5	5.5
335.87	0.4474	370.1	5.5
335.87	0.4976	396	5.5
335.87	0.4991	397.2	5.5
335.87	0.5474	421.1	5.5
335.87	0.5968	445.5	5.5
335.87	0.6958	494.5	5.1
335.87	0.7458	519.8	4.8
335.87	0.9482	632.9	2.9
335.88	0.0117	62	1.7
335.88	0.0308	81.5	2.4
