Measured thermophysical data. Measurements and Correlation of High-Pressure Densities of Phosphonium Based Ionic Liquids
Source: J. Chem. Eng. Data, 2011, 10.1021/je101232g
Compound 1: trihexyl(tetradecyl)phosphonium chloride, C32H68ClP, InChI=1S/C32H68P.ClH/c1-5-9-13-17-18-19-20-21-22-23-24-28-32-33(29-25-14-10-6-2,30-26-15-11-7-3)31-27-16-12-8-4;/h5-32H2,1-4H3;1H/q+1;/p-1, purity 95%
Compound 2: tetradecyltrihexylphosphonium bromide, C32H68BrP, InChI=1S/C32H68P.BrH/c1-5-9-13-17-18-19-20-21-22-23-24-28-32-33(29-25-14-10-6-2,30-26-15-11-7-3)31-27-16-12-8-4;/h5-32H2,1-4H3;1H/q+1;/p-1, purity 98%
Compound 3: trihexyl(tetradecyl)phosphonium bis[(trifluoromethyl)sulfonyl]imide, C34H68F6NO4PS2, InChI=1S/C32H68P.C2F6NO4S2/c1-5-9-13-17-18-19-20-21-22-23-24-28-32-33(29-25-14-10-6-2,30-26-15-11-7-3)31-27-16-12-8-4;3-1(4,5)14(10,11)9-15(12,13)2(6,7)8/h5-32H2,1-4H3;/q+1;-1, purity 98%
Compound 4: tetradecyl(trihexyl)phosphonium dicyanamide, C34H68N3P, InChI=1S/C32H68P.C2N3/c1-5-9-13-17-18-19-20-21-22-23-24-28-32-33(29-25-14-10-6-2,30-26-15-11-7-3)31-27-16-12-8-4;3-1-5-2-4/h5-32H2,1-4H3;/q+1;-1, purity 97%
Compound 5: trihexyltetradecylphosphonium methanesulfonate, C33H71O3PS, InChI=1S/C32H68P.CH4O3S/c1-5-9-13-17-18-19-20-21-22-23-24-28-32-33(29-25-14-10-6-2,30-26-15-11-7-3)31-27-16-12-8-4;1-5(2,3)4/h5-32H2,1-4H3;1H3,(H,2,3,4)/q+1;/p-1, purity 99%

System: trihexyl(tetradecyl)phosphonium chloride; phases: Liquid
Property: Mass density, kg/m3 (Liquid); method: VIBTUB:UFactor:6
Temperature, K	Pressure, kPa	Mass density, kg/m3	uncertainty
283.15	100	898.4	0.8
283.15	1000	898.8	0.8
283.15	2000	899.3	0.8
283.15	3000	899.8	0.8
283.15	4000	900.3	0.9
283.15	5000	900.7	0.9
283.15	10000	903.1	1
283.15	15000	905.3	1.2
283.15	20000	907.5	1.3
283.15	25000	909.6	1.4
283.15	30000	911.7	1.5
283.15	35000	913.7	1.6
283.15	40000	915.7	1.7
283.15	45000	917.6	1.8
293.15	100	892.4	0.8
293.15	1000	892.9	0.8
293.15	2000	893.4	0.8
293.15	3000	893.9	0.9
293.15	4000	894.4	0.9
293.15	5000	894.9	0.9
293.15	10000	897.3	1.1
293.15	15000	899.6	1.2
293.15	20000	901.8	1.3
293.15	25000	904	1.5
293.15	30000	906.3	1.6
293.15	35000	908.3	1.7
293.15	40000	910.3	1.8
293.15	45000	912.4	1.9
303.15	100	886.5	0.8
303.15	1000	887	0.8
303.15	2000	887.5	0.8
303.15	3000	888	0.9
303.15	4000	888.5	0.9
303.15	5000	889.1	0.9
303.15	10000	891.5	1.1
303.15	15000	894	1.2
303.15	20000	896.3	1.4
303.15	25000	898.6	1.5
303.15	30000	900.8	1.6
303.15	35000	903	1.8
303.15	40000	905.1	1.9
303.15	45000	907.2	2
313.15	100	880.6	0.8
313.15	1000	881.1	0.8
313.15	2000	881.7	0.9
313.15	3000	882.2	0.9
313.15	4000	882.7	0.9
313.15	5000	883.3	1
313.15	10000	885.9	1.1
313.15	15000	888.4	1.3
313.15	20000	890.8	1.4
313.15	25000	893.2	1.6
313.15	30000	895.5	1.7
313.15	35000	897.7	1.8
313.15	40000	899.9	1.9
313.15	45000	902.1	2.1
323.15	100	874.8	0.8
323.15	1000	875.3	0.8
323.15	2000	875.8	0.9
323.15	3000	876.4	0.9
323.15	4000	876.9	1
323.15	5000	877.6	1
323.15	10000	880.2	1.2
323.15	15000	882.8	1.3
323.15	20000	885.3	1.5
323.15	25000	887.8	1.6
323.15	30000	890.1	1.8
323.15	35000	892.6	1.9
323.15	40000	894.8	2
323.15	45000	897	2.1
333.15	100	868.9	0.8
333.15	1000	869.4	0.9
333.15	2000	870	0.9
333.15	3000	870.6	0.9
333.15	4000	871.1	1
333.15	5000	871.8	1
333.15	10000	874.5	1.2
333.15	15000	877.3	1.4
333.15	20000	879.9	1.5
333.15	25000	882.5	1.7
333.15	30000	884.9	1.8
333.15	35000	887.3	2
333.15	40000	889.6	2.1
333.15	45000	892	2.2

System: tetradecyltrihexylphosphonium bromide; phases: Liquid
Property: Mass density, kg/m3 (Liquid); method: VIBTUB:UFactor:6
Temperature, K	Pressure, kPa	Mass density, kg/m3	uncertainty
283.15	100	962.7	0.6
283.15	1000	963.2	0.6
283.15	2000	963.7	0.6
283.15	3000	964.2	0.6
283.15	4000	964.8	0.6
283.15	5000	965.3	0.6
283.15	10000	967.9	0.7
283.15	15000	970.3	0.7
283.15	20000	972.8	0.7
283.15	25000	975.3	0.7
283.15	30000	977.6	0.8
283.15	35000	979.8	0.8
283.15	40000	982	0.8
283.15	45000	984.2	0.8
293.15	100	956.5	0.6
293.15	1000	957.1	0.6
293.15	2000	957.6	0.6
293.15	3000	958.1	0.6
293.15	4000	958.7	0.7
293.15	5000	959.2	0.7
293.15	10000	961.9	0.7
293.15	15000	964.5	0.7
293.15	20000	967	0.8
293.15	25000	969.3	0.8
293.15	30000	971.8	0.8
293.15	35000	974.2	0.8
293.15	40000	976.5	0.8
293.15	45000	978.8	0.8
303.15	100	950.3	0.6
303.15	1000	950.9	0.6
303.15	2000	951.4	0.6
303.15	3000	952	0.7
303.15	4000	952.6	0.7
303.15	5000	953.1	0.7
303.15	10000	955.9	0.7
303.15	15000	958.6	0.8
303.15	20000	961.2	0.8
303.15	25000	963.8	0.9
303.15	30000	966.3	0.9
303.15	35000	968.7	0.9
303.15	40000	971	0.9
303.15	45000	973.4	0.9
313.15	100	944.1	0.6
313.15	1000	944.6	0.7
313.15	2000	945.3	0.7
313.15	3000	945.8	0.7
313.15	4000	946.4	0.7
313.15	5000	947	0.7
313.15	10000	949.8	0.8
313.15	15000	952.7	0.8
313.15	20000	955.4	0.9
313.15	25000	958	0.9
313.15	30000	960.6	1
313.15	35000	963.2	1
313.15	40000	965.5	1
313.15	45000	967.9	1
323.15	100	937.8	0.7
323.15	1000	938.4	0.7
323.15	2000	939	0.7
323.15	3000	939.7	0.7
323.15	4000	940.3	0.7
323.15	5000	941	0.7
323.15	10000	943.9	0.8
323.15	15000	946.8	0.9
323.15	20000	949.7	0.9
323.15	25000	952.4	1
323.15	30000	955.1	1
323.15	35000	957.7	1
323.15	40000	960.2	1.1
323.15	45000	962.7	1.1
333.15	100	931.7	0.7
333.15	1000	932.3	0.7
333.15	2000	933	0.7
333.15	3000	933.6	0.7
333.15	4000	934.2	0.7
333.15	5000	934.9	0.8
333.15	10000	938	0.8
333.15	15000	941	0.9
333.15	20000	943.9	1
333.15	25000	946.8	1
333.15	30000	949.6	1.1
333.15	35000	952.3	1.1
333.15	40000	954.9	1.2
333.15	45000	957.3	1.2

System: trihexyl(tetradecyl)phosphonium bis[(trifluoromethyl)sulfonyl]imide; phases: Liquid
Property: Mass density, kg/m3 (Liquid); method: VIBTUB:UFactor:6
Temperature, K	Pressure, kPa	Mass density, kg/m3	uncertainty
283.15	100	1077.4	0.8
283.15	1000	1077.9	0.8
283.15	2000	1078.4	0.8
283.15	3000	1079	0.8
283.15	4000	1079.6	0.9
283.15	5000	1080.2	0.9
283.15	10000	1083	1
283.15	15000	1085.6	1.2
283.15	20000	1088.3	1.3
283.15	25000	1090.8	1.5
283.15	30000	1093.3	1.7
283.15	35000	1095.6	1.8
283.15	40000	1097.9	2
283.15	45000	1100.2	2.2
293.15	100	1070	0.7
293.15	1000	1070.5	0.8
293.15	2000	1071.2	0.8
293.15	3000	1071.8	0.8
293.15	4000	1072.3	0.8
293.15	5000	1072.9	0.9
293.15	10000	1075.9	1
293.15	15000	1078.6	1.1
293.15	20000	1081.4	1.3
293.15	25000	1084	1.4
293.15	30000	1086.6	1.6
293.15	35000	1089.1	1.7
293.15	40000	1091.5	1.9
293.15	45000	1093.9	2.1
303.15	100	1062.7	0.7
303.15	1000	1063.3	0.7
303.15	2000	1063.9	0.8
303.15	3000	1064.5	0.8
303.15	4000	1065.2	0.8
303.15	5000	1065.8	0.8
303.15	10000	1068.8	0.9
303.15	15000	1071.8	1.1
303.15	20000	1074.7	1.2
303.15	25000	1077.4	1.4
303.15	30000	1080.1	1.5
303.15	35000	1082.7	1.7
303.15	40000	1085.1	1.8
303.15	45000	1087.7	2
313.15	100	1055.4	0.7
313.15	1000	1056	0.7
313.15	2000	1056.7	0.7
313.15	3000	1057.3	0.8
313.15	4000	1057.9	0.8
313.15	5000	1058.6	0.8
313.15	10000	1061.7	0.9
313.15	15000	1064.9	1
313.15	20000	1067.8	1.1
313.15	25000	1070.7	1.3
313.15	30000	1073.5	1.4
313.15	35000	1076.2	1.6
313.15	40000	1078.8	1.7
313.15	45000	1081.3	1.9
323.15	100	1048	0.7
323.15	1000	1048.7	0.7
323.15	2000	1049.3	0.7
323.15	3000	1050.1	0.7
323.15	4000	1050.7	0.7
323.15	5000	1051.4	0.8
323.15	10000	1054.7	0.9
323.15	15000	1057.9	1
323.15	20000	1061	1.1
323.15	25000	1064	1.2
323.15	30000	1066.9	1.3
323.15	35000	1069.8	1.5
323.15	40000	1072.4	1.6
323.15	45000	1075.1	1.8
333.15	100	1040.8	0.6
333.15	1000	1041.5	0.7
333.15	2000	1042.2	0.7
333.15	3000	1042.9	0.7
333.15	4000	1043.6	0.7
333.15	5000	1044.4	0.7
333.15	10000	1047.8	0.8
333.15	15000	1051.2	0.9
333.15	20000	1054.3	1
333.15	25000	1057.4	1.1
333.15	30000	1060.4	1.3
333.15	35000	1063.3	1.4
333.15	40000	1066.2	1.5
333.15	45000	1068.9	1.7

System: tetradecyl(trihexyl)phosphonium dicyanamide; phases: Liquid
Property: Mass density, kg/m3 (Liquid); method: VIBTUB:UFactor:6
Temperature, K	Pressure, kPa	Mass density, kg/m3	uncertainty
283.15	100	907.5	0.7
283.15	1000	908	0.8
283.15	2000	908.4	0.8
283.15	3000	908.9	0.8
283.15	4000	909.3	0.8
283.15	5000	909.8	0.9
283.15	10000	912.1	1
283.15	15000	914.3	1.1
283.15	20000	916.2	1.2
283.15	25000	918.3	1.3
283.15	30000	920.3	1.4
283.15	35000	922.2	1.5
283.15	40000	924.2	1.6
283.15	45000	926.1	1.7
293.15	100	901.7	0.7
293.15	1000	902.1	0.8
293.15	2000	902.6	0.8
293.15	3000	903.1	0.8
293.15	4000	903.5	0.9
293.15	5000	904	0.9
293.15	10000	906.3	1
293.15	15000	908.5	1.1
293.15	20000	910.7	1.3
293.15	25000	912.8	1.4
293.15	30000	914.9	1.5
293.15	35000	916.9	1.6
293.15	40000	918.9	1.7
293.15	45000	920.9	1.8
303.15	100	895.9	0.8
303.15	1000	896.4	0.8
303.15	2000	896.9	0.8
303.15	3000	897.4	0.8
303.15	4000	897.9	0.9
303.15	5000	898.3	0.9
303.15	10000	900.7	1
303.15	15000	903	1.2
303.15	20000	905.3	1.3
303.15	25000	907.5	1.4
303.15	30000	909.6	1.5
303.15	35000	911.6	1.6
303.15	40000	913.7	1.7
303.15	45000	915.7	1.8
313.15	100	890.2	0.8
313.15	1000	890.6	0.8
313.15	2000	891.2	0.8
313.15	3000	891.6	0.9
313.15	4000	892.1	0.9
313.15	5000	892.7	0.9
313.15	10000	895.1	1.1
313.15	15000	897.5	1.2
313.15	20000	899.9	1.3
313.15	25000	902.1	1.5
313.15	30000	904.3	1.6
313.15	35000	906.5	1.7
313.15	40000	908.5	1.8
313.15	45000	910.7	1.9
323.15	100	884.3	0.8
323.15	1000	884.8	0.8
323.15	2000	885.4	0.9
323.15	3000	885.9	0.9
323.15	4000	886.5	0.9
323.15	5000	887	1
323.15	10000	889.5	1.1
323.15	15000	892	1.3
323.15	20000	894.4	1.4
323.15	25000	896.7	1.5
323.15	30000	899	1.7
323.15	35000	901.4	1.8
323.15	40000	903.4	1.9
323.15	45000	905.6	2
333.15	100	878.6	0.8
333.15	1000	879.2	0.8
333.15	2000	879.7	0.9
333.15	3000	880.2	0.9
333.15	4000	880.8	0.9
333.15	5000	881.3	1
333.15	10000	884	1.1
333.15	15000	886.6	1.3
333.15	20000	889.1	1.4
333.15	25000	891.4	1.6
333.15	30000	893.9	1.7
333.15	35000	896.2	1.8
333.15	40000	898.3	2
333.15	45000	900.5	2.1

System: trihexyltetradecylphosphonium methanesulfonate; phases: Liquid
Property: Mass density, kg/m3 (Liquid); method: VIBTUB:UFactor:6
Temperature, K	Pressure, kPa	Mass density, kg/m3	uncertainty
283.15	100	938	0.7
283.15	1000	938.4	0.7
283.15	2000	938.9	0.7
283.15	3000	939.5	0.7
283.15	4000	940.1	0.7
283.15	5000	940.5	0.7
283.15	10000	943.1	0.8
283.15	15000	945.6	0.9
283.15	20000	948	0.9
283.15	25000	950.3	1
283.15	30000	952.7	1
283.15	35000	954.9	1.1
283.15	40000	957.1	1.1
283.15	45000	959.3	1.1
293.15	100	931.8	0.7
293.15	1000	932.3	0.7
293.15	2000	932.8	0.7
293.15	3000	933.4	0.7
293.15	4000	933.9	0.7
293.15	5000	934.4	0.8
293.15	10000	937.1	0.8
293.15	15000	939.7	0.9
293.15	20000	942.2	1
293.15	25000	944.6	1.1
293.15	30000	947.1	1.1
293.15	35000	949.4	1.2
293.15	40000	951.6	1.2
293.15	45000	953.9	1.2
303.15	100	925.7	0.7
303.15	1000	926.2	0.7
303.15	2000	926.7	0.7
303.15	3000	927.3	0.7
303.15	4000	927.9	0.8
303.15	5000	928.4	0.8
303.15	10000	931.3	0.9
303.15	15000	934	1
303.15	20000	936.6	1
303.15	25000	939	1.1
303.15	30000	941.5	1.2
303.15	35000	943.8	1.2
303.15	40000	946.2	1.3
303.15	45000	948.5	1.3
313.15	100	919.6	0.7
313.15	1000	920.1	0.7
313.15	2000	920.7	0.7
313.15	3000	921.3	0.8
313.15	4000	921.9	0.8
313.15	5000	922.5	0.8
313.15	10000	925.3	0.9
313.15	15000	928.1	1
313.15	20000	930.8	1.1
313.15	25000	933.5	1.2
313.15	30000	935.9	1.2
313.15	35000	938.4	1.3
313.15	40000	940.8	1.4
313.15	45000	943.3	1.4
323.15	100	913.4	0.7
323.15	1000	914	0.7
323.15	2000	914.6	0.8
323.15	3000	915.3	0.8
323.15	4000	915.9	0.8
323.15	5000	916.6	0.8
323.15	10000	919.5	0.9
323.15	15000	922.3	1
323.15	20000	925.2	1.1
323.15	25000	927.9	1.2
323.15	30000	930.5	1.3
323.15	35000	933.1	1.4
323.15	40000	935.5	1.4
323.15	45000	938.1	1.5
333.15	100	907.4	0.7
333.15	1000	908.1	0.8
333.15	2000	908.7	0.8
333.15	3000	909.3	0.8
333.15	4000	910	0.8
333.15	5000	910.6	0.9
333.15	10000	913.7	1
333.15	15000	916.7	1.1
333.15	20000	919.6	1.2
333.15	25000	922.3	1.3
333.15	30000	925	1.4
333.15	35000	927.7	1.4
333.15	40000	930.2	1.5
333.15	45000	932.7	1.6
