Measured thermophysical data. Micellar Properties and Related Thermodynamic Parameters of Aqueous Anionic Surfactants in the Presence of Monohydric Alcohols
Source: J. Chem. Eng. Data, 2011, 10.1021/je101358p
Compound 1: sodium dodecyl sulfate, C12H25NaO4S, InChI=1S/C12H26O4S.Na/c1-2-3-4-5-6-7-8-9-10-11-12-16-17(13,14)15;/h2-12H2,1H3,(H,13,14,15);/q;+1/p-1
Compound 2: octan-1-ol, C8H18O, InChI=1S/C8H18O/c1-2-3-4-5-6-7-8-9/h9H,2-8H2,1H3, purity 99.5%
Compound 3: heptan-1-ol, C7H16O, InChI=1S/C7H16O/c1-2-3-4-5-6-7-8/h8H,2-7H2,1H3, purity 98%
Compound 4: nonan-1-ol, C9H20O, InChI=1S/C9H20O/c1-2-3-4-5-6-7-8-9-10/h10H,2-9H2,1H3, purity 98%
Compound 5: decan-1-ol, C10H22O, InChI=1S/C10H22O/c1-2-3-4-5-6-7-8-9-10-11/h11H,2-10H2,1H3, purity 98%
Compound 6: water, H2O, InChI=1S/H2O/h1H2
Compound 7: sodium dodecylbenzenesulfonate (ILL DEFINED!), C18H29NaO3S, InChI=1S/C18H30O3S.Na/c1-2-3-4-5-6-7-8-9-10-11-14-17-15-12-13-16-18(17)22(19,20)21;/h12-13,15-16H,2-11,14H2,1H3,(H,19,20,21);/q;+1/p-1, purity 88%

System: octan-1-ol; phases: Liquid
Fixed: Pressure, kPa = 101.325
Property: Speed of sound, m/s (Liquid); method: Sing-around technique in a fixed-path interferometer
Temperature, K	Speed of sound, m/s	uncertainty
298.15	1347.4	0.91
303.15	1330.58	0.9
308.15	1313.92	0.9

System: octan-1-ol; phases: Liquid
Fixed: Pressure, kPa = 101.325
Property: Mass density, kg/m3 (Liquid); method: Vibrating tube method
Temperature, K	Mass density, kg/m3	uncertainty
298.15	821.748	0.139
303.15	818.263	0.14
308.15	814.764	0.141

System: heptan-1-ol; phases: Liquid
Fixed: Pressure, kPa = 101.325
Property: Speed of sound, m/s (Liquid); method: Sing-around technique in a fixed-path interferometer
Temperature, K	Speed of sound, m/s	uncertainty
298.15	1328.08	2.14
303.15	1311.24	2.13
308.15	1294.54	2.13

System: heptan-1-ol; phases: Liquid
Fixed: Pressure, kPa = 101.325
Property: Mass density, kg/m3 (Liquid); method: Vibrating tube method
Temperature, K	Mass density, kg/m3	uncertainty
298.15	819.398	0.645
303.15	815.848	0.642
308.15	812.279	0.639

System: nonan-1-ol; phases: Liquid
Fixed: Pressure, kPa = 101.325
Property: Speed of sound, m/s (Liquid); method: Sing-around technique in a fixed-path interferometer
Temperature, K	Speed of sound, m/s	uncertainty
298.15	1364.53	2.14
303.15	1347.59	2.14
308.15	1331	2.14

System: nonan-1-ol; phases: Liquid
Fixed: Pressure, kPa = 101.325
Property: Mass density, kg/m3 (Liquid); method: Vibrating tube method
Temperature, K	Mass density, kg/m3	uncertainty
298.15	824.811	0.65
303.15	821.349	0.647
308.15	817.876	0.644

System: decan-1-ol; phases: Liquid
Fixed: Pressure, kPa = 101.325
Property: Speed of sound, m/s (Liquid); method: Sing-around technique in a fixed-path interferometer
Temperature, K	Speed of sound, m/s	uncertainty
298.15	1380.58	2.14
303.15	1363.52	2.14
308.15	1346.58	2.14

System: decan-1-ol; phases: Liquid
Fixed: Pressure, kPa = 101.325
Property: Mass density, kg/m3 (Liquid); method: Vibrating tube method
Temperature, K	Mass density, kg/m3	uncertainty
298.15	827.78	0.653
303.15	824.327	0.65
308.15	820.859	0.647

System: sodium dodecyl sulfate + water; phases: Liquid
Fixed: Pressure, kPa = 101
Property: Speed of sound, m/s (Liquid); method: Sing-around technique in a fixed-path interferometer
Temperature, K	Molality, mol/kg of sodium dodecyl sulfate	Speed of sound, m/s	uncertainty
298.15	0.01	1498	1.2
298.15	0.05	1498.3	1.2
298.15	0.1	1498	1.6
303.15	0.01	1509.5	1.2
303.15	0.05	1510.1	1.2
303.15	0.1	1509.5	1.6
308.15	0.01	1519.1	1.2
308.15	0.05	1520.2	1.2
308.15	0.1	1519.1	1.6

System: sodium dodecyl sulfate + water; phases: Liquid
Fixed: Pressure, kPa = 101
Property: Mass density, kg/m3 (Liquid); method: Vibrating tube method
Temperature, K	Molality, mol/kg of sodium dodecyl sulfate	Mass density, kg/m3	uncertainty
298.15	0.01	1000.966	0.182
298.15	0.05	999.078	0.181
298.15	0.1	1000.966	0.405
303.15	0.01	999.555	0.18
303.15	0.05	997.652	0.18
303.15	0.1	999.555	0.404
308.15	0.01	997.734	0.182
308.15	0.05	995.942	0.182
308.15	0.1	997.734	0.404

System: water + sodium dodecylbenzenesulfonate (ILL DEFINED!); phases: Liquid
Fixed: Molality, mol/kg of sodium dodecylbenzenesulfonate (ILL DEFINED!) = 0.1
Fixed: Pressure, kPa = 101
Property: Speed of sound, m/s (Liquid); method: Sing-around technique in a fixed-path interferometer
Temperature, K	Speed of sound, m/s	uncertainty
298.15	1500	1.9
303.15	1511.9	1.9
308.15	1523.4	1.9

System: water + sodium dodecylbenzenesulfonate (ILL DEFINED!); phases: Liquid
Property: Mass density, kg/m3 (Liquid); method: Vibrating tube method
Temperature, K	Molality, mol/kg of sodium dodecylbenzenesulfonate (ILL DEFINED!)	Pressure, kPa	Mass density, kg/m3	uncertainty
303.15	0.1	101	1001.2	0.613

System: heptan-1-ol + sodium dodecyl sulfate + water; phases: Liquid
Fixed: Solvent: Molality, mol/kg of sodium dodecyl sulfate = 0.1
Fixed: Pressure, kPa = 101
Property: Speed of sound, m/s (Liquid); method: Sing-around technique in a fixed-path interferometer
Temperature, K	Molality, mol/kg of heptan-1-ol	Speed of sound, m/s	uncertainty
298.15	0	1498	1.6
298.15	0.012	1497.8	1.6
298.15	0.028	1497.6	1.6
298.15	0.034	1497.5	1.6
298.15	0.042	1497.4	1.6
298.15	0.051	1497.2	1.6
298.15	0.062	1497	1.6
298.15	0.075	1496.7	1.6
303.15	0	1509.5	1.6
303.15	0.012	1509.2	1.6
303.15	0.028	1508.8	1.6
303.15	0.034	1508.6	1.6
303.15	0.042	1508.4	1.6
303.15	0.051	1508.1	1.6
303.15	0.062	1507.8	1.6
303.15	0.075	1507.5	1.6
308.15	0	1519.1	1.6
308.15	0.012	1518.7	1.6
308.15	0.028	1518.1	1.6
308.15	0.034	1517.9	1.6
308.15	0.042	1517.6	1.6
308.15	0.051	1517.2	1.6
308.15	0.062	1516.8	1.6
308.15	0.075	1516.3	1.6

System: heptan-1-ol + sodium dodecyl sulfate + water; phases: Liquid
Fixed: Solvent: Molality, mol/kg of sodium dodecyl sulfate = 0.1
Fixed: Pressure, kPa = 101
Property: Mass density, kg/m3 (Liquid); method: Vibrating tube method
Temperature, K	Molality, mol/kg of heptan-1-ol	Mass density, kg/m3	uncertainty
298.15	0.012	1000.688	0.404
298.15	0.028	1000.324	0.404
298.15	0.034	1000.187	0.404
298.15	0.042	1000.006	0.404
298.15	0.051	999.806	0.404
298.15	0.062	999.545	0.403
298.15	0.075	999.252	0.403
303.15	0	999.555	0.404
303.15	0.012	999.27	0.403
303.15	0.028	998.898	0.404
303.15	0.034	998.758	0.403
303.15	0.042	998.573	0.403
303.15	0.051	998.369	0.403
303.15	0.062	998.102	0.403
303.15	0.075	997.805	0.404
308.15	0.012	997.445	0.403
308.15	0.028	997.068	0.403
308.15	0.034	996.926	0.403
308.15	0.042	996.739	0.403
308.15	0.051	996.532	0.403
308.15	0.062	996.261	0.403
308.15	0.075	995.959	0.402

System: heptan-1-ol + water + sodium dodecylbenzenesulfonate (ILL DEFINED!); phases: Liquid
Fixed: Solvent: Molality, mol/kg of sodium dodecylbenzenesulfonate (ILL DEFINED!) = 0.1
Fixed: Pressure, kPa = 101
Property: Speed of sound, m/s (Liquid); method: Sing-around technique in a fixed-path interferometer
Temperature, K	Molality, mol/kg of heptan-1-ol	Speed of sound, m/s	uncertainty
298.15	0	1500	1.9
298.15	0.011	1499.6	1.9
298.15	0.022	1499.2	1.9
298.15	0.035	1498.8	1.9
298.15	0.048	1498.3	1.9
298.15	0.053	1498.2	1.9
298.15	0.061	1497.9	1.9
298.15	0.072	1497.5	1.9
303.15	0	1511.9	1.9
303.15	0.011	1511.4	1.9
303.15	0.022	1511	1.9
303.15	0.035	1510.5	1.9
303.15	0.048	1510	1.9
303.15	0.053	1509.7	1.9
303.15	0.061	1509.4	1.9
303.15	0.072	1508.9	1.9
308.15	0	1523.4	1.9
308.15	0.011	1523	1.9
308.15	0.022	1522.5	1.9
308.15	0.035	1521.9	1.9
308.15	0.048	1521.3	1.9
308.15	0.053	1521.1	1.9
308.15	0.061	1520.7	1.9
308.15	0.072	1520.2	1.9

System: heptan-1-ol + water + sodium dodecylbenzenesulfonate (ILL DEFINED!); phases: Liquid
Fixed: Solvent: Molality, mol/kg of sodium dodecylbenzenesulfonate (ILL DEFINED!) = 0.1
Fixed: Pressure, kPa = 101
Property: Mass density, kg/m3 (Liquid); method: Vibrating tube method
Temperature, K	Molality, mol/kg of heptan-1-ol	Mass density, kg/m3	uncertainty
298.15	0.011	1002.503	0.615
298.15	0.022	1002.263	0.614
298.15	0.035	1001.97	0.614
298.15	0.048	1001.675	0.613
298.15	0.053	1001.561	0.613
298.15	0.061	1001.379	0.613
298.15	0.072	1001.124	0.612
303.15	0	1001.2	0.613
303.15	0.011	1000.942	0.612
303.15	0.022	1000.696	0.612
303.15	0.035	1000.396	0.611
303.15	0.048	1000.093	0.611
303.15	0.053	999.975	0.611
303.15	0.061	999.79	0.611
303.15	0.072	999.53	0.611
308.15	0.011	999.175	0.61
308.15	0.022	998.923	0.61
308.15	0.035	998.614	0.61
308.15	0.048	998.301	0.61
308.15	0.053	998.18	0.609
308.15	0.061	997.99	0.609
308.15	0.072	997.72	0.609

System: octan-1-ol + sodium dodecyl sulfate + water; phases: Liquid
Fixed: Pressure, kPa = 101
Property: Speed of sound, m/s (Liquid); method: Sing-around technique in a fixed-path interferometer
Temperature, K	Solvent: Molality, mol/kg of sodium dodecyl sulfate	Molality, mol/kg of octan-1-ol	Speed of sound, m/s	uncertainty
298.15	0.01	0	1498	1.2
298.15	0.01	0.008	1497.8	1.2
298.15	0.01	0.01	1497.7	1.2
298.15	0.01	0.012	1497.7	1.2
298.15	0.01	0.021	1497.4	1.2
298.15	0.01	0.023	1497.3	1.2
298.15	0.01	0.026	1497.3	1.2
298.15	0.01	0.033	1497	1.2
298.15	0.05	0	1498.3	1.2
298.15	0.05	0.007	1498	1.2
298.15	0.05	0.01	1497.9	1.2
298.15	0.05	0.012	1497.8	1.2
298.15	0.05	0.017	1497.7	1.2
298.15	0.05	0.024	1497.4	1.2
298.15	0.05	0.027	1497.3	1.2
298.15	0.05	0.035	1497	1.2
298.15	0.05	0.038	1496.9	1.2
303.15	0.01	0	1509.5	1.2
303.15	0.01	0.008	1509.2	1.2
303.15	0.01	0.01	1509.1	1.2
303.15	0.01	0.012	1509.1	1.2
303.15	0.01	0.021	1508.7	1.2
303.15	0.01	0.023	1508.6	1.2
303.15	0.01	0.026	1508.5	1.2
303.15	0.01	0.033	1508.2	1.2
303.15	0.05	0	1510.1	1.2
303.15	0.05	0.007	1509.8	1.2
303.15	0.05	0.01	1509.7	1.2
303.15	0.05	0.012	1509.6	1.2
303.15	0.05	0.017	1509.4	1.2
303.15	0.05	0.024	1509.1	1.2
303.15	0.05	0.027	1508.9	1.2
303.15	0.05	0.035	1508.6	1.2
303.15	0.05	0.038	1508.5	1.2
308.15	0.01	0	1519.1	1.2
308.15	0.01	0.008	1518.7	1.2
308.15	0.01	0.01	1518.7	1.2
308.15	0.01	0.012	1518.6	1.2
308.15	0.01	0.021	1518.1	1.2
308.15	0.01	0.023	1518.1	1.2
308.15	0.01	0.026	1517.9	1.2
308.15	0.01	0.033	1517.6	1.2
308.15	0.05	0	1520.2	1.2
308.15	0.05	0.007	1519.8	1.2
308.15	0.05	0.01	1519.7	1.2
308.15	0.05	0.012	1519.6	1.2
308.15	0.05	0.017	1519.3	1.2
308.15	0.05	0.024	1519	1.2
308.15	0.05	0.027	1518.8	1.2
308.15	0.05	0.035	1518.4	1.2
308.15	0.05	0.038	1518.3	1.2

System: octan-1-ol + sodium dodecyl sulfate + water; phases: Liquid
Fixed: Pressure, kPa = 101
Property: Mass density, kg/m3 (Liquid); method: Vibrating tube method
Temperature, K	Solvent: Molality, mol/kg of sodium dodecyl sulfate	Molality, mol/kg of octan-1-ol	Mass density, kg/m3	uncertainty
298.15	0.01	0	1000.966	0.182
298.15	0.01	0.008	1000.744	0.182
298.15	0.01	0.01	1000.696	0.182
298.15	0.01	0.012	1000.64	0.182
298.15	0.01	0.021	1000.397	0.182
298.15	0.01	0.023	1000.34	0.182
298.15	0.01	0.026	1000.27	0.182
298.15	0.01	0.033	1000.074	0.182
298.15	0.05	0	999.078	0.181
298.15	0.05	0.007	998.896	0.181
298.15	0.05	0.01	998.815	0.182
298.15	0.05	0.012	998.758	0.181
298.15	0.05	0.017	998.635	0.181
298.15	0.05	0.024	998.45	0.182
298.15	0.05	0.027	998.366	0.182
298.15	0.05	0.035	998.164	0.182
298.15	0.05	0.038	998.088	0.182
303.15	0.01	0	999.555	0.18
303.15	0.01	0.008	999.326	0.182
303.15	0.01	0.01	999.277	0.182
303.15	0.01	0.012	999.219	0.205
303.15	0.01	0.021	998.967	0.181
303.15	0.01	0.023	998.908	0.181
303.15	0.01	0.026	998.835	0.181
303.15	0.01	0.033	998.633	0.181
303.15	0.05	0	997.652	0.18
303.15	0.05	0.007	997.463	0.182
303.15	0.05	0.01	997.379	0.183
303.15	0.05	0.012	997.32	0.181
303.15	0.05	0.017	997.192	0.181
303.15	0.05	0.024	996.999	0.181
303.15	0.05	0.027	996.912	0.181
303.15	0.05	0.035	996.702	0.182
303.15	0.05	0.038	996.622	0.182
308.15	0.01	0	997.734	0.182
308.15	0.01	0.008	997.495	0.181
308.15	0.01	0.01	997.444	0.182
308.15	0.01	0.012	997.384	0.183
308.15	0.01	0.021	997.12	0.18
308.15	0.01	0.023	997.059	0.18
308.15	0.01	0.026	996.984	0.181
308.15	0.01	0.033	996.773	0.181
308.15	0.05	0	995.942	0.182
308.15	0.05	0.007	995.745	0.181
308.15	0.05	0.01	995.658	0.183
308.15	0.05	0.012	995.596	0.182
308.15	0.05	0.017	995.464	0.181
308.15	0.05	0.024	995.263	0.181
308.15	0.05	0.027	995.173	0.181
308.15	0.05	0.035	994.955	0.181
308.15	0.05	0.038	994.872	0.181

System: nonan-1-ol + sodium dodecyl sulfate + water; phases: Liquid
Fixed: Solvent: Molality, mol/kg of sodium dodecyl sulfate = 0.1
Fixed: Pressure, kPa = 101
Property: Speed of sound, m/s (Liquid); method: Sing-around technique in a fixed-path interferometer
Temperature, K	Molality, mol/kg of nonan-1-ol	Speed of sound, m/s	uncertainty
298.15	0	1498	1.6
298.15	0.004	1497.9	1.6
298.15	0.008	1497.8	1.6
298.15	0.011	1497.8	1.6
298.15	0.014	1497.7	1.6
298.15	0.016	1497.7	1.6
298.15	0.02	1497.6	1.6
298.15	0.025	1497.5	1.6
303.15	0	1509.5	1.6
303.15	0.004	1509.3	1.6
303.15	0.008	1509.2	1.6
303.15	0.011	1509.1	1.6
303.15	0.014	1508.9	1.6
303.15	0.016	1508.8	1.6
303.15	0.02	1508.7	1.6
303.15	0.025	1508.5	1.6
308.15	0	1519.1	1.6
308.15	0.004	1518.9	1.6
308.15	0.008	1518.7	1.6
308.15	0.011	1518.5	1.6
308.15	0.014	1518.3	1.6
308.15	0.016	1518.2	1.6
308.15	0.02	1517.9	1.6
308.15	0.025	1517.6	1.6

System: nonan-1-ol + sodium dodecyl sulfate + water; phases: Liquid
Fixed: Solvent: Molality, mol/kg of sodium dodecyl sulfate = 0.1
Fixed: Pressure, kPa = 101
Property: Mass density, kg/m3 (Liquid); method: Vibrating tube method
Temperature, K	Molality, mol/kg of nonan-1-ol	Mass density, kg/m3	uncertainty
298.15	0	1000.966	0.405
298.15	0.004	1000.85	0.405
298.15	0.008	1000.729	0.405
298.15	0.011	1000.655	0.405
298.15	0.014	1000.56	0.405
298.15	0.016	1000.486	0.405
298.15	0.02	1000.37	0.404
298.15	0.025	1000.227	0.404
303.15	0	999.555	0.403
303.15	0.004	999.435	0.404
303.15	0.008	999.309	0.404
303.15	0.011	999.232	0.404
303.15	0.014	999.133	0.405
303.15	0.016	999.056	0.403
303.15	0.02	998.936	0.404
303.15	0.025	998.788	0.407
308.15	0	997.734	0.404
308.15	0.004	997.61	0.404
308.15	0.008	997.48	0.403
308.15	0.011	997.4	0.403
308.15	0.014	997.298	0.404
308.15	0.016	997.219	0.404
308.15	0.02	997.095	0.403
308.15	0.025	996.942	0.403

System: decan-1-ol + sodium dodecyl sulfate + water; phases: Liquid
Fixed: Solvent: Molality, mol/kg of sodium dodecyl sulfate = 0.1
Fixed: Pressure, kPa = 101
Property: Speed of sound, m/s (Liquid); method: Sing-around technique in a fixed-path interferometer
Temperature, K	Molality, mol/kg of decan-1-ol	Speed of sound, m/s	uncertainty
298.15	0	1498	1.6
298.15	0.002	1497.9	1.6
298.15	0.009	1497.7	1.6
298.15	0.011	1497.7	1.6
298.15	0.013	1497.6	1.6
298.15	0.016	1497.5	1.6
298.15	0.02	1497.3	1.6
298.15	0.022	1497.3	1.6
303.15	0	1509.5	1.6
303.15	0.002	1509.4	1.6
303.15	0.009	1509.2	1.6
303.15	0.011	1509.1	1.6
303.15	0.013	1509	1.6
303.15	0.016	1508.8	1.6
303.15	0.02	1508.6	1.6
303.15	0.022	1508.5	1.6
308.15	0	1519.1	1.6
308.15	0.002	1519	1.6
308.15	0.009	1518.7	1.6
308.15	0.011	1518.6	1.6
308.15	0.013	1518.4	1.6
308.15	0.016	1518.3	1.6
308.15	0.02	1518	1.6
308.15	0.022	1517.9	1.6

System: decan-1-ol + sodium dodecyl sulfate + water; phases: Liquid
Fixed: Solvent: Molality, mol/kg of sodium dodecyl sulfate = 0.1
Fixed: Pressure, kPa = 101
Property: Mass density, kg/m3 (Liquid); method: Vibrating tube method
Temperature, K	Molality, mol/kg of decan-1-ol	Mass density, kg/m3	uncertainty
298.15	0	1000.966	0.406
298.15	0.002	1000.896	0.405
298.15	0.009	1000.676	0.405
298.15	0.011	1000.606	0.405
298.15	0.013	1000.533	0.405
298.15	0.016	1000.429	0.405
298.15	0.02	1000.306	0.405
298.15	0.022	1000.239	0.405
303.15	0	999.555	0.404
303.15	0.002	999.482	0.404
303.15	0.009	999.252	0.405
303.15	0.011	999.179	0.404
303.15	0.013	999.102	0.404
303.15	0.016	998.994	0.404
303.15	0.02	998.864	0.405
303.15	0.022	998.794	0.416
308.15	0	997.734	0.404
308.15	0.002	997.658	0.404
308.15	0.009	997.419	0.404
308.15	0.011	997.343	0.404
308.15	0.013	997.263	0.404
308.15	0.016	997.15	0.404
308.15	0.02	997.016	0.404
308.15	0.022	996.942	0.404
