Measured thermophysical data. Vapor Pressure of Selected Organic Iodides
Source: J. Chem. Eng. Data, 2010, 10.1021/je100398m
Compound 1: 1-iodo-2-methylpropane, C4H9I, InChI=1S/C4H9I/c1-4(2)3-5/h4H,3H2,1-2H3
Compound 2: 1-iodo-3-methylbutane, C5H11I, InChI=1S/C5H11I/c1-5(2)3-4-6/h5H,3-4H2,1-2H3
Compound 3: 1-iodohexane, C6H13I, InChI=1S/C6H13I/c1-2-3-4-5-6-7/h2-6H2,1H3
Compound 4: iodocyclohexane, C6H11I, InChI=1S/C6H11I/c7-6-4-2-1-3-5-6/h6H,1-5H2

System: 1-iodo-2-methylpropane; phases: Liquid, Gas
Property: Vapor or sublimation pressure, kPa (Liquid); method: Closed cell (Static) method
Temperature, K	Vapor or sublimation pressure, kPa	uncertainty
258.35	0.23312	0.00372
258.35	0.23313	0.00372
258.35	0.23299	0.00372
263.7	0.34051	0.0048
263.7	0.34003	0.00479
268.37	0.46635	0.0061
268.37	0.46629	0.0061
273.31	0.64506	0.00793
273.31	0.64461	0.00793
278.35	0.88359	0.01037
278.35	0.88416	0.01038
278.35	0.88243	0.01036
283.39	1.1962	0.0136
283.39	1.1969	0.0136
283.39	1.1969	0.0136
288.35	1.5953	0.0137
288.35	1.5949	0.0137
293.27	2.0937	0.0149
293.27	2.094	0.0149
298.25	2.7316	0.0165
298.25	2.732	0.0165
298.25	2.7318	0.0165
303.23	3.5256	0.0182
303.23	3.5245	0.0182

System: 1-iodo-3-methylbutane; phases: Liquid, Gas
Property: Vapor or sublimation pressure, kPa (Liquid); method: Closed cell (Static) method
Temperature, K	Vapor or sublimation pressure, kPa	uncertainty
253.67	0.03827	0.00117
253.68	0.03832	0.00117
253.7	0.0385	0.00117
258.62	0.05803	0.00157
258.62	0.05789	0.00157
268.98	0.12759	0.00295
269.1	0.12797	0.00295
273.61	0.1781	0.00313
273.61	0.17827	0.00313
273.61	0.17842	0.00313
278.56	0.2504	0.00387
278.57	0.25063	0.00387
278.58	0.25089	0.00387
283.55	0.34861	0.00488
283.55	0.34864	0.00488
283.56	0.34882	0.00488
288.52	0.48206	0.00624
288.53	0.48257	0.00625
288.54	0.48249	0.00625
293.55	0.65576	0.00802
293.55	0.65572	0.00802
293.57	0.65514	0.00801
298.43	0.87496	0.01026
298.44	0.87535	0.01026
298.44	0.87562	0.01027
303.29	1.1571	0.0131
303.29	1.1586	0.0131
303.29	1.1597	0.0131

System: 1-iodohexane; phases: Liquid, Gas
Property: Vapor or sublimation pressure, kPa (Liquid); method: Closed cell (Static) method
Temperature, K	Vapor or sublimation pressure, kPa	uncertainty
258.17	0.00684	0.00028
258.18	0.00685	0.00028
258.18	0.00685	0.00028
263.17	0.0109	0.00044
263.17	0.0109	0.00044
263.17	0.0109	0.00044
268.17	0.01699	0.00058
268.17	0.01701	0.00058
268.17	0.017	0.00058
273.65	0.02709	0.00073
273.65	0.02707	0.00073
273.65	0.02707	0.00073
278.15	0.0391	0.00093
278.15	0.03909	0.00093
283.15	0.05771	0.00125
283.15	0.05769	0.00125
288.15	0.08399	0.00171
288.15	0.08395	0.00171
293.15	0.12013	0.00234
293.15	0.12011	0.00234
298.15	0.16945	0.00275
298.15	0.16947	0.00275
303.15	0.23594	0.00356
303.15	0.23595	0.00356
308.15	0.32448	0.00462
308.15	0.32438	0.00462
308.15	0.3245	0.00462

System: iodocyclohexane; phases: Liquid, Gas
Property: Vapor or sublimation pressure, kPa (Liquid); method: Closed cell (Static) method
Temperature, K	Vapor or sublimation pressure, kPa	uncertainty
258.17	0.00526	0.00023
258.17	0.00527	0.00023
258.17	0.00525	0.00023
263.17	0.00829	0.00034
263.17	0.0083	0.00034
263.17	0.00829	0.00034
268.17	0.01285	0.00051
268.17	0.01285	0.00051
268.17	0.01286	0.00051
273.65	0.02039	0.00063
273.65	0.02037	0.00063
278.15	0.02928	0.00077
278.15	0.02927	0.00077
283.15	0.04314	0.001
283.15	0.04308	0.001
288.15	0.06239	0.00133
288.15	0.06238	0.00133
293.15	0.08905	0.0018
293.15	0.08905	0.0018
298.15	0.12539	0.00243
298.15	0.12542	0.00243
303.15	0.17423	0.00281
303.15	0.1743	0.00281
308.16	0.23938	0.00358
308.16	0.23944	0.00358
308.16	0.23944	0.00358
