Measured thermophysical data. Thermodynamic Functions of PrBr3 and Congruently Melting M3PrBr6 Compounds (M = K, Rb, Cs)
Source: J. Chem. Eng. Data, 2011, 10.1021/je101139k
Compound 1: praseodymium(III) bromide, Br3Pr, InChI=1S/3BrH.Pr/h3*1H;/q;;;+3/p-3
Compound 2: tripotassium hexabromopraseodymate(3-), Br6K3Pr, InChI=1S/6BrH.3K.Pr/h6*1H;;;;/q;;;;;;3*+1;+3/p-6
Compound 3: trirubidium hexabromopraseodymate(3-), Br6PrRb3, InChI=1S/6BrH.Pr.3Rb/h6*1H;;;;/q;;;;;;+3;3*+1/p-6
Compound 4: tricesium hexabromopraseodymate(3-), Br6Cs3Pr, InChI=1S/6BrH.3Cs.Pr/h6*1H;;;;/q;;;;;;3*+1;+3/p-6

System: praseodymium(III) bromide; phases: Crystal, Liquid, Air at 1 atmosphere
Property: Molar enthalpy of transition or fusion, kJ/mol (Crystal); method: DSC
Molar enthalpy of transition or fusion, kJ/mol	uncertainty
46.4	1.49

System: praseodymium(III) bromide; phases: Crystal, Liquid, Air at 1 atmosphere
Property: Normal melting temperature, K (Crystal); method: DTA
Normal melting temperature, K	uncertainty
960	1

System: praseodymium(III) bromide; phases: Crystal
Fixed: Pressure, kPa = 101.325
Property: Molar heat capacity at constant pressure, J/K/mol (Crystal); method: Small sample (50 mg) DSC
Temperature, K	Molar heat capacity at constant pressure, J/K/mol	uncertainty
298.15	105.37	7.59
300	105.39	7.59
331	105.87	7.62
331	105.87	7.62
400	106.93	7.7
500	108.46	7.81
600	109.99	7.92
700	111.52	8.03
800	113.05	8.14
900	114.58	8.25
960	115.5	8.32

System: praseodymium(III) bromide; phases: Liquid
Fixed: Pressure, kPa = 101.325
Property: Molar heat capacity at constant pressure, J/K/mol (Liquid); method: Small sample (50 mg) DSC
Temperature, K	Molar heat capacity at constant pressure, J/K/mol	uncertainty
960	141.39	10.18
1000	141.39	10.18
1065	141.39	10.18
1065	141.39	10.18
1100	141.39	10.18
1191	141.39	10.18
1191	141.39	10.18
1200	141.39	10.18
1300	141.39	10.18

System: tripotassium hexabromopraseodymate(3-); phases: Crystal, Liquid, Air at 1 atmosphere
Property: Molar enthalpy of transition or fusion, kJ/mol (Crystal); method: DSC
Molar enthalpy of transition or fusion, kJ/mol	uncertainty
39.6	1.5

System: tripotassium hexabromopraseodymate(3-); phases: Crystal, Liquid, Air at 1 atmosphere
Property: Normal melting temperature, K (Crystal); method: DTA
Normal melting temperature, K	uncertainty
904	1

System: tripotassium hexabromopraseodymate(3-); phases: Crystal
Fixed: Pressure, kPa = 101.325
Property: Molar heat capacity at constant pressure, J/K/mol (Crystal); method: Small sample (50 mg) DSC
Temperature, K	Molar heat capacity at constant pressure, J/K/mol	uncertainty
727	352.26	25.36
800	357.02	25.71
900	363.55	26.18
904	363.81	26.2

System: tripotassium hexabromopraseodymate(3-); phases: Liquid
Fixed: Pressure, kPa = 101.325
Property: Molar heat capacity at constant pressure, J/K/mol (Liquid); method: Small sample (50 mg) DSC
Temperature, K	Molar heat capacity at constant pressure, J/K/mol	uncertainty
904	373.76	26.91
1000	373.76	26.91
1100	373.76	26.91

System: trirubidium hexabromopraseodymate(3-); phases: Crystal 1, Liquid, Air at 1 atmosphere
Property: Molar enthalpy of transition or fusion, kJ/mol (Crystal 1); method: DSC
Molar enthalpy of transition or fusion, kJ/mol	uncertainty
49.72	1.16

System: trirubidium hexabromopraseodymate(3-); phases: Crystal 2, Crystal 1, Air at 1 atmosphere
Property: Molar enthalpy of transition or fusion, kJ/mol (Crystal 2); method: DSC
Molar enthalpy of transition or fusion, kJ/mol	uncertainty
7.5	0.44

System: trirubidium hexabromopraseodymate(3-); phases: Crystal 2, Crystal 1, Air at 1 atmosphere
Property: Triple point temperature, K (Crystal 2); method: DTA
Triple point temperature, K	uncertainty
704	1

System: trirubidium hexabromopraseodymate(3-); phases: Crystal, Liquid, Air at 1 atmosphere
Property: Normal melting temperature, K (Crystal); method: DTA
Normal melting temperature, K	uncertainty
983	1

System: trirubidium hexabromopraseodymate(3-); phases: Crystal 2
Fixed: Pressure, kPa = 101.325
Property: Molar heat capacity at constant pressure, J/K/mol (Crystal 2); method: Small sample (50 mg) DSC
Temperature, K	Molar heat capacity at constant pressure, J/K/mol	uncertainty
394	288.89	20.8
400	290.02	20.88
500	308.88	22.24
600	327.73	23.6
700	346.59	24.96
704	347.34	25.01

System: trirubidium hexabromopraseodymate(3-); phases: Crystal 1
Fixed: Pressure, kPa = 101.325
Property: Molar heat capacity at constant pressure, J/K/mol (Crystal 1); method: Small sample (50 mg) DSC
Temperature, K	Molar heat capacity at constant pressure, J/K/mol	uncertainty
704	354.71	25.54
800	354.71	25.54
900	354.71	25.54
983	354.71	25.54

System: trirubidium hexabromopraseodymate(3-); phases: Liquid
Fixed: Pressure, kPa = 101.325
Property: Molar heat capacity at constant pressure, J/K/mol (Liquid); method: Small sample (50 mg) DSC
Temperature, K	Molar heat capacity at constant pressure, J/K/mol	uncertainty
983	368.02	26.5
1000	368.02	26.5
1100	368.02	26.5

System: tricesium hexabromopraseodymate(3-); phases: Crystal 1, Liquid, Air at 1 atmosphere
Property: Molar enthalpy of transition or fusion, kJ/mol (Crystal 1); method: DSC
Molar enthalpy of transition or fusion, kJ/mol	uncertainty
58.22	1.89

System: tricesium hexabromopraseodymate(3-); phases: Crystal 2, Crystal 1, Air at 1 atmosphere
Property: Molar enthalpy of transition or fusion, kJ/mol (Crystal 2); method: DSC
Molar enthalpy of transition or fusion, kJ/mol	uncertainty
8.37	0.48

System: tricesium hexabromopraseodymate(3-); phases: Crystal 2, Crystal 1, Air at 1 atmosphere
Property: Triple point temperature, K (Crystal 2); method: DTA
Triple point temperature, K	uncertainty
726	1

System: tricesium hexabromopraseodymate(3-); phases: Crystal, Liquid, Air at 1 atmosphere
Property: Normal melting temperature, K (Crystal); method: DTA
Normal melting temperature, K	uncertainty
1051	1

System: tricesium hexabromopraseodymate(3-); phases: Crystal 2
Fixed: Pressure, kPa = 101.325
Property: Molar heat capacity at constant pressure, J/K/mol (Crystal 2); method: Small sample (50 mg) DSC
Temperature, K	Molar heat capacity at constant pressure, J/K/mol	uncertainty
298.15	243.83	17.56
300	243.98	17.57
400	251.79	18.13
500	259.61	18.69
600	267.42	19.26
700	275.23	19.82
726	277.26	19.96

System: tricesium hexabromopraseodymate(3-); phases: Crystal 1
Fixed: Pressure, kPa = 101.325
Property: Molar heat capacity at constant pressure, J/K/mol (Crystal 1); method: Small sample (50 mg) DSC
Temperature, K	Molar heat capacity at constant pressure, J/K/mol	uncertainty
726	288.19	20.75
800	288.19	20.75
900	288.19	20.75
1000	288.19	20.75
1051	288.19	20.75

System: tricesium hexabromopraseodymate(3-); phases: Liquid
Fixed: Pressure, kPa = 101.325
Property: Molar heat capacity at constant pressure, J/K/mol (Liquid); method: Small sample (50 mg) DSC
Temperature, K	Molar heat capacity at constant pressure, J/K/mol	uncertainty
1051	291.99	21.02
1100	291.99	21.02
