Measured thermophysical data. High-Pressure Multiphase Behavior of the Ternary Systems (Ethene + Water + Acetone) and (Ethane + Water + Acetone)
Source: J. Chem. Eng. Data, 2010, 10.1021/je100609r
Compound 1: ethene, C2H4, InChI=1S/C2H4/c1-2/h1-2H2
Compound 2: ethane, C2H6, InChI=1S/C2H6/c1-2/h1-2H3
Compound 3: acetone, C3H6O, InChI=1S/C3H6O/c1-3(2)4/h1-2H3
Compound 4: water, H2O, InChI=1S/H2O/h1H2

System: acetone + ethene + water; phases: Liquid mixture 2, Gas, Liquid mixture 1
Property: Critical pressure, kPa (Liquid mixture 2); method: Direct measurement
Temperature, K	Critical pressure, kPa	uncertainty
293.15	5065	44
303.15	5900	45
313.15	6965	44
323.15	7729	43
333.15	8396	43
343.15	9226	44
353.15	10060	40

System: acetone + ethene + water; phases: Liquid mixture 1, Liquid mixture 2, Gas
Property: Lower consolute pressure, kPa (Liquid mixture 1); method: Closed cell (Static) method
Temperature, K	Lower consolute pressure, kPa	uncertainty
278.15	1967	41
283.15	2183	41
293.15	2635	42
303.15	3135	42
313.15	3642	43
323.15	4205	43
333.15	4640	44
343.15	5490	45
353.15	6134	46

System: acetone + ethene + water; phases: Liquid mixture 1, Liquid mixture 2, Gas
Property: Mass density, kg/m3 (Liquid mixture 1); method: Pycnometric method
Temperature, K	Pressure, kPa	Mass density, kg/m3	uncertainty
293.15	2863	897	4
293.15	3353	924	4
293.15	3610	932	4
293.15	3900	942	4
293.15	4360	949	4
293.15	4610	955	4
293.15	4970	969	4
313.15	3872	876	4
313.15	4015	893	4
313.15	4410	901	4
313.15	4505	904	4
313.15	4670	908	4
313.15	4780	916	4
313.15	4937	920	4
313.15	5280	927	4
313.15	5475	932	4
313.15	5585	935	4
313.15	5760	936	4
313.15	6080	943	4
313.15	6300	945	4
313.15	6500	948	4
313.15	6650	950	4
333.15	5293	882	4
333.15	5595	891	4
333.15	5880	899	4
333.15	6165	911	4
333.15	7080	921	4
333.15	7730	929	4
333.15	8040	932	4

System: acetone + ethene + water; phases: Liquid mixture 2, Liquid mixture 1, Gas
Property: Mass density, kg/m3 (Liquid mixture 2); method: Pycnometric method
Temperature, K	Pressure, kPa	Mass density, kg/m3	uncertainty
293.15	2863	704	20
293.15	3353	642	20
293.15	3610	596	20
293.15	3900	557	20
293.15	4360	533	20
293.15	4610	522	20
293.15	4970	424	21
313.15	3872	775	20
313.15	4015	763	22
313.15	4410	706	20
313.15	4505	697	20
313.15	4670	688	20
313.15	4780	693	20
313.15	4937	677	20
313.15	5280	646	20
313.15	5475	635	20
313.15	5585	604	20
313.15	5760	552	20
313.15	6080	501	20
313.15	6300	463	20
313.15	6500	449	20
313.15	6650	436	20
333.15	5293	751	20
333.15	5595	719	20
333.15	5880	704	20
333.15	6165	693	20
333.15	7080	626	20
333.15	7730	554	20
333.15	8040	505	20

System: acetone + ethene + water; phases: Liquid mixture 2, Liquid mixture 1, Gas
Property: Mole fraction of ethene (Liquid mixture 2); method: Chromatography
Temperature, K	Pressure, kPa	Mole fraction of ethene	uncertainty
293.15	2.863	0.206	0.012
293.15	3.353	0.309	0.02
293.15	3.61	0.347	0.02
293.15	3.9	0.422	0.024
293.15	4.36	0.543	0.032
293.15	4.61	0.638	0.04
293.15	4.97	0.688	0.04
313.15	3.872	0.184	0.012
313.15	4.015	0.214	0.012
313.15	4.41	0.279	0.016
313.15	4.505	0.295	0.016
313.15	4.67	0.325	0.02
313.15	4.78	0.339	0.02
313.15	4.937	0.363	0.02
313.15	5.28	0.424	0.024
313.15	5.475	0.452	0.024
313.15	5.585	0.466	0.024
313.15	5.76	0.501	0.028
313.15	6.08	0.567	0.03
313.15	6.3	0.602	0.032
313.15	6.5	0.656	0.04
313.15	6.65	0.691	0.04
333.15	5.293	0.208	0.012
333.15	5.595	0.239	0.016
333.15	5.88	0.28	0.016
333.15	6.165	0.321	0.02
333.15	7.08	0.431	0.024
333.15	7.73	0.522	0.028
333.15	8.04	0.571	0.036

System: acetone + ethene + water; phases: Liquid mixture 1, Liquid mixture 2, Gas
Property: Mole fraction of ethene (Liquid mixture 1); method: Chromatography
Temperature, K	Pressure, kPa	Mole fraction of ethene	uncertainty
293.15	2.863	0.03	0.004
293.15	3.353	0.02	0.004
293.15	3.61	0.019	0.004
293.15	3.9	0.017	0.004
293.15	4.36	0.015	0.004
293.15	4.61	0.014	0.004
293.15	4.97	0.016	0.004
313.15	3.872	0.034	0.004
313.15	4.015	0.026	0.004
313.15	4.41	0.024	0.004
313.15	4.505	0.02	0.004
313.15	4.67	0.019	0.004
313.15	4.78	0.019	0.004
313.15	4.937	0.019	0.004
313.15	5.28	0.017	0.004
313.15	5.475	0.016	0.004
313.15	5.585	0.015	0.004
313.15	5.76	0.014	0.004
313.15	6.08	0.018	0.004
313.15	6.3	0.022	0.004
313.15	6.5	0.02	0.004
313.15	6.65	0.021	0.004
333.15	5.293	0.028	0.004
333.15	5.595	0.023	0.004
333.15	5.88	0.02	0.004
333.15	6.165	0.02	0.004
333.15	7.08	0.018	0.004
333.15	7.73	0.017	0.004
333.15	8.04	0.022	0.004

System: acetone + ethene + water; phases: Liquid mixture 1, Liquid mixture 2, Gas
Property: Mole fraction of water (Liquid mixture 1); method: Chromatography
Temperature, K	Pressure, kPa	Mole fraction of water	uncertainty
293.15	2.863	0.703	0.022
293.15	3.353	0.775	0.024
293.15	3.61	0.792	0.024
293.15	3.9	0.815	0.024
293.15	4.36	0.842	0.026
293.15	4.61	0.857	0.026
293.15	4.97	0.879	0.026
313.15	3.872	0.707	0.04
313.15	4.015	0.746	0.04
313.15	4.41	0.775	0.04
313.15	4.505	0.79	0.04
313.15	4.67	0.8	0.04
313.15	4.78	0.806	0.04
313.15	4.937	0.813	0.04
313.15	5.28	0.832	0.04
313.15	5.475	0.84	0.04
313.15	5.585	0.845	0.04
313.15	5.76	0.851	0.04
313.15	6.08	0.854	0.04
313.15	6.3	0.86	0.04
313.15	6.5	0.87	0.04
313.15	6.65	0.875	0.04
333.15	5.293	0.761	0.022
333.15	5.595	0.789	0.024
333.15	5.88	0.807	0.024
333.15	6.165	0.818	0.024
333.15	7.08	0.847	0.026
333.15	7.73	0.861	0.026
333.15	8.04	0.864	0.026

System: acetone + ethene + water; phases: Liquid mixture 2, Liquid mixture 1, Gas
Property: Mole fraction of water (Liquid mixture 2); method: Chromatography
Temperature, K	Pressure, kPa	Mole fraction of water	uncertainty
293.15	2.863	0.233	0.012
293.15	3.353	0.142	0.008
293.15	3.61	0.13	0.008
293.15	3.9	0.083	0.012
293.15	4.36	0.057	0.008
293.15	4.61	0.057	0.008
293.15	4.97	0.042	0.005
313.15	3.872	0.295	0.012
313.15	4.015	0.255	0.012
313.15	4.41	0.193	0.012
313.15	4.505	0.175	0.012
313.15	4.67	0.152	0.008
313.15	4.78	0.148	0.008
313.15	4.937	0.134	0.008
313.15	5.28	0.11	0.008
313.15	5.475	0.103	0.008
313.15	5.585	0.102	0.008
313.15	5.76	0.084	0.012
313.15	6.08	0.086	0.012
313.15	6.3	0.094	0.012
313.15	6.5	0.093	0.012
313.15	6.65	0.09	0.012
333.15	5.293	0.291	0.016
333.15	5.595	0.262	0.016
333.15	5.88	0.214	0.012
333.15	6.165	0.184	0.012
333.15	7.08	0.133	0.008
333.15	7.73	0.112	0.008
333.15	8.04	0.099	0.006

System: acetone + ethane + water; phases: Liquid mixture 2, Gas, Liquid mixture 1
Property: Critical pressure, kPa (Liquid mixture 2); method: Direct measurement
Temperature, K	Critical pressure, kPa	uncertainty
310.15	4687	42
313.15	4875	42
323.15	5464	42
333.15	6180	43
343.15	6930	43

System: acetone + ethane + water; phases: Liquid mixture 1, Liquid mixture 2, Gas
Property: Lower consolute pressure, kPa (Liquid mixture 1); method: Closed cell (Static) method
Temperature, K	Lower consolute pressure, kPa	uncertainty
283.15	1875	41
293.15	2316	42
303.15	2784	42
313.15	3320	43
323.15	3868	43
333.15	4440	44

System: acetone + ethane + water; phases: Liquid mixture 1, Liquid mixture 2, Gas
Property: Mass density, kg/m3 (Liquid mixture 1); method: Pycnometric method
Temperature, K	Pressure, kPa	Mass density, kg/m3	uncertainty
293.15	2332	861	4
293.15	2429	880	4
293.15	2500	891	4
293.15	2571	898	4
293.15	2686	903	4
293.15	2750	907	4
313.15	3530	875	6
313.15	3710	889	5
313.15	3867	903	5
313.15	4047	908	4
313.15	4177	919	4
313.15	4306	922	4
313.15	4477	935	4
313.15	4727	953	4
333.15	4512	831	4
333.15	4712	861	4
333.15	4917	876	4
333.15	5079	883	4
333.15	5350	896	4
333.15	5482	898	4
333.15	5706	905	4
333.15	5822	910	4

System: acetone + ethane + water; phases: Liquid mixture 2, Liquid mixture 1, Gas
Property: Mass density, kg/m3 (Liquid mixture 2); method: Pycnometric method
Temperature, K	Pressure, kPa	Mass density, kg/m3	uncertainty
293.15	2332	757	20
293.15	2429	727	20
293.15	2500	702	20
293.15	2571	675	20
293.15	2686	656	20
293.15	2750	634	20
313.15	3530	713	21
313.15	3710	681	20
313.15	3867	660	20
313.15	4047	639	20
313.15	4177	614	20
313.15	4306	557	20
313.15	4477	490	20
313.15	4727	334	21
333.15	4512	736	20
333.15	4712	713	20
333.15	4917	682	20
333.15	5079	670	20
333.15	5350	605	20
333.15	5482	596	20
333.15	5706	574	20
333.15	5822	574	20

System: acetone + ethane + water; phases: Liquid mixture 1, Liquid mixture 2, Gas
Property: Mole fraction of ethane (Liquid mixture 1); method: Chromatography
Temperature, K	Pressure, kPa	Mole fraction of ethane	uncertainty
293.15	2.332	0.028	0.002
293.15	2.429	0.017	0.002
293.15	2.5	0.012	0.002
293.15	2.571	0.009	0.002
293.15	2.686	0.004	0.002
293.15	2.75	0.002	0.002
313.15	3.53	0.018	0.008
313.15	3.71	0.014	0.008
313.15	3.867	0.009	0.008
313.15	4.047	0.012	0.008
313.15	4.177	0.007	0.007
313.15	4.306	0.014	0.012
313.15	4.477	0.007	0.007
313.15	4.727	0.006	0.006
333.15	4.512	0.029	0.002
333.15	4.712	0.015	0.004
333.15	4.917	0.008	0.002
333.15	5.079	0.005	0.002
333.15	5.35	0.003	0.002
333.15	5.482	0.001	0.001
333.15	5.706	0.001	0.001
333.15	5.822	0.001	0.001

System: acetone + ethane + water; phases: Liquid mixture 2, Liquid mixture 1, Gas
Property: Mole fraction of ethane (Liquid mixture 2); method: Chromatography
Temperature, K	Pressure, kPa	Mole fraction of ethane	uncertainty
293.15	2.332	0.167	0.008
293.15	2.429	0.224	0.008
293.15	2.5	0.264	0.01
293.15	2.571	0.347	0.02
293.15	2.686	0.418	0.024
293.15	2.75	0.475	0.028
313.15	3.53	0.26	0.015
313.15	3.71	0.34	0.014
313.15	3.867	0.417	0.017
313.15	4.047	0.519	0.021
313.15	4.177	0.595	0.021
313.15	4.306	0.647	0.025
313.15	4.477	0.684	0.029
313.15	4.727	0.704	0.032
333.15	4.512	0.165	0.004
333.15	4.712	0.235	0.008
333.15	4.917	0.296	0.008
333.15	5.079	0.336	0.01
333.15	5.35	0.414	0.012
333.15	5.482	0.458	0.016
333.15	5.706	0.543	0.017
333.15	5.822	0.599	0.019

System: acetone + ethane + water; phases: Liquid mixture 1, Liquid mixture 2, Gas
Property: Mole fraction of water (Liquid mixture 1); method: Chromatography
Temperature, K	Pressure, kPa	Mole fraction of water	uncertainty
293.15	2.332	0.609	0.018
293.15	2.429	0.659	0.02
293.15	2.5	0.687	0.02
293.15	2.571	0.711	0.022
293.15	2.686	0.742	0.022
293.15	2.75	0.754	0.022
313.15	3.53	0.704	0.029
313.15	3.71	0.735	0.028
313.15	3.867	0.79	0.028
313.15	4.047	0.781	0.028
313.15	4.177	0.804	0.028
313.15	4.306	0.812	0.028
313.15	4.477	0.854	0.028
313.15	4.727	0.89	0.028
333.15	4.512	0.668	0.02
333.15	4.712	0.723	0.022
333.15	4.917	0.76	0.022
333.15	5.079	0.776	0.024
333.15	5.35	0.801	0.024
333.15	5.482	0.812	0.024
333.15	5.706	0.828	0.024
333.15	5.822	0.833	0.024

System: acetone + ethane + water; phases: Liquid mixture 2, Liquid mixture 1, Gas
Property: Mole fraction of water (Liquid mixture 2); method: Chromatography
Temperature, K	Pressure, kPa	Mole fraction of water	uncertainty
293.15	2.332	0.296	0.016
293.15	2.429	0.212	0.014
293.15	2.5	0.172	0.012
293.15	2.571	0.147	0.008
293.15	2.686	0.127	0.006
293.15	2.75	0.119	0.006
313.15	3.53	0.222	0.016
313.15	3.71	0.159	0.01
313.15	3.867	0.125	0.008
313.15	4.047	0.094	0.009
313.15	4.177	0.084	0.011
313.15	4.306	0.078	0.011
313.15	4.477	0.084	0.01
313.15	4.727	0.089	0.01
333.15	4.512	0.347	0.01
333.15	4.712	0.259	0.01
333.15	4.917	0.209	0.01
333.15	5.079	0.186	0.008
333.15	5.35	0.155	0.006
333.15	5.482	0.142	0.008
333.15	5.706	0.119	0.008
333.15	5.822	0.109	0.008
