Measured thermophysical data. Gaseous pvTx Properties of Mixtures of Carbon Dioxide and Propane with the Burnett Isochoric Method
Source: J. Chem. Eng. Data, 2010, 10.1021/je100148h
Compound 1: carbon dioxide, CO2, InChI=1S/CO2/c2-1-3
Compound 2: propane, C3H8, InChI=1S/C3H8/c1-3-2/h3H2,1-2H3
Compound 3: argon, Ar, InChI=1S/Ar

System: carbon dioxide; phases: Fluid (supercritical or subcritical phases)
Property: Mass density, kg/m3 (Fluid (supercritical or subcritical phases)); method: Burnett expansion method
Temperature, K	Pressure, kPa	Mass density, kg/m3	uncertainty
343.128	761.77	12.0399	0.0096
343.128	761.77	12.0258	0.0096
343.13	405.339	6.3329	0.0095
343.13	405.339	6.3325	0.0095
343.131	214.489	3.3311	0.0094
343.131	2584.248	43.5107	0.0111
343.131	4543.028	82.704	0.0137
343.131	214.489	3.3345	0.0094
343.131	2584.248	43.3646	0.0111
343.131	4543.028	82.3364	0.0138
343.132	5888.243	114.0166	0.0302
343.132	5888.243	113.4483	0.0331
343.133	556.206	8.7319	0.0097
343.133	1040.752	16.6004	0.0099
343.133	1416.95	22.8886	0.0102
343.133	1919.84	31.5581	0.0104
343.133	7469.204	157.1781	0.0165
343.133	556.206	8.7265	0.0098
343.133	1040.752	16.5719	0.0099
343.133	1416.95	22.8367	0.0102
343.133	1919.84	31.4693	0.0102
343.133	7469.204	156.3104	0.0162
343.134	295.007	4.5929	0.0094
343.134	3447.34	59.9881	0.012
343.134	295.007	4.5951	0.0094
343.134	3447.34	59.7539	0.0121

System: argon; phases: Gas
Property: Mass density, kg/m3 (Gas); method: Burnett expansion method
Temperature, K	Pressure, kPa	Mass density, kg/m3	uncertainty
318.75	412.688	6.2318	0.0091
318.75	412.688	6.2327	0.0091
318.751	568.387	8.5885	0.0091
318.751	2800.672	42.6996	0.0093
318.751	3845.471	58.8449	0.0093
318.751	568.387	8.5891	0.0091
318.751	2800.672	42.685	0.0093
318.751	3845.471	58.8199	0.0093
318.752	217.451	3.2809	0.0091
318.752	299.589	4.5217	0.0091
318.752	217.451	3.2819	0.0091
318.752	299.589	4.5227	0.0091
318.755	782.648	11.8364	0.0091
318.755	1077.301	16.3128	0.0091
318.755	5275.057	81.0918	0.0094
318.755	7231.463	111.7468	0.0094
318.755	782.648	11.8363	0.0091
318.755	1077.301	16.3112	0.0091
318.755	5275.057	81.0507	0.0094
318.755	7231.463	111.681	0.0094
318.756	157.824	2.3805	0.0091
318.756	157.824	2.3815	0.0091
318.758	1482.258	22.4815	0.0092
318.758	1482.258	22.4774	0.0092
318.759	2038.224	30.9829	0.0092
318.759	2038.224	30.9748	0.0092

System: propane + carbon dioxide; phases: Fluid (supercritical or subcritical phases)
Property: Mass density, kg/m3 (Fluid (supercritical or subcritical phases)); method: Burnett expansion method
Temperature, K	Pressure, kPa	Mole fraction of carbon dioxide	Mass density, kg/m3	uncertainty
319.992	766.06	0.8017	13.1764	0.0115
319.998	1406.42	0.8017	25.056	0.0117
319.999	410.29	0.8017	6.9285	0.0119
319.999	1040.92	0.8017	18.1699	0.0114
320	1137.15	0.5158	20.5385	0.0118
320.001	561.41	0.8017	9.5546	0.0117
320.001	1885.55	0.8017	34.5507	0.0126
320.002	3266.52	0.8017	65.693	0.0147
320.003	2500.61	0.8017	47.6423	0.0141
320.007	334.43	0.5158	5.6704	0.011
320.007	457.2	0.5158	7.8226	0.0111
320.007	844.37	0.5158	14.8878	0.0114
320.008	158.39	0.8017	2.6416	0.0124
320.008	1518.12	0.5158	28.332	0.0126
320.008	1999.59	0.5158	39.0832	0.0144
320.009	622.82	0.5158	10.7917	0.0112
320.009	2584	0.5158	53.9126	0.0149
320.01	244.02	0.5158	4.1102	0.011
320.011	217.81	0.8017	3.6431	0.0124
320.012	177.71	0.5158	2.9791	0.0109
320.013	299.21	0.8017	5.0239	0.0122
329.983	579.89	0.8017	9.5517	0.0129
329.985	791.85	0.8017	13.1719	0.0124
329.987	1457.41	0.8017	25.0477	0.0117
329.991	3418.11	0.8017	65.6701	0.0152
329.997	423.55	0.8017	6.9261	0.0133
329.999	2604.89	0.8017	47.625	0.0131
329.999	4401.15	0.8017	90.5446	0.0164
330.001	1958.15	0.8017	34.5379	0.012
330.003	308.75	0.8017	5.0223	0.0136
330.006	644.04	0.5158	10.7856	0.0112
330.006	1077.12	0.8017	18.1629	0.0119
330.008	472.35	0.5158	7.8181	0.0111
330.008	874.2	0.5158	14.879	0.0113
330.009	224.73	0.8017	3.6418	0.0139
330.009	1179.41	0.5158	20.5259	0.0115
330.01	163.4	0.8017	2.6407	0.014
330.01	251.86	0.5158	4.1078	0.011
330.01	345.31	0.5158	5.667	0.011
330.01	1578.47	0.5158	28.3153	0.012
330.011	183.36	0.5158	2.9774	0.0109
330.011	3442.62	0.5158	74.3214	0.0182
330.014	2086.76	0.5158	39.0593	0.013
330.014	2711.71	0.5158	53.8795	0.0153
339.987	817.54	0.8017	13.1668	0.0138
339.99	598.29	0.8017	9.5479	0.0145
339.99	1508.12	0.8017	25.0378	0.0125
339.995	3567.86	0.8017	65.643	0.0139
339.996	2030.23	0.8017	34.5251	0.0121
340.001	2708.23	0.8017	47.606	0.0125
340.002	436.79	0.8017	6.9234	0.015
340.003	231.59	0.8017	3.6405	0.0157
340.005	4621.28	0.8017	90.5058	0.0187
340.006	1113.1	0.8017	18.156	0.0131
340.007	487.5	0.5158	7.8151	0.0111
340.008	168.38	0.8017	2.6397	0.0158
340.008	1221.28	0.5158	20.5179	0.0115
340.008	4508.97	0.5158	102.4722	0.0231
340.009	259.67	0.5158	4.1062	0.011
340.009	2837.32	0.5158	53.8584	0.0144
340.01	665.18	0.5158	10.7812	0.0112
340.01	5849.82	0.8017	124.7866	0.0224
340.012	903.91	0.5158	14.873	0.0113
340.012	3628.8	0.5158	74.2902	0.0197
340.013	189.01	0.5158	2.9763	0.0109
340.013	318.3	0.8017	5.0202	0.0154
340.015	1638.3	0.5158	28.3036	0.0118
340.015	2172.91	0.5158	39.0436	0.0126
340.016	356.19	0.5158	5.6647	0.011
350.007	2101.9	0.8017	34.5131	0.013
350.008	686.24	0.5158	10.776	0.0112
350.009	502.56	0.5158	7.8112	0.0111
350.009	616.66	0.8017	9.5444	0.0163
350.009	1263	0.5158	20.5077	0.0114
350.009	3811.99	0.5158	74.2525	0.018
350.01	933.45	0.5158	14.8658	0.0113
350.01	4782.86	0.5158	102.4171	0.0244
350.01	5812.83	0.5158	141.2615	0.0278
350.011	173.33	0.8017	2.6389	0.0177
350.011	267.49	0.5158	4.1042	0.011
350.011	1558.64	0.8017	25.0284	0.0138
350.011	2810.84	0.8017	47.5894	0.0127
350.012	843.17	0.8017	13.1618	0.0156
350.012	2961.46	0.5158	53.8306	0.0137
350.012	4838.83	0.8017	90.4734	0.0177
350.013	367.05	0.5158	5.662	0.011
350.013	1697.65	0.5158	28.2897	0.0117
350.013	3716.34	0.8017	65.6181	0.0135
350.014	194.63	0.5158	2.9748	0.0109
350.014	2258.25	0.5158	39.0243	0.0123
350.015	1148.99	0.8017	18.1499	0.0147
350.017	327.8	0.8017	5.0187	0.0172
350.018	6175.26	0.8017	124.7395	0.0207
350.02	238.49	0.8017	3.6392	0.0176
350.02	450.01	0.8017	6.9209	0.0168
360.006	707.21	0.5158	10.7723	0.0112
360.006	1608.88	0.8017	25.0192	0.0154
360.008	275.27	0.5158	4.1028	0.011
360.009	1304.5	0.5158	20.5005	0.0114
360.01	1184.71	0.8017	18.1432	0.0164
360.01	2173.16	0.8017	34.4994	0.0143
360.01	2912.64	0.8017	47.5708	0.0135
360.011	962.87	0.5158	14.8606	0.0113
360.011	3992.6	0.5158	74.2241	0.0165
360.011	5051.96	0.5158	102.3767	0.0322
360.011	6218.19	0.5158	141.2028	0.0248
360.012	517.62	0.5158	7.8085	0.0111
360.013	3084.26	0.5158	53.8108	0.0132
360.014	1756.62	0.5158	28.2797	0.0117
360.014	5054.02	0.8017	90.4354	0.0166
360.015	200.24	0.5158	2.9738	0.011
360.015	377.87	0.5158	5.66	0.011
360.015	2342.9	0.5158	39.0102	0.0121
360.016	178.29	0.8017	2.6378	0.0196
360.016	463.19	0.8017	6.9183	0.0187
360.016	634.97	0.8017	9.5406	0.0181
360.016	868.69	0.8017	13.1566	0.0174
360.016	3863.46	0.8017	65.5911	0.0136
360.019	245.35	0.8017	3.6378	0.0198
360.022	337.31	0.8017	5.0167	0.0191
360.023	6494.96	0.8017	124.6845	0.0195
370.004	1659.14	0.8017	25.0073	0.0171
370.009	5266.97	0.8017	90.3909	0.0166
370.011	476.31	0.8017	6.9151	0.0205
370.011	2244.05	0.8017	34.4826	0.0158
370.011	3013.86	0.8017	47.5475	0.0147
370.013	653.23	0.8017	9.5361	0.02
370.013	1220.32	0.8017	18.1344	0.0182
370.015	894.13	0.8017	13.1504	0.0192
370.016	1345.82	0.5158	20.4921	0.0114
370.016	1815.28	0.5158	28.2684	0.0116
370.016	4171.02	0.5158	74.1924	0.0157
370.017	5317.21	0.5158	102.3311	0.0199
370.018	3205.97	0.5158	53.7882	0.0128
370.02	992.19	0.5158	14.8545	0.0113
370.02	2426.93	0.5158	38.9941	0.012
370.02	4009.41	0.8017	65.5581	0.0142
370.02	6617.03	0.5158	141.1352	0.0224
370.021	205.87	0.5158	2.9726	0.011
370.021	6810.4	0.8017	124.6201	0.0185
370.022	346.79	0.8017	5.0143	0.0208
370.023	283.04	0.5158	4.1011	0.011
370.023	388.65	0.5158	5.6577	0.011
370.027	532.61	0.5158	7.8051	0.0111
370.028	728.17	0.5158	10.7675	0.0112
380.017	4347.62	0.5158	74.1614	0.0149
380.019	7122.68	0.8017	124.564	0.0178
380.02	1873.61	0.5158	28.257	0.0117
380.02	5579.29	0.5158	102.2865	0.0189
380.021	1386.94	0.5158	20.4838	0.0114
380.021	1709.04	0.8017	24.9958	0.0188
380.021	3114.53	0.8017	47.5261	0.016
380.021	4154.26	0.8017	65.5297	0.015
380.022	919.55	0.8017	13.1448	0.021
380.023	1255.86	0.8017	18.1264	0.02
380.024	5478.48	0.8017	90.3475	0.0175
380.025	188.21	0.8017	2.6354	0.0216
380.025	259.02	0.8017	3.6346	0.0229
380.025	399.41	0.5158	5.6555	0.011
380.025	671.46	0.8017	9.5319	0.0218
380.025	3326.52	0.5158	53.7656	0.0126
380.026	489.43	0.8017	6.9121	0.0224
380.026	1021.4	0.5158	14.8485	0.0113
380.026	2314.67	0.8017	34.4669	0.0174
380.026	2510.44	0.5158	38.978	0.012
380.026	7010.29	0.5158	141.0697	0.0206
380.029	356.25	0.8017	5.0122	0.0228
380.032	547.58	0.5158	7.802	0.0111
380.033	749.01	0.5158	10.7633	0.0112
380.039	211.45	0.5158	2.9713	0.011
380.039	290.81	0.5158	4.0993	0.011
390.022	5838.53	0.5158	102.2413	0.0175
390.025	2384.93	0.8017	34.4507	0.019
390.025	3446.26	0.5158	53.7433	0.0126
390.027	502.51	0.8017	6.9089	0.0241
390.027	4522.9	0.5158	74.1282	0.0143
390.027	7399	0.5158	141.0043	0.019
390.028	217.06	0.5158	2.9702	0.011
390.028	944.86	0.8017	13.1385	0.0228
390.029	265.87	0.8017	3.6329	0.0249
390.029	689.66	0.8017	9.5275	0.0235
390.029	1050.49	0.5158	14.8425	0.0113
390.029	1931.69	0.5158	28.245	0.0117
390.029	4298.5	0.8017	65.4967	0.016
390.029	7432.39	0.8017	124.4973	0.0171
390.03	193.15	0.8017	2.6342	0.0251
390.03	3214.68	0.8017	47.5025	0.0174
390.032	5688.28	0.8017	90.3013	0.0168
390.033	365.64	0.8017	5.0098	0.0246
390.033	410.13	0.5158	5.6532	0.011
390.033	1758.82	0.8017	24.9833	0.0205
390.033	2593.45	0.5158	38.9614	0.0121
390.034	769.82	0.5158	10.759	0.0112
390.034	1427.95	0.5158	20.475	0.0115
390.036	562.52	0.5158	7.7989	0.0111
390.037	1291.27	0.8017	18.1174	0.0218
390.038	298.57	0.5158	4.0977	0.011
400.018	970.17	0.8017	13.1371	0.0244
400.026	1468.73	0.5158	20.4633	0.0115
400.026	6095.48	0.5158	102.1758	0.0145
400.028	515.7	0.8017	6.908	0.0258
400.028	7784.16	0.5158	140.9123	0.0178
400.029	375.15	0.8017	5.0093	0.0263
400.029	790.53	0.5158	10.7528	0.0112
400.029	1326.55	0.8017	18.1154	0.0234
400.029	7739.41	0.8017	124.4758	0.0165
400.03	577.33	0.5158	7.7944	0.0111
400.032	1808.37	0.8017	24.9801	0.0221
400.033	707.92	0.8017	9.5262	0.0252
400.034	272.65	0.8017	3.6324	0.0266
400.034	1079.54	0.5158	14.8335	0.0113
400.034	2454.95	0.8017	34.4454	0.0205
400.034	3565.28	0.5158	53.7096	0.0125
400.035	198.07	0.8017	2.6338	0.0267
400.035	222.65	0.5158	2.9684	0.011
400.035	1989.48	0.5158	28.2277	0.0117
400.035	4696.7	0.5158	74.0811	0.0131
400.036	3314.32	0.8017	47.4952	0.0187
400.037	420.82	0.5158	5.6498	0.011
400.037	4441.75	0.8017	65.4859	0.0169
400.04	5896.58	0.8017	90.2853	0.0157
400.042	2676.02	0.5158	38.9372	0.0121
400.044	306.29	0.5158	4.0953	0.011
