Measured thermophysical data. Solubility of Sodium Naphthalene Disulfonate in Aqueous Solutions of Sulfuric Acid
Source: J. Chem. Eng. Data, 2010, 10.1021/je100020v
Compound 1: sodium naphthalene-2,6-disulfonate, C10H6Na2O6S2, InChI=1S/C10H8O6S2.2Na/c11-17(12,13)9-3-1-7-5-10(18(14,15)16)4-2-8(7)6-9;;/h1-6H,(H,11,12,13)(H,14,15,16);;/q;2*+1/p-2, purity 99.7%
Compound 2: sodium naphthalene-2,7-disulfonate, C10H6Na2O6S2, InChI=1S/C10H8O6S2.2Na/c11-17(12,13)9-3-1-7-2-4-10(18(14,15)16)6-8(7)5-9;;/h1-6H,(H,11,12,13)(H,14,15,16);;/q;2*+1/p-2, purity 99.5%
Compound 3: sulfuric acid, H2O4S, InChI=1S/H2O4S/c1-5(2,3)4/h(H2,1,2,3,4), purity 98.1%
Compound 4: water, H2O, InChI=1S/H2O/h1H2

System: sulfuric acid + water + sodium naphthalene-2,6-disulfonate; phases: Liquid, Crystal
Fixed: Pressure, kPa = 101.325
Property: Mole fraction of sodium naphthalene-2,6-disulfonate (Liquid); method: Chromatography
Temperature, K	Solvent: Mass fraction of sulfuric acid	Mole fraction of sodium naphthalene-2,6-disulfonate	uncertainty
283.15	0	0.003228	0.000118
288.15	0	0.003426	0.000118
293.15	0	0.003664	0.000119
298.15	0	0.004016	0.000119
303.15	0	0.00437	0.00012
308.15	0	0.004777	0.00012
313.15	0	0.005232	0.000121
318.15	0	0.005628	0.000122
323.15	0	0.006111	0.000123
328.15	0	0.006572	0.000124
333.15	0	0.007196	0.000126
283.15	0.1	0.002787	0.000105
288.15	0.1	0.002877	0.000105
293.15	0.1	0.003008	0.000105
298.15	0.1	0.003248	0.000106
303.15	0.1	0.003458	0.000106
308.15	0.1	0.003822	0.000106
313.15	0.1	0.004118	0.000107
318.15	0.1	0.004458	0.000108
323.15	0.1	0.004844	0.000108
328.15	0.1	0.005314	0.000109
333.15	0.1	0.005835	0.000111
283.15	0.3	0.001764	4.9e-05
288.15	0.3	0.001811	4.9e-05
293.15	0.3	0.001889	4.9e-05
298.15	0.3	0.002	4.9e-05
303.15	0.3	0.002141	5e-05
308.15	0.3	0.002315	5e-05
313.15	0.3	0.002522	5e-05
318.15	0.3	0.002762	5.1e-05
323.15	0.3	0.003035	5.2e-05
328.15	0.3	0.003343	5.3e-05
333.15	0.3	0.003686	5.4e-05
283.15	0.5	0.000855	9.8e-05
288.15	0.5	0.000887	9.8e-05
293.15	0.5	0.000914	9.8e-05
298.15	0.5	0.000956	9.8e-05
303.15	0.5	0.001008	9.8e-05
308.15	0.5	0.001075	9.8e-05
313.15	0.5	0.001159	9.8e-05
318.15	0.5	0.001266	9.8e-05
323.15	0.5	0.001378	9.8e-05
328.15	0.5	0.001526	9.8e-05
333.15	0.5	0.001686	9.8e-05

System: sulfuric acid + water + sodium naphthalene-2,7-disulfonate; phases: Liquid, Crystal
Fixed: Pressure, kPa = 101.325
Property: Mole fraction of sodium naphthalene-2,7-disulfonate (Liquid); method: Chromatography
Temperature, K	Solvent: Mass fraction of sulfuric acid	Mole fraction of sodium naphthalene-2,7-disulfonate	uncertainty
283.15	0	0.012792	0.004637
288.15	0	0.014029	0.004637
293.15	0	0.015876	0.004637
298.15	0	0.018933	0.004638
303.15	0	0.022355	0.004639
308.15	0	0.026824	0.00464
313.15	0	0.0323	0.004642
318.15	0	0.038308	0.004645
323.15	0	0.047293	0.004651
328.15	0	0.058351	0.00466
333.15	0	0.075023	0.004681
283.15	0.1	0.008875	0.002025
288.15	0.1	0.009354	0.002025
293.15	0.1	0.01048	0.002025
298.15	0.1	0.012357	0.002026
303.15	0.1	0.014741	0.002026
308.15	0.1	0.017702	0.002028
313.15	0.1	0.02154	0.00203
318.15	0.1	0.02612	0.002033
323.15	0.1	0.032037	0.002038
328.15	0.1	0.038624	0.002045
333.15	0.1	0.048468	0.00206
283.15	0.3	0.004329	0.00185
288.15	0.3	0.004879	0.00185
293.15	0.3	0.005781	0.00185
298.15	0.3	0.00664	0.00185
303.15	0.3	0.008127	0.001851
308.15	0.3	0.009996	0.001851
313.15	0.3	0.012847	0.001852
318.15	0.3	0.015713	0.001853
323.15	0.3	0.019274	0.001855
328.15	0.3	0.02386	0.001858
333.15	0.3	0.031239	0.001864
283.15	0.5	0.001481	0.000325
288.15	0.5	0.001601	0.000325
293.15	0.5	0.001903	0.000325
298.15	0.5	0.002281	0.000325
303.15	0.5	0.002923	0.000325
308.15	0.5	0.003617	0.000326
313.15	0.5	0.004528	0.000326
318.15	0.5	0.00576	0.000327
323.15	0.5	0.007309	0.000329
328.15	0.5	0.008943	0.00033
333.15	0.5	0.010893	0.000333

System: water + sodium naphthalene-2,6-disulfonate; phases: Liquid, Crystal
Fixed: Pressure, kPa = 101.325
Property: Mole fraction of sodium naphthalene-2,6-disulfonate (Liquid); method: Chromatography
Temperature, K	Mole fraction of sodium naphthalene-2,6-disulfonate	uncertainty
283.15	0.003228	0.000157
288.15	0.003426	0.000157
293.15	0.003664	0.000157
298.15	0.004016	0.000157
303.15	0.00437	0.000157
308.15	0.004777	0.000157
313.15	0.005232	0.000157
318.15	0.005628	0.000157
323.15	0.006111	0.000157
328.15	0.006572	0.000158
333.15	0.007196	0.000158

System: water + sodium naphthalene-2,7-disulfonate; phases: Liquid, Crystal
Fixed: Pressure, kPa = 101.325
Property: Mole fraction of sodium naphthalene-2,7-disulfonate (Liquid); method: Chromatography
Temperature, K	Mole fraction of sodium naphthalene-2,7-disulfonate	uncertainty
283.15	0.012792	0.006269
288.15	0.014029	0.006269
293.15	0.015876	0.006269
298.15	0.018933	0.006269
303.15	0.022355	0.006269
308.15	0.026824	0.006269
313.15	0.0323	0.006269
318.15	0.038308	0.006269
323.15	0.047293	0.006269
328.15	0.058351	0.00627
333.15	0.075023	0.006271
