Measured thermophysical data. Heat Capacity and Thermodynamic Properties of Sulfonate-Containing Zwitterions
Source: J. Chem. Eng. Data, 2010, 10.1021/je100423n
Compound 1: 3-(1-methyl-1H-imidazolium-3-yl)propane-1-sulfonate, C7H12N2O3S, InChI=1S/C7H12N2O3S/c1-8-4-5-9(7-8)3-2-6-13(10,11)12/h4-5,7H,2-3,6H2,1H3
Compound 2: 4-(1-methyl-1H-imidazolium-3-yl)butane-1-sulfonate, C8H14N2O3S, InChI=1S/C8H14N2O3S/c1-9-5-6-10(8-9)4-2-3-7-14(11,12)13/h5-6,8H,2-4,7H2,1H3

System: 3-(1-methyl-1H-imidazolium-3-yl)propane-1-sulfonate; phases: Crystal, Liquid, Gas
Property: Molar enthalpy of transition or fusion, kJ/mol (Crystal); method: DSC
Molar enthalpy of transition or fusion, kJ/mol	uncertainty
28.38	0.85

System: 3-(1-methyl-1H-imidazolium-3-yl)propane-1-sulfonate; phases: Glass, Liquid, Gas
Property: Triple point temperature, K (Glass); method: Adiabatic calorimetry
Triple point temperature, K	uncertainty
298.15	0.05

System: 3-(1-methyl-1H-imidazolium-3-yl)propane-1-sulfonate; phases: Crystal, Liquid, Air at 1 atmosphere
Property: Normal melting temperature, K (Crystal); method: DTA
Normal melting temperature, K	uncertainty
490.45	0.5

System: 3-(1-methyl-1H-imidazolium-3-yl)propane-1-sulfonate; phases: Crystal
Fixed: Pressure, kPa = 101.325
Property: Molar heat capacity at constant pressure, J/K/mol (Crystal); method: SMALLAD:UFactor:4
Temperature, K	Molar heat capacity at constant pressure, J/K/mol	uncertainty
79.798	86.51	2.13
81.816	88.12	2.16
83.716	89.95	2.2
85.644	89.73	2.19
87.557	93.2	2.26
89.487	95.76	2.32
91.402	97.65	2.36
93.323	99.15	2.39
95.238	102.59	2.44
97.168	103.14	2.45
99.118	102.97	2.45
101.851	103.15	2.45
104.552	104.71	2.48
106.455	105.28	2.48
108.386	105.7	2.49
110.33	111.76	2.59
112.289	111.65	2.59
114.183	111.92	2.59
116.128	115.43	2.65
118.099	116.28	2.66
120.052	114.78	2.64
121.97	115.61	2.65
123.876	119.92	2.72
125.819	122.24	2.76
127.786	123.43	2.77
129.739	125.12	2.8
131.673	124.91	2.8
133.585	127.13	2.83
135.532	131.14	2.9
137.523	130.24	2.88
139.481	129.74	2.88
141.427	131.92	2.91
143.368	134.51	2.95
145.334	134.71	2.96
147.339	135.23	2.96
149.318	136.3	2.98
151.859	137.15	2.99
154.342	136.69	2.99
156.255	139.22	3.03
158.24	141.2	3.06
160.198	143.21	3.09
162.157	143.46	3.1
164.101	142.79	3.08
166.03	143.55	3.1
167.953	145.47	3.13
169.862	147.4	3.16
171.838	148.97	3.18
173.855	149.72	3.2
175.864	149.26	3.19
177.862	149.24	3.19
179.85	152.16	3.23
181.845	150.39	3.21
183.803	154.14	3.27
185.77	156.95	3.31
187.72	158.74	3.34
189.66	159.79	3.36
191.59	160.39	3.37
193.51	162.15	3.39
195.43	163.86	3.42
197.4	164.54	3.43
199.41	165.47	3.45
201.87	167.03	3.47
204.26	168.03	3.49
206.21	169.73	3.52
208.23	170.72	3.53
210.24	171.01	3.54
212.24	172.7	3.56
214.24	173.59	3.58
216.23	174.98	3.6
218.22	175.65	3.61
220.2	176.48	3.62
222.16	177.33	3.64
224.13	178.37	3.65
226.09	179.05	3.66
228.04	180.76	3.69
229.98	181.37	3.7
231.89	182.01	3.71
233.91	183.89	3.74
235.92	184.74	3.76
237.85	185.76	3.77
239.79	186.01	3.78
242.05	187.95	3.81
244.34	187.83	3.81
246.29	188.35	3.81
248.25	190.3	3.84
250.19	193.13	3.89
252.14	194.47	3.91
254.07	195.68	3.93
255.99	196.3	3.94
257.92	197.35	3.96
259.83	198.68	3.98
261.74	199.57	3.99
263.64	200.05	4
265.55	201.61	4.03
267.43	202.34	4.04
269.32	203.12	4.05
271.3	205.52	4.09
273.27	206.92	4.11
275.24	208.19	4.13
277.3	209.38	4.15
279.36	210.92	4.17
281.42	212.37	4.2
283.48	214.25	4.23
285.52	216.3	4.26
287.56	218.37	4.29
289.55	220.99	4.34
293.53	222.83	4.37
295.51	223.55	4.38
297.5	224.52	4.39
299.48	225.32	4.41
301.46	225.86	4.41
303.43	227.02	4.43
305.4	226.03	4.42
307.36	230.37	4.49
309.31	235.18	4.56
311.27	235.45	4.57
313.22	236.03	4.58
315.16	234.76	4.56
317.1	236.03	4.58
319.02	238.01	4.61
320.95	239.81	4.64
322.87	240.52	4.65
324.78	243.51	4.7
326.69	246.23	4.74
328.59	244.95	4.72
330.48	246.48	4.74
332.37	249.83	4.8
334.35	249.15	4.79
336.32	251.01	4.82
338.27	250.4	4.81
340.28	254.4	4.87
342.23	256.8	4.91
344.09	255.82	4.89
345.86	260.16	4.96
347.69	257.32	4.92
349.6	262.66	5
351.56	261.97	4.99
353.54	259.52	4.95
355.49	263.89	5.02
357.41	266.15	5.06
359.38	268.15	5.09
361.39	270.9	5.13
363.37	269.56	5.11
365.32	267.19	5.08
367.26	270.08	5.12
369.16	275.79	5.21
371.1	275.4	5.21
373.06	275.42	5.21
375	277.14	5.23
376.96	279.35	5.27
378.97	280.38	5.29
380.96	281.24	5.3
383.24	283.27	5.33
385.55	285.76	5.37
387.47	284.6	5.35
389.43	285.05	5.36
391.54	286.7	5.39
393.53	288.42	5.41
395.46	290.84	5.45

System: 4-(1-methyl-1H-imidazolium-3-yl)butane-1-sulfonate; phases: Crystal, Liquid, Gas
Property: Molar enthalpy of transition or fusion, kJ/mol (Crystal); method: DSC
Molar enthalpy of transition or fusion, kJ/mol	uncertainty
25.16	0.77

System: 4-(1-methyl-1H-imidazolium-3-yl)butane-1-sulfonate; phases: Glass, Liquid, Gas
Property: Triple point temperature, K (Glass); method: Adiabatic calorimetry
Triple point temperature, K	uncertainty
303.61	0.05

System: 4-(1-methyl-1H-imidazolium-3-yl)butane-1-sulfonate; phases: Crystal, Liquid, Air at 1 atmosphere
Property: Normal melting temperature, K (Crystal); method: DTA
Normal melting temperature, K	uncertainty
508.98	0.5

System: 4-(1-methyl-1H-imidazolium-3-yl)butane-1-sulfonate; phases: Crystal
Fixed: Pressure, kPa = 101.325
Property: Molar heat capacity at constant pressure, J/K/mol (Crystal); method: SMALLAD:UFactor:4
Temperature, K	Molar heat capacity at constant pressure, J/K/mol	uncertainty
80.207	109.32	2.59
82.3	110.19	2.6
84.232	111.45	2.63
86.156	114.23	2.68
88.116	115.88	2.72
90.061	117.56	2.68
92.014	118.29	2.69
93.95	119.31	2.71
95.894	120.93	2.73
97.833	122.2	2.76
99.771	123.74	2.78
102.476	124.48	2.79
105.122	126.89	2.83
107.002	127.99	2.85
108.909	129.52	2.87
110.848	130.01	2.88
112.807	131.16	2.9
114.747	132.61	2.92
116.665	133.57	2.94
118.608	135.14	2.96
120.58	137.07	2.99
122.533	137.67	3
124.464	138.87	3.02
126.381	139.75	3.04
128.324	140.75	3.05
130.297	142.4	3.08
132.25	144.69	3.12
134.203	145.28	3.12
136.13	145.45	3.13
138.037	146.27	3.14
139.976	147.32	3.16
141.944	148.6	3.18
143.895	150.42	3.21
145.836	151.09	3.22
147.759	152.25	3.24
149.673	153.38	3.25
152.188	153.72	3.26
154.712	155.47	3.29
156.629	157	3.31
158.538	158.94	3.34
160.498	159.74	3.36
162.511	160.66	3.37
164.51	162.3	3.4
166.501	163.42	3.41
168.481	163.25	3.41
170.445	164.22	3.43
172.403	166.07	3.46
174.344	169.35	3.51
176.292	169.43	3.51
178.223	169.86	3.52
180.14	172.46	3.56
182.059	172.94	3.57
183.961	173.45	3.58
185.912	174.79	3.6
187.92	176.2	3.62
189.92	177.8	3.64
191.9	179.25	3.67
193.89	180.62	3.69
195.86	181.69	3.71
197.82	183.02	3.73
199.78	184.59	3.75
202.16	186.03	3.78
204.55	188.92	3.82
206.52	189.41	3.83
208.48	190.86	3.85
210.43	192.56	3.88
212.37	193.16	3.89
214.31	194.31	3.91
216.23	195.92	3.93
218.15	196.94	3.95
220.06	198.36	3.97
221.95	199.16	3.99
223.84	200.4	4.01
225.81	201.12	4.02
227.76	203.49	4.06
229.69	205.7	4.09
231.68	206.8	4.11
233.67	207.23	4.12
235.68	210	4.16
237.67	211.8	4.19
239.66	212.72	4.2
242.01	212.87	4.21
244.29	213.82	4.22
246.26	215.02	4.24
248.23	216.05	4.26
250.19	217.52	4.28
252.24	219.72	4.32
254.3	221.07	4.34
256.34	222.28	4.36
258.38	223.16	4.37
260.41	224.41	4.39
262.43	226.87	4.43
264.45	228.3	4.45
266.45	230.63	4.49
268.46	233.04	4.53
270.45	233.66	4.54
272.44	235.64	4.57
274.42	237.81	4.61
276.4	239.51	4.63
278.38	241.25	4.66
280.34	243.42	4.69
282.3	245.29	4.72
284.25	246.94	4.75
286.19	249.67	4.79
288.12	252.87	4.85
290.04	253.95	4.86
291.95	254.73	4.88
293.85	255.69	4.89
295.85	257.59	4.92
297.85	258.49	4.94
299.75	260.96	4.98
301.74	261.24	4.98
303.72	264.66	5.03
305.71	264.36	5.03
307.78	264.22	5.03
309.84	267.13	5.07
311.9	269.55	5.11
313.95	271.31	5.14
315.99	273.57	5.18
318.03	274.9	5.2
320.06	276.18	5.22
322.09	278.14	5.25
324.11	279.41	5.27
326.12	281.91	5.31
328.13	283.31	5.33
330.13	285.02	5.36
332.13	286.68	5.39
334.12	289.14	5.43
336.11	290.13	5.44
338.09	291.64	5.47
340.07	293.16	5.49
342.04	294.72	5.52
344	297.82	5.57
345.96	300.22	5.6
347.92	301.67	5.63
349.87	302.61	5.64
351.81	304.94	5.68
353.75	306.16	5.7
355.69	308.54	5.74
357.62	308.82	5.74
359.54	310.24	5.76
361.47	312.31	5.8
363.48	313.02	5.81
365.48	315.16	5.84
367.47	315.19	5.84
369.54	318.14	5.89
371.62	320.13	5.92
373.68	321.14	5.94
375.73	323.95	5.98
377.79	324.83	6
379.83	325.26	6
381.87	327.6	6.04
383.9	332.07	6.11
385.94	334	6.14
387.96	335.27	6.16
389.98	335.42	6.17
391.98	337.63	6.2
393.99	338.39	6.21
395.97	341.92	6.27
397.96	344.53	6.31
