Measured thermophysical data. Solubility of Nicotinic Acid and Nicotinamide in Carbon Dioxide at T = (313.15 to 373.15) K and p = (5 to 30) MPa: Experimental Data and Correlation
Source: J. Chem. Eng. Data, 2011, 10.1021/je100697a
Compound 1: 3-carboxylpyridine, C6H5NO2, InChI=1S/C6H5NO2/c8-6(9)5-2-1-3-7-4-5/h1-4H,(H,8,9), purity 99.9%
Compound 2: 3-pyridinecarboxamide, C6H6N2O, InChI=1S/C6H6N2O/c7-6(9)5-2-1-3-8-4-5/h1-4H,(H2,7,9), purity 98.5%
Compound 3: carbon dioxide, CO2, InChI=1S/CO2/c2-1-3, purity 99.5%

System: 3-carboxylpyridine; phases: Crystal, Liquid, Air at 1 atmosphere
Property: Normal melting temperature, K (Crystal); method: DTA
Normal melting temperature, K	uncertainty
510.26	0.5

System: 3-pyridinecarboxamide; phases: Crystal, Liquid, Air at 1 atmosphere
Property: Normal melting temperature, K (Crystal); method: DTA
Normal melting temperature, K	uncertainty
404.15	0.5

System: 3-carboxylpyridine + carbon dioxide; phases: Liquid, Crystal, Gas
Property: Triple point temperature, K (Liquid); method: High Pressure Cell
Pressure, kPa	Triple point temperature, K	uncertainty
200	510.1	1
5100	506.6	1
10200	503.8	1
15200	505.4	1
27300	503.7	1
34600	503.8	1

System: 3-carboxylpyridine + carbon dioxide; phases: Fluid (supercritical or subcritical phases), Crystal
Property: Mole fraction of 3-carboxylpyridine (Fluid (supercritical or subcritical phases)); method: Chromatography
Temperature, K	Pressure, kPa	Mole fraction of 3-carboxylpyridine	uncertainty
313.15	5200	3.1e-07	1e-07
313.15	11100	9.9e-07	2e-07
313.15	14200	1.03e-06	2e-07
313.15	19600	1.29e-06	2.6e-07
313.15	25000	1.8e-06	3e-07
313.15	29700	1.95e-06	4.2e-07
333.15	5400	9.1e-07	1e-07
333.15	15400	1.18e-06	2.4e-07
333.15	20200	1.4e-06	3e-07
333.15	25700	2.69e-06	4.8e-07
333.15	29800	2.87e-06	5.6e-07
353.15	4500	6.9e-07	1e-07
353.15	11400	1.1e-06	2e-07
353.15	15500	1.39e-06	3e-07
353.15	20300	2.8e-06	6e-07
353.15	25400	3.67e-06	7e-07
353.15	30200	4.22e-06	8e-07
373.15	5600	6.6e-07	2e-07
373.15	10800	1.68e-06	2.6e-07
373.15	19700	4.07e-06	7.4e-07
373.15	25700	5.89e-06	8.4e-07
373.15	30100	1.041e-05	1.69e-06

System: 3-pyridinecarboxamide + carbon dioxide; phases: Liquid, Crystal, Gas
Property: Triple point temperature, K (Liquid); method: High Pressure Cell
Pressure, kPa	Triple point temperature, K	uncertainty
100	402.3	1
4300	401.5	1
7400	400.7	1
11200	399.3	1
16900	397.8	1
22000	398.1	1
28400	401.1	1
36200	400.8	1

System: 3-pyridinecarboxamide + carbon dioxide; phases: Fluid (supercritical or subcritical phases), Crystal
Property: Mole fraction of 3-pyridinecarboxamide (Fluid (supercritical or subcritical phases)); method: Chromatography
Temperature, K	Pressure, kPa	Mole fraction of 3-pyridinecarboxamide	uncertainty
313.15	5400	0.00026	4e-05
313.15	9800	0.00031	6e-05
313.15	15300	0.00067	0.0001
313.15	20000	0.00075	0.0001
313.15	23700	0.00137	0.0001
313.15	29300	0.00186	0.00016
333.15	5900	0.00018	4e-05
333.15	11400	0.00016	4e-05
333.15	15200	0.00069	6e-05
333.15	20500	0.00109	7e-05
333.15	25300	0.00166	0.00013
333.15	29800	0.00265	0.0003
353.15	5500	4e-05	4e-05
353.15	11800	0.00022	4e-05
353.15	15900	0.00083	6e-05
353.15	19900	0.00225	0.00018
353.15	24400	0.00268	0.00028
353.15	30500	0.00302	0.0004
373.15	5500	1e-05	1e-05
373.15	11600	0.00012	4e-05
373.15	16000	0.00057	6e-05
373.15	20200	0.00167	0.00013
373.15	25200	0.00277	0.00032
373.15	30200	0.00314	0.00054
