Measured thermophysical data. Solubility of Forms I and II of Clopidogrel Hydrogen Sulfate in Methanol and 2-Propanol Mixture
Source: J. Chem. Eng. Data, 2011, 10.1021/je100712s
Compound 1: (S)-(+)-Clopidogrel hydrogen sulfate, C16H18ClNO6S2, InChI=1S/C16H16ClNO2S.H2O4S/c1-20-16(19)15(12-4-2-3-5-13(12)17)18-8-6-14-11(10-18)7-9-21-14;1-5(2,3)4/h2-5,7,9,15H,6,8,10H2,1H3;(H2,1,2,3,4)/t15-;/m0./s1, purity 99%
Compound 2: methanol, CH4O, InChI=1S/CH4O/c1-2/h2H,1H3, purity 99.9%
Compound 3: propan-2-ol, C3H8O, InChI=1S/C3H8O/c1-3(2)4/h3-4H,1-2H3, purity 99.9%

System: methanol + (S)-(+)-Clopidogrel hydrogen sulfate; phases: Liquid, Metastable crystal
Fixed: Pressure, kPa = 101
Property: Mass ratio of solute to solvent (Liquid); method: titration
Temperature, K	Mass ratio of solute to solvent	uncertainty
268.15	0.916027	0.082442
278.15	0.987158	0.088844
288.15	1.02953	0.092658
298.15	1.068932	0.096204
308.15	1.436254	0.129263
318.15	1.666197	0.149958
328.15	2.144376	0.192994

System: methanol + (S)-(+)-Clopidogrel hydrogen sulfate; phases: Liquid, Crystal
Fixed: Pressure, kPa = 101
Property: Mass ratio of solute to solvent (Liquid); method: OTHER::sMethod:titration
Temperature, K	Mass ratio of solute to solvent	uncertainty
268.15	0.701257	0.072931
278.15	0.767326	0.079802
288.15	0.845342	0.087916
298.15	0.91553	0.095215
308.15	1.189229	0.12368
318.15	1.409032	0.146539
328.15	1.977488	0.205659

System: methanol + propan-2-ol + (S)-(+)-Clopidogrel hydrogen sulfate; phases: Liquid, Crystal
Fixed: Pressure, kPa = 101
Property: Mass ratio of solute to solvent of (S)-(+)-Clopidogrel hydrogen sulfate (Liquid); method: titration
Solvent: Mass fraction of methanol	Temperature, K	Mass ratio of solute to solvent of (S)-(+)-Clopidogrel hydrogen sulfate	uncertainty
0.1	268.15	0.005311	0.000552
0.1	278.15	0.005963	0.00062
0.1	288.15	0.007754	0.000806
0.1	298.15	0.008549	0.000889
0.1	308.15	0.017833	0.001855
0.1	318.15	0.030658	0.003188
0.1	328.15	0.046579	0.004844
0.3	268.15	0.027319	0.002841
0.3	278.15	0.032907	0.003422
0.3	288.15	0.050231	0.005224
0.3	298.15	0.06032	0.006273
0.3	308.15	0.073333	0.007627
0.3	318.15	0.108333	0.011267
0.3	328.15	0.162573	0.016908
0.5	268.15	0.118266	0.0123
0.5	278.15	0.14101	0.014665
0.5	288.15	0.17832	0.018545
0.5	298.15	0.227992	0.023711
0.5	308.15	0.317401	0.03301
0.5	318.15	0.391215	0.040686
0.5	328.15	0.552361	0.057446
0.7	268.15	0.300521	0.031254
0.7	278.15	0.331784	0.034506
0.7	288.15	0.412143	0.042863
0.7	298.15	0.46199	0.048047
0.7	308.15	0.588053	0.061158
0.7	318.15	0.691393	0.071905
0.7	328.15	0.813467	0.084601
1	268.15	0.701257	0.072931
1	278.15	0.767326	0.079802
1	288.15	0.845342	0.087916
1	298.15	0.91553	0.095215
1	308.15	1.189229	0.12368
1	318.15	1.409032	0.146539
1	328.15	1.977488	0.205659

System: methanol + propan-2-ol + (S)-(+)-Clopidogrel hydrogen sulfate; phases: Liquid, Metastable crystal
Fixed: Pressure, kPa = 101
Property: Mass ratio of solute to solvent of (S)-(+)-Clopidogrel hydrogen sulfate (Liquid); method: titration
Solvent: Mass fraction of methanol	Temperature, K	Mass ratio of solute to solvent of (S)-(+)-Clopidogrel hydrogen sulfate	uncertainty
0.1	268.15	0.008003	0.002
0.1	278.15	0.00866	0.002
0.1	288.15	0.010851	0.002
0.1	298.15	0.011665	0.002
0.1	308.15	0.023065	0.002076
0.1	318.15	0.041375	0.003724
0.1	328.15	0.058844	0.005296
0.3	268.15	0.036343	0.003271
0.3	278.15	0.05145	0.004631
0.3	288.15	0.06295	0.005666
0.3	298.15	0.077275	0.006955
0.3	308.15	0.102899	0.009261
0.3	318.15	0.14805	0.013325
0.3	328.15	0.224012	0.020161
0.5	268.15	0.139217	0.01253
0.5	278.15	0.166931	0.015024
0.5	288.15	0.221936	0.019974
0.5	298.15	0.265328	0.02388
0.5	308.15	0.394697	0.035523
0.5	318.15	0.498798	0.044892
0.5	328.15	0.621177	0.055906
0.7	268.15	0.368416	0.033157
0.7	278.15	0.415761	0.037418
0.7	288.15	0.483332	0.0435
0.7	298.15	0.553959	0.049856
0.7	308.15	0.656194	0.059057
0.7	318.15	0.75735	0.068162
0.7	328.15	0.852353	0.076712
1	268.15	0.916027	0.082442
1	278.15	0.987158	0.088844
1	288.15	1.02953	0.092658
1	298.15	1.068932	0.096204
1	308.15	1.436254	0.129263
1	318.15	1.666197	0.149958
1	328.15	2.144376	0.192994
