Measured thermophysical data. Phase Separation Conditions for Sugaring-Out in Acetonitrile-Water Systems
Source: J. Chem. Eng. Data, 2010, 10.1021/je1003115
Compound 1: acetonitrile, C2H3N, InChI=1S/C2H3N/c1-2-3/h1H3
Compound 2: D-glucose, C6H12O6, InChI=1S/C6H12O6/c7-1-3(9)5(11)6(12)4(10)2-8/h1,3-6,8-12H,2H2/t3-,4+,5+,6+/m0/s1
Compound 3: water, H2O, InChI=1S/H2O/h1H2

System: D-glucose + acetonitrile + water; phases: Liquid mixture 2, Liquid mixture 1
Fixed: Pressure, kPa = 101
Property: Mass fraction of D-glucose (Liquid mixture 2); method: Chromatography
Property: Mass fraction of D-glucose (Liquid mixture 1); method: Chromatography
Property: Mass fraction of acetonitrile (Liquid mixture 1); method: Chromatography
Temperature, K	Mass fraction of acetonitrile	Mass fraction of D-glucose	uncertainty	Mass fraction of D-glucose	uncertainty	Mass fraction of acetonitrile	uncertainty
279.1	0.3201	0.0809	0.0011	0.0068	0.0009	0.7476	
279.1	0.3051	0.0935	0.0011	0.0064	0.0009	0.7567	
279.1	0.2779	0.1051	0.0019	0.006	0.001	0.7861	
279.1	0.2609	0.12	0.01	0.0057	0.0004	0.8124	
279.1	0.246	0.1333	0.0013	0.0053	0.0004	0.8185	
279.1	0.2294	0.1484	0.0014	0.0051	0.0004	0.8202	
282.1	0.3323	0.073	0.003	0.0091	0.0014	0.7337	
282.1	0.3152	0.0874	0.0037	0.009	0.001	0.75	
282.1	0.2833	0.1001	0.0022	0.0079	0.0011	0.7695	
282.1	0.2692	0.1125	0.0052	0.0072	0.0006	0.8028	
282.1	0.2537	0.1274	0.0036	0.0067	0.0006	0.8037	
282.1	0.2396	0.1414	0.0013	0.0063	0.0004	0.8087	
285.15	0.3572	0.0708	0.0054	0.0145	0.0009	0.7206	
285.15	0.3298	0.0849	0.0036	0.0131	0.0012	0.7443	
285.15	0.3003	0.1003	0.0086	0.0115	0.0011	0.7635	
285.15	0.2866	0.1125	0.0052	0.0102	0.0011	0.7814	
285.15	0.2713	0.1263	0.0052	0.0095	0.0007	0.7878	
285.15	0.2503	0.1413	0.004	0.009	0.001	0.802	
288.15	0.3761	0.0777	0.0055	0.0184	0.0016	0.6808	
288.15	0.3447	0.0934	0.0058	0.0156	0.001	0.6888	
288.15	0.3233	0.1089	0.0067	0.0138	0.0009	0.7085	
288.15	0.307	0.1241	0.0082	0.0123	0.0008	0.7153	
288.15	0.2764	0.1375	0.0046	0.011	0.001	0.7378	
