Measured thermophysical data. Measurements of the Excess Properties and Vapor-Liquid Equilibria at 101.32 kPa for Mixtures of Ethyl Ethanoate + Alkanes (from C5 to C10)
Source: J. Chem. Eng. Data, 2010, 10.1021/je100832h
Compound 1: ethyl acetate, C4H8O2, InChI=1S/C4H8O2/c1-3-6-4(2)5/h3H2,1-2H3, purity 99%
Compound 2: hexane, C6H14, InChI=1S/C6H14/c1-3-5-6-4-2/h3-6H2,1-2H3, purity 99%
Compound 3: heptane, C7H16, InChI=1S/C7H16/c1-3-5-7-6-4-2/h3-7H2,1-2H3, purity 99%
Compound 4: octane, C8H18, InChI=1S/C8H18/c1-3-5-7-8-6-4-2/h3-8H2,1-2H3, purity 99%
Compound 5: nonane, C9H20, InChI=1S/C9H20/c1-3-5-7-9-8-6-4-2/h3-9H2,1-2H3
Compound 6: decane, C10H22, InChI=1S/C10H22/c1-3-5-7-9-10-8-6-4-2/h3-10H2,1-2H3, purity 99%
Compound 7: pentane, C5H12, InChI=1S/C5H12/c1-3-5-4-2/h3-5H2,1-2H3, purity 99%

System: ethyl acetate; phases: Liquid, Gas
Property: Vapor or sublimation pressure, kPa (Liquid); method: Ebulliometric method (Recirculating still)
Temperature, K	Vapor or sublimation pressure, kPa	uncertainty
297.17	11.89	0.05
303.35	16.04	0.06
306.25	18.33	0.06
308.86	20.64	0.07
310.67	22.44	0.07
312.53	24.34	0.08
315.44	27.63	0.08
318.46	31.33	0.09
321.01	34.85	0.1
323.47	38.43	0.11
324.8	40.61	0.11
327.41	44.98	0.12
329.77	49.27	0.13
331.51	52.56	0.14
333.07	55.72	0.15
335.02	59.91	0.15
336.33	62.83	0.16
337.91	66.49	0.17
339.09	69.34	0.18
340.23	72.26	0.18
341.69	76.02	0.19
343.03	79.83	0.2
344.11	82.56	0.2
345.53	86.85	0.22
346.86	90.81	0.22
348.09	94.63	0.23
348.75	96.74	0.24
349.45	98.97	0.25
349.56	99.36	0.25
349.76	100.07	0.25
349.93	100.68	0.24
350.15	101.32	0.24
351.12	104.65	0.25
351.77	106.84	0.26
352.12	108.13	0.27
352.94	111.21	0.27
353.91	114.65	0.27
354.43	116.46	0.28
354.93	118.56	0.29
355.5	120.68	0.29
355.91	122.31	0.29
356.37	124	0.3
357.35	127.89	0.3
357.92	130	0.31
358.74	133.45	0.32
359.44	136.34	0.33
360.03	139.07	0.33
360.88	142.55	0.34
361.73	146.37	0.35
362.62	150.43	0.36
363.72	155.58	0.36
364.25	157.94	0.37
364.81	160.53	0.38
365.52	163.99	0.39
366.29	167.81	0.39
367	171.33	0.4
367.64	174.65	0.41
367.98	176.37	0.41
368.83	180.88	0.42
369.49	184.43	0.43
370.07	187.47	0.44
370.69	190.92	0.44
371.5	195.35	0.45

System: ethyl acetate; phases: Liquid
Fixed: Pressure, kPa = 101.32
Property: Mass density, kg/m3 (Liquid); method: Vibrating tube method
Temperature, K	Mass density, kg/m3	uncertainty
291.15	902.88	0.73
298.15	894.4	0.72
318.15	869.6	0.69
328.15	857.17	0.68

System: hexane; phases: Liquid, Gas
Property: Vapor or sublimation pressure, kPa (Liquid); method: Ebulliometric method (Recirculating still)
Temperature, K	Vapor or sublimation pressure, kPa	uncertainty
292.98	15.88	0.06
296.27	18.39	0.06
298.95	20.69	0.07
302.2	23.81	0.07
304.49	26.19	0.08
306.76	28.77	0.09
308.28	30.68	0.09
310.14	32.97	0.09
311.96	35.53	0.1
313.7	37.95	0.1
315.07	40.1	0.11
316.51	42.3	0.11
317.91	44.59	0.12
319.58	47.35	0.12
320.83	49.63	0.13
322.02	51.87	0.13
323.45	54.51	0.14
324.35	56.42	0.14
325.74	59.15	0.15
327.09	62.05	0.16
327.99	64.02	0.16
329.13	66.61	0.17
330.14	68.93	0.17
330.93	70.86	0.18
331.87	73.11	0.18
332.87	75.62	0.19
333.77	78.04	0.19
334.61	80.11	0.2
335.65	82.94	0.2
336.53	85.4	0.21
337.38	87.73	0.21
338.26	90.28	0.22
339.25	93.18	0.23
340.1	95.79	0.23
340.92	98.28	0.24
341.17	99.08	0.24
341.6	100.39	0.24
341.88	101.32	0.25
342.34	102.83	0.25
343.01	104.95	0.25
343.62	106.98	0.26
344.52	110.01	0.27
344.69	110.65	0.27
345.43	113.16	0.27
346.05	115.31	0.27
346.66	117.46	0.28
347.36	119.99	0.28
348.05	122.52	0.29
348.44	124.01	0.29
349.04	126.23	0.3
349.61	128.44	0.3
349.82	129.32	0.3
350.34	131.23	0.31
350.82	133.07	0.31
351.42	135.49	0.32
351.93	137.54	0.32
352.53	139.99	0.33
352.83	141.31	0.33
353.22	142.8	0.34
353.87	145.75	0.34
354.23	147.04	0.34
354.71	149.34	0.35
355.4	152.14	0.35
355.66	153.31	0.36
356.04	155.14	0.36
356.52	157.29	0.36
357.01	159.38	0.37
357.38	161.05	0.37
357.8	162.94	0.38
358.47	166.02	0.38
358.88	167.98	0.39
359.18	169.31	0.39
359.69	171.84	0.4
359.9	172.89	0.4
360.51	175.78	0.4
360.8	177.31	0.41
361.09	178.67	0.41
361.54	180.95	0.42
361.86	182.61	0.42
362.43	185.32	0.42
362.68	186.64	0.43
362.98	188.2	0.43
363.52	191.05	0.44
363.95	193.35	0.44

System: hexane; phases: Liquid
Fixed: Pressure, kPa = 101.32
Property: Mass density, kg/m3 (Liquid); method: Vibrating tube method
Temperature, K	Mass density, kg/m3	uncertainty
291.15	661.17	0.52
298.15	654.9	0.51
318.15	636.5	0.5
328.15	627	0.5

System: heptane; phases: Liquid, Gas
Property: Vapor or sublimation pressure, kPa (Liquid); method: Ebulliometric method (Recirculating still)
Temperature, K	Vapor or sublimation pressure, kPa	uncertainty
305.26	8.32	0.05
310.22	10.55	0.05
314.93	13.09	0.05
316.5	14.07	0.06
319.71	16.19	0.06
323.62	19.1	0.06
326.44	21.45	0.07
329.04	23.79	0.07
331.48	26.14	0.08
333.21	27.97	0.08
335.5	30.51	0.09
337.48	32.84	0.09
339.56	35.53	0.1
341.35	37.87	0.1
342.96	40.12	0.11
344.47	42.35	0.11
346.04	44.75	0.12
347.28	46.71	0.12
348.72	49.09	0.13
350.12	51.49	0.13
351.21	53.41	0.14
352.49	55.76	0.14
353.62	57.88	0.15
354.79	60.18	0.15
356.25	63.11	0.16
357.84	66.42	0.16
358.68	68.27	0.17
359.98	71.15	0.17
361.33	74.25	0.18
362.3	76.55	0.19
363.32	79	0.19
364.24	81.28	0.2
365.32	84.05	0.2
366.2	86.3	0.21
366.87	88.1	0.21
367.97	91.09	0.22
368.83	93.46	0.22
369.84	96.33	0.23
370.85	98.98	0.23
371.11	100	0.25
371.35	100.68	0.24
371.56	101.32	0.24
372.42	103.92	0.24
373.25	106.48	0.25
373.98	108.71	0.25
374.93	111.77	0.26
375.41	113.35	0.27
376.29	116.21	0.27
377.17	119.14	0.28
377.51	120.32	0.28
378.49	123.7	0.29
379.37	126.8	0.29
380.26	130	0.3
380.83	132.04	0.3
392.89	182.39	0.41
393.79	186.6	0.42
394.43	189.67	0.43
395.1	192.97	0.44
395.73	196.04	0.44
396.09	197.85	0.45
396.5	199.97	0.45

System: heptane; phases: Liquid
Fixed: Pressure, kPa = 101.32
Property: Mass density, kg/m3 (Liquid); method: Vibrating tube method
Temperature, K	Mass density, kg/m3	uncertainty
291.15	685.28	0.32
298.15	679.48	0.32
318.15	662.06	0.33
328.15	653.6	0.33

System: octane; phases: Liquid, Gas
Property: Vapor or sublimation pressure, kPa (Liquid); method: Ebulliometric method (Recirculating still)
Temperature, K	Vapor or sublimation pressure, kPa	uncertainty
350.64	21.09	0.07
353.05	23.14	0.07
355.76	25.56	0.08
356.97	26.7	0.08
358.82	28.55	0.08
361.59	31.58	0.09
363.86	34.16	0.09
365.82	36.53	0.1
367.65	38.88	0.1
369.09	40.82	0.11
370.77	43.19	0.11
372.39	45.57	0.12
374.01	48.04	0.12
375.61	50.59	0.13
377	52.9	0.13
378.25	55.02	0.14
380.03	58.2	0.14
381.34	60.63	0.15
382.42	62.68	0.15
383.64	65.07	0.16
384.76	67.34	0.16
386.29	70.52	0.17
387.45	73.02	0.18
388.55	75.43	0.18
389.65	77.94	0.19
390.56	80.05	0.19
391.6	82.51	0.2
392.6	84.94	0.2
393.47	87.09	0.21
394.37	89.39	0.21
395.14	91.38	0.21
396.04	93.64	0.22
396.95	96.14	0.23
397.9	98.73	0.23
398.19	99.59	0.23
398.59	100.68	0.23
398.83	101.32	0.24
399.61	103.61	0.24
400.53	106.23	0.25
401.23	108.3	0.25
402.03	110.71	0.26
402.81	113.09	0.26
403.32	114.65	0.26
403.81	116.17	0.27
404.1	117.1	0.27
404.79	119.25	0.27
405.51	121.6	0.28
406.27	124.1	0.28
407.03	126.61	0.29
407.89	129.5	0.3
408.75	132.46	0.3
409.62	135.53	0.31
410.15	137.42	0.31
410.83	139.87	0.32
422.1	185.56	0.42
422.64	188.02	0.42
423.26	190.85	0.43
423.76	193.15	0.43
424.15	195.02	0.44
424.76	197.87	0.44
425.2	199.97	0.45

System: octane; phases: Liquid
Fixed: Pressure, kPa = 101.32
Property: Mass density, kg/m3 (Liquid); method: Vibrating tube method
Temperature, K	Mass density, kg/m3	uncertainty
291.15	704.13	0.55
298.15	698.6	0.54
318.15	682.16	0.53
328.15	674.15	0.53

System: nonane; phases: Liquid, Gas
Property: Vapor or sublimation pressure, kPa (Liquid); method: Ebulliometric method (Recirculating still)
Temperature, K	Vapor or sublimation pressure, kPa	uncertainty
365.3	15.58	0.06
369.25	18.07	0.06
372.81	20.58	0.07
376.46	23.49	0.07
379.71	26.35	0.08
382.25	28.78	0.08
384.65	31.22	0.09
387.02	33.8	0.09
389.45	36.62	0.1
391.8	39.52	0.1
393.48	41.74	0.11
395.26	44.15	0.11
396.96	46.56	0.12
398.71	49.15	0.12
400.61	52.12	0.13
402.01	54.42	0.13
403.31	56.55	0.14
404.73	59.01	0.14
406.27	61.77	0.15
407.78	64.58	0.16
408.93	66.76	0.16
410.11	69.09	0.17
411.32	71.53	0.17
412.52	74.01	0.18
413.68	76.48	0.18
414.83	79.03	0.19
415.9	81.41	0.19
417.22	84.44	0.2
418.24	86.85	0.2
419.28	89.41	0.21
420.5	92.43	0.21
421.62	95.25	0.22
422.83	98.4	0.23
423.2	99.35	0.23
423.61	100.44	0.23
423.94	101.32	0.23
424.92	104	0.24
425.83	106.5	0.24
426.71	108.99	0.25
427.6	111.54	0.25
428.4	113.88	0.26
429.26	116.44	0.27
430.22	119.35	0.27
431.09	122.04	0.28
432.04	124.99	0.28
432.94	127.82	0.29
433.74	130.52	0.3
434.68	133.6	0.3
435.58	136.62	0.31
436.31	139.12	0.31
437.11	141.9	0.32
437.95	144.81	0.33
438.67	147.42	0.33
439.45	150.23	0.34
440.11	152.67	0.34
440.76	155.08	0.35
441.41	157.53	0.35
442.05	159.98	0.36
442.77	162.8	0.36
443.49	165.61	0.37
444.23	168.53	0.38
444.93	171.39	0.38
445.49	173.63	0.39
446.19	176.52	0.39
446.75	178.85	0.4
447.44	181.82	0.41
448.07	184.55	0.41
448.61	186.86	0.41
449.27	189.75	0.42
449.81	192	1
450.56	195.54	0.44

System: nonane; phases: Liquid
Fixed: Pressure, kPa = 101.32
Property: Mass density, kg/m3 (Liquid); method: Vibrating tube method
Temperature, K	Mass density, kg/m3	uncertainty
291.15	719.2	0.56
298.15	713.85	0.55
318.15	698.09	0.54
328.15	690.4	0.54

System: decane; phases: Liquid, Gas
Property: Vapor or sublimation pressure, kPa (Liquid); method: Ebulliometric method (Recirculating still)
Temperature, K	Vapor or sublimation pressure, kPa	uncertainty
386.86	15.86	0.06
390.21	17.94	0.06
393.85	20.43	0.06
397.62	23.28	0.07
400.9	26.08	0.08
403.65	28.54	0.08
406.2	31.1	0.09
408.52	33.59	0.09
411.2	36.58	0.1
413.6	39.44	0.1
414.92	41.05	0.11
416.83	43.54	0.11
419.01	46.44	0.12
420.74	48.95	0.12
422.51	51.55	0.13
424.11	54.05	0.13
425.85	56.84	0.14
427.5	59.6	0.14
429.13	62.41	0.15
430.69	65.23	0.16
432.29	68.16	0.16
433.61	70.76	0.17
435.15	73.71	0.17
436.57	76.61	0.18
437.52	78.69	0.18
438.92	81.7	0.19
440.19	84.46	0.2
441.29	86.98	0.2
442.23	89.2	0.21
443.35	91.83	0.21
444.37	94.3	0.21
444.8	95.2	0.22
446.16	98.41	0.22
446.55	99.37	0.23
446.97	100.62	0.23
447.3	101.32	0.23
448.21	103.75	0.24
449.29	106.58	0.24
450.33	109.39	0.25
451.31	112.15	0.25
452.1	114.36	0.26
452.89	116.67	0.26
453.87	119.46	0.27
454.7	121.94	0.28
455.13	123.25	0.28
455.92	125.63	0.28
456.82	128.4	0.29
457.59	130.81	0.29
458.4	133.37	0.3
459.16	135.82	0.3
460.02	138.64	0.31
460.42	140	0.31
461.26	142.82	0.32
462.1	145.65	0.32
463.1	148.84	0.33
463.75	151.4	0.34
464.39	153.69	0.34
465.12	156.4	0.35
465.77	158.65	0.35
466.55	161.57	0.36
467.33	164.47	0.36
468.04	167.22	0.37
468.81	170.16	0.38
469.38	172.45	0.38
470.03	175.03	0.39
470.6	177.34	0.39
471.2	179.77	0.4
471.77	182.08	0.4
472.23	184.14	0.41
472.78	186.39	0.41
473.35	188.8	0.41
474.12	191.58	0.42
474.81	194.61	0.43
475.37	197.04	0.43

System: decane; phases: Liquid
Fixed: Pressure, kPa = 101.32
Property: Mass density, kg/m3 (Liquid); method: Vibrating tube method
Temperature, K	Mass density, kg/m3	uncertainty
291.15	731.22	0.57
298.15	726.2	0.56
318.15	710.9	0.55
328.15	703.34	0.55

System: pentane; phases: Liquid, Gas
Property: Vapor or sublimation pressure, kPa (Liquid); method: EBULLIO:UFactor:4
Temperature, K	Vapor or sublimation pressure, kPa	uncertainty
309.3	101.32	1.77

System: pentane; phases: Liquid
Fixed: Pressure, kPa = 101.32
Property: Mass density, kg/m3 (Liquid); method: Vibrating tube method
Temperature, K	Mass density, kg/m3	uncertainty
291.15	628.22	0.5
298.15	621.35	0.49

System: pentane + ethyl acetate; phases: Liquid, Gas
Fixed: Pressure, kPa = 101.32
Property: Boiling temperature at pressure P, K (Liquid); method: EBULLIO:UFactor:4
Mole fraction of ethyl acetate	Boiling temperature at pressure P, K	uncertainty
0	309.3	0.35
0.036	309.7	0.35
0.068	310.05	0.35
0.107	310.58	0.35
0.15	311.13	0.35
0.246	312.2	0.35
0.267	312.5	0.35
0.314	313.19	0.35
0.381	314.22	0.35
0.43	314.85	0.36
0.492	316.21	0.36
0.515	316.8	0.36
0.559	317.91	0.36
0.617	319.4	0.37
0.686	321.73	0.38
0.736	323.88	0.41
0.782	326.83	0.43
0.828	329.55	0.43
0.867	332.28	0.49
0.904	336.05	0.55
0.936	339.51	0.57
0.96	342.42	0.59
0.978	344.5	0.69
0.988	346.7	1.09
1	350.15	0.35

System: pentane + ethyl acetate; phases: Gas, Liquid
Fixed: Pressure, kPa = 101.32
Property: Mole fraction of ethyl acetate (Gas); method: Density calibration data
Mole fraction of ethyl acetate	Mole fraction of ethyl acetate	uncertainty
0	0	
0.036	0.023	0.012
0.068	0.04	0.011
0.107	0.061	0.011
0.15	0.079	0.011
0.246	0.106	0.011
0.267	0.113	0.01
0.314	0.127	0.01
0.381	0.147	0.01
0.43	0.158	0.01
0.492	0.179	0.011
0.515	0.19	0.011
0.559	0.207	0.011
0.617	0.233	0.011
0.686	0.276	0.012
0.736	0.314	0.014
0.782	0.368	0.016
0.828	0.423	0.017
0.867	0.483	0.022
0.904	0.57	0.027
0.936	0.658	0.032
0.96	0.74	0.036
0.978	0.804	0.048
0.988	0.875	0.09
1	1	

System: pentane + ethyl acetate; phases: Liquid
Fixed: Temperature, K = 291.15
Fixed: Pressure, kPa = 101
Property: Excess molar enthalpy (molar enthalpy of mixing), kJ/mol (Liquid); method: Calvet calorimetry
Mole fraction of ethyl acetate	Excess molar enthalpy (molar enthalpy of mixing), kJ/mol	uncertainty
0.0628	0.325	0.007
0.1353	0.581	0.013
0.2024	0.811	0.018
0.2623	0.97	0.021
0.3345	1.146	0.025
0.4047	1.236	0.026
0.4549	1.278	0.027
0.514	1.283	0.027
0.5664	1.256	0.027
0.6434	1.183	0.025
0.7049	1.07	0.023
0.7712	0.923	0.02
0.8427	0.733	0.016
0.9116	0.495	0.011
0.9483	0.272	0.007

System: pentane + ethyl acetate; phases: Liquid
Fixed: Pressure, kPa = 101.32
Property: Mass density, kg/m3 (Liquid); method: Vibrating tube method
Temperature, K	Mole fraction of ethyl acetate	Mass density, kg/m3	uncertainty
291.15	0	628.22	0.5
291.15	0.0126	630.77	0.99
291.15	0.0577	640.44	1.01
291.15	0.0922	648.09	1.05
291.15	0.1813	668.69	1.07
291.15	0.2507	685.25	1.11
291.15	0.3232	703.25	1.15
291.15	0.3916	721.01	1.19
291.15	0.4566	738.23	1.22
291.15	0.5296	758.09	1.25
291.15	0.5916	775.48	1.29
291.15	0.6517	792.81	1.33
291.15	0.7164	812.13	1.37
291.15	0.7788	831.21	1.41
291.15	0.8582	856.32	1.44
291.15	0.8961	868.57	1.48
291.15	0.9693	892.55	1.5
291.15	1	902.88	0.73
298.15	0	621.35	0.49
298.15	0.026	626.34	0.95
298.15	0.0607	633.6	0.99
298.15	0.0897	639.94	1.03
298.15	0.1609	655.94	1.05
298.15	0.2315	672.51	1.1
298.15	0.3028	690.12	1.13
298.15	0.3576	703.99	1.17
298.15	0.4301	722.92	1.19
298.15	0.4703	733.71	1.23
298.15	0.5276	749.44	1.27
298.15	0.6553	785.76	1.3
298.15	0.7126	802.69	1.35
298.15	0.7725	820.79	1.38
298.15	0.8245	836.93	1.42
298.15	0.8825	855.3	1.46
298.15	0.9342	872.31	1.5
298.15	0.9896	890.79	1.56
298.15	1	894.4	0.72

System: hexane + ethyl acetate; phases: Liquid, Gas
Fixed: Pressure, kPa = 101.32
Property: Boiling temperature at pressure P, K (Liquid); method: EBULLIO:UFactor:3
Mole fraction of ethyl acetate	Boiling temperature at pressure P, K	uncertainty
0	341.88	0.27
0.011	341.54	0.29
0.032	341.03	0.28
0.063	340.32	0.28
0.101	339.71	0.27
0.151	339.05	0.27
0.209	338.55	0.27
0.287	338.21	0.27
0.356	338.13	0.27
0.424	338.25	0.27
0.485	338.48	0.27
0.541	338.78	0.27
0.6	339.17	0.27
0.644	339.58	0.27
0.697	340.33	0.27
0.73	340.85	0.28
0.77	341.68	0.28
0.814	342.65	0.29
0.859	343.95	0.3
0.895	345.21	0.31
0.926	346.48	0.32
0.947	347.4	0.33
0.973	348.65	0.34
1	350.15	0.27

System: hexane + ethyl acetate; phases: Liquid, Gas
Property: Azeotropic temperature, K (Liquid); method: By T(X) extreme
Pressure, kPa	Azeotropic temperature, K	uncertainty
101.32	338.15	0.3

System: hexane + ethyl acetate; phases: Gas, Liquid
Fixed: Pressure, kPa = 101.32
Property: Mole fraction of ethyl acetate (Gas); method: Density calibration data
Mole fraction of ethyl acetate	Mole fraction of ethyl acetate	uncertainty
0	0	
0.011	0.018	0.018
0.032	0.051	0.018
0.063	0.097	0.017
0.101	0.145	0.015
0.151	0.199	0.014
0.209	0.253	0.013
0.287	0.306	0.012
0.356	0.351	0.012
0.424	0.389	0.012
0.485	0.422	0.012
0.541	0.452	0.012
0.6	0.482	0.011
0.644	0.49	0.012
0.697	0.545	0.014
0.73	0.574	0.013
0.77	0.605	0.014
0.814	0.654	0.016
0.859	0.715	0.018
0.895	0.771	0.019
0.926	0.825	0.022
0.947	0.872	0.022
0.973	0.915	0.026
1	1	

System: hexane + ethyl acetate; phases: Liquid, Gas
Property: Azeotropic composition: mole fraction of ethyl acetate (Liquid); method: By X=Y
Pressure, kPa	Azeotropic composition: mole fraction of ethyl acetate	uncertainty
101.32	0.339	0.005

System: hexane + ethyl acetate; phases: Liquid
Fixed: Pressure, kPa = 101
Property: Excess molar enthalpy (molar enthalpy of mixing), kJ/mol (Liquid); method: Calvet calorimetry
Temperature, K	Mole fraction of ethyl acetate	Excess molar enthalpy (molar enthalpy of mixing), kJ/mol	uncertainty
291.15	0.0535	0.282	0.007
291.15	0.1148	0.581	0.013
291.15	0.1974	0.901	0.019
291.15	0.2736	1.149	0.025
291.15	0.3368	1.293	0.028
291.15	0.3855	1.381	0.03
291.15	0.4401	1.44	0.031
291.15	0.4918	1.456	0.031
291.15	0.5333	1.443	0.031
291.15	0.5714	1.425	0.03
291.15	0.6212	1.378	0.029
291.15	0.6753	1.294	0.028
291.15	0.722	1.181	0.025
291.15	0.7805	1.032	0.022
291.15	0.8412	0.834	0.018
291.15	0.8816	0.641	0.014
291.15	0.9343	0.392	0.009
291.15	0.9802	0.146	0.004
298.15	0.0668	0.362	0.008
298.15	0.1168	0.572	0.013
298.15	0.192	0.878	0.019
298.15	0.2621	1.094	0.023
298.15	0.3186	1.21	0.026
298.15	0.3929	1.334	0.029
298.15	0.439	1.375	0.029
298.15	0.495	1.364	0.029
298.15	0.5309	1.357	0.029
298.15	0.5767	1.319	0.028
298.15	0.6196	1.271	0.027
298.15	0.6757	1.195	0.026
298.15	0.7368	1.065	0.023
298.15	0.7954	0.899	0.019
298.15	0.8424	0.71	0.015
298.15	0.8998	0.49	0.011
298.15	0.9521	0.253	0.006
318.15	0.076	0.462	0.01
318.15	0.1524	0.815	0.018
318.15	0.2306	1.084	0.023
318.15	0.3029	1.256	0.027
318.15	0.3659	1.36	0.029
318.15	0.4345	1.419	0.03
318.15	0.488	1.415	0.03
318.15	0.5143	1.403	0.03
318.15	0.5368	1.393	0.03
318.15	0.5617	1.384	0.03
318.15	0.6098	1.339	0.029
318.15	0.6645	1.259	0.027
318.15	0.7202	1.144	0.025
318.15	0.7788	0.984	0.021
318.15	0.8406	0.768	0.017
318.15	0.9004	0.523	0.011
318.15	0.9547	0.267	0.006

System: hexane + ethyl acetate; phases: Liquid
Fixed: Pressure, kPa = 101.32
Property: Mass density, kg/m3 (Liquid); method: Vibrating tube method
Temperature, K	Mole fraction of ethyl acetate	Mass density, kg/m3	uncertainty
291.15	0	661.17	0.52
291.15	0.0165	663.7	0.82
291.15	0.0655	671.62	0.84
291.15	0.1077	678.72	0.88
291.15	0.1823	692.02	0.9
291.15	0.1962	694.54	0.9
291.15	0.2716	709.09	0.97
291.15	0.3518	725.37	1.01
291.15	0.4166	739.37	1.08
291.15	0.5519	770.91	1.13
291.15	0.6225	788.69	1.2
291.15	0.6795	803.74	1.26
291.15	0.7429	821.35	1.31
291.15	0.8048	839.41	1.38
291.15	0.898	868.3	1.45
291.15	0.9604	888.98	1.52
291.15	0.9833	896.93	1.58
291.15	1	902.88	0.73
298.15	0	654.9	0.51
298.15	0.0704	666.2	0.84
298.15	0.127	675.7	0.87
298.15	0.193	687.4	0.9
298.15	0.2383	695.9	0.93
298.15	0.2909	706.1	0.97
298.15	0.3466	717.4	1.01
298.15	0.444	738.3	1.04
298.15	0.4935	749.5	1.09
298.15	0.5355	759.4	1.13
298.15	0.5869	772	1.17
298.15	0.6255	781.8	1.22
298.15	0.7012	801.9	1.25
298.15	0.7532	816.4	1.32
298.15	0.8292	838.8	1.37
298.15	0.8612	848.7	1.43
298.15	0.9233	868.5	1.46
298.15	0.9469	876.3	1.53
298.15	1	894.4	0.72
318.15	0	636.5	0.5
318.15	0.0336	641.5	0.79
318.15	0.0764	648.1	0.82
318.15	0.1448	659.3	0.86
318.15	0.2606	679.9	0.93
318.15	0.276	682.8	0.93
318.15	0.3316	693.5	0.97
318.15	0.3976	707	1
318.15	0.4495	718.1	1.04
318.15	0.5054	730.6	1.08
318.15	0.5551	742.2	1.11
318.15	0.6085	755.1	1.17
318.15	0.7048	779.9	1.21
318.15	0.7523	792.9	1.28
318.15	0.7984	806	1.31
318.15	0.8419	818.8	1.37
318.15	0.8854	832.2	1.41
318.15	0.9305	846.4	1.47
318.15	1	869.6	0.69
328.15	0	627	0.5
328.15	0.0433	633.2	0.78
328.15	0.0847	639.6	0.82
328.15	0.1691	653.4	0.85
328.15	0.2349	664.88	0.88
328.15	0.307	678	0.92
328.15	0.3708	690.6	0.97
328.15	0.4318	703.25	1.01
328.15	0.4918	716.3	1.05
328.15	0.5567	731.2	1.1
328.15	0.6075	743.4	1.14
328.15	0.6523	754.6	1.19
328.15	0.7238	773.4	1.22
328.15	0.7577	782.7	1.28
328.15	0.8221	800.9	1.31
328.15	0.8723	815.8	1.37
328.15	0.9135	828.6	1.44
328.15	0.9832	851.3	1.55
328.15	1	857.17	0.68

System: ethyl acetate + heptane; phases: Liquid, Gas
Fixed: Pressure, kPa = 101.32
Property: Boiling temperature at pressure P, K (Liquid); method: EBULLIO:UFactor:4
Mole fraction of ethyl acetate	Boiling temperature at pressure P, K	uncertainty
0	371.56	0.44
0.007	371.07	0.44
0.016	370.17	0.44
0.023	369.45	0.44
0.029	368.81	0.44
0.044	367.45	0.44
0.061	366.11	0.44
0.072	365.3	0.44
0.084	364.45	0.44
0.116	362.4	0.44
0.144	360.9	0.44
0.173	359.48	0.44
0.223	357.47	0.44
0.272	355.95	0.44
0.319	354.83	0.44
0.357	353.95	0.44
0.406	353.47	0.44
0.451	352.99	0.44
0.521	352.16	0.44
0.575	351.71	0.44
0.632	351.25	0.44
0.668	350.76	0.44
0.733	350.38	0.44
0.783	350.15	0.44
0.822	349.98	0.44
0.861	349.99	0.44
0.904	350.01	0.44
0.936	350.05	0.44
0.962	350.1	0.44
0.977	350.12	0.44
1	350.15	0.44

System: ethyl acetate + heptane; phases: Liquid, Gas
Property: Azeotropic temperature, K (Liquid); method: By T(X) extreme
Pressure, kPa	Azeotropic temperature, K	uncertainty
101.32	349.99	0.3

System: ethyl acetate + heptane; phases: Gas, Liquid
Fixed: Pressure, kPa = 101.32
Property: Mole fraction of ethyl acetate (Gas); method: Density calibration data
Mole fraction of ethyl acetate	Mole fraction of ethyl acetate	uncertainty
0	0	
0.007	0.028	0.028
0.016	0.063	0.039
0.023	0.088	0.035
0.029	0.109	0.033
0.044	0.152	0.03
0.061	0.198	0.028
0.072	0.224	0.027
0.084	0.255	0.025
0.116	0.324	0.022
0.144	0.369	0.018
0.173	0.41	0.017
0.223	0.475	0.016
0.272	0.526	0.014
0.319	0.563	0.013
0.357	0.593	0.012
0.406	0.61	0.012
0.451	0.639	0.012
0.521	0.672	0.011
0.575	0.695	0.011
0.632	0.722	0.012
0.668	0.747	0.011
0.733	0.772	0.012
0.783	0.809	0.012
0.822	0.825	0.012
0.861	0.855	0.012
0.904	0.881	0.013
0.936	0.915	0.015
0.962	0.945	0.016
0.977	0.966	0.018
1	1	

System: ethyl acetate + heptane; phases: Liquid, Gas
Property: Azeotropic composition: mole fraction of ethyl acetate (Liquid); method: By X=Y
Pressure, kPa	Azeotropic composition: mole fraction of ethyl acetate	uncertainty
101.32	0.834	0.005

System: ethyl acetate + heptane; phases: Liquid
Fixed: Temperature, K = 291.15
Fixed: Pressure, kPa = 101
Property: Excess molar enthalpy (molar enthalpy of mixing), kJ/mol (Liquid); method: Calvet calorimetry
Mole fraction of ethyl acetate	Excess molar enthalpy (molar enthalpy of mixing), kJ/mol	uncertainty
0.0704	0.446	0.01
0.1554	0.83	0.018
0.2363	1.139	0.024
0.3039	1.352	0.029
0.3738	1.498	0.032
0.4354	1.568	0.034
0.4887	1.585	0.034
0.5306	1.575	0.034
0.5794	1.537	0.033
0.6196	1.485	0.032
0.6682	1.4	0.03
0.7293	1.253	0.027
0.7913	1.071	0.023
0.8405	0.855	0.018
0.9015	0.573	0.013
0.9556	0.279	0.007

System: ethyl acetate + heptane; phases: Liquid
Fixed: Pressure, kPa = 101.32
Property: Mass density, kg/m3 (Liquid); method: Vibrating tube method
Temperature, K	Mole fraction of ethyl acetate	Mass density, kg/m3	uncertainty
291.15	0	685.28	0.32
291.15	0.0161	687.34	0.32
291.15	0.0572	692.44	0.32
291.15	0.1159	700.33	0.32
291.15	0.2057	713.27	0.32
291.15	0.2894	726.55	0.32
291.15	0.3673	740	0.32
291.15	0.4396	753.43	0.32
291.15	0.5126	768.17	0.33
291.15	0.5792	782.54	0.32
291.15	0.6414	796.91	0.32
291.15	0.7006	811.5	0.32
291.15	0.7555	825.89	0.31
291.15	0.8141	842.35	0.31
291.15	0.8631	856.84	0.31
291.15	0.9105	872	0.3
291.15	0.9718	892.61	0.3
291.15	1	902.88	0.3
298.15	0	679.48	0.32
298.15	0.0409	684.35	0.32
298.15	0.0568	686.42	0.32
298.15	0.1196	694.72	0.32
298.15	0.1493	698.85	0.32
298.15	0.2079	707.39	0.32
298.15	0.2587	715.2	0.32
298.15	0.2981	721.51	0.32
298.15	0.3171	724.7	0.32
298.15	0.3703	733.9	0.32
298.15	0.4203	743.04	0.32
298.15	0.4911	756.8	0.33
298.15	0.5587	770.85	0.32
298.15	0.6169	783.73	0.32
298.15	0.6668	795.46	0.32
298.15	0.727	810.54	0.32
298.15	0.778	824.17	0.31
298.15	0.8302	839.02	0.31
298.15	0.8787	853.8	0.31
298.15	0.9206	867.23	0.3
298.15	0.9879	890.2	0.3
298.15	1	894.4	0.3
318.15	0	662.06	0.33
318.15	0.053	668.2	0.32
318.15	0.0902	672.9	0.32
318.15	0.1685	683.15	0.32
318.15	0.2326	692.18	0.32
318.15	0.2439	693.85	0.32
318.15	0.2981	702.14	0.32
318.15	0.3991	719.02	0.33
318.15	0.4184	722.43	0.33
318.15	0.4793	733.7	0.33
318.15	0.528	743.25	0.33
318.15	0.5785	753.7	0.33
318.15	0.6277	764.5	0.32
318.15	0.6774	775.92	0.32
318.15	0.7248	787.48	0.32
318.15	0.7652	797.95	0.32
318.15	0.7914	804.97	0.31
318.15	0.8486	821.19	0.31
318.15	0.9067	838.76	0.31
318.15	0.9554	854.25	0.31
318.15	1	869.6	0.3
328.15	0	653.6	0.33
328.15	0.0084	654.45	0.33
328.15	0.1044	665.69	0.32
328.15	0.1911	676.99	0.32
328.15	0.2817	690.09	0.32
328.15	0.3479	700.46	0.32
328.15	0.423	713.16	0.33
328.15	0.488	725.11	0.33
328.15	0.5492	737.13	0.33
328.15	0.621	752.34	0.32
328.15	0.6655	762.36	0.32
328.15	0.7209	775.45	0.32
328.15	0.7755	789.39	0.32
328.15	0.8274	803.37	0.31
328.15	0.8717	815.94	0.31
328.15	0.9217	831.14	0.31
328.15	0.9731	847.9	0.31
328.15	1	857.17	0.31

System: octane + ethyl acetate; phases: Liquid, Gas
Fixed: Pressure, kPa = 101.32
Property: Boiling temperature at pressure P, K (Liquid); method: EBULLIO:UFactor:4
Mole fraction of ethyl acetate	Boiling temperature at pressure P, K	uncertainty
0	398.83	0.44
0.015	395.85	0.44
0.033	392.41	0.44
0.059	387.83	0.44
0.077	385.17	0.44
0.101	382.11	0.44
0.118	380	0.44
0.141	377.52	0.44
0.172	374.42	0.44
0.204	371.76	0.44
0.259	367.92	0.44
0.299	365.92	0.44
0.362	363.34	0.44
0.4	362.37	0.44
0.462	360.68	0.44
0.519	359.34	0.44
0.602	357.54	0.44
0.666	356.38	0.44
0.739	354.98	0.44
0.788	353.68	0.44
0.845	352.8	0.44
0.881	352.08	0.44
0.906	351.55	0.44
0.933	351.06	0.44
0.958	350.69	0.44
0.991	350.23	0.44
1	350.15	0.44

System: octane + ethyl acetate; phases: Gas, Liquid
Fixed: Pressure, kPa = 101.32
Property: Mole fraction of ethyl acetate (Gas); method: Density calibration data
Mole fraction of ethyl acetate	Mole fraction of ethyl acetate	uncertainty
0	0	
0.015	0.094	0.061
0.033	0.198	0.051
0.059	0.315	0.042
0.077	0.376	0.032
0.101	0.445	0.03
0.118	0.49	0.025
0.141	0.537	0.022
0.172	0.594	0.02
0.204	0.641	0.016
0.259	0.702	0.014
0.299	0.731	0.012
0.362	0.77	0.012
0.4	0.785	0.011
0.462	0.808	0.01
0.519	0.811	0.01
0.602	0.837	0.011
0.666	0.854	0.011
0.739	0.876	0.011
0.788	0.898	0.011
0.845	0.921	0.011
0.881	0.936	0.011
0.906	0.949	0.011
0.933	0.964	0.011
0.958	0.976	0.011
0.991	0.995	0.005
1	1	

System: octane + ethyl acetate; phases: Liquid
Fixed: Pressure, kPa = 101
Property: Excess molar enthalpy (molar enthalpy of mixing), kJ/mol (Liquid); method: Calvet calorimetry
Temperature, K	Mole fraction of ethyl acetate	Excess molar enthalpy (molar enthalpy of mixing), kJ/mol	uncertainty
291.15	0.0994	0.611	0.013
291.15	0.1715	0.963	0.021
291.15	0.254	1.266	0.027
291.15	0.3369	1.486	0.032
291.15	0.4081	1.604	0.034
291.15	0.474	1.669	0.036
291.15	0.5317	1.673	0.036
291.15	0.5698	1.641	0.035
291.15	0.5955	1.615	0.035
291.15	0.6441	1.553	0.033
291.15	0.6953	1.44	0.031
291.15	0.7435	1.308	0.028
291.15	0.7996	1.139	0.024
291.15	0.853	0.944	0.02
291.15	0.8967	0.737	0.016
291.15	0.9435	0.492	0.011
291.15	0.981	0.243	0.006
298.15	0.0774	0.426	0.009
298.15	0.1517	0.745	0.016
298.15	0.2198	1.017	0.022
298.15	0.2861	1.225	0.026
298.15	0.3374	1.366	0.029
298.15	0.3769	1.474	0.032
298.15	0.4335	1.576	0.034
298.15	0.4856	1.605	0.034
298.15	0.5281	1.604	0.034
298.15	0.5773	1.588	0.034
298.15	0.6255	1.551	0.033
298.15	0.6736	1.468	0.031
298.15	0.7261	1.359	0.029
298.15	0.7729	1.222	0.026
298.15	0.8276	1.028	0.022
298.15	0.8796	0.801	0.017
298.15	0.9202	0.54	0.012
298.15	0.9644	0.271	0.006
318.15	0.0832	0.463	0.01
318.15	0.1591	0.814	0.018
318.15	0.2322	1.119	0.024
318.15	0.3009	1.335	0.029
318.15	0.3637	1.477	0.032
318.15	0.4184	1.564	0.033
318.15	0.4655	1.607	0.034
318.15	0.5112	1.625	0.035
318.15	0.5525	1.613	0.034
318.15	0.5886	1.598	0.034
318.15	0.6324	1.554	0.033
318.15	0.6807	1.485	0.032
318.15	0.7307	1.374	0.029
318.15	0.7788	1.225	0.026
318.15	0.8291	1.036	0.022
318.15	0.8801	0.804	0.017
318.15	0.9259	0.544	0.012
318.15	0.9646	0.279	0.007

System: octane + ethyl acetate; phases: Liquid
Fixed: Pressure, kPa = 101.32
Property: Mass density, kg/m3 (Liquid); method: Vibrating tube method
Temperature, K	Mole fraction of ethyl acetate	Mass density, kg/m3	uncertainty
291.15	0	704.13	0.55
291.15	0.0296	707.15	0.68
291.15	0.0628	710.48	0.7
291.15	0.1163	716.36	0.72
291.15	0.1605	721.46	0.74
291.15	0.2056	727.01	0.77
291.15	0.2901	738.23	0.8
291.15	0.3723	750.35	0.85
291.15	0.4427	761.76	0.9
291.15	0.5131	774.24	0.95
291.15	0.5744	785.94	1.01
291.15	0.6332	798.14	1.06
291.15	0.6886	810.54	1.13
291.15	0.7414	823.25	1.19
291.15	0.7945	836.98	1.26
291.15	0.84	849.83	1.36
291.15	0.895	866.53	1.42
291.15	0.9304	878.05	1.49
291.15	0.9523	885.46	1.6
291.15	1	902.88	0.73
298.15	0	698.6	0.54
298.15	0.0485	703.3	0.68
298.15	0.0998	708.8	0.71
298.15	0.1711	716.9	0.74
298.15	0.2518	727.02	0.77
298.15	0.3198	736.29	0.81
298.15	0.3814	745.42	0.85
298.15	0.4622	758.48	0.88
298.15	0.4977	764.69	0.94
298.15	0.5598	776.23	1
298.15	0.6548	795.8	1.11
298.15	0.6729	799.8	1.08
298.15	0.6865	802.9	1.09
298.15	0.755	819.2	1.17
298.15	0.7913	828.6	1.25
298.15	0.8335	840.2	1.31
298.15	0.8686	850.5	1.38
298.15	0.9039	861.4	1.47
298.15	0.9578	879.3	1.54
298.15	1	894.4	0.72
318.15	0	682.16	0.53
318.15	0.034	685.37	0.66
318.15	0.108	692.6	0.68
318.15	0.1961	702.19	0.72
318.15	0.2859	713.24	0.76
318.15	0.3635	723.8	0.8
318.15	0.4203	732.23	0.84
318.15	0.4875	743.04	0.89
318.15	0.5678	757.24	0.93
318.15	0.6088	765.1	1
318.15	0.6633	776.23	1.04
318.15	0.7123	786.92	1.1
318.15	0.764	799.14	1.16
318.15	0.8086	810.54	1.23
318.15	0.8487	821.51	1.3
318.15	0.8943	834.53	1.36
318.15	0.932	846.34	1.45
318.15	0.9762	860.93	1.53
318.15	1	869.6	0.69
328.15	0	674.15	0.53
328.15	0.0441	678	0.65
328.15	0.1138	684.7	0.67
328.15	0.2084	694.85	0.7
328.15	0.2915	704.8	0.75
328.15	0.3741	715.9	0.79
328.15	0.4415	725.91	0.84
328.15	0.5234	739.31	0.89
328.15	0.5735	748.22	0.94
328.15	0.6354	760.07	0.99
328.15	0.6861	770.65	1.05
328.15	0.7435	783.45	1.11
328.15	0.7958	796.07	1.18
328.15	0.8407	807.86	1.25
328.15	0.8822	819.28	1.33
328.15	0.927	832.83	1.42
328.15	0.9737	848.01	1.49
328.15	1	857.17	0.68

System: nonane + ethyl acetate; phases: Liquid, Gas
Fixed: Pressure, kPa = 101.32
Property: Boiling temperature at pressure P, K (Liquid); method: EBULLIO:UFactor:4
Mole fraction of ethyl acetate	Boiling temperature at pressure P, K	uncertainty
0	423.94	0.44
0.01	420	0.44
0.017	417.06	0.44
0.031	412.1	0.44
0.045	407.91	0.44
0.055	405.01	0.44
0.073	400.4	0.44
0.093	396.55	0.44
0.12	391.49	0.44
0.159	385.31	0.44
0.187	381.8	0.44
0.227	377.45	0.44
0.261	374.65	0.44
0.338	369.47	0.44
0.412	367.15	0.44
0.486	363.75	0.44
0.564	361.5	0.44
0.635	359.01	0.44
0.712	357.15	0.44
0.792	355.5	0.44
0.854	354.15	0.44
0.897	353	0.44
0.94	351.92	0.44
0.964	351.19	0.44
0.981	350.7	0.44
1	350.15	0.44

System: nonane + ethyl acetate; phases: Gas, Liquid
Fixed: Pressure, kPa = 101.32
Property: Mole fraction of ethyl acetate (Gas); method: Density calibration data
Mole fraction of ethyl acetate	Mole fraction of ethyl acetate	uncertainty
0	0	
0.01	0.118	0.097
0.017	0.189	0.099
0.031	0.303	0.072
0.045	0.39	0.06
0.055	0.444	0.048
0.073	0.523	0.038
0.093	0.583	0.029
0.12	0.652	0.024
0.159	0.726	0.02
0.187	0.762	0.015
0.227	0.804	0.013
0.261	0.826	0.012
0.338	0.864	0.011
0.412	0.879	0.01
0.486	0.9	0.01
0.564	0.915	0.01
0.635	0.93	0.01
0.712	0.942	0.01
0.792	0.953	0.01
0.854	0.965	0.01
0.897	0.974	0.01
0.94	0.985	0.01
0.964	0.991	0.009
0.981	0.995	0.005
1	1	

System: nonane + ethyl acetate; phases: Liquid
Fixed: Temperature, K = 291.15
Fixed: Pressure, kPa = 101
Property: Excess molar enthalpy (molar enthalpy of mixing), kJ/mol (Liquid); method: Calvet calorimetry
Mole fraction of ethyl acetate	Excess molar enthalpy (molar enthalpy of mixing), kJ/mol	uncertainty
0.0872	0.551	0.012
0.1735	0.942	0.02
0.2499	1.25	0.027
0.3159	1.468	0.031
0.3746	1.604	0.034
0.433	1.689	0.036
0.4869	1.732	0.037
0.534	1.742	0.037
0.5836	1.724	0.037
0.6005	1.697	0.036
0.6419	1.645	0.035
0.6885	1.564	0.033
0.7366	1.447	0.031
0.7846	1.298	0.028
0.8345	1.099	0.024
0.8779	0.856	0.019
0.9237	0.588	0.013
0.9619	0.307	0.007

System: nonane + ethyl acetate; phases: Liquid
Fixed: Pressure, kPa = 101.32
Property: Mass density, kg/m3 (Liquid); method: Vibrating tube method
Temperature, K	Mole fraction of ethyl acetate	Mass density, kg/m3	uncertainty
291.15	0	719.2	0.56
291.15	0.0328	721.88	0.66
291.15	0.0796	726	0.67
291.15	0.1292	730.54	0.69
291.15	0.2225	740.13	0.72
291.15	0.3076	750	0.77
291.15	0.3932	761.25	0.81
291.15	0.4659	771.77	0.87
291.15	0.5694	788.99	0.92
291.15	0.6015	794.91	0.99
291.15	0.6514	804.7	1.03
291.15	0.7041	815.84	1.09
291.15	0.7547	827.59	1.17
291.15	0.8076	840.96	1.24
291.15	0.8502	852.64	1.33
291.15	0.8954	866.2	1.42
291.15	0.9307	877.58	1.56
291.15	0.9918	899.59	1.76
291.15	1	902.88	0.73
298.15	0	713.85	0.55
298.15	0.0652	719.2	0.65
298.15	0.1102	723.17	0.68
298.15	0.1906	730.94	0.7
298.15	0.2667	739.14	0.73
298.15	0.3377	747.65	0.77
298.15	0.4128	757.7	0.81
298.15	0.4737	766.6	0.85
298.15	0.5212	774.12	0.9
298.15	0.5875	785.5	0.93
298.15	0.6305	793.54	0.99
298.15	0.6743	802.32	1.05
298.15	0.7212	812.53	1.11
298.15	0.767	823.2	1.17
298.15	0.8024	832.16	1.23
298.15	0.8428	843.01	1.27
298.15	0.8654	849.38	1.4
298.15	0.9419	873.16	1.53
298.15	0.9564	878.07	1.61
298.15	1	894.4	0.72
318.15	0	698.09	0.54
318.15	0.0372	700.83	0.63
318.15	0.1287	708.3	0.65
318.15	0.2206	717	0.69
318.15	0.3125	726.84	0.72
318.15	0.3941	736.68	0.77
318.15	0.4659	746.38	0.81
318.15	0.5311	756.19	0.87
318.15	0.5965	767.1	0.93
318.15	0.6714	781.02	0.98
318.15	0.7111	789.15	1.05
318.15	0.7598	799.77	1.11
318.15	0.8122	812.28	1.19
318.15	0.8596	824.75	1.27
318.15	0.8955	835.04	1.37
318.15	0.936	847.56	1.45
318.15	0.9808	862.66	1.53
318.15	1	869.6	0.69
328.15	0	690.4	0.54
328.15	0.0202	691.7	0.6
328.15	0.1246	699.9	0.64
328.15	0.2225	708.81	0.67
328.15	0.3109	717.88	0.71
328.15	0.3923	727.35	0.75
328.15	0.4644	736.84	0.8
328.15	0.5377	747.63	0.85
328.15	0.6125	759.98	0.94
328.15	0.7233	781.1	0.99
328.15	0.7593	788.8	1.09
328.15	0.8102	800.56	1.15
328.15	0.8505	810.9	1.23
328.15	0.8934	822.54	1.34
328.15	0.9507	840.17	1.44
328.15	0.9876	852.64	1.53
328.15	1	857.17	0.68

System: decane + ethyl acetate; phases: Liquid, Gas
Fixed: Pressure, kPa = 101.32
Property: Boiling temperature at pressure P, K (Liquid); method: EBULLIO:UFactor:8
Mole fraction of ethyl acetate	Boiling temperature at pressure P, K	uncertainty
0	447.3	0.88
0.026	433.02	0.88
0.047	422.86	0.88
0.073	412.23	0.88
0.118	397.98	0.88
0.186	383.62	0.88
0.258	373.72	0.88
0.296	370.71	0.88
0.393	365.23	0.88
0.529	360.76	0.88
0.605	359	0.88
0.682	357.59	0.88
0.764	356.21	0.88
0.819	354.55	0.88
0.859	353.76	0.88
0.888	352.95	0.88
0.925	351.75	0.88
0.951	351.4	0.88
0.98	350.46	0.88
0.99	350.37	0.88
1	350.15	0.88

System: decane + ethyl acetate; phases: Gas, Liquid
Fixed: Pressure, kPa = 101.32
Property: Mole fraction of ethyl acetate (Gas); method: Density calibration data
Mole fraction of ethyl acetate	Mole fraction of ethyl acetate	uncertainty
0	0	
0.026	0.32	0.108
0.047	0.501	0.069
0.073	0.643	0.04
0.118	0.782	0.023
0.186	0.876	0.014
0.258	0.921	0.011
0.296	0.933	0.01
0.393	0.951	0.01
0.529	0.964	0.01
0.605	0.969	0.01
0.682	0.973	0.01
0.764	0.978	0.01
0.819	0.983	0.01
0.859	0.986	0.01
0.888	0.989	0.01
0.925	0.993	0.007
0.951	0.995	0.005
0.98	0.998	0.002
0.99	0.999	0.001
1	1	

System: decane + ethyl acetate; phases: Liquid
Fixed: Pressure, kPa = 101
Property: Excess molar enthalpy (molar enthalpy of mixing), kJ/mol (Liquid); method: Calvet calorimetry
Temperature, K	Mole fraction of ethyl acetate	Excess molar enthalpy (molar enthalpy of mixing), kJ/mol	uncertainty
291.15	0.0986	0.609	0.013
291.15	0.1909	1.029	0.022
291.15	0.2646	1.33	0.028
291.15	0.3377	1.556	0.033
291.15	0.4032	1.691	0.036
291.15	0.4608	1.764	0.038
291.15	0.5067	1.796	0.038
291.15	0.5523	1.813	0.039
291.15	0.5924	1.789	0.038
291.15	0.6147	1.76	0.038
291.15	0.6541	1.71	0.037
291.15	0.7009	1.628	0.035
291.15	0.7512	1.494	0.032
291.15	0.7956	1.327	0.028
291.15	0.8448	1.121	0.024
291.15	0.8927	0.871	0.019
291.15	0.9375	0.587	0.013
291.15	0.9684	0.299	0.008
298.15	0.0884	0.497	0.011
298.15	0.177	0.903	0.019
298.15	0.2587	1.211	0.026
298.15	0.3362	1.445	0.031
298.15	0.4005	1.579	0.034
298.15	0.4566	1.664	0.036
298.15	0.5101	1.709	0.037
298.15	0.5578	1.707	0.036
298.15	0.5984	1.684	0.036
298.15	0.6297	1.651	0.035
298.15	0.6727	1.595	0.034
298.15	0.7191	1.493	0.032
298.15	0.7636	1.377	0.029
298.15	0.8098	1.21	0.026
298.15	0.8591	1.006	0.022
298.15	0.9024	0.776	0.017
298.15	0.9385	0.519	0.012
298.15	0.9744	0.249	0.006
318.15	0.0892	0.568	0.012
318.15	0.172	0.947	0.02
318.15	0.2474	1.257	0.027
318.15	0.3208	1.48	0.032
318.15	0.3848	1.623	0.035
318.15	0.4412	1.711	0.037
318.15	0.4941	1.756	0.037
318.15	0.5409	1.76	0.038
318.15	0.5801	1.743	0.037
318.15	0.5985	1.724	0.037
318.15	0.6567	1.636	0.035
318.15	0.6942	1.566	0.033
318.15	0.7429	1.44	0.031
318.15	0.7959	1.268	0.027
318.15	0.8499	1.041	0.022
318.15	0.9018	0.747	0.016
318.15	0.9554	0.407	0.009

System: decane + ethyl acetate; phases: Liquid
Fixed: Pressure, kPa = 101.32
Property: Mass density, kg/m3 (Liquid); method: Vibrating tube method
Temperature, K	Mole fraction of ethyl acetate	Mass density, kg/m3	uncertainty
291.15	0	731.22	0.57
291.15	0.0174	732.37	0.64
291.15	0.0789	736.87	0.65
291.15	0.1457	742.14	0.67
291.15	0.2494	751.47	0.7
291.15	0.3508	762.27	0.75
291.15	0.4382	773.02	0.8
291.15	0.5149	783.83	0.85
291.15	0.5781	793.79	0.91
291.15	0.6446	805.51	0.98
291.15	0.7051	817.52	1.06
291.15	0.7648	830.7	1.13
291.15	0.8069	841.06	1.23
291.15	0.8553	854.05	1.31
291.15	0.8914	864.68	1.42
291.15	0.9318	877.69	1.54
291.15	0.9794	894.7	1.64
291.15	1	902.88	0.73
298.15	0	726.2	0.56
298.15	0.0319	728.3	0.64
298.15	0.1165	734.6	0.65
298.15	0.2048	741.9	0.67
298.15	0.2835	749.3	0.71
298.15	0.3475	756.1	0.74
298.15	0.4252	765.35	0.78
298.15	0.4873	773.59	0.82
298.15	0.5417	781.58	0.87
298.15	0.6031	791.53	0.92
298.15	0.6469	799.34	0.98
298.15	0.6957	808.8	1.02
298.15	0.7407	818.3	1.08
298.15	0.78	827.2	1.15
298.15	0.8179	836.5	1.22
298.15	0.8516	845.4	1.29
298.15	0.8865	855.4	1.37
298.15	0.9207	866.1	1.47
298.15	0.9604	879.5	1.58
298.15	1	894.4	0.72
318.15	0	710.9	0.55
318.15	0.0117	711.52	0.59
318.15	0.0758	715.68	0.62
318.15	0.1539	721.34	0.64
318.15	0.2456	728.94	0.66
318.15	0.2848	732.56	0.69
318.15	0.3468	738.71	0.7
318.15	0.3714	741.31	0.73
318.15	0.4391	749.04	0.76
318.15	0.516	758.96	0.78
318.15	0.5314	761.13	0.84
318.15	0.5878	769.54	0.87
318.15	0.6448	778.92	0.92
318.15	0.694	787.77	0.96
318.15	0.7127	791.38	1.04
318.15	0.7829	806.2	1.08
318.15	0.8204	815	1.16
318.15	0.8538	823.5	1.24
318.15	0.8886	833	1.31
318.15	0.9198	842.3	1.42
318.15	0.9553	853.8	1.53
318.15	1	869.6	0.69
328.15	0	703.34	0.55
328.15	0.0347	705.37	0.61
328.15	0.1351	711.99	0.62
328.15	0.234	719.58	0.65
328.15	0.3322	728.47	0.69
328.15	0.4166	737.37	0.73
328.15	0.4853	745.64	0.77
328.15	0.5551	755.09	0.82
328.15	0.6186	764.72	0.87
328.15	0.6774	774.65	0.93
328.15	0.7271	783.92	0.99
328.15	0.7735	793.4	1.09
328.15	0.8619	814.12	1.17
328.15	0.9041	825.66	1.34
328.15	0.9511	840.13	1.47
328.15	1	857.17	0.68
