Measured thermophysical data. Separation of CO2 and H2S Using Room-Temperature Ionic Liquid [bmim][MeSO4]
Source: J. Chem. Eng. Data, 2010, 10.1021/je1004005
Compound 1: hydrogen sulfide, H2S, InChI=1S/H2S/h1H2, purity 99.5%
Compound 2: carbon dioxide, CO2, InChI=1S/CO2/c2-1-3, purity 99.99%
Compound 3: 1-butyl-3-methylimidazolium methyl sulfate, C9H18N2O4S, InChI=1S/C8H15N2.CH4O4S/c1-3-4-5-10-7-6-9(2)8-10;1-5-6(2,3)4/h6-8H,3-5H2,1-2H3;1H3,(H,2,3,4)/q+1;/p-1

System: hydrogen sulfide + 1-butyl-3-methylimidazolium methyl sulfate; phases: Liquid mixture 1, Liquid mixture 2, Gas
Property: Molar volume, m3/mol (Liquid mixture 1); method: gravimetric microbalance
Temperature, K	Molar volume, m3/mol	uncertainty
306.6	4.56e-05	4e-07
307	4.49e-05	4e-07
307.8	4.6e-05	3e-07
313	4.58e-05	3e-07
318	4.56e-05	8e-07

System: hydrogen sulfide + 1-butyl-3-methylimidazolium methyl sulfate; phases: Liquid mixture 2, Liquid mixture 1, Gas
Property: Molar volume, m3/mol (Liquid mixture 2); method: gravimetric microbalance
Temperature, K	Molar volume, m3/mol	uncertainty
306.6	4.66e-05	3e-07
307	4.68e-05	3e-07
307.8	4.7e-05	3e-07
313	4.8e-05	3e-07
318	4.91e-05	4e-07

System: hydrogen sulfide + 1-butyl-3-methylimidazolium methyl sulfate; phases: Liquid mixture 1, Liquid mixture 2, Gas
Property: Mole fraction of hydrogen sulfide (Liquid mixture 1); method: Volumetric Method
Temperature, K	Mole fraction of hydrogen sulfide	uncertainty
306.6	0.977	0.002
307	0.976	0.002
307.8	0.974	0.002
313	0.968	0.002
318	0.964	0.002

System: hydrogen sulfide + 1-butyl-3-methylimidazolium methyl sulfate; phases: Liquid mixture 2, Liquid mixture 1, Gas
Property: Mole fraction of hydrogen sulfide (Liquid mixture 2); method: Volumetric Method
Temperature, K	Mole fraction of hydrogen sulfide	uncertainty
306.6	0.988	0.002
307	0.989	0.002
307.8	0.989	0.002
313	0.991	0.002
318	0.992	0.002

System: hydrogen sulfide + 1-butyl-3-methylimidazolium methyl sulfate; phases: Liquid, Gas
Fixed: Temperature, K = 298.1
Property: Mole fraction of hydrogen sulfide (Liquid); method: Volumetric Method
Pressure, kPa	Mole fraction of hydrogen sulfide	uncertainty
10.8	0.022	0.015
25.7	0.044	0.014
50.7	0.077	0.013
75.3	0.108	0.012
100.2	0.138	0.012
251	0.27	0.008
500.8	0.424	0.008
750.9	0.521	0.008

System: carbon dioxide + hydrogen sulfide + 1-butyl-3-methylimidazolium methyl sulfate; phases: Gas, Liquid
Property: Mole fraction of carbon dioxide (Gas); method: Volumetric Method
Temperature, K	Pressure, kPa	Mole fraction of hydrogen sulfide	Mole fraction of carbon dioxide	uncertainty
295.8	424.4	0.008	0.991	0.009
295.8	721.9	0.032	0.974	0.021
296	301.3	0.289	0.191	0.036
296.1	363.3	0.108	0.811	0.024
296.2	384	0.169	0.692	0.032
296.3	439.2	0.382	0.123	0.036
296.4	225.4	0.219	0.262	0.043
296.4	390.9	0.148	0.746	0.038
296.4	453	0.012	0.985	0.015
296.7	446.1	0.215	0.632	0.033
314.2	411.6	0.095	0.775	0.027
314.4	294.4	0.197	0.207	0.039
314.4	370.2	0.245	0.158	0.041
314.5	432.3	0.122	0.716	0.03
314.5	487.4	0.306	0.119	0.031
315.1	418.5	0.132	0.666	0.03
315.3	446.1	0.006	0.987	0.013
315.3	459.9	0.157	0.621	0.031
315.3	487.4	0.01	0.98	0.02
315.3	763.2	0.022	0.969	0.02

System: carbon dioxide + hydrogen sulfide + 1-butyl-3-methylimidazolium methyl sulfate; phases: Gas, Liquid
Property: Mole fraction of hydrogen sulfide (Gas); method: Volumetric Method
Temperature, K	Pressure, kPa	Mole fraction of hydrogen sulfide	Mole fraction of hydrogen sulfide	uncertainty
295.8	424.4	0.008	0.009	0.009
295.8	721.9	0.032	0.026	0.021
296	301.3	0.289	0.809	0.036
296.1	363.3	0.108	0.189	0.023
296.2	384	0.169	0.308	0.031
296.3	439.2	0.382	0.877	0.036
296.4	225.4	0.219	0.738	0.044
296.4	390.9	0.148	0.254	0.038
296.4	453	0.012	0.015	0.015
296.7	446.1	0.215	0.368	0.032
314.2	411.6	0.095	0.225	0.026
314.4	294.4	0.197	0.793	0.039
314.4	370.2	0.245	0.842	0.041
314.5	432.3	0.122	0.284	0.03
314.5	487.4	0.306	0.881	0.031
315.1	418.5	0.132	0.334	0.03
315.3	446.1	0.006	0.013	0.013
315.3	459.9	0.157	0.379	0.031
315.3	487.4	0.01	0.02	0.02
315.3	763.2	0.022	0.031	0.02

System: carbon dioxide + hydrogen sulfide + 1-butyl-3-methylimidazolium methyl sulfate; phases: Liquid, Gas
Property: Mole fraction of 1-butyl-3-methylimidazolium methyl sulfate (Liquid); method: Volumetric Method
Temperature, K	Pressure, kPa	Mole fraction of hydrogen sulfide	Mole fraction of 1-butyl-3-methylimidazolium methyl sulfate	uncertainty
295.8	424.4	0.008	0.938	0.006
295.8	721.9	0.032	0.886	0.006
296	301.3	0.289	0.702	0.012
296.1	363.3	0.108	0.857	0.009
296.2	384	0.169	0.801	0.011
296.3	439.2	0.382	0.606	0.012
296.4	225.4	0.219	0.772	0.016
296.4	390.9	0.148	0.82	0.016
296.4	453	0.012	0.932	0.006
296.7	446.1	0.215	0.755	0.01
314.2	411.6	0.095	0.877	0.007
314.4	294.4	0.197	0.796	0.012
314.4	370.2	0.245	0.748	0.012
314.5	432.3	0.122	0.852	0.012
314.5	487.4	0.306	0.686	0.009
315.1	418.5	0.132	0.845	0.01
315.3	446.1	0.006	0.953	0.006
315.3	459.9	0.157	0.82	0.019
315.3	487.4	0.01	0.946	0.006
315.3	763.2	0.022	0.914	0.008
