Measured thermophysical data. Density, Viscosity, and Speed of Sound of (1-Octanol + 2-Methoxyethanol), (1-Octanol + N,N-Dimethylacetamide), and (1-Octanol + Acetophenone) at Temperatures of (298.15, 308.15, and 318.15) K
Source: J. Chem. Eng. Data, 2010, 10.1021/je100170v
Compound 1: octan-1-ol, C8H18O, InChI=1S/C8H18O/c1-2-3-4-5-6-7-8-9/h9H,2-8H2,1H3, purity 99%
Compound 2: N,N-dimethylethanamide, C4H9NO, InChI=1S/C4H9NO/c1-4(6)5(2)3/h1-3H3, purity 99%
Compound 3: 2-methoxyethan-1-ol, C3H8O2, InChI=1S/C3H8O2/c1-5-3-2-4/h4H,2-3H2,1H3
Compound 4: acetophenone, C8H8O, InChI=1S/C8H8O/c1-7(9)8-5-3-2-4-6-8/h2-6H,1H3

System: octan-1-ol; phases: Liquid
Fixed: Pressure, kPa = 101.3
Property: Viscosity, Pa*s (Liquid); method: CAPTUB:UFactor:4
Temperature, K	Viscosity, Pa*s	uncertainty
298.15	0.007365	0.000196
308.15	0.005251	0.000151
318.15	0.003865	0.000115

System: octan-1-ol; phases: Liquid
Property: Speed of sound, m/s (Liquid); method: Sing-around technique in a fixed-path interferometer
Pressure, kPa	Temperature, K	Speed of sound, m/s	uncertainty
101	298.15	1349.2	1.3

System: octan-1-ol; phases: Liquid
Fixed: Pressure, kPa = 101
Property: Mass density, kg/m3 (Liquid); method: VIBTUB:UFactor:6
Temperature, K	Mass density, kg/m3	uncertainty
298.15	821.5	0.8
308.15	814	0.8
318.15	807.7	0.8

System: N,N-dimethylethanamide; phases: Liquid
Fixed: Pressure, kPa = 101.3
Property: Viscosity, Pa*s (Liquid); method: CAPTUB::UFactor:4
Temperature, K	Viscosity, Pa*s	uncertainty
298.15	0.000937	3.1e-05
308.15	0.000841	2.8e-05
318.15	0.000763	2.6e-05

System: N,N-dimethylethanamide; phases: Liquid
Property: Speed of sound, m/s (Liquid); method: Sing-around technique in a fixed-path interferometer
Pressure, kPa	Temperature, K	Speed of sound, m/s	uncertainty
101	298.15	1458.2	1.4

System: N,N-dimethylethanamide; phases: Liquid
Fixed: Pressure, kPa = 101
Property: Mass density, kg/m3 (Liquid); method: VIBTUB::UFactor:6
Temperature, K	Mass density, kg/m3	uncertainty
298.15	937.2	0.6
308.15	925.8	0.6
318.15	917.1	0.6

System: 2-methoxyethan-1-ol; phases: Liquid
Fixed: Pressure, kPa = 101.3
Property: Viscosity, Pa*s (Liquid); method: CAPTUB::UFactor:4
Temperature, K	Viscosity, Pa*s	uncertainty
298.15	0.001543	4.8e-05
308.15	0.001256	4e-05
318.15	0.001047	3.4e-05

System: 2-methoxyethan-1-ol; phases: Liquid
Property: Speed of sound, m/s (Liquid); method: Sing-around technique in a fixed-path interferometer
Pressure, kPa	Temperature, K	Speed of sound, m/s	uncertainty
101	298.15	1339.3	1.3

System: 2-methoxyethan-1-ol; phases: Liquid
Fixed: Pressure, kPa = 101
Property: Mass density, kg/m3 (Liquid); method: VIBTUB::UFactor:6
Temperature, K	Mass density, kg/m3	uncertainty
298.15	959.5	0.6
308.15	952.1	0.6
318.15	945.8	0.6

System: acetophenone; phases: Liquid
Fixed: Pressure, kPa = 101.3
Property: Viscosity, Pa*s (Liquid); method: CAPTUB::UFactor:4
Temperature, K	Viscosity, Pa*s	uncertainty
298.15	0.001653	5.1e-05
308.15	0.001411	4.4e-05
318.15	0.001115	3.6e-05

System: acetophenone; phases: Liquid
Property: Speed of sound, m/s (Liquid); method: Sing-around technique in a fixed-path interferometer
Pressure, kPa	Temperature, K	Speed of sound, m/s	uncertainty
101	298.15	1296.2	1.3

System: acetophenone; phases: Liquid
Fixed: Pressure, kPa = 101
Property: Mass density, kg/m3 (Liquid); method: VIBTUB::UFactor:6
Temperature, K	Mass density, kg/m3	uncertainty
298.15	1023.1	0.6
308.15	1014.9	0.6
318.15	1007.2	0.5

System: 2-methoxyethan-1-ol + octan-1-ol; phases: Liquid
Fixed: Pressure, kPa = 101
Fixed: Temperature, K = 298.15
Property: Speed of sound, m/s (Liquid); method: Sing-around technique in a fixed-path interferometer
Mole fraction of octan-1-ol	Speed of sound, m/s	uncertainty
0	1339.3	1.3
0.061	1334.3	1.3
0.1275	1329.3	1.3
0.2003	1323	1.3
0.2804	1318	1.3
0.3688	1314.6	1.3
0.4671	1315.4	1.3
0.5769	1320	1.3
0.7004	1326.5	1.3
0.8402	1335.8	1.3
1	1349.2	1.3

System: 2-methoxyethan-1-ol + octan-1-ol; phases: Liquid
Fixed: Pressure, kPa = 101
Property: Viscosity, Pa*s (Liquid); method: CAPTUB:UFactor:4
Temperature, K	Mole fraction of octan-1-ol	Viscosity, Pa*s	uncertainty
298.15	0	0.001543	4.8e-05
298.15	0.061	0.001677	5.2e-05
298.15	0.1275	0.001822	5.6e-05
298.15	0.2003	0.001983	6e-05
298.15	0.2804	0.002145	6.5e-05
298.15	0.3688	0.002408	7.2e-05
298.15	0.4671	0.002774	8.3e-05
298.15	0.5769	0.003432	0.000101
298.15	0.7004	0.004238	0.000124
298.15	0.8402	0.005412	0.000154
298.15	1	0.007365	0.000196
308.15	0	0.001256	4e-05
308.15	0.061	0.001368	4.3e-05
308.15	0.1275	0.001454	4.5e-05
308.15	0.2003	0.001582	4.9e-05
308.15	0.2804	0.001749	5.4e-05
308.15	0.3688	0.001948	5.9e-05
308.15	0.4671	0.00219	6.6e-05
308.15	0.5769	0.00267	8e-05
308.15	0.7004	0.00319	9.5e-05
308.15	0.8402	0.004012	0.000118
308.15	1	0.005251	0.000151
318.15	0	0.001047	3.4e-05
318.15	0.061	0.001141	3.7e-05
318.15	0.1275	0.001209	3.8e-05
318.15	0.2003	0.001304	4.1e-05
318.15	0.2804	0.001426	4.5e-05
318.15	0.3688	0.001571	4.9e-05
318.15	0.4671	0.001781	5.5e-05
318.15	0.5769	0.002062	6.3e-05
318.15	0.7004	0.002466	7.4e-05
318.15	0.8402	0.003064	9.1e-05
318.15	1	0.003865	0.000115

System: 2-methoxyethan-1-ol + octan-1-ol; phases: Liquid
Fixed: Pressure, kPa = 101
Property: Mass density, kg/m3 (Liquid); method: VIBTUB:UFactor:6
Temperature, K	Mole fraction of octan-1-ol	Mass density, kg/m3	uncertainty
298.15	0	959.5	0.6
298.15	0.061	943	0.6
298.15	0.1275	927.1	0.6
298.15	0.2003	912.1	0.7
298.15	0.2804	897.4	0.7
298.15	0.3688	883.4	0.7
298.15	0.4671	869.9	0.7
298.15	0.5769	857	0.7
298.15	0.7004	844.6	0.7
298.15	0.8402	832.8	0.8
298.15	1	821.5	0.8
308.15	0	952.1	0.6
308.15	0.061	935.6	0.6
308.15	0.1275	920	0.6
308.15	0.2003	904.9	0.7
308.15	0.2804	890.5	0.7
308.15	0.3688	876.4	0.7
308.15	0.4671	862.9	0.7
308.15	0.5769	850	0.7
308.15	0.7004	837.6	0.8
308.15	0.8402	825.6	0.8
308.15	1	814	0.8
318.15	0	945.8	0.6
318.15	0.061	929.5	0.6
318.15	0.1275	913.8	0.6
318.15	0.2003	898.8	0.7
318.15	0.2804	884.4	0.7
318.15	0.3688	870.5	0.7
318.15	0.4671	857	0.7
318.15	0.5769	844	0.8
318.15	0.7004	831.5	0.8
318.15	0.8402	819.4	0.8
318.15	1	807.7	0.8

System: octan-1-ol + N,N-dimethylethanamide; phases: Liquid
Fixed: Pressure, kPa = 101
Fixed: Temperature, K = 298.15
Property: Speed of sound, m/s (Liquid); method: Sing-around technique in a fixed-path interferometer
Mole fraction of octan-1-ol	Speed of sound, m/s	uncertainty
0	1458.2	1.4
0.0692	1433.5	1.4
0.1433	1412.4	1.4
0.2228	1390.3	1.3
0.3084	1372.5	1.3
0.4008	1360	1.3
0.5009	1353.4	1.3
0.6095	1348.5	1.3
0.728	1346.4	1.3
0.8576	1348	1.3
1	1349.2	1.3

System: octan-1-ol + N,N-dimethylethanamide; phases: Liquid
Fixed: Pressure, kPa = 101
Property: Viscosity, Pa*s (Liquid); method: CAPTUB:UFactor:4
Temperature, K	Mole fraction of octan-1-ol	Viscosity, Pa*s	uncertainty
298.15	0	0.000937	3.1e-05
298.15	0.0692	0.001072	3.4e-05
298.15	0.1433	0.001246	3.9e-05
298.15	0.2228	0.001418	4.4e-05
298.15	0.3084	0.001702	5.2e-05
298.15	0.4008	0.002023	6.1e-05
298.15	0.5009	0.002399	7.2e-05
298.15	0.6095	0.003111	9.2e-05
298.15	0.728	0.004009	0.000118
298.15	0.8576	0.005318	0.000152
298.15	1	0.007365	0.000196
308.15	0	0.000841	2.8e-05
308.15	0.0692	0.000942	3.1e-05
308.15	0.1433	0.001063	3.4e-05
308.15	0.2228	0.001194	3.8e-05
308.15	0.3084	0.001376	4.3e-05
308.15	0.4008	0.001614	5e-05
308.15	0.5009	0.001893	5.8e-05
308.15	0.6095	0.002406	7.2e-05
308.15	0.728	0.002988	8.9e-05
308.15	0.8576	0.003849	0.000114
308.15	1	0.005251	0.000151
318.15	0	0.000763	2.6e-05
318.15	0.0692	0.000851	2.8e-05
318.15	0.1433	0.000947	3.1e-05
318.15	0.2228	0.001046	3.4e-05
318.15	0.3084	0.001185	3.8e-05
318.15	0.4008	0.001361	4.3e-05
318.15	0.5009	0.001585	4.9e-05
318.15	0.6095	0.001935	5.9e-05
318.15	0.728	0.00235	7.1e-05
318.15	0.8576	0.002965	8.8e-05
318.15	1	0.003865	0.000115

System: octan-1-ol + N,N-dimethylethanamide; phases: Liquid
Fixed: Pressure, kPa = 101
Property: Mass density, kg/m3 (Liquid); method: VIBTUB:UFactor:6
Temperature, K	Mole fraction of octan-1-ol	Mass density, kg/m3	uncertainty
298.15	0	937.2	0.6
298.15	0.0692	923.5	0.6
298.15	0.1433	910.4	0.7
298.15	0.2228	897.7	0.7
298.15	0.3084	885.5	0.7
298.15	0.4008	873.7	0.7
298.15	0.5009	862.3	0.7
298.15	0.6095	851.4	0.7
298.15	0.728	840.9	0.8
298.15	0.8576	830.9	0.8
298.15	1	821.5	0.8
308.15	0	925.8	0.6
308.15	0.0692	912.7	0.6
308.15	0.1433	900.2	0.7
308.15	0.2228	888.1	0.7
308.15	0.3084	876.3	0.7
308.15	0.4008	864.8	0.7
308.15	0.5009	853.9	0.7
308.15	0.6095	843.4	0.8
308.15	0.728	833.1	0.8
308.15	0.8576	823.4	0.8
308.15	1	814	0.8
318.15	0	917.1	0.6
318.15	0.0692	904.4	0.7
318.15	0.1433	892.2	0.7
318.15	0.2228	880.4	0.7
318.15	0.3084	868.9	0.7
318.15	0.4008	857.8	0.7
318.15	0.5009	847	0.7
318.15	0.6095	836.7	0.8
318.15	0.728	826.6	0.8
318.15	0.8576	816.9	0.8
318.15	1	807.7	0.8

System: acetophenone + octan-1-ol; phases: Liquid
Fixed: Pressure, kPa = 101
Fixed: Temperature, K = 298.15
Property: Speed of sound, m/s (Liquid); method: Sing-around technique in a fixed-path interferometer
Mole fraction of octan-1-ol	Speed of sound, m/s	uncertainty
0	1296.2	1.3
0.093	1278.5	1.3
0.1874	1266.5	1.3
0.2834	1263.3	1.3
0.3808	1264.7	1.3
0.4799	1271.8	1.3
0.5805	1281.8	1.3
0.6828	1295.4	1.3
0.7868	1311.1	1.3
0.8925	1327.8	1.3
1	1349.2	1.3

System: acetophenone + octan-1-ol; phases: Liquid
Fixed: Pressure, kPa = 101
Property: Viscosity, Pa*s (Liquid); method: CAPTUB:UFactor:4
Temperature, K	Mole fraction of octan-1-ol	Viscosity, Pa*s	uncertainty
298.15	0	0.001653	5.1e-05
298.15	0.093	0.001713	5.2e-05
298.15	0.1874	0.001831	5.6e-05
298.15	0.2834	0.001994	6e-05
298.15	0.3808	0.002205	6.6e-05
298.15	0.4799	0.002519	7.5e-05
298.15	0.5805	0.002997	8.9e-05
298.15	0.6828	0.00365	0.000107
298.15	0.7868	0.004475	0.000131
298.15	0.8925	0.005625	0.00016
298.15	1	0.007365	0.000196
308.15	0	0.001411	4.4e-05
308.15	0.093	0.001528	4.7e-05
308.15	0.1874	0.001669	5.1e-05
308.15	0.2834	0.001785	5.5e-05
308.15	0.3808	0.001949	5.9e-05
308.15	0.4799	0.002167	6.5e-05
308.15	0.5805	0.0024	7.2e-05
308.15	0.6828	0.002799	8.4e-05
308.15	0.7868	0.003249	9.7e-05
308.15	0.8925	0.003931	0.000116
308.15	1	0.005251	0.000151
318.15	0	0.001115	3.6e-05
318.15	0.093	0.001208	3.9e-05
318.15	0.1874	0.001327	4.2e-05
318.15	0.2834	0.001424	4.5e-05
318.15	0.3808	0.001535	4.8e-05
318.15	0.4799	0.001671	5.2e-05
318.15	0.5805	0.001807	5.6e-05
318.15	0.6828	0.002095	6.4e-05
318.15	0.7868	0.002432	7.4e-05
318.15	0.8925	0.002926	8.8e-05
318.15	1	0.003865	0.000115

System: acetophenone + octan-1-ol; phases: Liquid
Fixed: Pressure, kPa = 101
Property: Mass density, kg/m3 (Liquid); method: VIBTUB:UFactor:6
Temperature, K	Mole fraction of octan-1-ol	Mass density, kg/m3	uncertainty
298.15	0	1023.1	0.6
298.15	0.093	997.7	0.5
298.15	0.1874	973.7	0.6
298.15	0.2834	951.2	0.6
298.15	0.3808	929.7	0.6
298.15	0.4799	909.3	0.7
298.15	0.5805	889.8	0.7
298.15	0.6828	871.3	0.7
298.15	0.7868	853.8	0.7
298.15	0.8925	837.1	0.8
298.15	1	821.5	0.8
308.15	0	1014.9	0.6
308.15	0.093	989.7	0.5
308.15	0.1874	966.1	0.6
308.15	0.2834	943.6	0.6
308.15	0.3808	922.2	0.6
308.15	0.4799	902	0.7
308.15	0.5805	882.5	0.7
308.15	0.6828	864.1	0.7
308.15	0.7868	846.6	0.7
308.15	0.8925	829.9	0.8
308.15	1	814	0.8
318.15	0	1007.2	0.5
318.15	0.093	982.4	0.6
318.15	0.1874	958.9	0.6
318.15	0.2834	936.6	0.6
318.15	0.3808	915.5	0.6
318.15	0.4799	895.3	0.7
318.15	0.5805	876	0.7
318.15	0.6828	857.7	0.7
318.15	0.7868	840.2	0.8
318.15	0.8925	823.6	0.8
318.15	1	807.7	0.8
