Measured thermophysical data. Vapor-Liquid Equilibria for 1,1,2,2-Tetrafluoroethane (R134) + Fluoroethane (R161) at Temperatures between (263.15 and 288.15) K
Source: J. Chem. Eng. Data, 2010, 10.1021/je100143k
Compound 1: 1,1,2,2-tetrafluoroethane, C2H2F4, InChI=1S/C2H2F4/c3-1(4)2(5)6/h1-2H, purity 99.5%
Compound 2: fluoroethane, C2H5F, InChI=1S/C2H5F/c1-2-3/h2H2,1H3, purity 99.7%

System: 1,1,2,2-tetrafluoroethane; phases: Liquid, Gas
Property: Vapor or sublimation pressure, kPa (Liquid); method: Ebulliometric method (Recirculating still)
Temperature, K	Vapor or sublimation pressure, kPa	uncertainty
263.15	155	10
268.15	189	10
278.15	276	10
288.15	386	10

System: fluoroethane; phases: Liquid, Gas
Property: Vapor or sublimation pressure, kPa (Liquid); method: Ebulliometric method (Recirculating still)
Temperature, K	Vapor or sublimation pressure, kPa	uncertainty
263.15	311	10
268.15	372	10
278.15	517	10
288.15	700	10

System: fluoroethane + 1,1,2,2-tetrafluoroethane; phases: Liquid, Gas
Property: Vapor or sublimation pressure, kPa (Liquid); method: Ebulliometric method (Recirculating still)
Mole fraction of 1,1,2,2-tetrafluoroethane	Temperature, K	Vapor or sublimation pressure, kPa	uncertainty
0	263.15	311	10
0	268.15	372	10
0	278.15	517	10
0	288.15	700	10
0.048	288.15	675	12
0.049	263.15	303	10
0.049	268.15	360	10
0.049	278.15	498	11
0.114	278.15	472	11
0.115	288.15	641	12
0.116	263.15	285	10
0.117	268.15	340	11
0.172	288.15	609	11
0.178	263.15	271	10
0.179	268.15	322	10
0.179	278.15	449	11
0.278	288.15	565	11
0.393	268.15	269	10
0.394	263.15	225	10
0.394	278.15	379	11
0.397	288.15	520	11
0.521	278.15	344	10
0.522	268.15	242	10
0.522	288.15	477	11
0.525	263.15	201	10
0.651	263.15	184	10
0.652	268.15	223	10
0.652	278.15	318	10
0.654	288.15	443	10
0.819	263.15	168	10
0.819	278.15	294	10
0.82	268.15	204	10
0.821	288.15	411	10
1	263.15	155	10
1	268.15	189	10
1	278.15	276	10
1	288.15	386	10

System: fluoroethane + 1,1,2,2-tetrafluoroethane; phases: Gas, Liquid
Property: Mole fraction of 1,1,2,2-tetrafluoroethane (Gas); method: Chromatography
Mole fraction of 1,1,2,2-tetrafluoroethane	Temperature, K	Mole fraction of 1,1,2,2-tetrafluoroethane	uncertainty
0	263.15	0	
0	268.15	0	
0	278.15	0	
0	288.15	0	
0.048	288.15	0.022	0.011
0.049	263.15	0.017	0.011
0.049	268.15	0.018	0.011
0.049	278.15	0.02	0.011
0.114	278.15	0.052	0.011
0.115	288.15	0.056	0.011
0.116	263.15	0.045	0.011
0.117	268.15	0.047	0.011
0.172	288.15	0.089	0.012
0.178	263.15	0.078	0.012
0.179	268.15	0.08	0.013
0.179	278.15	0.085	0.013
0.278	288.15	0.156	0.012
0.393	268.15	0.248	0.013
0.394	263.15	0.242	0.013
0.394	278.15	0.254	0.014
0.397	288.15	0.235	0.014
0.521	278.15	0.398	0.016
0.522	268.15	0.387	0.016
0.522	288.15	0.403	0.017
0.525	263.15	0.383	0.016
0.651	263.15	0.538	0.017
0.652	268.15	0.543	0.016
0.652	278.15	0.554	0.016
0.654	288.15	0.563	0.016
0.819	263.15	0.757	0.017
0.819	278.15	0.76	0.016
0.82	268.15	0.753	0.017
0.821	288.15	0.77	0.016
1	263.15	1	
1	268.15	1	
1	278.15	1	
1	288.15	1	
