Measured thermophysical data. Volumetric and Surface Properties of Aqueous Mixtures of Polyethers at T = (298.15, 308.15, and 318.15) K
Source: J. Chem. Eng. Data, 2011, 10.1021/je100757w
Compound 1: water, H2O, InChI=1S/H2O/h1H2, purity 99.9%
Compound 2: 2,5,8-trioxanonane, C6H14O3, InChI=1S/C6H14O3/c1-7-3-5-9-6-4-8-2/h3-6H2,1-2H3, purity 98.5%
Compound 3: 2,5,8,11-tetraoxadodecane, C8H18O4, InChI=1S/C8H18O4/c1-9-3-5-11-7-8-12-6-4-10-2/h3-8H2,1-2H3, purity 98%
Compound 4: 2,5,8,11,14-pentaoxapentadecane, C10H22O5, InChI=1S/C10H22O5/c1-11-3-5-13-7-9-15-10-8-14-6-4-12-2/h3-10H2,1-2H3, purity 97%

System: 2,5,8-trioxanonane; phases: Liquid, Air at 1 atmosphere
Property: Surface tension liquid-gas, N/m (Liquid); method: Ring tensiometer
Temperature, K	Surface tension liquid-gas, N/m	uncertainty
298.15	0.02456	0.00041
308.15	0.02765	0.00045
318.15	0.02344	0.0004

System: 2,5,8-trioxanonane; phases: Liquid
Fixed: Pressure, kPa = 101.3
Property: Mass density, kg/m3 (Liquid); method: VIBTUB::UFactor:8
Temperature, K	Mass density, kg/m3	uncertainty
298.15	940.01	0.83
308.15	930.03	0.86
318.15	919.99	0.88

System: 2,5,8,11-tetraoxadodecane; phases: Liquid, Air at 1 atmosphere
Property: Surface tension liquid-gas, N/m (Liquid); method: Ring tensiometer
Temperature, K	Surface tension liquid-gas, N/m	uncertainty
298.15	0.02756	0.00048
308.15	0.02848	0.0005
318.15	0.02783	0.00049

System: 2,5,8,11-tetraoxadodecane; phases: Liquid
Fixed: Pressure, kPa = 101.3
Property: Mass density, kg/m3 (Liquid); method: VIBTUB::UFactor:8
Temperature, K	Mass density, kg/m3	uncertainty
298.15	981.23	1.08
308.15	971.71	1.1
318.15	962.19	1.11

System: 2,5,8,11,14-pentaoxapentadecane; phases: Liquid, Air at 1 atmosphere
Property: Surface tension liquid-gas, N/m (Liquid); method: Ring tensiometer
Temperature, K	Surface tension liquid-gas, N/m	uncertainty
298.15	0.03374	0.00069
308.15	0.03245	0.00067
318.15	0.03171	0.00065

System: 2,5,8,11,14-pentaoxapentadecane; phases: Liquid
Fixed: Pressure, kPa = 101.3
Property: Mass density, kg/m3 (Liquid); method: VIBTUB::UFactor:8
Temperature, K	Mass density, kg/m3	uncertainty
298.15	1007.26	2.15
308.15	997.98	2.1
318.15	988.72	2.09

System: 2,5,8-trioxanonane + water; phases: Liquid, Air at 1 atmosphere
Property: Surface tension liquid-gas, N/m (Liquid); method: Ring tensiometer
Temperature, K	Mole fraction of 2,5,8-trioxanonane	Surface tension liquid-gas, N/m	uncertainty
298.15	0	0.07137	0.00102
298.15	0.0047	0.04927	0.00086
298.15	0.0141	0.04411	0.00081
298.15	0.0279	0.04226	0.00079
298.15	0.0456	0.03985	0.00078
298.15	0.0874	0.03599	0.00075
298.15	0.1184	0.03162	0.00073
298.15	0.1582	0.03069	0.00072
298.15	0.2241	0.03045	0.00072
298.15	0.3191	0.0299	0.00072
298.15	0.4283	0.02869	0.00071
298.15	0.5164	0.02808	0.00071
298.15	0.6493	0.0279	0.00072
298.15	0.7841	0.02677	0.00072
298.15	0.8737	0.02629	0.00072
298.15	0.9228	0.02569	0.00071
298.15	0.9704	0.02519	0.00071
298.15	1	0.02456	0.00071
308.15	0	0.07008	0.00101
308.15	0.0014	0.05347	0.00088
308.15	0.0038	0.05051	0.00085
308.15	0.0085	0.04712	0.00083
308.15	0.0142	0.04472	0.00081
308.15	0.0279	0.0413	0.00079
308.15	0.0457	0.03899	0.00077
308.15	0.0875	0.03365	0.00074
308.15	0.12	0.03257	0.00073
308.15	0.1602	0.03109	0.00072
308.15	0.2265	0.02975	0.00072
308.15	0.3217	0.02919	0.00072
308.15	0.4305	0.02879	0.00072
308.15	0.5179	0.02841	0.00072
308.15	0.6498	0.0283	0.00072
308.15	0.7831	0.0277	0.00072
308.15	0.8744	0.02758	0.00073
308.15	0.9165	0.02754	0.00073
308.15	0.9645	0.02743	0.00073
308.15	1	0.02765	0.00073
318.15	0	0.06911	0.001
318.15	0.0015	0.05576	0.0009
318.15	0.0038	0.05177	0.00087
318.15	0.0081	0.04833	0.00084
318.15	0.0135	0.04561	0.00082
318.15	0.0269	0.04195	0.00079
318.15	0.0444	0.03933	0.00077
318.15	0.0857	0.03462	0.00074
318.15	0.1091	0.02886	0.00071
318.15	0.156	0.02665	0.0007
318.15	0.2194	0.02534	0.0007
318.15	0.3174	0.02445	0.00069
318.15	0.4248	0.02426	0.00069
318.15	0.511	0.02418	0.0007
318.15	0.6513	0.02387	0.0007
318.15	0.7915	0.02364	0.0007
318.15	0.8844	0.0235	0.0007
318.15	0.9137	0.02348	0.0007
318.15	0.9547	0.02346	0.0007
318.15	1	0.02344	0.00071

System: 2,5,8-trioxanonane + water; phases: Liquid
Fixed: Pressure, kPa = 101.3
Property: Mass density, kg/m3 (Liquid); method: VIBTUB:UFactor:8
Temperature, K	Mole fraction of 2,5,8-trioxanonane	Mass density, kg/m3	uncertainty
298.15	0	997.05	0.26
298.15	0.0188	1002.55	0.26
298.15	0.0543	1006.8	0.28
298.15	0.1289	1002.43	0.27
298.15	0.1903	994.76	0.29
298.15	0.3195	978.75	0.37
298.15	0.4068	970.55	0.42
298.15	0.4993	963.15	0.48
298.15	0.621	955.66	0.56
298.15	0.7181	950.74	0.62
298.15	0.8097	946.27	0.69
298.15	0.9099	942.33	0.76
298.15	0.9551	940.97	0.8
298.15	1	940.01	0.83
308.15	0	994.06	0.27
308.15	0.0188	998.41	0.26
308.15	0.0543	1001.43	0.26
308.15	0.1289	996.23	0.28
308.15	0.1903	987.3	0.31
308.15	0.3195	970.44	0.4
308.15	0.4068	961.72	0.45
308.15	0.4993	954.06	0.51
308.15	0.621	945.87	0.58
308.15	0.7181	940.7	0.65
308.15	0.8097	936.34	0.71
308.15	0.9099	932.39	0.79
308.15	0.9551	931.05	0.82
308.15	1	930.03	0.86
318.15	0	990.25	0.28
318.15	0.0188	994.3	0.27
318.15	0.0543	996.25	0.27
318.15	0.1289	989.1	0.3
318.15	0.1903	979.79	0.34
318.15	0.3195	961.72	0.42
318.15	0.4068	952.75	0.48
318.15	0.4993	944.64	0.53
318.15	0.621	936.5	0.61
318.15	0.7181	931.28	0.67
318.15	0.8097	926.76	0.74
318.15	0.9099	922.58	0.81
318.15	0.9551	921.12	0.84
318.15	1	919.99	0.88

System: 2,5,8,11-tetraoxadodecane + water; phases: Liquid, Air at 1 atmosphere
Property: Surface tension liquid-gas, N/m (Liquid); method: Ring tensiometer
Temperature, K	Mole fraction of 2,5,8,11-tetraoxadodecane	Surface tension liquid-gas, N/m	uncertainty
298.15	0	0.07137	0.00102
298.15	0.0012	0.05335	0.00089
298.15	0.0024	0.05127	0.00087
298.15	0.0029	0.04907	0.00085
298.15	0.0036	0.04859	0.00084
298.15	0.0043	0.0476	0.00083
298.15	0.0206	0.0406	0.00078
298.15	0.0375	0.03888	0.00077
298.15	0.0695	0.0362	0.00075
298.15	0.0905	0.03399	0.00074
298.15	0.1223	0.03306	0.00074
298.15	0.163	0.03287	0.00074
298.15	0.2911	0.03223	0.00074
298.15	0.3517	0.03166	0.00073
298.15	0.4658	0.03116	0.00074
298.15	0.583	0.0305	0.0007
298.15	0.659	0.03009	0.00074
298.15	0.7279	0.02954	0.00075
298.15	0.821	0.02905	0.00075
298.15	0.8823	0.02852	0.00075
298.15	0.9461	0.02804	0.00075
298.15	1	0.02756	0.00075
308.15	0	0.07008	0.00101
308.15	0.0009	0.05301	0.00087
308.15	0.0017	0.05004	0.00085
308.15	0.0026	0.04796	0.00084
308.15	0.0039	0.04541	0.00082
308.15	0.0109	0.04172	0.00079
308.15	0.0218	0.04014	0.00078
308.15	0.0353	0.03828	0.00077
308.15	0.0882	0.03604	0.00075
308.15	0.1214	0.03406	0.00074
308.15	0.1767	0.03308	0.00074
308.15	0.2497	0.03248	0.00074
308.15	0.34	0.03144	0.00073
308.15	0.4141	0.03089	0.00073
308.15	0.5272	0.03074	0.00074
308.15	0.5837	0.03015	0.00074
308.15	0.7176	0.02976	0.00075
308.15	0.8234	0.02938	0.00075
308.15	0.9458	0.02874	0.00076
308.15	1	0.02848	0.00076
308.15	0.2497	0.03182	0.00073
318.15	0	0.06911	0.001
318.15	0.0014	0.05181	0.00087
318.15	0.0021	0.04747	0.00084
318.15	0.0028	0.0461	0.00084
318.15	0.0039	0.04463	0.00081
318.15	0.01	0.04137	0.00079
318.15	0.0212	0.03906	0.00077
318.15	0.034	0.03785	0.00076
318.15	0.0543	0.03526	0.00075
318.15	0.0791	0.03267	0.00074
318.15	0.0849	0.0325	0.00073
318.15	0.0917	0.03242	0.00073
318.15	0.122	0.03227	0.00073
318.15	0.1848	0.03214	0.00073
318.15	0.2728	0.03126	0.00073
318.15	0.3289	0.03105	0.00073
318.15	0.3776	0.03083	0.00073
318.15	0.4688	0.0303	0.00073
318.15	0.6611	0.02959	0.00074
318.15	0.7234	0.0294	0.00074
318.15	0.8102	0.02899	0.00075
318.15	0.8562	0.02868	0.00075
318.15	0.8915	0.0283	0.00075
318.15	1	0.02783	0.00076

System: 2,5,8,11-tetraoxadodecane + water; phases: Liquid
Fixed: Pressure, kPa = 101.3
Property: Mass density, kg/m3 (Liquid); method: VIBTUB:UFactor:8
Temperature, K	Mole fraction of 2,5,8,11-tetraoxadodecane	Mass density, kg/m3	uncertainty
298.15	0	997.05	0.26
298.15	0.0173	1006.22	0.27
298.15	0.0914	1019.65	0.32
298.15	0.1739	1017.24	0.34
298.15	0.2731	1009.97	0.36
298.15	0.3468	1004.7	0.378
298.15	0.4515	998.25	0.44
298.15	0.5727	992.4	0.55
298.15	0.6451	989.7	0.62
298.15	0.7766	985.98	0.77
298.15	0.8679	984.02	0.89
298.15	0.8977	983.45	0.93
298.15	0.9699	981.95	1.04
298.15	1	981.23	1.08
308.15	0	994.06	0.27
308.15	0.0173	1004.32	0.27
308.15	0.0914	1016.26	0.31
308.15	0.1739	1010.56	0.32
308.15	0.2731	1001.13	0.33
308.15	0.3468	995.27	0.38
308.15	0.4515	988.66	0.46
308.15	0.5727	982.92	0.57
308.15	0.6451	980.17	0.65
308.15	0.7766	976.39	0.8
308.15	0.8679	974.51	0.91
308.15	0.8977	973.95	0.95
308.15	0.9699	972.46	1.05
308.15	1	971.71	1.1
318.15	0	990.25	0.28
318.15	0.0173	998.53	0.26
318.15	0.0914	1007.41	0.29
318.15	0.1739	1001.45	0.29
318.15	0.2731	992.1	0.35
318.15	0.3468	986.06	0.4
318.15	0.4515	979.25	0.49
318.15	0.5727	973.34	0.6
318.15	0.6451	970.59	0.67
318.15	0.7766	966.82	0.82
318.15	0.8679	964.92	0.93
318.15	0.8977	964.34	0.97
318.15	0.9699	962.91	1.07
318.15	1	962.19	1.11

System: 2,5,8,11,14-pentaoxapentadecane + water; phases: Liquid, Air at 1 atmosphere
Property: Surface tension liquid-gas, N/m (Liquid); method: Ring tensiometer
Temperature, K	Mole fraction of 2,5,8,11,14-pentaoxapentadecane	Surface tension liquid-gas, N/m	uncertainty
298.15	0	0.07137	0.00102
298.15	0.0016	0.05016	0.00086
298.15	0.002	0.04889	0.00087
298.15	0.0026	0.04704	0.00086
298.15	0.0031	0.04637	0.00085
298.15	0.0092	0.04311	0.0008
298.15	0.0174	0.04123	0.00079
298.15	0.0283	0.0401	0.00078
298.15	0.057	0.03954	0.00078
298.15	0.0746	0.03888	0.00077
298.15	0.1026	0.03865	0.00077
298.15	0.1497	0.03766	0.00077
298.15	0.2264	0.03629	0.00077
298.15	0.2862	0.03579	0.00077
298.15	0.4268	0.03509	0.00078
298.15	0.5414	0.03492	0.0008
298.15	0.6144	0.03446	0.00081
298.15	0.787	0.0342	0.00085
298.15	0.8286	0.03419	0.00086
298.15	0.9196	0.03391	0.00088
298.15	1	0.03374	0.00089
308.15	0	0.07008	0.00101
308.15	0.0014	0.051	0.00086
308.15	0.0023	0.04699	0.00083
308.15	0.0032	0.04545	0.00082
308.15	0.004	0.04421	0.00081
308.15	0.009	0.04287	0.0008
308.15	0.0175	0.0399	0.00078
308.15	0.0275	0.03908	0.00077
308.15	0.0539	0.03834	0.00077
308.15	0.0715	0.03736	0.00076
308.15	0.099	0.03728	0.00076
308.15	0.1478	0.03551	0.00075
308.15	0.2212	0.03495	0.00076
308.15	0.3074	0.03422	0.00076
308.15	0.4252	0.03385	0.00077
308.15	0.5523	0.03358	0.00079
308.15	0.6404	0.03332	0.0008
308.15	0.7835	0.03305	0.00083
308.15	0.814	0.03288	0.00084
308.15	0.9479	0.03264	0.00087
308.15	1	0.03245	0.00088
318.15	0	0.06911	0.001
318.15	0.0013	0.05846	0.00093
318.15	0.0019	0.0542	0.00089
318.15	0.0024	0.05129	0.00089
318.15	0.0033	0.04759	0.00086
318.15	0.0098	0.04227	0.00079
318.15	0.0187	0.04041	0.00078
318.15	0.0314	0.04039	0.00078
318.15	0.0584	0.03825	0.00077
318.15	0.0748	0.03724	0.00076
318.15	0.1022	0.0365	0.00076
318.15	0.1482	0.03537	0.00075
318.15	0.2219	0.03381	0.00075
318.15	0.3152	0.0333	0.00075
318.15	0.4328	0.03294	0.00077
318.15	0.5259	0.03275	0.00078
318.15	0.5974	0.03247	0.00079
318.15	0.7667	0.03222	0.00082
318.15	0.8249	0.03205	0.00083
318.15	0.9324	0.03194	0.00085
318.15	1	0.03171	0.00087

System: 2,5,8,11,14-pentaoxapentadecane + water; phases: Liquid
Fixed: Pressure, kPa = 101.3
Property: Mass density, kg/m3 (Liquid); method: VIBTUB:UFactor:8
Temperature, K	Mole fraction of 2,5,8,11,14-pentaoxapentadecane	Mass density, kg/m3	uncertainty
298.15	0	997.05	0.26
298.15	0.0142	1011.13	0.29
298.15	0.0747	1035.25	0.38
298.15	0.1452	1036.72	0.42
298.15	0.2309	1031.3	0.47
298.15	0.2974	1026.41	0.52
298.15	0.4065	1020.2	0.65
298.15	0.5085	1016.34	0.81
298.15	0.5863	1014.23	0.96
298.15	0.6788	1012.16	1.17
298.15	0.8139	1009.47	1.53
298.15	0.854	1008.76	1.65
298.15	0.9569	1007.43	1.99
298.15	1	1007.26	2.15
308.15	0	994.06	0.27
308.15	0.0142	1006.56	0.27
308.15	0.0747	1027.26	0.35
308.15	0.1452	1027.67	0.39
308.15	0.2309	1022.01	0.44
308.15	0.2974	1017.12	0.49
308.15	0.4065	1010.92	0.61
308.15	0.5085	1007.06	0.77
308.15	0.5863	1004.92	0.92
308.15	0.6788	1002.83	1.13
308.15	0.8139	1000.17	1.48
308.15	0.854	999.47	1.6
308.15	0.9569	998.16	1.94
308.15	1	997.98	2.1
318.15	0	990.25	0.28
318.15	0.0142	1001.29	0.26
318.15	0.0747	1019.04	0.33
318.15	0.1452	1018.51	0.36
318.15	0.2309	1012.58	0.41
318.15	0.2974	1007.72	0.46
318.15	0.4065	1001.56	0.58
318.15	0.5085	997.73	0.75
318.15	0.5863	995.58	0.91
318.15	0.6788	993.48	1.12
318.15	0.8139	990.83	1.49
318.15	0.854	990.15	1.61
318.15	0.9569	988.89	1.94
318.15	1	988.72	2.09
