Measured thermophysical data. Mutual Solubility of Alkyl Imidazolium Hexafluorophosphate Ionic Liquids and Water
Source: J. Chem. Eng. Data, 2010, 10.1021/je1003059
Compound 1: 1-butyl-3-methylimidazolium hexafluorophosphate, C8H15F6N2P, InChI=1S/C8H15N2.F6P/c1-3-4-5-10-7-6-9(2)8-10;1-7(2,3,4,5)6/h6-8H,3-5H2,1-2H3;/q+1;-1
Compound 2: 1-hexyl-3-methylimidazolium hexafluorophosphate, C10H19F6N2P, InChI=1S/C10H19N2.F6P/c1-3-4-5-6-7-12-9-8-11(2)10-12;1-7(2,3,4,5)6/h8-10H,3-7H2,1-2H3;/q+1;-1
Compound 3: 1-octyl-3-methylimidazolium hexafluorophosphate, C12H23F6N2P, InChI=1S/C12H23N2.F6P/c1-3-4-5-6-7-8-9-14-11-10-13(2)12-14;1-7(2,3,4,5)6/h10-12H,3-9H2,1-2H3;/q+1;-1
Compound 4: water, H2O, InChI=1S/H2O/h1H2

System: water + 1-butyl-3-methylimidazolium hexafluorophosphate; phases: Liquid mixture 1, Liquid mixture 2
Fixed: Pressure, kPa = 101
Property: Mole fraction of water (Liquid mixture 1); method: TITR:UFactor:4
Temperature, K	Mole fraction of water	uncertainty
278.15	0.193	0.012
283.15	0.204	0.013
288.15	0.224	0.014
293.15	0.234	0.015
298.15	0.255	0.016
303.15	0.28	0.017
308.15	0.295	0.018
313.15	0.312	0.019
318.15	0.337	0.021
323.15	0.363	0.023
328.15	0.396	0.025
333.15	0.423	0.026
338.15	0.464	0.029
343.15	0.492	0.031
348.15	0.525	0.029
353.15	0.574	0.026

System: water + 1-butyl-3-methylimidazolium hexafluorophosphate; phases: Liquid mixture 1, Liquid mixture 2
Fixed: Pressure, kPa = 101
Property: Mole fraction of 1-butyl-3-methylimidazolium hexafluorophosphate (Liquid mixture 1); method: TITR:UFactor:4
Temperature, K	Mole fraction of 1-butyl-3-methylimidazolium hexafluorophosphate	uncertainty
278.75	0.0009	6e-05
283.55	0.00102	6e-05
289.55	0.00108	7e-05
295.95	0.00126	8e-05
302.25	0.00146	9e-05
310.35	0.00171	0.00011
314.95	0.00195	0.00012
319.65	0.00218	0.00014
326.65	0.00244	0.00015
333.25	0.0029	0.00018
338.35	0.00339	0.00021
344.35	0.00371	0.00023
350.85	0.00444	0.00028
357.35	0.00532	0.00033
362.15	0.00628	0.00039

System: water + 1-hexyl-3-methylimidazolium hexafluorophosphate; phases: Liquid mixture 1, Liquid mixture 2
Fixed: Pressure, kPa = 101
Property: Mole fraction of water (Liquid mixture 1); method: TITR:UFactor:4
Temperature, K	Mole fraction of water	uncertainty
278.15	0.153	0.01
283.15	0.167	0.01
288.15	0.175	0.011
293.15	0.199	0.012
298.15	0.21	0.013
303.15	0.238	0.015
308.15	0.251	0.016
313.15	0.275	0.017
318.15	0.303	0.019
323.15	0.322	0.02
328.15	0.349	0.022
333.15	0.386	0.024
338.15	0.408	0.025
343.15	0.435	0.027
348.15	0.463	0.029
353.15	0.492	0.031

System: water + 1-hexyl-3-methylimidazolium hexafluorophosphate; phases: Liquid mixture 1, Liquid mixture 2
Fixed: Pressure, kPa = 101
Property: Mole fraction of 1-hexyl-3-methylimidazolium hexafluorophosphate (Liquid mixture 1); method: TITR:UFactor:4
Temperature, K	Mole fraction of 1-hexyl-3-methylimidazolium hexafluorophosphate	uncertainty
286.45	0.000326	2e-05
296.65	0.00041	2.5e-05
302.65	0.000448	2.8e-05
307.85	0.000503	3.1e-05
312.95	0.000545	3.4e-05
319.35	0.00066	4.1e-05
326.35	0.000734	4.6e-05
331.75	0.000852	5.3e-05
336.15	0.000919	5.7e-05
340.25	0.00105	7e-05
345.85	0.00113	7e-05
350.75	0.00128	8e-05
355.25	0.00144	9e-05
359.95	0.00157	0.0001
363.05	0.0018	0.00011

System: water + 1-octyl-3-methylimidazolium hexafluorophosphate; phases: Liquid mixture 1, Liquid mixture 2
Fixed: Pressure, kPa = 101
Property: Mole fraction of water (Liquid mixture 1); method: TITR:UFactor:4
Temperature, K	Mole fraction of water	uncertainty
278.15	0.118	0.007
283.15	0.129	0.008
288.15	0.143	0.009
293.15	0.151	0.009
298.15	0.173	0.011
303.15	0.189	0.012
308.15	0.211	0.013
313.15	0.233	0.014
318.15	0.253	0.016
323.15	0.275	0.017
328.15	0.299	0.019
333.15	0.317	0.02
338.15	0.35	0.022
343.15	0.371	0.023
348.15	0.405	0.025
353.15	0.424	0.026

System: water + 1-octyl-3-methylimidazolium hexafluorophosphate; phases: Liquid mixture 1, Liquid mixture 2
Fixed: Pressure, kPa = 101
Property: Mole fraction of 1-octyl-3-methylimidazolium hexafluorophosphate (Liquid mixture 1); method: TITR:UFactor:4
Temperature, K	Mole fraction of 1-octyl-3-methylimidazolium hexafluorophosphate	uncertainty
285.85	9.4e-05	6e-06
293.95	0.000116	7e-06
299.05	0.000128	8e-06
307.35	0.000154	1e-05
311.35	0.000169	1.1e-05
318.15	0.000197	1.2e-05
324.75	0.000216	1.3e-05
328.15	0.000239	1.5e-05
331.15	0.000257	1.6e-05
338.85	0.000304	1.9e-05
343.35	0.000345	2.1e-05
348.45	0.000383	2.4e-05
353.75	0.000445	2.8e-05
358.55	0.000505	3.1e-05
364.55	0.000574	3.6e-05
