Measured thermophysical data. Liquid-Liquid Equilibria of Water + Acetoin + Butyl Acetate  at several temperatures
Source: J. Chem. Eng. Data, 2011, 10.1021/je100861u
Compound 1: butyl ethanoate, C6H12O2, InChI=1S/C6H12O2/c1-3-4-5-8-6(2)7/h3-5H2,1-2H3, purity 99.5%
Compound 2: water, H2O, InChI=1S/H2O/h1H2, purity 99.9%
Compound 3: 2,3-butanolone, C4H8O2, InChI=1S/C4H8O2/c1-3(5)4(2)6/h3,5H,1-2H3, purity 98%

System: butyl ethanoate; phases: Liquid, Gas
Property: Normal boiling temperature, K (Liquid); method: Distillation
Normal boiling temperature, K	uncertainty
399.11	0.5

System: butyl ethanoate; phases: Liquid
Property: Refractive index (Na D-line) (Liquid); method: Standard Abbe refractometry
Temperature, K	Pressure, kPa	Refractive index (Na D-line)	uncertainty
293.15	101.325	1.3941	0.0007

System: 2,3-butanolone; phases: Liquid, Gas
Property: Normal boiling temperature, K (Liquid); method: Distillation
Normal boiling temperature, K	uncertainty
421.53	0.54

System: 2,3-butanolone; phases: Liquid
Property: Refractive index (Na D-line) (Liquid); method: Standard Abbe refractometry
Temperature, K	Pressure, kPa	Refractive index (Na D-line)	uncertainty
293.15	101.325	1.4198	0.0008

System: butyl ethanoate + 2,3-butanolone + water; phases: Liquid mixture 1, Liquid mixture 2
Fixed: Pressure, kPa = 101.3
Property: Mass fraction of 2,3-butanolone (Liquid mixture 1); method: Titration method
Temperature, K	Mass fraction of water	Mass fraction of 2,3-butanolone	uncertainty
298.15	0.015	0.278	0.0111
298.15	0.0158	0	
298.15	0.016	0.3594	0.0144
298.15	0.018	0.2773	0.0111
298.15	0.0316	0.4164	0.0167
298.15	0.0429	0.4702	0.0188
298.15	0.0669	0.4936	0.0197
308.15	0.4048	0.5141	0.0194
308.15	0.4293	0.5061	0.0198
308.15	0.4679	0.4754	0.019
308.15	0.5183	0.4389	0.0176
308.15	0.581	0.3879	0.0155
308.15	0.6413	0.3333	0.0133
308.15	0.7456	0.2364	0.0095
308.15	0.9868	0	
318.15	0.5621	0.3935	0.0157
318.15	0.6203	0.3454	0.0138
318.15	0.6591	0.3075	0.0123
318.15	0.7065	0.2632	0.0105
318.15	0.7309	0.2403	0.0096
318.15	0.7946	0.1808	0.0072
318.15	0.8246	0.1499	0.006
318.15	0.8793	0.102	0.0041
318.15	0.9128	0.0682	0.0027
318.15	0.9504	0.0317	0.0013
318.15	0.9846	0	

System: butyl ethanoate + 2,3-butanolone + water; phases: Liquid mixture 2, Liquid mixture 1
Fixed: Pressure, kPa = 101.3
Property: Mass fraction of water (Liquid mixture 2); method: Titration method
Property: Mass fraction of water (Liquid mixture 1); method: Titration method
Property: Mass fraction of 2,3-butanolone (Liquid mixture 1); method: Titration method
Temperature, K	Mass fraction of 2,3-butanolone	Mass fraction of water	uncertainty	Mass fraction of water	uncertainty	Mass fraction of 2,3-butanolone	uncertainty
298.15	0.4969	0.4723	0.0146	0.0252	0.0041	0.3035	
298.15	0.4502	0.5164	0.015	0.0224	0.0041	0.2677	
298.15	0.3787	0.6023	0.0123	0.0216	0.004	0.173	
298.15	0.2431	0.7362	0.0085	0.0169	0.004	0.0694	
298.15	0.308	0.6721	0.0102	0.0225	0.0041	0.114	
298.15	0.4184	0.5611	0.0136	0.0238	0.0041	0.2224	
308.15	0.3781	0.5845	0.0129	0.0244	0.0041	0.1789	
308.15	0.2917	0.6884	0.0097	0.0212	0.004	0.1021	
308.15	0.3314	0.6413	0.0111	0.0222	0.004	0.119	
308.15	0.2583	0.7234	0.0088	0.0128	0.004	0.0785	
308.15	0.1897	0.7952	0.007	0.0132	0.004	0.0418	
308.15	0.2076	0.7688	0.0077	0.019	0.004	0.0526	
318.15	0.2914	0.675	0.0101	0.023	0.0041	0.0873	
318.15	0.4607	0.4777	0.0148	0.0403	0.0042	0.2163	
318.15	0.2636	0.7028	0.0093	0.022	0.004	0.0706	
318.15	0.24	0.7259	0.0087	0.0213	0.004	0.0516	
318.15	0.3304	0.6359	0.0113	0.0243	0.0041	0.1057	
318.15	0.2255	0.7454	0.0082	0.0229	0.0041	0.0387	
318.15	0.4063	0.5428	0.0142	0.0359	0.0041	0.1716	
