Measured thermophysical data. Liquid-Liquid and Vapor-Liquid-Liquid Equilibrium of the 4-Methyl-2-pentanone + 2-Butanol + Water System
Source: J. Chem. Eng. Data, 2011, 10.1021/je100940w
Compound 1: 4-methylpentan-2-one, C6H12O, InChI=1S/C6H12O/c1-5(2)4-6(3)7/h5H,4H2,1-3H3, purity 99.5%
Compound 2: butan-2-ol, C4H10O, InChI=1S/C4H10O/c1-3-4(2)5/h4-5H,3H2,1-2H3, purity 99%
Compound 3: water, H2O, InChI=1S/H2O/h1H2, purity 99.9%

System: 4-methylpentan-2-one; phases: Liquid
Property: Refractive index (Na D-line) (Liquid); method: Standard Abbe refractometry
Temperature, K	Pressure, kPa	Refractive index (Na D-line)	uncertainty
298.15	101.325	1.3936	0.0005

System: 4-methylpentan-2-one; phases: Liquid
Property: Mass density, kg/m3 (Liquid); method: Vibrating tube method
Temperature, K	Pressure, kPa	Mass density, kg/m3	uncertainty
298.15	101.325	795.94	0.14

System: butan-2-ol; phases: Liquid
Property: Refractive index (Na D-line) (Liquid); method: Standard Abbe refractometry
Temperature, K	Pressure, kPa	Refractive index (Na D-line)	uncertainty
298.15	101.325	1.3949	0.0005

System: butan-2-ol; phases: Liquid
Property: Mass density, kg/m3 (Liquid); method: Vibrating tube method
Temperature, K	Pressure, kPa	Mass density, kg/m3	uncertainty
298.15	101.325	802.35	0.24

System: water; phases: Liquid
Property: Refractive index (Na D-line) (Liquid); method: Standard Abbe refractometry
Temperature, K	Pressure, kPa	Refractive index (Na D-line)	uncertainty
298.15	101.325	1.3332	0.0005

System: water; phases: Liquid
Property: Mass density, kg/m3 (Liquid); method: Vibrating tube method
Temperature, K	Pressure, kPa	Mass density, kg/m3	uncertainty
298.15	101.325	997	0.04

System: butan-2-ol + 4-methylpentan-2-one + water; phases: Liquid mixture 1, Liquid mixture 2, Gas
Fixed: Pressure, kPa = 101.3
Property: Triple point temperature, K (Liquid mixture 1); method: Recirculating still
Mole fraction of 4-methylpentan-2-one	Triple point temperature, K	uncertainty
0	360.4	0.1
0.027	360.2	0.1
0.058	360	0.1
0.09	359.8	0.1
0.131	359.8	0.1
0.198	359.7	0.1
0.264	359.7	0.1
0.4	359.7	0.1
0.531	359.9	0.1
0.6	360.1	0.1
0.697	360.4	0.1
0.767	360.7	0.1
0.883	361	0.1

System: butan-2-ol + 4-methylpentan-2-one + water; phases: Liquid mixture 2, Liquid mixture 1, Gas
Fixed: Pressure, kPa = 101.3
Property: Mole fraction of butan-2-ol (Liquid mixture 2); method: CHROM:UFactor:6
Mole fraction of 4-methylpentan-2-one	Mole fraction of butan-2-ol	uncertainty
0	0.032	0.002
0.027	0.022	0.002
0.058	0.019	0.002
0.09	0.016	0.002
0.131	0.018	0.002
0.198	0.012	0.002
0.264	0.01	0.002
0.4	0.007	0.002
0.531	0.005	0.002
0.6	0.004	0.002
0.697	0.002	0.002
0.767	0.001	0.001
0.883	0	

System: butan-2-ol + 4-methylpentan-2-one + water; phases: Gas, Liquid mixture 1, Liquid mixture 2
Fixed: Pressure, kPa = 101.3
Property: Mole fraction of butan-2-ol (Gas); method: CHROM:UFactor:6
Mole fraction of 4-methylpentan-2-one	Mole fraction of butan-2-ol	uncertainty
0	0.358	0.017
0.027	0.324	0.015
0.058	0.298	0.014
0.09	0.277	0.013
0.131	0.254	0.012
0.198	0.223	0.01
0.264	0.2	0.01
0.4	0.16	0.01
0.531	0.118	0.01
0.6	0.096	0.01
0.697	0.063	0.01
0.767	0.025	0.01
0.883	0	0.01

System: butan-2-ol + 4-methylpentan-2-one + water; phases: Liquid mixture 1, Liquid mixture 2, Gas
Fixed: Pressure, kPa = 101.3
Property: Mole fraction of butan-2-ol (Liquid mixture 1); method: CHROM:UFactor:6
Mole fraction of 4-methylpentan-2-one	Mole fraction of butan-2-ol	uncertainty
0	0.314	0.015
0.027	0.296	0.014
0.058	0.316	0.015
0.09	0.31	0.014
0.131	0.313	0.015
0.198	0.307	0.014
0.264	0.299	0.014
0.4	0.263	0.012
0.531	0.204	0.01
0.6	0.163	0.008
0.697	0.102	0.005
0.767	0.038	0.003
0.883	0	

System: butan-2-ol + 4-methylpentan-2-one + water; phases: Gas, Liquid mixture 1, Liquid mixture 2
Fixed: Pressure, kPa = 101.3
Property: Mole fraction of 4-methylpentan-2-one (Gas); method: CHROM:UFactor:4
Mole fraction of 4-methylpentan-2-one	Mole fraction of 4-methylpentan-2-one	uncertainty
0	0	
0.027	0.04	0.003
0.058	0.072	0.003
0.09	0.1	0.004
0.131	0.124	0.004
0.198	0.152	0.005
0.264	0.176	0.006
0.4	0.217	0.007
0.531	0.242	0.008
0.6	0.266	0.008
0.697	0.296	0.009
0.767	0.322	0.01
0.883	0.337	0.01

System: butan-2-ol + 4-methylpentan-2-one + water; phases: Liquid mixture 2, Liquid mixture 1, Gas
Fixed: Pressure, kPa = 101.3
Property: Mole fraction of 4-methylpentan-2-one (Liquid mixture 2); method: CHROM:UFactor:4
Mole fraction of 4-methylpentan-2-one	Mole fraction of 4-methylpentan-2-one	uncertainty
0	0	
0.027	0.001	0.001
0.058	0.001	0.001
0.09	0.001	0.001
0.131	0.002	0.002
0.198	0.002	0.002
0.264	0.003	0.002
0.4	0.002	0.002
0.531	0.003	0.002
0.6	0.005	0.002
0.697	0.002	0.002
0.767	0.004	0.002
0.883	0.002	0.002

System: butan-2-ol + 4-methylpentan-2-one + water; phases: Liquid mixture 1, Liquid mixture 2
Fixed: Pressure, kPa = 101.3
Property: Mole fraction of butan-2-ol (Liquid mixture 1); method: CHROM:UFactor:6
Property: Mole fraction of 4-methylpentan-2-one (Liquid mixture 2); method: CHROM:UFactor:6
Property: Mole fraction of butan-2-ol (Liquid mixture 2); method: CHROM:UFactor:6
Temperature, K	Mole fraction of 4-methylpentan-2-one	Mole fraction of butan-2-ol	uncertainty	Mole fraction of 4-methylpentan-2-one	uncertainty	Mole fraction of butan-2-ol	uncertainty
298.15	0.899	0		0.003	0.002	0	
298.15	0.839	0.045	0.003	0.004	0.002	0.004	
298.15	0.747	0.106	0.005	0.004	0.002	0.01	
298.15	0.655	0.164	0.008	0.002	0.002	0.014	
298.15	0.579	0.205	0.01	0.002	0.002	0.016	
298.15	0.476	0.253	0.012	0.002	0.002	0.02	
298.15	0.369	0.286	0.013	0.004	0.002	0.023	
298.15	0.223	0.313	0.015	0.003	0.002	0.028	
298.15	0.24	0.312	0.015	0.003	0.002	0.028	
298.15	0.162	0.314	0.015	0.003	0.002	0.031	
298.15	0.096	0.306	0.014	0.002	0.002	0.036	
298.15	0.054	0.295	0.014	0.002	0.002	0.042	
298.15	0.038	0.293	0.014	0.002	0.002	0.046	
298.15	0	0.271	0.013	0		0.068	
333.15	0.917	0		0.001	0.001	0	
333.15	0.824	0.048	0.003	0.002	0.002	0.002	
333.15	0.711	0.128	0.006	0.001	0.001	0.004	
333.15	0.615	0.181	0.009	0.001	0.001	0.005	
333.15	0.552	0.227	0.011	0.001	0.001	0.007	
333.15	0.436	0.267	0.012	0.001	0.001	0.008	
333.15	0.349	0.312	0.015	0.001	0.001	0.011	
333.15	0.277	0.312	0.015	0.001	0.001	0.012	
333.15	0.211	0.324	0.015	0.001	0.001	0.014	
333.15	0.154	0.335	0.016	0.001	0.001	0.016	
333.15	0.092	0.335	0.016	0		0.02	
333.15	0.051	0.33	0.015	0		0.023	
333.15	0	0.33	0.015	0		0.024	
333.15	0.01	0.296	0.015	0		0.024	
