Measured thermophysical data. Liquid-Liquid Equilibrium of Potassium Phosphate/Potassium Citrate/Sodium Citrate + Ethanol Aqueous Two-Phase Systems at (298.15 and 313.15) K and Correlation
Source: J. Chem. Eng. Data, 2010, 10.1021/je100501f
Compound 1: ethanol, C2H6O, InChI=1S/C2H6O/c1-2-3/h3H,2H2,1H3, purity 99.7%
Compound 2: tripotassium phosphate, K3O4P, InChI=1S/3K.H3O4P/c;;;1-5(2,3)4/h;;;(H3,1,2,3,4)/q3*+1;/p-3, purity 99%
Compound 3: potassium citrate, C6H5K3O7, InChI=1S/C6H8O7.3K/c7-3(8)1-6(13,5(11)12)2-4(9)10;;;/h13H,1-2H2,(H,7,8)(H,9,10)(H,11,12);;;/q;3*+1/p-3, purity 99.5%
Compound 4: trisodium citrate, C6H5Na3O7, InChI=1S/C6H8O7.3Na/c7-3(8)1-6(13,5(11)12)2-4(9)10;;;/h13H,1-2H2,(H,7,8)(H,9,10)(H,11,12);;;/q;3*+1/p-3, purity 99%
Compound 5: water, H2O, InChI=1S/H2O/h1H2

System: ethanol + water + tripotassium phosphate; phases: Liquid mixture 1, Liquid mixture 2
Fixed: Pressure, kPa = 101
Property: Mass fraction of tripotassium phosphate (Liquid mixture 1); method: Titration method
Temperature, K	Mass fraction of ethanol	Mass fraction of tripotassium phosphate	uncertainty
298.15	0.0068	0.3974	0.0159
298.15	0.0089	0.3913	0.0157
298.15	0.017	0.3402	0.0136
298.15	0.0274	0.3099	0.0124
298.15	0.0337	0.2941	0.0118
298.15	0.0438	0.2753	0.011
298.15	0.0555	0.2563	0.0103
298.15	0.0598	0.2517	0.0101
298.15	0.0995	0.2082	0.0083
298.15	0.1315	0.1794	0.0072
298.15	0.139	0.175	0.007
298.15	0.1702	0.1507	0.006
298.15	0.1965	0.1318	0.0053
298.15	0.2097	0.1222	0.0049
298.15	0.2445	0.0993	0.004
298.15	0.2728	0.0829	0.0033
298.15	0.2953	0.0711	0.0028
298.15	0.3209	0.0591	0.0024
298.15	0.344	0.0507	0.002
298.15	0.3787	0.0378	0.0015
298.15	0.417	0.0275	0.0011
298.15	0.4321	0.0242	0.001
298.15	0.4458	0.0213	0.0009
298.15	0.4865	0.0147	0.0006
298.15	0.5208	0.0104	0.0004
298.15	0.5421	0.0083	0.0003
298.15	0.5847	0.0052	0.0002
313.15	0.0065	0.4033	0.0161
313.15	0.0191	0.3329	0.0133
313.15	0.0267	0.3163	0.0127
313.15	0.0629	0.2449	0.0098
313.15	0.1162	0.1912	0.0076
313.15	0.1541	0.1624	0.0065
313.15	0.1644	0.1539	0.0062
313.15	0.226	0.1141	0.0046
313.15	0.2731	0.0864	0.0035
313.15	0.3057	0.0698	0.0028
313.15	0.3585	0.0474	0.0019
313.15	0.3665	0.0448	0.0018
313.15	0.4147	0.0303	0.0012
313.15	0.4496	0.0224	0.0009
313.15	0.4692	0.0179	0.0007

System: ethanol + water + tripotassium phosphate; phases: Liquid mixture 2, Liquid mixture 1
Fixed: Temperature, K = 298.15
Fixed: Pressure, kPa = 101.33
Property: Mass fraction of ethanol (Liquid mixture 2); method: OTHER
Property: Mass fraction of tripotassium phosphate (Liquid mixture 1); method: OTHER
Property: Mass fraction of ethanol (Liquid mixture 1); method: OTHER
Mass fraction of tripotassium phosphate	Mass fraction of ethanol	uncertainty	Mass fraction of tripotassium phosphate	uncertainty	Mass fraction of ethanol	uncertainty
0.3072	0.0288	0.001	0.0116	0.001	0.51	
0.3527	0.014	0.001	0.0037	0.001	0.6135	
0.2949	0.0344	0.001	0.0158	0.001	0.4777	
0.3334	0.0193	0.001	0.0063	0.001	0.5687	
0.291	0.0363	0.001	0.0185	0.001	0.4607	

System: ethanol + potassium citrate + water; phases: Liquid mixture 1, Liquid mixture 2
Fixed: Pressure, kPa = 101
Property: Mass fraction of potassium citrate (Liquid mixture 1); method: Titration method
Temperature, K	Mass fraction of ethanol	Mass fraction of potassium citrate	uncertainty
298.15	0.0204	0.5622	0.0175
298.15	0.0213	0.553	0.0179
298.15	0.0327	0.4948	0.0198
298.15	0.0345	0.4891	0.0196
298.15	0.0509	0.4323	0.0173
298.15	0.0725	0.383	0.0153
298.15	0.098	0.3411	0.0136
298.15	0.124	0.3062	0.0122
298.15	0.1301	0.2977	0.0119
298.15	0.2073	0.2245	0.009
298.15	0.2649	0.178	0.0071
298.15	0.3077	0.1465	0.0059
298.15	0.3367	0.1258	0.005
298.15	0.3878	0.093	0.0037
298.15	0.4248	0.0725	0.0029
298.15	0.4527	0.0589	0.0024
298.15	0.5187	0.0342	0.0014
298.15	0.5191	0.034	0.0014
298.15	0.5593	0.0235	0.0009
298.15	0.5775	0.0194	0.0008
298.15	0.6139	0.0131	0.0005
298.15	0.6166	0.0128	0.0005
298.15	0.6304	0.0109	0.0004
298.15	0.671	0.0066	0.0003
298.15	0.6924	0.0049	0.0002
313.15	0.0195	0.5765	0.0169
313.15	0.031	0.5055	0.0198
313.15	0.0381	0.4777	0.0191
313.15	0.0502	0.4449	0.0178
313.15	0.0607	0.4046	0.0162
313.15	0.088	0.3483	0.0139
313.15	0.1086	0.316	0.0126
313.15	0.1736	0.2493	0.01
313.15	0.183	0.2393	0.0096
313.15	0.2422	0.1913	0.0077
313.15	0.3034	0.1494	0.006
313.15	0.4042	0.0857	0.0034
313.15	0.4597	0.0579	0.0023
313.15	0.4987	0.0423	0.0017
313.15	0.5226	0.0342	0.0014
313.15	0.6027	0.0158	0.0006

System: ethanol + potassium citrate + water; phases: Liquid mixture 2, Liquid mixture 1
Fixed: Temperature, K = 298.15
Fixed: Pressure, kPa = 101.33
Property: Mass fraction of ethanol (Liquid mixture 2); method: OTHER
Property: Mass fraction of potassium citrate (Liquid mixture 1); method: OTHER
Property: Mass fraction of ethanol (Liquid mixture 1); method: OTHER
Mass fraction of potassium citrate	Mass fraction of ethanol	uncertainty	Mass fraction of potassium citrate	uncertainty	Mass fraction of ethanol	uncertainty
0.2915	0.141	0.001	0.0741	0.001	0.4208	
0.3366	0.1046	0.001	0.0455	0.001	0.4858	
0.4024	0.0638	0.001	0.0189	0.001	0.5819	
0.431	0.0503	0.001	0.0116	0.001	0.6262	
0.4518	0.042	0.001	0.0085	0.001	0.6511	

System: ethanol + trisodium citrate + water; phases: Liquid mixture 1, Liquid mixture 2
Fixed: Temperature, K = 298.15
Fixed: Pressure, kPa = 101
Property: Mass fraction of trisodium citrate (Liquid mixture 1); method: Titration method
Mass fraction of ethanol	Mass fraction of trisodium citrate	uncertainty
0.0881	0.3171	0.0127
0.1142	0.2816	0.0113
0.1402	0.2522	0.0101
0.1656	0.2271	0.0091
0.1875	0.2065	0.0083
0.2001	0.1951	0.0078
0.2154	0.1816	0.0073
0.2557	0.1491	0.006
0.2867	0.1258	0.005
0.3131	0.1072	0.0043
0.319	0.1026	0.0041
0.3343	0.0927	0.0037
0.3872	0.0628	0.0025
0.4248	0.0462	0.0018
0.4442	0.0395	0.0016
0.4541	0.0361	0.0014
0.4891	0.0264	0.0011
0.5223	0.0192	0.0008
0.5325	0.0175	0.0007
0.548	0.0148	0.0006
0.5718	0.0115	0.0005
0.6001	0.0084	0.0003
0.6224	0.0065	0.0003

System: ethanol + trisodium citrate + water; phases: Liquid mixture 2, Liquid mixture 1
Fixed: Temperature, K = 298.15
Fixed: Pressure, kPa = 101.33
Property: Mass fraction of ethanol (Liquid mixture 2); method: OTHER
Property: Mass fraction of trisodium citrate (Liquid mixture 1); method: OTHER
Property: Mass fraction of ethanol (Liquid mixture 1); method: OTHER
Mass fraction of trisodium citrate	Mass fraction of ethanol	uncertainty	Mass fraction of trisodium citrate	uncertainty	Mass fraction of ethanol	uncertainty
0.3193	0.0856	0.001	0.0449	0.001	0.4289	
0.3253	0.0815	0.001	0.0399	0.001	0.4427	
0.342	0.0707	0.001	0.0278	0.001	0.4833	
0.346	0.0683	0.001	0.0245	0.001	0.497	
