Measured thermophysical data. Thermophysical properties of the binary mixtures of  1,2-Dichloroethane with Chlorobenzene and Bromobenzene  from 298.15 to 313.15 K
Source: J. Chem. Eng. Data, 2010, 10.1021/je100552a
Compound 1: 1,2-dichloroethane, C2H4Cl2, InChI=1S/C2H4Cl2/c3-1-2-4/h1-2H2, purity 99%
Compound 2: chlorobenzene, C6H5Cl, InChI=1S/C6H5Cl/c7-6-4-2-1-3-5-6/h1-5H, purity 99%
Compound 3: bromobenzene, C6H5Br, InChI=1S/C6H5Br/c7-6-4-2-1-3-5-6/h1-5H, purity 99%

System: 1,2-dichloroethane; phases: Liquid
Fixed: Pressure, kPa = 101.325
Property: Viscosity, Pa*s (Liquid); method: Capillary tube (Ostwald; Ubbelohde) method
Temperature, K	Viscosity, Pa*s	uncertainty
298.15	0.0007902	6.4e-06
303.15	0.0007291	6e-06
308.15	0.0006739	5.6e-06
313.15	0.0006441	5.3e-06

System: 1,2-dichloroethane; phases: Liquid
Fixed: Pressure, kPa = 101.325
Property: Refractive index (Na D-line) (Liquid); method: Standard Abbe refractometry
Temperature, K	Refractive index (Na D-line)	uncertainty
298.15	1.4416	0.0005
303.15	1.4383	0.0005
308.15	1.4336	0.0005
313.15	1.4311	0.0005

System: 1,2-dichloroethane; phases: Liquid
Fixed: Pressure, kPa = 101.325
Property: Mass density, kg/m3 (Liquid); method: Vibrating tube method
Temperature, K	Mass density, kg/m3	uncertainty
298.15	1246.7	0.4
303.15	1240.8	0.4
308.15	1230.5	0.4
313.15	1225.6	0.4

System: chlorobenzene; phases: Liquid
Fixed: Pressure, kPa = 101.325
Property: Viscosity, Pa*s (Liquid); method: Capillary tube (Ostwald; Ubbelohde) method
Temperature, K	Viscosity, Pa*s	uncertainty
298.15	0.0007568	6.2e-06
303.15	0.0007258	5.9e-06
308.15	0.000677	5.6e-06
313.15	0.000624	5.2e-06

System: chlorobenzene; phases: Liquid
Fixed: Pressure, kPa = 101.325
Property: Refractive index (Na D-line) (Liquid); method: Standard Abbe refractometry
Temperature, K	Refractive index (Na D-line)	uncertainty
298.15	1.5222	0.0005
303.15	1.5192	0.0005
308.15	1.5163	0.0005
313.15	1.5115	0.0005

System: chlorobenzene; phases: Liquid
Fixed: Pressure, kPa = 101.325
Property: Mass density, kg/m3 (Liquid); method: Vibrating tube method
Temperature, K	Mass density, kg/m3	uncertainty
298.15	1100.4	0.3
303.15	1094.9	0.3
308.15	1089.4	0.3
313.15	1083.9	0.3

System: bromobenzene; phases: Liquid
Fixed: Pressure, kPa = 101.325
Property: Viscosity, Pa*s (Liquid); method: Capillary tube (Ostwald; Ubbelohde) method
Temperature, K	Viscosity, Pa*s	uncertainty
298.15	0.001082	8.5e-06
303.15	0.0010146	8e-06
308.15	0.000954	7.6e-06
313.15	0.000878	7.1e-06

System: bromobenzene; phases: Liquid
Fixed: Pressure, kPa = 101.325
Property: Refractive index (Na D-line) (Liquid); method: Standard Abbe refractometry
Temperature, K	Refractive index (Na D-line)	uncertainty
298.15	1.5578	0.0005
303.15	1.5538	0.0005
308.15	1.5514	0.0005
313.15	1.5468	0.0005

System: bromobenzene; phases: Liquid
Fixed: Pressure, kPa = 101.325
Property: Mass density, kg/m3 (Liquid); method: Vibrating tube method
Temperature, K	Mass density, kg/m3	uncertainty
298.15	1489.4	0.7
303.15	1481.1	0.7
308.15	1475.8	0.7
313.15	1467.3	0.6

System: 1,2-dichloroethane + chlorobenzene; phases: Liquid
Fixed: Pressure, kPa = 101
Property: Viscosity, Pa*s (Liquid); method: Capillary tube (Ostwald; Ubbelohde) method
Temperature, K	Mole fraction of 1,2-dichloroethane	Viscosity, Pa*s	uncertainty
298.15	0.1022	0.0007456	6.1e-06
298.15	0.2015	0.0007387	6e-06
298.15	0.3013	0.0007351	6e-06
298.15	0.4039	0.0007364	6e-06
298.15	0.4999	0.0007372	6e-06
298.15	0.5977	0.000741	6e-06
298.15	0.6986	0.0007445	6.1e-06
298.15	0.8	0.0007536	6.1e-06
298.15	0.899	0.0007659	6.2e-06
303.15	0.1022	0.0007146	5.9e-06
303.15	0.2015	0.0007049	5.8e-06
303.15	0.3013	0.0006991	5.7e-06
303.15	0.4039	0.0006969	5.7e-06
303.15	0.4999	0.0006963	5.7e-06
303.15	0.5977	0.0006973	5.7e-06
303.15	0.6986	0.0006975	5.7e-06
303.15	0.8	0.0007009	5.8e-06
303.15	0.899	0.00071	5.8e-06
308.15	0.1022	0.0006659	5.5e-06
308.15	0.2015	0.0006595	5.5e-06
308.15	0.3013	0.0006542	5.4e-06
308.15	0.4039	0.0006505	5.4e-06
308.15	0.4999	0.0006506	5.4e-06
308.15	0.5977	0.00065	5.4e-06
308.15	0.6986	0.0006493	5.4e-06
308.15	0.8	0.000653	5.4e-06
308.15	0.899	0.0006574	5.4e-06
313.15	0.1022	0.000619	5.2e-06
313.15	0.2015	0.0006151	5.1e-06
313.15	0.3013	0.0006143	5.1e-06
313.15	0.4039	0.0006119	5.1e-06
313.15	0.4999	0.0006125	5.1e-06
313.15	0.5977	0.0006158	5.1e-06
313.15	0.6986	0.0006191	5.2e-06
313.15	0.8	0.0006241	5.2e-06
313.15	0.899	0.0006314	5.2e-06

System: 1,2-dichloroethane + chlorobenzene; phases: Liquid
Fixed: Pressure, kPa = 101
Property: Refractive index (Na D-line) (Liquid); method: Standard Abbe refractometry
Temperature, K	Mole fraction of 1,2-dichloroethane	Refractive index (Na D-line)	uncertainty
298.15	0.1022	1.5149	0.0005
298.15	0.2015	1.508	0.0005
298.15	0.3013	1.5012	0.0005
298.15	0.4039	1.4935	0.0005
298.15	0.4999	1.486	0.0005
298.15	0.5977	1.4781	0.0005
298.15	0.6986	1.4696	0.0005
298.15	0.8	1.4607	0.0005
298.15	0.899	1.4516	0.0005
303.15	0.1022	1.512	0.0005
303.15	0.2015	1.5052	0.0005
303.15	0.3013	1.4983	0.0005
303.15	0.4039	1.4908	0.0005
303.15	0.4999	1.4832	0.0005
303.15	0.5977	1.4752	0.0005
303.15	0.6986	1.4666	0.0005
303.15	0.8	1.4576	0.0005
303.15	0.899	1.4484	0.0005
308.15	0.1022	1.509	0.0005
308.15	0.2015	1.5022	0.0005
308.15	0.3013	1.4951	0.0005
308.15	0.4039	1.4873	0.0005
308.15	0.4999	1.4797	0.0005
308.15	0.5977	1.4715	0.0005
308.15	0.6986	1.4626	0.0005
308.15	0.8	1.4534	0.0005
308.15	0.899	1.444	0.0005
313.15	0.1022	1.5049	0.0005
313.15	0.2015	1.4983	0.0005
313.15	0.3013	1.4915	0.0005
313.15	0.4039	1.4838	0.0005
313.15	0.4999	1.4763	0.0005
313.15	0.5977	1.4682	0.0005
313.15	0.6986	1.4595	0.0005
313.15	0.8	1.4503	0.0005
313.15	0.899	1.441	0.0005

System: 1,2-dichloroethane + chlorobenzene; phases: Liquid
Fixed: Pressure, kPa = 101
Property: Mass density, kg/m3 (Liquid); method: VIBTUB:UFactor:6
Temperature, K	Mole fraction of 1,2-dichloroethane	Mass density, kg/m3	uncertainty
298.15	0.1022	1111.56	0.69
298.15	0.2015	1123.05	0.72
298.15	0.3013	1135.29	0.76
298.15	0.4039	1148.64	0.8
298.15	0.4999	1161.91	0.83
298.15	0.5977	1176.36	0.87
298.15	0.6986	1192.24	0.92
298.15	0.8	1209.3	0.97
298.15	0.899	1227.12	1.02
303.15	0.1022	1106.04	0.68
303.15	0.2015	1117.48	0.71
303.15	0.3013	1129.68	0.74
303.15	0.4039	1142.96	0.78
303.15	0.4999	1156.2	0.82
303.15	0.5977	1170.62	0.86
303.15	0.6986	1186.46	0.9
303.15	0.8	1203.48	0.95
303.15	0.899	1221.28	1
308.15	0.1022	1100.15	0.66
308.15	0.2015	1111.22	0.69
308.15	0.3013	1123.02	0.72
308.15	0.4039	1135.91	0.76
308.15	0.4999	1148.68	0.8
308.15	0.5977	1162.62	0.84
308.15	0.6986	1177.92	0.88
308.15	0.8	1194.4	0.93
308.15	0.899	1211.62	0.97
313.15	0.1022	1094.68	0.65
313.15	0.2015	1105.79	0.68
313.15	0.3013	1117.62	0.71
313.15	0.4039	1130.48	0.75
313.15	0.4999	1143.37	0.78
313.15	0.5977	1157.36	0.82
313.15	0.6986	1172.73	0.86
313.15	0.8	1189.28	0.91
313.15	0.899	1206.59	0.96

System: 1,2-dichloroethane + bromobenzene; phases: Liquid
Fixed: Pressure, kPa = 101
Property: Viscosity, Pa*s (Liquid); method: Capillary tube (Ostwald; Ubbelohde) method
Temperature, K	Mole fraction of 1,2-dichloroethane	Viscosity, Pa*s	uncertainty
298.15	0.1014	0.001041	8.2e-06
298.15	0.2002	0.0010036	8e-06
298.15	0.3004	0.0009677	7.7e-06
298.15	0.3999	0.0009348	7.5e-06
298.15	0.5008	0.0009036	7.2e-06
298.15	0.6001	0.0008752	7e-06
298.15	0.6999	0.0008496	6.8e-06
298.15	0.7995	0.0008268	6.7e-06
298.15	0.8998	0.0008058	6.5e-06
303.15	0.1014	0.0009749	7.8e-06
303.15	0.2002	0.0009388	7.5e-06
303.15	0.3004	0.000904	7.2e-06
303.15	0.3999	0.0008714	7e-06
303.15	0.5008	0.0008409	6.8e-06
303.15	0.6001	0.0008141	6.6e-06
303.15	0.6999	0.0007886	6.4e-06
303.15	0.7995	0.0007646	6.2e-06
303.15	0.8998	0.0007445	6.1e-06
308.15	0.1014	0.0009162	7.3e-06
308.15	0.2002	0.0008809	7.1e-06
308.15	0.3004	0.0008474	6.8e-06
308.15	0.3999	0.000815	6.6e-06
308.15	0.5008	0.0007839	6.4e-06
308.15	0.6001	0.0007583	6.2e-06
308.15	0.6999	0.0007321	6e-06
308.15	0.7995	0.000711	5.8e-06
308.15	0.8998	0.0006904	5.7e-06
313.15	0.1014	0.0008463	6.8e-06
313.15	0.2002	0.0008155	6.6e-06
313.15	0.3004	0.000787	6.4e-06
313.15	0.3999	0.0007607	6.2e-06
313.15	0.5008	0.0007355	6e-06
313.15	0.6001	0.000712	5.8e-06
313.15	0.6999	0.0006917	5.7e-06
313.15	0.7995	0.0006728	5.5e-06
313.15	0.8998	0.0006569	5.4e-06

System: 1,2-dichloroethane + bromobenzene; phases: Liquid
Fixed: Pressure, kPa = 101
Property: Refractive index (Na D-line) (Liquid); method: Standard Abbe refractometry
Temperature, K	Mole fraction of 1,2-dichloroethane	Refractive index (Na D-line)	uncertainty
298.15	0.1014	1.5479	0.0005
298.15	0.2002	1.5398	0.0005
298.15	0.3004	1.5313	0.0005
298.15	0.3999	1.5218	0.0005
298.15	0.5008	1.5107	0.0005
298.15	0.6001	1.4984	0.0005
298.15	0.6999	1.4847	0.0005
298.15	0.7995	1.4704	0.0005
298.15	0.8998	1.4559	0.0005
303.15	0.1014	1.5439	0.0005
303.15	0.2002	1.5355	0.0005
303.15	0.3004	1.5266	0.0005
303.15	0.3999	1.517	0.0005
303.15	0.5008	1.506	0.0005
303.15	0.6001	1.494	0.0005
303.15	0.6999	1.4808	0.0005
303.15	0.7995	1.4671	0.0005
303.15	0.8998	1.4528	0.0005
308.15	0.1014	1.5412	0.0005
308.15	0.2002	1.5321	0.0005
308.15	0.3004	1.5227	0.0005
308.15	0.3999	1.5128	0.0005
308.15	0.5008	1.5015	0.0005
308.15	0.6001	1.4893	0.0005
308.15	0.6999	1.4761	0.0005
308.15	0.7995	1.4622	0.0005
308.15	0.8998	1.4479	0.0005
313.15	0.1014	1.5372	0.0005
313.15	0.2002	1.5279	0.0005
313.15	0.3004	1.5182	0.0005
313.15	0.3999	1.5079	0.0005
313.15	0.5008	1.4967	0.0005
313.15	0.6001	1.4849	0.0005
313.15	0.6999	1.4722	0.0005
313.15	0.7995	1.459	0.0005
313.15	0.8998	1.4452	0.0005

System: 1,2-dichloroethane + bromobenzene; phases: Liquid
Fixed: Pressure, kPa = 101
Property: Mass density, kg/m3 (Liquid); method: Vibrating tube method
Temperature, K	Mole fraction of 1,2-dichloroethane	Mass density, kg/m3	uncertainty
298.15	0.1014	1469.57	0.64
298.15	0.2002	1449.41	0.62
298.15	0.3004	1428.09	0.6
298.15	0.3999	1406.01	0.58
298.15	0.5008	1382.5	0.56
298.15	0.6001	1358.18	0.54
298.15	0.6999	1332.44	0.52
298.15	0.7995	1305.43	0.49
298.15	0.8998	1276.72	0.47
303.15	0.1014	1461.55	0.64
303.15	0.2002	1441.65	0.62
303.15	0.3004	1420.51	0.6
303.15	0.3999	1398.59	0.58
303.15	0.5008	1375.26	0.55
303.15	0.6001	1351.21	0.53
303.15	0.6999	1325.77	0.51
303.15	0.7995	1299.12	0.49
303.15	0.8998	1270.73	0.46
308.15	0.1014	1455.77	0.63
308.15	0.2002	1435.38	0.61
308.15	0.3004	1413.75	0.59
308.15	0.3999	1391.37	0.57
308.15	0.5008	1367.54	0.55
308.15	0.6001	1342.97	0.52
308.15	0.6999	1317.02	0.5
308.15	0.7995	1289.84	0.48
308.15	0.8998	1260.96	0.45
313.15	0.1014	1447.63	0.62
313.15	0.2002	1427.53	0.6
313.15	0.3004	1406.26	0.58
313.15	0.3999	1384.19	0.56
313.15	0.5008	1360.71	0.54
313.15	0.6001	1336.5	0.52
313.15	0.6999	1310.92	0.5
313.15	0.7995	1284.14	0.47
313.15	0.8998	1255.65	0.45
