Measured thermophysical data. P-p-T Data for Carbon Dioxide from (310 to 450) K up to 160 MPa
Source: J. Chem. Eng. Data, 2010, 10.1021/je1001158
Compound 1: carbon dioxide, CO2, InChI=1S/CO2/c2-1-3, purity 99.999%

System: carbon dioxide; phases: Fluid (supercritical or subcritical phases)
Property: Mass density, kg/m3 (Fluid (supercritical or subcritical phases)); method: MSONE:UFactor:0.5
Temperature, K	Pressure, kPa	Mass density, kg/m3	uncertainty
310	1998	37.614	0.209
310	5002	116.171	0.674
310	10014	686.16	0.361
310	19987	856.152	0.107
310	29966	921.817	0.066
310	49929	999.875	0.137
310	75042	1062.566	0.107
310	100055	1108.29	0.093
310	125012	1144.813	0.088
310	139289	1162.991	0.085
310	149970	1175.569	0.083
310	159844	1186.558	0.083
350	2011	32.349	0.152
350	5001	89.638	0.2
350	9986	228.244	0.258
350	19981	613.586	0.215
350	30013	758.897	0.081
350	50017	884.809	0.191
350	74904	969.636	0.127
350	99977	1027.564	0.102
350	124895	1071.804	0.098
400	999	13.455	0.108
400	1998	27.43	0.117
400	4998	72.779	0.135
400	10021	161.96	0.156
400	14986	267.104	0.176
400	20028	381.082	0.172
400	25054	482.518	0.165
400	29994	561.435	0.118
400	35005	623.368	0.079
400	39985	672.037	0.076
400	49967	745.445	0.259
400	59920	799.163	0.199
400	69997	842.031	0.17
400	79880	876.766	0.134
400	89950	906.957	0.134
400	99838	932.857	0.113
400	109931	956.349	0.105
400	120079	977.599	0.104
400	126010	989.102	0.091
400	139527	1013.251	0.093
450	4998	62.269	0.111
450	9998	131.635	0.12
450	19983	284.802	0.121
450	29992	430.142	0.093
450	49933	626.132	0.294
450	75024	762.158	0.183
450	99833	847.163	0.131
450	122193	903.768	0.115
