Measured thermophysical data. Viscometric Behavior of Binary Mixtures of Butan-2-one with Benzene at T = (303.15, 313.15, and 323.15) K
Source: J. Chem. Eng. Data, 2011, 10.1021/je1011604
Compound 1: butanone, C4H8O, InChI=1S/C4H8O/c1-3-4(2)5/h3H2,1-2H3, purity 98%
Compound 2: benzene, C6H6, InChI=1S/C6H6/c1-2-4-6-5-3-1/h1-6H, purity 99%

System: butanone; phases: Liquid
Fixed: Pressure, kPa = 101.325
Property: Mass density, kg/m3 (Liquid); method: Pycnometric method
Temperature, K	Mass density, kg/m3	uncertainty
303.15	794.6	0.8
313.15	784	0.8
323.15	773.3	0.8

System: benzene; phases: Liquid
Fixed: Pressure, kPa = 101.325
Property: Mass density, kg/m3 (Liquid); method: Pycnometric method
Temperature, K	Mass density, kg/m3	uncertainty
303.15	868.1	0.5
313.15	857.4	0.6
323.15	846.6	0.6

System: benzene + butanone; phases: Liquid
Fixed: Pressure, kPa = 101
Property: Viscosity, Pa*s (Liquid); method: Capillary tube (Ostwald; Ubbelohde) method
Temperature, K	Mole fraction of butanone	Viscosity, Pa*s	uncertainty
303.15	0	0.000564	1.1e-05
303.15	0.101	0.000534	1.1e-05
303.15	0.1999	0.000508	1.1e-05
303.15	0.2988	0.000478	1.1e-05
303.15	0.3969	0.000452	1.1e-05
303.15	0.4996	0.000432	1.1e-05
303.15	0.5988	0.000417	1.1e-05
303.15	0.6993	0.000401	1.1e-05
303.15	0.7931	0.000389	1.1e-05
303.15	0.8961	0.000376	1.1e-05
303.15	1	0.000367	1.1e-05
313.15	0	0.000498	1.1e-05
313.15	0.101	0.000473	1.1e-05
313.15	0.1999	0.000448	1.1e-05
313.15	0.2988	0.000427	1.1e-05
313.15	0.3969	0.000409	1.1e-05
313.15	0.4996	0.000393	1.1e-05
313.15	0.5988	0.000378	1.1e-05
313.15	0.6993	0.000367	1.1e-05
313.15	0.7931	0.000355	1.1e-05
313.15	0.8961	0.000345	1.1e-05
313.15	1	0.000334	1.1e-05
323.15	0	0.000442	1.1e-05
323.15	0.101	0.000422	1.1e-05
323.15	0.1999	0.000403	1.1e-05
323.15	0.2988	0.000384	1.1e-05
323.15	0.3969	0.000369	1.1e-05
323.15	0.4996	0.000354	1.1e-05
323.15	0.5988	0.000343	1.1e-05
323.15	0.6993	0.000333	1.1e-05
323.15	0.7931	0.000324	1.1e-05
323.15	0.8961	0.000316	1.1e-05
323.15	1	0.000306	1.1e-05
