Measured thermophysical data. Densities and Volumetric Properties of Ethylene Glycol + Dimethylsulfoxide Mixtures at Temperatures of (278.15 to 323.15) K and Pressures of (0.1 to 100) MPa
Source: J. Chem. Eng. Data, 2010, 10.1021/je100089s
Compound 1: 1,2-ethanediol, C2H6O2, InChI=1S/C2H6O2/c3-1-2-4/h3-4H,1-2H2
Compound 2: dimethyl sulfoxide, C2H6OS, InChI=1S/C2H6OS/c1-4(2)3/h1-2H3

System: 1,2-ethanediol; phases: Liquid
Fixed: Pressure, kPa = 101
Property: Mass density, kg/m3 (Liquid); method: Vibrating tube method
Temperature, K	Mass density, kg/m3	uncertainty
278.15	1123.77	0.33
288.15	1116.83	0.32
298.15	1109.83	0.32
308.15	1102.81	0.31
323.15	1092.12	0.3

System: 1,2-ethanediol; phases: Liquid
Property: Mass density, kg/m3 (Liquid); method: Vibrating tube method
Pressure, kPa	Temperature, K	Mass density, kg/m3	uncertainty
10000	278.15	1127.65	0.38
10000	288.15	1120.87	0.37
10000	298.15	1113.97	0.36
10000	308.15	1107.05	0.36
10000	323.15	1096.5	0.34
25000	278.15	1133.2	0.47
25000	288.15	1126.51	0.45
25000	298.15	1119.78	0.44
25000	308.15	1112.97	0.43
25000	323.15	1102.73	0.41
50000	278.15	1141.71	0.62
50000	288.15	1135.26	0.6
50000	298.15	1128.78	0.58
50000	308.15	1122.28	0.56
50000	323.15	1112.75	0.54
75000	278.15	1149.55	0.78
75000	288.15	1143.65	0.76
75000	298.15	1137.41	0.74
75000	308.15	1131.41	0.72
75000	323.15	1122.55	0.68
100000	278.15	1157.24	0.97
100000	288.15	1151.55	0.94
100000	298.15	1145.51	0.91
100000	308.15	1139.57	0.88
100000	323.15	1130.66	0.84

System: dimethyl sulfoxide; phases: Liquid
Fixed: Pressure, kPa = 101
Property: Mass density, kg/m3 (Liquid); method: Vibrating tube method
Temperature, K	Mass density, kg/m3	uncertainty
298.15	1095.36	0.31
308.15	1085.36	0.3
323.15	1070.28	0.29

System: dimethyl sulfoxide; phases: Liquid
Property: Mass density, kg/m3 (Liquid); method: Vibrating tube method
Pressure, kPa	Temperature, K	Mass density, kg/m3	uncertainty
10000	298.15	1101.16	0.35
10000	308.15	1091.6	0.34
10000	323.15	1076.9	0.32
25000	298.15	1109.51	0.42
25000	308.15	1100.65	0.41
25000	323.15	1086.87	0.38
50000	298.15	1122.86	0.57
50000	308.15	1115.13	0.54
50000	323.15	1102.44	0.51
75000	308.15	1128.21	0.7
75000	323.15	1115.12	0.66
100000	308.15	1136.76	0.87
100000	323.15	1123.25	0.81

System: dimethyl sulfoxide + 1,2-ethanediol; phases: Liquid
Fixed: Pressure, kPa = 101
Property: Mass density, kg/m3 (Liquid); method: Vibrating tube method
Temperature, K	Mole fraction of dimethyl sulfoxide	Mass density, kg/m3	uncertainty
278.15	0	1123.77	0.33
278.15	0.00452	1123.78	0.33
278.15	0.00721	1123.81	0.33
278.15	0.01811	1123.89	0.33
278.15	0.03033	1123.98	0.33
278.15	0.04027	1124.05	0.33
278.15	0.07007	1124.18	0.33
278.15	0.10969	1124.31	0.33
278.15	0.14083	1124.41	0.33
278.15	0.19339	1124.41	0.33
278.15	0.23396	1124.34	0.33
278.15	0.32442	1124.05	0.33
278.15	0.37635	1123.76	0.33
278.15	0.44291	1123.28	0.33
278.15	0.48917	1122.88	0.33
278.15	0.56538	1122.14	0.33
278.15	0.62977	1121.26	0.33
278.15	0.69463	1120.52	0.33
288.15	0	1116.83	0.32
288.15	0.00452	1116.83	0.32
288.15	0.00721	1116.84	0.32
288.15	0.01811	1116.88	0.32
288.15	0.03033	1116.91	0.32
288.15	0.04027	1116.94	0.32
288.15	0.07007	1116.98	0.32
288.15	0.10969	1116.95	0.32
288.15	0.14083	1116.93	0.32
288.15	0.19339	1116.74	0.32
288.15	0.23396	1116.55	0.32
288.15	0.32442	1115.95	0.32
288.15	0.37635	1115.49	0.32
288.15	0.44291	1114.8	0.32
288.15	0.48917	1114.25	0.32
288.15	0.56538	1113.29	0.32
288.15	0.62977	1112.27	0.32
288.15	0.69463	1111.32	0.32
288.15	0.81422	1109.13	0.32
298.15	0	1109.83	0.32
298.15	0.00452	1109.83	0.32
298.15	0.00721	1109.82	0.32
298.15	0.01811	1109.82	0.32
298.15	0.03033	1109.81	0.32
298.15	0.04027	1109.81	0.32
298.15	0.07007	1109.74	0.32
298.15	0.10969	1109.55	0.32
298.15	0.14083	1109.42	0.32
298.15	0.19339	1109.06	0.32
298.15	0.23396	1108.72	0.32
298.15	0.32442	1107.82	0.32
298.15	0.37635	1107.21	0.32
298.15	0.44291	1106.29	0.31
298.15	0.48917	1105.6	0.31
298.15	0.56538	1104.44	0.31
298.15	0.62977	1103.24	0.31
298.15	0.69463	1102.13	0.31
298.15	0.81422	1099.6	0.31
298.15	0.867	1098.37	0.31
298.15	0.9266	1097.09	0.31
298.15	0.95768	1096.36	0.31
298.15	0.98362	1095.74	0.31
298.15	0.99199	1095.54	0.31
298.15	0.99681	1095.42	0.31
298.15	1	1095.36	0.31
308.15	0	1102.81	0.31
308.15	0.00452	1102.78	0.31
308.15	0.00721	1102.76	0.31
308.15	0.01811	1102.73	0.31
308.15	0.03033	1102.69	0.31
308.15	0.04027	1102.63	0.31
308.15	0.07007	1102.45	0.31
308.15	0.10969	1102.12	0.31
308.15	0.14083	1101.88	0.31
308.15	0.19339	1101.33	0.31
308.15	0.23396	1100.86	0.31
308.15	0.32442	1099.65	0.31
308.15	0.37635	1098.89	0.31
308.15	0.44291	1097.76	0.31
308.15	0.48917	1096.94	0.31
308.15	0.56538	1095.56	0.31
308.15	0.62977	1094.18	0.3
308.15	0.69463	1092.91	0.3
308.15	0.81422	1090.07	0.3
308.15	0.867	1088.68	0.3
308.15	0.9266	1087.25	0.3
308.15	0.95768	1086.43	0.3
308.15	0.98362	1085.76	0.3
308.15	0.99199	1085.53	0.3
308.15	0.99681	1085.39	0.3
308.15	1	1085.36	0.3
323.15	0	1092.12	0.3
323.15	0.00452	1092.05	0.3
323.15	0.00721	1092.03	0.3
323.15	0.01811	1091.95	0.3
323.15	0.03033	1091.83	0.3
323.15	0.04027	1091.72	0.3
323.15	0.07007	1091.39	0.3
323.15	0.10969	1090.85	0.3
323.15	0.14083	1090.44	0.3
323.15	0.19339	1089.61	0.3
323.15	0.23396	1088.96	0.3
323.15	0.32442	1087.33	0.3
323.15	0.37635	1086.33	0.3
323.15	0.44291	1084.93	0.3
323.15	0.48917	1083.92	0.3
323.15	0.56538	1082.23	0.3
323.15	0.62977	1080.61	0.29
323.15	0.69463	1079.07	0.29
323.15	0.81422	1075.74	0.29
323.15	0.867	1074.15	0.29
323.15	0.9266	1072.5	0.29
323.15	0.95768	1071.55	0.29
323.15	0.98362	1070.76	0.29
323.15	0.99199	1070.5	0.29
323.15	0.99681	1070.35	0.29
323.15	1	1070.28	0.29

System: dimethyl sulfoxide + 1,2-ethanediol; phases: Liquid
Property: Mass density, kg/m3 (Liquid); method: Vibrating tube method
Pressure, kPa	Temperature, K	Mole fraction of dimethyl sulfoxide	Mass density, kg/m3	uncertainty
10000	278.15	0	1127.65	0.38
10000	278.15	0.0181	1127.79	0.38
10000	278.15	0.0403	1127.98	0.38
10000	278.15	0.0701	1128.13	0.38
10000	278.15	0.1097	1128.3	0.38
10000	278.15	0.1408	1128.43	0.38
10000	278.15	0.1934	1128.44	0.38
10000	278.15	0.234	1128.39	0.38
10000	278.15	0.3244	1128.13	0.38
10000	278.15	0.3764	1127.85	0.38
10000	278.15	0.4429	1127.37	0.38
10000	278.15	0.4892	1126.97	0.38
10000	278.15	0.5654	1126.24	0.38
10000	288.15	0	1120.87	0.37
10000	288.15	0.0181	1120.9	0.37
10000	288.15	0.0403	1121	0.37
10000	288.15	0.0701	1121.06	0.37
10000	288.15	0.1097	1121.09	0.37
10000	288.15	0.1408	1121.09	0.37
10000	288.15	0.1934	1121	0.37
10000	288.15	0.234	1120.87	0.37
10000	288.15	0.3244	1120.42	0.37
10000	288.15	0.3764	1119.99	0.37
10000	288.15	0.4429	1119.41	0.37
10000	288.15	0.4892	1118.92	0.37
10000	288.15	0.5654	1118.05	0.37
10000	288.15	0.6946	1116.19	0.37
10000	298.15	0	1113.97	0.36
10000	298.15	0.0181	1114	0.36
10000	298.15	0.0403	1114.01	0.36
10000	298.15	0.0701	1114.01	0.36
10000	298.15	0.1097	1113.67	0.36
10000	298.15	0.1408	1113.44	0.36
10000	298.15	0.1934	1112.87	0.36
10000	298.15	0.234	1112.42	0.36
10000	298.15	0.3244	1111.54	0.36
10000	298.15	0.3764	1110.95	0.36
10000	298.15	0.4429	1110.13	0.36
10000	298.15	0.4892	1109.49	0.36
10000	298.15	0.5654	1108.61	0.36
10000	298.15	0.6946	1106.65	0.36
10000	298.15	0.8142	1104.54	0.35
10000	298.15	0.9266	1102.59	0.35
10000	298.15	0.9836	1101.52	0.35
10000	298.15	1	1101.16	0.35
10000	308.15	0	1107.05	0.36
10000	308.15	0.0181	1107.03	0.36
10000	308.15	0.0403	1106.95	0.36
10000	308.15	0.0701	1106.68	0.36
10000	308.15	0.1097	1106.18	0.36
10000	308.15	0.1408	1105.87	0.35
10000	308.15	0.1934	1105.29	0.35
10000	308.15	0.234	1104.74	0.35
10000	308.15	0.3244	1103.53	0.35
10000	308.15	0.3764	1102.66	0.35
10000	308.15	0.4429	1101.57	0.35
10000	308.15	0.4892	1100.74	0.35
10000	308.15	0.5654	1099.47	0.35
10000	308.15	0.6946	1097.4	0.34
10000	308.15	0.8142	1094.91	0.34
10000	308.15	0.9266	1092.99	0.34
10000	308.15	0.9836	1091.87	0.34
10000	308.15	1	1091.6	0.34
10000	323.15	0	1096.5	0.34
10000	323.15	0.0181	1096.36	0.34
10000	323.15	0.0403	1096.16	0.34
10000	323.15	0.0701	1095.88	0.34
10000	323.15	0.1097	1095.4	0.34
10000	323.15	0.1408	1095	0.34
10000	323.15	0.1934	1094.25	0.34
10000	323.15	0.234	1093.65	0.34
10000	323.15	0.3244	1092.16	0.34
10000	323.15	0.3764	1091.26	0.34
10000	323.15	0.4429	1090	0.34
10000	323.15	0.4892	1089.09	0.33
10000	323.15	0.5654	1087.55	0.33
10000	323.15	0.6946	1084.73	0.33
10000	323.15	0.8142	1081.78	0.33
10000	323.15	0.9266	1078.85	0.32
10000	323.15	0.9836	1077.32	0.32
10000	323.15	1	1076.9	0.32
25000	278.15	0	1133.2	0.47
25000	278.15	0.0181	1133.35	0.47
25000	278.15	0.0403	1133.57	0.47
25000	278.15	0.0701	1133.74	0.47
25000	278.15	0.1097	1133.94	0.47
25000	278.15	0.1408	1134.12	0.47
25000	278.15	0.1934	1134.19	0.47
25000	278.15	0.234	1134.22	0.47
25000	278.15	0.3244	1134.17	0.47
25000	278.15	0.3764	1134.01	0.47
25000	278.15	0.4429	1133.7	0.47
25000	278.15	0.4892	1133.44	0.47
25000	278.15	0.5654	1132.95	0.47
25000	288.15	0	1126.51	0.45
25000	288.15	0.0181	1126.66	0.45
25000	288.15	0.0403	1126.79	0.45
25000	288.15	0.0701	1126.89	0.45
25000	288.15	0.1097	1126.97	0.45
25000	288.15	0.1408	1127.02	0.45
25000	288.15	0.1934	1127.02	0.45
25000	288.15	0.234	1127.02	0.45
25000	288.15	0.3244	1126.73	0.45
25000	288.15	0.3764	1126.45	0.45
25000	288.15	0.4429	1126.08	0.45
25000	288.15	0.4892	1125.69	0.45
25000	288.15	0.5654	1125.01	0.45
25000	288.15	0.6946	1123.4	0.45
25000	298.15	0	1119.78	0.44
25000	298.15	0.0181	1119.85	0.44
25000	298.15	0.0403	1119.92	0.44
25000	298.15	0.0701	1119.95	0.44
25000	298.15	0.1097	1119.88	0.44
25000	298.15	0.1408	1119.71	0.44
25000	298.15	0.1934	1119.4	0.44
25000	298.15	0.234	1119.03	0.44
25000	298.15	0.3244	1118.39	0.44
25000	298.15	0.3764	1117.96	0.44
25000	298.15	0.4429	1117.3	0.44
25000	298.15	0.4892	1116.82	0.44
25000	298.15	0.5654	1116.04	0.43
25000	298.15	0.6946	1114.43	0.43
25000	298.15	0.8142	1112.6	0.43
25000	298.15	0.9266	1110.81	0.43
25000	298.15	0.9836	1109.77	0.42
25000	298.15	1	1109.51	0.42
25000	308.15	0	1112.97	0.43
25000	308.15	0.0181	1113.01	0.43
25000	308.15	0.0403	1112.98	0.43
25000	308.15	0.0701	1112.81	0.43
25000	308.15	0.1097	1112.54	0.43
25000	308.15	0.1408	1112.37	0.43
25000	308.15	0.1934	1111.97	0.43
25000	308.15	0.234	1111.63	0.43
25000	308.15	0.3244	1110.76	0.43
25000	308.15	0.3764	1110.16	0.42
25000	308.15	0.4429	1109.29	0.42
25000	308.15	0.4892	1108.61	0.42
25000	308.15	0.5654	1107.59	0.42
25000	308.15	0.6946	1105.69	0.42
25000	308.15	0.8142	1103.81	0.41
25000	308.15	0.9266	1101.96	0.41
25000	308.15	0.9836	1100.89	0.41
25000	308.15	1	1100.65	0.41
25000	323.15	0	1102.73	0.41
25000	323.15	0.0181	1102.65	0.41
25000	323.15	0.0403	1102.54	0.41
25000	323.15	0.0701	1102.37	0.41
25000	323.15	0.1097	1102.05	0.41
25000	323.15	0.1408	1101.79	0.41
25000	323.15	0.1934	1101.25	0.41
25000	323.15	0.234	1100.8	0.41
25000	323.15	0.3244	1099.69	0.41
25000	323.15	0.3764	1098.98	0.4
25000	323.15	0.4429	1097.94	0.4
25000	323.15	0.4892	1097.2	0.4
25000	323.15	0.5654	1095.96	0.4
25000	323.15	0.6946	1093.6	0.39
25000	323.15	0.8142	1091.06	0.39
25000	323.15	0.9266	1088.56	0.39
25000	323.15	0.9836	1087.21	0.38
25000	323.15	1	1086.87	0.38
50000	278.15	0	1141.71	0.62
50000	278.15	0.0181	1141.89	0.62
50000	278.15	0.0403	1142.21	0.62
50000	278.15	0.0701	1142.44	0.62
50000	278.15	0.1097	1142.73	0.62
50000	278.15	0.1408	1142.98	0.62
50000	278.15	0.1934	1143.24	0.62
50000	278.15	0.234	1143.4	0.62
50000	278.15	0.3244	1143.66	0.62
50000	278.15	0.3764	1143.73	0.62
50000	278.15	0.4429	1143.69	0.62
50000	278.15	0.4892	1143.64	0.62
50000	278.15	0.5654	1143.45	0.62
50000	288.15	0	1135.26	0.6
50000	288.15	0.0181	1135.53	0.6
50000	288.15	0.0403	1135.69	0.6
50000	288.15	0.0701	1135.92	0.6
50000	288.15	0.1097	1136.1	0.6
50000	288.15	0.1408	1136.28	0.6
50000	288.15	0.1934	1136.35	0.6
50000	288.15	0.234	1136.51	0.6
50000	288.15	0.3244	1136.43	0.6
50000	288.15	0.3764	1136.4	0.6
50000	288.15	0.4429	1136.29	0.6
50000	288.15	0.4892	1136.07	0.6
50000	288.15	0.5654	1135.67	0.6
50000	288.15	0.6946	1134.56	0.6
50000	298.15	0	1128.78	0.58
50000	298.15	0.0181	1128.92	0.58
50000	298.15	0.0403	1129.12	0.58
50000	298.15	0.0701	1129.25	0.58
50000	298.15	0.1097	1129.29	0.58
50000	298.15	0.1408	1129.45	0.58
50000	298.15	0.1934	1129.48	0.58
50000	298.15	0.234	1129.27	0.58
50000	298.15	0.3244	1128.95	0.58
50000	298.15	0.3764	1128.79	0.58
50000	298.15	0.4429	1128.43	0.58
50000	298.15	0.4892	1128.14	0.58
50000	298.15	0.5654	1127.67	0.58
50000	298.15	0.6946	1126.58	0.58
50000	298.15	0.8142	1125.27	0.57
50000	298.15	0.9266	1123.79	0.57
50000	298.15	0.9836	1123.02	0.57
50000	298.15	1	1122.86	0.57
50000	308.15	0	1122.28	0.56
50000	308.15	0.0181	1122.41	0.56
50000	308.15	0.0403	1122.46	0.56
50000	308.15	0.0701	1122.47	0.56
50000	308.15	0.1097	1122.52	0.56
50000	308.15	0.1408	1122.47	0.56
50000	308.15	0.1934	1122.32	0.56
50000	308.15	0.234	1122.23	0.56
50000	308.15	0.3244	1121.85	0.56
50000	308.15	0.3764	1121.58	0.56
50000	308.15	0.4429	1121.09	0.56
50000	308.15	0.4892	1120.71	0.56
50000	308.15	0.5654	1120.07	0.56
50000	308.15	0.6946	1118.74	0.55
50000	308.15	0.8142	1117.22	0.55
50000	308.15	0.9266	1115.8	0.55
50000	308.15	0.9836	1115.04	0.54
50000	308.15	1	1115.13	0.54
50000	323.15	0	1112.75	0.54
50000	323.15	0.0181	1112.77	0.54
50000	323.15	0.0403	1112.8	0.54
50000	323.15	0.0701	1112.82	0.54
50000	323.15	0.1097	1112.71	0.54
50000	323.15	0.1408	1112.64	0.54
50000	323.15	0.1934	1112.4	0.54
50000	323.15	0.234	1112.23	0.54
50000	323.15	0.3244	1111.61	0.53
50000	323.15	0.3764	1111.18	0.53
50000	323.15	0.4429	1110.52	0.53
50000	323.15	0.4892	1110.04	0.53
50000	323.15	0.5654	1109.22	0.53
50000	323.15	0.6946	1107.58	0.52
50000	323.15	0.8142	1105.68	0.52
50000	323.15	0.9266	1103.78	0.51
50000	323.15	0.9836	1102.72	0.51
50000	323.15	1	1102.44	0.51
75000	278.15	0	1149.55	0.78
75000	278.15	0.0181	1149.87	0.79
75000	278.15	0.0403	1150.25	0.79
75000	278.15	0.0701	1150.68	0.79
75000	278.15	0.1097	1151.17	0.79
75000	278.15	0.1408	1151.53	0.79
75000	278.15	0.1934	1151.93	0.79
75000	278.15	0.234	1152.14	0.79
75000	278.15	0.3244	1152.48	0.8
75000	278.15	0.3764	1152.55	0.8
75000	278.15	0.4429	1152.53	0.8
75000	278.15	0.4892	1152.45	0.8
75000	278.15	0.5654	1152.24	0.79
75000	288.15	0	1143.65	0.76
75000	288.15	0.0181	1143.78	0.76
75000	288.15	0.0403	1144	0.76
75000	288.15	0.0701	1144.4	0.77
75000	288.15	0.1097	1144.77	0.77
75000	288.15	0.1408	1145.05	0.77
75000	288.15	0.1934	1145.29	0.77
75000	288.15	0.234	1145.4	0.77
75000	288.15	0.3244	1145.62	0.77
75000	288.15	0.3764	1145.68	0.77
75000	288.15	0.4429	1145.64	0.77
75000	288.15	0.4892	1145.55	0.77
75000	288.15	0.5654	1145.31	0.77
75000	288.15	0.6946	1144.55	0.77
75000	298.15	0	1137.41	0.74
75000	298.15	0.0181	1137.62	0.74
75000	298.15	0.0403	1137.93	0.74
75000	298.15	0.0701	1138.31	0.74
75000	298.15	0.1097	1138.51	0.74
75000	298.15	0.1408	1138.73	0.74
75000	298.15	0.1934	1138.98	0.75
75000	298.15	0.234	1139.19	0.75
75000	298.15	0.3244	1139.38	0.75
75000	298.15	0.3764	1139.43	0.75
75000	298.15	0.4429	1139.4	0.75
75000	298.15	0.4892	1139.31	0.75
75000	298.15	0.5654	1139.23	0.75
75000	298.15	0.6946	1138.74	0.74
75000	298.15	0.8142	1137.98	0.74
75000	298.15	0.9266	1137.07	0.74
75000	308.15	0	1131.41	0.72
75000	308.15	0.0181	1131.6	0.72
75000	308.15	0.0403	1131.72	0.72
75000	308.15	0.0701	1131.86	0.72
75000	308.15	0.1097	1132.17	0.72
75000	308.15	0.1408	1132.33	0.72
75000	308.15	0.1934	1132.37	0.72
75000	308.15	0.234	1132.39	0.72
75000	308.15	0.3244	1132.45	0.72
75000	308.15	0.3764	1132.41	0.72
75000	308.15	0.4429	1132.2	0.72
75000	308.15	0.4892	1132.04	0.72
75000	308.15	0.5654	1131.68	0.72
75000	308.15	0.6946	1130.89	0.71
75000	308.15	0.8142	1129.86	0.71
75000	308.15	0.9266	1128.85	0.71
75000	308.15	0.9836	1128.14	0.7
75000	308.15	1	1128.21	0.7
75000	323.15	0	1122.55	0.68
75000	323.15	0.0181	1122.62	0.68
75000	323.15	0.0403	1122.72	0.68
75000	323.15	0.0701	1122.84	0.68
75000	323.15	0.1097	1122.87	0.68
75000	323.15	0.1408	1122.91	0.68
75000	323.15	0.1934	1122.85	0.68
75000	323.15	0.234	1122.77	0.68
75000	323.15	0.3244	1122.44	0.68
75000	323.15	0.3764	1122.18	0.68
75000	323.15	0.4429	1121.69	0.68
75000	323.15	0.4892	1121.34	0.68
75000	323.15	0.5654	1120.75	0.68
75000	323.15	0.6946	1119.48	0.67
75000	323.15	0.8142	1117.9	0.67
75000	323.15	0.9266	1116.27	0.66
75000	323.15	0.9836	1115.35	0.66
75000	323.15	1	1115.12	0.66
100000	278.15	0	1157.24	0.97
100000	278.15	0.0181	1157.59	0.97
100000	278.15	0.0403	1158.01	0.97
100000	278.15	0.0701	1158.48	0.97
100000	278.15	0.1097	1159.03	0.97
100000	278.15	0.1408	1159.45	0.98
100000	278.15	0.1934	1159.97	0.98
100000	278.15	0.234	1160.33	0.98
100000	278.15	0.3244	1160.9	0.98
100000	278.15	0.3764	1161.23	0.98
100000	278.15	0.4429	1161.47	0.99
100000	278.15	0.4892	1161.74	0.99
100000	278.15	0.5654	1162	0.99
100000	288.15	0	1151.55	0.94
100000	288.15	0.0181	1151.74	0.94
100000	288.15	0.0403	1152.03	0.94
100000	288.15	0.0701	1152.42	0.94
100000	288.15	0.1097	1152.92	0.95
100000	288.15	0.1408	1153.32	0.95
100000	288.15	0.1934	1153.81	0.95
100000	288.15	0.234	1154.03	0.95
100000	288.15	0.3244	1154.61	0.95
100000	288.15	0.3764	1154.78	0.95
100000	288.15	0.4429	1154.83	0.95
100000	288.15	0.4892	1154.79	0.95
100000	288.15	0.5654	1154.87	0.95
100000	288.15	0.6946	1154.68	0.95
100000	298.15	0	1145.51	0.91
100000	298.15	0.0181	1145.75	0.91
100000	298.15	0.0403	1145.93	0.91
100000	298.15	0.0701	1146.24	0.91
100000	298.15	0.1097	1146.54	0.92
100000	298.15	0.1408	1146.83	0.92
100000	298.15	0.1934	1147.29	0.92
100000	298.15	0.234	1147.46	0.92
100000	298.15	0.3244	1147.77	0.92
100000	298.15	0.3764	1147.93	0.92
100000	298.15	0.4429	1148.01	0.92
100000	298.15	0.4892	1147.94	0.92
100000	298.15	0.5654	1147.85	0.92
100000	298.15	0.6946	1147.55	0.92
100000	298.15	0.8142	1146.87	0.92
100000	298.15	0.9266	1146.03	0.91
100000	308.15	0	1139.57	0.88
100000	308.15	0.0181	1139.78	0.88
100000	308.15	0.0403	1139.87	0.88
100000	308.15	0.0701	1140.08	0.88
100000	308.15	0.1097	1140.24	0.89
100000	308.15	0.1408	1140.54	0.89
100000	308.15	0.1934	1140.74	0.89
100000	308.15	0.234	1140.88	0.89
100000	308.15	0.3244	1140.94	0.89
100000	308.15	0.3764	1140.97	0.89
100000	308.15	0.4429	1140.85	0.89
100000	308.15	0.4892	1140.71	0.89
100000	308.15	0.5654	1140.47	0.89
100000	308.15	0.6946	1139.72	0.88
100000	308.15	0.8142	1138.6	0.88
100000	308.15	0.9266	1137.41	0.87
100000	308.15	0.9836	1136.73	0.87
100000	308.15	1	1136.76	0.87
100000	323.15	0	1130.66	0.84
100000	323.15	0.0181	1130.77	0.84
100000	323.15	0.0403	1130.87	0.84
100000	323.15	0.0701	1130.96	0.84
100000	323.15	0.1097	1131	0.84
100000	323.15	0.1408	1131.06	0.84
100000	323.15	0.1934	1130.99	0.84
100000	323.15	0.234	1130.94	0.84
100000	323.15	0.3244	1130.63	0.84
100000	323.15	0.3764	1130.38	0.84
100000	323.15	0.4429	1129.92	0.84
100000	323.15	0.4892	1129.57	0.84
100000	323.15	0.5654	1128.99	0.83
100000	323.15	0.6946	1127.72	0.83
100000	323.15	0.8142	1126.09	0.82
100000	323.15	0.9266	1124.43	0.81
100000	323.15	0.9836	1123.49	0.81
100000	323.15	1	1123.25	0.81
