Measured thermophysical data. Solid-Liquid Equilibria of N-Methylephedrine Enantiomers and Their Mixtures in Three Chiral Solvents Distinguished by Chain Length
Source: J. Chem. Eng. Data, 2010, 10.1021/je1007839
Compound 1: (+)-N-methylephedrine, C11H17NO, InChI=1S/C11H17NO/c1-9(12(2)3)11(13)10-7-5-4-6-8-10/h4-9,11,13H,1-3H3/t9-,11-/m1/s1
Compound 2: (-)-N-methylephedrine, C11H17NO, InChI=1S/C11H17NO/c1-9(12(2)3)11(13)10-7-5-4-6-8-10/h4-9,11,13H,1-3H3/t9-,11-/m0/s1
Compound 3: (S)-methyl 2-hydroxypropanoate, C4H8O3, InChI=1S/C4H8O3/c1-3(5)4(6)7-2/h3,5H,1-2H3/t3-/m0/s1
Compound 4: propyl (S)-2-hydroxypropanoate, C6H12O3, InChI=1S/C6H12O3/c1-3-4-9-6(8)5(2)7/h5,7H,3-4H2,1-2H3/t5-/m0/s1
Compound 5: propanoic acid, 2-hydroxy-, 1,1-dimethylethyl ester, (S)-, C7H14O3, InChI=1S/C7H14O3/c1-5(8)6(9)10-7(2,3)4/h5,8H,1-4H3/t5-/m0/s1

System: (-)-N-methylephedrine + (S)-methyl 2-hydroxypropanoate + (+)-N-methylephedrine; phases: Liquid, Crystal, Crystal
Fixed: Pressure, kPa = 101
Property: Mass fraction of (-)-N-methylephedrine (Liquid); method: Chromatography
Temperature, K	Mass fraction of (-)-N-methylephedrine	uncertainty
273	0.1179	0.0068
278	0.1452	0.0068
283	0.1571	0.0068
288	0.181	0.0068
293	0.2012	0.0068
298	0.2236	0.0068

System: (-)-N-methylephedrine + (S)-methyl 2-hydroxypropanoate + (+)-N-methylephedrine; phases: Liquid, Crystal, Crystal
Fixed: Pressure, kPa = 101
Property: Mass fraction of (+)-N-methylephedrine (Liquid); method: Chromatography
Temperature, K	Mass fraction of (+)-N-methylephedrine	uncertainty
273	0.1208	0.0068
278	0.1452	0.0068
283	0.1571	0.0068
288	0.181	0.0068
293	0.2022	0.0068
298	0.228	0.0068

System: (-)-N-methylephedrine + (S)-methyl 2-hydroxypropanoate + (+)-N-methylephedrine; phases: Liquid, Crystal
Fixed: Pressure, kPa = 101
Property: Mass fraction of (S)-methyl 2-hydroxypropanoate (Liquid); method: Chromatography
Temperature, K	Mass fraction of (-)-N-methylephedrine	Mass fraction of (S)-methyl 2-hydroxypropanoate	uncertainty
273	0.1299	0.8701	0.0158
273	0.1337	0.812	0.0114
278	0.1558	0.7878	0.0104
278	0.1656	0.8344	0.0127
283	0.1689	0.7702	0.0098
283	0.1879	0.8121	0.0114
288	0.195	0.736	0.009
288	0.2115	0.7885	0.0104
293	0.2258	0.6905	0.0083
293	0.2311	0.7689	0.0098
298	0.2444	0.6494	0.0079
298	0.245	0.755	0.0094

System: (-)-N-methylephedrine + (S)-methyl 2-hydroxypropanoate + (+)-N-methylephedrine; phases: Liquid, Crystal
Fixed: Pressure, kPa = 101
Property: Mass fraction of (S)-methyl 2-hydroxypropanoate (Liquid); method: Chromatography
Temperature, K	Mass fraction of (+)-N-methylephedrine	Mass fraction of (S)-methyl 2-hydroxypropanoate	uncertainty
273	0.1299	0.815	0.0116
273	0.1332	0.8668	0.0154
278	0.1546	0.7888	0.0104
278	0.165	0.835	0.0127
283	0.1718	0.7655	0.0097
283	0.1874	0.8126	0.0114
288	0.1951	0.734	0.009
288	0.21	0.79	0.0105
293	0.2216	0.6898	0.0083
293	0.2304	0.7696	0.0098
298	0.2438	0.6494	0.0079
298	0.2441	0.7559	0.0095

System: (-)-N-methylephedrine + (+)-N-methylephedrine + propyl (S)-2-hydroxypropanoate; phases: Liquid, Crystal, Crystal
Fixed: Pressure, kPa = 101
Property: Mass fraction of (-)-N-methylephedrine (Liquid); method: Chromatography
Temperature, K	Mass fraction of (-)-N-methylephedrine	uncertainty
273	0.1099	0.0108
278	0.13	0.0108
283	0.1381	0.0108
288	0.1525	0.0108
293	0.1683	0.0108
298	0.195	0.0108

System: (-)-N-methylephedrine + (+)-N-methylephedrine + propyl (S)-2-hydroxypropanoate; phases: Liquid, Crystal, Crystal
Fixed: Pressure, kPa = 101
Property: Mass fraction of (+)-N-methylephedrine (Liquid); method: Chromatography
Temperature, K	Mass fraction of (+)-N-methylephedrine	uncertainty
273	0.1126	0.0108
278	0.13	0.0108
283	0.1381	0.0108
288	0.1555	0.0108
293	0.1716	0.0108
298	0.1984	0.0108

System: (-)-N-methylephedrine + (+)-N-methylephedrine + propyl (S)-2-hydroxypropanoate; phases: Liquid, Crystal
Fixed: Pressure, kPa = 101
Property: Mass fraction of propyl (S)-2-hydroxypropanoate (Liquid); method: Chromatography
Temperature, K	Mass fraction of (+)-N-methylephedrine	Mass fraction of propyl (S)-2-hydroxypropanoate	uncertainty
273	0.1076	0.8532	0.0164
273	0.1119	0.8881	0.02
278	0.1392	0.81	0.0141
278	0.14	0.86	0.0169
283	0.1488	0.802	0.0138
283	0.1525	0.8475	0.016
288	0.1647	0.7631	0.0128
288	0.1751	0.8249	0.0147
293	0.1808	0.74	0.0124
293	0.1925	0.8075	0.014
298	0.2005	0.7112	0.012
298	0.2018	0.7982	0.0137

System: (-)-N-methylephedrine + (+)-N-methylephedrine + propyl (S)-2-hydroxypropanoate; phases: Liquid, Crystal
Fixed: Pressure, kPa = 101
Property: Mass fraction of propyl (S)-2-hydroxypropanoate (Liquid); method: Chromatography
Temperature, K	Mass fraction of (-)-N-methylephedrine	Mass fraction of propyl (S)-2-hydroxypropanoate	uncertainty
273	0.1125	0.8875	0.0199
273	0.1187	0.8385	0.0154
278	0.1396	0.81	0.0141
278	0.1398	0.8602	0.0169
283	0.1487	0.803	0.0138
283	0.1515	0.8485	0.0161
288	0.1655	0.7625	0.0128
288	0.1692	0.8308	0.015
293	0.1812	0.74	0.0124
293	0.193	0.807	0.014
298	0.2031	0.7047	0.0119
298	0.2076	0.7924	0.0135

System: (-)-N-methylephedrine + propanoic acid, 2-hydroxy-, 1,1-dimethylethyl ester, (S)- + (+)-N-methylephedrine; phases: Liquid, Crystal, Crystal
Fixed: Pressure, kPa = 101
Property: Mass fraction of (-)-N-methylephedrine (Liquid); method: Chromatography
Temperature, K	Mass fraction of (-)-N-methylephedrine	uncertainty
273	0.0971	0.0056
278	0.11	0.0056
283	0.125	0.0056
288	0.1463	0.0056
293	0.16	0.0056
298	0.1933	0.0056

System: (-)-N-methylephedrine + propanoic acid, 2-hydroxy-, 1,1-dimethylethyl ester, (S)- + (+)-N-methylephedrine; phases: Liquid, Crystal, Crystal
Fixed: Pressure, kPa = 101
Property: Mass fraction of (+)-N-methylephedrine (Liquid); method: Chromatography
Temperature, K	Mass fraction of (+)-N-methylephedrine	uncertainty
273	0.0971	0.0056
278	0.11	0.0056
283	0.125	0.0056
288	0.1463	0.0056
293	0.16	0.0056
298	0.1885	0.0056

System: (-)-N-methylephedrine + propanoic acid, 2-hydroxy-, 1,1-dimethylethyl ester, (S)- + (+)-N-methylephedrine; phases: Liquid, Crystal
Fixed: Pressure, kPa = 101
Property: Mass fraction of propanoic acid, 2-hydroxy-, 1,1-dimethylethyl ester, (S)- (Liquid); method: Chromatography
Temperature, K	Mass fraction of (+)-N-methylephedrine	Mass fraction of propanoic acid, 2-hydroxy-, 1,1-dimethylethyl ester, (S)-	uncertainty
273	0.1008	0.8992	0.0207
273	0.1013	0.8614	0.0144
278	0.1185	0.8307	0.0118
278	0.1261	0.8739	0.0161
283	0.1325	0.826	0.0115
283	0.1374	0.8626	0.0146
288	0.1526	0.8474	0.013
288	0.1529	0.8011	0.0102
293	0.1748	0.761	0.0088
293	0.175	0.825	0.0115
298	0.186	0.814	0.0108
298	0.1902	0.7293	0.008

System: (-)-N-methylephedrine + propanoic acid, 2-hydroxy-, 1,1-dimethylethyl ester, (S)- + (+)-N-methylephedrine; phases: Liquid, Crystal
Fixed: Pressure, kPa = 101
Property: Mass fraction of propanoic acid, 2-hydroxy-, 1,1-dimethylethyl ester, (S)- (Liquid); method: Chromatography
Temperature, K	Mass fraction of (-)-N-methylephedrine	Mass fraction of propanoic acid, 2-hydroxy-, 1,1-dimethylethyl ester, (S)-	uncertainty
273	0.1034	0.8564	0.0139
273	0.1038	0.8962	0.0201
278	0.129	0.871	0.0157
278	0.1425	0.8274	0.0116
283	0.1312	0.825	0.0115
283	0.136	0.864	0.0148
288	0.1571	0.7905	0.0098
288	0.1581	0.8419	0.0126
293	0.174	0.826	0.0115
293	0.178	0.76	0.0087
298	0.1855	0.8145	0.0109
298	0.1909	0.7215	0.0078
