Measured thermophysical data. Vapor-Liquid Equilibrium Data for the Nitrogen + Dodecane System at Temperatures from (344 to 593) K and at Pressures up to 60 MPa
Source: J. Chem. Eng. Data, 2011, 10.1021/je1012372
Compound 1: nitrogen, N2, InChI=1S/N2/c1-2, purity 99.999%
Compound 2: dodecane, C12H26, InChI=1S/C12H26/c1-3-5-7-9-11-12-10-8-6-4-2/h3-12H2,1-2H3, purity 99%

System: dodecane + nitrogen; phases: Liquid, Gas
Property: Vapor or sublimation pressure, kPa (Liquid); method: Closed cell (Static) method
Mole fraction of nitrogen	Temperature, K	Vapor or sublimation pressure, kPa	uncertainty
0.0029	562.1	550	40
0.0131	593.5	1100	50
0.0167	532.9	940	80
0.0184	410.7	1140	90
0.0202	463.9	1090	70
0.0204	344.4	1430	80
0.0213	503.4	1090	60
0.0222	532.9	1170	60
0.0223	562.1	1270	60
0.031	532.9	1540	80
0.0339	410.7	2170	100
0.0372	463.9	2050	100
0.0411	344.4	2900	150
0.0423	532.9	2030	100
0.0435	562.1	2130	100
0.0436	503.4	2160	100
0.0483	410.7	3130	150
0.0504	593.5	2270	80
0.0544	463.9	3030	160
0.0596	410.7	3930	190
0.0639	503.4	3200	200
0.0647	532.9	3030	130
0.0655	562.1	3070	120
0.0669	344.4	5030	260
0.0716	463.9	4080	200
0.0754	410.7	5020	280
0.0803	593.5	3280	120
0.0834	503.4	4210	180
0.0858	532.9	4020	170
0.0875	463.9	5040	250
0.0905	562.1	4130	170
0.0952	344.4	7520	430
0.1041	503.4	5310	230
0.1071	532.9	5030	200
0.1076	593.5	4210	160
0.1089	410.7	7570	350
0.1099	562.1	4990	200
0.1182	344.4	9760	510
0.1245	463.9	7520	330
0.1271	532.9	6010	250
0.1308	593.5	5070	180
0.1315	562.1	5960	240
0.1383	410.7	10140	480
0.1403	503.4	7440	320
0.1435	344.4	12380	620
0.1521	532.9	7280	290
0.1593	463.9	9950	420
0.1698	410.7	12980	560
0.1703	344.4	15260	670
0.1778	562.1	8080	300
0.1837	503.4	10040	400
0.1863	593.5	7090	240
0.1881	344.4	17510	740
0.189	410.7	14830	680
0.1945	463.9	12500	490
0.2021	532.9	9950	380
0.2098	344.4	19970	950
0.2158	410.7	17530	740
0.2166	562.1	9910	350
0.2213	503.4	12440	480
0.2272	463.9	15010	600
0.228	344.4	22520	1160
0.2344	593.5	8960	310
0.2426	410.7	20240	800
0.2438	344.4	24880	1330
0.2462	532.9	12450	470
0.2568	463.9	17560	700
0.2582	562.1	11970	410
0.2588	344.4	27490	1320
0.2602	503.4	15020	540
0.2653	410.7	22450	900
0.2716	344.4	29580	1320
0.2837	593.5	10960	360
0.2868	463.9	20050	740
0.2879	410.7	24930	1060
0.2908	344.4	32420	1470
0.2945	503.4	17510	680
0.2957	532.9	15280	510
0.2982	562.1	14020	470
0.3032	344.4	35030	1880
0.3091	410.7	27470	1100
0.315	463.9	22510	810
0.317	344.4	37650	1650
0.3252	503.4	20030	720
0.3313	410.7	29970	1230
0.3314	344.4	39980	1850
0.3328	532.9	17510	700
0.3341	593.5	13130	410
0.3384	562.1	16160	510
0.3407	344.4	42260	1920
0.3439	463.9	25020	880
0.3508	410.7	32510	1310
0.3572	344.4	45090	2020
0.3592	503.4	22450	750
0.3654	532.9	19950	690
0.3665	344.4	47330	2730
0.3698	410.7	35070	1230
0.3706	463.9	27540	910
0.3739	593.5	14860	430
0.3743	562.1	18070	570
0.3771	344.4	50200	2340
0.389	344.4	52600	2280
0.3903	410.7	37480	1360
0.3927	503.4	25030	810
0.3965	463.9	30030	1030
0.3991	344.4	55020	2590
0.4042	532.9	22490	760
0.4055	562.1	19900	610
0.4095	344.4	57500	2780
0.4109	410.7	39940	1560
0.419	344.4	60040	2840
0.4194	463.9	32590	1190
0.4223	503.4	27550	880
0.4298	410.7	42560	910
0.4302	593.5	17260	430
0.439	532.9	25030	840
0.4415	463.9	35090	1190
0.4435	562.1	22150	600
0.4469	410.7	45020	910
0.4526	503.4	30050	840
0.46	410.7	47590	1930
0.4653	463.9	37540	1020
0.4708	532.9	27560	860
0.4758	593.5	19070	410
0.476	410.7	50030	1730
0.4816	562.1	24190	600
0.4828	503.4	32530	930
0.4877	463.9	40160	1220
0.4917	410.7	52540	1790
0.506	532.9	30040	850
0.5062	410.7	55020	1910
0.5089	503.4	35080	990
0.5092	463.9	42510	1170
0.5131	562.1	26080	630
0.5205	410.7	57430	1880
0.5265	593.5	21020	400
0.5317	532.9	32510	880
0.5318	463.9	45090	1440
0.5341	410.7	60050	2090
0.5353	503.4	37550	1110
0.5487	463.9	47550	1470
0.5497	562.1	28310	640
0.5568	593.5	22030	320
0.5587	503.4	40070	1220
0.5661	463.9	50070	1420
0.5712	532.9	35430	890
0.5769	562.1	29800	520
0.5824	503.4	42610	1110
0.5847	463.9	52540	1480
0.5973	532.9	37580	800
0.601	593.5	23240	290
0.6018	463.9	55230	1520
0.6044	503.4	45070	1040
0.6188	463.9	57570	1520
0.6215	562.1	31940	490
0.6293	503.4	47540	1110
0.6317	532.9	40070	690
0.6338	463.9	60060	1670
0.6519	503.4	50050	1280
0.6612	562.1	33840	420
0.6674	532.9	42460	640
0.6764	503.4	52520	940
0.6862	562.1	34740	310
0.6991	562.1	34960	190
0.7065	503.4	55110	810
0.7073	532.9	45100	480
0.7333	503.4	57500	640
0.7417	532.9	46380	350
0.7658	503.4	59260	470

System: dodecane + nitrogen; phases: Gas, Liquid
Property: Mole fraction of nitrogen (Gas); method: Chromatography
Mole fraction of nitrogen	Temperature, K	Mole fraction of nitrogen	uncertainty
0.0029	562.1	0.1732	0.0078
0.0131	593.5	0.2905	0.0111
0.0167	532.9	0.7162	0.0126
0.0184	410.7	0.9915	0.0013
0.0202	463.9	0.9501	0.0033
0.0204	344.4	0.9987	0.0002
0.0213	503.4	0.868	0.0061
0.0222	532.9	0.768	0.0112
0.0223	562.1	0.6132	0.0198
0.031	532.9	0.8236	0.0113
0.0339	410.7	0.9949	0.0004
0.0372	463.9	0.971	0.0019
0.0411	344.4	0.9992	0.0002
0.0423	532.9	0.8627	0.0069
0.0435	562.1	0.7587	0.0134
0.0436	503.4	0.9272	0.0045
0.0483	410.7	0.9959	0.0004
0.0504	593.5	0.5802	0.0172
0.0544	463.9	0.979	0.0011
0.0596	410.7	0.9965	0.0004
0.0639	503.4	0.9469	0.0034
0.0647	532.9	0.8981	0.0054
0.0655	562.1	0.8204	0.0087
0.0669	344.4	0.9994	0.0002
0.0716	463.9	0.9831	0.0013
0.0754	410.7	0.9969	0.0005
0.0803	593.5	0.6914	0.0133
0.0834	503.4	0.9568	0.0024
0.0858	532.9	0.9199	0.0042
0.0875	463.9	0.9853	0.0011
0.0905	562.1	0.857	0.0081
0.0952	344.4	0.9995	0.0002
0.1041	503.4	0.9628	0.0021
0.1071	532.9	0.9316	0.0034
0.1076	593.5	0.7485	0.0115
0.1089	410.7	0.9974	0.0002
0.1099	562.1	0.8775	0.0063
0.1182	344.4	0.9995	0.0002
0.1245	463.9	0.9878	0.0008
0.1271	532.9	0.9382	0.0029
0.1308	593.5	0.7829	0.0084
0.1315	562.1	0.8908	0.0052
0.1383	410.7	0.9974	0.0002
0.1403	503.4	0.9696	0.0018
0.1435	344.4	0.9995	0.0002
0.1521	532.9	0.9454	0.0034
0.1593	463.9	0.9888	0.0007
0.1698	410.7	0.9973	0.0002
0.1703	344.4	0.9994	0.0002
0.1778	562.1	0.9067	0.0043
0.1837	503.4	0.9728	0.0012
0.1863	593.5	0.8215	0.0074
0.1881	344.4	0.9994	0.0002
0.189	410.7	0.9972	0.0002
0.1945	463.9	0.9894	0.0006
0.2021	532.9	0.9519	0.0024
0.2098	344.4	0.9993	0.0002
0.2158	410.7	0.997	0.0002
0.2166	562.1	0.9165	0.0039
0.2213	503.4	0.9746	0.0015
0.2272	463.9	0.9895	0.0006
0.228	344.4	0.9992	0.0002
0.2344	593.5	0.8426	0.0064
0.2426	410.7	0.9968	0.0003
0.2438	344.4	0.9992	0.0002
0.2462	532.9	0.9558	0.0021
0.2568	463.9	0.9894	0.0006
0.2582	562.1	0.9208	0.0035
0.2588	344.4	0.9991	0.0002
0.2602	503.4	0.9755	0.0012
0.2653	410.7	0.9966	0.0002
0.2716	344.4	0.9991	0.0002
0.2837	593.5	0.8519	0.0057
0.2868	463.9	0.9891	0.0007
0.2879	410.7	0.9964	0.0003
0.2908	344.4	0.999	0.0002
0.2945	503.4	0.9754	0.0012
0.2957	532.9	0.9584	0.002
0.2982	562.1	0.9236	0.0032
0.3032	344.4	0.9989	0.0002
0.3091	410.7	0.9961	0.0004
0.315	463.9	0.9885	0.0007
0.317	344.4	0.9988	0.0002
0.3252	503.4	0.9753	0.0012
0.3313	410.7	0.9959	0.0005
0.3314	344.4	0.9987	0.0002
0.3328	532.9	0.9584	0.002
0.3341	593.5	0.8572	0.0054
0.3384	562.1	0.9247	0.0033
0.3407	344.4	0.9986	0.0004
0.3439	463.9	0.9879	0.0008
0.3508	410.7	0.9956	0.0004
0.3572	344.4	0.9985	0.0002
0.3592	503.4	0.9743	0.0013
0.3654	532.9	0.9586	0.0022
0.3665	344.4	0.9984	0.0002
0.3698	410.7	0.9951	0.0003
0.3706	463.9	0.9874	0.0008
0.3739	593.5	0.8582	0.0055
0.3743	562.1	0.9245	0.0033
0.3771	344.4	0.9983	0.0004
0.389	344.4	0.9982	0.0004
0.3903	410.7	0.9948	0.0005
0.3927	503.4	0.9735	0.0013
0.3965	463.9	0.9867	0.0008
0.3991	344.4	0.9981	0.0004
0.4042	532.9	0.9571	0.0032
0.4055	562.1	0.9241	0.0033
0.4095	344.4	0.998	0.0003
0.4109	410.7	0.9943	0.0006
0.419	344.4	0.9978	0.0003
0.4194	463.9	0.9859	0.0011
0.4223	503.4	0.972	0.0016
0.4298	410.7	0.9938	0.0005
0.4302	593.5	0.855	0.0058
0.439	532.9	0.955	0.0029
0.4415	463.9	0.985	0.0013
0.4435	562.1	0.9216	0.0035
0.4469	410.7	0.9934	0.0006
0.4526	503.4	0.9708	0.0014
0.46	410.7	0.9929	0.0006
0.4653	463.9	0.9836	0.0008
0.4708	532.9	0.9519	0.0034
0.4758	593.5	0.8486	0.0059
0.476	410.7	0.9923	0.0006
0.4816	562.1	0.9191	0.0036
0.4828	503.4	0.9692	0.0015
0.4877	463.9	0.9826	0.0009
0.4917	410.7	0.9918	0.0006
0.506	532.9	0.9482	0.0032
0.5062	410.7	0.9911	0.0008
0.5089	503.4	0.9674	0.0018
0.5092	463.9	0.9815	0.0011
0.5131	562.1	0.9127	0.0043
0.5205	410.7	0.9906	0.0006
0.5265	593.5	0.8364	0.0067
0.5317	532.9	0.9457	0.003
0.5318	463.9	0.9803	0.0015
0.5341	410.7	0.9899	0.0008
0.5353	503.4	0.9653	0.0021
0.5487	463.9	0.9786	0.0013
0.5497	562.1	0.9046	0.0044
0.5568	593.5	0.8259	0.0078
0.5587	503.4	0.9625	0.0026
0.5661	463.9	0.9773	0.0015
0.5712	532.9	0.9404	0.004
0.5769	562.1	0.899	0.0044
0.5824	503.4	0.9595	0.0022
0.5847	463.9	0.9758	0.0016
0.5973	532.9	0.9347	0.0043
0.601	593.5	0.805	0.0083
0.6018	463.9	0.9738	0.0019
0.6044	503.4	0.9561	0.0023
0.6188	463.9	0.9717	0.0018
0.6215	562.1	0.8874	0.0055
0.6293	503.4	0.9526	0.0032
0.6317	532.9	0.9261	0.0039
0.6338	463.9	0.9701	0.0019
0.6519	503.4	0.9476	0.0035
0.6612	562.1	0.8729	0.0064
0.6674	532.9	0.9171	0.0049
0.6764	503.4	0.9427	0.0036
0.6862	562.1	0.8592	0.0079
0.6991	562.1	0.849	0.0093
0.7065	503.4	0.9358	0.0041
0.7073	532.9	0.8981	0.006
0.7333	503.4	0.9251	0.0054
0.7417	532.9	0.8842	0.0063
0.7658	503.4	0.9088	0.0059
