Measured thermophysical data. Measurement of CO2 Solubility in Ionic Liquids: [BMP][Tf2N] and [BMP][MeSO4] by Measuring Bubble-Point Pressure
Source: J. Chem. Eng. Data, 2011, 10.1021/je101100d
Compound 1: 1-butyl-1-methylpyrrolidinium bis[(trifluoromethyl)sulfonyl]imide, C11H20F6N2O4S2, InChI=1S/C9H20N.C2F6NO4S2/c1-3-4-7-10(2)8-5-6-9-10;3-1(4,5)14(10,11)9-15(12,13)2(6,7)8/h3-9H2,1-2H3;/q+1;-1
Compound 2: 1-butyl-1-methylpyrrolidinium methyl sulfate, C10H23NO4S, InChI=1S/C9H20N.CH4O4S/c1-3-4-7-10(2)8-5-6-9-10;1-5-6(2,3)4/h3-9H2,1-2H3;1H3,(H,2,3,4)/q+1;/p-1
Compound 3: carbon dioxide, CO2, InChI=1S/CO2/c2-1-3, purity 99.995%

System: carbon dioxide + 1-butyl-1-methylpyrrolidinium bis[(trifluoromethyl)sulfonyl]imide; phases: Liquid, Gas
Property: Vapor or sublimation pressure, kPa (Liquid); method: Closed cell (Static) method
Temperature, K	Mole fraction of carbon dioxide	Vapor or sublimation pressure, kPa	uncertainty
303.15	0.2276	680	120
303.15	0.35	1570	130
303.15	0.4776	2650	140
303.15	0.5431	3360	150
303.15	0.6176	4270	210
303.15	0.6745	5850	260
303.15	0.7249	6800	960
303.15	0.7661	14860	3600
303.15	0.8029	35160	5520
313.15	0.2276	990	130
313.15	0.35	1930	140
313.15	0.4776	3320	160
313.15	0.5431	4250	180
313.15	0.6176	5400	260
313.15	0.6745	7480	510
313.15	0.7249	10830	1300
313.15	0.7661	19780	3610
313.15	0.8029	39340	5410
323.15	0.2276	1230	140
323.15	0.35	2380	150
323.15	0.4776	4010	170
323.15	0.5431	5160	230
323.15	0.6176	6800	350
323.15	0.6745	9740	740
323.15	0.7249	14700	1590
323.15	0.7661	24670	3780
323.15	0.8029	44540	5280
333.15	0.2276	1400	150
333.15	0.35	2780	170
333.15	0.4776	4690	200
333.15	0.5431	6100	280
333.15	0.6176	8300	450
333.15	0.6745	12060	900
333.15	0.7249	18000	1760
333.15	0.7661	28520	3850
333.15	0.8029	48400	5450
343.15	0.2276	1560	170
343.15	0.35	3220	190
343.15	0.4776	5440	220
343.15	0.5431	7160	330
343.15	0.6176	9790	570
343.15	0.6745	14750	1120
343.15	0.7249	21830	1930
343.15	0.7661	32800	3920
343.15	0.8029	52750	5350
353.15	0.2276	1820	180
353.15	0.35	3640	210
353.15	0.4776	6330	260
353.15	0.5431	8300	390
353.15	0.6176	11500	660
353.15	0.6745	17130	1220
353.15	0.7249	24610	2000
353.15	0.7661	35760	4010
353.15	0.8029	56230	5540
363.15	0.2276	2040	190
363.15	0.35	4080	230
363.15	0.4776	7250	290
363.15	0.5431	9450	450
363.15	0.6176	13300	770
363.15	0.6745	19820	1350
363.15	0.7249	27790	2020
363.15	0.7661	38590	4010
363.15	0.8029	59440	5680
373.15	0.2276	2260	210
373.15	0.35	4550	260
373.15	0.4776	8090	330
373.15	0.5431	10680	500
373.15	0.6176	14850	910
373.15	0.6745	22720	1480
373.15	0.7249	30710	1970
373.15	0.7661	40800	4080
373.15	0.8029	62770	5970

System: carbon dioxide + 1-butyl-1-methylpyrrolidinium methyl sulfate; phases: Liquid, Gas
Property: Vapor or sublimation pressure, kPa (Liquid); method: Closed cell (Static) method
Temperature, K	Mole fraction of carbon dioxide	Vapor or sublimation pressure, kPa	uncertainty
303.15	0.2871	3070	390
303.15	0.397	7170	480
303.15	0.4833	12400	1070
303.15	0.5319	22400	5480
303.15	0.6049	76900	7470
313.15	0.2871	3860	410
313.15	0.397	8200	560
313.15	0.4833	14890	1240
313.15	0.5319	26450	5770
313.15	0.6049	81430	7470
323.15	0.2871	4500	520
323.15	0.397	10080	680
323.15	0.4833	17900	1380
323.15	0.5319	30270	5770
323.15	0.6049	84600	7460
333.15	0.2871	5230	650
333.15	0.397	12340	760
333.15	0.4833	20200	1460
333.15	0.5319	33800	5840
333.15	0.6049	87970	7390
343.15	0.2871	6050	800
343.15	0.397	14800	860
343.15	0.4833	22720	1490
343.15	0.5319	36760	5840
343.15	0.6049	90600	7370
353.15	0.2871	6870	1000
353.15	0.397	17820	940
353.15	0.4833	25100	1450
353.15	0.5319	39400	5830
353.15	0.6049	92950	7330
363.15	0.2871	7750	1140
363.15	0.397	20230	1030
363.15	0.4833	27530	1470
363.15	0.5319	42200	5790
363.15	0.6049	95100	7260
373.15	0.2871	8600	1290
373.15	0.397	22680	1080
373.15	0.4833	29500	1620
373.15	0.5319	45850	5700
373.15	0.6049	97300	7050
