Measured thermophysical data. Henry's Law Constants and Infinite Dilution Activity Coefficients of Propane, Propene, Butane, 2-Methylpropane, 1-Butene, 2-Methylpropene, trans-2-Butene, cis-2-Butene, 1,3-Butadiene, Dimethyl Ether, Chloroethane, and 1,1-Difluoroethane in 2-Methylphenol, 3-Methylphenol, and 4-Methylphenol
Source: J. Chem. Eng. Data, 2010, 10.1021/je100529s
Compound 1: butane, C4H10, InChI=1S/C4H10/c1-3-4-2/h3-4H2,1-2H3, purity 99.8%
Compound 2: 2-methylpropane, C4H10, InChI=1S/C4H10/c1-4(2)3/h4H,1-3H3, purity 99%
Compound 3: 1-butene, C4H8, InChI=1S/C4H8/c1-3-4-2/h3H,1,4H2,2H3, purity 99%
Compound 4: 2-methylpropene, C4H8, InChI=1S/C4H8/c1-4(2)3/h1H2,2-3H3, purity 99%
Compound 5: propane, C3H8, InChI=1S/C3H8/c1-3-2/h3H2,1-2H3, purity 99.5%
Compound 6: propene, C3H6, InChI=1S/C3H6/c1-3-2/h3H,1H2,2H3, purity 99.5%
Compound 7: (Z)-2-butene, C4H8, InChI=1S/C4H8/c1-3-4-2/h3-4H,1-2H3/b4-3-, purity 99%
Compound 8: (E)-2-butene, C4H8, InChI=1S/C4H8/c1-3-4-2/h3-4H,1-2H3/b4-3+, purity 99%
Compound 9: chloroethane, C2H5Cl, InChI=1S/C2H5Cl/c1-2-3/h2H2,1H3, purity 99.7%
Compound 10: 1,1-difluoroethane, C2H4F2, InChI=1S/C2H4F2/c1-2(3)4/h2H,1H3, purity 98%
Compound 11: 1,3-butadiene, C4H6, InChI=1S/C4H6/c1-3-4-2/h3-4H,1-2H2, purity 99%
Compound 12: 4-methylphenol, C7H8O, InChI=1S/C7H8O/c1-6-2-4-7(8)5-3-6/h2-5,8H,1H3, purity 99%
Compound 13: dimethyl ether, C2H6O, InChI=1S/C2H6O/c1-3-2/h1-2H3, purity 99%
Compound 14: 2-methylphenol, C7H8O, InChI=1S/C7H8O/c1-6-4-2-3-5-7(6)8/h2-5,8H,1H3, purity 99%
Compound 15: 3-methylphenol, C7H8O, InChI=1S/C7H8O/c1-6-3-2-4-7(8)5-6/h2-5,8H,1H3, purity 98%

System: propane + 2-methylphenol; phases: Liquid, Gas
Fixed: Mole fraction of propane = 0
Property: Activity coefficient of propane (Liquid); method: Gas Stripping Method
Temperature, K	Activity coefficient of propane	uncertainty
299.99	6.34	0.38
309.99	6.04	0.36
319.99	5.83	0.35
329.99	5.58	0.33

System: propane + 2-methylphenol; phases: Liquid, Gas
Fixed: Mole fraction of propane = 0
Property: Henry's Law constant (mole fraction scale), kPa of propane (Liquid); method: Gas Stripping Method
Temperature, K	Henry's Law constant (mole fraction scale), kPa of propane	uncertainty
299.99	5330	226
309.99	6300	267
319.99	7370	313
329.99	8430	358

System: 2-methylphenol + propene; phases: Liquid, Gas
Fixed: Mole fraction of propene = 0
Property: Activity coefficient of propene (Liquid); method: Gas Stripping Method
Temperature, K	Activity coefficient of propene	uncertainty
299.99	3.81	0.23
309.99	3.71	0.22
319.99	3.6	0.22
329.99	3.48	0.21

System: 2-methylphenol + propene; phases: Liquid, Gas
Fixed: Mole fraction of propene = 0
Property: Henry's Law constant (mole fraction scale), kPa of propene (Liquid); method: Gas Stripping Method
Temperature, K	Henry's Law constant (mole fraction scale), kPa of propene	uncertainty
299.99	3790	161
309.99	4530	192
319.99	5320	226
329.99	6100	259

System: 2-methylphenol + butane; phases: Liquid, Gas
Fixed: Mole fraction of butane = 0
Property: Activity coefficient of butane (Liquid); method: Gas Stripping Method
Temperature, K	Activity coefficient of butane	uncertainty
299.99	6.92	0.42
309.99	6.61	0.4
319.99	6.26	0.38
329.99	5.92	0.36

System: 2-methylphenol + butane; phases: Liquid, Gas
Fixed: Mole fraction of butane = 0
Property: Henry's Law constant (mole fraction scale), kPa of butane (Liquid); method: Gas Stripping Method
Temperature, K	Henry's Law constant (mole fraction scale), kPa of butane	uncertainty
299.99	1650	70
309.99	2080	88
319.99	2550	108
329.99	3060	130

System: 2-methylpropane + 2-methylphenol; phases: Liquid, Gas
Fixed: Mole fraction of 2-methylpropane = 0
Property: Activity coefficient of 2-methylpropane (Liquid); method: Gas Stripping Method
Temperature, K	Activity coefficient of 2-methylpropane	uncertainty
299.99	7.92	0.48
309.99	7.57	0.45
319.99	7.14	0.43
329.99	6.73	0.4

System: 2-methylpropane + 2-methylphenol; phases: Liquid, Gas
Fixed: Mole fraction of 2-methylpropane = 0
Property: Henry's Law constant (mole fraction scale), kPa of 2-methylpropane (Liquid); method: Gas Stripping Method
Temperature, K	Henry's Law constant (mole fraction scale), kPa of 2-methylpropane	uncertainty
299.99	2630	112
309.99	3250	138
319.99	3880	165
329.99	4560	193

System: 2-methylphenol + 1-butene; phases: Liquid, Gas
Fixed: Mole fraction of 1-butene = 0
Property: Activity coefficient of 1-butene (Liquid); method: Gas Stripping Method
Temperature, K	Activity coefficient of 1-butene	uncertainty
299.99	4.29	0.26
309.99	4.15	0.25
319.99	4.03	0.24
329.99	3.87	0.23

System: 2-methylphenol + 1-butene; phases: Liquid, Gas
Fixed: Mole fraction of 1-butene = 0
Property: Henry's Law constant (mole fraction scale), kPa of 1-butene (Liquid); method: Gas Stripping Method
Temperature, K	Henry's Law constant (mole fraction scale), kPa of 1-butene	uncertainty
299.99	1240	53
309.99	1570	67
319.99	1950	83
329.99	2360	100

System: 2-methylphenol + 2-methylpropene; phases: Liquid, Gas
Fixed: Mole fraction of 2-methylpropene = 0
Property: Activity coefficient of 2-methylpropene (Liquid); method: Gas Stripping Method
Temperature, K	Activity coefficient of 2-methylpropene	uncertainty
299.99	4.11	0.25
309.99	3.98	0.24
319.99	3.84	0.23
329.99	3.7	0.22

System: 2-methylphenol + 2-methylpropene; phases: Liquid, Gas
Fixed: Mole fraction of 2-methylpropene = 0
Property: Henry's Law constant (mole fraction scale), kPa of 2-methylpropene (Liquid); method: Gas Stripping Method
Temperature, K	Henry's Law constant (mole fraction scale), kPa of 2-methylpropene	uncertainty
299.99	1200	51
309.99	1530	65
319.99	1890	80
329.99	2290	97

System: 2-methylphenol + (E)-2-butene; phases: Liquid, Gas
Fixed: Mole fraction of (E)-2-butene = 0
Property: Activity coefficient of (E)-2-butene (Liquid); method: Gas Stripping Method
Temperature, K	Activity coefficient of (E)-2-butene	uncertainty
299.99	4.25	0.26
309.99	4.13	0.25
319.99	3.98	0.24
329.99	3.82	0.23

System: 2-methylphenol + (E)-2-butene; phases: Liquid, Gas
Fixed: Mole fraction of (E)-2-butene = 0
Property: Henry's Law constant (mole fraction scale), kPa of (E)-2-butene (Liquid); method: Gas Stripping Method
Temperature, K	Henry's Law constant (mole fraction scale), kPa of (E)-2-butene	uncertainty
299.99	970	41
309.99	1260	53
319.99	1570	67
329.99	1910	81

System: 2-methylphenol + (Z)-2-butene; phases: Liquid, Gas
Fixed: Mole fraction of (Z)-2-butene = 0
Property: Activity coefficient of (Z)-2-butene (Liquid); method: Gas Stripping Method
Temperature, K	Activity coefficient of (Z)-2-butene	uncertainty
299.99	3.79	0.23
309.99	3.69	0.22
319.99	3.57	0.21
329.99	3.44	0.21

System: 2-methylphenol + (Z)-2-butene; phases: Liquid, Gas
Fixed: Mole fraction of (Z)-2-butene = 0
Property: Henry's Law constant (mole fraction scale), kPa of (Z)-2-butene (Liquid); method: Gas Stripping Method
Temperature, K	Henry's Law constant (mole fraction scale), kPa of (Z)-2-butene	uncertainty
299.99	800	34
309.99	1040	44
319.99	1320	56
329.99	1630	69

System: 2-methylphenol + 1,3-butadiene; phases: Liquid, Gas
Fixed: Mole fraction of 1,3-butadiene = 0
Property: Activity coefficient of 1,3-butadiene (Liquid); method: Gas Stripping Method
Temperature, K	Activity coefficient of 1,3-butadiene	uncertainty
299.99	2.87	0.17
309.99	2.81	0.17
319.99	2.72	0.16
329.99	2.63	0.16

System: 2-methylphenol + 1,3-butadiene; phases: Liquid, Gas
Fixed: Mole fraction of 1,3-butadiene = 0
Property: Henry's Law constant (mole fraction scale), kPa of 1,3-butadiene (Liquid); method: Gas Stripping Method
Temperature, K	Henry's Law constant (mole fraction scale), kPa of 1,3-butadiene	uncertainty
299.99	790	34
309.99	1020	43
319.99	1270	54
329.99	1560	66

System: 2-methylphenol + dimethyl ether; phases: Liquid, Gas
Fixed: Mole fraction of dimethyl ether = 0
Property: Activity coefficient of dimethyl ether (Liquid); method: Gas Stripping Method
Temperature, K	Activity coefficient of dimethyl ether	uncertainty
299.99	0.1	0.01
309.98	0.12	0.01
319.98	0.14	0.01
329.99	0.18	0.01

System: 2-methylphenol + dimethyl ether; phases: Liquid, Gas
Fixed: Mole fraction of dimethyl ether = 0
Property: Henry's Law constant (mole fraction scale), kPa of dimethyl ether (Liquid); method: Gas Stripping Method
Temperature, K	Henry's Law constant (mole fraction scale), kPa of dimethyl ether	uncertainty
299.99	56	2
309.98	84	4
319.98	127	5
329.99	195	8

System: chloroethane + 2-methylphenol; phases: Liquid, Gas
Fixed: Mole fraction of chloroethane = 0
Property: Activity coefficient of chloroethane (Liquid); method: Gas Stripping Method
Temperature, K	Activity coefficient of chloroethane	uncertainty
299.99	1.83	0.11
309.98	1.77	0.11
319.98	1.76	0.11
329.99	1.7	0.1

System: chloroethane + 2-methylphenol; phases: Liquid, Gas
Fixed: Mole fraction of chloroethane = 0
Property: Henry's Law constant (mole fraction scale), kPa of chloroethane (Liquid); method: Gas Stripping Method
Temperature, K	Henry's Law constant (mole fraction scale), kPa of chloroethane	uncertainty
299.99	298	13
309.98	392	17
319.98	520	22
329.99	650	28

System: 1,1-difluoroethane + 2-methylphenol; phases: Liquid, Gas
Fixed: Mole fraction of 1,1-difluoroethane = 0
Property: Activity coefficient of 1,1-difluoroethane (Liquid); method: Gas Stripping Method
Temperature, K	Activity coefficient of 1,1-difluoroethane	uncertainty
299.99	4.02	0.24
309.99	3.84	0.23
319.99	3.67	0.22
329.99	3.49	0.21

System: 1,1-difluoroethane + 2-methylphenol; phases: Liquid, Gas
Fixed: Mole fraction of 1,1-difluoroethane = 0
Property: Henry's Law constant (mole fraction scale), kPa of 1,1-difluoroethane (Liquid); method: Gas Stripping Method
Temperature, K	Henry's Law constant (mole fraction scale), kPa of 1,1-difluoroethane	uncertainty
299.99	2270	96
309.99	2790	118
319.99	3370	143
329.99	3960	168

System: propane + 3-methylphenol; phases: Liquid, Gas
Fixed: Mole fraction of propane = 0
Property: Activity coefficient of propane (Liquid); method: Gas Stripping Method
Temperature, K	Activity coefficient of propane	uncertainty
289.98	6.31	0.38
299.98	6.36	0.38
309.99	6.24	0.37
319.99	6.06	0.36
329.99	5.88	0.35

System: propane + 3-methylphenol; phases: Liquid, Gas
Fixed: Mole fraction of propane = 0
Property: Henry's Law constant (mole fraction scale), kPa of propane (Liquid); method: Gas Stripping Method
Temperature, K	Henry's Law constant (mole fraction scale), kPa of propane	uncertainty
289.98	4200	178
299.98	5350	227
309.99	6500	276
319.99	7670	325
329.99	8880	377

System: 3-methylphenol + propene; phases: Liquid, Gas
Fixed: Mole fraction of propene = 0
Property: Activity coefficient of propene (Liquid); method: Gas Stripping Method
Temperature, K	Activity coefficient of propene	uncertainty
289.98	4.1	0.25
299.98	4.13	0.25
309.99	4.05	0.24
319.99	3.97	0.24
329.99	3.88	0.23

System: 3-methylphenol + propene; phases: Liquid, Gas
Fixed: Mole fraction of propene = 0
Property: Henry's Law constant (mole fraction scale), kPa of propene (Liquid); method: Gas Stripping Method
Temperature, K	Henry's Law constant (mole fraction scale), kPa of propene	uncertainty
289.98	3260	138
299.98	4100	174
309.99	4950	210
319.99	5860	249
329.99	6800	289

System: butane + 3-methylphenol; phases: Liquid, Gas
Fixed: Mole fraction of butane = 0
Property: Activity coefficient of butane (Liquid); method: Gas Stripping Method
Temperature, K	Activity coefficient of butane	uncertainty
289.98	7.22	0.43
299.98	7.06	0.42
309.99	6.88	0.41
319.99	6.6	0.4
329.99	6.33	0.38

System: butane + 3-methylphenol; phases: Liquid, Gas
Fixed: Mole fraction of butane = 0
Property: Henry's Law constant (mole fraction scale), kPa of butane (Liquid); method: Gas Stripping Method
Temperature, K	Henry's Law constant (mole fraction scale), kPa of butane	uncertainty
289.98	1270	54
299.98	1690	72
309.99	2170	92
319.99	2690	114
329.99	3270	139

System: 2-methylpropane + 3-methylphenol; phases: Liquid, Gas
Fixed: Mole fraction of 2-methylpropane = 0
Property: Activity coefficient of 2-methylpropane (Liquid); method: Gas Stripping Method
Temperature, K	Activity coefficient of 2-methylpropane	uncertainty
289.98	8.35	0.5
299.98	8.11	0.49
309.99	7.87	0.47
319.99	7.54	0.45
329.99	7.21	0.43

System: 2-methylpropane + 3-methylphenol; phases: Liquid, Gas
Fixed: Mole fraction of 2-methylpropane = 0
Property: Henry's Law constant (mole fraction scale), kPa of 2-methylpropane (Liquid); method: Gas Stripping Method
Temperature, K	Henry's Law constant (mole fraction scale), kPa of 2-methylpropane	uncertainty
289.98	2100	89
299.98	2690	114
309.99	3380	143
319.99	4100	174
329.99	4880	207

System: 1-butene + 3-methylphenol; phases: Liquid, Gas
Fixed: Mole fraction of 1-butene = 0
Property: Activity coefficient of 1-butene (Liquid); method: Gas Stripping Method
Temperature, K	Activity coefficient of 1-butene	uncertainty
289.98	4.86	0.29
299.98	4.75	0.29
309.99	4.62	0.28
319.99	4.48	0.27
329.99	4.36	0.26

System: 1-butene + 3-methylphenol; phases: Liquid, Gas
Fixed: Mole fraction of 1-butene = 0
Property: Henry's Law constant (mole fraction scale), kPa of 1-butene (Liquid); method: Gas Stripping Method
Temperature, K	Henry's Law constant (mole fraction scale), kPa of 1-butene	uncertainty
289.98	1040	44
299.98	1370	58
309.99	1750	74
319.99	2170	92
329.99	2660	113

System: 3-methylphenol + 2-methylpropene; phases: Liquid, Gas
Fixed: Mole fraction of 2-methylpropene = 0
Property: Activity coefficient of 2-methylpropene (Liquid); method: Gas Stripping Method
Temperature, K	Activity coefficient of 2-methylpropene	uncertainty
289.98	4.66	0.28
299.98	4.56	0.27
309.99	4.42	0.27
319.99	4.3	0.26
329.99	4.16	0.25

System: 3-methylphenol + 2-methylpropene; phases: Liquid, Gas
Fixed: Mole fraction of 2-methylpropene = 0
Property: Henry's Law constant (mole fraction scale), kPa of 2-methylpropene (Liquid); method: Gas Stripping Method
Temperature, K	Henry's Law constant (mole fraction scale), kPa of 2-methylpropene	uncertainty
289.98	1020	43
299.98	1330	56
309.99	1690	72
319.99	2110	90
329.99	2580	109

System: 3-methylphenol + (E)-2-butene; phases: Liquid, Gas
Fixed: Mole fraction of (E)-2-butene = 0
Property: Activity coefficient of (E)-2-butene (Liquid); method: Gas Stripping Method
Temperature, K	Activity coefficient of (E)-2-butene	uncertainty
289.98	4.68	0.28
299.98	4.57	0.27
309.99	4.49	0.27
319.99	4.35	0.26
329.99	4.23	0.25

System: 3-methylphenol + (E)-2-butene; phases: Liquid, Gas
Fixed: Mole fraction of (E)-2-butene = 0
Property: Henry's Law constant (mole fraction scale), kPa of (E)-2-butene (Liquid); method: Gas Stripping Method
Temperature, K	Henry's Law constant (mole fraction scale), kPa of (E)-2-butene	uncertainty
289.98	790	34
299.98	1050	45
309.99	1360	58
319.99	1710	73
329.99	2120	90

System: 3-methylphenol + (Z)-2-butene; phases: Liquid, Gas
Fixed: Mole fraction of (Z)-2-butene = 0
Property: Activity coefficient of (Z)-2-butene (Liquid); method: Gas Stripping Method
Temperature, K	Activity coefficient of (Z)-2-butene	uncertainty
289.98	4.29	0.26
299.98	4.2	0.25
309.99	4.09	0.25
319.99	3.99	0.24
329.99	3.88	0.23

System: 3-methylphenol + (Z)-2-butene; phases: Liquid, Gas
Fixed: Mole fraction of (Z)-2-butene = 0
Property: Henry's Law constant (mole fraction scale), kPa of (Z)-2-butene (Liquid); method: Gas Stripping Method
Temperature, K	Henry's Law constant (mole fraction scale), kPa of (Z)-2-butene	uncertainty
289.98	660	28
299.98	890	38
309.99	1160	49
319.99	1480	63
329.99	1840	78

System: 1,3-butadiene + 3-methylphenol; phases: Liquid, Gas
Fixed: Mole fraction of 1,3-butadiene = 0
Property: Activity coefficient of 1,3-butadiene (Liquid); method: Gas Stripping Method
Temperature, K	Activity coefficient of 1,3-butadiene	uncertainty
289.98	3.32	0.2
299.98	3.26	0.2
309.99	3.22	0.19
319.99	3.13	0.19
329.99	3.05	0.18

System: 1,3-butadiene + 3-methylphenol; phases: Liquid, Gas
Fixed: Mole fraction of 1,3-butadiene = 0
Property: Henry's Law constant (mole fraction scale), kPa of 1,3-butadiene (Liquid); method: Gas Stripping Method
Temperature, K	Henry's Law constant (mole fraction scale), kPa of 1,3-butadiene	uncertainty
289.98	680	29
299.98	900	38
309.99	1170	50
319.99	1460	62
329.99	1800	76

System: 3-methylphenol + dimethyl ether; phases: Liquid, Gas
Fixed: Mole fraction of dimethyl ether = 0
Property: Activity coefficient of dimethyl ether (Liquid); method: Gas Stripping Method
Temperature, K	Activity coefficient of dimethyl ether	uncertainty
289.97	0.11	0.01
299.98	0.13	0.01
309.98	0.15	0.01
319.99	0.18	0.01
329.99	0.2	0.01

System: 3-methylphenol + dimethyl ether; phases: Liquid, Gas
Fixed: Mole fraction of dimethyl ether = 0
Property: Henry's Law constant (mole fraction scale), kPa of dimethyl ether (Liquid); method: Gas Stripping Method
Temperature, K	Henry's Law constant (mole fraction scale), kPa of dimethyl ether	uncertainty
289.97	46	2
299.98	73	3
309.98	108	5
319.99	156	7
329.99	220	9

System: chloroethane + 3-methylphenol; phases: Liquid, Gas
Fixed: Mole fraction of chloroethane = 0
Property: Activity coefficient of chloroethane (Liquid); method: Gas Stripping Method
Temperature, K	Activity coefficient of chloroethane	uncertainty
289.97	2.13	0.13
299.98	2.1	0.13
309.98	2.05	0.12
319.99	1.99	0.12
329.99	1.93	0.12

System: chloroethane + 3-methylphenol; phases: Liquid, Gas
Fixed: Mole fraction of chloroethane = 0
Property: Henry's Law constant (mole fraction scale), kPa of chloroethane (Liquid); method: Gas Stripping Method
Temperature, K	Henry's Law constant (mole fraction scale), kPa of chloroethane	uncertainty
289.97	246	10
299.98	341	14
309.98	454	19
319.99	590	25
329.99	750	32

System: 1,1-difluoroethane + 3-methylphenol; phases: Liquid, Gas
Fixed: Mole fraction of 1,1-difluoroethane = 0
Property: Activity coefficient of 1,1-difluoroethane (Liquid); method: Gas Stripping Method
Temperature, K	Activity coefficient of 1,1-difluoroethane	uncertainty
289.98	4.79	0.29
299.98	4.59	0.28
309.99	4.37	0.26
319.99	4.16	0.25
329.99	3.98	0.24

System: 1,1-difluoroethane + 3-methylphenol; phases: Liquid, Gas
Fixed: Mole fraction of 1,1-difluoroethane = 0
Property: Henry's Law constant (mole fraction scale), kPa of 1,1-difluoroethane (Liquid); method: Gas Stripping Method
Temperature, K	Henry's Law constant (mole fraction scale), kPa of 1,1-difluoroethane	uncertainty
289.98	2050	87
299.98	2590	110
309.99	3180	135
319.99	3820	162
329.99	4520	192

System: propane + 4-methylphenol; phases: Liquid, Gas
Fixed: Mole fraction of propane = 0
Property: Activity coefficient of propane (Liquid); method: Gas Stripping Method
Temperature, K	Activity coefficient of propane	uncertainty
309.99	6.29	0.38
319.99	6.12	0.37
329.99	5.93	0.36
340.02	5.74	0.34

System: propane + 4-methylphenol; phases: Liquid, Gas
Fixed: Mole fraction of propane = 0
Property: Henry's Law constant (mole fraction scale), kPa of propane (Liquid); method: Gas Stripping Method
Temperature, K	Henry's Law constant (mole fraction scale), kPa of propane	uncertainty
309.99	6560	278
319.99	7740	328
329.99	8950	380
340.02	10200	433

System: 4-methylphenol + propene; phases: Liquid, Gas
Fixed: Mole fraction of propene = 0
Property: Activity coefficient of propene (Liquid); method: Gas Stripping Method
Temperature, K	Activity coefficient of propene	uncertainty
309.99	4.07	0.24
319.99	4.02	0.24
329.99	3.92	0.24
340.02	3.84	0.23

System: 4-methylphenol + propene; phases: Liquid, Gas
Fixed: Mole fraction of propene = 0
Property: Henry's Law constant (mole fraction scale), kPa of propene (Liquid); method: Gas Stripping Method
Temperature, K	Henry's Law constant (mole fraction scale), kPa of propene	uncertainty
309.99	4970	211
319.99	5940	252
329.99	6890	292
340.02	7900	335

System: 4-methylphenol + butane; phases: Liquid, Gas
Fixed: Mole fraction of butane = 0
Property: Activity coefficient of butane (Liquid); method: Gas Stripping Method
Temperature, K	Activity coefficient of butane	uncertainty
309.99	6.88	0.41
319.99	6.62	0.4
329.99	6.32	0.38
340.02	6.09	0.37

System: 4-methylphenol + butane; phases: Liquid, Gas
Fixed: Mole fraction of butane = 0
Property: Henry's Law constant (mole fraction scale), kPa of butane (Liquid); method: Gas Stripping Method
Temperature, K	Henry's Law constant (mole fraction scale), kPa of butane	uncertainty
309.99	2170	92
319.99	2700	115
329.99	3270	139
340.02	3920	166

System: 2-methylpropane + 4-methylphenol; phases: Liquid, Gas
Fixed: Mole fraction of 2-methylpropane = 0
Property: Activity coefficient of 2-methylpropane (Liquid); method: Gas Stripping Method
Temperature, K	Activity coefficient of 2-methylpropane	uncertainty
309.99	7.93	0.48
319.99	7.62	0.46
329.99	7.3	0.44
340.02	7.03	0.42

System: 2-methylpropane + 4-methylphenol; phases: Liquid, Gas
Fixed: Mole fraction of 2-methylpropane = 0
Property: Henry's Law constant (mole fraction scale), kPa of 2-methylpropane (Liquid); method: Gas Stripping Method
Temperature, K	Henry's Law constant (mole fraction scale), kPa of 2-methylpropane	uncertainty
309.99	3400	144
319.99	4140	176
329.99	4940	210
340.02	5830	247

System: 4-methylphenol + 1-butene; phases: Liquid, Gas
Fixed: Mole fraction of 1-butene = 0
Property: Activity coefficient of 1-butene (Liquid); method: Gas Stripping Method
Temperature, K	Activity coefficient of 1-butene	uncertainty
309.99	4.66	0.28
319.99	4.55	0.27
329.99	4.4	0.26
340.02	4.26	0.26

System: 4-methylphenol + 1-butene; phases: Liquid, Gas
Fixed: Mole fraction of 1-butene = 0
Property: Henry's Law constant (mole fraction scale), kPa of 1-butene (Liquid); method: Gas Stripping Method
Temperature, K	Henry's Law constant (mole fraction scale), kPa of 1-butene	uncertainty
309.99	1760	75
319.99	2210	94
329.99	2690	114
340.02	3220	137

System: 4-methylphenol + 2-methylpropene; phases: Liquid, Gas
Fixed: Mole fraction of 2-methylpropene = 0
Property: Activity coefficient of 2-methylpropene (Liquid); method: Gas Stripping Method
Temperature, K	Activity coefficient of 2-methylpropene	uncertainty
309.99	4.44	0.27
319.99	4.34	0.26
329.99	4.2	0.25
340.02	4.07	0.24

System: 4-methylphenol + 2-methylpropene; phases: Liquid, Gas
Fixed: Mole fraction of 2-methylpropene = 0
Property: Henry's Law constant (mole fraction scale), kPa of 2-methylpropene (Liquid); method: Gas Stripping Method
Temperature, K	Henry's Law constant (mole fraction scale), kPa of 2-methylpropene	uncertainty
309.99	1700	72
319.99	2140	91
329.99	2600	110
340.02	3120	132

System: 4-methylphenol + (E)-2-butene; phases: Liquid, Gas
Fixed: Mole fraction of (E)-2-butene = 0
Property: Activity coefficient of (E)-2-butene (Liquid); method: Gas Stripping Method
Temperature, K	Activity coefficient of (E)-2-butene	uncertainty
309.99	4.48	0.27
319.99	4.35	0.26
329.99	4.25	0.26
340.02	4.14	0.25

System: 4-methylphenol + (E)-2-butene; phases: Liquid, Gas
Fixed: Mole fraction of (E)-2-butene = 0
Property: Henry's Law constant (mole fraction scale), kPa of (E)-2-butene (Liquid); method: Gas Stripping Method
Temperature, K	Henry's Law constant (mole fraction scale), kPa of (E)-2-butene	uncertainty
309.99	1360	58
319.99	1710	73
329.99	2130	90
340.02	2590	110

System: 4-methylphenol + (Z)-2-butene; phases: Liquid, Gas
Fixed: Mole fraction of (Z)-2-butene = 0
Property: Activity coefficient of (Z)-2-butene (Liquid); method: Gas Stripping Method
Temperature, K	Activity coefficient of (Z)-2-butene	uncertainty
309.99	4.12	0.25
319.99	4.03	0.24
329.99	3.91	0.23
340.02	3.8	0.23

System: 4-methylphenol + (Z)-2-butene; phases: Liquid, Gas
Fixed: Mole fraction of (Z)-2-butene = 0
Property: Henry's Law constant (mole fraction scale), kPa of (Z)-2-butene (Liquid); method: Gas Stripping Method
Temperature, K	Henry's Law constant (mole fraction scale), kPa of (Z)-2-butene	uncertainty
309.99	1170	50
319.99	1490	63
329.99	1850	79
340.02	2260	96

System: 4-methylphenol + 1,3-butadiene; phases: Liquid, Gas
Fixed: Mole fraction of 1,3-butadiene = 0
Property: Activity coefficient of 1,3-butadiene (Liquid); method: Gas Stripping Method
Temperature, K	Activity coefficient of 1,3-butadiene	uncertainty
309.99	3.26	0.2
319.99	3.16	0.19
329.99	3.07	0.18
340.02	2.99	0.18

System: 4-methylphenol + 1,3-butadiene; phases: Liquid, Gas
Fixed: Mole fraction of 1,3-butadiene = 0
Property: Henry's Law constant (mole fraction scale), kPa of 1,3-butadiene (Liquid); method: Gas Stripping Method
Temperature, K	Henry's Law constant (mole fraction scale), kPa of 1,3-butadiene	uncertainty
309.99	1180	50
319.99	1480	63
329.99	1820	77
340.02	2200	93

System: 4-methylphenol + dimethyl ether; phases: Liquid, Gas
Fixed: Mole fraction of dimethyl ether = 0
Property: Activity coefficient of dimethyl ether (Liquid); method: Gas Stripping Method
Temperature, K	Activity coefficient of dimethyl ether	uncertainty
309.98	0.16	0.01
319.98	0.19	0.01
329.99	0.21	0.01
340.01	0.24	0.02

System: 4-methylphenol + dimethyl ether; phases: Liquid, Gas
Fixed: Mole fraction of dimethyl ether = 0
Property: Henry's Law constant (mole fraction scale), kPa of dimethyl ether (Liquid); method: Gas Stripping Method
Temperature, K	Henry's Law constant (mole fraction scale), kPa of dimethyl ether	uncertainty
309.98	114	5
319.98	168	7
329.99	236	10
340.01	325	14

System: chloroethane + 4-methylphenol; phases: Liquid, Gas
Fixed: Mole fraction of chloroethane = 0
Property: Activity coefficient of chloroethane (Liquid); method: Gas Stripping Method
Temperature, K	Activity coefficient of chloroethane	uncertainty
309.98	2.09	0.13
319.98	2.06	0.12
329.99	1.98	0.12
340.01	1.93	0.12

System: chloroethane + 4-methylphenol; phases: Liquid, Gas
Fixed: Mole fraction of chloroethane = 0
Property: Henry's Law constant (mole fraction scale), kPa of chloroethane (Liquid); method: Gas Stripping Method
Temperature, K	Henry's Law constant (mole fraction scale), kPa of chloroethane	uncertainty
309.98	464	20
319.98	610	26
329.99	760	32
340.01	950	40

System: 1,1-difluoroethane + 4-methylphenol; phases: Liquid, Gas
Fixed: Mole fraction of 1,1-difluoroethane = 0
Property: Activity coefficient of 1,1-difluoroethane (Liquid); method: Gas Stripping Method
Temperature, K	Activity coefficient of 1,1-difluoroethane	uncertainty
309.99	4.46	0.27
319.99	4.26	0.26
329.99	4.07	0.24
340.02	3.88	0.23

System: 1,1-difluoroethane + 4-methylphenol; phases: Liquid, Gas
Fixed: Mole fraction of 1,1-difluoroethane = 0
Property: Henry's Law constant (mole fraction scale), kPa of 1,1-difluoroethane (Liquid); method: Gas Stripping Method
Temperature, K	Henry's Law constant (mole fraction scale), kPa of 1,1-difluoroethane	uncertainty
309.99	3250	138
319.99	3910	166
329.99	4630	196
340.02	5380	228
