Measured thermophysical data. Solubilities of Apigenin in Ethanol + Water at Different Temperatures
Source: J. Chem. Eng. Data, 2010, 10.1021/je1001208
Compound 1: ethanol, C2H6O, InChI=1S/C2H6O/c1-2-3/h3H,2H2,1H3
Compound 2: water, H2O, InChI=1S/H2O/h1H2
Compound 3: 5,7-dihydroxy-2-(4-hydroxyphenyl)-4H-chromen-4-one, C15H10O5, InChI=1S/C15H10O5/c16-9-3-1-8(2-4-9)13-7-12(19)15-11(18)5-10(17)6-14(15)20-13/h1-7,16-18H, purity 95%

System: 5,7-dihydroxy-2-(4-hydroxyphenyl)-4H-chromen-4-one + water; phases: Liquid, Crystal
Fixed: Pressure, kPa = 101
Property: Mole fraction of 5,7-dihydroxy-2-(4-hydroxyphenyl)-4H-chromen-4-one (Liquid); method: Chromatography
Temperature, K	Mole fraction of 5,7-dihydroxy-2-(4-hydroxyphenyl)-4H-chromen-4-one	uncertainty
273.2	1.67e-07	8e-09
283.2	4.57e-07	1.8e-08
293.2	8.99e-07	3.3e-08
303.2	1.39e-06	5e-08
313.2	1.91e-06	7e-08
323.2	2.41e-06	8e-08

System: ethanol + 5,7-dihydroxy-2-(4-hydroxyphenyl)-4H-chromen-4-one; phases: Liquid, Crystal
Fixed: Pressure, kPa = 101
Property: Mole fraction of 5,7-dihydroxy-2-(4-hydroxyphenyl)-4H-chromen-4-one (Liquid); method: Chromatography
Temperature, K	Mole fraction of 5,7-dihydroxy-2-(4-hydroxyphenyl)-4H-chromen-4-one	uncertainty
273.2	0.00018	2.6e-06
283.2	0.0002176	3.1e-06
293.2	0.0002623	3.7e-06
303.2	0.0003157	4.4e-06
313.2	0.0003672	5.2e-06
323.2	0.0004386	6.1e-06

System: ethanol + 5,7-dihydroxy-2-(4-hydroxyphenyl)-4H-chromen-4-one + water; phases: Liquid, Crystal
Fixed: Pressure, kPa = 101
Property: Mole fraction of 5,7-dihydroxy-2-(4-hydroxyphenyl)-4H-chromen-4-one (Liquid); method: Chromatography
Temperature, K	Solvent: Mole fraction of ethanol	Mole fraction of 5,7-dihydroxy-2-(4-hydroxyphenyl)-4H-chromen-4-one	uncertainty
273.2	0	1.67e-07	8e-09
273.2	0.099	1.97e-06	6e-08
273.2	0.1995	3.27e-06	1e-07
273.2	0.2918	2.09e-05	5e-07
273.2	0.4008	6.46e-05	1.4e-06
273.2	0.5026	0.0001256	2.5e-06
273.2	0.5862	0.0001886	3.5e-06
273.2	0.6862	0.0002751	4.7e-06
273.2	0.7806	0.0003632	5.9e-06
273.2	0.8988	0.0003459	5.4e-06
273.2	1	0.00018	2.6e-06
283.2	0	4.57e-07	1.8e-08
283.2	0.099	2.41e-06	8e-08
283.2	0.1995	7.72e-06	2.4e-07
283.2	0.2918	3.48e-05	9e-07
283.2	0.4008	8.82e-05	2e-06
283.2	0.5026	0.0001576	3.2e-06
283.2	0.5862	0.0002287	4.3e-06
283.2	0.6862	0.0003175	5.4e-06
283.2	0.7806	0.0004008	6.4e-06
283.2	0.8988	0.0003907	5.8e-06
283.2	1	0.0002176	3.1e-06
293.2	0	8.99e-07	3.3e-08
293.2	0.099	3.03e-06	1e-07
293.2	0.1995	1.3e-05	4e-07
293.2	0.2918	4.74e-05	1.2e-06
293.2	0.4008	0.0001086	2.4e-06
293.2	0.5026	0.0001941	3.9e-06
293.2	0.5862	0.0002716	5e-06
293.2	0.6862	0.0003632	6.2e-06
293.2	0.7806	0.0004423	7e-06
293.2	0.8988	0.0004407	6.5e-06
293.2	1	0.0002623	3.7e-06
303.2	0	1.39e-06	5e-08
303.2	0.099	4.03e-06	1.3e-07
303.2	0.1995	1.95e-05	6e-07
303.2	0.2918	6.33e-05	1.6e-06
303.2	0.4008	0.0001402	3.1e-06
303.2	0.5026	0.0002396	4.8e-06
303.2	0.5862	0.0003208	6e-06
303.2	0.6862	0.0004126	7.1e-06
303.2	0.7806	0.0004952	7.9e-06
303.2	0.8988	0.0004974	7.4e-06
303.2	1	0.0003157	4.4e-06
313.2	0	1.91e-06	7e-08
313.2	0.099	5.36e-06	1.7e-07
313.2	0.1995	2.75e-05	8e-07
313.2	0.2918	8.12e-05	2e-06
313.2	0.4008	0.0001787	3.9e-06
313.2	0.5026	0.0002877	5.8e-06
313.2	0.5862	0.0003828	7.2e-06
313.2	0.6862	0.0004873	8.4e-06
313.2	0.7806	0.0005804	9.3e-06
313.2	0.8988	0.000586	8.7e-06
313.2	1	0.0003672	5.2e-06
323.2	0	2.41e-06	8e-08
323.2	0.099	6.66e-06	2.9e-07
323.2	0.1995	3.78e-05	1.2e-06
323.2	0.2918	0.0001143	2.9e-06
323.2	0.4008	0.000224	5e-06
323.2	0.5026	0.0003617	7.2e-06
323.2	0.5862	0.0004723	8.8e-06
323.2	0.6862	0.0005899	1.01e-05
323.2	0.7806	0.0006788	1.08e-05
323.2	0.8988	0.0006913	1.01e-05
323.2	1	0.0004386	6.1e-06
