Measured thermophysical data. Low-Temperature Heat Capacities and Thermodynamic Properties of N-Benzyloxycarbonyl-l-3-phenylalanine (C17H17NO4)
Source: J. Chem. Eng. Data, 2010, 10.1021/je1004092
Compound 1: ((benzyloxy)carbonyl)-L-phenylalanine, C17H17NO4, InChI=1S/C17H17NO4/c19-16(20)15(11-13-7-3-1-4-8-13)18-17(21)22-12-14-9-5-2-6-10-14/h1-10,15H,11-12H2,(H,18,21)(H,19,20)/t15-/m0/s1, purity 99%

System: ((benzyloxy)carbonyl)-L-phenylalanine; phases: Crystal, Liquid, Air at 1 atmosphere
Property: Molar enthalpy of transition or fusion, kJ/mol (Crystal); method: Adiabatic calorimetry
Molar enthalpy of transition or fusion, kJ/mol	uncertainty
31.787	0.033

System: ((benzyloxy)carbonyl)-L-phenylalanine; phases: Crystal, Liquid, Air at 1 atmosphere
Property: Triple point temperature, K (Crystal); method: Adiabatic calorimetry
Triple point temperature, K	uncertainty
359.479	1

System: ((benzyloxy)carbonyl)-L-phenylalanine; phases: Crystal
Fixed: Pressure, kPa = 101.325
Property: Molar heat capacity at constant pressure, J/K/mol (Crystal); method: Vacuum adiabatic calorimetry
Temperature, K	Molar heat capacity at constant pressure, J/K/mol	uncertainty
79.129	109.2	0.7
81.175	111.4	0.7
84.318	114.7	0.7
87.26	119.7	0.7
90.203	124.4	0.8
93.146	128	0.8
96.096	130.2	0.8
99.051	132.6	0.8
103.158	135.7	0.9
107.224	140.4	0.9
110.145	143.8	0.9
113.081	146.3	0.9
116.026	149.3	0.9
118.995	150.1	0.9
121.918	156.4	1
124.865	158.7	1
127.826	160.7	1
130.809	161.9	1
133.809	165.1	1
136.776	168.9	1
139.764	171.3	1.1
142.777	172.5	1.1
145.753	176.2	1.1
148.702	181.2	1.1
152.53	181.4	1.1
156.3	185.2	1.1
159.199	189.8	1.2
162.163	191.9	1.2
165.093	194.2	1.2
168.086	197.5	1.2
171.135	198.8	1.2
174.16	201.1	1.2
177.16	206.1	1.3
180.144	209.9	1.3
183.108	211.4	1.3
186.048	211.8	1.3
188.969	218.1	1.3
191.952	219.3	1.4
194.984	223	1.4
198.004	226.3	1.4
201.005	229.2	1.4
204.654	233.5	1.4
208.275	236.2	1.5
211.23	238.9	1.5
214.166	242	1.5
217.086	248.7	1.5
220	250.5	1.5
222.892	252.5	1.5
225.77	254.9	1.6
228.72	256.4	1.6
231.727	258	1.6
234.734	260.1	1.6
237.77	264.5	1.6
240.784	266.6	1.6
244.332	268.1	1.6
247.888	270.2	1.7
250.894	273.1	1.7
253.882	277.4	1.7
256.866	280.9	1.7
259.834	282.4	1.7
262.791	286.2	1.8
265.735	290.4	1.8
268.669	292.7	1.8
271.584	297.9	1.8
274.489	302.3	1.8
277.382	301.8	1.8
280.255	307.3	1.9
283.119	314.7	1.9
286.092	319.9	2
289.048	323.8	2
291.975	326.7	2
295.014	330.1	2
298.06	333	2
301.112	336.5	2.1
304.152	339.5	2.1
307.188	340.6	2.1
310.219	343.9	2.1
313.241	348.3	2.1
316.259	351.4	2.1
319.267	353.7	2.2
322.269	358.3	2.2
325.266	362.5	2.2
328.252	367.6	2.2
331.235	371.4	2.3
334.21	375.1	2.3
337.173	380.6	2.3
340.126	389.8	2.4
343.067	396.6	2.4
345.967	418.3	2.6
348.883	508.8	3.2

System: ((benzyloxy)carbonyl)-L-phenylalanine; phases: Liquid
Fixed: Pressure, kPa = 101.325
Property: Molar heat capacity at constant pressure, J/K/mol (Liquid); method: Vacuum adiabatic calorimetry
Temperature, K	Molar heat capacity at constant pressure, J/K/mol	uncertainty
361.429	549.6	3.3
364.562	551.9	3.4
367.701	552.7	3.4
370.829	553.6	3.4
373.947	554.9	3.4
377.053	555.6	3.4
380.134	557.1	3.4
383.207	558.5	3.4
386.327	560.8	3.4
389.43	562.4	3.4
392.554	563.6	3.4
395.546	564.8	3.4
