Measured thermophysical data. Volumetric Properties, Viscosities, and Refractive Indices for Aqueous 1-Amino-2-Propanol (Monoisopropanolamine (MIPA)) Solutions from (298.15 to 343.15) K
Source: J. Chem. Eng. Data, 2010, 10.1021/je100300s
Compound 1: 1-amino-2-propanol, C3H9NO, InChI=1S/C3H9NO/c1-3(5)2-4/h3,5H,2,4H2,1H3, purity 99%
Compound 2: water, H2O, InChI=1S/H2O/h1H2

System: 1-amino-2-propanol; phases: Liquid
Fixed: Pressure, kPa = 101.325
Property: Refractive index (Na D-line) (Liquid); method: Standard Abbe refractometry
Temperature, K	Refractive index (Na D-line)	uncertainty
293.15	1.448	0.00037
298.15	1.44609	0.00037
303.15	1.44409	0.00037
308.15	1.44211	0.00037
313.15	1.44009	0.00037
318.15	1.43817	0.00037
323.15	1.43631	0.00037
328.15	1.43405	0.00037
333.15	1.43208	0.00037

System: 1-amino-2-propanol; phases: Liquid
Fixed: Pressure, kPa = 101
Property: Viscosity, Pa*s (Liquid); method: CAPTUB:UFactor:6
Temperature, K	Viscosity, Pa*s	uncertainty
298.15	0.026685	0.000821
303.15	0.020314	0.000632
313.15	0.012514	0.000402
323.15	0.007543	0.000255
333.15	0.00522	0.000187
343.15	0.00377	0.000138

System: 1-amino-2-propanol; phases: Liquid
Fixed: Pressure, kPa = 101
Property: Mass density, kg/m3 (Liquid); method: VIBTUB:UFactor:6
Temperature, K	Mass density, kg/m3	uncertainty
298.15	956.51	0.47
303.15	952.52	0.48
313.15	944.42	0.49
323.15	936.19	0.51
333.15	927.84	0.53
343.15	919.37	0.54

System: 1-amino-2-propanol + water; phases: Liquid
Fixed: Pressure, kPa = 101
Property: Viscosity, Pa*s (Liquid); method: CAPTUB:UFactor:6
Temperature, K	Mole fraction of 1-amino-2-propanol	Viscosity, Pa*s	uncertainty
298.15	0	0.000882	3.5e-05
298.15	0.05	0.00211	7.9e-05
298.15	0.07	0.002696	0.0001
298.15	0.0986	0.003902	0.000142
298.15	0.1993	0.0097	0.000317
298.15	0.3003	0.015544	0.000488
298.15	0.3955	0.022187	0.000683
298.15	0.4929	0.026762	0.000818
298.15	0.5995	0.02901	0.000885
298.15	0.7002	0.029986	0.000915
298.15	0.8006	0.030403	0.000928
298.15	0.8992	0.028546	0.000875
298.15	1	0.026685	0.000821
303.15	0	0.000804	3.2e-05
303.15	0.05	0.001856	7e-05
303.15	0.07	0.002282	8.5e-05
303.15	0.0986	0.003248	0.000119
303.15	0.1993	0.007671	0.000257
303.15	0.3003	0.01204	0.000385
303.15	0.3955	0.01682	0.000526
303.15	0.4929	0.019499	0.000605
303.15	0.5995	0.021376	0.000661
303.15	0.7002	0.022781	0.000703
303.15	0.8006	0.02297	0.000709
303.15	0.8992	0.022191	0.000687
303.15	1	0.020314	0.000632
313.15	0	0.000658	2.7e-05
313.15	0.05	0.001431	5.5e-05
313.15	0.07	0.001785	6.7e-05
313.15	0.0986	0.002359	8.8e-05
313.15	0.1993	0.005102	0.000183
313.15	0.3003	0.007551	0.000254
313.15	0.3955	0.00995	0.000324
313.15	0.4929	0.011794	0.000379
313.15	0.5995	0.012849	0.00041
313.15	0.7002	0.013135	0.000419
313.15	0.8006	0.013564	0.000432
313.15	0.8992	0.012829	0.000411
313.15	1	0.012514	0.000402
323.15	0	0.000551	2.3e-05
323.15	0.05	0.001136	4.4e-05
323.15	0.07	0.001393	5.3e-05
323.15	0.0986	0.001561	5.9e-05
323.15	0.1993	0.003582	0.000131
323.15	0.3003	0.00559	0.000197
323.15	0.3955	0.006649	0.000228
323.15	0.4929	0.00764	0.000257
323.15	0.5995	0.007994	0.000268
323.15	0.7002	0.008473	0.000282
323.15	0.8006	0.008748	0.00029
323.15	0.8992	0.008041	0.00027
323.15	1	0.007543	0.000255
333.15	0	0.00047	2e-05
333.15	0.05	0.000929	3.7e-05
333.15	0.07	0.001118	4.4e-05
333.15	0.0986	0.001222	4.7e-05
333.15	0.1993	0.002627	9.7e-05
333.15	0.3003	0.003944	0.000143
333.15	0.3955	0.004988	0.000179
333.15	0.4929	0.005701	0.0002
333.15	0.5995	0.006163	0.000214
333.15	0.7002	0.005753	0.000202
333.15	0.8006	0.006023	0.00021
333.15	0.8992	0.005483	0.000195
333.15	1	0.00522	0.000187
343.15	0	0.000407	1.8e-05
343.15	0.05	0.000775	3.1e-05
343.15	0.07	0.000922	3.7e-05
343.15	0.0986	0.000993	3.9e-05
343.15	0.1993	0.002088	7.8e-05
343.15	0.3003	0.002904	0.000107
343.15	0.3955	0.003619	0.000132
343.15	0.4929	0.004075	0.000148
343.15	0.5995	0.004371	0.000158
343.15	0.7002	0.004565	0.000165
343.15	0.8006	0.004467	0.000162
343.15	0.8992	0.003927	0.000143
343.15	1	0.00377	0.000138

System: 1-amino-2-propanol + water; phases: Liquid
Fixed: Pressure, kPa = 101
Property: Refractive index (Na D-line) (Liquid); method: Standard Abbe refractometry
Temperature, K	Mole fraction of 1-amino-2-propanol	Refractive index (Na D-line)	uncertainty
293.15	0	1.33298	0.00033
293.15	0.05	1.35692	0.00034
293.15	0.07	1.36527	0.00034
293.15	0.0986	1.3763	0.00033
293.15	0.1993	1.40333	0.00034
293.15	0.3003	1.41934	0.00034
293.15	0.3955	1.42844	0.00034
293.15	0.4929	1.43452	0.00034
293.15	0.5995	1.43934	0.00035
293.15	0.7002	1.44298	0.00035
293.15	0.8006	1.44474	0.00036
293.15	0.8992	1.44655	0.00036
293.15	1	1.448	0.00037
298.15	0	1.33249	0.00033
298.15	0.05	1.35622	0.00034
298.15	0.07	1.36437	0.00034
298.15	0.0986	1.37524	0.00033
298.15	0.1993	1.40184	0.00033
298.15	0.3003	1.41723	0.00034
298.15	0.3955	1.4268	0.00034
298.15	0.4929	1.43286	0.00034
298.15	0.5995	1.4377	0.00035
298.15	0.7002	1.44053	0.00035
298.15	0.8006	1.44287	0.00036
298.15	0.8992	1.4447	0.00036
298.15	1	1.44609	0.00037
303.15	0	1.33193	0.00033
303.15	0.05	1.35539	0.00034
303.15	0.07	1.36345	0.00034
303.15	0.0986	1.37416	0.00033
303.15	0.1993	1.40038	0.00033
303.15	0.3003	1.41554	0.00034
303.15	0.3955	1.42513	0.00034
303.15	0.4929	1.431	0.00034
303.15	0.5995	1.4359	0.00035
303.15	0.7002	1.43897	0.00035
303.15	0.8006	1.4411	0.00036
303.15	0.8992	1.44275	0.00036
303.15	1	1.44409	0.00037
308.15	0	1.33136	0.00033
308.15	0.05	1.35453	0.00034
308.15	0.07	1.36246	0.00034
308.15	0.0986	1.37306	0.00033
308.15	0.1993	1.39868	0.00033
308.15	0.3003	1.41385	0.00034
308.15	0.3955	1.42331	0.00034
308.15	0.4929	1.42913	0.00034
308.15	0.5995	1.43375	0.00035
308.15	0.7002	1.43685	0.00035
308.15	0.8006	1.43908	0.00036
308.15	0.8992	1.44076	0.00036
308.15	1	1.44211	0.00037
313.15	0	1.33067	0.00033
313.15	0.05	1.35365	0.00034
313.15	0.07	1.36149	0.00034
313.15	0.0986	1.37191	0.00033
313.15	0.1993	1.39716	0.00033
313.15	0.3003	1.41214	0.00034
313.15	0.3955	1.42155	0.00034
313.15	0.4929	1.4273	0.00034
313.15	0.5995	1.43187	0.00035
313.15	0.7002	1.43493	0.00035
313.15	0.8006	1.43715	0.00036
313.15	0.8992	1.43889	0.00036
313.15	1	1.44009	0.00037
318.15	0	1.3299	0.00033
318.15	0.05	1.35269	0.00034
318.15	0.07	1.36047	0.00034
318.15	0.0986	1.37079	0.00033
318.15	0.1993	1.39563	0.00033
318.15	0.3003	1.41051	0.00034
318.15	0.3955	1.41987	0.00034
318.15	0.4929	1.42548	0.00034
318.15	0.5995	1.43017	0.00035
318.15	0.7002	1.43243	0.00035
318.15	0.8006	1.43532	0.00036
318.15	0.8992	1.43691	0.00036
318.15	1	1.43817	0.00037
323.15	0	1.32906	0.00033
323.15	0.05	1.35169	0.00034
323.15	0.07	1.35931	0.00034
323.15	0.0986	1.36955	0.00033
323.15	0.1993	1.39469	0.00033
323.15	0.3003	1.40883	0.00034
323.15	0.3955	1.41801	0.00034
323.15	0.4929	1.42386	0.00034
323.15	0.5995	1.42857	0.00035
323.15	0.7002	1.431463	0.000353
323.15	0.8006	1.433693	0.000358
323.15	0.8992	1.4349	0.00036
323.15	1	1.43631	0.00037
328.15	0	1.32818	0.00033
328.15	0.05	1.35059	0.00034
328.15	0.07	1.35816	0.00034
328.15	0.0986	1.36821	0.00033
328.15	0.1993	1.39247	0.00033
328.15	0.3003	1.4072	0.0003
328.15	0.3955	1.4164	0.0003
328.15	0.4929	1.4226	0.0003
328.15	0.5995	1.426973	0.000349
328.15	0.7002	1.430063	0.000354
328.15	0.8006	1.431337	0.000358
328.15	0.8992	1.43292	0.00036
328.15	1	1.43405	0.00037
333.15	0	1.32726	0.00033
333.15	0.05	1.35023	0.00034
333.15	0.07	1.35711	0.00034
333.15	0.0986	1.36712	0.00033
333.15	0.1993	1.39103	0.00033
333.15	0.3003	1.40563	0.00034
333.15	0.3955	1.4146	0.00034
333.15	0.4929	1.42038	0.00034
333.15	0.5995	1.42445	0.00035
333.15	0.7002	1.42775	0.00035
333.15	0.8006	1.42949	0.00036
333.15	0.8992	1.43089	0.00036
333.15	1	1.43208	0.00037

System: 1-amino-2-propanol + water; phases: Liquid
Fixed: Pressure, kPa = 101
Property: Mass density, kg/m3 (Liquid); method: VIBTUB:UFactor:6
Temperature, K	Mole fraction of 1-amino-2-propanol	Mass density, kg/m3	uncertainty
298.15	0	997.04	0.24
298.15	0.05	999.9	0.24
298.15	0.07	1000.35	0.24
298.15	0.0986	1002.43	0.25
298.15	0.1993	1004.57	0.27
298.15	0.3003	999.91	0.27
298.15	0.3955	992.94	0.3
298.15	0.4929	985.82	0.33
298.15	0.5995	978.02	0.36
298.15	0.7002	971.66	0.39
298.15	0.8006	965.96	0.42
298.15	0.8992	961.08	0.44
298.15	1	956.51	0.47
303.15	0	995.64	0.24
303.15	0.05	997.07	0.25
303.15	0.07	998.1	0.25
303.15	0.0986	999.83	0.25
303.15	0.1993	1001.03	0.26
303.15	0.3003	996.08	0.28
303.15	0.3955	989.08	0.31
303.15	0.4929	981.92	0.33
303.15	0.5995	974.2	0.37
303.15	0.7002	967.74	0.4
303.15	0.8006	962.01	0.42
303.15	0.8992	957.12	0.45
303.15	1	952.52	0.48
313.15	0	992.21	0.25
313.15	0.05	992.68	0.26
313.15	0.07	993.09	0.26
313.15	0.0986	994.25	0.26
313.15	0.1993	993.72	0.27
313.15	0.3003	988.29	0.3
313.15	0.3955	981.19	0.32
313.15	0.4929	973.92	0.35
313.15	0.5995	966.3	0.38
313.15	0.7002	959.83	0.41
313.15	0.8006	954.01	0.44
313.15	0.8992	949.12	0.47
313.15	1	944.42	0.49
323.15	0	988.03	0.26
323.15	0.05	987.66	0.27
323.15	0.07	987.41	0.27
323.15	0.0986	988.2	0.27
323.15	0.1993	986.18	0.29
323.15	0.3003	980.32	0.31
323.15	0.3955	973.13	0.34
323.15	0.4929	965.84	0.37
323.15	0.5995	958.38	0.4
323.15	0.7002	951.77	0.43
323.15	0.8006	945.87	0.46
323.15	0.8992	940.96	0.48
323.15	1	936.19	0.51
333.15	0	983.19	0.27
333.15	0.05	982.03	0.28
333.15	0.07	981.49	0.28
333.15	0.0986	981.57	0.29
333.15	0.1993	978.5	0.3
333.15	0.3003	972.15	0.33
333.15	0.3955	964.88	0.36
333.15	0.4929	957.68	0.39
333.15	0.5995	950.15	0.42
333.15	0.7002	943.53	0.45
333.15	0.8006	937.62	0.47
333.15	0.8992	932.66	0.5
333.15	1	927.84	0.53
343.15	0	977.75	0.29
343.15	0.05	975.62	0.3
343.15	0.07	974.99	0.3
343.15	0.0986	973.44	0.31
343.15	0.1993	970.55	0.32
343.15	0.3003	963.77	0.35
343.15	0.3955	956.45	0.38
343.15	0.4929	949.25	0.4
343.15	0.5995	941.71	0.44
343.15	0.7002	935.09	0.46
343.15	0.8006	929.19	0.49
343.15	0.8992	924.2	0.52
343.15	1	919.37	0.54
