Measured thermophysical data. Density, Viscosity, Vapor-Liquid Equilibrium, and Excess Molar Enthalpy of [Chloroform + Methyl tert-Butyl Ether]
Source: J. Chem. Eng. Data, 2010, 10.1021/je100821g
Compound 1: trichloromethane, CHCl3, InChI=1S/CHCl3/c2-1(3)4/h1H
Compound 2: 2-methoxy-2-methylpropane, C5H12O, InChI=1S/C5H12O/c1-5(2,3)6-4/h1-4H3

System: trichloromethane; phases: Liquid
Fixed: Pressure, kPa = 101.325
Property: Viscosity, Pa*s (Liquid); method: Concentric cylinders viscometry
Temperature, K	Viscosity, Pa*s	uncertainty
273.15	0.000713	
283.15	0.000651	
293.15	0.0006	
298.15	0.000576	
303.15	0.000552	
313.15	0.000509	
318.15	0.000491	

System: trichloromethane; phases: Liquid, Gas
Property: Vapor or sublimation pressure, kPa (Liquid); method: EBULLIO:UFactor:2
Temperature, K	Vapor or sublimation pressure, kPa	uncertainty
303.15	32.2	0.36

System: trichloromethane; phases: Liquid
Fixed: Pressure, kPa = 101.325
Property: Mass density, kg/m3 (Liquid); method: Vibrating tube method
Temperature, K	Mass density, kg/m3	uncertainty
273.15	1526	0.3
283.15	1507.1	0.3
293.15	1488.4	0.3
298.15	1478.8	0.3
303.15	1469.2	0.3
313.15	1450	0.3
318.15	1440	0.3

System: 2-methoxy-2-methylpropane; phases: Liquid
Fixed: Pressure, kPa = 101.325
Property: Viscosity, Pa*s (Liquid); method: Concentric cylinders viscometry
Temperature, K	Viscosity, Pa*s	uncertainty
273.15	0.00039	5e-06
283.15	0.00036	5e-06
293.15	0.000333	5e-06
298.15	0.000319	5e-06
303.15	0.000304	5e-06
313.15	0.000278	5e-06

System: 2-methoxy-2-methylpropane; phases: Liquid, Gas
Property: Vapor or sublimation pressure, kPa (Liquid); method: EBULLIO:UFactor:16
Temperature, K	Vapor or sublimation pressure, kPa	uncertainty
286.5	20	0.2
291.3	25	0.21
295.5	30	0.22
299.2	35	0.23
302.5	40	0.19
303.15	41	0.44
305.45	45	0.28
308.2	50	0.27
310.8	55	0.29
313.1	60	0.31
315.3	65	0.32
317.4	70	0.33
319.3	75	0.35
321.1	80	0.36
322.9	85	0.38
324.5	90	0.39
325.4	92.5	0.38
326.2	95	0.4
326.9	97.2	0.4

System: 2-methoxy-2-methylpropane; phases: Liquid
Fixed: Pressure, kPa = 101.325
Property: Mass density, kg/m3 (Liquid); method: Vibrating tube method
Temperature, K	Mass density, kg/m3	uncertainty
273.15	760.4	0.3
283.15	750.1	0.3
293.15	739.9	0.3
298.15	734.4	0.3
303.15	729.2	0.3
313.15	718.5	0.3

System: trichloromethane + 2-methoxy-2-methylpropane; phases: Liquid
Fixed: Temperature, K = 303
Fixed: Pressure, kPa = 101
Property: Excess molar enthalpy (molar enthalpy of mixing), kJ/mol (Liquid); method: Calvet calorimetry
Mole fraction of trichloromethane	Excess molar enthalpy (molar enthalpy of mixing), kJ/mol	uncertainty
0	0	0.001
0.038	-0.342	0.034
0.068	-0.664	0.057
0.097	-0.92	0.089
0.101	-1.02	0.096
0.118	-1.1	0.089
0.154	-1.2	0.097
0.172	-1.3	0.105
0.219	-1.6	0.129
0.251	-1.9	0.154
0.39	-2.1	0.169
0.516	-2.1	0.169
0.669	-1.8	0.145
0.78	-1.5	0.121
0.864	-0.8	0.066
0.899	-0.65	0.053
0.931	-0.48	0.041
0.958	-0.28	0.026
0.986	-0.15	0.018
1	0	0.001

System: trichloromethane + 2-methoxy-2-methylpropane; phases: Liquid
Fixed: Temperature, K = 293.15
Fixed: Pressure, kPa = 101
Property: Viscosity, Pa*s (Liquid); method: Concentric cylinders viscometry
Mole fraction of trichloromethane	Viscosity, Pa*s	uncertainty
0	0.000333	5e-06
0.0527	0.000358	5e-06
0.0834	0.000372	5e-06
0.1841	0.000423	5e-06
0.2714	0.00047	6e-06
0.358	0.000514	6e-06
0.4511	0.00056	6e-06
0.546	0.000595	6e-06
0.6303	0.000612	7e-06
0.724	0.00062	7e-06
0.8108	0.000618	7e-06
0.8948	0.000613	6e-06
0.9515	0.000609	6e-06
1	0.0006	6e-06

System: trichloromethane + 2-methoxy-2-methylpropane; phases: Liquid
Fixed: Temperature, K = 293.15
Fixed: Pressure, kPa = 101
Property: Mass density, kg/m3 (Liquid); method: VIBTUB:UFactor:3
Mole fraction of trichloromethane	Mass density, kg/m3	uncertainty
0	739.9	0.4
0.0527	768.1	0.4
0.0834	785.4	0.4
0.1841	842.6	0.4
0.2714	895.6	0.3
0.358	951.5	0.3
0.4511	1015	0.3
0.546	1083.8	0.3
0.6303	1148.9	0.4
0.724	1225.9	0.4
0.8108	1302.9	0.5
0.8948	1381.1	0.6
0.9515	1437.9	0.7
1	1488.4	0.7

System: trichloromethane + 2-methoxy-2-methylpropane; phases: Liquid, Gas
Property: Azeotropic composition: mole fraction of trichloromethane (Liquid); method: By T or P extreme
Temperature, K	Azeotropic composition: mole fraction of trichloromethane	uncertainty
303.15	0.586	0.006

System: trichloromethane + 2-methoxy-2-methylpropane; phases: Liquid, Gas
Property: Azeotropic composition: mole fraction of trichloromethane (Liquid); method: By T or P extreme
Pressure, kPa	Azeotropic composition: mole fraction of trichloromethane	uncertainty
26.3	0.586	0.006

System: trichloromethane + 2-methoxy-2-methylpropane; phases: Liquid, Gas
Fixed: Temperature, K = 303.15
Property: Vapor or sublimation pressure, kPa (Liquid); method: EBULLIO:UFactor:2
Mole fraction of trichloromethane	Vapor or sublimation pressure, kPa	uncertainty
0	41	0.44
0.057	38.8	0.43
0.082	38.35	0.42
0.106	37.85	0.42
0.119	37.4	0.42
0.131	37	0.41
0.15	36.45	0.41
0.164	36	0.41
0.174	35.5	0.4
0.194	35	0.39
0.196	34.95	0.39
0.207	34.7	0.39
0.225	34.1	0.39
0.23	33.7	0.41
0.253	33.5	0.46
0.256	33.1	0.46
0.275	32.8	0.37
0.283	32.4	0.37
0.297	32.05	0.37
0.317	30.95	0.36
0.338	30.3	0.35
0.363	29.6	0.35
0.381	29.1	0.34
0.413	28.3	0.33
0.434	27.8	0.33
0.456	27.4	0.32
0.471	27.1	0.32
0.492	26.85	0.32
0.513	26.55	0.31
0.532	26.4	0.31
0.54	26.35	0.31
0.552	26.25	0.31
0.569	26.2	0.31
0.583	26.2	0.33
0.586	26.35	0.33
0.601	26.35	0.31
0.617	26.35	0.31
0.626	26.4	0.31
0.642	26.4	0.31
0.669	26.7	0.32
0.698	26.9	0.32
0.731	27.4	0.32
0.767	27.9	0.33
0.797	28.35	0.33
0.828	29.1	0.34
0.857	29.6	0.34
0.88	30.15	0.35
0.909	30.9	0.35
0.95	31.5	0.36
1	32.2	0.36

System: trichloromethane + 2-methoxy-2-methylpropane; phases: Gas, Liquid
Fixed: Temperature, K = 303.15
Property: Mole fraction of trichloromethane (Gas); method: Density calibration data
Mole fraction of trichloromethane	Mole fraction of trichloromethane	uncertainty
0	0	
0.057	0.019	0.002
0.082	0.026	0.002
0.106	0.034	0.002
0.119	0.039	0.002
0.131	0.046	0.002
0.15	0.056	0.002
0.164	0.062	0.002
0.174	0.069	0.002
0.194	0.08	0.002
0.196	0.079	0.002
0.207	0.087	0.002
0.225	0.098	0.003
0.23	0.105	0.003
0.253	0.117	0.006
0.256	0.126	0.006
0.275	0.138	0.002
0.283	0.14	0.003
0.297	0.155	0.003
0.317	0.183	0.003
0.338	0.21	0.003
0.363	0.24	0.003
0.381	0.262	0.003
0.413	0.306	0.003
0.434	0.335	0.004
0.456	0.37	0.004
0.471	0.396	0.004
0.492	0.429	0.004
0.513	0.463	0.004
0.532	0.496	0.004
0.54	0.511	0.004
0.552	0.531	0.004
0.569	0.558	0.004
0.583	0.582	0.004
0.586	0.586	0.004
0.601	0.61	0.004
0.617	0.637	0.004
0.626	0.652	0.004
0.642	0.677	0.004
0.669	0.716	0.004
0.698	0.757	0.004
0.731	0.801	0.003
0.767	0.837	0.003
0.797	0.868	0.003
0.828	0.899	0.003
0.857	0.922	0.003
0.88	0.943	0.003
0.909	0.961	0.002
0.95	0.98	0.002
1	1	
