Measured thermophysical data. Density, Viscosity, and Surface Tension of Aqueous Solutions of Potassium Glycinate + Piperazine in the Range of (288.15 to 323.15) K
Source: J. Chem. Eng. Data, 2011, 10.1021/je101192x
Compound 1: potassium glycinate, C2H4KNO2, InChI=1S/C2H5NO2.K/c3-1-2(4)5;/h1,3H2,(H,4,5);/q;+1/p-1, purity 99%
Compound 2: piperazine, C4H10N2, InChI=1S/C4H10N2/c1-2-6-4-3-5-1/h5-6H,1-4H2, purity 99.5%
Compound 3: water, H2O, InChI=1S/H2O/h1H2
Compound 4: N-methyldiethanolamine, C5H13NO2, InChI=1S/C5H13NO2/c1-6(2-4-7)3-5-8/h7-8H,2-5H2,1H3

System: N-methyldiethanolamine + water; phases: Liquid, Gas
Fixed: Temperature, K = 313.15
Property: Surface tension liquid-gas, N/m (Liquid); method: Pendant drop shape
Mass fraction of N-methyldiethanolamine	Surface tension liquid-gas, N/m	uncertainty
0.1	0.05871	0.00206
0.2	0.05468	0.00192

System: N-methyldiethanolamine + water; phases: Liquid
Fixed: Pressure, kPa = 101
Property: Viscosity, Pa*s (Liquid); method: Capillary tube (Ostwald; Ubbelohde) method
Temperature, K	Mass fraction of N-methyldiethanolamine	Viscosity, Pa*s	uncertainty
288.15	0.1	0.001711	2.1e-05
288.15	0.2	0.002631	3.2e-05
313.15	0.1	0.000905	1.2e-05
313.15	0.2	0.001312	1.8e-05

System: N-methyldiethanolamine + water; phases: Liquid
Fixed: Pressure, kPa = 101
Property: Mass density, kg/m3 (Liquid); method: Pycnometric method
Temperature, K	Mass fraction of N-methyldiethanolamine	Mass density, kg/m3	uncertainty
288.15	0.1	1007.1	1
288.15	0.2	1017.5	1.1
313.15	0.1	1001.1	1
313.15	0.2	1008.1	1.1

System: piperazine + water + potassium glycinate; phases: Liquid, Gas
Fixed: Temperature, K = 288.15
Property: Surface tension liquid-gas, N/m (Liquid); method: Pendant drop shape
Mole fraction of potassium glycinate	Mole fraction of piperazine	Surface tension liquid-gas, N/m	uncertainty
0.6	0.4	0.0735	0.00258
0.7	0.3	0.07406	0.00261
0.8	0.2	0.07462	0.00263
0.9	0.1	0.07521	0.00265
1	0	0.07616	0.00269

System: piperazine + water + potassium glycinate; phases: Liquid
Fixed: Pressure, kPa = 101
Property: Viscosity, Pa*s (Liquid); method: Capillary tube (Ostwald; Ubbelohde) method
Temperature, K	Mole fraction of potassium glycinate	Mole fraction of piperazine	Viscosity, Pa*s	uncertainty
288.15	0.6	0.4	0.001326	1.7e-05
288.15	0.7	0.3	0.001308	1.6e-05
288.15	0.8	0.2	0.001294	1.6e-05
288.15	0.9	0.1	0.001285	1.6e-05
288.15	1	0	0.001254	1.6e-05
303.15	0.6	0.4	0.0009893	1.26e-05
303.15	0.7	0.3	0.0009905	1.27e-05
303.15	0.8	0.2	0.0009736	1.26e-05
303.15	0.9	0.1	0.000971	1.26e-05
303.15	1	0	0.0009638	1.26e-05
313.15	0.6	0.4	0.0008526	1.07e-05
313.15	0.7	0.3	0.0008467	1.07e-05
313.15	0.8	0.2	0.0008421	1.07e-05
313.15	0.9	0.1	0.0008417	1.07e-05
313.15	1	0	0.00083	1.07e-05
323.15	0.6	0.4	0.0007527	9.4e-06
323.15	0.7	0.3	0.0007526	9.5e-06
323.15	0.8	0.2	0.0007502	9.5e-06
323.15	0.9	0.1	0.0007497	9.6e-06
323.15	1	0	0.0007472	9.6e-06

System: piperazine + water + potassium glycinate; phases: Liquid
Fixed: Pressure, kPa = 101
Property: Mass density, kg/m3 (Liquid); method: Pycnometric method
Temperature, K	Mole fraction of potassium glycinate	Mole fraction of piperazine	Mass density, kg/m3	uncertainty
288.15	0.6	0.4	1043.2	1.1
288.15	0.7	0.3	1048.1	1.1
288.15	0.8	0.2	1054.7	1.1
288.15	0.9	0.1	1059.9	1.1
288.15	1	0	1064.8	1.1
303.15	0.6	0.4	1041.2	1.1
303.15	0.7	0.3	1045.2	1.1
303.15	0.8	0.2	1052	1.1
303.15	0.9	0.1	1057.9	1.1
303.15	1	0	1061.9	1.1
313.15	0.6	0.4	1039.7	1.1
313.15	0.7	0.3	1043.5	1.1
313.15	0.8	0.2	1049.6	1.1
313.15	0.9	0.1	1056.1	1.1
313.15	1	0	1060.2	1.1
323.15	0.6	0.4	1037.8	1.1
323.15	0.7	0.3	1042.1	1.1
323.15	0.8	0.2	1047.9	1.1
323.15	0.9	0.1	1054	1.1
323.15	1	0	1057.8	1.1
