Measured thermophysical data. Vapor-Liquid Equilibrium Data of the Carbon Dioxide + Ethyl Butyrate and Carbon Dioxide + Propylene Carbonate Systems at Pressures from (1.00 to 13.00) MPa and Temperatures from (313.0 to 373.0) K
Source: J. Chem. Eng. Data, 2011, 10.1021/je101086r
Compound 1: carbon dioxide, CO2, InChI=1S/CO2/c2-1-3, purity 99.99%
Compound 2: ethyl butanoate, C6H12O2, InChI=1S/C6H12O2/c1-3-5-6(7)8-4-2/h3-5H2,1-2H3, purity 99.85%
Compound 3: 4-methyl-1,3-dioxolan-2-one, C4H6O3, InChI=1S/C4H6O3/c1-3-2-6-4(5)7-3/h3H,2H2,1H3, purity 99.85%

System: ethyl butanoate + carbon dioxide; phases: Liquid, Gas
Property: Vapor or sublimation pressure, kPa (Liquid); method: CCELL:UFactor:16
Mole fraction of carbon dioxide	Temperature, K	Vapor or sublimation pressure, kPa	uncertainty
0.18	373	2000	570
0.2195	353	2000	480
0.2406	373	3000	550
0.2919	353	3000	500
0.3086	373	4000	510
0.3088	333	2000	390
0.356	353	4000	480
0.3795	313	2000	320
0.3859	373	5000	630
0.3978	333	3000	410
0.4129	373	6000	650
0.4259	353	5000	590
0.4862	373	7000	690
0.4863	353	6000	660
0.491	333	4000	440
0.4919	313	3000	340
0.5222	373	8000	840
0.5364	353	7000	680
0.5707	333	5000	540
0.5764	373	9000	790
0.5983	353	8000	700
0.6053	313	4000	360
0.6256	373	10000	850
0.6514	333	6000	500
0.6685	353	9000	700
0.7204	313	5000	410
0.7285	333	7000	550
0.7399	353	10000	660
0.8105	333	8000	630
0.8124	313	6000	500
0.8222	353	11000	680
0.8711	333	9000	720
0.8876	313	7000	600
0.9039	333	10000	880
0.9495	313	8000	680

System: ethyl butanoate + carbon dioxide; phases: Gas, Liquid
Property: Mole fraction of carbon dioxide (Gas); method: Phase equilibration
Mole fraction of carbon dioxide	Temperature, K	Mole fraction of carbon dioxide	uncertainty
0.18	373	0.867	0.0343
0.2195	353	0.9121	0.034
0.2406	373	0.8751	0.034
0.2919	353	0.9126	0.034
0.3086	373	0.8726	0.034
0.3088	333	0.967	0.033
0.356	353	0.9151	0.0341
0.3795	313	0.9978	0.0022
0.3859	373	0.8713	0.034
0.3978	333	0.9751	0.0249
0.4129	373	0.8709	0.034
0.4259	353	0.9166	0.034
0.4862	373	0.8706	0.034
0.4863	353	0.9166	0.034
0.491	333	0.9726	0.0274
0.4919	313	0.9926	0.0074
0.5222	373	0.8716	0.0341
0.5364	353	0.9189	0.034
0.5707	333	0.9713	0.0287
0.5764	373	0.8766	0.0344
0.5983	353	0.9142	0.0341
0.6053	313	0.9951	0.0049
0.6256	373	0.856	0.0369
0.6514	333	0.9709	0.0291
0.6685	353	0.9127	0.034
0.7204	313	0.9938	0.0062
0.7285	333	0.9706	0.0294
0.7399	353	0.91	0.0344
0.8105	333	0.9716	0.0284
0.8124	313	0.9941	0.0059
0.8222	353	0.89	0.035
0.8711	333	0.9541	0.0354
0.8876	313	0.9888	0.0112
0.9039	333	0.92	0.0388
0.9495	313	0.9616	0.0371

System: ethyl butanoate + carbon dioxide; phases: Gas
Property: Mass density, kg/m3 (Gas); method: Pycnometric method
Temperature, K	Pressure, kPa	Mole fraction of carbon dioxide	Mass density, kg/m3	uncertainty
313	2000	0.9978	39.4	16
313	3000	0.9926	61.3	17.1
313	4000	0.9951	96.8	16
313	5000	0.9938	141.2	16.1
313	6000	0.9941	222.9	16.6
313	7000	0.9888	300	17.4
313	8000	0.9616	450	18.5
333	2000	0.967	38.2	16
333	3000	0.9751	57	16
333	4000	0.9726	82.4	16
333	5000	0.9713	120.5	16
333	6000	0.9709	164.2	16.1
333	7000	0.9706	258.1	16.2
333	8000	0.9716	298.4	16.6
333	9000	0.9541	375.1	16.2
333	10000	0.92	426.5	16.3
353	2000	0.9121	34.5	16
353	3000	0.9126	46.2	16
353	4000	0.9151	68.5	16
353	5000	0.9166	106.5	17.2
353	6000	0.9166	150.4	17
353	7000	0.9189	215.9	16.4
353	8000	0.9142	258	16.1
353	9000	0.9127	308.3	16.2
353	10000	0.91	331.7	16.2
353	11000	0.89	375	16.1
373	2000	0.867	30.6	16
373	3000	0.8751	45.1	16
373	4000	0.8726	64.7	26.6
373	5000	0.8713	96.5	16.6
373	6000	0.8709	126.4	309.3
373	7000	0.8706	171	16.2
373	8000	0.8716	201.1	16.4
373	9000	0.8766	233.2	16.4
373	10000	0.856	259.8	16.1

System: ethyl butanoate + carbon dioxide; phases: Liquid
Property: Mass density, kg/m3 (Liquid); method: Pycnometric method
Temperature, K	Pressure, kPa	Mole fraction of carbon dioxide	Mass density, kg/m3	uncertainty
313	2000	0.3795	919.1	35
313	3000	0.4919	901	34.3
313	4000	0.6053	867.6	33
313	5000	0.7204	841.3	32
313	6000	0.8124	813.8	30.9
313	7000	0.8876	789.8	30
313	8000	0.9495	744.8	28.3
333	2000	0.3088	801.5	30.5
333	3000	0.3978	806.9	31
333	4000	0.491	804.4	30.7
333	5000	0.5707	786.8	29.9
333	6000	0.6514	781.3	29.7
333	7000	0.7285	752.2	28.6
333	8000	0.8105	726.6	27.6
333	9000	0.8711	692	26.3
333	10000	0.9039	670	25.5
353	2000	0.2195	762.9	29.1
353	3000	0.2919	764.7	29.1
353	4000	0.356	765.8	29.4
353	5000	0.4259	758.8	28.9
353	6000	0.4863	753	28.7
353	7000	0.5364	734.8	27.9
353	8000	0.5983	719.6	28.1
353	9000	0.6685	685.1	28.7
353	10000	0.7399	655.8	26.1
353	11000	0.8222	655.2	24.9
373	2000	0.18	627.3	23.9
373	3000	0.2406	665.4	27.2
373	4000	0.3086	675.5	25.7
373	5000	0.3859	686.5	26.1
373	6000	0.4129	675	25.7
373	7000	0.4862	659.4	25.1
373	8000	0.5222	647.4	24.6
373	9000	0.5764	639.9	24.4
373	10000	0.6256	628.8	23.9

System: 4-methyl-1,3-dioxolan-2-one + carbon dioxide; phases: Liquid, Gas
Property: Vapor or sublimation pressure, kPa (Liquid); method: CCELL:UFactor:16
Mole fraction of carbon dioxide	Temperature, K	Vapor or sublimation pressure, kPa	uncertainty
0.081	353	1000	960
0.115	353	2000	930
0.1384	373	3000	1060
0.1518	353	3000	850
0.1638	373	4000	890
0.196	353	4000	870
0.2031	373	5000	1010
0.2317	353	5000	780
0.2367	373	6000	1080
0.2425	333	3000	710
0.2593	313	2000	440
0.2692	373	7000	1150
0.2787	333	4000	790
0.2852	353	6000	830
0.2948	373	8000	1370
0.3205	353	7000	1060
0.3268	373	9000	1300
0.3272	333	5000	770
0.3384	313	3000	500
0.3403	373	10000	1300
0.351	353	8000	1060
0.3723	333	6000	860
0.3805	373	11000	1010
0.3881	353	9000	1180
0.39	373	12000	1490
0.4022	313	4000	620
0.4079	333	7000	920
0.4112	353	10000	1170
0.4136	373	13000	1530
0.4485	353	11000	1010
0.4512	333	8000	970
0.4548	313	5000	790
0.4846	333	9000	970
0.4919	313	6000	830
0.492	353	12000	980
0.5225	353	13000	1120
0.5244	333	10000	910
0.542	313	7000	890
0.5706	313	8000	910
0.5725	333	11000	1160
0.6065	333	12000	1020
0.6169	313	9000	900
0.6246	333	13000	1460
0.6579	313	10000	1050
0.6915	313	11000	1070
0.7279	313	12000	1110

System: 4-methyl-1,3-dioxolan-2-one + carbon dioxide; phases: Gas, Liquid
Property: Mole fraction of carbon dioxide (Gas); method: Phase equilibration
Mole fraction of carbon dioxide	Temperature, K	Mole fraction of carbon dioxide	uncertainty
0.081	353	0.952	0.0348
0.115	353	0.9663	0.0337
0.1384	373	0.9747	0.0253
0.1518	353	0.9679	0.0321
0.1638	373	0.9779	0.0221
0.196	353	0.9679	0.0321
0.2031	373	0.98	0.02
0.2317	353	0.9591	0.035
0.2367	373	0.9802	0.0198
0.2425	333	0.9942	0.0058
0.2593	313	0.9953	0.0047
0.2692	373	0.9784	0.0216
0.2787	333	0.9968	0.0032
0.2852	353	0.9866	0.0134
0.2948	373	0.9795	0.0205
0.3205	353	0.9836	0.0164
0.3268	373	0.9782	0.0218
0.3272	333	0.9922	0.0078
0.3384	313	0.9895	0.0105
0.3403	373	0.9847	0.0153
0.351	353	0.9922	0.0078
0.3723	333	0.9862	0.0138
0.3805	373	0.9806	0.0194
0.3881	353	0.9891	0.0109
0.39	373	0.9848	0.0152
0.4022	313	0.9864	0.0136
0.4079	333	0.9885	0.0115
0.4112	353	0.9709	0.0291
0.4136	373	0.9844	0.0156
0.4485	353	0.9779	0.0221
0.4512	333	0.9898	0.0102
0.4548	313	0.9894	0.0106
0.4846	333	0.984	0.016
0.4919	313	0.9963	0.0037
0.492	353	0.9719	0.0281
0.5225	353	0.9842	0.0158
0.5244	333	0.9855	0.0145
0.542	313	0.99	0.01
0.5706	313	0.99	0.01
0.5725	333	0.9812	0.0188
0.6065	333	0.9888	0.0112
0.6169	313	0.9907	0.0093
0.6246	333	0.9883	0.0117
0.6579	313	0.9841	0.0159
0.6915	313	0.9866	0.0134
0.7279	313	0.9694	0.0306

System: 4-methyl-1,3-dioxolan-2-one + carbon dioxide; phases: Gas
Property: Mass density, kg/m3 (Gas); method: Pycnometric method
Temperature, K	Pressure, kPa	Mole fraction of carbon dioxide	Mass density, kg/m3	uncertainty
313	2000	0.9953	47.6	16.1
313	3000	0.9895	73	16.2
313	4000	0.9864	97.2	16.3
313	5000	0.9894	136.8	16.4
313	6000	0.9963	170.5	16
313	7000	0.99	224.7	16.2
313	8000	0.99	244	16.4
313	9000	0.9907	276.7	16.3
313	10000	0.9841	339.9	18
313	11000	0.9866	366.2	16.4
313	12000	0.9694	390.8	16.1
333	3000	0.9942	52	16.1
333	4000	0.9968	77.8	18.2
333	5000	0.9922	100.2	17.8
333	6000	0.9862	116.8	16.4
333	7000	0.9885	147.9	16.9
333	8000	0.9898	174.5	19.1
333	9000	0.984	199.6	16.1
333	10000	0.9855	230.2	19.4
333	11000	0.9812	271.3	16.6
333	12000	0.9888	326.5	16.6
333	13000	0.9883	411.2	17.7
353	1000	0.952	18.6	16
353	2000	0.9663	32.2	16.1
353	3000	0.9679	50.9	16
353	4000	0.9679	68.5	16.1
353	5000	0.9591	84.4	16
353	6000	0.9866	100	16.1
353	7000	0.9836	115	16.3
353	8000	0.9922	164.5	16.1
353	9000	0.9891	206	16.1
353	10000	0.9709	224.7	16.6
353	11000	0.9779	250	16.1
353	12000	0.9719	300	16.3
353	13000	0.9842	320	16.1
373	3000	0.9747	40	16.1
373	4000	0.9779	60.5	16.3
373	5000	0.98	82.7	16
373	6000	0.9802	95.9	16.1
373	7000	0.9784	125.9	16.1
373	8000	0.9795	149.8	16.1
373	9000	0.9782	158	17.8
373	10000	0.9847	181	16.2
373	11000	0.9806	226.8	20.6
373	12000	0.9848	241.7	17.9
373	13000	0.9844	264.9	16

System: 4-methyl-1,3-dioxolan-2-one + carbon dioxide; phases: Liquid
Property: Mass density, kg/m3 (Liquid); method: Pycnometric method
Temperature, K	Pressure, kPa	Mole fraction of carbon dioxide	Mass density, kg/m3	uncertainty
313	2000	0.2593	1170	44.5
313	3000	0.3384	1170	44.5
313	4000	0.4022	1160	44.1
313	5000	0.4548	1164.8	44.3
313	6000	0.4919	1156	43.9
313	7000	0.542	1141.4	43.4
313	8000	0.5706	1129.7	42.9
313	9000	0.6169	1109.2	42.2
313	10000	0.6579	1089.3	41.4
313	11000	0.6915	1073	40.8
313	12000	0.7279	1046.6	49
333	3000	0.2425	1090.7	41.5
333	4000	0.2787	1096.7	41.7
333	5000	0.3272	1106.7	42.1
333	6000	0.3723	1105.7	42
333	7000	0.4079	1109.2	42.2
333	8000	0.4512	1110.2	42.2
333	9000	0.4846	1102.2	41.9
333	10000	0.5244	1091.2	41.5
333	11000	0.5725	1077.1	41
333	12000	0.6065	1061.1	40.4
333	13000	0.6246	1052.5	40.2
353	1000	0.081	1011	38.5
353	2000	0.115	1024.5	39.2
353	3000	0.1518	1030	39.2
353	4000	0.196	1040.8	39.6
353	5000	0.2317	1044.3	39.7
353	6000	0.2852	1054.8	40.1
353	7000	0.3205	1062.4	40.5
353	8000	0.351	1050	40.1
353	9000	0.3881	1048.4	39.9
353	10000	0.4112	1035.5	39.4
353	11000	0.4485	997.5	38.1
353	12000	0.492	970.4	36.9
353	13000	0.5225	951.1	36.2
373	3000	0.1384	1000	38
373	4000	0.1638	1004.9	38.2
373	5000	0.2031	1005.4	38.3
373	6000	0.2367	1011.5	38.8
373	7000	0.2692	1000	38.1
373	8000	0.2948	988.9	37.7
373	9000	0.3268	980.9	37.3
373	10000	0.3403	960.8	36.5
373	11000	0.3805	940.7	35.8
373	12000	0.39	935.1	35.5
373	13000	0.4136	931.2	35.4
