Measured thermophysical data. Measurements of Activity Coefficients at Infinite  Dilution for Organic Solutes and Water in the Ionic  Liquid 1-Butyl-1-methylpiperydinium Thiocyanate
Source: J. Chem. Eng. Data, 2011, 10.1021/je101008y
Compound 1: 1-butyl-1-methylpiperidinium thiocyanate, C11H22N2S, InChI=1S/C10H22N.CHNS/c1-3-4-8-11(2)9-6-5-7-10-11;2-1-3/h3-10H2,1-2H3;3H/q+1;/p-1
Compound 2: hexane, C6H14, InChI=1S/C6H14/c1-3-5-6-4-2/h3-6H2,1-2H3
Compound 3: heptane, C7H16, InChI=1S/C7H16/c1-3-5-7-6-4-2/h3-7H2,1-2H3
Compound 4: octane, C8H18, InChI=1S/C8H18/c1-3-5-7-8-6-4-2/h3-8H2,1-2H3
Compound 5: nonane, C9H20, InChI=1S/C9H20/c1-3-5-7-9-8-6-4-2/h3-9H2,1-2H3
Compound 6: decane, C10H22, InChI=1S/C10H22/c1-3-5-7-9-10-8-6-4-2/h3-10H2,1-2H3
Compound 7: cyclopentane, C5H10, InChI=1S/C5H10/c1-2-4-5-3-1/h1-5H2
Compound 8: cyclohexane, C6H12, InChI=1S/C6H12/c1-2-4-6-5-3-1/h1-6H2
Compound 9: cycloheptane, C7H14, InChI=1S/C7H14/c1-2-4-6-7-5-3-1/h1-7H2
Compound 10: cyclooctane, C8H16, InChI=1S/C8H16/c1-2-4-6-8-7-5-3-1/h1-8H2
Compound 11: hex-1-ene, C6H12, InChI=1S/C6H12/c1-3-5-6-4-2/h3H,1,4-6H2,2H3
Compound 12: 1-heptene, C7H14, InChI=1S/C7H14/c1-3-5-7-6-4-2/h3H,1,4-7H2,2H3
Compound 13: oct-1-ene, C8H16, InChI=1S/C8H16/c1-3-5-7-8-6-4-2/h3H,1,4-8H2,2H3
Compound 14: 1-hexyne, C6H10, InChI=1S/C6H10/c1-3-5-6-4-2/h1H,4-6H2,2H3
Compound 15: 1-heptyne, C7H12, InChI=1S/C7H12/c1-3-5-7-6-4-2/h1H,4-7H2,2H3
Compound 16: 1-octyne, C8H14, InChI=1S/C8H14/c1-3-5-7-8-6-4-2/h1H,4-8H2,2H3
Compound 17: benzene, C6H6, InChI=1S/C6H6/c1-2-4-6-5-3-1/h1-6H
Compound 18: toluene, C7H8, InChI=1S/C7H8/c1-7-5-3-2-4-6-7/h2-6H,1H3
Compound 19: ethylbenzene, C8H10, InChI=1S/C8H10/c1-2-8-6-4-3-5-7-8/h3-7H,2H2,1H3
Compound 20: 1,2-dimethylbenzene, C8H10, InChI=1S/C8H10/c1-7-5-3-4-6-8(7)2/h3-6H,1-2H3
Compound 21: 1,3-dimethylbenzene, C8H10, InChI=1S/C8H10/c1-7-4-3-5-8(2)6-7/h3-6H,1-2H3
Compound 22: 1,4-dimethylbenzene, C8H10, InChI=1S/C8H10/c1-7-3-5-8(2)6-4-7/h3-6H,1-2H3
Compound 23: methanol, CH4O, InChI=1S/CH4O/c1-2/h2H,1H3
Compound 24: ethanol, C2H6O, InChI=1S/C2H6O/c1-2-3/h3H,2H2,1H3
Compound 25: water, H2O, InChI=1S/H2O/h1H2
Compound 26: thiophene, C4H4S, InChI=1S/C4H4S/c1-2-4-5-3-1/h1-4H
Compound 27: tetrahydrofuran, C4H8O, InChI=1S/C4H8O/c1-2-4-5-3-1/h1-4H2
Compound 28: 2-methoxy-2-methylpropane, C5H12O, InChI=1S/C5H12O/c1-5(2,3)6-4/h1-4H3
Compound 29: diethyl ether, C4H10O, InChI=1S/C4H10O/c1-3-5-4-2/h3-4H2,1-2H3
Compound 30: dipropyl ether, C6H14O, InChI=1S/C6H14O/c1-3-5-7-6-4-2/h3-6H2,1-2H3
Compound 31: dibutyl ether, C8H18O, InChI=1S/C8H18O/c1-3-5-7-9-8-6-4-2/h3-8H2,1-2H3
Compound 32: acetone, C3H6O, InChI=1S/C3H6O/c1-3(2)4/h1-2H3
Compound 33: pentan-2-one, C5H10O, InChI=1S/C5H10O/c1-3-4-5(2)6/h3-4H2,1-2H3
Compound 34: pentan-3-one, C5H10O, InChI=1S/C5H10O/c1-3-5(6)4-2/h3-4H2,1-2H3

System: hexane + 1-butyl-1-methylpiperidinium thiocyanate; phases: Liquid, Gas
Fixed: Mole fraction of hexane = 0
Property: Activity coefficient of hexane (Liquid); method: Chromatography
Temperature, K	Activity coefficient of hexane	uncertainty
318.15	124	9
328.15	104	7
338.15	89.3	6.1
348.15	78.5	5.4
358.15	68.5	4.7

System: heptane + 1-butyl-1-methylpiperidinium thiocyanate; phases: Liquid, Gas
Fixed: Mole fraction of heptane = 0
Property: Activity coefficient of heptane (Liquid); method: Chromatography
Temperature, K	Activity coefficient of heptane	uncertainty
318.15	170	12
328.15	142	10
338.15	127	9
348.15	111	8
358.15	102	7

System: octane + 1-butyl-1-methylpiperidinium thiocyanate; phases: Liquid, Gas
Fixed: Mole fraction of octane = 0
Property: Activity coefficient of octane (Liquid); method: Chromatography
Temperature, K	Activity coefficient of octane	uncertainty
318.15	236	16
328.15	206	14
338.15	185	13
348.15	161	11
358.15	150	10

System: nonane + 1-butyl-1-methylpiperidinium thiocyanate; phases: Liquid, Gas
Fixed: Mole fraction of nonane = 0
Property: Activity coefficient of nonane (Liquid); method: Chromatography
Temperature, K	Activity coefficient of nonane	uncertainty
318.15	333	23
328.15	293	20
338.15	267	18
348.15	234	16
358.15	214	15

System: decane + 1-butyl-1-methylpiperidinium thiocyanate; phases: Liquid, Gas
Fixed: Mole fraction of decane = 0
Property: Activity coefficient of decane (Liquid); method: Chromatography
Temperature, K	Activity coefficient of decane	uncertainty
318.15	487	34
328.15	433	30
338.15	390	27
348.15	342	24
358.15	311	21

System: cyclopentane + 1-butyl-1-methylpiperidinium thiocyanate; phases: Liquid, Gas
Fixed: Mole fraction of cyclopentane = 0
Property: Activity coefficient of cyclopentane (Liquid); method: Chromatography
Temperature, K	Activity coefficient of cyclopentane	uncertainty
318.15	27.5	1.9
328.15	24.2	1.7
338.15	22.1	1.5
348.15	19.9	1.4
358.15	18.9	1.3

System: cyclohexane + 1-butyl-1-methylpiperidinium thiocyanate; phases: Liquid, Gas
Fixed: Mole fraction of cyclohexane = 0
Property: Activity coefficient of cyclohexane (Liquid); method: Chromatography
Temperature, K	Activity coefficient of cyclohexane	uncertainty
318.15	39.8	2.7
328.15	35.9	2.5
338.15	32.4	2.2
348.15	29.4	2
358.15	27.5	1.9

System: cycloheptane + 1-butyl-1-methylpiperidinium thiocyanate; phases: Liquid, Gas
Fixed: Mole fraction of cycloheptane = 0
Property: Activity coefficient of cycloheptane (Liquid); method: Chromatography
Temperature, K	Activity coefficient of cycloheptane	uncertainty
318.15	44.3	3
328.15	41.5	2.8
338.15	37.4	2.6
348.15	34.6	2.4
358.15	32.7	2.2

System: cyclooctane + 1-butyl-1-methylpiperidinium thiocyanate; phases: Liquid, Gas
Fixed: Mole fraction of cyclooctane = 0
Property: Activity coefficient of cyclooctane (Liquid); method: Chromatography
Temperature, K	Activity coefficient of cyclooctane	uncertainty
318.15	60	4
328.15	54	4
338.15	49.1	3.4
348.15	44.7	3.1
358.15	42.1	2.9

System: hex-1-ene + 1-butyl-1-methylpiperidinium thiocyanate; phases: Liquid, Gas
Fixed: Mole fraction of hex-1-ene = 0
Property: Activity coefficient of hex-1-ene (Liquid); method: Chromatography
Temperature, K	Activity coefficient of hex-1-ene	uncertainty
318.15	41.3	2.8
328.15	37	3
338.15	34.6	2.4
348.15	32	2
358.15	30.1	2.1

System: 1-heptene + 1-butyl-1-methylpiperidinium thiocyanate; phases: Liquid, Gas
Fixed: Mole fraction of 1-heptene = 0
Property: Activity coefficient of 1-heptene (Liquid); method: Chromatography
Temperature, K	Activity coefficient of 1-heptene	uncertainty
318.15	60.3	4.1
328.15	55.5	3.8
338.15	51.7	3.5
348.15	47.9	3.3
358.15	45.7	3.1

System: oct-1-ene + 1-butyl-1-methylpiperidinium thiocyanate; phases: Liquid, Gas
Fixed: Mole fraction of oct-1-ene = 0
Property: Activity coefficient of oct-1-ene (Liquid); method: Chromatography
Temperature, K	Activity coefficient of oct-1-ene	uncertainty
318.15	90.6	6.2
328.15	83.7	5.7
338.15	77.4	5.3
348.15	71.5	4.9
358.15	67.4	4.6

System: 1-hexyne + 1-butyl-1-methylpiperidinium thiocyanate; phases: Liquid, Gas
Fixed: Mole fraction of 1-hexyne = 0
Property: Activity coefficient of 1-hexyne (Liquid); method: Chromatography
Temperature, K	Activity coefficient of 1-hexyne	uncertainty
318.15	6.07	0.41
328.15	6.11	0.42
338.15	6.16	0.42
348.15	6.19	0.42
358.15	6.22	0.42

System: 1-heptyne + 1-butyl-1-methylpiperidinium thiocyanate; phases: Liquid, Gas
Fixed: Mole fraction of 1-heptyne = 0
Property: Activity coefficient of 1-heptyne (Liquid); method: Chromatography
Temperature, K	Activity coefficient of 1-heptyne	uncertainty
318.15	9.17	0.63
328.15	9.19	0.63
338.15	9.2	0.6
348.15	9.23	0.63
358.15	9.28	0.63

System: 1-octyne + 1-butyl-1-methylpiperidinium thiocyanate; phases: Liquid, Gas
Fixed: Mole fraction of 1-octyne = 0
Property: Activity coefficient of 1-octyne (Liquid); method: Chromatography
Temperature, K	Activity coefficient of 1-octyne	uncertainty
318.15	13.6	0.9
328.15	13.6	0.9
338.15	13.6	0.9
348.15	13.7	0.9
358.15	13.7	0.9

System: benzene + 1-butyl-1-methylpiperidinium thiocyanate; phases: Liquid, Gas
Fixed: Mole fraction of benzene = 0
Property: Activity coefficient of benzene (Liquid); method: Chromatography
Temperature, K	Activity coefficient of benzene	uncertainty
318.15	1.9	0.13
328.15	1.92	0.13
338.15	1.95	0.13
348.15	1.97	0.13
358.15	1.99	0.14

System: toluene + 1-butyl-1-methylpiperidinium thiocyanate; phases: Liquid, Gas
Fixed: Mole fraction of toluene = 0
Property: Activity coefficient of toluene (Liquid); method: Chromatography
Temperature, K	Activity coefficient of toluene	uncertainty
318.15	3.14	0.21
328.15	3.16	0.22
338.15	3.19	0.22
348.15	3.21	0.22
358.15	3.23	0.22

System: ethylbenzene + 1-butyl-1-methylpiperidinium thiocyanate; phases: Liquid, Gas
Fixed: Mole fraction of ethylbenzene = 0
Property: Activity coefficient of ethylbenzene (Liquid); method: Chromatography
Temperature, K	Activity coefficient of ethylbenzene	uncertainty
318.15	5.18	0.35
328.15	5.18	0.35
338.15	5.16	0.35
348.15	5.15	0.35
358.15	5.14	0.35

System: 1,2-dimethylbenzene + 1-butyl-1-methylpiperidinium thiocyanate; phases: Liquid, Gas
Fixed: Mole fraction of 1,2-dimethylbenzene = 0
Property: Activity coefficient of 1,2-dimethylbenzene (Liquid); method: Chromatography
Temperature, K	Activity coefficient of 1,2-dimethylbenzene	uncertainty
318.15	4.15	0.28
328.15	4.18	0.28
338.15	4.21	0.29
348.15	4.24	0.29
358.15	4.26	0.29

System: 1,3-dimethylbenzene + 1-butyl-1-methylpiperidinium thiocyanate; phases: Liquid, Gas
Fixed: Mole fraction of 1,3-dimethylbenzene = 0
Property: Activity coefficient of 1,3-dimethylbenzene (Liquid); method: Chromatography
Temperature, K	Activity coefficient of 1,3-dimethylbenzene	uncertainty
318.15	5.23	0.36
328.15	5.25	0.36
338.15	5.26	0.36
348.15	5.27	0.36
358.15	5.28	0.36

System: 1,4-dimethylbenzene + 1-butyl-1-methylpiperidinium thiocyanate; phases: Liquid, Gas
Fixed: Mole fraction of 1,4-dimethylbenzene = 0
Property: Activity coefficient of 1,4-dimethylbenzene (Liquid); method: Chromatography
Temperature, K	Activity coefficient of 1,4-dimethylbenzene	uncertainty
318.15	5.01	0.34
328.15	5.04	0.34
338.15	5.07	0.35
348.15	5.1	0.35
358.15	5.13	0.35

System: methanol + 1-butyl-1-methylpiperidinium thiocyanate; phases: Liquid, Gas
Fixed: Mole fraction of methanol = 0
Property: Activity coefficient of methanol (Liquid); method: Chromatography
Temperature, K	Activity coefficient of methanol	uncertainty
318.15	0.366	0.033
328.15	0.368	0.033
338.15	0.37	0.033
348.15	0.371	0.033
358.15	0.373	0.033

System: ethanol + 1-butyl-1-methylpiperidinium thiocyanate; phases: Liquid, Gas
Fixed: Mole fraction of ethanol = 0
Property: Activity coefficient of ethanol (Liquid); method: Chromatography
Temperature, K	Activity coefficient of ethanol	uncertainty
318.15	0.647	0.044
328.15	0.637	0.044
338.15	0.627	0.043
348.15	0.618	0.043
358.15	0.612	0.043

System: water + 1-butyl-1-methylpiperidinium thiocyanate; phases: Liquid, Gas
Fixed: Mole fraction of water = 0
Property: Activity coefficient of water (Liquid); method: Chromatography
Temperature, K	Activity coefficient of water	uncertainty
328.15	0.332	0.032
338.15	0.337	0.032
348.15	0.342	0.032
358.15	0.348	0.032

System: thiophene + 1-butyl-1-methylpiperidinium thiocyanate; phases: Liquid, Gas
Fixed: Mole fraction of thiophene = 0
Property: Activity coefficient of thiophene (Liquid); method: Chromatography
Temperature, K	Activity coefficient of thiophene	uncertainty
318.15	1.1	0.07
328.15	1.13	0.07
338.15	1.17	0.07
348.15	1.2	0.08
358.15	1.23	0.08

System: tetrahydrofuran + 1-butyl-1-methylpiperidinium thiocyanate; phases: Liquid, Gas
Fixed: Mole fraction of tetrahydrofuran = 0
Property: Activity coefficient of tetrahydrofuran (Liquid); method: Chromatography
Temperature, K	Activity coefficient of tetrahydrofuran	uncertainty
318.15	2.28	0.16
328.15	2.31	0.16
338.15	2.34	0.16
348.15	2.36	0.16
358.15	2.38	0.16

System: 2-methoxy-2-methylpropane + 1-butyl-1-methylpiperidinium thiocyanate; phases: Liquid, Gas
Fixed: Mole fraction of 2-methoxy-2-methylpropane = 0
Property: Activity coefficient of 2-methoxy-2-methylpropane (Liquid); method: Chromatography
Temperature, K	Activity coefficient of 2-methoxy-2-methylpropane	uncertainty
318.2	13.1	0.9
328.2	12.7	0.9
338.2	12.4	0.8
348.2	12	0.8
358.2	11.8	0.8

System: diethyl ether + 1-butyl-1-methylpiperidinium thiocyanate; phases: Liquid, Gas
Fixed: Mole fraction of diethyl ether = 0
Property: Activity coefficient of diethyl ether (Liquid); method: Chromatography
Temperature, K	Activity coefficient of diethyl ether	uncertainty
318.2	12	0.8
328.2	11.6	0.8
338.2	11.1	0.8
348.2	10.8	0.7
358.2	10.5	0.7

System: dipropyl ether + 1-butyl-1-methylpiperidinium thiocyanate; phases: Liquid, Gas
Fixed: Mole fraction of dipropyl ether = 0
Property: Activity coefficient of dipropyl ether (Liquid); method: Chromatography
Temperature, K	Activity coefficient of dipropyl ether	uncertainty
318.2	35.1	2.4
328.2	32.9	2.3
338.2	31	2.1
348.2	29.3	2
358.2	28	1.9

System: dibutyl ether + 1-butyl-1-methylpiperidinium thiocyanate; phases: Liquid, Gas
Fixed: Mole fraction of dibutyl ether = 0
Property: Activity coefficient of dibutyl ether (Liquid); method: Chromatography
Temperature, K	Activity coefficient of dibutyl ether	uncertainty
318.2	79.3	5.4
328.2	73.5	5
338.2	68.2	4.7
348.2	63.6	4.4
358.2	60.6	4.2

System: acetone + 1-butyl-1-methylpiperidinium thiocyanate; phases: Liquid, Gas
Fixed: Mole fraction of acetone = 0
Property: Activity coefficient of acetone (Liquid); method: Chromatography
Temperature, K	Activity coefficient of acetone	uncertainty
318.2	1.52	0.1
328.2	1.52	0.1
338.2	1.53	0.1
348.2	1.54	0.1
358.2	1.55	0.1

System: pentan-2-one + 1-butyl-1-methylpiperidinium thiocyanate; phases: Liquid, Gas
Fixed: Mole fraction of pentan-2-one = 0
Property: Activity coefficient of pentan-2-one (Liquid); method: Chromatography
Temperature, K	Activity coefficient of pentan-2-one	uncertainty
318.2	3.07	0.21
328.2	3.08	0.21
338.2	3.09	0.21
348.2	3.11	0.21
358.2	3.12	0.21

System: pentan-3-one + 1-butyl-1-methylpiperidinium thiocyanate; phases: Liquid, Gas
Fixed: Mole fraction of pentan-3-one = 0
Property: Activity coefficient of pentan-3-one (Liquid); method: Chromatography
Temperature, K	Activity coefficient of pentan-3-one	uncertainty
318.2	3.08	0.21
328.2	3.09	0.21
338.2	3.11	0.21
348.2	3.12	0.21
358.2	3.13	0.21
