Measured thermophysical data. Solubilities of 3-Carboxy-3-hydroxypentanedioic Acid in Ethanol, Butan-1-ol, Water, Acetone, and Methylbenzene
Source: J. Chem. Eng. Data, 2011, 10.1021/je101167z
Compound 1: butan-1-ol, C4H10O, InChI=1S/C4H10O/c1-2-3-4-5/h5H,2-4H2,1H3
Compound 2: citric acid, C6H8O7, InChI=1S/C6H8O7/c7-3(8)1-6(13,5(11)12)2-4(9)10/h13H,1-2H2,(H,7,8)(H,9,10)(H,11,12)
Compound 3: ethanol, C2H6O, InChI=1S/C2H6O/c1-2-3/h3H,2H2,1H3
Compound 4: acetone, C3H6O, InChI=1S/C3H6O/c1-3(2)4/h1-2H3
Compound 5: toluene, C7H8, InChI=1S/C7H8/c1-7-5-3-2-4-6-7/h2-6H,1H3
Compound 6: water, H2O, InChI=1S/H2O/h1H2

System: butan-1-ol + citric acid; phases: Liquid, Crystal
Fixed: Pressure, kPa = 101.325
Property: Mole fraction of citric acid (Liquid); method: Abbe Refractometer
Temperature, K	Mole fraction of citric acid	uncertainty
288.15	0.05885	0.00295
291.15	0.06626	0.00332
294.15	0.07463	0.00373
297.15	0.08385	0.0042
299.15	0.09057	0.00453
301.15	0.09781	0.00489
303.15	0.1056	0.0053
305.15	0.1139	0.0057
307.15	0.1223	0.0061
309.15	0.1323	0.0066
311.15	0.1424	0.0071
313.15	0.1534	0.0077
315.15	0.1651	0.0083
317.15	0.1773	0.0089
319.15	0.1908	0.0095
323.15	0.221	0.011
327.15	0.2538	0.0127
330.15	0.283	0.014
333.15	0.3126	0.0156

System: ethanol + citric acid; phases: Liquid, Crystal
Fixed: Pressure, kPa = 101.325
Property: Mole fraction of citric acid (Liquid); method: Abbe Refractometer
Temperature, K	Mole fraction of citric acid	uncertainty
288.15	0.2462	0.0123
291.15	0.2588	0.013
294.15	0.2708	0.0136
297.15	0.2826	0.0141
299.15	0.2895	0.0145
301.15	0.2962	0.0148
303.15	0.3027	0.0151
305.15	0.3091	0.0155
307.15	0.3149	0.0158
309.15	0.3201	0.016
311.15	0.3253	0.0163
313.15	0.3297	0.0165
315.15	0.3341	0.0167
317.15	0.3369	0.0169
319.15	0.3407	0.0171
323.15	0.3458	0.0173
327.15	0.3492	0.0175
330.15	0.3506	0.0175
333.15	0.3509	0.0176

System: acetone + citric acid; phases: Liquid, Crystal
Fixed: Pressure, kPa = 101.325
Property: Mole fraction of citric acid (Liquid); method: Abbe Refractometer
Temperature, K	Mole fraction of citric acid	uncertainty
288.15	0.05552	0.00278
291.15	0.06339	0.00317
294.15	0.07226	0.00362
297.15	0.08224	0.00412
299.15	0.0896	0.00448
301.15	0.09755	0.00488
303.15	0.1061	0.0053
305.15	0.1155	0.0058
307.15	0.1254	0.0063
309.15	0.1363	0.0068
311.15	0.1478	0.0074
313.15	0.1605	0.008
315.15	0.174	0.0087
317.15	0.1887	0.0094
319.15	0.2044	0.0102
323.15	0.2395	0.012
327.15	0.28	0.014
330.15	0.3145	0.0157
333.15	0.3527	0.0177

System: citric acid + toluene; phases: Liquid, Crystal
Fixed: Pressure, kPa = 101.325
Property: Mole fraction of citric acid (Liquid); method: Abbe Refractometer
Temperature, K	Mole fraction of citric acid	uncertainty
288.15	0.0567	0.00284
291.15	0.06003	0.003
294.15	0.06353	0.00318
297.15	0.0672	0.00336
299.15	0.06973	0.00349
301.15	0.07235	0.00362
303.15	0.07505	0.00376
305.15	0.07783	0.0039
307.15	0.08069	0.00404
309.15	0.08363	0.00419
311.15	0.08667	0.00434
313.15	0.08979	0.00449
315.15	0.09301	0.00465
317.15	0.09632	0.00482
319.15	0.09972	0.00499
323.15	0.1068	0.0053
327.15	0.1143	0.0057
330.15	0.1203	0.006
333.15	0.1265	0.0063

System: citric acid + water; phases: Liquid, Crystal of intercomponent compound 1
Fixed: Pressure, kPa = 101.325
Property: Mole fraction of citric acid (Liquid); method: Abbe Refractometer
Temperature, K	Mole fraction of citric acid	uncertainty
288.15	0.1105	0.0055
291.15	0.1169	0.0059
294.15	0.1235	0.0062
297.15	0.1301	0.0065
299.15	0.1347	0.0067
301.15	0.1393	0.007
303.15	0.1445	0.0072
305.15	0.1495	0.0075
307.15	0.1545	0.0077
309.15	0.1594	0.008
311.15	0.1648	0.0082
313.15	0.17	0.0085
315.15	0.1754	0.0088
317.15	0.1808	0.009
319.15	0.1865	0.0093
323.15	0.1977	0.0099
327.15	0.2094	0.0105
330.15	0.2184	0.0109
333.15	0.2275	0.0114
