Measured thermophysical data. Solid Liquid Phase Equilibrium and Phase Diagram for the Ternary Carbamazepine Succinic Acid Ethanol or Acetone System at (298.15 and 308.15) K
Source: J. Chem. Eng. Data, 2011, 10.1021/je100918d
Compound 1: carbamazepine, C15H12N2O, InChI=1S/C15H12N2O/c16-15(18)17-13-7-3-1-5-11(13)9-10-12-6-2-4-8-14(12)17/h1-10H,(H2,16,18), purity 99%
Compound 2: butanedioic acid, C4H6O4, InChI=1S/C4H6O4/c5-3(6)1-2-4(7)8/h1-2H2,(H,5,6)(H,7,8), purity 99%
Compound 3: ethanol, C2H6O, InChI=1S/C2H6O/c1-2-3/h3H,2H2,1H3, purity 99%
Compound 4: acetone, C3H6O, InChI=1S/C3H6O/c1-3(2)4/h1-2H3, purity 99%

System: acetone + butanedioic acid + carbamazepine; phases: Liquid, Crystal, Crystal of intercomponent compound 1
Fixed: Pressure, kPa = 101
Property: Mole fraction of butanedioic acid (Liquid); method: spectra
Temperature, K	Mole fraction of butanedioic acid	uncertainty
298.15	0.0341	0.0001
308.15	0.0411	0.0002

System: acetone + butanedioic acid + carbamazepine; phases: Liquid, Crystal, Crystal of intercomponent compound 1
Fixed: Pressure, kPa = 101
Property: Mole fraction of butanedioic acid (Liquid); method: spectra
Temperature, K	Mole fraction of butanedioic acid	uncertainty
298.15	0.0008	0.0001
308.15	0.0009	0.0001

System: acetone + butanedioic acid + carbamazepine; phases: Liquid, Crystal, Crystal of intercomponent compound 1
Fixed: Pressure, kPa = 101
Property: Mole fraction of carbamazepine (Liquid); method: spectra
Temperature, K	Mole fraction of carbamazepine	uncertainty
298.15	0.0028	0.0001
308.15	0.0047	0.0001

System: acetone + butanedioic acid + carbamazepine; phases: Liquid, Crystal, Crystal of intercomponent compound 1
Fixed: Pressure, kPa = 101
Property: Mole fraction of carbamazepine (Liquid); method: spectra
Temperature, K	Mole fraction of carbamazepine	uncertainty
298.15	0.0186	0.0001
308.15	0.0319	0.0003

System: acetone + butanedioic acid + carbamazepine; phases: Liquid, Crystal
Fixed: Pressure, kPa = 101
Property: Mole fraction of butanedioic acid (Liquid); method: spectra
Temperature, K	Mole fraction of carbamazepine	Mole fraction of butanedioic acid	uncertainty
298.15	0.0344	0.0024	0.0024
298.15	0.0352	0.0011	0.0011
298.15	0.0358	0	
308.15	0.0416	0.0037	0.0037
308.15	0.0426	0.0016	0.0016
308.15	0.0434	0	

System: acetone + butanedioic acid + carbamazepine; phases: Liquid, Crystal
Fixed: Pressure, kPa = 101
Property: Mole fraction of butanedioic acid (Liquid); method: spectra
Temperature, K	Mole fraction of carbamazepine	Mole fraction of butanedioic acid	uncertainty
298.15	0	0.0128	0.01
298.15	0.0002	0.0143	0.01
298.15	0.0004	0.0157	0.01
298.15	0.0007	0.0178	0.01
308.15	0	0.0206	0.01
308.15	0.0002	0.023	0.01
308.15	0.0005	0.0267	0.01
308.15	0.0008	0.0303	0.01

System: acetone + butanedioic acid + carbamazepine; phases: Liquid, Crystal of intercomponent compound 1
Fixed: Pressure, kPa = 101
Property: Mole fraction of butanedioic acid (Liquid); method: spectra
Temperature, K	Mole fraction of carbamazepine	Mole fraction of butanedioic acid	uncertainty
298.15	0.0028	0.0108	0.0001
298.15	0.0241	0.0049	0.0001
308.15	0.005	0.013	0.0001
308.15	0.0322	0.0079	0.0001

System: ethanol + butanedioic acid + carbamazepine; phases: Liquid, Crystal, Crystal of intercomponent compound 1
Fixed: Pressure, kPa = 101
Property: Mole fraction of butanedioic acid (Liquid); method: spectra
Temperature, K	Mole fraction of butanedioic acid	uncertainty
298.15	0.0809	0.0003
308.15	0.1033	0.0004

System: ethanol + butanedioic acid + carbamazepine; phases: Liquid, Crystal, Crystal of intercomponent compound 1
Fixed: Pressure, kPa = 101
Property: Mole fraction of butanedioic acid (Liquid); method: spectra
Temperature, K	Mole fraction of butanedioic acid	uncertainty
298.15	0.0034	0.0001
308.15	0.0043	0.0001

System: ethanol + butanedioic acid + carbamazepine; phases: Liquid, Crystal, Crystal of intercomponent compound 1
Fixed: Pressure, kPa = 101
Property: Mole fraction of carbamazepine (Liquid); method: spectra
Temperature, K	Mole fraction of carbamazepine	uncertainty
298.15	0.0028	0.0001
308.15	0.0039	0.0001

System: ethanol + butanedioic acid + carbamazepine; phases: Liquid, Crystal, Crystal of intercomponent compound 1
Fixed: Pressure, kPa = 101
Property: Mole fraction of carbamazepine (Liquid); method: spectra
Temperature, K	Mole fraction of carbamazepine	uncertainty
298.15	0.0295	0.0002
308.15	0.0464	0.0004

System: ethanol + butanedioic acid + carbamazepine; phases: Liquid, Crystal
Fixed: Pressure, kPa = 101
Property: Mole fraction of butanedioic acid (Liquid); method: spectra
Temperature, K	Mole fraction of carbamazepine	Mole fraction of butanedioic acid	uncertainty
298.15	0.0824	0.0022	0.0001
298.15	0.0858	0.0009	0.0001
298.15	0.0884	0	0.0001
308.15	0.1091	0.002	0.0001
308.15	0.114	0.0005	0.0001
308.15	0.1156	0	0.0001

System: ethanol + butanedioic acid + carbamazepine; phases: Liquid, Crystal
Fixed: Pressure, kPa = 101
Property: Mole fraction of butanedioic acid (Liquid); method: spectra
Temperature, K	Mole fraction of carbamazepine	Mole fraction of butanedioic acid	uncertainty
298.15	0	0.0307	0.0002
298.15	0.0006	0.0305	0.0002
298.15	0.0017	0.0301	0.0002
298.15	0.0028	0.0298	0.0002
308.15	0	0.0486	0.0004
308.15	0.0009	0.0482	0.0004
308.15	0.0023	0.0474	0.0004
308.15	0.0037	0.0467	0.0004

System: ethanol + butanedioic acid + carbamazepine; phases: Liquid, Crystal of intercomponent compound 1
Fixed: Pressure, kPa = 101
Property: Mole fraction of butanedioic acid (Liquid); method: spectra
Temperature, K	Mole fraction of carbamazepine	Mole fraction of butanedioic acid	uncertainty
298.15	0.005	0.0085	0.0001
298.15	0.0599	0.003	0.0001
308.15	0.0164	0.0116	0.0001
308.15	0.0752	0.0032	0.0001
