Measured thermophysical data. Isochoric Specific Heat Capacity of trans-1,3,3,3-Tetrafluoropropene (HFO-1234ze(E)) and the HFO-1234ze(E) + CO2 Mixture in the Liquid Phase
Source: J. Chem. Eng. Data, 2011, 10.1021/je101209e
Compound 1: trans-1,3,3,3-tetrafluoropropene, C3H2F4, InChI=1S/C3H2F4/c4-2-1-3(5,6)7/h1-2H/b2-1+, purity 99.96%
Compound 2: carbon dioxide, CO2, InChI=1S/CO2/c2-1-3, purity 99.999%

System: trans-1,3,3,3-tetrafluoropropene; phases: Fluid (supercritical or subcritical phases)
Property: Molar heat capacity at constant volume, J/K/mol (Fluid (supercritical or subcritical phases)); method: Vacuum adiabatic calorimetry
Temperature, K	Pressure, kPa	Molar heat capacity at constant volume, J/K/mol	uncertainty
270.15	5540	107.3131388248	4.9037884904
275.15	7679	107.199097232	4.9037884904
280.15	9813	107.9973883816	5.0178300832
285.15	11937	107.8833467888	5.0178300832
290.15	14055	107.4271804176	4.9037884904
295.15	16163	107.199097232	4.9037884904
295.15	2684	110.3922618304	5.131871676
300.15	4324	111.19055298	5.131871676
305.15	5963	111.4186361656	5.131871676
310.15	7598	112.2169273152	5.131871676
315.15	9231	111.9888441296	5.131871676
320.15	10858	112.901176872	5.2459132688
325.15	12483	112.4450105008	5.131871676
330.15	14103	113.1292600576	5.2459132688
335.15	15720	111.9888441296	5.131871676
335.15	3368	122.8227954456	5.70207964
340.15	4423	121.5683379248	5.5880380472
345.15	5477	121.9104627032	5.5880380472
350.15	6529	120.9981299608	5.5880380472
355.15	7582	119.9717556256	5.4739964544
360.15	8633	118.8313396976	5.4739964544
365.15	9684	118.4892149192	5.4739964544
370.15	10734	118.9453812904	5.4739964544
375.15	11784	119.0594228832	5.4739964544
380.15	12833	120.884088368	5.5880380472
385.15	13882	120.9981299608	5.5880380472
390.15	14930	120.4279219968	5.5880380472
395.15	15976	122.1385458888	5.5880380472
385.15	4344	195.8094148376	9.0092858312
390.15	4695	192.8443334248	8.8952442384
395.15	5051	190.1073351976	8.7812026456
400.15	5410	185.4316298928	8.55311946
405.15	5772	181.2120909592	8.3250362744
410.15	6137	176.3083024688	8.0969530888
415.15	6503	174.3695953912	8.6671610528
420.15	6872	171.1764307928	8.0969530888
425.15	7243	167.5270998232	7.7548283104

System: trans-1,3,3,3-tetrafluoropropene; phases: Fluid (supercritical or subcritical phases)
Property: Mass density, kg/m3 (Fluid (supercritical or subcritical phases)); method: ISOCHOR
Temperature, K	Pressure, kPa	Mass density, kg/m3	uncertainty
270.15	5540	1266.6	2
275.15	7679	1266.2	2
280.15	9813	1265.7	2
285.15	11937	1265.3	2
290.15	14055	1264.9	2
295.15	16163	1264.4	2
295.15	2684	1185	1.9
300.15	4324	1184.7	1.9
305.15	5963	1184.3	1.9
310.15	7598	1184	1.9
315.15	9231	1183.6	1.9
320.15	10858	1183.3	1.9
325.15	12483	1182.9	1.9
330.15	14103	1182.5	1.9
335.15	15720	1182.2	1.9
335.15	3368	1048.2	1.7
340.15	4423	1047.9	1.7
345.15	5477	1047.7	1.7
350.15	6529	1047.4	1.8
355.15	7582	1047.1	1.7
360.15	8633	1046.9	1.7
365.15	9684	1046.6	1.7
370.15	10734	1046.3	1.7
375.15	11784	1046.1	1.7
380.15	12833	1045.8	1.7
385.15	13882	1045.6	1.7
390.15	14930	1045.3	1.7
395.15	15976	1045	1.7
385.15	4344	717.5	1.2
390.15	4695	717.4	1.2
395.15	5051	717.3	1.2
400.15	5410	717.1	1.2
405.15	5772	717	1.2
410.15	6137	716.9	1.2
415.15	6503	716.8	1.2
420.15	6872	716.7	1.2
425.15	7243	716.6	1.2

System: trans-1,3,3,3-tetrafluoropropene + carbon dioxide; phases: Fluid (supercritical or subcritical phases)
Fixed: Mole fraction of trans-1,3,3,3-tetrafluoropropene = 0.489
Property: Molar heat capacity at constant volume, J/K/mol (Fluid (supercritical or subcritical phases)); method: Vacuum adiabatic calorimetry
Temperature, K	Pressure, kPa	Molar heat capacity at constant volume, J/K/mol	uncertainty
270.15	10302	74.4206889036192	3.4432285086848
275.15	14848	74.8119648705152	3.4432285086848
280.15	19370	75.3597512241696	3.4432285086848
285.15	23857	75.4380064175488	3.4432285086848
286.15	24752	77.7074070255456	3.5997388954432
290.15	28318	75.7510271910656	3.521483702064
290.15	7501	76.7683447049952	3.521483702064
295.15	11107	77.863917412304	3.5997388954432
300.15	14713	78.4117037659584	3.5997388954432
301.15	15434	78.5682141527168	3.5997388954432
302.15	16154	78.3334485725792	3.5997388954432
303.15	16872	77.6291518321664	3.5997388954432
306.15	19026	76.6118343182368	3.521483702064
310.15	21888	79.5855316666464	3.6779940888224
315.15	25455	79.1160005063712	3.6779940888224
320.15	28987	78.1769381858208	3.5997388954432
320.15	9139	75.5945168043072	3.521483702064
325.15	11633	76.3770687380992	3.521483702064
330.15	14125	75.9857927712032	3.521483702064
335.15	16616	74.8119648705152	3.4432285086848
340.15	19103	74.8119648705152	3.4432285086848
345.15	21584	76.8465998983744	3.521483702064
350.15	24061	76.4553239314784	3.521483702064
355.15	26532	76.5335791248576	3.521483702064
360.15	28998	78.8029797328544	3.5997388954432
361.15	7303	98.7580540445504	4.5388012159936
365.15	7938	97.5842261438624	4.4605460226144
370.15	8742	100.71443387903	4.6170564093728
375.15	9557	103.296855260544	4.7735667961312
380.15	10380	104.861959128128	4.8518219895104
385.15	11211	104.470683161232	4.7735667961312
390.15	12047	106.114042222195	4.8518219895104
395.15	12887	107.913911669917	5.0083323762688
400.15	13731	103.922896807578	4.7735667961312
405.15	14576	102.279537746614	4.695311602752
410.15	15424	97.1146949835872	4.4605460226144
415.15	16273	93.6714664749024	4.304035635856
420.15	17122	92.4976385742144	4.2257804424768
425.15	17972	91.7933418338016	4.2257804424768

System: trans-1,3,3,3-tetrafluoropropene + carbon dioxide; phases: Fluid (supercritical or subcritical phases)
Fixed: Mole fraction of trans-1,3,3,3-tetrafluoropropene = 0.489
Property: Mass density, kg/m3 (Fluid (supercritical or subcritical phases)); method: ISOCHOR
Temperature, K	Pressure, kPa	Mass density, kg/m3	uncertainty
270.15	10302	1191.8	1.9
275.15	14848	1191	1.9
280.15	19370	1190.1	1.9
285.15	23857	1189.2	1.9
286.15	24752	1189	1.9
290.15	28318	1188.3	1.9
290.15	7501	1115.7	1.8
295.15	11107	1115	1.8
300.15	14713	1114.2	1.8
301.15	15434	1114.1	1.8
302.15	16154	1114	1.8
303.15	16872	1113.8	1.8
306.15	19026	1113.3	1.8
310.15	21888	1112.7	1.8
315.15	25455	1112	1.8
320.15	28987	1111.2	1.8
320.15	9139	1003.8	1.6
325.15	11633	1003.2	1.6
330.15	14125	1002.7	1.6
335.15	16616	1002.1	1.6
340.15	19103	1001.6	1.6
345.15	21584	1001	1.6
350.15	24061	1000.4	1.6
355.15	26532	999.9	1.6
360.15	28998	999.3	1.6
361.15	7303	648.9	1.1
365.15	7938	648.7	1.1
370.15	8742	648.5	1.1
375.15	9557	648.3	1.1
380.15	10380	648.1	1.1
385.15	11211	647.9	1.1
390.15	12047	647.6	1.1
395.15	12887	647.4	1.1
400.15	13731	647.2	1.1
405.15	14576	647	1.1
410.15	15424	646.8	1.1
415.15	16273	646.6	1.1
420.15	17122	646.3	1.1
425.15	17972	646.1	1.1
