Measured thermophysical data. Solubilities of Phosphorus-Containing Compounds in Selected Solvents
Source: J. Chem. Eng. Data, 2010, 10.1021/je100341q
Compound 1: 3,9-dihydroxy-2,4,8,10-tetraoxa-3,9-diphosphaspiro[5.5]undecane-3,9-dioxide, C5H10O8P2, InChI=1S/C5H10O8P2/c6-14(7)10-1-5(2-11-14)3-12-15(8,9)13-4-5/h1-4H2,(H,6,7)(H,8,9)
Compound 2: 3,9-diphenoxy-2,4,8,10-tetraoxa-3,9-diphosphaspiro[5.5]undecane 3,9-dioxide, C17H18O8P2, InChI=1S/C17H18O8P2/c18-26(24-15-7-3-1-4-8-15)20-11-17(12-21-26)13-22-27(19,23-14-17)25-16-9-5-2-6-10-16/h1-10H,11-14H2
Compound 3: (hydroxymethyl)(phenyl)phosphinic acid, C7H9O3P, InChI=1S/C7H9O3P/c8-6-11(9,10)7-4-2-1-3-5-7/h1-5,8H,6H2,(H,9,10)
Compound 4: 3-(hydroxy(phenyl)phosphoryl)propanoic acid, C9H11O4P, InChI=1S/C9H11O4P/c10-9(11)6-7-14(12,13)8-4-2-1-3-5-8/h1-5H,6-7H2,(H,10,11)(H,12,13)
Compound 5: tris(4-methoxyphenyl)phosphane, C21H21O3P, InChI=1S/C21H21O3P/c1-22-16-4-10-19(11-5-16)25(20-12-6-17(23-2)7-13-20)21-14-8-18(24-3)9-15-21/h4-15H,1-3H3
Compound 6: tris(4-methoxyphenyl)phosphine oxide, C21H21O4P, InChI=1S/C21H21O4P/c1-23-16-4-10-19(11-5-16)26(22,20-12-6-17(24-2)7-13-20)21-14-8-18(25-3)9-15-21/h4-15H,1-3H3
Compound 7: methanol, CH4O, InChI=1S/CH4O/c1-2/h2H,1H3, purity 99.5%
Compound 8: ethanol, C2H6O, InChI=1S/C2H6O/c1-2-3/h3H,2H2,1H3, purity 99.7%
Compound 9: benzene, C6H6, InChI=1S/C6H6/c1-2-4-6-5-3-1/h1-6H, purity 99.5%
Compound 10: acetone, C3H6O, InChI=1S/C3H6O/c1-3(2)4/h1-2H3, purity 99.5%
Compound 11: butanone, C4H8O, InChI=1S/C4H8O/c1-3-4(2)5/h3H2,1-2H3, purity 99.5%
Compound 12: dichloromethane, CH2Cl2, InChI=1S/CH2Cl2/c2-1-3/h1H2, purity 99.5%
Compound 13: toluene, C7H8, InChI=1S/C7H8/c1-7-5-3-2-4-6-7/h2-6H,1H3, purity 99.5%
Compound 14: acetonitrile, C2H3N, InChI=1S/C2H3N/c1-2-3/h1H3, purity 99.8%
Compound 15: ethyl acetate, C4H8O2, InChI=1S/C4H8O2/c1-3-6-4(2)5/h3H2,1-2H3, purity 99.5%
Compound 16: trichloromethane, CHCl3, InChI=1S/CHCl3/c2-1(3)4/h1H, purity 99.5%
Compound 17: diethyl ether, C4H10O, InChI=1S/C4H10O/c1-3-5-4-2/h3-4H2,1-2H3, purity 99.5%
Compound 18: 1,4-dioxane, C4H8O2, InChI=1S/C4H8O2/c1-2-6-4-3-5-1/h1-4H2, purity 99%
Compound 19: pyridine, C5H5N, InChI=1S/C5H5N/c1-2-4-6-5-3-1/h1-5H, purity 99.5%
Compound 20: tetrahydrofuran, C4H8O, InChI=1S/C4H8O/c1-2-4-5-3-1/h1-4H2, purity 99%
Compound 21: 2-ethoxyethan-1-ol, C4H10O2, InChI=1S/C4H10O2/c1-2-6-4-3-5/h5H,2-4H2,1H3, purity 99.5%
Compound 22: cyclohexane, C6H12, InChI=1S/C6H12/c1-2-4-6-5-3-1/h1-6H2, purity 99.5%
Compound 23: acetic acid, C2H4O2, InChI=1S/C2H4O2/c1-2(3)4/h1H3,(H,3,4), purity 99.8%
Compound 24: water, H2O, InChI=1S/H2O/h1H2

System: 3,9-dihydroxy-2,4,8,10-tetraoxa-3,9-diphosphaspiro[5.5]undecane-3,9-dioxide; phases: Crystal, Liquid, Gas
Property: Molar enthalpy of transition or fusion, kJ/mol (Crystal); method: DSC
Molar enthalpy of transition or fusion, kJ/mol	uncertainty
22.458	0.707

System: 3,9-dihydroxy-2,4,8,10-tetraoxa-3,9-diphosphaspiro[5.5]undecane-3,9-dioxide; phases: Crystal, Liquid, Air at 1 atmosphere
Property: Normal melting temperature, K (Crystal); method: DTA
Normal melting temperature, K	uncertainty
583.72	0.5

System: 3,9-diphenoxy-2,4,8,10-tetraoxa-3,9-diphosphaspiro[5.5]undecane 3,9-dioxide; phases: Crystal, Liquid, Gas
Property: Molar enthalpy of transition or fusion, kJ/mol (Crystal); method: DSC
Molar enthalpy of transition or fusion, kJ/mol	uncertainty
36.457	1.042

System: 3,9-diphenoxy-2,4,8,10-tetraoxa-3,9-diphosphaspiro[5.5]undecane 3,9-dioxide; phases: Crystal, Liquid, Air at 1 atmosphere
Property: Normal melting temperature, K (Crystal); method: DTA
Normal melting temperature, K	uncertainty
469.58	0.5

System: (hydroxymethyl)(phenyl)phosphinic acid; phases: Crystal, Liquid, Gas
Property: Molar enthalpy of transition or fusion, kJ/mol (Crystal); method: DSC
Molar enthalpy of transition or fusion, kJ/mol	uncertainty
27.16	0.82

System: (hydroxymethyl)(phenyl)phosphinic acid; phases: Crystal, Liquid, Air at 1 atmosphere
Property: Normal melting temperature, K (Crystal); method: DTA
Normal melting temperature, K	uncertainty
413.4	0.5

System: 3-(hydroxy(phenyl)phosphoryl)propanoic acid; phases: Crystal, Liquid, Gas
Property: Molar enthalpy of transition or fusion, kJ/mol (Crystal); method: DSC
Molar enthalpy of transition or fusion, kJ/mol	uncertainty
33.58	0.97

System: 3-(hydroxy(phenyl)phosphoryl)propanoic acid; phases: Crystal, Liquid, Air at 1 atmosphere
Property: Normal melting temperature, K (Crystal); method: DTA
Normal melting temperature, K	uncertainty
432.66	0.5

System: tris(4-methoxyphenyl)phosphane; phases: Crystal, Liquid, Gas
Property: Molar enthalpy of transition or fusion, kJ/mol (Crystal); method: DSC
Molar enthalpy of transition or fusion, kJ/mol	uncertainty
25.67	0.78

System: tris(4-methoxyphenyl)phosphane; phases: Crystal, Liquid, Air at 1 atmosphere
Property: Normal melting temperature, K (Crystal); method: DTA
Normal melting temperature, K	uncertainty
403.82	0.5

System: tris(4-methoxyphenyl)phosphine oxide; phases: Crystal, Liquid, Gas
Property: Molar enthalpy of transition or fusion, kJ/mol (Crystal); method: DSC
Molar enthalpy of transition or fusion, kJ/mol	uncertainty
28.52	0.81

System: tris(4-methoxyphenyl)phosphine oxide; phases: Crystal, Liquid, Air at 1 atmosphere
Property: Normal melting temperature, K (Crystal); method: DTA
Normal melting temperature, K	uncertainty
417.84	0.5

System: methanol; phases: Liquid
Property: Refractive index (Na D-line) (Liquid); method: Standard Abbe refractometry
Temperature, K	Pressure, kPa	Refractive index (Na D-line)	uncertainty
293.15	101.325	1.3301	0.0007

System: methanol; phases: Liquid
Property: Mass density, kg/m3 (Liquid); method: Pycnometric method
Temperature, K	Pressure, kPa	Mass density, kg/m3	uncertainty
293.15	101.325	792	1

System: ethanol; phases: Liquid
Property: Refractive index (Na D-line) (Liquid); method: Standard Abbe refractometry
Temperature, K	Pressure, kPa	Refractive index (Na D-line)	uncertainty
293.15	101.325	1.366	0.0007

System: ethanol; phases: Liquid
Property: Mass density, kg/m3 (Liquid); method: Pycnometric method
Temperature, K	Pressure, kPa	Mass density, kg/m3	uncertainty
293.15	101.325	790	1

System: benzene; phases: Liquid
Property: Refractive index (Na D-line) (Liquid); method: Standard Abbe refractometry
Temperature, K	Pressure, kPa	Refractive index (Na D-line)	uncertainty
293.15	101.325	1.5011	0.0007

System: benzene; phases: Liquid
Property: Mass density, kg/m3 (Liquid); method: Pycnometric method
Temperature, K	Pressure, kPa	Mass density, kg/m3	uncertainty
293.15	101.325	879	1

System: acetone; phases: Liquid
Property: Refractive index (Na D-line) (Liquid); method: Standard Abbe refractometry
Temperature, K	Pressure, kPa	Refractive index (Na D-line)	uncertainty
293.15	101.325	1.359	0.0007

System: acetone; phases: Liquid
Property: Mass density, kg/m3 (Liquid); method: Pycnometric method
Temperature, K	Pressure, kPa	Mass density, kg/m3	uncertainty
293.15	101.325	790	1

System: butanone; phases: Liquid
Property: Refractive index (Na D-line) (Liquid); method: Standard Abbe refractometry
Temperature, K	Pressure, kPa	Refractive index (Na D-line)	uncertainty
293.15	101.325	1.3788	

System: butanone; phases: Liquid
Property: Mass density, kg/m3 (Liquid); method: Pycnometric method
Temperature, K	Pressure, kPa	Mass density, kg/m3	uncertainty
293.15	101.325	805	1

System: dichloromethane; phases: Liquid
Property: Refractive index (Na D-line) (Liquid); method: Standard Abbe refractometry
Temperature, K	Pressure, kPa	Refractive index (Na D-line)	uncertainty
293.15	101.325	1.4237	0.0007

System: dichloromethane; phases: Liquid
Property: Mass density, kg/m3 (Liquid); method: Pycnometric method
Temperature, K	Pressure, kPa	Mass density, kg/m3	uncertainty
293.15	101.325	1321	1

System: toluene; phases: Liquid
Property: Refractive index (Na D-line) (Liquid); method: Standard Abbe refractometry
Temperature, K	Pressure, kPa	Refractive index (Na D-line)	uncertainty
293.15	101.325	1.4967	0.0007

System: toluene; phases: Liquid
Property: Mass density, kg/m3 (Liquid); method: Pycnometric method
Temperature, K	Pressure, kPa	Mass density, kg/m3	uncertainty
293.15	101.325	866	1

System: acetonitrile; phases: Liquid
Property: Refractive index (Na D-line) (Liquid); method: Standard Abbe refractometry
Temperature, K	Pressure, kPa	Refractive index (Na D-line)	uncertainty
293.15	101.325	1.343	0.0007

System: acetonitrile; phases: Liquid
Property: Mass density, kg/m3 (Liquid); method: Pycnometric method
Temperature, K	Pressure, kPa	Mass density, kg/m3	uncertainty
293.15	101.325	783	1

System: ethyl acetate; phases: Liquid
Property: Refractive index (Na D-line) (Liquid); method: Standard Abbe refractometry
Temperature, K	Pressure, kPa	Refractive index (Na D-line)	uncertainty
293.15	101.325	1.3719	0.0007

System: ethyl acetate; phases: Liquid
Property: Mass density, kg/m3 (Liquid); method: Pycnometric method
Temperature, K	Pressure, kPa	Mass density, kg/m3	uncertainty
293.15	101.325	899	1

System: trichloromethane; phases: Liquid
Property: Refractive index (Na D-line) (Liquid); method: Standard Abbe refractometry
Temperature, K	Pressure, kPa	Refractive index (Na D-line)	uncertainty
293.15	101.325	1.4476	0.0007

System: trichloromethane; phases: Liquid
Property: Mass density, kg/m3 (Liquid); method: Pycnometric method
Temperature, K	Pressure, kPa	Mass density, kg/m3	uncertainty
293.15	101.325	1484	2

System: diethyl ether; phases: Liquid
Property: Refractive index (Na D-line) (Liquid); method: Standard Abbe refractometry
Temperature, K	Pressure, kPa	Refractive index (Na D-line)	uncertainty
293.15	101.325	1.3497	0.0007

System: diethyl ether; phases: Liquid
Property: Mass density, kg/m3 (Liquid); method: Pycnometric method
Temperature, K	Pressure, kPa	Mass density, kg/m3	uncertainty
293.15	101.325	714	1

System: 1,4-dioxane; phases: Liquid
Property: Refractive index (Na D-line) (Liquid); method: Standard Abbe refractometry
Temperature, K	Pressure, kPa	Refractive index (Na D-line)	uncertainty
293.15	101.325	1.4175	0.0008

System: 1,4-dioxane; phases: Liquid
Property: Mass density, kg/m3 (Liquid); method: Pycnometric method
Temperature, K	Pressure, kPa	Mass density, kg/m3	uncertainty
293.15	101.325	1034	1

System: pyridine; phases: Liquid
Property: Refractive index (Na D-line) (Liquid); method: Standard Abbe refractometry
Temperature, K	Pressure, kPa	Refractive index (Na D-line)	uncertainty
293.15	101.325	1.5095	0.0007

System: pyridine; phases: Liquid
Property: Mass density, kg/m3 (Liquid); method: Pycnometric method
Temperature, K	Pressure, kPa	Mass density, kg/m3	uncertainty
293.15	101.325	983	1

System: tetrahydrofuran; phases: Liquid
Property: Refractive index (Na D-line) (Liquid); method: Standard Abbe refractometry
Temperature, K	Pressure, kPa	Refractive index (Na D-line)	uncertainty
293.15	101.325	1.405	0.0008

System: tetrahydrofuran; phases: Liquid
Property: Mass density, kg/m3 (Liquid); method: Pycnometric method
Temperature, K	Pressure, kPa	Mass density, kg/m3	uncertainty
293.15	101.325	985	100

System: 2-ethoxyethan-1-ol; phases: Liquid
Property: Refractive index (Na D-line) (Liquid); method: Standard Abbe refractometry
Temperature, K	Pressure, kPa	Refractive index (Na D-line)	uncertainty
293.15	101.325	1.4065	0.0007

System: 2-ethoxyethan-1-ol; phases: Liquid
Property: Mass density, kg/m3 (Liquid); method: Pycnometric method
Temperature, K	Pressure, kPa	Mass density, kg/m3	uncertainty
293.15	101.325	929	1

System: cyclohexane; phases: Liquid
Property: Refractive index (Na D-line) (Liquid); method: Standard Abbe refractometry
Temperature, K	Pressure, kPa	Refractive index (Na D-line)	uncertainty
293.15	101.325	1.4266	0.0007

System: cyclohexane; phases: Liquid
Property: Mass density, kg/m3 (Liquid); method: Pycnometric method
Temperature, K	Pressure, kPa	Mass density, kg/m3	uncertainty
293.15	101.325	779	1

System: acetic acid; phases: Liquid
Property: Refractive index (Na D-line) (Liquid); method: Standard Abbe refractometry
Temperature, K	Pressure, kPa	Refractive index (Na D-line)	uncertainty
293.15	101.325	1.3716	0.0007

System: acetic acid; phases: Liquid
Property: Mass density, kg/m3 (Liquid); method: Pycnometric method
Temperature, K	Pressure, kPa	Mass density, kg/m3	uncertainty
293.15	101.325	1049	1

System: butanone + 3,9-dihydroxy-2,4,8,10-tetraoxa-3,9-diphosphaspiro[5.5]undecane-3,9-dioxide; phases: Liquid, Crystal
Fixed: Pressure, kPa = 101
Property: Mole fraction of 3,9-dihydroxy-2,4,8,10-tetraoxa-3,9-diphosphaspiro[5.5]undecane-3,9-dioxide (Liquid); method: gravimetric method
Temperature, K	Mole fraction of 3,9-dihydroxy-2,4,8,10-tetraoxa-3,9-diphosphaspiro[5.5]undecane-3,9-dioxide	uncertainty
293.16	0.00064	3e-05
298.17	0.00073	3e-05
303.16	0.00082	3e-05
308.17	0.00095	4e-05
313.16	0.00111	5e-05
318.18	0.00127	5e-05
323.16	0.00145	6e-05
328.16	0.00159	7e-05
333.17	0.00183	7e-05

System: trichloromethane + 3,9-dihydroxy-2,4,8,10-tetraoxa-3,9-diphosphaspiro[5.5]undecane-3,9-dioxide; phases: Liquid, Crystal
Fixed: Pressure, kPa = 101
Property: Mole fraction of 3,9-dihydroxy-2,4,8,10-tetraoxa-3,9-diphosphaspiro[5.5]undecane-3,9-dioxide (Liquid); method: gravimetric method
Temperature, K	Mole fraction of 3,9-dihydroxy-2,4,8,10-tetraoxa-3,9-diphosphaspiro[5.5]undecane-3,9-dioxide	uncertainty
293.16	0.00046	2e-05
298.17	0.00054	2e-05
303.16	0.00067	3e-05
308.17	0.00081	3e-05
313.16	0.00094	4e-05
318.18	0.00114	5e-05
323.16	0.00137	6e-05
328.16	0.00163	7e-05
333.17	0.00192	8e-05
338.15	0.00222	9e-05

System: dichloromethane + 3,9-dihydroxy-2,4,8,10-tetraoxa-3,9-diphosphaspiro[5.5]undecane-3,9-dioxide; phases: Liquid, Crystal
Fixed: Pressure, kPa = 101
Property: Mole fraction of 3,9-dihydroxy-2,4,8,10-tetraoxa-3,9-diphosphaspiro[5.5]undecane-3,9-dioxide (Liquid); method: gravimetric method
Temperature, K	Mole fraction of 3,9-dihydroxy-2,4,8,10-tetraoxa-3,9-diphosphaspiro[5.5]undecane-3,9-dioxide	uncertainty
291.16	0.00027	1e-05
295.18	0.00032	1e-05
299.16	0.00037	2e-05
303.19	0.00045	2e-05
305.2	0.00048	2e-05
309.15	0.00056	2e-05

System: diethyl ether + 3,9-dihydroxy-2,4,8,10-tetraoxa-3,9-diphosphaspiro[5.5]undecane-3,9-dioxide; phases: Liquid, Crystal
Fixed: Pressure, kPa = 101
Property: Mole fraction of 3,9-dihydroxy-2,4,8,10-tetraoxa-3,9-diphosphaspiro[5.5]undecane-3,9-dioxide (Liquid); method: gravimetric method
Temperature, K	Mole fraction of 3,9-dihydroxy-2,4,8,10-tetraoxa-3,9-diphosphaspiro[5.5]undecane-3,9-dioxide	uncertainty
291.16	0.00053	2e-05
295.18	0.00073	3e-05
299.16	0.00096	4e-05
303.19	0.00124	5e-05
305.2	0.0014	6e-05

System: 1,4-dioxane + 3,9-dihydroxy-2,4,8,10-tetraoxa-3,9-diphosphaspiro[5.5]undecane-3,9-dioxide; phases: Liquid, Crystal
Fixed: Pressure, kPa = 101
Property: Mole fraction of 3,9-dihydroxy-2,4,8,10-tetraoxa-3,9-diphosphaspiro[5.5]undecane-3,9-dioxide (Liquid); method: gravimetric method
Temperature, K	Mole fraction of 3,9-dihydroxy-2,4,8,10-tetraoxa-3,9-diphosphaspiro[5.5]undecane-3,9-dioxide	uncertainty
293.16	0.00025	1e-05
298.17	0.00028	1e-05
303.16	0.00031	1e-05
308.17	0.00035	2e-05
313.16	0.0004	2e-05
318.18	0.00045	2e-05
323.16	0.0005	2e-05
328.16	0.00055	2e-05
333.17	0.0006	2e-05
338.15	0.00066	3e-05

System: ethyl acetate + 3,9-dihydroxy-2,4,8,10-tetraoxa-3,9-diphosphaspiro[5.5]undecane-3,9-dioxide; phases: Liquid, Crystal
Fixed: Pressure, kPa = 101
Property: Mole fraction of 3,9-dihydroxy-2,4,8,10-tetraoxa-3,9-diphosphaspiro[5.5]undecane-3,9-dioxide (Liquid); method: gravimetric method
Temperature, K	Mole fraction of 3,9-dihydroxy-2,4,8,10-tetraoxa-3,9-diphosphaspiro[5.5]undecane-3,9-dioxide	uncertainty
293.16	0.00078	3e-05
298.17	0.00092	4e-05
303.16	0.00109	4e-05
308.17	0.00129	5e-05
313.16	0.00152	6e-05
318.18	0.00177	7e-05
323.16	0.00204	8e-05
328.16	0.00229	9e-05
333.17	0.00271	0.00011
338.15	0.00315	0.00013

System: acetic acid + 3,9-dihydroxy-2,4,8,10-tetraoxa-3,9-diphosphaspiro[5.5]undecane-3,9-dioxide; phases: Liquid, Crystal
Fixed: Pressure, kPa = 101
Property: Mole fraction of 3,9-dihydroxy-2,4,8,10-tetraoxa-3,9-diphosphaspiro[5.5]undecane-3,9-dioxide (Liquid); method: gravimetric method
Temperature, K	Mole fraction of 3,9-dihydroxy-2,4,8,10-tetraoxa-3,9-diphosphaspiro[5.5]undecane-3,9-dioxide	uncertainty
293.16	0.00017	1e-05
298.17	0.00022	1e-05
303.16	0.00026	1e-05
308.17	0.00032	1e-05
313.16	0.0004	2e-05
318.18	0.00048	2e-05
323.16	0.00057	2e-05
328.16	0.00067	3e-05
333.17	0.00078	3e-05
338.15	0.00092	4e-05

System: benzene + 3,9-dihydroxy-2,4,8,10-tetraoxa-3,9-diphosphaspiro[5.5]undecane-3,9-dioxide; phases: Liquid, Crystal
Fixed: Pressure, kPa = 101
Property: Mole fraction of 3,9-dihydroxy-2,4,8,10-tetraoxa-3,9-diphosphaspiro[5.5]undecane-3,9-dioxide (Liquid); method: gravimetric method
Temperature, K	Mole fraction of 3,9-dihydroxy-2,4,8,10-tetraoxa-3,9-diphosphaspiro[5.5]undecane-3,9-dioxide	uncertainty
293.16	0.00031	1e-05
298.17	0.00038	2e-05
303.16	0.00047	2e-05
308.17	0.00059	2e-05
313.16	0.0007	3e-05
318.18	0.00088	4e-05
323.16	0.00103	4e-05
328.16	0.00123	5e-05
333.17	0.00146	6e-05
338.15	0.00176	7e-05

System: toluene + 3,9-dihydroxy-2,4,8,10-tetraoxa-3,9-diphosphaspiro[5.5]undecane-3,9-dioxide; phases: Liquid, Crystal
Fixed: Pressure, kPa = 101
Property: Mole fraction of 3,9-dihydroxy-2,4,8,10-tetraoxa-3,9-diphosphaspiro[5.5]undecane-3,9-dioxide (Liquid); method: gravimetric method
Temperature, K	Mole fraction of 3,9-dihydroxy-2,4,8,10-tetraoxa-3,9-diphosphaspiro[5.5]undecane-3,9-dioxide	uncertainty
293.16	0.00046	2e-05
298.17	0.00059	2e-05
303.16	0.00071	3e-05
308.17	0.00086	4e-05
313.16	0.00104	4e-05
318.18	0.00122	5e-05
323.16	0.00146	6e-05
328.16	0.00176	7e-05
333.17	0.00209	9e-05
338.15	0.00248	0.0001

System: cyclohexane + 3,9-dihydroxy-2,4,8,10-tetraoxa-3,9-diphosphaspiro[5.5]undecane-3,9-dioxide; phases: Liquid, Crystal
Fixed: Pressure, kPa = 101
Property: Mole fraction of 3,9-dihydroxy-2,4,8,10-tetraoxa-3,9-diphosphaspiro[5.5]undecane-3,9-dioxide (Liquid); method: gravimetric method
Temperature, K	Mole fraction of 3,9-dihydroxy-2,4,8,10-tetraoxa-3,9-diphosphaspiro[5.5]undecane-3,9-dioxide	uncertainty
293.16	0.00016	1e-05
298.17	0.00019	1e-05
303.16	0.00022	1e-05
308.17	0.00025	1e-05
313.16	0.00028	1e-05
318.18	0.00032	1e-05
323.16	0.00037	2e-05
328.16	0.00041	2e-05
333.15	0.00046	2e-05
338.15	0.00052	2e-05

System: acetone + 3,9-diphenoxy-2,4,8,10-tetraoxa-3,9-diphosphaspiro[5.5]undecane 3,9-dioxide; phases: Liquid, Crystal
Fixed: Pressure, kPa = 101
Property: Mole fraction of 3,9-diphenoxy-2,4,8,10-tetraoxa-3,9-diphosphaspiro[5.5]undecane 3,9-dioxide (Liquid); method: gravimetric method
Temperature, K	Mole fraction of 3,9-diphenoxy-2,4,8,10-tetraoxa-3,9-diphosphaspiro[5.5]undecane 3,9-dioxide	uncertainty
293.17	0.00237	0.0001
298.16	0.00275	0.00012
303.26	0.00322	0.00014
308.57	0.00371	0.00016
313.24	0.00421	0.00018
318.07	0.00479	0.00021
323.25	0.00542	0.00023
328.36	0.00622	0.00027

System: butanone + 3,9-diphenoxy-2,4,8,10-tetraoxa-3,9-diphosphaspiro[5.5]undecane 3,9-dioxide; phases: Liquid, Crystal
Fixed: Pressure, kPa = 101
Property: Mole fraction of 3,9-diphenoxy-2,4,8,10-tetraoxa-3,9-diphosphaspiro[5.5]undecane 3,9-dioxide (Liquid); method: gravimetric method
Temperature, K	Mole fraction of 3,9-diphenoxy-2,4,8,10-tetraoxa-3,9-diphosphaspiro[5.5]undecane 3,9-dioxide	uncertainty
293.15	0.00399	0.00017
298.16	0.00446	0.00019
303.17	0.00506	0.00021
308.18	0.00575	0.00024
313.16	0.00638	0.00027
318.19	0.00733	0.00031
323.15	0.00809	0.00034

System: trichloromethane + 3,9-diphenoxy-2,4,8,10-tetraoxa-3,9-diphosphaspiro[5.5]undecane 3,9-dioxide; phases: Liquid, Crystal
Fixed: Pressure, kPa = 101
Property: Mole fraction of 3,9-diphenoxy-2,4,8,10-tetraoxa-3,9-diphosphaspiro[5.5]undecane 3,9-dioxide (Liquid); method: gravimetric method
Temperature, K	Mole fraction of 3,9-diphenoxy-2,4,8,10-tetraoxa-3,9-diphosphaspiro[5.5]undecane 3,9-dioxide	uncertainty
293.25	0.00224	9e-05
298.17	0.00319	0.00013
303.25	0.00436	0.00018
308.56	0.00611	0.00025
313.25	0.00806	0.00033
318.25	0.01062	0.00044
323.04	0.01386	0.00057
328.35	0.01882	0.00077
333.13	0.02336	0.00096

System: tetrahydrofuran + 3,9-diphenoxy-2,4,8,10-tetraoxa-3,9-diphosphaspiro[5.5]undecane 3,9-dioxide; phases: Liquid, Crystal
Fixed: Pressure, kPa = 101
Property: Mole fraction of 3,9-diphenoxy-2,4,8,10-tetraoxa-3,9-diphosphaspiro[5.5]undecane 3,9-dioxide (Liquid); method: gravimetric method
Temperature, K	Mole fraction of 3,9-diphenoxy-2,4,8,10-tetraoxa-3,9-diphosphaspiro[5.5]undecane 3,9-dioxide	uncertainty
293.53	0.00524	0.00022
298.16	0.00615	0.00026
303.49	0.00727	0.0003
308.25	0.00845	0.00035
313.35	0.00996	0.00042
318.31	0.01154	0.00048
323.35	0.01334	0.00056
328.46	0.01533	0.00064

System: pyridine + 3,9-diphenoxy-2,4,8,10-tetraoxa-3,9-diphosphaspiro[5.5]undecane 3,9-dioxide; phases: Liquid, Crystal
Fixed: Pressure, kPa = 101
Property: Mole fraction of 3,9-diphenoxy-2,4,8,10-tetraoxa-3,9-diphosphaspiro[5.5]undecane 3,9-dioxide (Liquid); method: gravimetric method
Temperature, K	Mole fraction of 3,9-diphenoxy-2,4,8,10-tetraoxa-3,9-diphosphaspiro[5.5]undecane 3,9-dioxide	uncertainty
293.43	0.00813	0.00034
298.35	0.00885	0.00037
303.51	0.00964	0.0004
308.35	0.01045	0.00043
313.35	0.01141	0.00047
318.31	0.01231	0.00051
323.35	0.01316	0.00055
328.45	0.01414	0.00059

System: dichloromethane + 3,9-diphenoxy-2,4,8,10-tetraoxa-3,9-diphosphaspiro[5.5]undecane 3,9-dioxide; phases: Liquid, Crystal
Fixed: Pressure, kPa = 101
Property: Mole fraction of 3,9-diphenoxy-2,4,8,10-tetraoxa-3,9-diphosphaspiro[5.5]undecane 3,9-dioxide (Liquid); method: gravimetric method
Temperature, K	Mole fraction of 3,9-diphenoxy-2,4,8,10-tetraoxa-3,9-diphosphaspiro[5.5]undecane 3,9-dioxide	uncertainty
293.16	0.00103	4e-05
299.22	0.00127	5e-05
303.86	0.00146	6e-05
307.6	0.00167	7e-05

System: diethyl ether + 3,9-diphenoxy-2,4,8,10-tetraoxa-3,9-diphosphaspiro[5.5]undecane 3,9-dioxide; phases: Liquid, Crystal
Fixed: Pressure, kPa = 101
Property: Mole fraction of 3,9-diphenoxy-2,4,8,10-tetraoxa-3,9-diphosphaspiro[5.5]undecane 3,9-dioxide (Liquid); method: gravimetric method
Temperature, K	Mole fraction of 3,9-diphenoxy-2,4,8,10-tetraoxa-3,9-diphosphaspiro[5.5]undecane 3,9-dioxide	uncertainty
291.95	0.00179	8e-05
295.37	0.00204	9e-05
299.26	0.00234	0.0001
303.55	0.00275	0.00012

System: 1,4-dioxane + 3,9-diphenoxy-2,4,8,10-tetraoxa-3,9-diphosphaspiro[5.5]undecane 3,9-dioxide; phases: Liquid, Crystal
Fixed: Pressure, kPa = 101
Property: Mole fraction of 3,9-diphenoxy-2,4,8,10-tetraoxa-3,9-diphosphaspiro[5.5]undecane 3,9-dioxide (Liquid); method: gravimetric method
Temperature, K	Mole fraction of 3,9-diphenoxy-2,4,8,10-tetraoxa-3,9-diphosphaspiro[5.5]undecane 3,9-dioxide	uncertainty
293.26	0.00132	5e-05
298.45	0.00152	6e-05
303.26	0.00181	8e-05
308.67	0.00214	9e-05
313.24	0.00253	0.0001
318.36	0.00294	0.00012
323.35	0.00335	0.00014
328.23	0.00383	0.00016
333.36	0.00438	0.00018
338.25	0.00499	0.00021

System: water + 3,9-diphenoxy-2,4,8,10-tetraoxa-3,9-diphosphaspiro[5.5]undecane 3,9-dioxide; phases: Liquid, Crystal
Fixed: Pressure, kPa = 101
Property: Mole fraction of 3,9-diphenoxy-2,4,8,10-tetraoxa-3,9-diphosphaspiro[5.5]undecane 3,9-dioxide (Liquid); method: gravimetric method
Temperature, K	Mole fraction of 3,9-diphenoxy-2,4,8,10-tetraoxa-3,9-diphosphaspiro[5.5]undecane 3,9-dioxide	uncertainty
293.18	0.00014	1e-05
298.77	0.0002	1e-05
308.37	0.0003	2e-05
313.56	0.00037	2e-05
318.25	0.0005	3e-05
323.24	0.00064	4e-05
328.43	0.00086	5e-05
333.45	0.00116	7e-05
338.36	0.00148	9e-05
343.26	0.00188	0.00012
348.35	0.00241	0.00015
353.24	0.00295	0.00019
358.25	0.00371	0.00023
363.36	0.00477	0.0003
368.25	0.00591	0.00037

System: ethyl acetate + 3,9-diphenoxy-2,4,8,10-tetraoxa-3,9-diphosphaspiro[5.5]undecane 3,9-dioxide; phases: Liquid, Crystal
Fixed: Pressure, kPa = 101
Property: Mole fraction of 3,9-diphenoxy-2,4,8,10-tetraoxa-3,9-diphosphaspiro[5.5]undecane 3,9-dioxide (Liquid); method: gravimetric method
Temperature, K	Mole fraction of 3,9-diphenoxy-2,4,8,10-tetraoxa-3,9-diphosphaspiro[5.5]undecane 3,9-dioxide	uncertainty
293.25	0.00107	4e-05
298.46	0.00132	5e-05
303.27	0.00158	7e-05
308.66	0.00193	8e-05
313.27	0.0023	0.0001
318.35	0.00281	0.00012
323.35	0.00334	0.00014
328.26	0.00392	0.00016
333.37	0.00459	0.00019
338.26	0.00539	0.00022

System: benzene + 3,9-diphenoxy-2,4,8,10-tetraoxa-3,9-diphosphaspiro[5.5]undecane 3,9-dioxide; phases: Liquid, Crystal
Fixed: Pressure, kPa = 101
Property: Mole fraction of 3,9-diphenoxy-2,4,8,10-tetraoxa-3,9-diphosphaspiro[5.5]undecane 3,9-dioxide (Liquid); method: gravimetric method
Temperature, K	Mole fraction of 3,9-diphenoxy-2,4,8,10-tetraoxa-3,9-diphosphaspiro[5.5]undecane 3,9-dioxide	uncertainty
293.17	0.00119	5e-05
298.16	0.00121	5e-05
304.76	0.00124	5e-05
308.37	0.00127	5e-05
313.55	0.00129	5e-05
318.26	0.00133	6e-05
323.24	0.00136	6e-05
328.43	0.00138	6e-05
333.46	0.00141	6e-05
338.34	0.00143	6e-05
343.26	0.00145	6e-05
348.35	0.00147	6e-05

System: acetonitrile + 3,9-diphenoxy-2,4,8,10-tetraoxa-3,9-diphosphaspiro[5.5]undecane 3,9-dioxide; phases: Liquid, Crystal
Fixed: Pressure, kPa = 101
Property: Mole fraction of 3,9-diphenoxy-2,4,8,10-tetraoxa-3,9-diphosphaspiro[5.5]undecane 3,9-dioxide (Liquid); method: gravimetric method
Temperature, K	Mole fraction of 3,9-diphenoxy-2,4,8,10-tetraoxa-3,9-diphosphaspiro[5.5]undecane 3,9-dioxide	uncertainty
293.31	0.00156	7e-05
298.17	0.00187	9e-05
303.26	0.00223	0.0001
308.57	0.00273	0.00012
313.35	0.00318	0.00014
318.24	0.00375	0.00017
323.36	0.00438	0.0002
328.27	0.00522	0.00024
333.35	0.00614	0.00028
338.56	0.00738	0.00034
343.44	0.00841	0.00038

System: toluene + 3,9-diphenoxy-2,4,8,10-tetraoxa-3,9-diphosphaspiro[5.5]undecane 3,9-dioxide; phases: Liquid, Crystal
Fixed: Pressure, kPa = 101
Property: Mole fraction of 3,9-diphenoxy-2,4,8,10-tetraoxa-3,9-diphosphaspiro[5.5]undecane 3,9-dioxide (Liquid); method: gravimetric method
Temperature, K	Mole fraction of 3,9-diphenoxy-2,4,8,10-tetraoxa-3,9-diphosphaspiro[5.5]undecane 3,9-dioxide	uncertainty
298.17	0.00115	5e-05
303.25	0.00143	6e-05
308.56	0.00185	8e-05
313.34	0.00229	9e-05
318.26	0.00285	0.00012
323.37	0.00352	0.00015
328.25	0.00424	0.00018
333.34	0.00536	0.00022
338.56	0.00646	0.00027
343.45	0.00781	0.00032

System: methanol + 3,9-diphenoxy-2,4,8,10-tetraoxa-3,9-diphosphaspiro[5.5]undecane 3,9-dioxide; phases: Liquid, Crystal
Fixed: Pressure, kPa = 101
Property: Mole fraction of 3,9-diphenoxy-2,4,8,10-tetraoxa-3,9-diphosphaspiro[5.5]undecane 3,9-dioxide (Liquid); method: gravimetric method
Temperature, K	Mole fraction of 3,9-diphenoxy-2,4,8,10-tetraoxa-3,9-diphosphaspiro[5.5]undecane 3,9-dioxide	uncertainty
293.24	0.00271	0.00013
298.24	0.00298	0.00014
303.16	0.00329	0.00016
308.17	0.00365	0.00018
313.23	0.00401	0.00019
318.16	0.00443	0.00022
323.15	0.00483	0.00023

System: ethanol + 3,9-diphenoxy-2,4,8,10-tetraoxa-3,9-diphosphaspiro[5.5]undecane 3,9-dioxide; phases: Liquid, Crystal
Fixed: Pressure, kPa = 101
Property: Mole fraction of 3,9-diphenoxy-2,4,8,10-tetraoxa-3,9-diphosphaspiro[5.5]undecane 3,9-dioxide (Liquid); method: gravimetric method
Temperature, K	Mole fraction of 3,9-diphenoxy-2,4,8,10-tetraoxa-3,9-diphosphaspiro[5.5]undecane 3,9-dioxide	uncertainty
298.16	0.00136	6e-05
303.15	0.00157	7e-05
308.16	0.00187	8e-05
313.14	0.00218	0.0001
318.16	0.00246	0.00011
323.16	0.00288	0.00013
328.17	0.00329	0.00015
333.16	0.00383	0.00017
338.16	0.00426	0.00019
343.15	0.00485	0.00022

System: 2-ethoxyethan-1-ol + 3,9-diphenoxy-2,4,8,10-tetraoxa-3,9-diphosphaspiro[5.5]undecane 3,9-dioxide; phases: Liquid, Crystal
Fixed: Pressure, kPa = 101
Property: Mole fraction of 3,9-diphenoxy-2,4,8,10-tetraoxa-3,9-diphosphaspiro[5.5]undecane 3,9-dioxide (Liquid); method: gravimetric method
Temperature, K	Mole fraction of 3,9-diphenoxy-2,4,8,10-tetraoxa-3,9-diphosphaspiro[5.5]undecane 3,9-dioxide	uncertainty
293.24	0.00325	0.00013
298.24	0.00392	0.00016
303.16	0.00455	0.00019
308.17	0.00543	0.00022
313.23	0.00637	0.00026
318.16	0.00756	0.00031
323.18	0.00897	0.00037
328.15	0.01041	0.00043
333.16	0.01224	0.00051
338.17	0.01396	0.00058
343.16	0.01608	0.00066
348.17	0.01846	0.00076
353.16	0.02145	0.00089
358.16	0.02436	0.00101
363.17	0.02771	0.00114
368.16	0.03186	0.00132

System: acetone + (hydroxymethyl)(phenyl)phosphinic acid; phases: Liquid, Crystal
Fixed: Pressure, kPa = 101
Property: Mole fraction of (hydroxymethyl)(phenyl)phosphinic acid (Liquid); method: gravimetric method
Temperature, K	Mole fraction of (hydroxymethyl)(phenyl)phosphinic acid	uncertainty
288.15	0.00133	5e-05
293.16	0.00148	6e-05
298.17	0.00174	7e-05
303.18	0.00202	8e-05
308.14	0.00232	9e-05
313.16	0.00263	0.00011
318.17	0.00299	0.00012
323.16	0.00348	0.00014

System: water + (hydroxymethyl)(phenyl)phosphinic acid; phases: Liquid, Crystal
Fixed: Pressure, kPa = 101
Property: Mole fraction of (hydroxymethyl)(phenyl)phosphinic acid (Liquid); method: gravimetric method
Temperature, K	Mole fraction of (hydroxymethyl)(phenyl)phosphinic acid	uncertainty
317.46	0.0206	0.001
327.57	0.0424	0.002
338.15	0.0966	0.0045
342.45	0.1166	0.0054
346.58	0.1662	0.0079
352.8	0.2474	0.012
357.11	0.312	0.016

System: butanone + (hydroxymethyl)(phenyl)phosphinic acid; phases: Liquid, Crystal
Fixed: Pressure, kPa = 101
Property: Mole fraction of (hydroxymethyl)(phenyl)phosphinic acid (Liquid); method: gravimetric method
Temperature, K	Mole fraction of (hydroxymethyl)(phenyl)phosphinic acid	uncertainty
288.15	0.0013	0.0001
293.16	0.0015	0.0001
298.17	0.0017	0.0001
303.18	0.0019	0.0001
308.14	0.0022	0.0001
313.16	0.0024	0.0001
318.17	0.0027	0.0001
323.16	0.0029	0.0001
328.17	0.0033	0.0001
333.16	0.0037	0.0002

System: cyclohexane + (hydroxymethyl)(phenyl)phosphinic acid; phases: Liquid, Crystal
Fixed: Pressure, kPa = 101
Property: Mole fraction of (hydroxymethyl)(phenyl)phosphinic acid (Liquid); method: gravimetric method
Temperature, K	Mole fraction of (hydroxymethyl)(phenyl)phosphinic acid	uncertainty
288.15	0.001	0.0001
293.16	0.0011	0.0001
298.17	0.0012	0.0001
303.18	0.0013	0.0001
308.14	0.0014	0.0001
313.16	0.0015	0.0001
318.17	0.0016	0.0001
323.16	0.0017	0.0001
328.17	0.0018	0.0001
333.16	0.0019	0.0001

System: toluene + (hydroxymethyl)(phenyl)phosphinic acid; phases: Liquid, Crystal
Fixed: Pressure, kPa = 101
Property: Mole fraction of (hydroxymethyl)(phenyl)phosphinic acid (Liquid); method: gravimetric method
Temperature, K	Mole fraction of (hydroxymethyl)(phenyl)phosphinic acid	uncertainty
288.15	0.001	0.0001
293.16	0.0011	0.0001
298.17	0.0013	0.0001
303.18	0.0015	0.0001
308.14	0.0018	0.0001
313.16	0.002	0.0001
318.17	0.00226	9e-05
323.16	0.0026	0.0001
328.17	0.0029	0.0001
333.16	0.0033	0.0001

System: benzene + (hydroxymethyl)(phenyl)phosphinic acid; phases: Liquid, Crystal
Fixed: Pressure, kPa = 101
Property: Mole fraction of (hydroxymethyl)(phenyl)phosphinic acid (Liquid); method: gravimetric method
Temperature, K	Mole fraction of (hydroxymethyl)(phenyl)phosphinic acid	uncertainty
293.16	0.0009	0.0001
298.17	0.0011	0.0001
303.18	0.0013	0.0001
308.14	0.0016	0.0001
313.16	0.0019	0.0001
318.17	0.0022	0.0001
323.16	0.0027	0.0001
328.16	0.0032	0.0001
333.15	0.0037	0.0002

System: dichloromethane + (hydroxymethyl)(phenyl)phosphinic acid; phases: Liquid, Crystal
Fixed: Pressure, kPa = 101
Property: Mole fraction of (hydroxymethyl)(phenyl)phosphinic acid (Liquid); method: gravimetric method
Temperature, K	Mole fraction of (hydroxymethyl)(phenyl)phosphinic acid	uncertainty
293.16	0.00061	3e-05
296.17	0.00079	3e-05
301.13	0.00119	5e-05
303.14	0.00143	6e-05
305.15	0.00169	7e-05

System: diethyl ether + (hydroxymethyl)(phenyl)phosphinic acid; phases: Liquid, Crystal
Fixed: Pressure, kPa = 101
Property: Mole fraction of (hydroxymethyl)(phenyl)phosphinic acid (Liquid); method: gravimetric method
Temperature, K	Mole fraction of (hydroxymethyl)(phenyl)phosphinic acid	uncertainty
293.16	0.00113	5e-05
296.17	0.00138	6e-05
301.13	0.00188	8e-05
303.14	0.00212	9e-05
305.15	0.00238	0.0001

System: 2-ethoxyethan-1-ol + (hydroxymethyl)(phenyl)phosphinic acid; phases: Liquid, Crystal
Fixed: Pressure, kPa = 101
Property: Mole fraction of (hydroxymethyl)(phenyl)phosphinic acid (Liquid); method: gravimetric method
Temperature, K	Mole fraction of (hydroxymethyl)(phenyl)phosphinic acid	uncertainty
293.16	0.04614	0.00186
298.17	0.05117	0.00206
303.18	0.05708	0.0023
308.14	0.0638	0.00257
313.16	0.07086	0.00285
318.17	0.07773	0.00313
323.16	0.08489	0.00342
328.16	0.09373	0.00378
333.15	0.10152	0.00409

System: acetone + 3-(hydroxy(phenyl)phosphoryl)propanoic acid; phases: Liquid, Crystal
Fixed: Pressure, kPa = 101
Property: Mole fraction of 3-(hydroxy(phenyl)phosphoryl)propanoic acid (Liquid); method: gravimetric method
Temperature, K	Mole fraction of 3-(hydroxy(phenyl)phosphoryl)propanoic acid	uncertainty
293.16	0.00074	3e-05
298.17	0.00093	4e-05
303.18	0.00124	5e-05
308.14	0.00153	6e-05
313.16	0.00197	8e-05
318.17	0.00248	0.0001
323.16	0.00305	0.00012

System: butanone + 3-(hydroxy(phenyl)phosphoryl)propanoic acid; phases: Liquid, Crystal
Fixed: Pressure, kPa = 101
Property: Mole fraction of 3-(hydroxy(phenyl)phosphoryl)propanoic acid (Liquid); method: gravimetric method
Temperature, K	Mole fraction of 3-(hydroxy(phenyl)phosphoryl)propanoic acid	uncertainty
293.16	0.00061	3e-05
298.17	0.00077	3e-05
303.18	0.00103	4e-05
308.14	0.00127	5e-05
313.16	0.00163	7e-05
318.17	0.00206	8e-05
323.16	0.00253	0.0001
328.16	0.00316	0.00013
333.15	0.00395	0.00016

System: water + 3-(hydroxy(phenyl)phosphoryl)propanoic acid; phases: Liquid, Crystal
Fixed: Pressure, kPa = 101
Property: Mole fraction of 3-(hydroxy(phenyl)phosphoryl)propanoic acid (Liquid); method: gravimetric method
Temperature, K	Mole fraction of 3-(hydroxy(phenyl)phosphoryl)propanoic acid	uncertainty
308.66	0.00366	0.00018
318.07	0.00671	0.00032
327.17	0.01332	0.00064
337.55	0.02492	0.00119
342.75	0.03388	0.00163
345.06	0.04121	0.002
349.47	0.05682	0.00276

System: benzene + 3-(hydroxy(phenyl)phosphoryl)propanoic acid; phases: Liquid, Crystal
Fixed: Pressure, kPa = 101
Property: Mole fraction of 3-(hydroxy(phenyl)phosphoryl)propanoic acid (Liquid); method: gravimetric method
Temperature, K	Mole fraction of 3-(hydroxy(phenyl)phosphoryl)propanoic acid	uncertainty
293.16	0.00081	3e-05
298.17	0.00091	4e-05
303.18	0.00099	4e-05
308.14	0.00107	4e-05
313.16	0.00114	5e-05
318.17	0.00126	5e-05
323.16	0.00134	5e-05
328.16	0.00145	6e-05
333.15	0.00156	6e-05

System: toluene + 3-(hydroxy(phenyl)phosphoryl)propanoic acid; phases: Liquid, Crystal
Fixed: Pressure, kPa = 101
Property: Mole fraction of 3-(hydroxy(phenyl)phosphoryl)propanoic acid (Liquid); method: gravimetric method
Temperature, K	Mole fraction of 3-(hydroxy(phenyl)phosphoryl)propanoic acid	uncertainty
293.16	0.00051	2e-05
298.17	0.00059	2e-05
303.18	0.00068	3e-05
308.14	0.00079	3e-05
313.16	0.00092	4e-05
318.17	0.00105	4e-05
323.16	0.00119	5e-05
328.16	0.00138	6e-05
333.15	0.00154	6e-05

System: ethyl acetate + 3-(hydroxy(phenyl)phosphoryl)propanoic acid; phases: Liquid, Crystal
Fixed: Pressure, kPa = 101
Property: Mole fraction of 3-(hydroxy(phenyl)phosphoryl)propanoic acid (Liquid); method: gravimetric method
Temperature, K	Mole fraction of 3-(hydroxy(phenyl)phosphoryl)propanoic acid	uncertainty
293.16	0.00128	5e-05
298.17	0.00148	6e-05
303.18	0.00162	7e-05
308.14	0.00182	7e-05
313.16	0.00202	8e-05
318.17	0.00226	9e-05
323.16	0.00254	0.0001
328.16	0.00281	0.00011
333.15	0.00311	0.00013

System: cyclohexane + 3-(hydroxy(phenyl)phosphoryl)propanoic acid; phases: Liquid, Crystal
Fixed: Pressure, kPa = 101
Property: Mole fraction of 3-(hydroxy(phenyl)phosphoryl)propanoic acid (Liquid); method: gravimetric method
Temperature, K	Mole fraction of 3-(hydroxy(phenyl)phosphoryl)propanoic acid	uncertainty
293.16	0.00088	4e-05
298.17	0.00108	4e-05
303.18	0.00128	5e-05
308.14	0.00157	6e-05
313.16	0.00186	8e-05
318.17	0.00222	9e-05
323.16	0.00263	0.00011
328.16	0.00314	0.00013
333.15	0.00371	0.00015

System: 2-ethoxyethan-1-ol + 3-(hydroxy(phenyl)phosphoryl)propanoic acid; phases: Liquid, Crystal
Fixed: Pressure, kPa = 101
Property: Mole fraction of 3-(hydroxy(phenyl)phosphoryl)propanoic acid (Liquid); method: gravimetric method
Temperature, K	Mole fraction of 3-(hydroxy(phenyl)phosphoryl)propanoic acid	uncertainty
293.16	0.0461	0.0019
298.17	0.0512	0.0021
303.18	0.0571	0.0023
308.14	0.0638	0.0026
313.16	0.0709	0.0029
318.17	0.0777	0.0031
323.16	0.0849	0.0034
328.16	0.0937	0.0038
333.15	0.1015	0.0041

System: acetic acid + 3-(hydroxy(phenyl)phosphoryl)propanoic acid; phases: Liquid, Crystal
Fixed: Pressure, kPa = 101
Property: Mole fraction of 3-(hydroxy(phenyl)phosphoryl)propanoic acid (Liquid); method: gravimetric method
Temperature, K	Mole fraction of 3-(hydroxy(phenyl)phosphoryl)propanoic acid	uncertainty
293.16	0.01047	0.00043
298.17	0.0116	0.00047
303.18	0.01304	0.00053
308.14	0.01468	0.0006
313.16	0.01641	0.00067
318.17	0.01825	0.00074
323.16	0.02047	0.00084
328.16	0.02247	0.00092
333.15	0.02487	0.00101

System: acetonitrile + 3-(hydroxy(phenyl)phosphoryl)propanoic acid; phases: Liquid, Crystal
Fixed: Pressure, kPa = 101
Property: Mole fraction of 3-(hydroxy(phenyl)phosphoryl)propanoic acid (Liquid); method: gravimetric method
Temperature, K	Mole fraction of 3-(hydroxy(phenyl)phosphoryl)propanoic acid	uncertainty
293.16	6e-05	1e-05
298.17	0.0001	1e-05
303.18	0.00015	1e-05
308.14	0.00023	1e-05
313.16	0.00035	2e-05
318.17	0.00053	2e-05
323.16	0.00078	3e-05
328.16	0.00109	5e-05
333.15	0.00161	7e-05

System: dichloromethane + 3-(hydroxy(phenyl)phosphoryl)propanoic acid; phases: Liquid, Crystal
Fixed: Pressure, kPa = 101
Property: Mole fraction of 3-(hydroxy(phenyl)phosphoryl)propanoic acid (Liquid); method: gravimetric method
Temperature, K	Mole fraction of 3-(hydroxy(phenyl)phosphoryl)propanoic acid	uncertainty
288.15	0.00029	1e-05
293.16	0.00042	2e-05
298.17	0.00059	2e-05
303.18	0.0008	3e-05
308.14	0.00111	5e-05
313.16	0.00149	6e-05

System: trichloromethane + 3-(hydroxy(phenyl)phosphoryl)propanoic acid; phases: Liquid, Crystal
Fixed: Pressure, kPa = 101
Property: Mole fraction of 3-(hydroxy(phenyl)phosphoryl)propanoic acid (Liquid); method: gravimetric method
Temperature, K	Mole fraction of 3-(hydroxy(phenyl)phosphoryl)propanoic acid	uncertainty
288.15	0.00021	1e-05
293.16	0.00026	1e-05
298.17	0.00033	1e-05
303.18	0.00041	2e-05
308.14	0.00052	2e-05
313.16	0.00063	3e-05
318.17	0.00079	3e-05
323.16	0.00093	4e-05
328.16	0.00112	5e-05
333.15	0.00133	5e-05

System: butanone + tris(4-methoxyphenyl)phosphine oxide; phases: Liquid, Crystal
Fixed: Pressure, kPa = 101
Property: Mole fraction of tris(4-methoxyphenyl)phosphine oxide (Liquid); method: gravimetric method
Temperature, K	Mole fraction of tris(4-methoxyphenyl)phosphine oxide	uncertainty
293.16	0.00621	0.00026
298.17	0.00684	0.00028
303.18	0.00749	0.00031
308.14	0.00815	0.00034
313.16	0.00884	0.00037
318.17	0.00962	0.0004
323.16	0.01033	0.00043
328.17	0.01126	0.00047
333.16	0.01208	0.0005

System: 2-ethoxyethan-1-ol + tris(4-methoxyphenyl)phosphine oxide; phases: Liquid, Crystal
Fixed: Pressure, kPa = 101
Property: Mole fraction of tris(4-methoxyphenyl)phosphine oxide (Liquid); method: gravimetric method
Temperature, K	Mole fraction of tris(4-methoxyphenyl)phosphine oxide	uncertainty
293.16	0.00522	0.00022
298.17	0.00693	0.00029
303.18	0.00862	0.00036
308.14	0.01082	0.00045
313.16	0.01357	0.00056
318.17	0.01679	0.00069
323.16	0.02094	0.00086
328.17	0.02547	0.00105
333.16	0.0311	0.0013
338.17	0.0377	0.0016
343.15	0.04537	0.00187

System: methanol + tris(4-methoxyphenyl)phosphine oxide; phases: Liquid, Crystal
Fixed: Pressure, kPa = 101
Property: Mole fraction of tris(4-methoxyphenyl)phosphine oxide (Liquid); method: gravimetric method
Temperature, K	Mole fraction of tris(4-methoxyphenyl)phosphine oxide	uncertainty
293.16	0.00022	1e-05
298.17	0.00029	1e-05
303.18	0.0004	2e-05
308.14	0.00051	2e-05
313.16	0.00066	3e-05
318.17	0.00083	4e-05
323.16	0.00107	5e-05

System: ethanol + tris(4-methoxyphenyl)phosphine oxide; phases: Liquid, Crystal
Fixed: Pressure, kPa = 101
Property: Mole fraction of tris(4-methoxyphenyl)phosphine oxide (Liquid); method: gravimetric method
Temperature, K	Mole fraction of tris(4-methoxyphenyl)phosphine oxide	uncertainty
293.16	0.00084	4e-05
298.17	0.00102	4e-05
303.18	0.00121	5e-05
308.14	0.00142	6e-05
313.16	0.00173	8e-05
318.17	0.00202	9e-05
323.16	0.00241	0.00011

System: diethyl ether + tris(4-methoxyphenyl)phosphine oxide; phases: Liquid, Crystal
Fixed: Pressure, kPa = 101
Property: Mole fraction of tris(4-methoxyphenyl)phosphine oxide (Liquid); method: gravimetric method
Temperature, K	Mole fraction of tris(4-methoxyphenyl)phosphine oxide	uncertainty
293.16	0.00587	0.00025
296.17	0.00721	0.0003
299.18	0.00889	0.00037
301.16	0.01008	0.00042
303.15	0.01142	0.00048

System: benzene + tris(4-methoxyphenyl)phosphine oxide; phases: Liquid, Crystal
Fixed: Pressure, kPa = 101
Property: Mole fraction of tris(4-methoxyphenyl)phosphine oxide (Liquid); method: gravimetric method
Temperature, K	Mole fraction of tris(4-methoxyphenyl)phosphine oxide	uncertainty
293.16	0.00029	1e-05
298.17	0.00037	2e-05
303.18	0.00045	2e-05
308.14	0.00054	2e-05
313.16	0.00068	3e-05
318.17	0.00082	3e-05
323.16	0.00099	4e-05

System: toluene + tris(4-methoxyphenyl)phosphine oxide; phases: Liquid, Crystal
Fixed: Pressure, kPa = 101
Property: Mole fraction of tris(4-methoxyphenyl)phosphine oxide (Liquid); method: gravimetric method
Temperature, K	Mole fraction of tris(4-methoxyphenyl)phosphine oxide	uncertainty
293.16	0.00035	2e-05
298.17	0.00042	2e-05
303.18	0.00051	2e-05
308.14	0.00061	3e-05
313.16	0.00075	3e-05
318.17	0.00089	4e-05
323.16	0.00105	4e-05
328.17	0.00123	5e-05
333.15	0.00145	6e-05

System: cyclohexane + tris(4-methoxyphenyl)phosphine oxide; phases: Liquid, Crystal
Fixed: Pressure, kPa = 101
Property: Mole fraction of tris(4-methoxyphenyl)phosphine oxide (Liquid); method: gravimetric method
Temperature, K	Mole fraction of tris(4-methoxyphenyl)phosphine oxide	uncertainty
304.05	0.00082	3e-05
308.85	0.00107	4e-05
313.95	0.00151	6e-05
318.45	0.00231	0.0001
323.65	0.00326	0.00014
328.45	0.00436	0.00018
332.85	0.00596	0.00025
337.65	0.00848	0.00035

System: toluene + tris(4-methoxyphenyl)phosphane; phases: Liquid, Crystal
Fixed: Pressure, kPa = 101
Property: Mole fraction of tris(4-methoxyphenyl)phosphane (Liquid); method: gravimetric method
Temperature, K	Mole fraction of tris(4-methoxyphenyl)phosphane	uncertainty
293.16	0.00036	2e-05
298.17	0.00045	2e-05
303.18	0.00055	2e-05
308.14	0.00066	3e-05
313.16	0.00083	3e-05
318.17	0.00099	4e-05
323.16	0.00121	5e-05
328.17	0.00143	6e-05
333.15	0.00169	7e-05

System: butanone + tris(4-methoxyphenyl)phosphane; phases: Liquid, Crystal
Fixed: Pressure, kPa = 101
Property: Mole fraction of tris(4-methoxyphenyl)phosphane (Liquid); method: gravimetric method
Temperature, K	Mole fraction of tris(4-methoxyphenyl)phosphane	uncertainty
288.15	0.00567	0.00023
293.16	0.00642	0.00027
298.17	0.00725	0.0003
303.18	0.00814	0.00034
308.14	0.00907	0.00038
313.16	0.01016	0.00042
318.17	0.01125	0.00047
323.16	0.01251	0.00052
328.17	0.01391	0.00058
333.16	0.01531	0.00063

System: benzene + tris(4-methoxyphenyl)phosphane; phases: Liquid, Crystal
Fixed: Pressure, kPa = 101
Property: Mole fraction of tris(4-methoxyphenyl)phosphane (Liquid); method: gravimetric method
Temperature, K	Mole fraction of tris(4-methoxyphenyl)phosphane	uncertainty
293.16	0.00031	1e-05
298.17	0.00039	2e-05
303.18	0.00048	2e-05
308.14	0.00061	3e-05
313.16	0.00076	3e-05
318.17	0.00094	4e-05
323.16	0.00112	5e-05

System: diethyl ether + tris(4-methoxyphenyl)phosphane; phases: Liquid, Crystal
Fixed: Pressure, kPa = 101
Property: Mole fraction of tris(4-methoxyphenyl)phosphane (Liquid); method: gravimetric method
Temperature, K	Mole fraction of tris(4-methoxyphenyl)phosphane	uncertainty
293.16	0.00607	0.00025
296.17	0.00739	0.00031
299.18	0.00929	0.00039
301.16	0.01057	0.00044
303.15	0.01181	0.00049

System: ethanol + tris(4-methoxyphenyl)phosphane; phases: Liquid, Crystal
Fixed: Pressure, kPa = 101
Property: Mole fraction of tris(4-methoxyphenyl)phosphane (Liquid); method: gravimetric method
Temperature, K	Mole fraction of tris(4-methoxyphenyl)phosphane	uncertainty
303.75	0.00049	2e-05
308.05	0.00067	3e-05
313.35	0.00102	4e-05
317.75	0.00128	6e-05
322.35	0.00168	7e-05
328.15	0.00236	0.0001

System: methanol + tris(4-methoxyphenyl)phosphane; phases: Liquid, Crystal
Fixed: Pressure, kPa = 101
Property: Mole fraction of tris(4-methoxyphenyl)phosphane (Liquid); method: gravimetric method
Temperature, K	Mole fraction of tris(4-methoxyphenyl)phosphane	uncertainty
298.25	0.00024	1e-05
303.15	0.00031	2e-05
308.05	0.00042	2e-05
313.15	0.00056	3e-05
318.15	0.00071	3e-05
322.65	0.00098	5e-05

System: 2-ethoxyethan-1-ol + tris(4-methoxyphenyl)phosphane; phases: Liquid, Crystal
Fixed: Pressure, kPa = 101
Property: Mole fraction of tris(4-methoxyphenyl)phosphane (Liquid); method: gravimetric method
Temperature, K	Mole fraction of tris(4-methoxyphenyl)phosphane	uncertainty
293.16	0.00573	0.00024
298.17	0.00716	0.00029
303.18	0.00919	0.00038
308.14	0.01142	0.00047
313.16	0.01431	0.00059
318.17	0.01754	0.00072
323.16	0.02226	0.00092
328.17	0.02759	0.00113
333.17	0.03301	0.00136
338.25	0.04013	0.00165
343.17	0.04816	0.00198

System: cyclohexane + tris(4-methoxyphenyl)phosphane; phases: Liquid, Crystal
Fixed: Pressure, kPa = 101
Property: Mole fraction of tris(4-methoxyphenyl)phosphane (Liquid); method: gravimetric method
Temperature, K	Mole fraction of tris(4-methoxyphenyl)phosphane	uncertainty
298.15	0.00053	2e-05
304.05	0.00082	3e-05
308.32	0.00113	5e-05
313.95	0.00166	7e-05
318.45	0.00229	0.0001
323.65	0.00322	0.00013
328.45	0.00455	0.00019
332.85	0.00589	0.00024
337.65	0.00806	0.00033
