Measured thermophysical data. Vapor-Liquid Equilibrium Data for Binary Systems Consisting of Either Hexafluoropropene (HFP) or 2,2,3-Trifluoro-3-(trifluoromethyl)oxirane (HFPO) with Carbon Dioxide (R-744) or 2,2-Dichloro-1,1,1-trifluoroethane (R-123)
Source: J. Chem. Eng. Data, 2011, 10.1021/je100841y
Compound 1: hexafluoropropene, C3F6, InChI=1S/C3F6/c4-1(2(5)6)3(7,8)9
Compound 2: 2,2,3-trifluoro-3-(trifluoromethyl)oxirane, C3F6O, InChI=1S/C3F6O/c4-1(2(5,6)7)3(8,9)10-1
Compound 3: carbon dioxide, CO2, InChI=1S/CO2/c2-1-3
Compound 4: 1,1-dichloro-2,2,2-trifluoroethane, C2HCl2F3, InChI=1S/C2HCl2F3/c3-1(4)2(5,6)7/h1H

System: hexafluoropropene + carbon dioxide; phases: Liquid, Gas
Property: Vapor or sublimation pressure, kPa (Liquid); method: Closed cell (Static) method
Mole fraction of carbon dioxide	Temperature, K	Vapor or sublimation pressure, kPa	uncertainty
0.032	273.15	406	54
0.076	273.15	524	54
0.082	313.15	1530	110
0.188	313.15	2111	115
0.259	273.15	1072	59
0.287	313.15	2707	120
0.347	313.15	3063	122
0.403	273.15	1482	59
0.439	313.15	3630	134
0.572	313.15	4557	152
0.575	273.15	1992	63
0.684	273.15	2357	67
0.703	313.15	5620	163
0.76	273.15	2604	66

System: hexafluoropropene + carbon dioxide; phases: Gas, Liquid
Property: Mole fraction of carbon dioxide (Gas); method: Chromatography
Mole fraction of carbon dioxide	Temperature, K	Mole fraction of carbon dioxide	uncertainty
0.032	273.15	0.199	0.085
0.076	273.15	0.38	0.085
0.082	313.15	0.248	0.032
0.188	313.15	0.379	0.033
0.259	273.15	0.715	0.033
0.287	313.15	0.518	0.034
0.347	313.15	0.599	0.028
0.403	273.15	0.809	0.022
0.439	313.15	0.671	0.025
0.572	313.15	0.758	0.023
0.575	273.15	0.875	0.021
0.684	273.15	0.908	0.021
0.703	313.15	0.814	0.022
0.76	273.15	0.934	0.021

System: carbon dioxide + 2,2,3-trifluoro-3-(trifluoromethyl)oxirane; phases: Liquid, Gas
Property: Vapor or sublimation pressure, kPa (Liquid); method: Closed cell (Static) method
Mole fraction of carbon dioxide	Temperature, K	Vapor or sublimation pressure, kPa	uncertainty
0.063	313.15	1418	117
0.177	313.15	2081	122
0.257	273.15	1050	64
0.319	313.15	2974	130
0.411	313.15	3602	141
0.426	273.15	1590	63
0.56	313.15	4667	144
0.58	273.15	2060	63
0.674	273.15	2360	64
0.752	273.15	2610	65

System: carbon dioxide + 2,2,3-trifluoro-3-(trifluoromethyl)oxirane; phases: Gas, Liquid
Property: Mole fraction of carbon dioxide (Gas); method: Chromatography
Mole fraction of carbon dioxide	Temperature, K	Mole fraction of carbon dioxide	uncertainty
0.063	313.15	0.191	0.05
0.177	313.15	0.449	0.038
0.257	273.15	0.727	0.023
0.319	313.15	0.605	0.028
0.411	313.15	0.676	0.022
0.426	273.15	0.827	0.022
0.56	313.15	0.722	0.021
0.58	273.15	0.889	0.021
0.674	273.15	0.913	0.022
0.752	273.15	0.936	0.022

System: hexafluoropropene + 1,1-dichloro-2,2,2-trifluoroethane; phases: Liquid, Gas
Property: Vapor or sublimation pressure, kPa (Liquid); method: Closed cell (Static) method
Mole fraction of hexafluoropropene	Temperature, K	Vapor or sublimation pressure, kPa	uncertainty
0.105	333.15	493	35
0.2	333.15	658	33
0.214	313.15	433	20
0.367	333.15	913	31
0.393	313.15	602	19
0.484	313.15	675	18
0.555	333.15	1191	28
0.624	313.15	793	18
0.72	333.15	1394	27
0.762	313.15	905	18
0.82	333.15	1530	28

System: hexafluoropropene + 1,1-dichloro-2,2,2-trifluoroethane; phases: Gas, Liquid
Property: Mole fraction of hexafluoropropene (Gas); method: Chromatography
Mole fraction of hexafluoropropene	Temperature, K	Mole fraction of hexafluoropropene	uncertainty
0.105	333.15	0.448	0.037
0.2	333.15	0.596	0.03
0.214	313.15	0.662	0.025
0.367	333.15	0.747	0.024
0.393	313.15	0.788	0.024
0.484	313.15	0.827	0.022
0.555	333.15	0.843	0.022
0.624	313.15	0.878	0.021
0.72	333.15	0.89	0.021
0.762	313.15	0.923	0.021
0.82	333.15	0.932	0.022

System: 1,1-dichloro-2,2,2-trifluoroethane + 2,2,3-trifluoro-3-(trifluoromethyl)oxirane; phases: Liquid, Gas
Property: Vapor or sublimation pressure, kPa (Liquid); method: Closed cell (Static) method
Mole fraction of 2,2,3-trifluoro-3-(trifluoromethyl)oxirane	Temperature, K	Vapor or sublimation pressure, kPa	uncertainty
0.057	333.15	455	46
0.136	333.15	634	38
0.275	313.15	557	17
0.307	333.15	930	33
0.36	313.15	623	16
0.419	333.15	1086	26
0.485	313.15	711	15
0.571	333.15	1255	24
0.601	313.15	787	14
0.798	313.15	903	14

System: 1,1-dichloro-2,2,2-trifluoroethane + 2,2,3-trifluoro-3-(trifluoromethyl)oxirane; phases: Gas, Liquid
Property: Mole fraction of 2,2,3-trifluoro-3-(trifluoromethyl)oxirane (Gas); method: Chromatography
Mole fraction of 2,2,3-trifluoro-3-(trifluoromethyl)oxirane	Temperature, K	Mole fraction of 2,2,3-trifluoro-3-(trifluoromethyl)oxirane	uncertainty
0.057	333.15	0.345	0.052
0.136	333.15	0.533	0.033
0.275	313.15	0.709	0.023
0.307	333.15	0.69	0.026
0.36	313.15	0.757	0.022
0.419	333.15	0.764	0.022
0.485	313.15	0.808	0.022
0.571	333.15	0.82	0.021
0.601	313.15	0.85	0.021
0.798	313.15	0.912	0.021
