Measured thermophysical data. Enthalpies of Dilution of 1,3-Propanediol and Isomers of 2,3-Butanediol in Dimethylsulfoxide + Water Mixtures at 298.15 K
Source: J. Chem. Eng. Data, 2011, 10.1021/je101353r
Compound 1: propan-1,3-diol, C3H8O2, InChI=1S/C3H8O2/c4-2-1-3-5/h4-5H,1-3H2
Compound 2: (2R,3R)-2,3-butanediol, C4H10O2, InChI=1S/C4H10O2/c1-3(5)4(2)6/h3-6H,1-2H3/t3-,4-/m1/s1
Compound 3: S,S-2,3-butanediol, C4H10O2, InChI=1S/C4H10O2/c1-3(5)4(2)6/h3-6H,1-2H3/t3-,4-/m0/s1
Compound 4: (R*,S*)-2,3-butanediol, C4H10O2, InChI=1S/C4H10O2/c1-3(5)4(2)6/h3-6H,1-2H3/t3-,4+
Compound 5: water, H2O, InChI=1S/H2O/h1H2, purity 99.99%
Compound 6: dimethyl sulfoxide, C2H6OS, InChI=1S/C2H6OS/c1-4(2)3/h1-2H3

System: propan-1,3-diol + water; phases: Liquid
Fixed: Temperature, K = 298.15
Fixed: Pressure, kPa = 101.3
Property: Molar enthalpy of dilution, kJ/mol (Liquid); method: Isothermal Titration Calorimeter
Initial molality of solute, mol/kg	Final molality of solute, mol/kg	Molar enthalpy of dilution, kJ/mol	uncertainty
0.00121	0.0052	-0.20079	0.00233
0.0052	0.00915	-0.19775	0.00231
0.00915	0.01306	-0.19361	0.00227
0.01306	0.01694	-0.19094	0.00225
0.01694	0.02077	-0.18593	0.00222
0.02077	0.02456	-0.18368	0.0022
0.02456	0.02832	-0.17865	0.00216
0.02832	0.03203	-0.1749	0.00213
0.03203	0.0357	-0.17198	0.00211
0.0357	0.03933	-0.169	0.00208
0.03933	0.04293	-0.16486	0.00205
0.04293	0.04648	-0.1617	0.002
0.04648	0.04999	-0.15846	0.00209
0.04999	0.05346	-0.15401	0.002
0.05346	0.05689	-0.15208	0.00195
0.05689	0.06028	-0.14882	0.00193
0.06028	0.06364	-0.14618	0.00191
0.06695	0.07022	-0.14057	0.00241

System: water + (2R,3R)-2,3-butanediol; phases: Liquid
Fixed: Temperature, K = 298.15
Fixed: Pressure, kPa = 101.3
Property: Molar enthalpy of dilution, kJ/mol (Liquid); method: Isothermal Titration Calorimeter
Initial molality of solute, mol/kg	Final molality of solute, mol/kg	Molar enthalpy of dilution, kJ/mol	uncertainty
0.00146	0.00508	-0.29437	0.00306
0.00508	0.00867	-0.28846	0.00301
0.00867	0.01222	-0.28311	0.00297
0.01222	0.01574	-0.27872	0.00293
0.01574	0.01922	-0.2696	0.0029
0.01922	0.02266	-0.26665	0.00284
0.02266	0.02607	-0.26236	0.00312
0.02607	0.02944	-0.25653	0.00276
0.02944	0.03277	-0.25041	0.00271
0.03277	0.03607	-0.24744	0.00269
0.03607	0.03933	-0.24134	0.00264
0.03933	0.04255	-0.23737	0.00261
0.04255	0.04574	-0.23365	0.00258
0.04574	0.04889	-0.22797	0.00254
0.04889	0.052	-0.22499	0.00252
0.052	0.05508	-0.2202	0.00248
0.05508	0.05812	-0.21675	0.00245
0.05812	0.06113	-0.21285	0.00242
0.06113	0.0641	-0.20984	0.0024

System: water + S,S-2,3-butanediol; phases: Liquid
Fixed: Temperature, K = 298.15
Fixed: Pressure, kPa = 101.3
Property: Molar enthalpy of dilution, kJ/mol (Liquid); method: Isothermal Titration Calorimeter
Initial molality of solute, mol/kg	Final molality of solute, mol/kg	Molar enthalpy of dilution, kJ/mol	uncertainty
0.00096	0.00413	-0.25729	0.00277
0.00413	0.00727	-0.25238	0.00312
0.00727	0.01038	-0.24601	0.00293
0.01038	0.01346	-0.24258	0.00268
0.01346	0.01651	-0.2348	0.00315
0.01651	0.01952	-0.23145	0.0032
0.01952	0.0225	-0.22606	0.00319
0.0225	0.02546	-0.22247	0.00309
0.02546	0.02837	-0.21846	0.00396
0.02837	0.03126	-0.21408	0.00351
0.03126	0.03412	-0.20887	0.00304
0.03412	0.03694	-0.20552	0.00337
0.03694	0.03973	-0.20223	0.0031
0.03973	0.04249	-0.19802	0.00407
0.04249	0.04522	-0.19493	0.00395
0.04522	0.04791	-0.19072	0.00338
0.04791	0.05058	-0.18627	0.00222
0.05058	0.05321	-0.18288	0.00314
0.05321	0.05581	-0.17959	0.00313

System: (R*,S*)-2,3-butanediol + water; phases: Liquid
Fixed: Temperature, K = 298.15
Fixed: Pressure, kPa = 101.3
Property: Molar enthalpy of dilution, kJ/mol (Liquid); method: Isothermal Titration Calorimeter
Initial molality of solute, mol/kg	Final molality of solute, mol/kg	Molar enthalpy of dilution, kJ/mol	uncertainty
0.00107	0.00462	-0.2551	0.00354
0.00462	0.00813	-0.25135	0.00283
0.00813	0.01161	-0.24545	0.00268
0.01161	0.01505	-0.24234	0.00273
0.01505	0.01845	-0.23422	0.00259
0.01845	0.02182	-0.2306	0.0026
0.02182	0.02515	-0.22633	0.00253
0.02515	0.02845	-0.22214	0.0025
0.02845	0.03171	-0.21794	0.00246
0.03171	0.03494	-0.21544	0.00271
0.03494	0.03813	-0.21093	0.00304
0.03813	0.04129	-0.20682	0.00252
0.04129	0.04441	-0.20436	0.00271
0.04441	0.04749	-0.19899	0.0026
0.04749	0.05054	-0.19604	0.00254
0.05054	0.05355	-0.19192	0.0027
0.05355	0.05653	-0.18862	0.00272
0.05947	0.06238	-0.18113	0.00234

System: dimethyl sulfoxide + water + S,S-2,3-butanediol; phases: Liquid
Fixed: Temperature, K = 298.15
Fixed: Pressure, kPa = 101.3
Property: Molar enthalpy of dilution, kJ/mol (Liquid); method: Isothermal Titration Calorimeter
Solvent: Mass fraction of dimethyl sulfoxide	Initial molality of solute, mol/kg	Final molality of solute, mol/kg	Molar enthalpy of dilution, kJ/mol	uncertainty
0.0502	0.00091	0.00393	-0.28008	0.00663
0.0502	0.00393	0.00692	-0.27547	0.00658
0.0502	0.00692	0.00988	-0.266	0.00516
0.0502	0.00988	0.01281	-0.26525	0.00572
0.0502	0.01281	0.01571	-0.25565	0.00608
0.0502	0.01571	0.01858	-0.251	0.00611
0.0502	0.01858	0.02142	-0.24695	0.00543
0.0502	0.02142	0.02423	-0.24208	0.00561
0.0502	0.02423	0.02701	-0.23613	0.00488
0.0502	0.02701	0.02975	-0.23421	0.00519
0.0502	0.02975	0.03247	-0.22878	0.00526
0.0502	0.03247	0.03516	-0.22423	0.00613
0.0502	0.03516	0.03782	-0.2208	0.00513
0.0502	0.03782	0.04044	-0.21443	0.0054
0.0502	0.04044	0.04304	-0.21261	0.00547
0.0502	0.04304	0.0456	-0.20768	0.00538
0.0502	0.0456	0.04814	-0.20452	0.00497
0.0502	0.04814	0.05064	-0.19905	0.00458
0.0502	0.05064	0.05312	-0.19479	0.00338
0.1583	0.0009	0.00387	-0.32561	0.0033
0.1583	0.00387	0.00681	-0.32279	0.00328
0.1583	0.00681	0.00973	-0.31573	0.00322
0.1583	0.00973	0.01261	-0.31036	0.00318
0.1583	0.01261	0.01546	-0.30099	0.00311
0.1583	0.01546	0.01829	-0.29557	0.00306
0.1583	0.01829	0.02108	-0.28981	0.00302
0.1583	0.02108	0.02384	-0.28418	0.00298
0.1583	0.02384	0.02658	-0.27831	0.00293
0.1583	0.02658	0.02928	-0.27399	0.0029
0.1583	0.02928	0.03196	-0.26763	0.00285
0.1583	0.03196	0.0346	-0.26251	0.00281
0.1583	0.0346	0.03722	-0.25797	0.00277
0.1583	0.03722	0.0398	-0.25212	0.00273
0.1583	0.0398	0.04236	-0.24843	0.0027
0.1583	0.04236	0.04488	-0.24289	0.00266
0.1583	0.04488	0.04738	-0.23877	0.00262
0.1583	0.04738	0.04984	-0.23272	0.00258
0.1583	0.04984	0.05228	-0.22833	0.00254
0.2047	0.00103	0.00443	-0.39126	0.00656
0.2047	0.00443	0.0078	-0.38592	0.00436
0.2047	0.0078	0.01114	-0.37862	0.00371
0.2047	0.01114	0.01444	-0.37433	0.00409
0.2047	0.01444	0.01771	-0.36467	0.0036
0.2047	0.01771	0.02094	-0.36125	0.00357
0.2047	0.02094	0.02414	-0.35358	0.00351
0.2047	0.02414	0.02731	-0.34871	0.00356
0.2047	0.02731	0.03044	-0.3383	0.00424
0.2047	0.03044	0.03354	-0.33252	0.00832
0.2047	0.03354	0.0366	-0.32505	0.00418
0.2047	0.0366	0.03963	-0.31925	0.00447
0.2047	0.03963	0.04263	-0.31385	0.0047
0.2047	0.04263	0.04559	-0.30492	0.00476
0.2047	0.04559	0.04851	-0.30098	0.00426
0.2047	0.04851	0.0514	-0.29423	0.00447
0.2047	0.0514	0.05426	-0.28851	0.00519
0.2047	0.05426	0.05709	-0.28237	0.00572
0.2047	0.05709	0.05988	-0.27749	0.00298
0.2494	0.00085	0.00366	-0.33674	0.00355
0.2494	0.00366	0.00645	-0.32787	0.00331
0.2494	0.00645	0.0092	-0.31513	0.00353
0.2494	0.0092	0.01193	-0.31713	0.0035
0.2494	0.01193	0.01463	-0.30445	0.00313
0.2494	0.01463	0.01731	-0.30023	0.0031
0.2494	0.01731	0.01995	-0.29418	0.00305
0.2494	0.01995	0.02256	-0.28906	0.00301
0.2494	0.02256	0.02515	-0.28299	0.00297
0.2494	0.02515	0.02771	-0.27802	0.00293
0.2494	0.02771	0.03024	-0.27051	0.00287
0.2494	0.03024	0.03274	-0.26614	0.00284
0.2494	0.03274	0.03522	-0.2621	0.00281
0.2494	0.03522	0.03766	-0.25473	0.00275
0.2494	0.03766	0.04008	-0.25144	0.00272
0.2494	0.04008	0.04247	-0.24577	0.00268
0.2494	0.04247	0.04483	-0.24201	0.00269
0.2494	0.04483	0.04717	-0.23572	0.00276
0.2494	0.04717	0.04947	-0.23175	0.00282
0.2977	0.00092	0.00398	-0.41784	0.00473
0.2977	0.00398	0.007	-0.41224	0.00398
0.2977	0.007	0.00999	-0.4016	0.00397
0.2977	0.00999	0.01295	-0.3963	0.00384
0.2977	0.01295	0.01589	-0.38378	0.00375
0.2977	0.01589	0.01879	-0.37717	0.0037
0.2977	0.01879	0.02166	-0.3685	0.0037
0.2977	0.02166	0.0245	-0.36219	0.00358
0.2977	0.0245	0.02731	-0.35452	0.00352
0.2977	0.02731	0.03008	-0.34832	0.00347
0.2977	0.03008	0.03283	-0.34077	0.00341
0.2977	0.03283	0.03555	-0.33445	0.00337
0.2977	0.03555	0.03823	-0.32609	0.00331
0.2977	0.03823	0.04089	-0.32143	0.00327
0.2977	0.04089	0.04351	-0.31671	0.00323
0.2977	0.04351	0.04611	-0.30941	0.00317
0.2977	0.04611	0.04867	-0.30411	0.00313
0.2977	0.04867	0.05121	-0.29746	0.00308
0.2977	0.05121	0.05371	-0.29173	0.00304
0.9998	0.00106	0.00458	-0.3492	0.00348
0.9998	0.00458	0.00807	-0.34438	0.00355
0.9998	0.00807	0.01152	-0.33558	0.00368
0.9998	0.01152	0.01493	-0.33112	0.00353
0.9998	0.01493	0.01831	-0.32013	0.00394
0.9998	0.01831	0.02165	-0.31542	0.00404
0.9998	0.02165	0.02496	-0.30771	0.00362
0.9998	0.02496	0.02823	-0.30252	0.00354
0.9998	0.02823	0.03147	-0.29578	0.00349
0.9998	0.03147	0.03467	-0.2911	0.00333
0.9998	0.03467	0.03783	-0.28492	0.0034
0.9998	0.03783	0.04097	-0.27972	0.00347
0.9998	0.04097	0.04406	-0.27536	0.00342
0.9998	0.04406	0.04712	-0.26802	0.00326
0.9998	0.04712	0.05015	-0.26389	0.00347
0.9998	0.05015	0.05313	-0.25843	0.00359
0.9998	0.05313	0.05609	-0.25358	0.00364
0.9998	0.05609	0.05901	-0.24764	0.0037
0.9998	0.05901	0.06189	-0.24394	0.00356

System: dimethyl sulfoxide + (R*,S*)-2,3-butanediol + water; phases: Liquid
Fixed: Temperature, K = 298.15
Fixed: Pressure, kPa = 101.3
Property: Molar enthalpy of dilution, kJ/mol (Liquid); method: Isothermal Titration Calorimeter
Solvent: Mass fraction of dimethyl sulfoxide	Initial molality of solute, mol/kg	Final molality of solute, mol/kg	Molar enthalpy of dilution, kJ/mol	uncertainty
0.0502	0.00108	0.00467	-0.27696	0.00292
0.0502	0.00467	0.00821	-0.27301	0.00289
0.0502	0.00821	0.01172	-0.26634	0.00284
0.0502	0.01172	0.0152	-0.26255	0.00281
0.0502	0.0152	0.01864	-0.25328	0.00274
0.0502	0.01864	0.02204	-0.25143	0.00281
0.0502	0.02204	0.02541	-0.24551	0.00286
0.0502	0.02541	0.02874	-0.24067	0.00295
0.0502	0.02874	0.03204	-0.23623	0.00317
0.0502	0.03204	0.0353	-0.23254	0.00311
0.0502	0.0353	0.03852	-0.2271	0.00286
0.0502	0.03852	0.04171	-0.22273	0.00306
0.0502	0.04171	0.04486	-0.21934	0.00278
0.0502	0.04486	0.04798	-0.2138	0.003
0.0502	0.04798	0.05106	-0.21113	0.00283
0.0502	0.05106	0.0541	-0.20744	0.00295
0.0502	0.0541	0.05711	-0.19908	0.00331
0.0502	0.05711	0.06008	-0.19886	0.00327
0.0502	0.06008	0.06302	-0.19641	0.00364
0.0998	0.00109	0.00468	-0.30685	0.00315
0.0998	0.00468	0.00824	-0.30224	0.00312
0.0998	0.00824	0.01176	-0.29602	0.00307
0.0998	0.01176	0.01524	-0.29164	0.00303
0.0998	0.01524	0.01869	-0.28056	0.00295
0.0998	0.01869	0.0221	-0.2782	0.00301
0.0998	0.0221	0.02548	-0.27219	0.003
0.0998	0.02548	0.02882	-0.26656	0.00284
0.0998	0.02882	0.03213	-0.2618	0.0028
0.0998	0.03213	0.0354	-0.25681	0.00276
0.0998	0.0354	0.03863	-0.25071	0.00272
0.0998	0.03863	0.04182	-0.24626	0.00268
0.0998	0.04182	0.04498	-0.24243	0.00265
0.0998	0.04498	0.04811	-0.23535	0.0026
0.0998	0.04811	0.0512	-0.23246	0.00258
0.0998	0.0512	0.05425	-0.22794	0.00254
0.0998	0.05425	0.05727	-0.22442	0.00251
0.0998	0.05727	0.06025	-0.21899	0.00247
0.0998	0.06025	0.06319	-0.21557	0.00245
0.1583	0.00109	0.00469	-0.32933	0.00333
0.1583	0.00469	0.00825	-0.32469	0.00329
0.1583	0.00825	0.01178	-0.31767	0.00324
0.1583	0.01178	0.01527	-0.31338	0.0032
0.1583	0.01527	0.01872	-0.30308	0.00312
0.1583	0.01872	0.02214	-0.29842	0.00309
0.1583	0.02214	0.02552	-0.29225	0.00304
0.1583	0.02552	0.02887	-0.28679	0.00319
0.1583	0.02887	0.03218	-0.281	0.00307
0.1583	0.03218	0.03546	-0.27588	0.00291
0.1583	0.03546	0.03869	-0.26977	0.00287
0.1583	0.03869	0.0419	-0.26469	0.00283
0.1583	0.0419	0.04506	-0.26086	0.0028
0.1583	0.04506	0.04819	-0.25403	0.00274
0.1583	0.04819	0.05129	-0.25016	0.00271
0.1583	0.05129	0.05434	-0.24515	0.00267
0.1583	0.05434	0.05736	-0.24155	0.00272
0.1583	0.05736	0.06035	-0.23616	0.00261
0.1583	0.06035	0.0633	-0.23312	0.00267
0.2047	0.00117	0.00504	-0.36158	0.00358
0.2047	0.00504	0.00887	-0.3568	0.00354
0.2047	0.00887	0.01267	-0.34913	0.00348
0.2047	0.01267	0.01642	-0.34607	0.00346
0.2047	0.01642	0.02014	-0.33351	0.00336
0.2047	0.02014	0.02381	-0.32843	0.00332
0.2047	0.02381	0.02745	-0.32172	0.00327
0.2047	0.02745	0.03105	-0.31497	0.00336
0.2047	0.03105	0.03461	-0.30785	0.00324
0.2047	0.03461	0.03813	-0.30521	0.00314
0.2047	0.03813	0.04162	-0.29758	0.00308
0.2047	0.04162	0.04506	-0.2904	0.00302
0.2047	0.04506	0.04846	-0.28763	0.003
0.2047	0.04846	0.05183	-0.27928	0.00294
0.2047	0.05183	0.05516	-0.27499	0.00291
0.2047	0.05516	0.05845	-0.26928	0.00286
0.2047	0.05845	0.06169	-0.26484	0.00286
0.2047	0.06169	0.06491	-0.25892	0.00278
0.2047	0.06491	0.06808	-0.25502	0.00281
0.2494	0.00109	0.00472	-0.35214	0.00374
0.2494	0.00472	0.0083	-0.34517	0.00374
0.2494	0.0083	0.01185	-0.33673	0.00404
0.2494	0.01185	0.01537	-0.33179	0.00391
0.2494	0.01537	0.01885	-0.32071	0.00403
0.2494	0.01885	0.02229	-0.31588	0.00378
0.2494	0.02229	0.02569	-0.30851	0.00331
0.2494	0.02569	0.02906	-0.30372	0.00317
0.2494	0.02906	0.03239	-0.29653	0.00307
0.2494	0.03239	0.03569	-0.29309	0.00324
0.2494	0.03569	0.03895	-0.28632	0.00316
0.2494	0.03895	0.04217	-0.28093	0.00318
0.2494	0.04217	0.04536	-0.27599	0.00341
0.2494	0.04536	0.04851	-0.2683	0.00362
0.2494	0.04851	0.05162	-0.26444	0.00351
0.2494	0.05162	0.0547	-0.25891	0.00366
0.2494	0.0547	0.05774	-0.25465	0.00374
0.2494	0.05774	0.06075	-0.24872	0.0037
0.2494	0.06075	0.06371	-0.24515	0.00391
0.2977	0.0011	0.00474	-0.3693	0.00381
0.2977	0.00474	0.00834	-0.36399	0.0043
0.2977	0.00834	0.0119	-0.35591	0.00473
0.2977	0.0119	0.01543	-0.34937	0.00438
0.2977	0.01543	0.01892	-0.33805	0.00399
0.2977	0.01892	0.02237	-0.33222	0.00403
0.2977	0.02237	0.02579	-0.32505	0.00358
0.2977	0.02579	0.02917	-0.32141	0.00455
0.2977	0.02917	0.03252	-0.31428	0.00447
0.2977	0.03252	0.03583	-0.30929	0.00465
0.2977	0.03583	0.0391	-0.30251	0.00468
0.2977	0.0391	0.04234	-0.29633	0.00455
0.2977	0.04234	0.04553	-0.29218	0.00456
0.2977	0.04553	0.0487	-0.284	0.00459
0.2977	0.0487	0.05182	-0.27965	0.00435
0.2977	0.05182	0.05491	-0.27315	0.00407
0.2977	0.05491	0.05797	-0.26818	0.00441
0.2977	0.05797	0.06098	-0.26096	0.0042
0.2977	0.06098	0.06396	-0.25729	0.00466

System: dimethyl sulfoxide + propan-1,3-diol + water; phases: Liquid
Fixed: Temperature, K = 298.15
Fixed: Pressure, kPa = 101.3
Property: Molar enthalpy of dilution, kJ/mol (Liquid); method: Isothermal Titration Calorimeter
Solvent: Mass fraction of dimethyl sulfoxide	Initial molality of solute, mol/kg	Final molality of solute, mol/kg	Molar enthalpy of dilution, kJ/mol	uncertainty
0.0486	0.00589	0.01037	-0.22622	0.00345
0.0486	0.01037	0.0148	-0.22285	0.00348
0.0486	0.0148	0.01919	-0.219	0.00337
0.0486	0.01919	0.02353	-0.21378	0.00261
0.0486	0.02353	0.02783	-0.20971	0.00275
0.0486	0.02783	0.03208	-0.20591	0.00243
0.0486	0.03208	0.03629	-0.20238	0.00268
0.0486	0.03629	0.04045	-0.19797	0.00288
0.0486	0.04045	0.04457	-0.19402	0.00385
0.0486	0.04457	0.04864	-0.18985	0.00305
0.0486	0.04864	0.05266	-0.18614	0.0038
0.0486	0.05266	0.05664	-0.18115	0.00263
0.0486	0.05664	0.06057	-0.17955	0.00272
0.0486	0.06057	0.06446	-0.17607	0.0032
0.0486	0.06446	0.0683	-0.17237	0.00282
0.0486	0.0683	0.0721	-0.16883	0.00347
0.0486	0.0721	0.07585	-0.16545	0.00404
0.0486	0.07585	0.07956	-0.16364	0.00224
0.1003	0.00549	0.00967	-0.19997	0.00232
0.1003	0.00967	0.01381	-0.19463	0.00228
0.1003	0.01381	0.0179	-0.1927	0.00227
0.1003	0.0179	0.02195	-0.18547	0.00221
0.1003	0.02195	0.02596	-0.1829	0.00219
0.1003	0.02596	0.02992	-0.17724	0.00265
0.1003	0.02992	0.03385	-0.17457	0.00213
0.1003	0.03385	0.03773	-0.17173	0.00241
0.1003	0.03773	0.04157	-0.16799	0.00208
0.1003	0.04157	0.04536	-0.16453	0.00205
0.1003	0.04536	0.04912	-0.16105	0.00221
0.1003	0.04912	0.05283	-0.15869	0.002
0.1003	0.05283	0.0565	-0.15438	0.00233
0.1003	0.0565	0.06012	-0.1515	0.00289
0.1003	0.06012	0.06371	-0.14873	0.00226
0.1003	0.06371	0.06725	-0.14642	0.00195
0.1003	0.06725	0.07075	-0.14287	0.00188
0.1003	0.07075	0.07421	-0.14033	0.00212
0.1502	0.00121	0.00521	-0.18162	0.00233
0.1502	0.00521	0.00917	-0.18048	0.00217
0.1502	0.00917	0.01309	-0.17476	0.00231
0.1502	0.01309	0.01697	-0.1723	0.0024
0.1502	0.01697	0.02081	-0.16612	0.00223
0.1502	0.02081	0.02461	-0.1643	0.002
0.1502	0.02461	0.02837	-0.16097	0.00232
0.1502	0.02837	0.03209	-0.15737	0.00228
0.1502	0.03209	0.03577	-0.15462	0.00199
0.1502	0.03577	0.03941	-0.15188	0.00237
0.1502	0.03941	0.04301	-0.14838	0.00215
0.1502	0.04301	0.04657	-0.14572	0.00196
0.1502	0.04657	0.05009	-0.14382	0.00199
0.1502	0.05009	0.05356	-0.13978	0.0019
0.1502	0.05356	0.057	-0.13762	0.002
0.1502	0.057	0.0604	-0.13494	0.00189
0.1502	0.0604	0.06376	-0.13307	0.00214
0.1502	0.06376	0.06708	-0.12965	0.0019
0.1502	0.06708	0.07036	-0.12636	0.00299
0.2	0.00123	0.00531	-0.17107	0.00251
0.2	0.00531	0.00935	-0.16811	0.00267
0.2	0.00935	0.01335	-0.16408	0.00287
0.2	0.01335	0.0173	-0.16158	0.00326
0.2	0.0173	0.02122	-0.15564	0.00251
0.2	0.02122	0.02509	-0.15359	0.0026
0.2	0.02509	0.02892	-0.15006	0.0024
0.2	0.02892	0.03272	-0.14722	0.0024
0.2	0.03272	0.03647	-0.14438	0.00293
0.2	0.03647	0.04018	-0.14192	0.00262
0.2	0.04018	0.04385	-0.13848	0.0028
0.2	0.04385	0.04747	-0.13626	0.00304
0.2	0.04747	0.05106	-0.13407	0.0028
0.2	0.05106	0.05461	-0.13035	0.00228
0.2	0.05461	0.05811	-0.12857	0.00256
0.2	0.05811	0.06158	-0.12581	0.00272
0.2	0.06158	0.065	-0.1235	0.00276
0.2	0.065	0.06838	-0.12099	0.00249
0.2	0.06838	0.07173	-0.12004	0.00327
0.2496	0.00161	0.00693	-0.19992	0.00269
0.2496	0.00693	0.01221	-0.19676	0.00289
0.2496	0.01221	0.01742	-0.19141	0.00236
0.2496	0.01742	0.02259	-0.18858	0.00224
0.2496	0.02259	0.0277	-0.18266	0.00251
0.2496	0.0277	0.03276	-0.18035	0.00257
0.2496	0.03276	0.03776	-0.17589	0.00279
0.2496	0.03776	0.04272	-0.17281	0.00279
0.2496	0.04272	0.04761	-0.16912	0.0027
0.2496	0.04761	0.05246	-0.16608	0.00269
0.2496	0.05246	0.05725	-0.16221	0.00246
0.2496	0.05725	0.06199	-0.15912	0.00213
0.2496	0.06199	0.06667	-0.15658	0.00226
0.2496	0.06667	0.0713	-0.1525	0.00236
0.2496	0.0713	0.07588	-0.14981	0.00223
0.2496	0.07588	0.0804	-0.14675	0.00191
0.2496	0.0804	0.08487	-0.14473	0.00213
0.2496	0.08487	0.08929	-0.14089	0.00187
0.2496	0.08929	0.09365	-0.13909	0.00185
0.2977	0.00123	0.00531	-0.13377	0.002
0.2977	0.00531	0.00934	-0.13227	0.0018
0.2977	0.00934	0.01333	-0.12931	0.00178
0.2977	0.01333	0.01729	-0.12753	0.0019
0.2977	0.01729	0.0212	-0.12363	0.00173
0.2977	0.0212	0.02507	-0.12179	0.00172
0.2977	0.02507	0.0289	-0.11981	0.0017
0.2977	0.0289	0.03269	-0.1165	0.00168
0.2977	0.03269	0.03643	-0.11475	0.00171
0.2977	0.03643	0.04014	-0.11313	0.00177
0.2977	0.04014	0.04381	-0.11028	0.00165
0.2977	0.04381	0.04743	-0.10811	0.00161
0.2977	0.04743	0.05102	-0.10648	0.0016
0.2977	0.05102	0.05456	-0.10325	0.00162
0.2977	0.05456	0.05806	-0.10179	0.00157
0.2977	0.05806	0.06152	-0.0999	0.00155
0.2977	0.06152	0.06494	-0.09807	0.00154
0.2977	0.06494	0.06832	-0.09546	0.00152
0.2977	0.06832	0.07166	-0.094	0.0015

System: dimethyl sulfoxide + water + (2R,3R)-2,3-butanediol; phases: Liquid
Fixed: Temperature, K = 298.15
Fixed: Pressure, kPa = 101.3
Property: Molar enthalpy of dilution, kJ/mol (Liquid); method: Isothermal Titration Calorimeter
Solvent: Mass fraction of dimethyl sulfoxide	Initial molality of solute, mol/kg	Final molality of solute, mol/kg	Molar enthalpy of dilution, kJ/mol	uncertainty
0.0505	0.00108	0.00465	-0.32514	0.00329
0.0505	0.00465	0.00818	-0.3226	0.0033
0.0505	0.00818	0.01168	-0.3188	0.0032
0.0505	0.01168	0.01514	-0.316	0.0041
0.0505	0.01514	0.01857	-0.3052	0.00314
0.0505	0.01857	0.02196	-0.30225	0.00312
0.0505	0.02196	0.02532	-0.29749	0.00366
0.0505	0.02532	0.02864	-0.28777	0.003
0.0505	0.02864	0.03192	-0.2833	0.00297
0.0505	0.03192	0.03517	-0.27982	0.00294
0.0505	0.03517	0.03838	-0.27304	0.00289
0.0505	0.03838	0.04156	-0.26791	0.00285
0.0505	0.04156	0.0447	-0.26352	0.00282
0.0505	0.0447	0.0478	-0.25647	0.00276
0.0505	0.0478	0.05087	-0.25288	0.00273
0.0505	0.05087	0.0539	-0.24612	0.00268
0.0505	0.0539	0.0569	-0.24335	0.00266
0.0505	0.0569	0.05986	-0.23786	0.00262
0.0505	0.05986	0.06279	-0.23414	0.00259
0.0998	0.00094	0.00405	-0.29452	0.00306
0.0998	0.00405	0.00713	-0.29112	0.00303
0.0998	0.00713	0.01018	-0.28401	0.00298
0.0998	0.01018	0.01319	-0.28142	0.00296
0.0998	0.01319	0.01618	-0.2721	0.0029
0.0998	0.01618	0.01913	-0.26874	0.00286
0.0998	0.01913	0.02205	-0.26261	0.00288
0.0998	0.02205	0.02495	-0.25747	0.00277
0.0998	0.02495	0.02781	-0.25237	0.00273
0.0998	0.02781	0.03064	-0.24901	0.00297
0.0998	0.03064	0.03343	-0.24266	0.00266
0.0998	0.03343	0.0362	-0.23866	0.00272
0.0998	0.0362	0.03894	-0.23496	0.00268
0.0998	0.03894	0.04164	-0.22896	0.00279
0.0998	0.04164	0.04431	-0.22332	0.00251
0.0998	0.04431	0.04695	-0.22108	0.00259
0.0998	0.04695	0.04957	-0.21774	0.00246
0.0998	0.04957	0.05214	-0.21241	0.00242
0.0998	0.05214	0.05469	-0.20889	0.00239
0.1583	0.00107	0.00461	-0.35783	0.00355
0.1583	0.00461	0.00812	-0.3519	0.0035
0.1583	0.00812	0.0116	-0.34414	0.00344
0.1583	0.0116	0.01503	-0.33934	0.0034
0.1583	0.01503	0.01844	-0.32847	0.00332
0.1583	0.01844	0.0218	-0.32528	0.0033
0.1583	0.0218	0.02513	-0.31916	0.00325
0.1583	0.02513	0.02843	-0.31283	0.0032
0.1583	0.02843	0.03169	-0.3063	0.00315
0.1583	0.03169	0.03491	-0.29981	0.0031
0.1583	0.03491	0.0381	-0.29175	0.00304
0.1583	0.0381	0.04125	-0.28691	0.00303
0.1583	0.04125	0.04437	-0.2824	0.00296
0.1583	0.04437	0.04745	-0.2752	0.00295
0.1583	0.04745	0.0505	-0.27138	0.00288
0.1583	0.0505	0.05351	-0.2654	0.00283
0.1583	0.05351	0.05648	-0.26233	0.00281
0.1583	0.05648	0.05942	-0.25645	0.00276
0.1583	0.05942	0.06233	-0.25221	0.0028
0.1997	0.001	0.00433	-0.24603	0.00427
0.1997	0.00433	0.00762	-0.36618	0.00361
0.1997	0.00762	0.01088	-0.35829	0.00385
0.1997	0.01088	0.01411	-0.35052	0.00409
0.1997	0.01411	0.0173	-0.33657	0.00395
0.1997	0.0173	0.02046	-0.32841	0.00692
0.1997	0.02046	0.02359	-0.32283	0.00328
0.1997	0.02359	0.02668	-0.31929	0.00488
0.1997	0.02668	0.02974	-0.31266	0.00453
0.1997	0.02974	0.03277	-0.30723	0.00628
0.1997	0.03277	0.03576	-0.302	0.00526
0.1997	0.03576	0.03872	-0.29426	0.00401
0.1997	0.03872	0.04164	-0.29177	0.00515
0.1997	0.04164	0.04454	-0.28342	0.00541
0.1997	0.04454	0.0474	-0.27986	0.0065
0.1997	0.0474	0.05022	-0.27354	0.00508
0.1997	0.05022	0.05301	-0.2705	0.0054
0.1997	0.05301	0.05577	-0.259	0.00278
0.1997	0.05577	0.0585	-0.25627	0.00304
0.2494	0.00104	0.00449	-0.36579	0.00361
0.2494	0.00449	0.0079	-0.36029	0.00357
0.2494	0.0079	0.01128	-0.35165	0.0035
0.2494	0.01128	0.01462	-0.34699	0.00346
0.2494	0.01462	0.01793	-0.33571	0.00338
0.2494	0.01793	0.02121	-0.33059	0.00334
0.2494	0.02121	0.02445	-0.32355	0.00328
0.2494	0.02445	0.02765	-0.31759	0.00324
0.2494	0.02765	0.03082	-0.31106	0.00318
0.2494	0.03082	0.03396	-0.30552	0.00314
0.2494	0.03396	0.03706	-0.29826	0.00309
0.2494	0.03706	0.04013	-0.29296	0.00304
0.2494	0.04013	0.04316	-0.28818	0.00301
0.2494	0.04316	0.04616	-0.28079	0.00295
0.2494	0.04616	0.04912	-0.27683	0.00292
0.2494	0.04912	0.05205	-0.27116	0.00288
0.2494	0.05205	0.05494	-0.26678	0.00284
0.2494	0.05494	0.0578	-0.26063	0.00279
0.2494	0.0578	0.06063	-0.25688	0.00277
0.2977	0.00083	0.00358	-0.31639	0.00323
0.2977	0.00358	0.00629	-0.30886	0.00317
0.2977	0.00629	0.00898	-0.30085	0.00311
0.2977	0.00898	0.01165	-0.29594	0.00307
0.2977	0.01165	0.01428	-0.28544	0.00363
0.2977	0.01428	0.01689	-0.28145	0.00423
0.2977	0.01689	0.01947	-0.2749	0.00393
0.2977	0.01947	0.02202	-0.26953	0.00416
0.2977	0.02202	0.02455	-0.26483	0.00432
0.2977	0.02455	0.02705	-0.25996	0.00438
0.2977	0.02705	0.02952	-0.25364	0.00437
0.2977	0.02952	0.03196	-0.24824	0.00461
0.2977	0.03196	0.03438	-0.24446	0.00462
0.2977	0.03438	0.03676	-0.23758	0.00536
0.2977	0.03676	0.03912	-0.23428	0.0046
0.2977	0.03912	0.04146	-0.22815	0.00473
0.2977	0.04146	0.04376	-0.22497	0.00425
0.2977	0.04376	0.04604	-0.22165	0.00533
0.2977	0.04604	0.04829	-0.21663	0.00586
