Measured thermophysical data. Solubility of 2-Chloro-4,6-dinitroresorcinol in Ethanol, Methanol, Acetic Acid, Ethyl Acetate, and Water
Source: J. Chem. Eng. Data, 2011, 10.1021/je1011423
Compound 1: 2-chloro-4,6-dinitroresorcinol, C6H3ClN2O6, InChI=1S/C6H3ClN2O6/c7-4-5(10)2(8(12)13)1-3(6(4)11)9(14)15/h1,10-11H
Compound 2: ethanol, C2H6O, InChI=1S/C2H6O/c1-2-3/h3H,2H2,1H3, purity 99.8%
Compound 3: methanol, CH4O, InChI=1S/CH4O/c1-2/h2H,1H3, purity 99.8%
Compound 4: acetic acid, C2H4O2, InChI=1S/C2H4O2/c1-2(3)4/h1H3,(H,3,4), purity 99.8%
Compound 5: ethyl acetate, C4H8O2, InChI=1S/C4H8O2/c1-3-6-4(2)5/h3H2,1-2H3, purity 99.8%
Compound 6: water, H2O, InChI=1S/H2O/h1H2

System: 2-chloro-4,6-dinitroresorcinol; phases: Crystal, Liquid, Air at 1 atmosphere
Property: Normal melting temperature, K (Crystal); method: thermal gravimetric analysis
Normal melting temperature, K	uncertainty
458.15	0.01

System: ethanol + 2-chloro-4,6-dinitroresorcinol; phases: Liquid, Crystal
Fixed: Pressure, kPa = 101
Property: Mole fraction of 2-chloro-4,6-dinitroresorcinol (Liquid); method: UV spectrophotometer
Temperature, K	Mole fraction of 2-chloro-4,6-dinitroresorcinol	uncertainty
299.35	0.00297	5e-05
303.15	0.00355	6e-05
307.35	0.00428	7e-05
310.75	0.00493	8e-05
314.25	0.00568	9e-05
317.65	0.00648	0.0001
320.15	0.00711	0.00011
326.35	0.00882	0.00013
329.85	0.00989	0.00015
332.65	0.0108	0.00016
335.45	0.01175	0.00018
339.15	0.01307	0.0002
343.75	0.0148	0.00022

System: methanol + 2-chloro-4,6-dinitroresorcinol; phases: Liquid, Crystal
Fixed: Pressure, kPa = 101
Property: Mole fraction of 2-chloro-4,6-dinitroresorcinol (Liquid); method: UV spectrophotometer
Temperature, K	Mole fraction of 2-chloro-4,6-dinitroresorcinol	uncertainty
299.75	0.00172	3e-05
305.95	0.00239	5e-05
308.75	0.00277	5e-05
311.25	0.00316	6e-05
313.65	0.00359	7e-05
315.95	0.00406	8e-05
318.15	0.00456	9e-05
320.75	0.00524	0.0001
323.35	0.006	0.00012
327.05	0.00731	0.00014
330.15	0.0086	0.00017
333.35	0.01019	0.0002

System: acetic acid + 2-chloro-4,6-dinitroresorcinol; phases: Liquid, Crystal
Fixed: Pressure, kPa = 101
Property: Mole fraction of 2-chloro-4,6-dinitroresorcinol (Liquid); method: UV spectrophotometer
Temperature, K	Mole fraction of 2-chloro-4,6-dinitroresorcinol	uncertainty
299.35	0.00649	9e-05
305.55	0.00872	0.00012
311.45	0.01125	0.00015
315.05	0.013	0.00018
318.75	0.01494	0.0002
321.85	0.01668	0.00023
323.95	0.01791	0.00024
327.65	0.02019	0.00027
334.65	0.0248	0.00033
336.45	0.02604	0.00035
340.45	0.02886	0.00039
343.15	0.03079	0.00041

System: ethyl acetate + 2-chloro-4,6-dinitroresorcinol; phases: Liquid, Crystal
Fixed: Pressure, kPa = 101
Property: Mole fraction of 2-chloro-4,6-dinitroresorcinol (Liquid); method: UV spectrophotometer
Temperature, K	Mole fraction of 2-chloro-4,6-dinitroresorcinol	uncertainty
298.75	0.04491	0.00053
302.65	0.04741	0.00056
306.25	0.04985	0.00058
309.95	0.0525	0.00062
313.85	0.05547	0.00065
318.15	0.05894	0.00069
323.15	0.06327	0.00074
327.25	0.06705	0.00079
331.85	0.07159	0.00084
333.35	0.07314	0.00086
337.15	0.0772	0.00091
342.55	0.08339	0.00099
344.95	0.0863	0.00102

System: water + 2-chloro-4,6-dinitroresorcinol; phases: Liquid, Crystal
Fixed: Pressure, kPa = 101
Property: Mole fraction of 2-chloro-4,6-dinitroresorcinol (Liquid); method: UV spectrophotometer
Temperature, K	Mole fraction of 2-chloro-4,6-dinitroresorcinol	uncertainty
298.85	3.49024e-05	1.058e-06
301.15	3.65e-05	1.115e-06
303.65	4.22863e-05	1.292e-06
306.35	4.59298e-05	1.394e-06
309.05	4.85744e-05	1.479e-06
311.35	5.43537e-05	1.656e-06
313.35	5.67074e-05	1.727e-06
315.75	6.29335e-05	1.919e-06
318.15	6.8e-05	2.075e-06
320.65	7.61815e-05	2.321e-06
323.15	8.17402e-05	2.49e-06
325.85	9.12015e-05	2.785e-06
327.45	9.7909e-05	2.983e-06
330.15	0.000106359	3.233e-06
332.25	0.000112891	3.438e-06
336.35	0.00013034	3.965e-06
339.5	0.000142294	4.323e-06
341.95	0.0001519681	4.615e-06
