Measured thermophysical data. Density, Viscosity, Heat Capacity, Surface Tension, and Solubility of CO2 in Aqueous Solutions of Potassium Serinate
Source: J. Chem. Eng. Data, 2011, 10.1021/je101144k
Compound 1: potassium L-serinate, C3H6KNO3, InChI=1S/C3H7NO3.K/c4-2(1-5)3(6)7;/h2,5H,1,4H2,(H,6,7);/q;+1/p-1/t2-;/m0./s1, purity 98%
Compound 2: water, H2O, InChI=1S/H2O/h1H2, purity 99.8%
Compound 3: 2-aminoethan-1-ol, C2H7NO, InChI=1S/C2H7NO/c3-1-2-4/h4H,1-3H2, purity 98%
Compound 4: carbon dioxide, CO2, InChI=1S/CO2/c2-1-3

System: 2-aminoethan-1-ol; phases: Liquid
Fixed: Pressure, kPa = 101.325
Property: Molar heat capacity at constant pressure, J/K/mol (Liquid); method: Small sample (50 mg) DSC
Temperature, K	Molar heat capacity at constant pressure, J/K/mol	uncertainty
303.15	163.7027616	3.658878888
313.15	167.97858	3.658878888
323.15	172.2543984	3.658878888

System: 2-aminoethan-1-ol; phases: Liquid
Fixed: Pressure, kPa = 101.325
Property: Viscosity, Pa*s (Liquid); method: Concentric cylinders viscometry
Temperature, K	Viscosity, Pa*s	uncertainty
303.15	0.01536	0.00032
313.15	0.01026	0.00021
323.15	0.00719	0.00015

System: 2-aminoethan-1-ol; phases: Liquid
Fixed: Pressure, kPa = 101.325
Property: Mass density, kg/m3 (Liquid); method: Pycnometric method
Temperature, K	Mass density, kg/m3	uncertainty
303.15	1008.7	1.3
313.15	1000.4	1.3
323.15	992.5	1.3

System: water + potassium L-serinate; phases: Liquid, Air at 1 atmosphere
Fixed: Temperature, K = 298.15
Property: Surface tension liquid-gas, N/m (Liquid); method: Maximal bubble pressure
Mass fraction of potassium L-serinate	Surface tension liquid-gas, N/m	uncertainty
0.072	0.0732	0.0006
0.143	0.0741	0.0006
0.286	0.0779	0.0007
0.43	0.0804	0.0008
0.573	0.0822	0.0008

System: water + potassium L-serinate; phases: Liquid
Fixed: Pressure, kPa = 101
Property: Molar heat capacity at constant pressure, J/K/mol (Liquid); method: Small sample (50 mg) DSC
Temperature, K	Mass fraction of potassium L-serinate	Molar heat capacity at constant pressure, J/K/mol	uncertainty
303.15	0.072	74.594	1.73
303.15	0.143	76.591	1.85
303.15	0.286	80.47	1.92
303.15	0.43	88.33	2.02
303.15	0.573	98.903	2.17
308.15	0.072	75.171	1.73
308.15	0.143	77.621	1.85
308.15	0.286	81.191	1.92
308.15	0.43	88.907	2.02
308.15	0.573	99.625	2.17
313.15	0.072	75.556	1.73
313.15	0.143	78.033	1.85
313.15	0.286	81.671	1.92
313.15	0.43	89.773	2.02
313.15	0.573	100.35	2.53
318.15	0.072	76.132	1.73
318.15	0.143	78.65	1.85
318.15	0.286	82.151	1.92
318.15	0.43	90.35	2.02
318.15	0.573	101.07	2.53
323.15	0.072	76.517	1.73
323.15	0.143	79.062	1.85
323.15	0.286	82.632	1.92
323.15	0.43	91.216	2.02
323.15	0.573	101.43	2.53
328.15	0.072	76.901	1.73
328.15	0.143	79.474	1.85
328.15	0.286	83.352	1.92
328.15	0.43	91.794	2.02
328.15	0.573	102.15	2.53
333.15	0.072	77.286	1.73
333.15	0.143	80.091	1.85
333.15	0.286	83.833	1.92
333.15	0.43	92.371	2.02
333.15	0.573	102.51	2.53
338.15	0.072	77.67	1.73
338.15	0.143	80.503	1.85
338.15	0.286	84.313	1.92
338.15	0.43	92.948	2.02
338.15	0.573	102.87	2.53
343.15	0.072	78.055	1.73
343.15	0.143	81.121	1.85
343.15	0.286	84.794	1.92
343.15	0.43	93.237	2.02
343.15	0.573	103.23	2.53
348.18	0.072	78.247	1.73
348.18	0.143	81.533	1.85
348.18	0.286	85.274	1.92
348.18	0.43	93.814	2.31
348.18	0.573	103.23	2.53
353.15	0.072	78.439	1.73
353.15	0.143	81.739	1.85
353.15	0.286	85.514	1.92
353.15	0.43	94.103	2.31
353.15	0.573	104.68	2.53

System: water + potassium L-serinate; phases: Liquid
Fixed: Pressure, kPa = 101
Property: Viscosity, Pa*s (Liquid); method: CONCYL:UFactor:4
Mass fraction of potassium L-serinate	Temperature, K	Viscosity, Pa*s	uncertainty
0.072	298.15	0.001121	3.4e-05
0.072	303.15	0.001032	3.2e-05
0.072	313.15	0.00087	2.9e-05
0.072	323.15	0.00073	2.6e-05
0.072	333.15	0.000645	2.4e-05
0.072	343.15	0.000564	2.3e-05
0.072	353.15	0.000494	2.2e-05
0.143	298.15	0.001372	3.9e-05
0.143	303.15	0.001261	3.7e-05
0.143	313.15	0.001043	3.2e-05
0.143	323.15	0.000896	2.9e-05
0.143	333.15	0.000806	2.8e-05
0.143	343.15	0.000671	2.5e-05
0.143	353.15	0.000564	2.3e-05
0.286	298.15	0.001913	5.2e-05
0.286	303.15	0.001736	4.8e-05
0.286	313.15	0.001402	4.1e-05
0.286	323.15	0.00114	3.5e-05
0.286	333.15	0.000989	3.2e-05
0.286	343.15	0.000855	2.9e-05
0.286	353.15	0.000732	2.7e-05
0.43	298.15	0.002757	7.7e-05
0.43	303.15	0.002485	6.9e-05
0.43	313.15	0.001996	5.7e-05
0.43	323.15	0.001767	5.2e-05
0.43	333.15	0.00156	4.7e-05
0.43	343.15	0.001423	4.4e-05
0.43	353.15	0.001255	4.1e-05
0.573	298.15	0.004202	0.000116
0.573	303.15	0.003685	0.000103
0.573	313.15	0.002927	8.4e-05
0.573	323.15	0.002556	7.3e-05
0.573	333.15	0.002278	6.6e-05
0.573	343.15	0.002063	6e-05
0.573	353.15	0.001919	5.8e-05

System: water + potassium L-serinate; phases: Liquid
Fixed: Pressure, kPa = 101
Property: Mass density, kg/m3 (Liquid); method: Pycnometric method
Mass fraction of potassium L-serinate	Temperature, K	Mass density, kg/m3	uncertainty
0.072	298.15	1034.7	0.9
0.072	303.15	1033.1	0.9
0.072	313.15	1028.8	0.9
0.072	323.15	1024.6	0.9
0.072	333.15	1019.1	0.9
0.072	343.15	1013.9	1
0.072	353.15	1007.8	1
0.143	298.15	1068.7	1.1
0.143	303.15	1066.7	1.1
0.143	313.15	1061.9	1.1
0.143	323.15	1056.9	1.1
0.143	333.15	1051.5	1.1
0.143	343.15	1046.3	1.1
0.143	353.15	1039.6	1.1
0.286	298.15	1137	1.6
0.286	303.15	1134.4	1.7
0.286	313.15	1129.1	1.6
0.286	323.15	1123.8	1.6
0.286	333.15	1118	1.6
0.286	343.15	1112.5	1.6
0.286	353.15	1106	1.7
0.43	298.15	1201.2	2.2
0.43	303.15	1198.8	2.2
0.43	313.15	1193.1	2.2
0.43	323.15	1187.5	2.2
0.43	333.15	1181.6	2.2
0.43	343.15	1175.9	2.2
0.43	353.15	1169.6	2.2
0.573	298.15	1263.5	2.8
0.573	303.15	1260.5	2.8
0.573	313.15	1254.4	2.8
0.573	323.15	1248.5	2.8
0.573	333.15	1242.3	2.8
0.573	343.15	1236.3	2.7
0.573	353.15	1229.6	2.7

System: carbon dioxide + 2-aminoethan-1-ol + water; phases: Liquid, Gas
Property: Mole fraction of carbon dioxide (Liquid); method: pressure drop
Temperature, K	Pressure, kPa	Mole fraction of 2-aminoethan-1-ol	Mole fraction of carbon dioxide	uncertainty
313.15	0.1	0.04971	0.01725	0.00086
313.15	0.3	0.04959	0.01954	0.00098
313.15	0.8	0.04948	0.02172	0.00109
313.15	2.4	0.04938	0.0237	0.00119
313.15	16	0.04921	0.02711	0.00136
313.15	65	0.04901	0.03112	0.00156
313.15	182	0.0488	0.03514	0.00176
313.15	402.7	0.0486	0.03908	0.00195
373.15	0.5	0.05034	0.004682	0.000234
373.15	2.1	0.05017	0.008177	0.000409
373.15	4.1	0.05002	0.01115	0.00056
373.15	9.9	0.04983	0.0148	0.00074
373.15	20.7	0.04968	0.01783	0.00089
373.15	47.3	0.04951	0.02109	0.00105
373.15	129.4	0.0493	0.02529	0.00126
373.15	290	0.04912	0.02883	0.00144

System: carbon dioxide + water + potassium L-serinate; phases: Liquid, Gas
Property: Mole fraction of carbon dioxide (Liquid); method: pressure drop
Temperature, K	Pressure, kPa	Mole fraction of water	Mole fraction of carbon dioxide	uncertainty
313.15	0.2	0.02045	0.005582	0.000279
313.15	1	0.0204	0.007996	0.0004
313.15	3.9	0.02035	0.01022	0.00051
313.15	12.9	0.02031	0.01229	0.00061
313.15	31.3	0.02027	0.01403	0.0007
313.15	59.9	0.02025	0.01541	0.00077
313.15	151.2	0.0202	0.0175	0.00088
313.15	433.5	0.02015	0.02007	0.001
343.15	0.2	0.02052	0.002298	0.000115
343.15	1.1	0.02047	0.00434	0.000217
343.15	3.9	0.02043	0.006233	0.000312
343.15	9.6	0.0204	0.007875	0.000394
343.15	19.6	0.02037	0.00939	0.00047
343.15	56.4	0.02032	0.01183	0.00059
343.15	96.4	0.02029	0.01319	0.00066
343.15	393	0.02021	0.01708	0.00085
373.15	0.1	0.02055	0.0006165	3.08e-05
373.15	0.9	0.02052	0.001868	9.3e-05
373.15	3.2	0.0205	0.002973	0.000149
373.15	13.5	0.02046	0.005074	0.000254
373.15	32	0.02042	0.006923	0.000346
373.15	79.6	0.02037	0.009168	0.000458
373.15	156.9	0.02034	0.01102	0.00055
373.15	387.2	0.02028	0.01385	0.00069
