Measured thermophysical data. Solubility of CO2 in Alcohols, Glycols, Ethers, and Ketones at High Pressures from (288.15 to 318.15) K
Source: J. Chem. Eng. Data, 2011, 10.1021/je101344v
Compound 1: methanol, CH4O, InChI=1S/CH4O/c1-2/h2H,1H3, purity 99.9%
Compound 2: carbon dioxide, CO2, InChI=1S/CO2/c2-1-3
Compound 3: ethanol, C2H6O, InChI=1S/C2H6O/c1-2-3/h3H,2H2,1H3, purity 99.9%
Compound 4: propan-1-ol, C3H8O, InChI=1S/C3H8O/c1-2-3-4/h4H,2-3H2,1H3, purity 99.9%
Compound 5: butan-1-ol, C4H10O, InChI=1S/C4H10O/c1-2-3-4-5/h5H,2-4H2,1H3, purity 99.9%
Compound 6: pentan-1-ol, C5H12O, InChI=1S/C5H12O/c1-2-3-4-5-6/h6H,2-5H2,1H3, purity 99.9%
Compound 7: 1,2-ethanediol, C2H6O2, InChI=1S/C2H6O2/c3-1-2-4/h3-4H,1-2H2, purity 99.9%
Compound 8: 1,2-propanediol, C3H8O2, InChI=1S/C3H8O2/c1-3(5)2-4/h3-5H,2H2,1H3, purity 99.9%
Compound 9: acetone, C3H6O, InChI=1S/C3H6O/c1-3(2)4/h1-2H3, purity 99.9%
Compound 10: butanone, C4H8O, InChI=1S/C4H8O/c1-3-4(2)5/h3H2,1-2H3, purity 99.9%
Compound 11: 2-methoxyethan-1-ol, C3H8O2, InChI=1S/C3H8O2/c1-5-3-2-4/h4H,2-3H2,1H3, purity 99.9%
Compound 12: 2-ethoxyethan-1-ol, C4H10O2, InChI=1S/C4H10O2/c1-2-6-4-3-5/h5H,2-4H2,1H3, purity 99.9%

System: methanol + carbon dioxide; phases: Liquid, Gas
Property: Mole fraction of carbon dioxide (Liquid); method: Material Balance
Temperature, K	Pressure, kPa of carbon dioxide	Mole fraction of carbon dioxide	uncertainty
288.15	132.4	0.0114	0.0001
288.15	326.9	0.0282	0.0001
288.15	503.8	0.0435	0.0001
288.15	864.3	0.0746	0.0001
288.15	1162	0.1003	0.0001
288.15	1787.4	0.1543	0.0001
288.15	2135.1	0.1843	0.0001
288.15	2580.6	0.2228	0.0001
288.15	2934.7	0.2534	0.0001
288.15	3085.4	0.2664	0.0001
298.15	221.3	0.01625	1e-05
298.15	399.8	0.0294	0.0001
298.15	544.6	0.04	0.0001
298.15	774.2	0.05684	1e-05
298.15	962.3	0.0706	0.0001
298.15	1286.9	0.0945	0.0001
298.15	1553.5	0.1141	0.0001
298.15	1968.5	0.1445	0.0001
298.15	2363.4	0.1735	0.0001
298.15	2792.1	0.205	0.0001
298.15	3153.8	0.2315	0.0001
298.15	3604.3	0.2646	0.0001
298.15	3921.9	0.2879	0.0001
298.15	4336.5	0.3185	0.0001
308.15	236.5	0.0146	0.0001
308.15	421.9	0.026	0.0001
308.15	604.3	0.0373	0.0001
308.15	853.8	0.0527	0.0001
308.15	1079.2	0.0666	0.0001
308.15	1363.4	0.0842	0.0001
308.15	1568.5	0.0968	0.0001
308.15	1701.7	0.1051	0.0001
308.15	1953.5	0.1206	0.0001
308.15	2186.9	0.135	0.0001
308.15	2362.3	0.1458	0.0001
308.15	2674.2	0.1651	0.0001
308.15	2944.6	0.1818	0.0001
308.15	3299.8	0.2037	0.0001
308.15	3521.3	0.2174	0.0001
308.15	3821.3	0.2359	0.0001
308.15	4006.5	0.2474	0.0001
308.15	4387.8	0.2709	0.0001
308.15	4692	0.2897	0.0001
308.15	4910.1	0.3031	0.0001
308.15	5041.2	0.3112	0.0001
318.15	123.6	0.0062	0.0001
318.15	342.1	0.0172	0.0001
318.15	560.4	0.0282	0.0001
318.15	753.8	0.0379	0.0001
318.15	1127.9	0.0567	0.0001
318.15	1436.3	0.0722	0.0001
318.15	1688.5	0.0849	0.0001
318.15	1970.1	0.099	0.0001
318.15	2253.5	0.1132	0.0001
318.15	2498.6	0.1256	0.0001
318.15	2736.2	0.1375	0.0001
318.15	2927.4	0.1471	0.0001
318.15	3244.6	0.1631	0.0001
318.15	3519.9	0.1769	0.0001
318.15	3721.3	0.187	0.0001
318.15	3982.1	0.2001	0.0001
318.15	4226.5	0.2124	0.0001
318.15	4538.7	0.2281	0.0001
318.15	4869.2	0.2447	0.0001
318.15	5041	0.2533	0.0001
318.15	5271.2	0.2649	0.0001
318.15	5576.1	0.2802	0.0001

System: ethanol + carbon dioxide; phases: Liquid, Gas
Property: Mole fraction of carbon dioxide (Liquid); method: Material Balance
Temperature, K	Pressure, kPa of carbon dioxide	Mole fraction of carbon dioxide	uncertainty
288.15	58	0.0055	0.0001
288.15	167	0.0157	0.0001
288.15	413	0.0388	0.0001
288.15	656.2	0.0617	0.0001
288.15	846.1	0.0795	0.0001
288.15	1141.7	0.1073	0.0001
288.15	1423.5	0.1338	0.0001
288.15	1643.8	0.1545	0.0001
288.15	1805.2	0.1697	0.0001
288.15	2119.7	0.1992	0.0001
288.15	2462.7	0.2315	0.0001
288.15	2778	0.2611	0.0001
288.15	3063.5	0.2879	0.0001
288.15	3372	0.3169	0.0001
298.15	273.2	0.0205	0.0001
298.15	463.5	0.0349	0.0001
298.15	778.7	0.0586	0.0001
298.15	946.2	0.0712	0.0001
298.15	1211.9	0.0911	0.0001
298.15	1405.2	0.1057	0.0001
298.15	1684.6	0.1267	0.0001
298.15	1823.5	0.1371	0.0001
298.15	2147.9	0.1615	0.0001
298.15	2384.6	0.1793	0.0001
298.15	2566.2	0.193	0.0001
298.15	2732	0.2055	0.0001
298.15	2967.8	0.2232	0.0001
298.15	3258.4	0.2451	0.0001
298.15	3404.3	0.256	0.0001
298.15	3721.9	0.2799	0.0001
298.15	4133.6	0.3109	0.0001
298.15	4357.9	0.3278	0.0001
308.15	272	0.0172	0.0001
308.15	463	0.0293	0.0001
308.15	778	0.0493	0.0001
308.15	1002.7	0.0635	0.0001
308.15	1297.6	0.0822	0.0001
308.15	1505.2	0.0954	0.0001
308.15	1843.1	0.1168	0.0001
308.15	2023.5	0.1282	0.0001
308.15	2341.4	0.1484	0.0001
308.15	2561.9	0.1623	0.0001
308.15	2886.5	0.1829	0.0001
308.15	3314.2	0.21	0.0001
308.15	3595	0.2278	0.0001
308.15	3831.6	0.2428	0.0001
308.15	4112.4	0.2606	0.0001
308.15	4439.7	0.2813	0.0001
308.15	4796.2	0.3039	0.0001
308.15	5081.1	0.32195	7e-05
318.15	239.2	0.013	0.0001
318.15	436.5	0.0237	0.0001
318.15	794.4	0.043	0.0001
318.15	1098.1	0.0595	0.0001
318.15	1427.3	0.0773	0.0001
318.15	1757	0.0952	0.0001
318.15	1965.6	0.1065	0.0001
318.15	2196.1	0.119	0.0001
318.15	2445.3	0.1325	0.0001
318.15	2752.8	0.1492	0.0001
318.15	2998.6	0.1625	0.0001
318.15	3227.4	0.1749	0.0001
318.15	3434.3	0.1861	0.0001
318.15	3732.9	0.2023	0.0001
318.15	4253.6	0.2305	0.0001
318.15	4537.8	0.2459	0.0001
318.15	4799.2	0.26	0.0001
318.15	5001.1	0.271	0.0001
318.15	5464.9	0.2961	0.0001
318.15	5716.8	0.3098	0.0001

System: propan-1-ol + carbon dioxide; phases: Liquid, Gas
Property: Mole fraction of carbon dioxide (Liquid); method: Material Balance
Temperature, K	Pressure, kPa of carbon dioxide	Mole fraction of carbon dioxide	uncertainty
288.15	258.4	0.0244	0.0001
288.15	522.9	0.0494	0.0001
288.15	733.3	0.0693	0.0001
288.15	964.7	0.0912	0.0001
288.15	1428.5	0.135	0.0001
288.15	1812.1	0.1713	0.0001
288.15	2169.7	0.2051	0.0001
288.15	2415.1	0.2283	0.0001
288.15	2633.4	0.2489	0.0001
288.15	2939.9	0.2779	0.0001
288.15	3219.7	0.3043	0.0001
288.15	3672.2	0.3471	0.0001
298.15	131.3	0.0102	0.0001
298.15	255.7	0.0199	0.0001
298.15	471.1	0.0367	0.0001
298.15	641.5	0.0499	0.0001
298.15	828.9	0.0645	0.0001
298.15	1093.3	0.0851	0.0001
298.15	1396.4	0.1087	0.0001
298.15	1718.2	0.1337	0.0001
298.15	2059	0.1603	0.0001
298.15	2471.3	0.1924	0.0001
298.15	2651.9	0.2064	0.0001
298.15	2957.7	0.2302	0.0001
298.15	3331.8	0.2594	0.0001
298.15	3579.2	0.2786	0.0001
298.15	3794.4	0.2954	0.0001
298.15	4113.7	0.3202	0.0001
298.15	4496.2	0.35	0.0001
298.15	4809	0.3743	0.0001
308.15	159.2	0.010564946	1.11e-07
308.15	341.5	0.02267	1e-05
308.15	679.1	0.0451	0.0001
308.15	1020.1	0.0677	0.0001
308.15	1362.8	0.0904	0.0001
308.15	1571.3	0.1043	0.0001
308.15	1866.1	0.1238	0.0001
308.15	2042.2	0.1355	0.0001
308.15	2217.5	0.1472	0.0001
308.15	2533.9	0.16815651	2.4e-05
308.15	2895.7	0.1922	0.0001
308.15	3174.6	0.2107	0.0001
308.15	3582.7	0.2378	0.0001
308.15	4097.3	0.2719	0.0001
308.15	4421.4	0.2934	0.0001
308.15	4891.1	0.3246	0.0001
308.15	5037.3	0.3343	0.0001
318.15	254.4	0.0143	0.0001
318.15	453.9	0.0255	0.0001
318.15	885.1	0.0497	0.0001
318.15	1244.8	0.07	0.0001
318.15	1583.1	0.089	0.0001
318.15	1787.8	0.1005	0.0001
318.15	2043.3	0.1148	0.0001
318.15	2365.1	0.1329	0.0001
318.15	2645.7	0.1487	0.0001
318.15	2997.6	0.1685	0.0001
318.15	3333.3	0.1873	0.0001
318.15	3508.4	0.1972	0.0001
318.15	3885.1	0.2184	0.0001
318.15	4147.7	0.2331	0.0001
318.15	4546.9	0.2555	0.0001
318.15	5007.3	0.2814	0.0001
318.15	5387.3	0.3028	0.0001
318.15	5721.6	0.3216	0.0001

System: butan-1-ol + carbon dioxide; phases: Liquid, Gas
Property: Mole fraction of carbon dioxide (Liquid); method: Material Balance
Temperature, K	Pressure, kPa of carbon dioxide	Mole fraction of carbon dioxide	uncertainty
288.15	127.3	0.0123	0.0001
288.15	353.4	0.0343	0.0001
288.15	628.3	0.0609	0.0001
288.15	871.5	0.0845	0.0001
288.15	1002.6	0.0972	0.0001
288.15	1317.5	0.1278	0.0001
288.15	1530.7	0.1484	0.0001
288.15	1763.7	0.171	0.0001
288.15	1986.6	0.1926	0.0001
288.15	2189.8	0.2124	0.0001
288.15	2466.7	0.2392	0.0001
288.15	2825.8	0.274	0.001
288.15	3252.2	0.3154	0.0001
288.15	3747.3	0.3634	0.0001
298.15	174.7	0.0142	0.0001
298.15	352.2	0.0286	0.0001
298.15	682.5	0.0554	0.0001
298.15	866.7	0.0704	0.0001
298.15	1219.8	0.099	0.0001
298.15	1486.6	0.1208	0.0001
298.15	1676.3	0.1362	0.0001
298.15	1953	0.1586	0.0001
298.15	2237.5	0.1818	0.0001
298.15	2442.6	0.198413	3.2e-05
298.15	2801.5	0.227566	4.1e-05
298.15	3162.8	0.2569	0.0001
298.15	3435.4	0.2791	0.0001
298.15	3812.7	0.3097	0.0001
298.15	4252.9	0.3455	0.0001
298.15	4734.8	0.3846	0.0001
298.15	5066.7	0.4116	0.0001
308.15	66.7	0.0045	0.0001
308.15	473.8	0.0323	0.0001
308.15	742.5	0.0506	0.0001
308.15	982.7	0.067	0.0001
308.15	1316.2	0.08971	1e-05
308.15	1708.2	0.1164	0.0001
308.15	2180.5	0.1486	0.0001
308.15	2544.2	0.1734	0.0001
308.15	2823.7	0.1925	0.0001
308.15	3195.3	0.2178	0.0001
308.15	3576.7	0.2438	0.0001
308.15	3948.6	0.2691	0.0001
308.15	4214.9	0.2873	0.0001
308.15	4586.6	0.3126	0.0001
308.15	4968.2	0.3386	0.0001
308.15	5351.1	0.3647	0.0001
308.15	5617.4	0.3829	0.0001
318.15	198.1	0.012	0.0001
318.15	380.1	0.023	0.0001
318.15	732.6	0.0443	0.0001
318.15	922.4	0.0558	0.0001
318.15	1314.1	0.0795	0.0001
318.15	1698.8	0.1028	0.0001
318.15	1952.3	0.1181	0.0001
318.15	2167.2	0.1311	0.0001
318.15	2528.9	0.153	0.0001
318.15	3014.1	0.1824	0.0001
318.15	3674.1	0.2223	0.0001
318.15	4007.1	0.2425	0.0001
318.15	4403.1	0.2665	0.0001
318.15	4735.6	0.2866	0.0001
318.15	5454.3	0.33	0.0001
318.15	5916.5	0.3581	0.0001

System: pentan-1-ol + carbon dioxide; phases: Liquid, Gas
Property: Mole fraction of carbon dioxide (Liquid); method: Material Balance
Temperature, K	Pressure, kPa of carbon dioxide	Mole fraction of carbon dioxide	uncertainty
288.15	233.1	0.0241	0.0001
288.15	572.5	0.05921	1e-05
288.15	844.3	0.0873	0.0001
288.15	1212.9	0.1254	0.0001
288.15	1665.6	0.1723	0.0001
288.15	1879	0.1943	0.0001
288.15	2262.9	0.234	0.0001
288.15	2578.2	0.2667	0.0001
288.15	2968.6	0.307	0.0001
288.15	3207.2	0.3317	0.0001
288.15	3624.3	0.3748	0.0001
298.15	251.6	0.0214	0.0001
298.15	415.6	0.0354	0.0001
298.15	770.5	0.0656	0.0001
298.15	1090.1	0.0927	0.0001
298.15	1339.8	0.114	0.0001
298.15	1655.3	0.1408	0.0001
298.15	1965.6	0.1672	0.0001
298.15	2245.4	0.191	0.0001
298.15	2554.9	0.2174	0.0001
298.15	2834.3	0.2411	0.0001
298.15	3210.9	0.2732	0.0001
298.15	3571.8	0.3039	0.0001
298.15	3982.4	0.3388	0.0001
298.15	4272.8	0.3635	0.0001
298.15	4669.2	0.3972	0.0001
298.15	5001.3	0.4255	0.0001
308.15	166.9	0.012	0.0001
308.15	404.6	0.0291	0.0001
308.15	809.2	0.0583	0.0001
308.15	1157	0.0833	0.0001
308.15	1582.1	0.1139	0.0001
308.15	1972.2	0.142	0.0001
308.15	2372.8	0.1708	0.0001
308.15	2712.6	0.1953	0.0001
308.15	3059.8	0.2203	0.0001
308.15	3482.4	0.2507	0.0001
308.15	3826.8	0.2755	0.0001
308.15	4276.4	0.3079	0.0001
308.15	4795.3	0.3452	0.0001
308.15	5028.6	0.362	0.0001
308.15	5335.8	0.3841	0.0001
308.15	5876.2	0.4231	0.0001
318.15	153.7	0.0097	0.0001
318.15	321.8	0.0202	0.0001
318.15	530.6	0.0333	0.0001
318.15	841.3	0.0528	0.0001
318.15	1183.2	0.0743	0.0001
318.15	1561.7	0.0981	0.0001
318.15	1916.6	0.1204	0.0001
318.15	2421.5	0.1521	0.0001
318.15	2853.4	0.1792	0.0001
318.15	3270.5	0.2054	0.0001
318.15	3642.9	0.2288	0.0001
318.15	4050.7	0.2544	0.0001
318.15	4476.4	0.2811	0.0001
318.15	4875.3	0.3062	0.0001
318.15	5224.1	0.3281	0.0001
318.15	5696.2	0.3578	0.0001

System: 1,2-ethanediol + carbon dioxide; phases: Liquid, Gas
Property: Mole fraction of carbon dioxide (Liquid); method: Material Balance
Temperature, K	Pressure, kPa of carbon dioxide	Mole fraction of carbon dioxide	uncertainty
288.15	94.2	0.0023	0.0001
288.15	218.3	0.0054	0.0001
288.15	435.5	0.0107	0.0001
288.15	617.5	0.0151	0.0001
288.15	918.8	0.0225	0.0001
288.15	1208.9	0.0296	0.0001
288.15	1672.8	0.041	0.0001
288.15	1963	0.0481	0.0001
288.15	2377.5	0.0583	0.0001
288.15	2694.1	0.066	0.0001
288.15	2931.6	0.0719	0.0001
288.15	3322.8	0.0814	0.0001
298.15	171.2	0.0036	0.0001
298.15	361.2	0.0076	0.0001
298.15	722.8	0.0152	0.0001
298.15	1103.2	0.0231	0.0001
298.15	1531.6	0.0321	0.0001
298.15	1994.1	0.0418	0.0001
298.15	2437.5	0.0511	0.0001
298.15	2916.3	0.0612	0.0001
298.15	3367.2	0.0706	0.0001
298.15	3708.9	0.0778	0.0001
298.15	4214.4	0.0884	0.0001
308.15	241.7	0.0045	0.0001
308.15	570.8	0.0106	0.0001
308.15	936.7	0.0174	0.0001
308.15	1391.3	0.0259	0.0001
308.15	1743.5	0.0325	0.0001
308.15	2299.4	0.0428	0.0001
308.15	2653.1	0.0494	0.0001
308.15	2910.3	0.0542	0.0001
308.15	3372.2	0.0628	0.0001
308.15	3636.1	0.0677	0.0001
308.15	3971.8	0.074	0.0001
308.15	4242.9	0.079	0.0001
308.15	4617.5	0.086	0.0001
308.15	5035.4	0.0938	0.0001
318.15	146.1	0.0024	0.0001
318.15	455.5	0.0075	0.0001
318.15	821.3	0.0135	0.0001
318.15	1294.2	0.0213	0.0001
318.15	1610.3	0.0265	0.0001
318.15	2150.5	0.0354	0.0001
318.15	2478.1	0.0408	0.0001
318.15	2907.7	0.0479	0.0001
318.15	3256.4	0.0537	0.0001
318.15	3691.9	0.0608	0.0001
318.15	4072.5	0.0671	0.0001
318.15	4403.6	0.0726	0.0001
318.15	4860.1	0.0801	0.0001
318.15	5299.6	0.0873	0.0001
318.15	5789.8	0.0954	0.0001

System: 1,2-propanediol + carbon dioxide; phases: Liquid, Gas
Property: Mole fraction of carbon dioxide (Liquid); method: Material Balance
Temperature, K	Pressure, kPa of carbon dioxide	Mole fraction of carbon dioxide	uncertainty
288.15	232.2	0.0077	0.0001
288.15	521.7	0.0173	0.0001
288.15	802.9	0.0265	0.0001
288.15	1119.5	0.037	0.0001
288.15	1423.6	0.0471	0.0001
288.15	1765.2	0.0584	0.0001
288.15	2032	0.0672	0.0001
288.15	2495.3	0.0825	0.0001
288.15	2872.9	0.095	0.0001
288.15	3347.3	0.1107	0.0001
298.15	137.3	0.0036	0.0001
298.15	382.9	0.01	0.0001
298.15	645.3	0.0169	0.0001
298.15	920.3	0.0241	0.0001
298.15	1276.5	0.0335	0.0001
298.15	1542.3	0.0405	0.0001
298.15	1911.9	0.0501	0.0001
298.15	2382.9	0.0625	0.0001
298.15	2652.1	0.0696	0.0001
298.15	2923.2	0.0767	0.0001
298.15	3285.7	0.0861	0.0001
298.15	3698.4	0.097	0.0001
308.15	127.7	0.0028	0.0001
308.15	452.2	0.0099	0.0001
308.15	731.9	0.016	0.0001
308.15	954.6	0.0209	0.0001
308.15	1236.4	0.0271	0.0001
308.15	1540.9	0.0338	0.0001
308.15	1872.2	0.041	0.0001
308.15	2188.6	0.048	0.0001
308.15	2400.5	0.0526	0.0001
308.15	2743.2	0.0601	0.0001
308.15	3092.9	0.0678	0.0001
308.15	3415	0.0748	0.0001
308.15	3849.4	0.0843	0.0001
308.15	4357.2	0.0955	0.0001
308.15	4880.3	0.1069	0.0001
308.15	5201.9	0.114	0.0001
318.15	174.3	0.0033	0.0001
318.15	452.6	0.0086	0.0001
318.15	781.8	0.0149	0.0001
318.15	1075.4	0.0205	0.0001
318.15	1346.4	0.0256	0.0001
318.15	1657.7	0.0315	0.0001
318.15	2008.2	0.0382	0.0001
318.15	2347.9	0.0447	0.0001
318.15	2760.6	0.0525	0.0001
318.15	3034.3	0.0577	0.0001
318.15	3579.6	0.0681	0.0001
318.15	3908.8	0.0744	0.0001
318.15	4266.1	0.0811	0.0001
318.15	4673.2	0.0889	0.0001
318.15	5000.8	0.0951	0.0001
318.15	5429.1	0.1033	0.0001

System: acetone + carbon dioxide; phases: Liquid, Gas
Property: Mole fraction of carbon dioxide (Liquid); method: Material Balance
Temperature, K	Pressure, kPa of carbon dioxide	Mole fraction of carbon dioxide	uncertainty
288.15	118.2	0.0229	0.0001
288.15	302.7	0.0586	0.0001
288.15	528.1	0.1022	0.0001
288.15	878.4	0.17	0.0001
288.15	1159.3	0.2243	0.0001
288.15	1476.5	0.2857	0.0001
288.15	1957.6	0.3788	0.0001
288.15	2337.8	0.4524	0.0001
288.15	2706.7	0.5237	0.0001
288.15	3058.3	0.5918	0.0001
298.15	234.2	0.0377	0.0001
298.15	544	0.0876	0.0001
298.15	908.3	0.1463	0.0001
298.15	1327.7	0.2138	0.0001
298.15	1637.8	0.2638	0.0001
298.15	2057.6	0.3314	0.0001
298.15	2416.5	0.3892	0.0001
298.15	2851.9	0.4593	0.0001
298.15	3287.8	0.5295	0.0001
298.15	3616.9	0.5825	0.0001
298.15	4030.2	0.6491	0.0001
298.15	2416.5	0.3892	0.0001
308.15	315.4	0.0436	0.0001
308.15	637.7	0.0881	0.0001
308.15	920.5	0.1272	0.0001
308.15	1248	0.1724	0.0001
308.15	1617.6	0.2235	0.0001
308.15	2149	0.2969	0.0001
308.15	2504.4	0.346	0.0001
308.15	2845.3	0.3931	0.0001
308.15	3074.9	0.4248	0.0001
308.15	3332.6	0.4604	0.0001
308.15	3781.3	0.5224	0.0001
308.15	4105.7	0.5672	0.0001
308.15	4593.9	0.6346	0.0001
308.15	5061.7	0.6992	0.0001
318.15	61.7	0.0075	0.0001
318.15	259.3	0.0317	0.0001
318.15	541	0.0662	0.0001
318.15	987.1	0.1207	0.0001
318.15	1433.2	0.1753	0.0001
318.15	1879.4	0.23	0.0001
318.15	2245.3	0.2747	0.0001
318.15	2650.1	0.3242	0.0001
318.15	2919.4	0.3571	0.0001
318.15	3361.7	0.4112	0.0001
318.15	3728.8	0.4561	0.0001
318.15	4092	0.5005	0.0001
318.15	4477.6	0.5477	0.0001
318.15	4913.5	0.601	0.0001
318.15	5329.1	0.6519	0.0001

System: butanone + carbon dioxide; phases: Liquid, Gas
Property: Mole fraction of carbon dioxide (Liquid); method: Material Balance
Temperature, K	Pressure, kPa of carbon dioxide	Mole fraction of carbon dioxide	uncertainty
288.15	316.1	0.0633	0.0001
288.15	625.7	0.1252	0.0001
288.15	1011.6	0.2024	0.0001
288.15	1468.9	0.2939	0.0001
288.15	1954.7	0.3912	0.0001
288.15	2163.2	0.4329	0.0001
288.15	2323.6	0.465	0.0001
288.15	2549.1	0.5101	0.0001
288.15	2801.8	0.5607	0.0001
288.15	3101.4	0.6206	0.0001
298.15	293.2	0.0484	0.0001
298.15	567.3	0.0937	0.0001
298.15	885.7	0.1462	0.0001
298.15	1329.1	0.2194	0.0001
298.15	1714.7	0.2831	0.0001
298.15	1969.9	0.3252	0.0001
298.15	2221.8	0.3668	0.0001
298.15	2636.2	0.4352	0.0001
298.15	3090.6	0.5102	0.0001
298.15	3572.8	0.5898	0.0001
298.15	3832	0.6326	0.0001
308.15	158.3	0.023	0.0001
308.15	377.8	0.0549	0.0001
308.15	739.6	0.1076	0.0001
308.15	1136.2	0.1652	0.0001
308.15	1521.8	0.2213	0.0001
308.15	1895.7	0.2757	0.0001
308.15	2271.4	0.3303	0.0001
308.15	2639.1	0.3838	0.0001
308.15	3087.4	0.449	0.0001
308.15	3456.9	0.5027	0.0001
308.15	3923.7	0.5706	0.0001
308.15	4372.2	0.6358	0.0001
308.15	4801	0.6982	0.0001
308.15	5219.3	0.759	0.0001
318.15	218.5	0.0282	0.0001
318.15	678.6	0.0877	0.0001
318.15	1103.9	0.1427	0.0001
318.15	1454.5	0.188	0.0001
318.15	1807.9	0.2336	0.0001
318.15	2237.7	0.2892	0.0001
318.15	2675.4	0.3456	0.0001
318.15	2979.5	0.3851	0.0001
318.15	3264.1	0.4218	0.0001
318.15	3654.7	0.4723	0.0001
318.15	4083.3	0.5277	0.0001
318.15	4520.3	0.5842	0.0001
318.15	5000.5	0.6462	0.0001
318.15	5421.6	0.7007	0.0001

System: 2-methoxyethan-1-ol + carbon dioxide; phases: Liquid, Gas
Property: Mole fraction of carbon dioxide (Liquid); method: Material Balance
Temperature, K	Pressure, kPa of carbon dioxide	Mole fraction of carbon dioxide	uncertainty
288.15	173.8	0.0272	0.0001
288.15	425.7	0.0665	0.0001
288.15	764.3	0.1195	0.0001
288.15	1090.8	0.1705	0.0001
288.15	1415.8	0.2213	0.0001
288.15	1837.9	0.2873	0.0001
288.15	2292.7	0.3584	0.0001
288.15	2720.2	0.4252	0.0001
288.15	3258.8	0.5094	0.0001
288.15	3790.8	0.5926	0.0001
298.15	329.1	0.0344	0.0001
298.15	633.9	0.0663	0.0001
298.15	1026.4	0.1073	0.0001
298.15	1436.8	0.1502	0.0001
298.15	1770.9	0.1851	0.0001
298.15	2263.2	0.2366	0.0001
298.15	2689	0.2811	0.0001
298.15	3141.5	0.3284	0.0001
298.15	3591.3	0.3754	0.0001
298.15	4071.7	0.4256	0.0001
308.15	272.5	0.022	0.0001
308.15	571.3	0.0461	0.0001
308.15	976.2	0.0788	0.0001
308.15	1315.8	0.1062	0.0001
308.15	1772.9	0.1431	0.0001
308.15	2164.1	0.1746	0.0001
308.15	2662.5	0.2149	0.0001
308.15	3091.1	0.2494	0.0001
308.15	3523.6	0.2843	0.0001
308.15	3940.5	0.318	0.0001
308.15	4441.3	0.3584	0.0001
308.15	4800.9	0.3874	0.0001
308.15	5275.3	0.4257	0.0001
318.15	125.3	0.0082	0.0001
318.15	480	0.0314	0.0001
318.15	942.2	0.0616	0.0001
318.15	1390.5	0.0909	0.0001
318.15	1723.6	0.1127	0.0001
318.15	2000.5	0.1308	0.0001
318.15	2577.2	0.1685	0.0001
318.15	3126.4	0.2044	0.0001
318.15	3578.3	0.2339	0.0001
318.15	4031.6	0.2635	0.0001
318.15	4593.7	0.3003	0.0001
318.15	5051.2	0.3302	0.0001
318.15	5427.1	0.3548	0.0001

System: 2-ethoxyethan-1-ol + carbon dioxide; phases: Liquid, Gas
Property: Mole fraction of carbon dioxide (Liquid); method: Material Balance
Temperature, K	Pressure, kPa of carbon dioxide	Mole fraction of carbon dioxide	uncertainty
288.15	101.2	0.0169	0.0001
288.15	394.8	0.066	0.0001
288.15	781.8	0.1306	0.0001
288.15	1092.7	0.1826	0.0001
288.15	1553.1	0.2595	0.0001
288.15	1943.3	0.3247	0.0001
288.15	2301.6	0.3846	0.0001
288.15	2767.8	0.4625	0.0001
288.15	3111.9	0.52	0.0001
288.15	3590.5	0.5999	0.0001
298.15	337.5	0.0403	0.0001
298.15	898.7	0.1073	0.0001
298.15	1352.2	0.1614	0.0001
298.15	1801.8	0.2151	0.0001
298.15	2190.3	0.2615	0.0001
298.15	2445.1	0.2919	0.0001
298.15	2726.9	0.3255	0.0001
298.15	3106.5	0.3708	0.0001
298.15	3548.4	0.4236	0.0001
298.15	3979.8	0.4751	0.0001
308.15	267.1	0.0253	0.0001
308.15	534.9	0.0508	0.0001
308.15	928	0.0881	0.0001
308.15	1316.5	0.1249	0.0001
308.15	1722.6	0.1635	0.0001
308.15	2114.7	0.2007	0.0001
308.15	2519	0.2391	0.0001
308.15	2920.3	0.2772	0.0001
308.15	3373.4	0.3202	0.0001
308.15	3789.8	0.3597	0.0001
308.15	4133.5	0.3923	0.0001
308.15	4584.2	0.4351	0.0001
308.15	5093.3	0.4834	0.0001
318.15	198.5	0.0162	0.0001
318.15	487.3	0.0398	0.0001
318.15	953.9	0.0779	0.0001
318.15	1376.4	0.1124	0.0001
318.15	1796.2	0.1467	0.0001
318.15	2100.7	0.1716	0.0001
318.15	2587	0.2113	0.0001
318.15	3092.2	0.2525	0.0001
318.15	3419.8	0.2793	0.0001
318.15	3887.4	0.3175	0.0001
318.15	4219.6	0.3446	0.0001
318.15	4650.8	0.3798	0.0001
318.15	5107.7	0.4171	0.0001
318.15	5565.1	0.4545	0.0001
