Measured thermophysical data. Solubilities of Benzene Derivatives in Supercritical Carbon Dioxide
Source: J. Chem. Eng. Data, 2011, 10.1021/je100863p
Compound 1: carbon dioxide, CO2, InChI=1S/CO2/c2-1-3, purity 99%
Compound 2: 1-chloro-2,4-dinitrobenzene, C6H3ClN2O4, InChI=1S/C6H3ClN2O4/c7-5-2-1-4(8(10)11)3-6(5)9(12)13/h1-3H, purity 99%
Compound 3: 1,3-dinitrobenzene, C6H4N2O4, InChI=1S/C6H4N2O4/c9-7(10)5-2-1-3-6(4-5)8(11)12/h1-4H, purity 98%

System: 1-chloro-2,4-dinitrobenzene + carbon dioxide; phases: Fluid (supercritical or subcritical phases), Crystal
Property: Mole fraction of 1-chloro-2,4-dinitrobenzene (Fluid (supercritical or subcritical phases)); method: Gravimetric
Pressure, kPa	Temperature, K	Mole fraction of 1-chloro-2,4-dinitrobenzene	uncertainty
9500	308	0.00283	0.00044
9500	313	0.00178	0.00037
10500	308	0.00355	0.0005
10500	313	0.00252	0.00042
11500	308	0.00421	0.00058
11500	313	0.00323	0.00052
12500	308	0.00499	0.00064
12500	313	0.00426	0.00064
13500	308	0.00547	0.00067
13500	313	0.00517	0.00072
14500	308	0.00588	0.00071
14500	313	0.00619	0.00084

System: 1,3-dinitrobenzene + carbon dioxide; phases: Fluid (supercritical or subcritical phases), Crystal
Property: Mole fraction of 1,3-dinitrobenzene (Fluid (supercritical or subcritical phases)); method: Gravimetric
Pressure, kPa	Temperature, K	Mole fraction of 1,3-dinitrobenzene	uncertainty
9500	308	0.00205	0.00043
9500	318	0.00057	0.00017
9500	328	0.00019	0.00011
10500	308	0.00293	0.00044
10500	318	0.00132	0.00037
10500	328	0.00045	0.00016
11500	308	0.00342	0.00047
11500	318	0.00225	0.0004
11500	328	0.00094	0.00023
12500	308	0.00409	0.00054
12500	318	0.00283	0.00042
12500	328	0.00142	0.00027
13500	308	0.00461	0.00062
13500	318	0.00353	0.00049
13500	328	0.00198	0.0003
14500	308	0.00554	0.00075
14500	318	0.00412	0.00052
14500	328	0.00233	0.00031
