Measured thermophysical data. Density of Diisodecyl Phthalate at Temperatures from (283.15 to 363.15) K and Pressures from (0.1 to 65) MPa
Source: J. Chem. Eng. Data, 2010, 10.1021/je1001413
Compound 1: 3-methylnonyl 1,2-benzenedioate, C28H46O4, InChI=1S/C28H46O4/c1-23(2)17-11-7-5-9-15-21-31-27(29)25-19-13-14-20-26(25)28(30)32-22-16-10-6-8-12-18-24(3)4/h13-14,19-20,23-24H,5-12,15-18,21-22H2,1-4H3

System: 3-methylnonyl 1,2-benzenedioate; phases: Liquid
Property: Mass density, kg/m3 (Liquid); method: Vibrating tube method
Temperature, K	Pressure, kPa	Mass density, kg/m3	uncertainty
283.15	100	974.5	2.9
283.15	200	974.5	2.9
283.15	400	974.6	2.9
283.15	600	974.7	2.9
283.15	800	974.9	2.9
283.15	1010	975	2.9
283.15	2000	975.5	2.9
283.15	3020	976	2.9
283.15	4000	976.6	2.9
283.15	5000	977.1	2.9
283.15	6000	977.7	2.9
283.15	6980	978.2	2.9
283.15	8010	978.7	2.9
283.15	9020	979.3	2.9
283.15	10030	979.8	2.9
283.15	15000	982.4	3
283.15	19970	985	3
283.15	25030	987.3	3
283.15	29980	989.8	3
283.15	35030	992.1	3
283.15	40000	994.5	3
283.15	45030	996.6	3
283.15	49980	998.8	3
283.15	55030	1000.9	3
283.15	59990	1002.6	3
283.15	64990	1005.1	3
288.15	100	970.7	2.9
288.15	200	970.8	2.9
288.15	420	970.9	2.9
288.15	600	971	2.9
288.15	790	971.1	2.9
288.15	1000	971.2	2.9
288.15	1990	971.7	2.9
288.15	3020	972.3	2.9
288.15	4010	972.9	2.9
288.15	5000	973.4	2.9
288.15	6010	974	2.9
288.15	7020	974.5	2.9
288.15	7980	975	2.9
288.15	9000	975.5	2.9
288.15	10000	976.1	2.9
288.15	14990	978.7	2.9
288.15	19970	981.4	2.9
288.15	25000	983.8	3
288.15	30000	986.4	3
288.15	34990	988.8	3
288.15	40020	991.1	3
288.15	45000	993.3	3
288.15	49980	995.7	3
288.15	54980	997.7	3
288.15	60000	999.9	3
288.15	65000	1002	3
293.15	100	967	2.9
293.15	200	967.1	2.9
293.15	400	967.2	2.9
293.15	630	967.3	2.9
293.15	790	967.4	2.9
293.15	1000	967.5	2.9
293.15	2010	968.1	2.9
293.15	3020	968.7	2.9
293.15	4020	969.2	2.9
293.15	4970	969.8	2.9
293.15	5980	970.3	2.9
293.15	7020	970.9	2.9
293.15	8000	971.5	2.9
293.15	9020	972	2.9
293.15	10010	972.6	2.9
293.15	15010	975.2	2.9
293.15	20000	977.9	2.9
293.15	25030	980.5	2.9
293.15	30020	983	3
293.15	35030	985.4	3
293.15	40010	987.8	3
293.15	44980	990.1	3
293.15	50020	992.4	3
293.15	55020	994.6	3
293.15	60020	996.8	3
293.15	65000	998.9	3
298.15	100	963.4	2.9
298.15	200	963.4	2.9
298.15	410	963.6	2.9
298.15	620	963.7	2.9
298.15	820	963.8	2.9
298.15	1000	963.9	2.9
298.15	2020	964.5	2.9
298.15	3040	965	2.9
298.15	4030	965.7	2.9
298.15	4980	966.2	2.9
298.15	6070	966.8	2.9
298.15	7020	967.3	2.9
298.15	8040	967.9	2.9
298.15	9040	968.5	2.9
298.15	10030	969	2.9
298.15	15010	971.7	2.9
298.15	19990	974.4	2.9
298.15	25000	977	2.9
298.15	30020	979.6	2.9
298.15	35000	982.1	2.9
298.15	40020	984.5	3
298.15	44970	986.9	3
298.15	49990	989.2	3
298.15	54970	991.4	3
298.15	60000	993.7	3
298.15	65020	995.8	3
303.15	100	959.7	2.9
303.15	200	959.8	2.9
303.15	400	959.9	2.9
303.15	580	960	2.9
303.15	800	960.2	2.9
303.15	1000	960.3	2.9
303.15	2000	960.9	2.9
303.15	2990	961.4	2.9
303.15	4000	962	2.9
303.15	5000	962.6	2.9
303.15	6000	963.2	2.9
303.15	7000	963.8	2.9
303.15	7980	964.3	2.9
303.15	9000	964.9	2.9
303.15	10020	965.5	2.9
303.15	14970	968.2	2.9
303.15	20010	971	2.9
303.15	25030	973.6	2.9
303.15	30020	976.3	2.9
303.15	35000	978.8	2.9
303.15	40000	981.2	2.9
303.15	45000	983.6	3
303.15	50010	986	3
303.15	54980	988.3	3
303.15	60000	990.5	3
303.15	64990	992.7	3
308.15	100	956.2	2.9
308.15	200	956.2	2.9
308.15	410	956.4	2.9
308.15	610	956.5	2.9
308.15	800	956.6	2.9
308.15	1000	956.7	2.9
308.15	2010	957.3	2.9
308.15	3020	957.9	2.9
308.15	4000	958.5	2.9
308.15	5000	959.1	2.9
308.15	6000	959.7	2.9
308.15	7020	960.3	2.9
308.15	8000	960.8	2.9
308.15	9020	961.4	2.9
308.15	10000	962	2.9
308.15	15010	964.8	2.9
308.15	19990	967.6	2.9
308.15	25000	970.3	2.9
308.15	30010	973	2.9
308.15	35000	975.5	2.9
308.15	39990	978	2.9
308.15	44990	980.4	2.9
308.15	50010	982.9	3
308.15	55000	985.2	3
308.15	60000	987.4	3
308.15	65000	989.7	3
313.15	100	952.6	2.9
313.15	200	952.6	2.9
313.15	400	952.8	2.9
313.15	620	952.9	2.9
313.15	800	953	2.9
313.15	1030	953.1	2.9
313.15	2010	953.7	2.9
313.15	3000	954.3	2.9
313.15	4000	955	2.9
313.15	5020	955.5	2.9
313.15	5990	956.2	2.9
313.15	7030	956.7	2.9
313.15	8000	957.4	2.9
313.15	9020	957.9	2.9
313.15	10010	958.5	2.9
313.15	15010	961.4	2.9
313.15	20000	964.2	2.9
313.15	25030	967	2.9
313.15	30000	969.7	2.9
313.15	35020	972.2	2.9
313.15	40020	974.8	2.9
313.15	45010	977.2	2.9
313.15	49970	979.7	2.9
313.15	55000	982	2.9
313.15	59980	984.4	3
313.15	64970	986.6	3
323.15	100	945.4	2.8
323.15	210	945.5	2.8
323.15	400	945.6	2.8
323.15	600	945.7	2.8
323.15	800	945.9	2.8
323.15	1000	946	2.8
323.15	2000	946.6	2.8
323.15	3030	947.2	2.8
323.15	4030	947.9	2.8
323.15	5020	948.5	2.8
323.15	6010	949.1	2.9
323.15	7000	949.7	2.9
323.15	8000	950.3	2.9
323.15	9010	950.9	2.9
323.15	10020	951.6	2.9
323.15	15000	954.5	2.9
323.15	20010	957.5	2.9
323.15	25030	960.3	2.9
323.15	30010	963.2	2.9
323.15	34970	965.8	2.9
323.15	40000	968.5	2.9
323.15	45000	970.9	2.9
323.15	49980	973.5	2.9
323.15	54980	975.8	2.9
323.15	60000	978.3	2.9
323.15	65000	980.6	2.9
333.15	100	938.3	2.8
333.15	200	938.4	2.8
333.15	400	938.5	2.8
333.15	630	938.7	2.8
333.15	800	938.8	2.8
333.15	1000	938.9	2.8
333.15	2010	939.6	2.8
333.15	3000	940.2	2.8
333.15	4000	940.9	2.8
333.15	5000	941.5	2.8
333.15	6000	942.2	2.8
333.15	7030	942.8	2.8
333.15	7980	943.5	2.8
333.15	9010	944.1	2.8
333.15	10030	944.8	2.8
333.15	14990	947.9	2.8
333.15	20000	951	2.9
333.15	25000	953.8	2.9
333.15	30020	956.7	2.9
333.15	34990	959.4	2.9
333.15	39970	962.2	2.9
333.15	45020	964.8	2.9
333.15	50000	967.4	2.9
333.15	55020	969.8	2.9
333.15	60000	972.3	2.9
333.15	65000	974.7	2.9
343.15	100	931.2	2.8
343.15	220	931.3	2.8
343.15	430	931.5	2.8
343.15	610	931.6	2.8
343.15	810	931.8	2.8
343.15	1000	931.9	2.8
343.15	2000	932.6	2.8
343.15	3000	933.3	2.8
343.15	3980	934	2.8
343.15	5010	934.6	2.8
343.15	5980	935.3	2.8
343.15	7000	936	2.8
343.15	7990	936.6	2.8
343.15	9020	937.3	2.8
343.15	9980	937.9	2.8
343.15	15010	941.2	2.8
343.15	19990	944.3	2.8
343.15	25010	947.4	2.8
343.15	29980	950.4	2.9
343.15	35030	953.3	2.9
343.15	40030	956.1	2.9
343.15	45010	958.7	2.9
343.15	50050	961.4	2.9
343.15	55000	964	2.9
343.15	60000	966.5	2.9
343.15	65020	968.9	2.9
353.15	100	924.2	2.8
353.15	200	924.3	2.8
353.15	410	924.5	2.8
353.15	630	924.6	2.8
353.15	800	924.8	2.8
353.15	1010	924.9	2.8
353.15	2000	925.6	2.8
353.15	3000	926.3	2.8
353.15	3980	927	2.8
353.15	4990	927.7	2.8
353.15	6000	928.4	2.8
353.15	7000	929.1	2.8
353.15	8010	929.8	2.8
353.15	9000	930.5	2.8
353.15	10010	931.2	2.8
353.15	15040	934.6	2.8
353.15	20000	937.9	2.8
353.15	24970	941	2.8
353.15	29980	944.1	2.8
353.15	35010	947.1	2.8
353.15	40000	950	2.9
353.15	45000	952.7	2.9
353.15	49990	955.5	2.9
353.15	55000	958.1	2.9
353.15	60010	960.7	2.9
353.15	65020	963.2	2.9
363.15	100	917.2	2.8
363.15	200	917.3	2.8
363.15	420	917.4	2.8
363.15	600	917.6	2.8
363.15	800	917.7	2.8
363.15	990	917.9	2.8
363.15	2000	918.6	2.8
363.15	2980	919.4	2.8
363.15	3960	920.1	2.8
363.15	4970	920.9	2.8
363.15	5990	921.6	2.8
363.15	7020	922.3	2.8
363.15	7980	923	2.8
363.15	9030	923.8	2.8
363.15	10000	924.5	2.8
363.15	15000	928	2.8
363.15	19990	931.4	2.8
363.15	25010	934.7	2.8
363.15	30020	937.9	2.8
363.15	34980	940.9	2.8
363.15	39990	943.9	2.8
363.15	44980	946.8	2.8
363.15	49990	949.6	2.9
363.15	55000	952.3	2.9
363.15	60040	955	2.9
363.15	64990	957.6	2.9
