Measured thermophysical data. Calorimetric and Volumetric Study on Binary Mixtures 2,2,2-Trifluoroethanol + (1-Butyl-3-methylimidazolium Tetrafluoroborate or 1-Ethyl-3-methylimidazolium Tetrafluoroborate)
Source: J. Chem. Eng. Data, 2010, 10.1021/je100693c
Compound 1: 2,2,2-trifluoroethanol, C2H3F3O, InChI=1S/C2H3F3O/c3-2(4,5)1-6/h6H,1H2
Compound 2: 1-butyl-3-methylimidazolium tetrafluoroborate, C8H15BF4N2, InChI=1S/C8H15N2.BF4/c1-3-4-5-10-7-6-9(2)8-10;2-1(3,4)5/h6-8H,3-5H2,1-2H3;/q+1;-1
Compound 3: 1-ethyl-3-methylimidazolium tetrafluoroborate, C6H11BF4N2, InChI=1S/C6H11N2.BF4/c1-3-8-5-4-7(2)6-8;2-1(3,4)5/h4-6H,3H2,1-2H3;/q+1;-1

System: 2,2,2-trifluoroethanol; phases: Liquid
Fixed: Pressure, kPa = 101
Property: Mass density, kg/m3 (Liquid); method: Vibrating tube method
Temperature, K	Mass density, kg/m3	uncertainty
283.15	1408.2	0.8
293.14	1389.7	0.8
293.15	1391.1	0.8
303.15	1373.8	0.8
303.19	1372.4	0.8
313.15	1356.1	0.8
313.15	1354.8	0.8
323.15	1338	0.8
323.15	1336.6	0.8
333.15	1319.1	0.8
333.15	1317.8	0.8

System: 1-butyl-3-methylimidazolium tetrafluoroborate; phases: Liquid
Fixed: Pressure, kPa = 101
Property: Mass density, kg/m3 (Liquid); method: Vibrating tube method
Temperature, K	Mass density, kg/m3	uncertainty
283.15	1213.3	2.8
293.15	1205.9	2.8
303.15	1198.6	2.8
313.15	1191.4	2.7
323.15	1184.4	2.7
333.15	1177.4	2.7

System: 1-ethyl-3-methylimidazolium tetrafluoroborate; phases: Liquid
Fixed: Pressure, kPa = 101
Property: Mass density, kg/m3 (Liquid); method: Vibrating tube method
Temperature, K	Mass density, kg/m3	uncertainty
293.1	1284.3	3.2
303.11	1276.5	3.2
313.15	1269.2	3.1
323.14	1261.8	3.1
333.23	1254.6	3

System: 2,2,2-trifluoroethanol + 1-butyl-3-methylimidazolium tetrafluoroborate; phases: Liquid
Fixed: Pressure, kPa = 101
Property: Excess molar enthalpy (molar enthalpy of mixing), kJ/mol (Liquid); method: FLOW:UFactor:4
Temperature, K	Mole fraction of 1-butyl-3-methylimidazolium tetrafluoroborate	Excess molar enthalpy (molar enthalpy of mixing), kJ/mol	uncertainty
298.15	0.0878	0.72697	0.02774
298.15	0.1614	1.16886	0.04311
298.15	0.2042	1.27685	0.04677
298.15	0.2779	1.32843	0.04855
298.15	0.3392	1.26411	0.04633
298.15	0.3908	1.21034	0.04445
298.15	0.435	1.14379	0.04215
298.15	0.5065	0.99629	0.037
298.15	0.6581	0.67625	0.02587
298.15	0.6919	0.60585	0.02345
298.15	0.7549	0.49645	0.01969
298.15	0.8089	0.38035	0.01563
298.15	0.9059	0.16875	0.00837
323.15	0.0459	0.18114	0.00922
323.15	0.1137	0.47482	0.01908
323.15	0.2042	0.70339	0.02719
323.15	0.2779	0.74769	0.02867
323.15	0.3461	0.7241	0.02779
323.15	0.435	0.64256	0.02495
323.15	0.5359	0.53413	0.02116
323.15	0.6062	0.45079	0.01815
323.15	0.6978	0.3307	0.01402
323.15	0.822	0.1812	0.00886
323.15	0.885	0.1196	0.00683

System: 2,2,2-trifluoroethanol + 1-butyl-3-methylimidazolium tetrafluoroborate; phases: Liquid
Fixed: Pressure, kPa = 101
Property: Mass density, kg/m3 (Liquid); method: Vibrating tube method
Temperature, K	Mole fraction of 1-butyl-3-methylimidazolium tetrafluoroborate	Mass density, kg/m3	uncertainty
283.15	0	1408.2	0.8
283.15	0.1032	1360.8	0.8
283.15	0.2129	1322.2	0.9
283.15	0.299	1299.8	0.9
283.15	0.4022	1279.1	1
283.15	0.5028	1262.9	1.2
283.15	0.5808	1252.3	1.3
283.15	0.6912	1239.6	1.6
283.15	0.8062	1228.5	1.9
283.15	0.8945	1221.2	2.3
283.15	1	1213.3	2.8
293.15	0	1391.1	0.8
293.15	0.1032	1346.9	0.8
293.15	0.2129	1310.1	0.9
293.15	0.299	1288.8	0.9
293.15	0.4022	1269	1
293.15	0.5028	1253.4	1.1
293.15	0.5808	1243.3	1.3
293.15	0.6912	1231.2	1.6
293.15	0.8062	1220.5	1.9
293.15	0.8945	1213.3	2.3
293.15	1	1205.9	2.8
303.15	0	1373.8	0.8
303.15	0.1032	1332.9	0.8
303.15	0.2129	1298.1	0.9
303.15	0.299	1277.9	0.9
303.15	0.4022	1259.1	1
303.15	0.5028	1244.3	1.1
303.15	0.5808	1234.6	1.3
303.15	0.6912	1223.1	1.6
303.15	0.8062	1212.8	1.9
303.15	0.8945	1205.8	2.3
303.15	1	1198.6	2.8
313.15	0	1356.1	0.8
313.15	0.1032	1319	0.8
313.15	0.2129	1286.1	0.9
313.15	0.299	1267	0.9
313.15	0.4022	1249.4	1
313.15	0.5028	1235.2	1.1
313.15	0.5808	1226	1.3
313.15	0.6912	1215	1.5
313.15	0.8062	1205.1	1.9
313.15	0.8945	1198.3	2.2
313.15	1	1191.4	2.7
323.15	0	1338	0.8
323.15	0.1032	1304.9	0.8
323.15	0.2129	1274.3	0.8
323.15	0.299	1256.4	0.9
323.15	0.4022	1239.7	1
323.15	0.5028	1226.4	1.1
323.15	0.5808	1217.5	1.3
323.15	0.6912	1207	1.5
323.15	0.8062	1197.6	1.9
323.15	0.8945	1190.9	2.2
323.15	1	1184.4	2.7
333.15	0	1319.1	0.8
333.15	0.1032	1290.6	0.8
333.15	0.2129	1262.4	0.8
333.15	0.299	1245.8	0.9
333.15	0.4022	1230	1
333.15	0.5028	1217.4	1.1
333.15	0.5808	1209	1.2
333.15	0.6912	1199.1	1.5
333.15	0.8062	1190.1	1.8
333.15	0.8945	1183.6	2.2
333.15	1	1177.4	2.7

System: 2,2,2-trifluoroethanol + 1-ethyl-3-methylimidazolium tetrafluoroborate; phases: Liquid
Fixed: Pressure, kPa = 101
Property: Excess molar enthalpy (molar enthalpy of mixing), kJ/mol (Liquid); method: FLOW:UFactor:4
Temperature, K	Mole fraction of 1-ethyl-3-methylimidazolium tetrafluoroborate	Excess molar enthalpy (molar enthalpy of mixing), kJ/mol	uncertainty
298.15	0.0555	0.3888	0.01592
298.15	0.1114	0.62833	0.02423
298.15	0.1904	1.07315	0.03955
298.15	0.3199	1.20474	0.04417
298.15	0.4137	1.14203	0.04203
298.15	0.4847	1.04636	0.03872
298.15	0.5852	0.87011	0.03261
298.15	0.7016	0.64811	0.02491
298.15	0.79	0.46712	0.01863
298.15	0.9039	0.2119	0.00981
323.15	0.0555	0.22401	0.01029
323.15	0.1114	0.39018	0.016
323.15	0.1904	0.72071	0.02754
323.15	0.2477	0.75682	0.02871
323.15	0.3199	0.77578	0.02945
323.15	0.4137	0.71429	0.02733
323.15	0.4847	0.64682	0.02498
323.15	0.5852	0.52561	0.02077
323.15	0.7016	0.37981	0.0157
323.15	0.79	0.26457	0.0117
323.15	0.9216	0.09734	0.00617

System: 2,2,2-trifluoroethanol + 1-ethyl-3-methylimidazolium tetrafluoroborate; phases: Liquid
Fixed: Pressure, kPa = 101
Property: Mass density, kg/m3 (Liquid); method: Vibrating tube method
Temperature, K	Mole fraction of 1-ethyl-3-methylimidazolium tetrafluoroborate	Mass density, kg/m3	uncertainty
293.1	1	1284.3	3.2
293.14	0	1389.7	0.8
293.14	0.755	1299.6	1.9
293.15	0.099	1373.3	0.8
293.16	0.305	1340.6	0.9
293.17	0.5164	1318.4	1.2
303.11	1	1276.5	3.2
303.16	0.5164	1308.9	1.2
303.17	0.099	1359.1	0.8
303.17	0.755	1291.3	1.9
303.18	0.305	1329.4	0.9
303.19	0	1372.4	0.8
313.15	0	1354.8	0.8
313.15	0.099	1344.7	0.8
313.15	1	1269.2	3.1
313.16	0.305	1318.4	0.9
313.16	0.755	1282.9	1.9
313.19	0.5164	1299.3	1.2
323.12	0.099	1330.5	0.8
323.14	0.5164	1290.2	1.2
323.14	1	1261.8	3.1
323.15	0	1336.6	0.8
323.15	0.305	1307.3	0.9
323.2	0.755	1274.7	1.9
333.14	0.755	1266.8	1.9
333.15	0	1317.8	0.8
333.15	0.5164	1281.1	1.2
333.16	0.305	1296.4	0.9
333.2	0.099	1315.8	0.8
333.23	1	1254.6	3
