Measured thermophysical data. Conductance Studies of NaCl, KCl, NaBr, NaI, NaBPh4, Bu4NI, and NaClO4 in Water + 2-Butoxyethanol Mixtures at T = 298.15 K
Source: J. Chem. Eng. Data, 2010, 10.1021/je100259j
Compound 1: 2-butoxyethan-1-ol, C6H14O2, InChI=1S/C6H14O2/c1-2-3-5-8-6-4-7/h7H,2-6H2,1H3, purity 99.5%
Compound 2: water, H2O, InChI=1S/H2O/h1H2
Compound 3: sodium chloride, ClNa, InChI=1S/ClH.Na/h1H;/q;+1/p-1, purity 99%
Compound 4: potassium chloride, ClK, InChI=1S/ClH.K/h1H;/q;+1/p-1, purity 99%
Compound 5: sodium bromide, BrNa, InChI=1S/BrH.Na/h1H;/q;+1/p-1, purity 99%
Compound 6: sodium iodide, INa, InChI=1S/HI.Na/h1H;/q;+1/p-1, purity 99%
Compound 7: sodium tetraphenylboron, C24H20BNa, InChI=1S/C24H20B.Na/c1-5-13-21(14-6-1)25(22-15-7-2-8-16-22,23-17-9-3-10-18-23)24-19-11-4-12-20-24;/h1-20H;/q-1;+1, purity 99%
Compound 8: tetrabutylammonium iodide, C16H36IN, InChI=1S/C16H36N.HI/c1-5-9-13-17(14-10-6-2,15-11-7-3)16-12-8-4;/h5-16H2,1-4H3;1H/q+1;/p-1
Compound 9: sodium perchlorate, ClNaO4, InChI=1S/ClHO4.Na/c2-1(3,4)5;/h(H,2,3,4,5);/q;+1/p-1, purity 99%

System: 2-butoxyethan-1-ol; phases: Liquid
Property: Refractive index (Na D-line) (Liquid); method: Standard Abbe refractometry
Temperature, K	Pressure, kPa	Refractive index (Na D-line)	uncertainty
298.15	101.325	1.4172	0.0007

System: 2-butoxyethan-1-ol; phases: Liquid
Property: Mass density, kg/m3 (Liquid); method: Vibrating tube method
Temperature, K	Pressure, kPa	Mass density, kg/m3	uncertainty
298.15	101.325	896.058	0.297

System: 2-butoxyethan-1-ol; phases: Liquid
Property: Viscosity, Pa*s (Liquid); method: Capillary tube (Ostwald; Ubbelohde) method
Temperature, K	Pressure, kPa	Viscosity, Pa*s	uncertainty
298.15	101.325	0.0027956	2.19e-05

System: 2-butoxyethan-1-ol + water; phases: Liquid
Fixed: Temperature, K = 298.15
Fixed: Pressure, kPa = 101
Property: Viscosity, Pa*s (Liquid); method: Capillary tube (Ostwald; Ubbelohde) method
Mole fraction of 2-butoxyethan-1-ol	Viscosity, Pa*s	uncertainty
0.01	0.0011217	1.09e-05
0.025	0.0015199	1.39e-05
0.05	0.0021954	1.94e-05
0.075	0.0027634	2.45e-05
0.1	0.0031828	2.84e-05
0.15	0.0037113	3.38e-05
0.2	0.004014	3.71e-05

System: 2-butoxyethan-1-ol + water; phases: Liquid
Fixed: Temperature, K = 298.15
Fixed: Pressure, kPa = 101
Property: Relative permittivity at zero frequency (Liquid); method: UNKNOWN
Mole fraction of 2-butoxyethan-1-ol	Relative permittivity at zero frequency	uncertainty
0.01	74.74	1.5
0.025	68.67	1.38
0.05	58.85	1.18
0.075	50.77	1.02
0.1	44.78	0.9
0.15	36.81	0.74
0.2	30.4	0.61

System: 2-butoxyethan-1-ol + water; phases: Liquid
Fixed: Temperature, K = 298.15
Fixed: Pressure, kPa = 101
Property: Mass density, kg/m3 (Liquid); method: Vibrating tube method
Mole fraction of 2-butoxyethan-1-ol	Mass density, kg/m3	uncertainty
0.01	995.114	0.087
0.025	990.681	0.096
0.05	980.926	0.098
0.075	972.624	0.092
0.1	965.618	0.085
0.15	954.656	0.083
0.2	946.363	0.083

System: 2-butoxyethan-1-ol + sodium chloride + water; phases: Liquid
Fixed: Temperature, K = 298.15
Fixed: Pressure, kPa = 101
Property: Molar conductivity, S*m2/mol (Liquid); method: Precise Component Analyser type 6430B
Solvent: Mole fraction of 2-butoxyethan-1-ol	Amount concentration (molarity), mol/dm3 of sodium chloride	Molar conductivity, S*m2/mol	uncertainty
0.01	0.0008402	0.010394	2.4e-05
0.01	0.0015255	0.010304	2.4e-05
0.01	0.0022674	0.010229	2.4e-05
0.01	0.0030495	0.010166	2.4e-05
0.01	0.0046605	0.010057	2.4e-05
0.01	0.0061681	0.009974	2.3e-05
0.01	0.0074882	0.009909	2.3e-05
0.01	0.0089722	0.009842	2.3e-05
0.01	0.010401	0.009784	2.3e-05
0.01	0.01165	0.009736	2.3e-05
0.01	0.013079	0.009683	2.3e-05
0.025	0.0009121	0.008628	1.8e-05
0.025	0.0017354	0.008538	1.7e-05
0.025	0.0024201	0.008482	1.7e-05
0.025	0.0031992	0.00843	1.7e-05
0.025	0.004731	0.008342	1.7e-05
0.025	0.0061585	0.008279	1.7e-05
0.025	0.0076295	0.008221	1.7e-05
0.025	0.0090803	0.008167	1.7e-05
0.025	0.010669	0.008113	1.7e-05
0.025	0.011938	0.008073	1.7e-05
0.025	0.013344	0.008031	1.4e-05
0.05	0.0005122	0.006993	1.1e-05
0.05	0.0008548	0.006951	1.1e-05
0.05	0.0016898	0.006858	1.2e-05
0.05	0.0023052	0.006826	1.2e-05
0.05	0.0030944	0.006776	1.2e-05
0.05	0.004648	0.006695	1.2e-05
0.05	0.0061405	0.006632	1.2e-05
0.05	0.0075753	0.006581	1.2e-05
0.05	0.0089988	0.006535	1.2e-05
0.05	0.010397	0.006494	1.2e-05
0.05	0.011678	0.006459	1.2e-05
0.05	0.01305	0.006432	1e-05
0.075	0.0017864	0.005646	9e-06
0.075	0.0024834	0.005597	9e-06
0.075	0.0031864	0.005557	9e-06
0.075	0.0045833	0.005491	9e-06
0.075	0.0063127	0.005425	9e-06
0.075	0.0076564	0.005382	9e-06
0.075	0.0090402	0.005342	9e-06
0.075	0.010474	0.005305	9e-06
0.075	0.011753	0.005275	9e-06
0.075	0.012995	0.005247	9e-06
0.1	0.0010775	0.004785	6e-06
0.1	0.0018592	0.004714	6e-06
0.1	0.0026082	0.004663	6e-06
0.1	0.0033801	0.00462	6e-06
0.1	0.0047271	0.004558	6e-06
0.1	0.0063259	0.004499	6e-06
0.1	0.007668	0.004459	6e-06
0.1	0.0089786	0.004421	6e-06
0.1	0.010496	0.004383	6e-06
0.1	0.011841	0.004353	6e-06
0.1	0.01298	0.004329	8e-06
0.15	0.0009971	0.003568	5e-06
0.15	0.0016244	0.003503	5e-06
0.15	0.0023533	0.003447	5e-06
0.15	0.0030667	0.003402	5e-06
0.15	0.0044474	0.003333	5e-06
0.15	0.0058649	0.003277	4e-06
0.15	0.0071595	0.003234	4e-06
0.15	0.0084953	0.003195	4e-06
0.15	0.0097764	0.003163	4e-06
0.15	0.010983	0.003135	4e-06
0.15	0.012214	0.003109	5e-06
0.2	0.0010862	0.002808	3e-06
0.2	0.0018522	0.002728	3e-06
0.2	0.0025024	0.002678	3e-06
0.2	0.0032179	0.002632	3e-06
0.2	0.0045301	0.002566	3e-06
0.2	0.0059153	0.00251	3e-06
0.2	0.0072451	0.002465	3e-06
0.2	0.0084814	0.00243	3e-06
0.2	0.0096588	0.002399	3e-06
0.2	0.010963	0.002369	3e-06
0.2	0.012178	0.002344	3e-06

System: 2-butoxyethan-1-ol + potassium chloride + water; phases: Liquid
Fixed: Temperature, K = 298.15
Fixed: Pressure, kPa = 101
Property: Molar conductivity, S*m2/mol (Liquid); method: Precise Component Analyser type 6430B
Solvent: Mole fraction of 2-butoxyethan-1-ol	Amount concentration (molarity), mol/dm3 of potassium chloride	Molar conductivity, S*m2/mol	uncertainty
0.01	0.0008665	0.012247	2.8e-05
0.01	0.0015916	0.012161	2.8e-05
0.01	0.0031421	0.012021	2.8e-05
0.01	0.0046966	0.011915	2.7e-05
0.01	0.0061779	0.011843	2.7e-05
0.01	0.0076429	0.011781	2.7e-05
0.01	0.0091143	0.011724	2.7e-05
0.01	0.010578	0.011674	2.7e-05
0.01	0.011947	0.011629	2.7e-05
0.025	0.0009753	0.010198	2.1e-05
0.025	0.0017923	0.010124	2.1e-05
0.025	0.0034814	0.010006	2e-05
0.025	0.0049038	0.009934	2e-05
0.025	0.0064174	0.009874	2e-05
0.025	0.0077752	0.009826	2.1e-05
0.025	0.0092285	0.00978	2.1e-05
0.025	0.010688	0.009739	2.1e-05
0.025	0.012009	0.009704	2.1e-05
0.025	0.013335	0.009671	1.8e-05
0.05	0.0008583	0.0082	1.3e-05
0.05	0.0015907	0.008113	1.3e-05
0.05	0.0024868	0.008031	1.3e-05
0.05	0.0031687	0.00798	1.5e-05
0.05	0.0046824	0.007881	1.5e-05
0.05	0.00641	0.007788	1.3e-05
0.05	0.0077069	0.007726	1.3e-05
0.05	0.0091412	0.007663	1.5e-05
0.05	0.010555	0.007603	1.3e-05
0.05	0.011832	0.007552	1.5e-05
0.05	0.013251	0.0075	1.4e-05
0.075	0.0021108	0.006612	1e-05
0.075	0.0031851	0.006545	1.1e-05
0.075	0.0044013	0.006486	1.1e-05
0.075	0.005689	0.006434	1e-05
0.075	0.0073113	0.006379	1e-05
0.075	0.0088116	0.006336	1.1e-05
0.075	0.010221	0.006299	1e-05
0.075	0.011855	0.00626	9e-06
0.075	0.013224	0.006232	9e-06
0.075	0.014361	0.006213	1e-05
0.1	0.0007099	0.005573	9e-06
0.1	0.0016322	0.005476	8e-06
0.1	0.0023197	0.005425	8e-06
0.1	0.003023	0.005379	8e-06
0.1	0.0045026	0.005302	8e-06
0.1	0.0059264	0.005241	8e-06
0.1	0.0073031	0.00519	8e-06
0.1	0.0088166	0.005142	8e-06
0.1	0.010226	0.005102	8e-06
0.1	0.01147	0.00507	8e-06
0.1	0.012786	0.005038	8e-06
0.15	0.0008774	0.004026	5e-06
0.15	0.0016693	0.003946	6e-06
0.15	0.0023866	0.003886	5e-06
0.15	0.003086	0.003833	5e-06
0.15	0.0046139	0.003745	5e-06
0.15	0.0061071	0.003677	5e-06
0.15	0.0075326	0.003617	5e-06
0.15	0.0089301	0.003567	5e-06
0.15	0.010435	0.003518	5e-06
0.15	0.011725	0.00348	5e-06
0.15	0.012962	0.003446	5e-06
0.15	0.014376	0.00341	6e-06
0.15	0.015648	0.00338	4e-06
0.2	0.0012025	0.003071	4e-06
0.2	0.0020628	0.002991	4e-06
0.2	0.0026415	0.002948	4e-06
0.2	0.0035065	0.002892	4e-06
0.2	0.0047676	0.002825	4e-06
0.2	0.0061888	0.002764	4e-06
0.2	0.0075456	0.002714	4e-06
0.2	0.0088837	0.002671	4e-06
0.2	0.0102	0.002634	4e-06
0.2	0.011592	0.002599	4e-06
0.2	0.012663	0.002574	4e-06
0.2	0.013876	0.002548	4e-06
0.2	0.015077	0.002524	4e-06

System: 2-butoxyethan-1-ol + sodium bromide + water; phases: Liquid
Fixed: Temperature, K = 298.15
Fixed: Pressure, kPa = 101
Property: Molar conductivity, S*m2/mol (Liquid); method: Precise Component Analyser type 6430B
Solvent: Mole fraction of 2-butoxyethan-1-ol	Amount concentration (molarity), mol/dm3 of sodium bromide	Molar conductivity, S*m2/mol	uncertainty
0.01	0.0009549	0.010506	2.6e-05
0.01	0.0017739	0.010404	2.5e-05
0.01	0.0024478	0.010341	2.5e-05
0.01	0.0031246	0.010288	2.5e-05
0.01	0.0048551	0.010176	2.5e-05
0.01	0.0065732	0.010095	2.5e-05
0.01	0.0079497	0.010035	2.5e-05
0.01	0.0095156	0.009973	2.4e-05
0.01	0.011112	0.009913	2.4e-05
0.01	0.012408	0.009869	2.4e-05
0.01	0.013832	0.009822	2.4e-05
0.025	0.0011616	0.008622	1.8e-05
0.025	0.0020929	0.008534	1.8e-05
0.025	0.002654	0.008492	1.7e-05
0.025	0.0034114	0.008444	1.7e-05
0.025	0.0050044	0.008359	1.7e-05
0.025	0.0067678	0.008289	1.7e-05
0.025	0.0081981	0.008238	1.7e-05
0.025	0.0096728	0.008189	1.7e-05
0.025	0.01133	0.00814	1.7e-05
0.025	0.01275	0.0081	1.7e-05
0.025	0.014067	0.008065	1.7e-05
0.05	0.0011769	0.006924	1.2e-05
0.05	0.0019119	0.006861	1.2e-05
0.05	0.0026515	0.006814	1.2e-05
0.05	0.0034966	0.00677	1.1e-05
0.05	0.005011	0.006706	1.2e-05
0.05	0.0065333	0.006654	1e-05
0.05	0.0080777	0.006608	1e-05
0.05	0.0094814	0.00657	1e-05
0.05	0.011167	0.00653	1e-05
0.05	0.012594	0.006498	1e-05
0.05	0.013866	0.006471	1.3e-05
0.075	0.0011038	0.005722	9e-06
0.075	0.0018186	0.00566	9e-06
0.075	0.0025636	0.005611	9e-06
0.075	0.0048086	0.005524	9e-06
0.075	0.0062377	0.00548	8e-06
0.075	0.0077598	0.005441	8e-06
0.075	0.009126	0.00541	8e-06
0.075	0.010529	0.005382	8e-06
0.075	0.011911	0.005357	8e-06
0.075	0.013191	0.005335	8e-06
0.1	0.0011831	0.004796	6e-06
0.1	0.0018085	0.004741	6e-06
0.1	0.0025226	0.004706	6e-06
0.1	0.0033489	0.004667	6e-06
0.1	0.0047462	0.004614	6e-06
0.1	0.0062281	0.00457	6e-06
0.1	0.0076486	0.004534	6e-06
0.1	0.0090163	0.004504	6e-06
0.1	0.010453	0.004475	6e-06
0.1	0.01165	0.004453	6e-06
0.1	0.012952	0.004432	6e-06
0.15	0.0009307	0.003646	4e-06
0.15	0.0017758	0.003567	4e-06
0.15	0.0023638	0.003527	4e-06
0.15	0.0031599	0.003483	4e-06
0.15	0.0045086	0.003424	4e-06
0.15	0.0058822	0.003378	4e-06
0.15	0.0072609	0.003339	4e-06
0.15	0.0085834	0.003306	4e-06
0.15	0.010196	0.003272	4e-06
0.15	0.011245	0.003252	4e-06
0.15	0.012604	0.003229	4e-06
0.2	0.0010879	0.00289	3e-06
0.2	0.0018679	0.002816	3e-06
0.2	0.0025102	0.002771	3e-06
0.2	0.0033348	0.002724	3e-06
0.2	0.0045814	0.002667	3e-06
0.2	0.0059688	0.002617	3e-06
0.2	0.0073228	0.002578	3e-06
0.2	0.0086048	0.002545	3e-06
0.2	0.009921	0.002515	3e-06
0.2	0.011129	0.002491	3e-06
0.2	0.012367	0.002468	3e-06

System: 2-butoxyethan-1-ol + sodium iodide + water; phases: Liquid
Fixed: Temperature, K = 298.15
Fixed: Pressure, kPa = 101
Property: Molar conductivity, S*m2/mol (Liquid); method: Precise Component Analyser type 6430B
Solvent: Mole fraction of 2-butoxyethan-1-ol	Amount concentration (molarity), mol/dm3 of sodium iodide	Molar conductivity, S*m2/mol	uncertainty
0.01	0.0006277	0.010218	2.8e-05
0.01	0.0012234	0.010121	2.8e-05
0.01	0.0019196	0.010033	2.7e-05
0.01	0.0027021	0.009953	2.7e-05
0.01	0.0035404	0.009877	2.7e-05
0.01	0.0051553	0.00975	2.6e-05
0.01	0.0065864	0.009652	2.6e-05
0.01	0.0079854	0.009564	2.6e-05
0.01	0.0095568	0.00947	2.5e-05
0.01	0.010999	0.00939	2.5e-05
0.01	0.012274	0.009323	2.5e-05
0.01	0.013676	0.009251	2.4e-05
0.025	0.0004884	0.008206	1.9e-05
0.025	0.0010368	0.008131	1.8e-05
0.025	0.0018827	0.008051	1.8e-05
0.025	0.0026047	0.007992	1.8e-05
0.025	0.0034928	0.007931	1.8e-05
0.025	0.0049889	0.007844	1.8e-05
0.025	0.0063583	0.007774	1.4e-05
0.025	0.0078645	0.007704	1.7e-05
0.025	0.009457	0.007635	1.7e-05
0.025	0.010908	0.007576	1.3e-05
0.025	0.01222	0.007526	1.3e-05
0.025	0.013603	0.007476	1.6e-05
0.05	0.0004452	0.006471	1.2e-05
0.05	0.0010131	0.006406	1.2e-05
0.05	0.0017775	0.00635	1.2e-05
0.05	0.0025481	0.006304	1.2e-05
0.05	0.0033366	0.006264	1.2e-05
0.05	0.0048442	0.0062	1.2e-05
0.05	0.0070267	0.006125	1e-05
0.05	0.007864	0.006099	1.1e-05
0.05	0.0092161	0.00606	1.1e-05
0.05	0.010506	0.006025	9e-06
0.05	0.011862	0.00599	9e-06
0.05	0.013277	0.005954	1.1e-05
0.075	0.0005239	0.005314	8e-06
0.075	0.0010759	0.005266	8e-06
0.075	0.0018946	0.005214	8e-06
0.075	0.0026038	0.005179	8e-06
0.075	0.0033042	0.00515	8e-06
0.075	0.0048866	0.005096	8e-06
0.075	0.0062671	0.005057	7e-06
0.075	0.0077211	0.005021	8e-06
0.075	0.0091365	0.004989	8e-06
0.075	0.010405	0.004962	8e-06
0.075	0.011757	0.004936	8e-06
0.075	0.013095	0.004911	8e-06
0.075	0.014493	0.004887	7e-06
0.1	0.0006496	0.004478	5e-06
0.1	0.0011357	0.004445	6e-06
0.1	0.0018978	0.004403	5e-06
0.1	0.0026523	0.004369	5e-06
0.1	0.0033916	0.004341	5e-06
0.1	0.0049238	0.004294	5e-06
0.1	0.0064028	0.004257	5e-06
0.1	0.0078198	0.004226	5e-06
0.1	0.0092114	0.004199	5e-06
0.1	0.010545	0.004174	5e-06
0.1	0.011948	0.004149	5e-06
0.1	0.013127	0.004132	5e-06
0.1	0.014516	0.004111	5e-06
0.1	0.015683	0.004095	5e-06
0.15	0.0010903	0.003402	4e-06
0.15	0.0018028	0.003364	4e-06
0.15	0.0025291	0.003333	4e-06
0.15	0.0032693	0.003307	4e-06
0.15	0.0046674	0.003266	4e-06
0.15	0.0061123	0.003232	4e-06
0.15	0.0075388	0.003204	4e-06
0.15	0.0087902	0.003183	4e-06
0.15	0.010054	0.003164	4e-06
0.15	0.011361	0.003146	4e-06
0.15	0.0126	0.00313	4e-06
0.15	0.013767	0.003116	4e-06
0.15	0.014992	0.003103	4e-06
0.2	0.0008707	0.002793	3e-06
0.2	0.001264	0.002767	3e-06
0.2	0.0019366	0.002729	3e-06
0.2	0.0025704	0.0027	3e-06
0.2	0.0033381	0.002671	3e-06
0.2	0.004647	0.002629	3e-06
0.2	0.0060626	0.002594	3e-06
0.2	0.0074964	0.002563	3e-06
0.2	0.0086441	0.002542	3e-06
0.2	0.0099856	0.00252	3e-06
0.2	0.011275	0.002502	3e-06
0.2	0.012392	0.002487	3e-06

System: 2-butoxyethan-1-ol + sodium tetraphenylboron + water; phases: Liquid
Fixed: Temperature, K = 298.15
Fixed: Pressure, kPa = 101
Property: Molar conductivity, S*m2/mol (Liquid); method: Precise Component Analyser type 6430B
Solvent: Mole fraction of 2-butoxyethan-1-ol	Amount concentration (molarity), mol/dm3 of sodium tetraphenylboron	Molar conductivity, S*m2/mol	uncertainty
0.01	0.0008918	0.005487	1.2e-05
0.01	0.0013431	0.005454	1.2e-05
0.01	0.001689	0.005428	1.2e-05
0.01	0.0025204	0.005379	1.2e-05
0.01	0.0032782	0.005346	1.2e-05
0.01	0.0039803	0.005319	1.2e-05
0.01	0.004766	0.005293	1.1e-05
0.01	0.005476	0.005271	1.1e-05
0.01	0.0061614	0.005249	1.1e-05
0.01	0.0068856	0.005232	1.1e-05
0.01	0.0075198	0.005216	1.1e-05
0.01	0.0082239	0.005196	1.1e-05
0.05	0.0008861	0.003167	9e-06
0.05	0.0012005	0.003158	9e-06
0.05	0.0016496	0.003147	9e-06
0.05	0.0024538	0.003136	9e-06
0.05	0.0032664	0.003123	9e-06
0.05	0.0039809	0.003113	9e-06
0.05	0.004777	0.003105	9e-06
0.05	0.0055351	0.003097	9e-06
0.05	0.006207	0.003091	9e-06
0.05	0.0069743	0.003085	9e-06
0.05	0.007651	0.003079	9e-06
0.05	0.0082995	0.003075	9e-06
0.075	0.0009104	0.002688	3e-06
0.075	0.0013059	0.002681	4e-06
0.075	0.0017026	0.002673	4e-06
0.075	0.0023967	0.002664	4e-06
0.075	0.0031886	0.002655	4e-06
0.075	0.0039417	0.002648	4e-06
0.075	0.004583	0.002643	3e-06
0.075	0.0052895	0.002637	3e-06
0.075	0.0060016	0.002632	3e-06
0.075	0.0066239	0.002628	3e-06
0.075	0.0073165	0.002624	3e-06
0.075	0.0079476	0.00262	3e-06
0.075	0.0085251	0.002617	3e-06
0.1	0.0013453	0.002323	3e-06
0.1	0.001768	0.002316	3e-06
0.1	0.0024307	0.002306	3e-06
0.1	0.0032359	0.002297	3e-06
0.1	0.0039169	0.002291	3e-06
0.1	0.0046099	0.002285	3e-06
0.1	0.0053052	0.00228	3e-06
0.1	0.0059701	0.002275	3e-06
0.1	0.0066225	0.002271	3e-06
0.1	0.0073837	0.002267	3e-06
0.1	0.0080077	0.002263	3e-06
0.1	0.0086318	0.00226	3e-06
0.15	0.0013829	0.001848	2e-06
0.15	0.0017923	0.001841	2e-06
0.15	0.0024297	0.001833	2e-06
0.15	0.0031793	0.001824	2e-06
0.15	0.0038949	0.001817	2e-06
0.15	0.0045456	0.001811	2e-06
0.15	0.0052318	0.001806	2e-06
0.15	0.0059021	0.001801	2e-06
0.15	0.0065175	0.001797	2e-06
0.15	0.0072014	0.001792	2e-06
0.15	0.0078519	0.001788	2e-06
0.15	0.0083677	0.001786	2e-06
0.2	0.0013378	0.001574	2e-06
0.2	0.0017071	0.001565	2e-06
0.2	0.0024302	0.001556	2e-06
0.2	0.0031655	0.001545	2e-06
0.2	0.0038548	0.001537	2e-06
0.2	0.0044943	0.001531	2e-06
0.2	0.0052233	0.001521	2e-06
0.2	0.0058502	0.001516	2e-06
0.2	0.006458	0.001514	2e-06
0.2	0.0071351	0.001508	2e-06
0.2	0.0077151	0.001505	2e-06
0.2	0.0083067	0.001501	2e-06

System: 2-butoxyethan-1-ol + tetrabutylammonium iodide + water; phases: Liquid
Fixed: Temperature, K = 298.15
Fixed: Pressure, kPa = 101
Property: Molar conductivity, S*m2/mol (Liquid); method: Precise Component Analyser type 6430B
Solvent: Mole fraction of 2-butoxyethan-1-ol	Amount concentration (molarity), mol/dm3 of tetrabutylammonium iodide	Molar conductivity, S*m2/mol	uncertainty
0.01	0.0004128	0.007624	2.4e-05
0.01	0.0006368	0.007575	2.3e-05
0.01	0.0008971	0.007528	2.3e-05
0.01	0.0011807	0.007485	2.3e-05
0.01	0.0017306	0.007412	2.3e-05
0.01	0.0022198	0.007358	2.3e-05
0.01	0.0027157	0.007307	2.3e-05
0.01	0.0032144	0.007262	2.3e-05
0.01	0.0036933	0.007217	2.3e-05
0.01	0.0041388	0.00718	2.2e-05
0.01	0.004619	0.007142	2.2e-05
0.025	0.0003996	0.005883	2.4e-05
0.025	0.0006586	0.005847	1.5e-05
0.025	0.0008989	0.005814	1.5e-05
0.025	0.0011672	0.00578	1.5e-05
0.025	0.0017243	0.00572	1.5e-05
0.025	0.0022517	0.005673	1.5e-05
0.025	0.0027575	0.005631	1.5e-05
0.025	0.0032499	0.005593	1.5e-05
0.025	0.0037226	0.005559	1.1e-05
0.025	0.0041928	0.005527	1.4e-05
0.025	0.00467	0.005496	1.1e-05
0.025	0.0051272	0.005467	9e-06
0.025	0.0055591	0.005441	9e-06
0.05	0.0006249	0.004497	9e-06
0.05	0.0009042	0.004465	9e-06
0.05	0.001175	0.004437	9e-06
0.05	0.0016685	0.004392	9e-06
0.05	0.0021642	0.004352	9e-06
0.05	0.0026644	0.004314	9e-06
0.05	0.0031412	0.004281	9e-06
0.05	0.0036061	0.004251	7e-06
0.05	0.0041115	0.004221	9e-06
0.05	0.0045344	0.004196	6e-06
0.075	0.0006715	0.00371	6e-06
0.075	0.0008988	0.003689	6e-06
0.075	0.0011766	0.003665	6e-06
0.075	0.0016618	0.003625	6e-06
0.075	0.0021842	0.003586	6e-06
0.075	0.0026688	0.003555	6e-06
0.075	0.0031242	0.003529	5e-06
0.075	0.0036193	0.003503	5e-06
0.075	0.0040685	0.003479	5e-06
0.075	0.0044929	0.003456	5e-06
0.075	0.0049238	0.003428	7e-06
0.075	0.0053702	0.003414	7e-06
0.1	0.000702	0.003205	3e-06
0.1	0.0009372	0.003183	4e-06
0.1	0.0012116	0.003159	4e-06
0.1	0.0016873	0.003121	4e-06
0.1	0.0021589	0.003086	3e-06
0.1	0.0026917	0.003051	3e-06
0.1	0.0031385	0.003023	3e-06
0.1	0.003615	0.002995	3e-06
0.1	0.0040389	0.002972	3e-06
0.1	0.0044842	0.002949	3e-06
0.1	0.0049505	0.002927	3e-06
0.1	0.0054304	0.002905	3e-06
0.15	0.0009224	0.002547	3e-06
0.15	0.0011903	0.002525	3e-06
0.15	0.0016279	0.00249	3e-06
0.15	0.0021222	0.002455	3e-06
0.15	0.0026016	0.002425	3e-06
0.15	0.0030244	0.0024	3e-06
0.15	0.0034743	0.002376	3e-06
0.15	0.0039152	0.002354	3e-06
0.15	0.0043193	0.002334	3e-06
0.15	0.0047417	0.002316	2e-06
0.15	0.0051769	0.002297	3e-06
0.2	0.0010723	0.00215	2e-06
0.2	0.0015333	0.002112	2e-06
0.2	0.0020231	0.002075	2e-06
0.2	0.0025011	0.002044	2e-06
0.2	0.0029542	0.002017	2e-06
0.2	0.0034927	0.001988	2e-06
0.2	0.0039275	0.001966	2e-06
0.2	0.0043397	0.001948	2e-06
0.2	0.0048825	0.001924	2e-06
0.2	0.0052888	0.001908	2e-06

System: 2-butoxyethan-1-ol + sodium perchlorate + water; phases: Liquid
Fixed: Temperature, K = 298.15
Fixed: Pressure, kPa = 101
Property: Molar conductivity, S*m2/mol (Liquid); method: Precise Component Analyser type 6430B
Solvent: Mole fraction of 2-butoxyethan-1-ol	Amount concentration (molarity), mol/dm3 of sodium perchlorate	Molar conductivity, S*m2/mol	uncertainty
0.01	0.0005909	0.009562	2.8e-05
0.01	0.0011133	0.00949	2.8e-05
0.01	0.0018855	0.009415	2.8e-05
0.01	0.0026257	0.00936	2.8e-05
0.01	0.0034699	0.009301	2.7e-05
0.01	0.0049655	0.009213	2.7e-05
0.01	0.0063329	0.009148	2.6e-05
0.01	0.0077579	0.009088	2.6e-05
0.01	0.0093097	0.009027	2.6e-05
0.025	0.0009038	0.007451	1.4e-05
0.025	0.0011881	0.007427	1.4e-05
0.025	0.0019487	0.007372	1.9e-05
0.025	0.0027115	0.007334	1.8e-05
0.025	0.0036052	0.0073	1.4e-05
0.025	0.0050173	0.007247	1.3e-05
0.025	0.006559	0.0072	1.3e-05
0.025	0.0079689	0.007164	1.3e-05
0.025	0.0094124	0.007131	1.3e-05
0.025	0.010739	0.007102	1.4e-05
0.025	0.012129	0.007076	1.4e-05
0.025	0.013474	0.007053	1.4e-05
0.05	0.0016692	0.005673	1.1e-05
0.05	0.0024844	0.00564	1.1e-05
0.05	0.0031402	0.005618	9e-06
0.05	0.004656	0.005576	9e-06
0.05	0.0060706	0.005545	9e-06
0.05	0.0074335	0.005518	8e-06
0.05	0.008884	0.005493	8e-06
0.05	0.010341	0.00547	8e-06
0.05	0.01167	0.00545	8e-06
0.05	0.012895	0.005433	8e-06
0.05	0.01428	0.005415	7e-06
0.075	0.001114	0.004696	5e-06
0.075	0.0017884	0.004668	7e-06
0.075	0.0026418	0.004641	7e-06
0.075	0.0035435	0.004618	6e-06
0.075	0.0047623	0.004592	7e-06
0.075	0.0061973	0.004567	7e-06
0.075	0.0077036	0.004544	7e-06
0.075	0.0089117	0.004528	7e-06
0.075	0.0104	0.00451	7e-06
0.075	0.011661	0.004497	7e-06
0.075	0.013204	0.004481	5e-06
0.1	0.0019323	0.003965	5e-06
0.1	0.0026729	0.00394	5e-06
0.1	0.003464	0.003922	5e-06
0.1	0.0047498	0.003895	5e-06
0.1	0.006187	0.003872	5e-06
0.1	0.0076149	0.003851	5e-06
0.1	0.0089458	0.003834	5e-06
0.1	0.010237	0.003818	5e-06
0.1	0.011599	0.003805	5e-06
0.1	0.012787	0.003794	5e-06
0.1	0.014013	0.003783	4e-06
0.1	0.015277	0.003772	4e-06
0.15	0.0007964	0.003153	3e-06
0.15	0.0012872	0.003131	3e-06
0.15	0.0020506	0.0031	3e-06
0.15	0.0027815	0.003076	3e-06
0.15	0.0034951	0.003058	3e-06
0.15	0.0048782	0.003027	4e-06
0.15	0.0061737	0.003004	3e-06
0.15	0.0075456	0.002983	3e-06
0.15	0.0088733	0.002966	3e-06
0.15	0.010188	0.002951	3e-06
0.15	0.011397	0.002939	3e-06
0.15	0.012608	0.002927	3e-06
0.2	0.0007096	0.002657	3e-06
0.2	0.0013727	0.002623	3e-06
0.2	0.0020686	0.002591	3e-06
0.2	0.0028856	0.002561	3e-06
0.2	0.0042205	0.002522	3e-06
0.2	0.0055386	0.002492	3e-06
0.2	0.006978	0.002466	3e-06
0.2	0.0082413	0.002446	3e-06
0.2	0.0095554	0.002427	3e-06
0.2	0.010799	0.002411	3e-06
0.2	0.012	0.002398	3e-06
0.2	0.013153	0.002386	3e-06
0.2	0.014404	0.002374	3e-06
