Measured thermophysical data. Solubilities of (a,Z)-2-Amino-a-(methoxyimino)-4-thiazoleethanethioic Acid S-2-Benzothiazolyl Ester in Different Pure Solvents and Binary Mixtures of Tetrahydrofuran + Dichloromethane or 1,2-Dichloroethane
Source: J. Chem. Eng. Data, 2011, 10.1021/je100890f
Compound 1: (.alpha.Z)-2-amino-.alpha.-(methoxyimino)-4-thiazoleethanethioic acid S-2-benzothiazolyl ester, C13H10N4O2S3, InChI=1S/C13H10N4O2S3/c1-19-17-10(8-6-20-12(14)15-8)11(18)22-13-16-7-4-2-3-5-9(7)21-13/h2-6H,1H3,(H2,14,15)/b17-10-, purity 99.2%
Compound 2: dichloromethane, CH2Cl2, InChI=1S/CH2Cl2/c2-1-3/h1H2
Compound 3: tetrahydrofuran, C4H8O, InChI=1S/C4H8O/c1-2-4-5-3-1/h1-4H2
Compound 4: acetonitrile, C2H3N, InChI=1S/C2H3N/c1-2-3/h1H3
Compound 5: 1,2-dichloroethane, C2H4Cl2, InChI=1S/C2H4Cl2/c3-1-2-4/h1-2H2
Compound 6: acetone, C3H6O, InChI=1S/C3H6O/c1-3(2)4/h1-2H3

System: dichloromethane + (.alpha.Z)-2-amino-.alpha.-(methoxyimino)-4-thiazoleethanethioic acid S-2-benzothiazolyl ester; phases: Liquid, Crystal
Fixed: Pressure, kPa = 101
Property: Mole fraction of (.alpha.Z)-2-amino-.alpha.-(methoxyimino)-4-thiazoleethanethioic acid S-2-benzothiazolyl ester (Liquid); method: Laser monitoring observation technique
Temperature, K	Mole fraction of (.alpha.Z)-2-amino-.alpha.-(methoxyimino)-4-thiazoleethanethioic acid S-2-benzothiazolyl ester	uncertainty
278.6	0.0007195	2.99e-05
283.64	0.0009671	4e-05
288.46	0.001276	5.3e-05
294.03	0.00171	7.1e-05
298.71	0.00217	8.9e-05
303.44	0.002672	0.00011

System: tetrahydrofuran + (.alpha.Z)-2-amino-.alpha.-(methoxyimino)-4-thiazoleethanethioic acid S-2-benzothiazolyl ester; phases: Liquid, Crystal
Fixed: Pressure, kPa = 101
Property: Mole fraction of (.alpha.Z)-2-amino-.alpha.-(methoxyimino)-4-thiazoleethanethioic acid S-2-benzothiazolyl ester (Liquid); method: Laser monitoring observation technique
Temperature, K	Mole fraction of (.alpha.Z)-2-amino-.alpha.-(methoxyimino)-4-thiazoleethanethioic acid S-2-benzothiazolyl ester	uncertainty
278.4	0.02431	0.00101
283.75	0.02592	0.00107
288.8	0.02804	0.00116
293.25	0.03108	0.00129
298.06	0.03519	0.00146
302.95	0.03966	0.00165

System: acetonitrile + (.alpha.Z)-2-amino-.alpha.-(methoxyimino)-4-thiazoleethanethioic acid S-2-benzothiazolyl ester; phases: Liquid, Crystal
Fixed: Pressure, kPa = 101
Property: Mole fraction of (.alpha.Z)-2-amino-.alpha.-(methoxyimino)-4-thiazoleethanethioic acid S-2-benzothiazolyl ester (Liquid); method: Laser monitoring observation technique
Temperature, K	Mole fraction of (.alpha.Z)-2-amino-.alpha.-(methoxyimino)-4-thiazoleethanethioic acid S-2-benzothiazolyl ester	uncertainty
279.45	0.0002156	9.5e-06
283.46	0.0002618	1.16e-05
288.45	0.0003421	1.52e-05
292.98	0.0004514	2e-05
297.47	0.0005809	2.57e-05
302.45	0.0007614	3.36e-05

System: 1,2-dichloroethane + (.alpha.Z)-2-amino-.alpha.-(methoxyimino)-4-thiazoleethanethioic acid S-2-benzothiazolyl ester; phases: Liquid, Crystal
Fixed: Pressure, kPa = 101
Property: Mole fraction of (.alpha.Z)-2-amino-.alpha.-(methoxyimino)-4-thiazoleethanethioic acid S-2-benzothiazolyl ester (Liquid); method: Laser monitoring observation technique
Temperature, K	Mole fraction of (.alpha.Z)-2-amino-.alpha.-(methoxyimino)-4-thiazoleethanethioic acid S-2-benzothiazolyl ester	uncertainty
277.83	0.000358	1.47e-05
282.77	0.0004585	1.88e-05
287.63	0.0006186	2.55e-05
292.84	0.0008759	3.61e-05
297.85	0.001175	4.8e-05
302.64	0.001543	6.3e-05

System: acetone + (.alpha.Z)-2-amino-.alpha.-(methoxyimino)-4-thiazoleethanethioic acid S-2-benzothiazolyl ester; phases: Liquid, Crystal
Fixed: Pressure, kPa = 101
Property: Mole fraction of (.alpha.Z)-2-amino-.alpha.-(methoxyimino)-4-thiazoleethanethioic acid S-2-benzothiazolyl ester (Liquid); method: Laser monitoring observation technique
Temperature, K	Mole fraction of (.alpha.Z)-2-amino-.alpha.-(methoxyimino)-4-thiazoleethanethioic acid S-2-benzothiazolyl ester	uncertainty
278.32	0.002446	0.000103
283.31	0.002864	0.000121
288.15	0.003343	0.000141
293.2	0.003903	0.000165
298.54	0.004719	0.000199
303.28	0.005697	0.00024

System: dichloromethane + tetrahydrofuran + (.alpha.Z)-2-amino-.alpha.-(methoxyimino)-4-thiazoleethanethioic acid S-2-benzothiazolyl ester; phases: Liquid, Crystal
Fixed: Pressure, kPa = 101
Property: Mole fraction of (.alpha.Z)-2-amino-.alpha.-(methoxyimino)-4-thiazoleethanethioic acid S-2-benzothiazolyl ester (Liquid); method: Laser monitoring observation technique
Temperature, K	Solvent: Mole fraction of tetrahydrofuran	Mole fraction of (.alpha.Z)-2-amino-.alpha.-(methoxyimino)-4-thiazoleethanethioic acid S-2-benzothiazolyl ester	uncertainty
278.32	0.3347	0.002138	8.8e-05
278.73	0.5337	0.00366	0.000152
279.45	0.8709	0.01373	0.00057
279.45	0.9556	0.01985	0.00082
279.65	0.1154	0.001307	5.4e-05
279.77	0.729	0.007051	0.000291
283.02	0.729	0.007613	0.000314
283.13	0.1154	0.001519	6.3e-05
283.31	0.3347	0.002534	0.000104
283.66	0.8709	0.01481	0.00061
283.66	0.9556	0.02112	0.00087
283.76	0.5337	0.00424	0.000175
288.02	0.729	0.008692	0.000359
288.05	0.1154	0.001834	7.6e-05
288.11	0.5337	0.004873	0.000201
288.15	0.3347	0.002993	0.000123
288.45	0.8709	0.01618	0.00067
288.45	0.9556	0.02272	0.00094
292.67	0.729	0.01023	0.00042
293.15	0.5337	0.005998	0.000248
293.17	0.1154	0.002361	9.7e-05
293.2	0.3347	0.003551	0.000146
293.54	0.8709	0.01793	0.00074
293.54	0.9556	0.0248	0.00103
297.47	0.729	0.01182	0.00049
298.26	0.5337	0.007443	0.000308
298.28	0.8709	0.0199	0.00082
298.28	0.9556	0.02717	0.00113
298.35	0.1154	0.003018	0.000125
298.54	0.3347	0.004347	0.000179
302.64	0.729	0.01398	0.00058
303.1	0.5337	0.009052	0.000375
303.25	0.1154	0.003818	0.000157
303.28	0.3347	0.005249	0.000219
303.35	0.8709	0.02255	0.00093
303.35	0.9556	0.03031	0.00126

System: 1,2-dichloroethane + tetrahydrofuran + (.alpha.Z)-2-amino-.alpha.-(methoxyimino)-4-thiazoleethanethioic acid S-2-benzothiazolyl ester; phases: Liquid, Crystal
Fixed: Pressure, kPa = 101
Property: Mole fraction of (.alpha.Z)-2-amino-.alpha.-(methoxyimino)-4-thiazoleethanethioic acid S-2-benzothiazolyl ester (Liquid); method: Laser monitoring observation technique
Temperature, K	Solvent: Mole fraction of tetrahydrofuran	Mole fraction of (.alpha.Z)-2-amino-.alpha.-(methoxyimino)-4-thiazoleethanethioic acid S-2-benzothiazolyl ester	uncertainty
277.94	0.1358	0.0008769	3.6e-05
278.2	0.3664	0.002275	9.3e-05
278.24	0.6404	0.005559	0.000228
278.41	0.5782	0.004534	0.000186
278.59	0.7261	0.007693	0.000316
278.68	0.808	0.01236	0.00051
279.04	0.9438	0.01855	0.00077
282.75	0.1358	0.001076	4.4e-05
283.13	0.3664	0.00265	0.000109
283.13	0.6404	0.006276	0.000258
283.2	0.5782	0.005188	0.000213
283.37	0.7261	0.008602	0.000354
283.47	0.808	0.01362	0.00056
283.55	0.9438	0.01979	0.00082
287.84	0.1358	0.001329	5.5e-05
287.96	0.9438	0.02133	0.00088
287.98	0.6404	0.007112	0.000293
288.04	0.3664	0.003248	0.000133
288.04	0.808	0.01513	0.00062
288.42	0.5782	0.005957	0.000245
288.52	0.7261	0.009696	0.000399
292.78	0.1358	0.001748	7.2e-05
292.78	0.3664	0.003979	0.000164
292.91	0.808	0.01745	0.00072
292.96	0.9438	0.02393	0.00099
293.11	0.5782	0.006996	0.000288
293.17	0.7261	0.01116	0.00046
293.42	0.6404	0.008505	0.00035
297.94	0.3664	0.004949	0.000203
298.05	0.1358	0.002286	9.4e-05
298.16	0.5782	0.008566	0.000353
298.17	0.808	0.02058	0.00085
298.18	0.9438	0.02736	0.00113
298.23	0.7261	0.01338	0.00055
298.46	0.6404	0.01015	0.00042
302.75	0.3664	0.006123	0.000253
302.78	0.808	0.02367	0.00098
302.87	0.9438	0.03058	0.00127
302.89	0.1358	0.002854	0.000117
302.93	0.5782	0.01056	0.00044
302.98	0.7261	0.01613	0.00067
303.38	0.6404	0.01276	0.00053
