Measured thermophysical data. P, rho, T Measurements and Isobaric Vapor-Liquid-Equilibria of the 1,3,3-Trimethyl-2-oxabicycle[2,2,2]octane + Propan-1-ol Mixture: Cubic and Statistical Associating Fluid Theory-Based Equation of State Analysis
Source: J. Chem. Eng. Data, 2010, 10.1021/je100577v
Compound 1: 1,3,3-trimethyl-2-oxabicyclo[2.2.2]octane, C10H18O, InChI=1S/C10H18O/c1-9(2)8-4-6-10(3,11-9)7-5-8/h8H,4-7H2,1-3H3, purity 99.7%
Compound 2: propan-1-ol, C3H8O, InChI=1S/C3H8O/c1-2-3-4/h4H,2-3H2,1H3, purity 99.9%

System: 1,3,3-trimethyl-2-oxabicyclo[2.2.2]octane; phases: Liquid, Gas
Property: Vapor or sublimation pressure, kPa (Liquid); method: Ebulliometric method (Recirculating still)
Temperature, K	Vapor or sublimation pressure, kPa	uncertainty
326.65	1.33	0.11
341.55	2.67	0.11
357.25	5.33	0.12
363.45	6.67	0.17
381.45	13.33	0.21
392.75	20	0.28
401.75	26.66	0.35
408.65	33.33	0.43
414.65	40	0.48
419.95	46.66	0.54
424.65	53.33	0.61
428.85	60	0.67
432.75	66.66	0.72
436.35	73.33	0.77
439.75	79.99	0.83
442.85	86.66	0.88
445.85	93.33	0.9
448.65	99.61	1.38
449.15	101.33	1.38

System: 1,3,3-trimethyl-2-oxabicyclo[2.2.2]octane; phases: Liquid
Property: Mass density, kg/m3 (Liquid); method: Vibrating tube method
Temperature, K	Pressure, kPa	Mass density, kg/m3	uncertainty
283.15	20000	945.9	1
283.15	25000	949.1	1
283.15	30000	952	1
283.15	35000	954.9	1
283.15	40000	957.6	1
298.15	20000	934.1	1
298.15	25000	937.4	1
298.15	30000	940.5	1
298.15	35000	943.4	1
298.15	40000	946.4	1
313.15	20000	922.3	1
313.15	25000	925.8	1
313.15	30000	929.1	1
313.15	35000	932.4	1
313.15	40000	935.5	1
328.15	20000	910.6	1
328.15	25000	914.3	1
328.15	30000	917.9	1
328.15	35000	921.3	1
328.15	40000	924.7	1

System: propan-1-ol; phases: Liquid, Gas
Property: Vapor or sublimation pressure, kPa (Liquid); method: Ebulliometric method (Recirculating still)
Temperature, K	Vapor or sublimation pressure, kPa	uncertainty
319.65	10	0.28
327.25	15	0.32
332.95	20	0.4
337.45	25	0.49
341.25	30	0.55
343.55	33.33	0.6
344.65	35	0.66
347.65	40	0.71
350.35	45	0.79
352.75	50	0.86
355.05	55	0.93
357.05	60	1.01
359.05	65	1.02
359.65	66.66	1.12
360.85	70	1.16
362.55	75	1.22
364.15	80	1.29
365.65	85	1.34
367.15	90	1.5
370.05	101.33	1.57

System: propan-1-ol; phases: Liquid
Property: Mass density, kg/m3 (Liquid); method: Vibrating tube method
Temperature, K	Pressure, kPa	Mass density, kg/m3	uncertainty
283.15	20000	825.1	1
283.15	25000	828.4	1
283.15	30000	831.5	1
283.15	35000	834.5	1
283.15	40000	837.4	1.1
298.15	20000	814.2	1
298.15	25000	817.6	1
298.15	30000	820.9	1
298.15	35000	824	1.1
298.15	40000	827.1	1.1
313.15	20000	803.1	1
313.15	25000	806.9	1
313.15	30000	810.4	1
313.15	35000	813.7	1.1
313.15	40000	817	1.1
328.15	20000	792	1
328.15	25000	795.8	1
328.15	30000	799.6	1.1
328.15	35000	803.1	1.1
328.15	40000	806.6	1.1

System: propan-1-ol + 1,3,3-trimethyl-2-oxabicyclo[2.2.2]octane; phases: Gas, Liquid
Property: Boiling temperature at pressure P, K (Gas); method: EBULLIO:UFactor:8
Mole fraction of 1,3,3-trimethyl-2-oxabicyclo[2.2.2]octane	Pressure, kPa	Boiling temperature at pressure P, K	uncertainty
0.0084	33.33	343.7	0.7
0.0222	101.33	370.3	1
0.0239	66.66	359.9	1
0.0383	33.33	343.8	0.7
0.0421	101.33	370.4	1
0.0621	66.66	360	0.9
0.0872	101.33	371.2	1.1
0.1005	33.33	344.8	0.7
0.1178	66.66	361	1
0.1308	33.33	345.2	0.7
0.1369	101.33	372.3	1.1
0.1566	33.33	345.6	0.7
0.1894	66.66	362.3	1
0.2032	101.33	373.7	1.1
0.2286	33.33	346.9	0.7
0.247	66.66	363.3	1
0.2715	101.33	375.3	1.1
0.3037	33.33	348.4	0.7
0.3234	66.66	364.9	1
0.3471	33.33	349.1	0.7
0.3478	101.33	377.2	1.2
0.3943	66.66	366.6	1
0.409	33.33	350.1	0.7
0.4165	101.33	379.2	1.2
0.4357	101.33	379.8	1.3
0.4649	66.66	368.2	1
0.4733	33.33	351.3	0.7
0.4836	101.33	381.5	1.3
0.5137	101.33	382.7	1.3
0.5192	66.66	370.3	1.1
0.525	33.33	352.4	0.8
0.5707	101.33	385.2	1.3
0.5761	66.66	372.5	1.1
0.5806	33.33	353.9	0.8
0.6237	101.33	387.8	1.3
0.6305	66.66	375	1.1
0.6412	33.33	357.3	0.8
0.6978	66.66	378	1.2
0.7082	101.33	393.1	1.5
0.7394	33.33	361	0.9
0.7615	66.66	382.9	1.2
0.7659	101.33	397.6	1.5
0.7671	33.33	362.6	0.9
0.8131	66.66	386.9	1.2
0.8397	101.33	405.1	1.6
0.8493	33.33	370.5	0.9
0.8605	66.66	392.7	1.3
0.8955	101.33	413.2	1.6
0.9045	33.33	378.1	0.9
0.9063	66.66	400	1.3
0.923	101.33	419.1	1.7
0.9354	66.66	405.8	1.3
0.9404	33.33	385.8	0.9
0.9492	66.66	409.6	1.3
0.9538	101.33	427.8	1.8
0.9716	66.66	417.4	1.5
0.9731	33.33	395.2	1
0.9867	101.33	440.5	1.5
0.9912	33.33	403.2	1.1
0.9942	66.66	428.8	1.4

System: propan-1-ol + 1,3,3-trimethyl-2-oxabicyclo[2.2.2]octane; phases: Gas, Liquid
Property: Mole fraction of 1,3,3-trimethyl-2-oxabicyclo[2.2.2]octane (Gas); method: Density calibration data
Mole fraction of 1,3,3-trimethyl-2-oxabicyclo[2.2.2]octane	Pressure, kPa	Mole fraction of 1,3,3-trimethyl-2-oxabicyclo[2.2.2]octane	uncertainty
0.0084	33.33	0.0019	0.0019
0.0222	101.33	0.0036	0.0036
0.0239	66.66	0.0051	0.0041
0.0383	33.33	0.0079	0.0041
0.0421	101.33	0.0063	0.004
0.0621	66.66	0.011	0.004
0.0872	101.33	0.0129	0.004
0.1005	33.33	0.0178	0.004
0.1178	66.66	0.0184	0.004
0.1308	33.33	0.0217	0.004
0.1369	101.33	0.0192	0.004
0.1566	33.33	0.0254	0.004
0.1894	66.66	0.0271	0.004
0.2032	101.33	0.0275	0.004
0.2286	33.33	0.0355	0.004
0.247	66.66	0.0342	0.004
0.2715	101.33	0.0365	0.004
0.3037	33.33	0.0468	0.004
0.3234	66.66	0.0434	0.004
0.3471	33.33	0.0518	0.004
0.3478	101.33	0.0469	0.004
0.3943	66.66	0.0534	0.004
0.409	33.33	0.0588	0.004
0.4165	101.33	0.0581	0.0041
0.4357	101.33	0.0616	0.0041
0.4649	66.66	0.0633	0.0041
0.4733	33.33	0.067	0.004
0.4836	101.33	0.0716	0.0041
0.5137	101.33	0.0787	0.0041
0.5192	66.66	0.0761	0.0041
0.525	33.33	0.0746	0.0041
0.5707	101.33	0.0947	0.0042
0.5761	66.66	0.0909	0.0042
0.5806	33.33	0.0855	0.0042
0.6237	101.33	0.1118	0.0043
0.6305	66.66	0.1079	0.0042
0.6412	33.33	0.1108	0.0042
0.6978	66.66	0.1306	0.0044
0.7082	101.33	0.1501	0.0045
0.7394	33.33	0.1407	0.0042
0.7615	66.66	0.1696	0.0048
0.7659	101.33	0.1878	0.0052
0.7671	33.33	0.155	0.0053
0.8131	66.66	0.2072	0.0056
0.8397	101.33	0.2592	0.0064
0.8493	33.33	0.2339	0.0064
0.8605	66.66	0.2663	0.0076
0.8955	101.33	0.3537	0.009
0.9045	33.33	0.3297	0.0102
0.9063	66.66	0.3562	0.01
0.923	101.33	0.4325	0.0153
0.9354	66.66	0.4393	0.0139
0.9404	33.33	0.4516	0.0185
0.9492	66.66	0.5017	0.0231
0.9538	101.33	0.5677	0.0241
0.9716	66.66	0.6454	0.0342
0.9731	33.33	0.6399	0.0298
0.9867	101.33	0.809	0.0296
0.9912	33.33	0.8374	0.0438
0.9942	66.66	0.8949	0.0432

System: propan-1-ol + 1,3,3-trimethyl-2-oxabicyclo[2.2.2]octane; phases: Liquid
Property: Mass density, kg/m3 (Liquid); method: Vibrating tube method
Temperature, K	Pressure, kPa	Mole fraction of 1,3,3-trimethyl-2-oxabicyclo[2.2.2]octane	Mass density, kg/m3	uncertainty
283.15	20000	0	825.1	1
283.15	20000	0.0499	839.5	1
283.15	20000	0.1061	853.7	1
283.15	20000	0.2029	873.3	1
283.15	20000	0.3028	889.7	1
283.15	20000	0.3955	901.8	1
283.15	20000	0.4938	912.4	1
283.15	20000	0.5904	921.2	1
283.15	20000	0.7	929.6	1
283.15	20000	0.7915	935.7	1
283.15	20000	0.8954	941.2	1
283.15	20000	0.9332	942.9	1
283.15	20000	1	945.9	1
283.15	25000	0	828.4	1
283.15	25000	0.0499	842.9	1
283.15	25000	0.1061	856.9	1
283.15	25000	0.2029	876.4	1
283.15	25000	0.3028	892.8	1
283.15	25000	0.3955	905	1
283.15	25000	0.4938	915.6	1
283.15	25000	0.5904	924.4	1
283.15	25000	0.7	932.8	1
283.15	25000	0.7915	938.9	1
283.15	25000	0.8954	944.3	1
283.15	25000	0.9332	946.1	1
283.15	25000	1	949.1	1
283.15	30000	0	831.5	1
283.15	30000	0.0499	845.8	1
283.15	30000	0.1061	859.8	1
283.15	30000	0.2029	879.3	1
283.15	30000	0.3028	895.6	1
283.15	30000	0.3955	907.9	1
283.15	30000	0.4938	918.5	1
283.15	30000	0.5904	927.3	1
283.15	30000	0.7	935.7	1
283.15	30000	0.7915	941.7	1
283.15	30000	0.8954	947.2	1
283.15	30000	0.9332	949	1
283.15	30000	1	952	1
283.15	35000	0	834.5	1
283.15	35000	0.0499	848.9	1
283.15	35000	0.1061	862.8	1
283.15	35000	0.2029	882.3	1
283.15	35000	0.3028	898.6	1
283.15	35000	0.3955	910.7	1
283.15	35000	0.4938	921.3	1
283.15	35000	0.5904	930.1	1
283.15	35000	0.7	938.5	1
283.15	35000	0.7915	944.6	1
283.15	35000	0.8954	950.1	1
283.15	35000	0.9332	951.8	1
283.15	35000	1	954.9	1
283.15	40000	0	837.4	1.1
283.15	40000	0.0499	851.6	1
283.15	40000	0.1061	865.5	1
283.15	40000	0.2029	885	1
283.15	40000	0.3028	901.4	1
283.15	40000	0.3955	913.5	1
283.15	40000	0.4938	924	1
283.15	40000	0.5904	932.9	1
283.15	40000	0.7	941.2	1
283.15	40000	0.7915	947.3	1
283.15	40000	0.8954	952.8	1
283.15	40000	0.9332	954.5	1
283.15	40000	1	957.6	1
298.15	20000	0	814.2	1
298.15	20000	0.0499	828.6	1
298.15	20000	0.1061	842.6	1
298.15	20000	0.2029	862	1
298.15	20000	0.3028	878.3	1
298.15	20000	0.3955	890.5	1
298.15	20000	0.4938	901	1
298.15	20000	0.5904	909.7	1
298.15	20000	0.7	917.9	1
298.15	20000	0.7915	923.9	1
298.15	20000	0.8954	929.4	1
298.15	20000	0.9332	931.1	1
298.15	20000	1	934.1	1
298.15	25000	0	817.6	1
298.15	25000	0.0499	831.8	1
298.15	25000	0.1061	845.8	1
298.15	25000	0.2029	865.2	1
298.15	25000	0.3028	881.6	1
298.15	25000	0.3955	893.7	1
298.15	25000	0.4938	904.3	1
298.15	25000	0.5904	912.9	1
298.15	25000	0.7	921.1	1
298.15	25000	0.7915	927.1	1
298.15	25000	0.8954	932.6	1
298.15	25000	0.9332	934.3	1
298.15	25000	1	937.4	1
298.15	30000	0	820.9	1
298.15	30000	0.0499	835.1	1
298.15	30000	0.1061	849	1
298.15	30000	0.2029	868.4	1
298.15	30000	0.3028	884.7	1
298.15	30000	0.3955	896.7	1
298.15	30000	0.4938	907.3	1
298.15	30000	0.5904	915.9	1
298.15	30000	0.7	924.2	1
298.15	30000	0.7915	930.2	1
298.15	30000	0.8954	935.7	1
298.15	30000	0.9332	937.3	1
298.15	30000	1	940.5	1
298.15	35000	0	824	1.1
298.15	35000	0.0499	838.1	1
298.15	35000	0.1061	852	1
298.15	35000	0.2029	871.4	1
298.15	35000	0.3028	887.7	1
298.15	35000	0.3955	899.8	1
298.15	35000	0.4938	910.3	1
298.15	35000	0.5904	918.9	1
298.15	35000	0.7	927.1	1
298.15	35000	0.7915	933.2	1
298.15	35000	0.8954	938.8	1
298.15	35000	0.9332	940.3	1
298.15	35000	1	943.4	1
298.15	40000	0	827.1	1.1
298.15	40000	0.0499	841.2	1.1
298.15	40000	0.1061	855	1
298.15	40000	0.2029	874.4	1
298.15	40000	0.3028	890.6	1
298.15	40000	0.3955	902.7	1
298.15	40000	0.4938	913.2	1
298.15	40000	0.5904	921.9	1
298.15	40000	0.7	930.1	1
298.15	40000	0.7915	936.1	1
298.15	40000	0.8954	941.6	1
298.15	40000	0.9332	943.3	1
298.15	40000	1	946.4	1
313.15	20000	0	803.1	1
313.15	20000	0.0499	817.1	1
313.15	20000	0.1061	831	1
313.15	20000	0.2029	850.4	1
313.15	20000	0.3028	866.6	1
313.15	20000	0.3955	878.6	1
313.15	20000	0.4938	889.1	1
313.15	20000	0.5904	897.7	1
313.15	20000	0.7	905.8	1
313.15	20000	0.7915	911.8	1
313.15	20000	0.8954	917.3	1
313.15	20000	0.9332	919.1	1
313.15	20000	1	922.3	1
313.15	25000	0	806.9	1
313.15	25000	0.0499	820.8	1
313.15	25000	0.1061	834.7	1
313.15	25000	0.2029	854	1
313.15	25000	0.3028	870.2	1
313.15	25000	0.3955	882.2	1
313.15	25000	0.4938	892.6	1
313.15	25000	0.5904	901.2	1
313.15	25000	0.7	909.3	1
313.15	25000	0.7915	915.3	1
313.15	25000	0.8954	920.8	1
313.15	25000	0.9332	922.5	1
313.15	25000	1	925.8	1
313.15	30000	0	810.4	1
313.15	30000	0.0499	824.3	1
313.15	30000	0.1061	838.1	1
313.15	30000	0.2029	857.4	1
313.15	30000	0.3028	873.5	1
313.15	30000	0.3955	885.5	1
313.15	30000	0.4938	895.9	1
313.15	30000	0.5904	904.5	1
313.15	30000	0.7	912.6	1
313.15	30000	0.7915	918.6	1
313.15	30000	0.8954	924	1
313.15	30000	0.9332	925.9	1
313.15	30000	1	929.1	1
313.15	35000	0	813.7	1.1
313.15	35000	0.0499	827.5	1.1
313.15	35000	0.1061	841.3	1
313.15	35000	0.2029	860.7	1
313.15	35000	0.3028	876.7	1
313.15	35000	0.3955	888.7	1
313.15	35000	0.4938	899	1
313.15	35000	0.5904	907.6	1
313.15	35000	0.7	915.8	1
313.15	35000	0.7915	921.8	1
313.15	35000	0.8954	927.3	1
313.15	35000	0.9332	929.1	1
313.15	35000	1	932.4	1
313.15	40000	0	817	1.1
313.15	40000	0.0499	830.7	1.1
313.15	40000	0.1061	844.5	1.1
313.15	40000	0.2029	863.9	1
313.15	40000	0.3028	879.8	1
313.15	40000	0.3955	891.7	1
313.15	40000	0.4938	902.1	1
313.15	40000	0.5904	910.8	1
313.15	40000	0.7	918.9	1
313.15	40000	0.7915	924.9	1
313.15	40000	0.8954	930.5	1
313.15	40000	0.9332	932.2	1
313.15	40000	1	935.5	1
328.15	20000	0	792	1
328.15	20000	0.0499	805.9	1
328.15	20000	0.1061	819.7	1
328.15	20000	0.2029	838.9	1
328.15	20000	0.3028	854.9	1
328.15	20000	0.3955	866.9	1
328.15	20000	0.4938	877.2	1
328.15	20000	0.5904	885.9	1
328.15	20000	0.7	894	1
328.15	20000	0.7915	899.9	1
328.15	20000	0.8954	905.5	1
328.15	20000	0.9332	907.3	1
328.15	20000	1	910.6	1
328.15	25000	0	795.8	1
328.15	25000	0.0499	809.7	1
328.15	25000	0.1061	823.5	1
328.15	25000	0.2029	842.6	1
328.15	25000	0.3028	858.6	1
328.15	25000	0.3955	870.5	1
328.15	25000	0.4938	880.9	1
328.15	25000	0.5904	889.6	1
328.15	25000	0.7	897.7	1
328.15	25000	0.7915	903.7	1
328.15	25000	0.8954	909.3	1
328.15	25000	0.9332	911	1
328.15	25000	1	914.3	1
328.15	30000	0	799.6	1.1
328.15	30000	0.0499	813.3	1
328.15	30000	0.1061	827.1	1
328.15	30000	0.2029	846.3	1
328.15	30000	0.3028	862.1	1
328.15	30000	0.3955	874	1
328.15	30000	0.4938	884.4	1
328.15	30000	0.5904	893.1	1
328.15	30000	0.7	901.2	1
328.15	30000	0.7915	907.2	1
328.15	30000	0.8954	912.7	1
328.15	30000	0.9332	914.5	1
328.15	30000	1	917.9	1
328.15	35000	0	803.1	1.1
328.15	35000	0.0499	816.8	1.1
328.15	35000	0.1061	830.6	1.1
328.15	35000	0.2029	849.6	1
328.15	35000	0.3028	865.6	1
328.15	35000	0.3955	877.4	1
328.15	35000	0.4938	887.9	1
328.15	35000	0.5904	896.5	1
328.15	35000	0.7	904.6	1
328.15	35000	0.7915	910.5	1
328.15	35000	0.8954	916.2	1
328.15	35000	0.9332	917.9	1
328.15	35000	1	921.3	1
328.15	40000	0	806.6	1.1
328.15	40000	0.0499	820.2	1.1
328.15	40000	0.1061	833.9	1.1
328.15	40000	0.2029	853.1	1
328.15	40000	0.3028	868.9	1
328.15	40000	0.3955	880.9	1
328.15	40000	0.4938	891.2	1
328.15	40000	0.5904	899.9	1
328.15	40000	0.7	908	1
328.15	40000	0.7915	913.9	1
328.15	40000	0.8954	919.5	1
328.15	40000	0.9332	921.3	1
328.15	40000	1	924.7	1
