Measured thermophysical data. Vapor Pressures of Several Commercially Used Alkanolamines
Source: J. Chem. Eng. Data, 2011, 10.1021/je101259r
Compound 1: water, H2O, InChI=1S/H2O/h1H2, purity 99.9%
Compound 2: 2-aminoethan-1-ol, C2H7NO, InChI=1S/C2H7NO/c3-1-2-4/h4H,1-3H2
Compound 3: diethanolamine, C4H11NO2, InChI=1S/C4H11NO2/c6-3-1-5-2-4-7/h5-7H,1-4H2
Compound 4: 2-(methylamino)ethanol, C3H9NO, InChI=1S/C3H9NO/c1-4-2-3-5/h4-5H,2-3H2,1H3
Compound 5: 2-(N,N-dimethylamino)ethanol, C4H11NO, InChI=1S/C4H11NO/c1-5(2)3-4-6/h6H,3-4H2,1-2H3
Compound 6: (diethylamino)ethanol, C6H15NO, InChI=1S/C6H15NO/c1-3-7(4-2)5-6-8/h8H,3-6H2,1-2H3
Compound 7: N-(2-hydroxypropyl)-2-hydroxy-1-propanamine, C6H15NO2, InChI=1S/C6H15NO2/c1-5(8)3-7-4-6(2)9/h5-9H,3-4H2,1-2H3
Compound 8: 2-(2-aminoethoxy)ethanol, C4H11NO2, InChI=1S/C4H11NO2/c5-1-3-7-4-2-6/h6H,1-5H2
Compound 9: 2-amino-2-methylpropan-1-ol, C4H11NO, InChI=1S/C4H11NO/c1-4(2,5)3-6/h6H,3,5H2,1-2H3

System: water; phases: Liquid, Gas
Property: Vapor or sublimation pressure, kPa (Liquid); method: EBULLIO:UFactor:32
Temperature, K	Vapor or sublimation pressure, kPa	uncertainty
322.6	11.9	0.4
343	30.9	0.7
362.9	69.9	0.9
372.4	100	1.3
383.9	150	2
402.3	270.2	3.2
415.8	400.3	4.6

System: 2-aminoethan-1-ol; phases: Liquid, Gas
Property: Vapor or sublimation pressure, kPa (Liquid); method: EBULLIO:UFactor:32
Temperature, K	Vapor or sublimation pressure, kPa	uncertainty
358.6	3.02	0.26
373	6.4	0.28
385.7	11.7	0.4
403.6	24.9	0.6
422.7	51.1	0.7
432.6	71.8	1
441.9	97.5	1.2

System: diethanolamine; phases: Liquid, Gas
Property: Vapor or sublimation pressure, kPa (Liquid); method: EBULLIO:UFactor:8
Temperature, K	Vapor or sublimation pressure, kPa	uncertainty
427.5	1.44	0.07
433	1.94	0.07
441.4	2.94	0.09
447.4	3.94	0.11
452.4	4.94	0.12

System: 2-(methylamino)ethanol; phases: Liquid, Gas
Property: Vapor or sublimation pressure, kPa (Liquid); method: EBULLIO:UFactor:16
Temperature, K	Vapor or sublimation pressure, kPa	uncertainty
341.8	1.94	0.2
347.9	2.94	0.14
357.5	4.94	0.16
365.7	7.44	0.21
371.6	9.94	0.26
387.4	19.9	0.5
397.3	29.9	0.7
404.8	39.9	0.9
411	49.9	1.1
422.7	75	0.9
431.4	100	1.2
437.3	120	1.4
442.5	140	1.7
444.8	150	1.8
449.1	170	2
451.1	180	2.1

System: 2-(N,N-dimethylamino)ethanol; phases: Liquid, Gas
Property: Vapor or sublimation pressure, kPa (Liquid); method: EBULLIO:UFactor:16
Temperature, K	Vapor or sublimation pressure, kPa	uncertainty
309.5	1.44	0.25
320.8	2.94	0.13
330.4	4.94	0.16
338.5	7.44	0.2
344.7	9.94	0.26
360.9	19.9	0.4
371.2	29.9	0.7
385.3	49.9	1.1
397.6	75	0.9
406.8	100	1.2
413.1	120	1.4
420.9	150	1.8
431.6	200	2.3
440.4	250.1	2.8
447.8	300.2	3.3

System: (diethylamino)ethanol; phases: Liquid, Gas
Property: Vapor or sublimation pressure, kPa (Liquid); method: EBULLIO:UFactor:16
Temperature, K	Vapor or sublimation pressure, kPa	uncertainty
333.2	1.94	0.13
340.7	2.94	0.13
351	4.94	0.16
359.8	7.44	0.2
366.5	9.94	0.26
383.9	19.9	0.4
395.1	29.9	0.7
410.5	49.9	1.1
423.9	75	0.9
434	100	1.2
440.9	120	1.4
443.9	130	1.5
449.5	150	1.7

System: N-(2-hydroxypropyl)-2-hydroxy-1-propanamine; phases: Liquid, Gas
Property: Vapor or sublimation pressure, kPa (Liquid); method: EBULLIO:UFactor:16
Temperature, K	Vapor or sublimation pressure, kPa	uncertainty
409.6	1.44	0.13
415	1.94	0.13
419.4	2.44	0.13
423	2.94	0.13
426.3	3.44	0.14
429	3.94	0.15
431.7	4.44	0.15
433.8	4.94	0.16
436.1	5.44	0.17
441.6	6.94	0.19
443.3	7.44	0.2
444.7	7.94	0.21
446.3	8.44	0.22
447.5	8.94	0.23
448.9	9.44	0.24
450.1	9.94	0.25
451.3	10.4	0.3
451.4	10.4	0.3
452.7	10.9	0.3

System: 2-(2-aminoethoxy)ethanol; phases: Liquid, Gas
Property: Vapor or sublimation pressure, kPa (Liquid); method: EBULLIO:UFactor:16
Temperature, K	Vapor or sublimation pressure, kPa	uncertainty
391.5	1.94	0.13
399.4	2.94	0.13
405.3	3.94	0.15
410.1	4.94	0.16
419.2	7.44	0.2
426	9.94	0.25
436.2	14.9	0.3
443.9	19.9	0.4
450.1	24.9	0.5

System: 2-amino-2-methylpropan-1-ol; phases: Liquid, Gas
Property: Vapor or sublimation pressure, kPa (Liquid); method: EBULLIO:UFactor:16
Temperature, K	Vapor or sublimation pressure, kPa	uncertainty
347.5	1.94	0.13
354.3	2.94	0.14
363.6	4.94	0.16
371.4	7.44	0.21
377.2	9.94	0.26
392.3	19.9	0.5
402.1	29.9	0.7
409.5	39.9	0.9
415.6	49.9	1.1
423	65	0.8
429.2	80	1
436.2	100	1.2
442.1	120	1.4
447.3	140	1.6
452	160	1.8
