Measured thermophysical data. Measuring the Aqueous Henry's Law Constant at Elevated Temperatures Using an Extended EPICS Technique
Source: J. Chem. Eng. Data, 2010, 10.1021/je100701w
Compound 1: benzene, C6H6, InChI=1S/C6H6/c1-2-4-6-5-3-1/h1-6H
Compound 2: toluene, C7H8, InChI=1S/C7H8/c1-7-5-3-2-4-6-7/h2-6H,1H3
Compound 3: chlorobenzene, C6H5Cl, InChI=1S/C6H5Cl/c7-6-4-2-1-3-5-6/h1-5H
Compound 4: bromobenzene, C6H5Br, InChI=1S/C6H5Br/c7-6-4-2-1-3-5-6/h1-5H
Compound 5: water, H2O, InChI=1S/H2O/h1H2

System: benzene + water; phases: Liquid, Gas
Fixed: Mole fraction of benzene = 0
Property: Henry's Law constant (mole fraction scale), kPa of benzene (Liquid); method: UV Spectrometer
Temperature, K	Henry's Law constant (mole fraction scale), kPa of benzene	uncertainty
322	70700	2700
342	112300	16000
362	160000	7700

System: toluene + water; phases: Liquid, Gas
Fixed: Mole fraction of toluene = 0
Property: Henry's Law constant (mole fraction scale), kPa of toluene (Liquid); method: UV Spectrometer
Temperature, K	Henry's Law constant (mole fraction scale), kPa of toluene	uncertainty
322	85500	2200
342	138800	8400
362	214900	17500

System: chlorobenzene + water; phases: Liquid, Gas
Fixed: Mole fraction of chlorobenzene = 0
Property: Henry's Law constant (mole fraction scale), kPa of chlorobenzene (Liquid); method: UV Spectrometer
Temperature, K	Henry's Law constant (mole fraction scale), kPa of chlorobenzene	uncertainty
323.15	43500	3700
333.15	53300	5300
343.15	55100	4500

System: bromobenzene + water; phases: Liquid, Gas
Fixed: Mole fraction of bromobenzene = 0
Property: Henry's Law constant (mole fraction scale), kPa of bromobenzene (Liquid); method: UV Spectrometer
Temperature, K	Henry's Law constant (mole fraction scale), kPa of bromobenzene	uncertainty
303.15	15900	800
323.15	32300	2400
343.15	48400	5100
