Measured thermophysical data. Solubilities of Nizatidine in Water, Methanol, Ethanol, Acetone, and Ethyl Acetate from (273.15 to 343.15) K
Source: J. Chem. Eng. Data, 2010, 10.1021/je1000928
Compound 1: N-(2-(((2-((dimethylamino)methyl)thiazol-4-yl)methyl)thio)ethyl)-N'-methyl-2-nitroethene-1,1-diamine, C12H21N5O2S2, InChI=1S/C12H21N5O2S2/c1-13-11(6-17(18)19)14-4-5-20-8-10-9-21-12(15-10)7-16(2)3/h6,9,13-14H,4-5,7-8H2,1-3H3, purity 99.5%
Compound 2: methanol, CH4O, InChI=1S/CH4O/c1-2/h2H,1H3
Compound 3: ethanol, C2H6O, InChI=1S/C2H6O/c1-2-3/h3H,2H2,1H3
Compound 4: ethyl acetate, C4H8O2, InChI=1S/C4H8O2/c1-3-6-4(2)5/h3H2,1-2H3
Compound 5: acetone, C3H6O, InChI=1S/C3H6O/c1-3(2)4/h1-2H3
Compound 6: water, H2O, InChI=1S/H2O/h1H2

System: methanol + N-(2-(((2-((dimethylamino)methyl)thiazol-4-yl)methyl)thio)ethyl)-N'-methyl-2-nitroethene-1,1-diamine; phases: Liquid, Crystal
Fixed: Pressure, kPa = 101
Property: Mass ratio of solute to solvent (Liquid); method: UV
Temperature, K	Mass ratio of solute to solvent	uncertainty
273.15	0.01695	0.00102
278.15	0.02157	0.00129
283.15	0.0278	0.00167
288.15	0.03593	0.00216
293.15	0.04673	0.0028
298.15	0.06255	0.00375
303.15	0.08287	0.00497
308.15	0.11506	0.0069
313.15	0.17225	0.01034
318.15	0.25398	0.01524

System: water + N-(2-(((2-((dimethylamino)methyl)thiazol-4-yl)methyl)thio)ethyl)-N'-methyl-2-nitroethene-1,1-diamine; phases: Liquid, Crystal
Fixed: Pressure, kPa = 101
Property: Mass ratio of solute to solvent (Liquid); method: UV
Temperature, K	Mass ratio of solute to solvent	uncertainty
273.15	0.02296	0.00138
278.15	0.02374	0.00142
283.15	0.02435	0.00146
288.15	0.02532	0.00152
293.15	0.02641	0.00158
298.15	0.03064	0.00184
303.15	0.03362	0.00202
308.15	0.0373	0.00224
313.15	0.04185	0.00251
318.15	0.04854	0.00291
323.15	0.05655	0.00339
328.15	0.06986	0.00419
333.15	0.08808	0.00528
338.15	0.12202	0.00732
343.15	0.1955	0.01173

System: ethanol + N-(2-(((2-((dimethylamino)methyl)thiazol-4-yl)methyl)thio)ethyl)-N'-methyl-2-nitroethene-1,1-diamine; phases: Liquid, Crystal
Fixed: Pressure, kPa = 101
Property: Mass ratio of solute to solvent (Liquid); method: UV
Temperature, K	Mass ratio of solute to solvent	uncertainty
273.15	0.00287	0.00023
278.15	0.00383	0.00031
283.15	0.00489	0.00039
288.15	0.00657	0.00053
293.15	0.00874	0.0007
298.15	0.01348	0.00108
303.15	0.01694	0.00136
308.15	0.02163	0.00173
313.15	0.03106	0.00248
318.15	0.03904	0.00312
323.15	0.06614	0.00529
328.15	0.10556	0.00844
333.15	0.21846	0.01748

System: acetone + N-(2-(((2-((dimethylamino)methyl)thiazol-4-yl)methyl)thio)ethyl)-N'-methyl-2-nitroethene-1,1-diamine; phases: Liquid, Crystal
Fixed: Pressure, kPa = 101
Property: Mass ratio of solute to solvent (Liquid); method: UV
Temperature, K	Mass ratio of solute to solvent	uncertainty
273.15	0.00284	0.00017
278.15	0.00341	0.0002
283.15	0.00434	0.00026
288.15	0.00555	0.00033
293.15	0.00705	0.00042
298.15	0.00812	0.00049
303.15	0.01036	0.00062
308.15	0.013	0.00078
313.15	0.01672	0.001
318.15	0.02406	0.00144
323.15	0.04002	0.0024

System: ethyl acetate + N-(2-(((2-((dimethylamino)methyl)thiazol-4-yl)methyl)thio)ethyl)-N'-methyl-2-nitroethene-1,1-diamine; phases: Liquid, Crystal
Fixed: Pressure, kPa = 101
Property: Mass ratio of solute to solvent (Liquid); method: UV
Temperature, K	Mass ratio of solute to solvent	uncertainty
273.15	0.0003	2e-05
278.15	0.00033	2e-05
283.15	0.00043	4e-05
288.15	0.00058	4e-05
293.15	0.00064	4e-05
298.15	0.00083	5e-05
303.15	0.00093	6e-05
308.15	0.00149	0.00014
313.15	0.00187	0.00011
318.15	0.0022	0.00013
323.15	0.0027	0.00016
328.15	0.00344	0.00021
333.15	0.00422	0.00025
338.15	0.00554	0.00033
