Measured thermophysical data. Partial Molar Isentropic and Isothermal Compressions of the Nucleosides Adenosine, Cytidine, and Uridine in Aqueous Solution at 298.15 K
Source: J. Chem. Eng. Data, 2011, 10.1021/je101264r
Compound 1: cytidine, C9H13N3O5, InChI=1S/C9H13N3O5/c10-5-1-2-12(9(16)11-5)8-7(15)6(14)4(3-13)17-8/h1-2,4,6-8,13-15H,3H2,(H2,10,11,16)/t4-,6?,7?,8-/m1/s1
Compound 2: uridine, C9H12N2O6, InChI=1S/C9H12N2O6/c12-3-4-6(14)7(15)8(17-4)11-2-1-5(13)10-9(11)16/h1-2,4,6-8,12,14-15H,3H2,(H,10,13,16)/t4-,6?,7?,8-/m1/s1
Compound 3: water, H2O, InChI=1S/H2O/h1H2
Compound 4: .beta.-adenosine, C10H13N5O4, InChI=1S/C10H13N5O4/c11-8-5-9(13-2-12-8)15(3-14-5)10-7(18)6(17)4(1-16)19-10/h2-4,6-7,10,16-18H,1H2,(H2,11,12,13)/t4-,6-,7-,10-/m1/s1

System: .beta.-adenosine + water; phases: Liquid
Fixed: Pressure, kPa = 101
Fixed: Temperature, K = 298.15
Property: Speed of sound, m/s (Liquid); method: rubidium clock sound velocity meter
Molality, mol/kg of .beta.-adenosine	Speed of sound, m/s	uncertainty
0.01701	1497.775	0.03
0.01736	1497.796	0.03
0.01799	1497.835	0.03
0.01851	1497.868	0.03
0.01911	1497.903	0.03
0.0195	1497.934	0.03
0.02001	1497.965	0.03
0.02054	1497.996	0.03

System: cytidine + water; phases: Liquid
Fixed: Pressure, kPa = 101
Fixed: Temperature, K = 298.15
Property: Speed of sound, m/s (Liquid); method: rubidium clock sound velocity meter
Molality, mol/kg of cytidine	Speed of sound, m/s	uncertainty
0.013	1497.667	0.03
0.01484	1497.807	0.03
0.01993	1498.185	0.03
0.02424	1498.508	0.03
0.02709	1498.717	0.03
0.03088	1498.997	0.03
0.03696	1499.449	0.03
0.04298	1499.888	0.03
0.04979	1500.385	0.03
0.06353	1501.39	0.03
0.07638	1502.327	0.03
0.08896	1503.232	0.03
0.10221	1504.191	0.03
0.11547	1505.132	0.03
0.12736	1505.981	0.03

System: uridine + water; phases: Liquid
Fixed: Pressure, kPa = 101
Fixed: Temperature, K = 298.15
Property: Speed of sound, m/s (Liquid); method: rubidium clock sound velocity meter
Molality, mol/kg of uridine	Speed of sound, m/s	uncertainty
0.0151	1497.676	0.03
0.01599	1497.734	0.03
0.01946	1497.961	0.03
0.02081	1498.057	0.03
0.02455	1498.293	0.03
0.02798	1498.52	0.03
0.0352	1498.988	0.03
0.04005	1499.3	0.03
0.04644	1499.715	0.03
0.05897	1500.52	0.03
0.07233	1501.38	0.03
0.0855	1502.214	0.03
0.09859	1503.048	0.03
0.11086	1503.822	0.03
