Measured thermophysical data. Liquid-Liquid and Vapor-Liquid-Liquid Equilibrium of the 2-Butanone + 2-Butanol + Water System
Source: J. Chem. Eng. Data, 2011, 10.1021/je1004643
Compound 1: butanone, C4H8O, InChI=1S/C4H8O/c1-3-4(2)5/h3H2,1-2H3
Compound 2: butan-2-ol, C4H10O, InChI=1S/C4H10O/c1-3-4(2)5/h4-5H,3H2,1-2H3
Compound 3: water, H2O, InChI=1S/H2O/h1H2

System: butanone; phases: Liquid, Gas
Property: Normal boiling temperature, K (Liquid); method: Ebulliometric method (Recirculating still)
Normal boiling temperature, K	uncertainty
352.68	0.3

System: butanone; phases: Liquid
Property: Refractive index (Na D-line) (Liquid); method: Standard Abbe refractometry
Temperature, K	Pressure, kPa	Refractive index (Na D-line)	uncertainty
298.15	101.325	1.3761	0.0005

System: butanone; phases: Liquid
Property: Mass density, kg/m3 (Liquid); method: VIBTUB:UFactor:4
Temperature, K	Pressure, kPa	Mass density, kg/m3	uncertainty
298.15	101.325	799.62	0.46

System: butan-2-ol; phases: Liquid, Gas
Property: Normal boiling temperature, K (Liquid); method: Ebulliometric method (Recirculating still)
Normal boiling temperature, K	uncertainty
372.56	0.3

System: butan-2-ol; phases: Liquid
Property: Refractive index (Na D-line) (Liquid); method: Standard Abbe refractometry
Temperature, K	Pressure, kPa	Refractive index (Na D-line)	uncertainty
298.15	101.325	1.3951	0.0005

System: butan-2-ol; phases: Liquid
Property: Mass density, kg/m3 (Liquid); method: VIBTUB:UFactor:6
Temperature, K	Pressure, kPa	Mass density, kg/m3	uncertainty
298.15	101.325	802.35	0.79

System: butan-2-ol + butanone + water; phases: Liquid mixture 2, Liquid mixture 1
Fixed: Pressure, kPa = 101.32
Property: Mole fraction of butan-2-ol (Liquid mixture 2); method: CHROM:UFactor:4
Property: Mole fraction of butan-2-ol (Liquid mixture 1); method: CHROM:UFactor:4
Property: Mole fraction of butanone (Liquid mixture 1); method: CHROM:UFactor:4
Temperature, K	Mole fraction of butanone	Mole fraction of butan-2-ol	uncertainty	Mole fraction of butan-2-ol	uncertainty	Mole fraction of butanone	uncertainty
293.15	0.082	0		0		0.649	
293.15	0.09	0.003	0.003	0.026	0.01	0.538	
293.15	0.091	0.006	0.006	0.036	0.01	0.482	
293.15	0.095	0.012	0.012	0.051	0.01	0.409	
293.15	0.108	0.019	0.011	0.053	0.01	0.315	
293.15	0.11	0.02	0.011	0.052	0.01	0.303	
293.15	0.005	0.066	0.014	0.236	0.046	0.014	
293.15	0	0.056	0.01	0.298	0.013	0	
313.15	0.061	0		0		0.633	
313.15	0.064	0.002	0.002	0.029	0.011	0.545	
313.15	0.063	0.004	0.004	0.041	0.011	0.505	
313.15	0.062	0.008	0.008	0.055	0.011	0.462	
313.15	0.063	0.01	0.01	0.068	0.012	0.409	
313.15	0.062	0.011	0.011	0.071	0.012	0.404	
313.15	0.062	0.016	0.016	0.087	0.01	0.329	
313.15	0.062	0.022	0.022	0.096	0.01	0.264	
313.15	0.064	0.028	0.028	0.096	0.01	0.209	
313.15	0.069	0.039	0.039	0.096	0.012	0.164	
313.15	0.025	0.058	0.011	0.167	0.046	0.063	
313.15	0.021	0.056	0.012	0.18	0.032	0.059	
313.15	0.013	0.05	0.012	0.221	0.032	0.048	
313.15	0.01	0.048	0.012	0.243	0.026	0.04	
313.15	0.003	0.044	0.01	0.296	0.026	0.017	
313.15	0	0.042	0.01	0.335	0.014	0	
323.15	0.056	0		0		0.612	
323.15	0.054	0.002	0.002	0.028	0.011	0.549	
323.15	0.059	0.005	0.005	0.04	0.011	0.512	
323.15	0.053	0.007	0.007	0.054	0.011	0.469	
323.15	0.053	0.009	0.009	0.071	0.01	0.416	
323.15	0.054	0.01	0.01	0.075	0.01	0.412	
323.15	0.052	0.013	0.013	0.088	0.011	0.345	
323.15	0.05	0.017	0.017	0.104	0.011	0.29	
323.15	0.05	0.021	0.021	0.112	0.011	0.245	
323.15	0.047	0.026	0.021	0.12	0.011	0.204	
323.15	0.041	0.034	0.013	0.134	0.011	0.146	
323.15	0.039	0.038	0.013	0.141	0.013	0.128	
323.15	0.027	0.042	0.01	0.167	0.015	0.096	
323.15	0.019	0.041	0.01	0.198	0.012	0.074	
323.15	0.017	0.042	0.01	0.209	0.013	0.07	
323.15	0.012	0.041	0.01	0.235	0.02	0.053	
323.15	0.008	0.041	0.01	0.255	0.022	0.042	
323.15	0.003	0.039	0.01	0.3	0.023	0.018	
323.15	0	0.042	0.01	0.336	0.014	0	
333.15	0.05	0		0		0.623	
333.15	0.051	0.003	0.003	0.029	0.011	0.541	
333.15	0.05	0.004	0.004	0.039	0.011	0.505	
333.15	0.048	0.008	0.008	0.07	0.011	0.42	
333.15	0.049	0.008	0.008	0.073	0.011	0.413	
333.15	0.046	0.012	0.012	0.092	0.011	0.355	
333.15	0.044	0.016	0.016	0.11	0.011	0.306	
333.15	0.043	0.018	0.018	0.121	0.011	0.263	
333.15	0.04	0.022	0.016	0.133	0.011	0.227	
333.15	0.035	0.028	0.013	0.154	0.012	0.169	
333.15	0.031	0.03	0.012	0.162	0.012	0.147	
333.15	0.023	0.035	0.011	0.186	0.014	0.109	
333.15	0.017	0.037	0.01	0.214	0.018	0.08	
333.15	0.015	0.037	0.01	0.222	0.019	0.074	
333.15	0.011	0.038	0.01	0.249	0.019	0.056	
333.15	0.008	0.037	0.01	0.265	0.02	0.045	
333.15	0.003	0.037	0.01	0.305	0.02	0.019	
333.15	0	0.037	0.01	0.335	0.014	0	

System: butan-2-ol + butanone + water; phases: Liquid mixture 2, Liquid mixture 1, Gas
Fixed: Pressure, kPa = 101.3
Property: Mole fraction of butan-2-ol (Liquid mixture 2); method: Chromatography
Property: Mole fraction of butan-2-ol (Liquid mixture 1); method: Chromatography
Property: Mole fraction of butan-2-ol (Gas); method: Chromatography
Property: Mole fraction of butanone (Liquid mixture 2); method: Chromatography
Property: Mole fraction of butanone (Liquid mixture 1); method: Chromatography
Property: Mole fraction of butanone (Gas); method: Chromatography
Temperature, K	Mole fraction of butan-2-ol	uncertainty	Mole fraction of butan-2-ol	uncertainty	Mole fraction of butan-2-ol	uncertainty	Mole fraction of butanone	uncertainty	Mole fraction of butanone	uncertainty	Mole fraction of butanone	uncertainty
360.46	0.037	0.01	0.324	0.01	0.388	0.01	0		0		0	
358.81	0.038	0.01	0.273	0.01	0.332	0.01	0.006	0.006	0.029	0.01	0.098	0.01
357.31	0.037	0.01	0.244	0.01	0.281	0.01	0.01	0.01	0.053	0.01	0.184	0.01
356.39	0.035	0.01	0.224	0.01	0.255	0.01	0.012	0.01	0.064	0.01	0.224	0.01
355.66	0.034	0.01	0.204	0.01	0.229	0.01	0.016	0.01	0.08	0.01	0.265	0.01
353.44	0.03	0.01	0.176	0.01	0.167	0.01	0.024	0.01	0.127	0.01	0.375	0.01
352.02	0.023	0.01	0.147	0.01	0.128	0.01	0.032	0.01	0.183	0.01	0.443	0.011
350.8	0.021	0.01	0.132	0.01	0.094	0.01	0.039	0.01	0.228	0.01	0.502	0.011
349.24	0.011	0.01	0.093	0.01	0.062	0.01	0.042	0.01	0.341	0.01	0.555	0.011
348.16	0.007	0.007	0.066	0.01	0.035	0.01	0.045	0.01	0.415	0.011	0.597	0.01
347.52	0.003	0.003	0.044	0.01	0.02	0.01	0.049	0.01	0.493	0.011	0.621	0.01
