Measured thermophysical data. Measurement and Modeling of the Solubility of 9H-Carbazole in Sub- and Supercritical Propane
Source: J. Chem. Eng. Data, 2011, 10.1021/je100923d
Compound 1: propane, C3H8, InChI=1S/C3H8/c1-3-2/h3H2,1-2H3, purity 99.5%
Compound 2: 9H-carbazole, C12H9N, InChI=1S/C12H9N/c1-3-7-11-9(5-1)10-6-2-4-8-12(10)13-11/h1-8,13H, purity 98%

System: propane + 9H-carbazole; phases: Fluid (supercritical or subcritical phases), Crystal
Property: Vapor or sublimation pressure, kPa (Fluid (supercritical or subcritical phases)); method: Closed cell (Static) method
Temperature, K	Mole fraction of 9H-carbazole	Vapor or sublimation pressure, kPa	uncertainty
313	8.967e-06	11900	414
323	9.546e-06	6300	403
323	4.475e-05	8600	1296
323	5.146e-05	10000	1473
333	8.386e-06	3900	400
333	4.818e-05	4400	953
333	5.259e-05	5000	763
333	5.77e-05	5300	455
333	6.587e-05	5400	420
333	8.6e-05	8000	1520
351	0.0001023	4300	489
351	0.0001267	6500	1075
351	0.0001568	7600	933
351	0.0001779	8600	1183
370	0.0001793	5000	3346
370	0.000185	5800	3451
370	0.000216	7900	1973
388	3.865e-05	5100	406
388	9.276e-05	5800	415
388	0.0001603	6000	418
388	0.0002123	6500	478
388	0.0002466	6800	534
388	0.0002662	7100	593
388	0.0003099	7600	616
405	7.968e-05	4400	426
405	0.0001226	5000	473
405	0.0002411	6900	478
405	0.000374	7100	419
405	0.0004172	7400	554
