Measured thermophysical data. Solubility of Refrigerant 1,1,1,2-Tetrafluoroethane in the N,N-Dimethyl Formamide in the Temperature Range from (263.15 to 363.15) K
Source: J. Chem. Eng. Data, 2011, 10.1021/je100975b
Compound 1: 1,1,1,2-tetrafluoroethane, C2H2F4, InChI=1S/C2H2F4/c3-1-2(4,5)6/h1H2, purity 99.9%
Compound 2: dimethylformamide, C3H7NO, InChI=1S/C3H7NO/c1-4(2)3-5/h3H,1-2H3, purity 99.99%
Compound 3: chlorodifluoromethane, CHClF2, InChI=1S/CHClF2/c2-1(3)4/h1H, purity 99.99%

System: dimethylformamide + 1,1,1,2-tetrafluoroethane; phases: Liquid, Gas
Property: Vapor or sublimation pressure, kPa (Liquid); method: CCELL:UFactor:16
Temperature, K	Mole fraction of 1,1,1,2-tetrafluoroethane	Vapor or sublimation pressure, kPa	uncertainty
263.15	0.1496	30.1	3.65
263.15	0.2429	47.71	4.07
263.15	0.3381	67.55	4.66
263.15	0.4581	92.21	5.5
263.15	0.5673	112.73	6.26
263.15	0.6301	123.94	6.71
263.15	0.7377	148.1	7.7
263.15	0.8794	184.35	9.45
273.15	0.149	42	4
273.15	0.2422	68.24	4.74
273.15	0.3374	95.35	5.67
273.15	0.4575	128.95	6.95
273.15	0.5671	160.6	8.31
273.15	0.6298	181.66	9.34
273.15	0.7375	217.65	11.12
273.15	0.8793	264.69	13.45
283.15	0.1282	47.23	4.4
283.15	0.1919	77.14	5.21
283.15	0.2412	96.35	5.79
283.15	0.3365	130.55	7.08
283.15	0.4567	177.7	9.22
283.15	0.5667	227.35	11.63
283.15	0.6934	269.49	13.7
283.15	0.7874	313.68	15.91
283.15	0.8792	354.33	17.97
293.15	0.1275	63.28	4.83
293.15	0.2359	115.98	6.67
293.15	0.3331	169.21	8.92
293.15	0.3842	195.78	10.18
293.15	0.4952	255.65	13.1
293.15	0.5273	271	13.84
293.15	0.5998	309.8	15.78
293.15	0.6932	366.72	18.59
293.15	0.7873	423.52	21.39
293.15	0.8793	482.54	24.35
293.15	0.9432	540.48	27.29
303.15	0.1267	85.15	5.78
303.15	0.2352	155.83	8.44
303.15	0.3324	226.83	11.84
303.15	0.3836	258.92	13.38
303.15	0.4947	340.42	17.38
303.15	0.5269	361.48	18.35
303.15	0.5994	410.77	20.83
303.15	0.6929	485.79	24.49
303.15	0.7871	538.69	27.1
303.15	0.8791	616.4	31.16
303.15	0.9431	724.21	36.85
313.15	0.2343	201.58	10.91
313.15	0.3316	296.81	15.39
313.15	0.3828	332.16	17.11
313.15	0.494	442.42	22.54
313.15	0.5263	471.55	23.91
313.15	0.5989	540.62	27.26
313.15	0.6925	614.11	30.87
313.15	0.7868	695.29	34.95
313.15	0.879	801.56	40.41
313.15	0.9424	924.69	46.95
323.15	0.1241	135.9	8.37
323.15	0.2316	257.57	13.73
323.15	0.3284	358.15	18.53
323.15	0.3795	414.34	21.37
323.15	0.4907	561.21	28.56
323.15	0.523	600.62	30.39
323.15	0.5958	686.33	34.58
323.15	0.6898	793.44	39.89
323.15	0.7334	859.45	43.11
323.15	0.8778	1017.62	51.02
323.15	0.9418	1180.05	59.22
333.15	0.1225	170.89	10.58
333.15	0.2287	328.31	17.56
333.15	0.3249	470.7	24.29
333.15	0.3758	541.95	27.62
333.15	0.4869	682.27	34.5
333.15	0.5194	743.01	37.56
333.15	0.5924	845.63	42.57
333.15	0.6787	973.41	48.86
333.15	0.7214	1019.21	51.1
333.15	0.8764	1265.18	63.36
333.15	0.9412	1490.86	74.16
343.15	0.1201	200.13	12.75
343.15	0.2249	404.16	21.58
343.15	0.3204	568.42	29.23
343.15	0.3711	653.26	33.15
343.15	0.4821	809.19	40.87
343.15	0.5148	896.01	45.24
343.15	0.5881	1005.62	50.77
343.15	0.6748	1221.11	61.5
343.15	0.7173	1305.1	65.39
343.15	0.8746	1590.13	79.22
343.15	0.9405	1858.13	92.48
353.15	0.1165	235.11	14.2
353.15	0.2125	425.66	22.96
353.15	0.3139	651.57	33.79
353.15	0.3643	768.09	39.03
353.15	0.4752	958.99	48.32
353.15	0.5082	1016.92	51.39
353.15	0.5818	1195.43	60.39
353.15	0.6693	1430.14	71.87
353.15	0.7121	1520.3	76.35
353.15	0.8721	1955.9	97.5
353.15	0.9393	2286.35	113.61
363.15	0.1111	280.11	17.22
363.15	0.2018	503.14	27.01
363.15	0.3048	752.25	38.87
363.15	0.355	891.72	45.51
363.15	0.4659	1149.12	57.97
363.15	0.4992	1227.36	61.9
363.15	0.5734	1415.89	71.14
363.15	0.6619	1631.87	81.75
363.15	0.7041	1738.41	87.47
363.15	0.8686	2315.66	116.2
363.15	0.9375	2715.84	136.9

System: dimethylformamide + chlorodifluoromethane; phases: Liquid, Gas
Property: Vapor or sublimation pressure, kPa (Liquid); method: CCELL:UFactor:16
Temperature, K	Mole fraction of chlorodifluoromethane	Vapor or sublimation pressure, kPa	uncertainty
283.15	0.3583	103.37	6.31
283.15	0.6596	280.22	14.33
293.15	0.3583	141.83	7.8
293.15	0.6596	337.81	17.26
303.15	0.3583	192.25	10.5
303.15	0.6596	484.29	24.53
313.15	0.3583	254.21	13.55
313.15	0.6596	581.21	29.42
323.15	0.3583	329.41	17.41
323.15	0.6596	734.57	37.06
333.15	0.3583	416.1	21.79
333.15	0.6596	891.44	44.9
343.15	0.3583	522.68	27.16
343.15	0.6596	1071.93	53.89
