Measured thermophysical data. Phase Equilibria, Crystallization, and Microstructural Studies of Naphthalen-2-ol + 1,3-Dinitrobenzene
Source: J. Chem. Eng. Data, 2010, 10.1021/je100358e
Compound 1: 1,3-dinitrobenzene, C6H4N2O4, InChI=1S/C6H4N2O4/c9-7(10)5-2-1-3-6(4-5)8(11)12/h1-4H
Compound 2: 2-hydroxynaphthalene, C10H8O, InChI=1S/C10H8O/c11-10-6-5-8-3-1-2-4-9(8)7-10/h1-7,11H

System: 1,3-dinitrobenzene; phases: Crystal, Liquid, Air at 1 atmosphere
Property: Molar enthalpy of transition or fusion, kJ/mol (Crystal); method: DSC
Molar enthalpy of transition or fusion, kJ/mol	uncertainty
21.203	3

System: 1,3-dinitrobenzene; phases: Crystal, Liquid, Air at 1 atmosphere
Property: Normal melting temperature, K (Crystal); method: VISOBS
Normal melting temperature, K	uncertainty
364.95	1.5

System: 2-hydroxynaphthalene; phases: Crystal, Liquid, Air at 1 atmosphere
Property: Molar enthalpy of transition or fusion, kJ/mol (Crystal); method: DSC
Molar enthalpy of transition or fusion, kJ/mol	uncertainty
21.075	3

System: 2-hydroxynaphthalene; phases: Crystal, Liquid, Air at 1 atmosphere
Property: Normal melting temperature, K (Crystal); method: VISOBS
Normal melting temperature, K	uncertainty
394.35	1.5

System: 1,3-dinitrobenzene + 2-hydroxynaphthalene; phases: Liquid, Crystal
Fixed: Pressure, kPa = 101
Property: Solid-liquid equilibrium temperature, K (Liquid); method: VISOBS:UFactor:8
Mole fraction of 1,3-dinitrobenzene	Solid-liquid equilibrium temperature, K	uncertainty
0	394.35	1.2
0.1014	389.35	1.2
0.1791	385.25	1.2
0.25	378.15	1.2
0.2985	374.35	1.2
0.4	365.25	1.2
0.4769	358.15	1.2
0.5	355.15	1.2
0.6	343.25	1.2

System: 1,3-dinitrobenzene + 2-hydroxynaphthalene; phases: Liquid, Crystal
Fixed: Pressure, kPa = 101
Property: Solid-liquid equilibrium temperature, K (Liquid); method: VISOBS:UFactor:8
Mole fraction of 1,3-dinitrobenzene	Solid-liquid equilibrium temperature, K	uncertainty
0.7742	351.85	1.2
0.8854	360.95	1.2
1	364.95	1.2

System: 1,3-dinitrobenzene + 2-hydroxynaphthalene; phases: Liquid, Crystal, Crystal
Property: Eutectic temperature, K (Liquid); method: DTA
Pressure, kPa	Eutectic temperature, K	uncertainty
101.3	336.05	1

System: 1,3-dinitrobenzene + 2-hydroxynaphthalene; phases: Liquid, Crystal, Crystal
Property: Eutectic composition: mole fraction of 1,3-dinitrobenzene (Liquid); method: Derived from phase diagram analysis
Pressure, kPa	Eutectic composition: mole fraction of 1,3-dinitrobenzene	uncertainty
101.3	0.65	0.04
