Measured thermophysical data. Vapor-Liquid Equilibria in the Propyl Acetate + Ethanoic Acid Binary System from (323.15 to 353.15) K: Measurement with a Static Method and Modeling with the NRTL, Wilson, UNIQUAC, and COSMO-SAC Approaches
Source: J. Chem. Eng. Data, 2011, 10.1021/je101131x
Compound 1: acetic acid, C2H4O2, InChI=1S/C2H4O2/c1-2(3)4/h1H3,(H,3,4), purity 99.5%
Compound 2: propyl ethanoate, C5H10O2, InChI=1S/C5H10O2/c1-3-4-7-5(2)6/h3-4H2,1-2H3, purity 99.5%

System: acetic acid; phases: Liquid, Gas
Property: Vapor or sublimation pressure, kPa (Liquid); method: EBULLIO:UFactor:6
Temperature, K	Vapor or sublimation pressure, kPa	uncertainty
323.15	7.567	0.409
333.15	12.045	0.513
343.15	18.662	0.667
353.15	28.205	0.889

System: propyl ethanoate; phases: Liquid, Gas
Property: Vapor or sublimation pressure, kPa (Liquid); method: EBULLIO:UFactor:6
Temperature, K	Vapor or sublimation pressure, kPa	uncertainty
323.15	16.092	0.61
333.15	24.006	0.796
343.15	34.988	1.054
353.15	49.918	1.405

System: acetic acid + propyl ethanoate; phases: Liquid, Gas
Property: Vapor or sublimation pressure, kPa (Liquid); method: EBULLIO:UFactor:6
Temperature, K	Mole fraction of propyl ethanoate	Vapor or sublimation pressure, kPa	uncertainty
323.15	0	7.567	0.409
323.15	0.0549	8.75	0.436
323.15	0.1022	9.014	0.442
323.15	0.1913	10.255	0.471
323.15	0.3049	11.315	0.496
323.15	0.409	12.026	0.513
323.15	0.4951	12.731	0.529
323.15	0.6094	13.287	0.543
323.15	0.6966	14.245	0.565
323.15	0.8076	14.669	0.576
323.15	0.8463	15.271	0.59
323.15	0.9337	15.321	0.591
323.15	1	16.092	0.61
333.15	0	12.045	0.513
333.15	0.0549	13.515	0.547
333.15	0.1022	13.891	0.556
333.15	0.1913	15.502	0.593
333.15	0.3048	17.196	0.633
333.15	0.4089	18.485	0.663
333.15	0.495	19.347	0.684
333.15	0.6093	20.281	0.706
333.15	0.6966	21.564	0.736
333.15	0.8076	22.207	0.752
333.15	0.8462	22.803	0.766
333.15	0.9337	23.155	0.775
333.15	1	24.006	0.796
343.15	0	18.662	0.667
343.15	0.0549	20.354	0.706
343.15	0.1022	20.874	0.718
343.15	0.1913	22.875	0.765
343.15	0.3048	25.502	0.827
343.15	0.4089	27.712	0.879
343.15	0.4949	28.694	0.902
343.15	0.6092	30.202	0.938
343.15	0.6965	31.864	0.977
343.15	0.8076	32.815	1.001
343.15	0.8462	33.265	1.012
343.15	0.9337	34.16	1.034
343.15	1	34.988	1.054
353.15	0	28.205	0.889
353.15	0.0549	29.951	0.929
353.15	0.1022	30.653	0.946
353.15	0.1912	33.02	1.001
353.15	0.3047	36.985	1.094
353.15	0.4088	40.602	1.179
353.15	0.4948	41.618	1.203
353.15	0.6091	43.973	1.259
353.15	0.6964	46.054	1.309
353.15	0.8075	47.43	1.343
353.15	0.8462	47.501	1.345
353.15	0.9337	49.298	1.389
353.15	1	49.918	1.405
