Measured thermophysical data. Thermal Properties of Ionic Liquid + Water Binary Systems Applied to Heat Pipes
Source: J. Chem. Eng. Data, 2011, 10.1021/je100839v
Compound 1: 1-ethyl-3-methylimidazolium trifluoromethanesulfonate, C7H11F3N2O3S, InChI=1S/C6H11N2.CHF3O3S/c1-3-8-5-4-7(2)6-8;2-1(3,4)8(5,6)7/h4-6H,3H2,1-2H3;(H,5,6,7)/q+1;/p-1, purity 98%
Compound 2: 1-butyl-3-methylimidazolium iodide, C8H15IN2, InChI=1S/C8H15N2.HI/c1-3-4-5-10-7-6-9(2)8-10;/h6-8H,3-5H2,1-2H3;1H/q+1;/p-1, purity 97%
Compound 3: 1-butyl-3-methylimidazolium tetrafluoroborate, C8H15BF4N2, InChI=1S/C8H15N2.BF4/c1-3-4-5-10-7-6-9(2)8-10;2-1(3,4)5/h6-8H,3-5H2,1-2H3;/q+1;-1, purity 95%
Compound 4: 1-butyl-3-methylimidazolium thiocyanate, C9H15N3S, InChI=1S/C8H15N2.CHNS/c1-3-4-5-10-7-6-9(2)8-10;2-1-3/h6-8H,3-5H2,1-2H3;3H/q+1;/p-1, purity 95%
Compound 5: 1-ethyl-3-methylimidazolium ethyl sulfate, C8H16N2O4S, InChI=1S/C6H11N2.C2H6O4S/c1-3-8-5-4-7(2)6-8;1-2-6-7(3,4)5/h4-6H,3H2,1-2H3;2H2,1H3,(H,3,4,5)/q+1;/p-1, purity 95%
Compound 6: water, H2O, InChI=1S/H2O/h1H2, purity 99.9%

System: 1-butyl-3-methylimidazolium iodide; phases: Glass, Liquid, Air at 1 atmosphere
Property: Triple point temperature, K (Glass); method: DTA
Triple point temperature, K	uncertainty
211.1	3

System: 1-butyl-3-methylimidazolium tetrafluoroborate; phases: Glass, Liquid, Air at 1 atmosphere
Property: Triple point temperature, K (Glass); method: DTA
Triple point temperature, K	uncertainty
188.1	3

System: 1-butyl-3-methylimidazolium thiocyanate; phases: Glass, Liquid, Air at 1 atmosphere
Property: Triple point temperature, K (Glass); method: DTA
Triple point temperature, K	uncertainty
184.1	3

System: 1-ethyl-3-methylimidazolium ethyl sulfate; phases: Glass, Liquid, Air at 1 atmosphere
Property: Triple point temperature, K (Glass); method: DTA
Triple point temperature, K	uncertainty
187.1	3

System: water; phases: Liquid, Gas
Property: Vapor or sublimation pressure, kPa (Liquid); method: Closed cell (Static) method
Temperature, K	Vapor or sublimation pressure, kPa	uncertainty
313.85	8.1	3.1
318.65	10.4	3.2
323.45	13.2	3.3
328.35	16.5	3.3
333.35	20.1	3.5
338.15	24.9	3.7
343.05	30.6	3.8

System: water + 1-butyl-3-methylimidazolium iodide; phases: Liquid, Crystal, Glass, Air at 1 atmosphere
Property: Quadruple (quintuple) point temperature, K (Liquid); method: DSC
Quadruple (quintuple) point temperature, K	uncertainty
174.1	1

System: water + 1-butyl-3-methylimidazolium iodide; phases: Liquid, Glass
Fixed: Pressure, kPa = 101.3
Property: Boiling temperature at pressure P, K (Liquid); method: DTA
Mole fraction of 1-butyl-3-methylimidazolium iodide	Boiling temperature at pressure P, K	uncertainty
0.47	172.15	3
0.65	178.05	8

System: water + 1-butyl-3-methylimidazolium iodide; phases: Liquid, Crystal
Fixed: Pressure, kPa = 101.3
Property: Solid-liquid equilibrium temperature, K (Liquid); method: DTA
Mole fraction of 1-butyl-3-methylimidazolium iodide	Solid-liquid equilibrium temperature, K	uncertainty
0.09	268.1	1
0.23	252.05	1
0.28	243.05	1
0.36	216.05	1

System: water + 1-butyl-3-methylimidazolium iodide; phases: Liquid, Gas
Property: Vapor or sublimation pressure, kPa (Liquid); method: Closed cell (Static) method
Mole fraction of 1-butyl-3-methylimidazolium iodide	Temperature, K	Vapor or sublimation pressure, kPa	uncertainty
0.09	313.55	8.9	3.2
0.09	318.55	10.9	3.2
0.09	323.75	13.8	3.4
0.09	328.55	17.2	3.5
0.09	333.55	20.7	3.6
0.09	338.55	25.4	3.9
0.09	344.35	32.3	4
0.23	314.05	10	3.3
0.23	318.85	12.4	3.2
0.23	323.65	15.4	3.3
0.23	328.45	18.9	3.4
0.23	333.35	22.5	3.6
0.23	338.25	27.3	3.9
0.23	343.05	32.7	3.7
0.47	313.95	8.7	3.2
0.47	318.65	10.5	3.2
0.47	323.45	12.6	3.3
0.47	328.35	15.3	3.5
0.47	333.15	17.8	3.7
0.47	338.05	21.1	4.1
0.47	342.95	25	4.6
0.65	313.85	7.2	3.2
0.65	318.65	8.9	3.2
0.65	323.55	10.7	3.3
0.65	328.35	12.7	3.4
0.65	333.25	14.5	3.6
0.65	338.25	17.1	3.9
0.65	342.95	19.9	4.3

System: water + 1-butyl-3-methylimidazolium tetrafluoroborate; phases: Liquid, Crystal, Glass, Air at 1 atmosphere
Property: Quadruple (quintuple) point temperature, K (Liquid); method: DSC
Quadruple (quintuple) point temperature, K	uncertainty
179.1	1

System: water + 1-butyl-3-methylimidazolium tetrafluoroborate; phases: Liquid, Crystal
Fixed: Pressure, kPa = 101.3
Property: Solid-liquid equilibrium temperature, K (Liquid); method: DTA
Mole fraction of 1-butyl-3-methylimidazolium tetrafluoroborate	Solid-liquid equilibrium temperature, K	uncertainty
0.08	273.1	1
0.21	271.1	1
0.45	260.05	1
0.52	257.05	1
0.63	250.05	1
0.78	236.05	1

System: water + 1-butyl-3-methylimidazolium tetrafluoroborate; phases: Liquid, Gas
Property: Vapor or sublimation pressure, kPa (Liquid); method: Closed cell (Static) method
Mole fraction of 1-butyl-3-methylimidazolium tetrafluoroborate	Temperature, K	Vapor or sublimation pressure, kPa	uncertainty
0.08	313.55	7.8	3.1
0.08	318.55	10	3.2
0.08	323.55	12.7	3.3
0.08	328.55	16	3.4
0.08	333.45	19	3.7
0.08	338.85	24.2	4
0.08	344.05	29.7	4
0.21	313.45	7.2	3.2
0.21	318.55	9.2	3.2
0.21	323.55	11.7	3.3
0.21	328.55	14.6	3.4
0.21	333.45	17.3	3.7
0.21	339.15	22	4.1
0.21	343.95	26.9	4.4
0.45	313.65	5.8	3.2
0.45	318.65	7.4	3.2
0.45	323.65	9.2	3.3
0.45	328.45	11.5	3.5
0.45	333.45	13.4	3.7
0.45	338.95	16.8	4.1
0.45	344.05	20.2	4.6
0.63	313.65	4.3	3.2
0.63	318.55	5.5	3.2
0.63	323.65	6.5	3.4
0.63	328.65	7.9	3.7
0.63	333.55	9	3.9
0.63	338.55	10.7	4.5
0.63	344.25	13.2	5

System: water + 1-butyl-3-methylimidazolium thiocyanate; phases: Liquid, Crystal, Glass, Air at 1 atmosphere
Property: Quadruple (quintuple) point temperature, K (Liquid); method: DSC
Quadruple (quintuple) point temperature, K	uncertainty
170.15	1

System: water + 1-butyl-3-methylimidazolium thiocyanate; phases: Liquid, Glass
Fixed: Pressure, kPa = 101.3
Property: Boiling temperature at pressure P, K (Liquid); method: DTA
Mole fraction of 1-butyl-3-methylimidazolium thiocyanate	Boiling temperature at pressure P, K	uncertainty
0.36	168.15	1
0.47	169.15	1
0.65	172.15	2

System: water + 1-butyl-3-methylimidazolium thiocyanate; phases: Liquid, Crystal
Fixed: Pressure, kPa = 101.3
Property: Solid-liquid equilibrium temperature, K (Liquid); method: DTA
Mole fraction of 1-butyl-3-methylimidazolium thiocyanate	Solid-liquid equilibrium temperature, K	uncertainty
0.09	270.1	1
0.23	247.05	1
0.28	201.05	1

System: water + 1-butyl-3-methylimidazolium thiocyanate; phases: Liquid, Gas
Property: Vapor or sublimation pressure, kPa (Liquid); method: Closed cell (Static) method
Mole fraction of 1-butyl-3-methylimidazolium thiocyanate	Temperature, K	Vapor or sublimation pressure, kPa	uncertainty
0.09	313.35	7.6	3.1
0.09	318.45	9.5	3.2
0.09	323.35	11.9	3.3
0.09	328.25	14.9	3.4
0.09	333.25	18.2	3.8
0.09	338.85	23	4.2
0.09	343.75	28.4	4.6
0.23	313.35	6.9	3.3
0.23	318.45	8.8	3.4
0.23	323.45	10.9	3.5
0.23	328.25	13.4	3.8
0.23	333.15	15.9	4.2
0.23	338.95	20.1	4.6
0.23	343.65	24.2	5.2
0.47	313.45	3.8	3.3
0.47	318.25	4.9	3.4
0.47	323.05	6	3.6
0.47	327.85	7.4	3.8
0.47	332.75	8.5	4.2
0.47	337.55	10.4	4.8
0.47	342.35	12.6	5.4
0.65	313.35	1.9	3.2
0.65	318.45	2.5	3.3
0.65	323.45	3.1	3.4
0.65	328.25	3.6	3.7
0.65	333.15	3.9	3.9
0.65	338.85	5.1	4.3
0.65	343.75	6.2	4.8

System: water + 1-ethyl-3-methylimidazolium ethyl sulfate; phases: Liquid, Crystal, Glass, Air at 1 atmosphere
Property: Quadruple (quintuple) point temperature, K (Liquid); method: DSC
Quadruple (quintuple) point temperature, K	uncertainty
167.15	1

System: water + 1-ethyl-3-methylimidazolium ethyl sulfate; phases: Liquid, Glass
Fixed: Pressure, kPa = 101.3
Property: Boiling temperature at pressure P, K (Liquid); method: DTA
Mole fraction of 1-ethyl-3-methylimidazolium ethyl sulfate	Boiling temperature at pressure P, K	uncertainty
0.22	168.15	1
0.46	170.15	1
0.64	172.15	2

System: water + 1-ethyl-3-methylimidazolium ethyl sulfate; phases: Liquid, Crystal
Fixed: Pressure, kPa = 101.3
Property: Solid-liquid equilibrium temperature, K (Liquid); method: DTA
Mole fraction of 1-ethyl-3-methylimidazolium ethyl sulfate	Solid-liquid equilibrium temperature, K	uncertainty
0.03	270.1	1
0.09	258.05	1
0.12	241.05	1

System: water + 1-ethyl-3-methylimidazolium ethyl sulfate; phases: Liquid, Gas
Property: Vapor or sublimation pressure, kPa (Liquid); method: Closed cell (Static) method
Mole fraction of 1-ethyl-3-methylimidazolium ethyl sulfate	Temperature, K	Vapor or sublimation pressure, kPa	uncertainty
0.09	313.55	7.2	3.4
0.09	318.45	9.2	3.7
0.09	323.45	11.6	4
0.09	328.45	14.5	4.3
0.09	333.25	17.4	5
0.09	337.95	21.5	5.7
0.09	342.85	26.4	6.4
0.22	313.95	5.3	3.2
0.22	318.75	6.7	3.4
0.22	323.55	8.4	3.6
0.22	328.35	10.4	3.9
0.22	333.25	12.5	4.4
0.22	338.05	15.4	4.9
0.22	342.95	18.9	5.8
0.46	313.95	3	3.1
0.46	318.75	3.8	3.2
0.46	323.65	4.6	3.3
0.46	328.35	5.5	3.4
0.46	333.25	6.1	3.6
0.46	337.95	7.5	4
0.46	342.85	9.2	4.5
0.64	313.85	2.3	3
0.64	318.75	2.9	3.1
0.64	323.45	3.4	3.1
0.64	328.35	4	3.1
0.64	333.15	4.2	3.2
0.64	338.05	5	3.3
0.64	342.95	6	3.5

System: water + 1-ethyl-3-methylimidazolium trifluoromethanesulfonate; phases: Liquid, Crystal, Glass, Air at 1 atmosphere
Property: Quadruple (quintuple) point temperature, K (Liquid); method: DSC
Quadruple (quintuple) point temperature, K	uncertainty
167.15	2

System: water + 1-ethyl-3-methylimidazolium trifluoromethanesulfonate; phases: Liquid, Crystal, Crystal, Air at 1 atmosphere
Property: Eutectic temperature, K (Liquid); method: DTA
Eutectic temperature, K	uncertainty
234.1	2

System: water + 1-ethyl-3-methylimidazolium trifluoromethanesulfonate; phases: Liquid, Crystal
Fixed: Pressure, kPa = 101.3
Property: Solid-liquid equilibrium temperature, K (Liquid); method: DTA
Mole fraction of 1-ethyl-3-methylimidazolium trifluoromethanesulfonate	Solid-liquid equilibrium temperature, K	uncertainty
0.09	268.1	1
0.22	255.05	1

System: water + 1-ethyl-3-methylimidazolium trifluoromethanesulfonate; phases: Liquid, Crystal
Fixed: Pressure, kPa = 101.3
Property: Solid-liquid equilibrium temperature, K (Liquid); method: DTA
Mole fraction of 1-ethyl-3-methylimidazolium trifluoromethanesulfonate	Solid-liquid equilibrium temperature, K	uncertainty
0.65	243.05	1
0.79	250.05	1
1	265.1	1

System: water + 1-ethyl-3-methylimidazolium trifluoromethanesulfonate; phases: Liquid, Gas
Property: Vapor or sublimation pressure, kPa (Liquid); method: Closed cell (Static) method
Mole fraction of 1-ethyl-3-methylimidazolium trifluoromethanesulfonate	Temperature, K	Vapor or sublimation pressure, kPa	uncertainty
0.09	313.45	7.4	3.2
0.09	318.45	9.5	3.2
0.09	323.45	12	3.4
0.09	328.25	15	3.5
0.09	333.25	18.2	3.8
0.09	338.75	22.9	4.1
0.09	343.75	28.3	4.4
0.22	313.55	6.7	3.2
0.22	318.45	8.5	3.3
0.22	323.45	10.7	3.4
0.22	328.35	13.3	3.5
0.22	333.25	15.9	3.9
0.22	338.35	19.9	4.3
0.22	343.85	25	4.7
0.46	313.55	4.8	3.1
0.46	318.55	6.1	3.2
0.46	323.45	7.5	3.3
0.46	328.25	9.3	3.5
0.46	333.85	11.1	3.7
0.46	338.75	13.5	4.1
0.46	343.55	16.4	4.7
0.65	313.25	3.4	3.1
0.65	318.35	4.3	3.2
0.65	323.35	5.3	3.2
0.65	328.25	6.5	3.4
0.65	333.45	7.2	3.5
0.65	338.65	8.9	3.9
0.65	343.55	10.7	4.3
