Measured thermophysical data. Ternary Liquid-Liquid Equilibria for the (Methanol + Methylbenzene + Decane) System at Different Temperatures
Source: J. Chem. Eng. Data, 2011, 10.1021/je1011554
Compound 1: methanol, CH4O, InChI=1S/CH4O/c1-2/h2H,1H3
Compound 2: toluene, C7H8, InChI=1S/C7H8/c1-7-5-3-2-4-6-7/h2-6H,1H3
Compound 3: decane, C10H22, InChI=1S/C10H22/c1-3-5-7-9-10-8-6-4-2/h3-10H2,1-2H3

System: methanol + toluene + decane; phases: Liquid mixture 2, Liquid mixture 1
Fixed: Pressure, kPa = 101.325
Property: Mole fraction of toluene (Liquid mixture 2); method: Chromatography
Property: Mole fraction of toluene (Liquid mixture 1); method: Chromatography
Property: Mole fraction of methanol (Liquid mixture 1); method: Chromatography
Temperature, K	Mole fraction of methanol	Mole fraction of toluene	uncertainty	Mole fraction of toluene	uncertainty	Mole fraction of methanol	uncertainty
298.15	0.745	0.1459	0.0108	0.2855	0.0134	0.1633	
298.15	0.785	0.1301	0.011	0.2739	0.0207	0.1499	
298.15	0.8321	0.1062	0.0115	0.2377	0.0296	0.1369	
298.15	0.8812	0.0759	0.0118	0.1861	0.0548	0.1336	
298.15	0.9056	0.0602	0.0119	0.1627	0.0673	0.1332	
303.15	0.715	0.1548	0.0111	0.2675	0.0113	0.2468	
303.15	0.7321	0.1485	0.0112	0.2583	0.033	0.2283	
303.15	0.7675	0.1302	0.0112	0.2314	0.0136	0.2184	
303.15	0.7898	0.1181	0.0116	0.2175	0.04	0.1913	
303.15	0.8618	0.0762	0.0116	0.1493	0.0155	0.2089	
313.15	0.6667	0.1725	0.0127	0.2483	0.0182	0.3188	
313.15	0.7005	0.1462	0.012	0.2156	0.0127	0.3125	
313.15	0.7356	0.1274	0.0109	0.1922	0.0127	0.2818	
313.15	0.7743	0.1148	0.0108	0.1805	0.0103	0.2305	
313.15	0.8138	0.0952	0.0112	0.1553	0.0127	0.2344	
