Measured thermophysical data. Measurement and Correlation for Solubility of 11alpha-Hydroxy-16alpha,17alpha-epoxyprogesterone and 16alpha,17alpha-Epoxyprogesterone in Solvents
Source: J. Chem. Eng. Data, 2011, 10.1021/je101072d
Compound 1: propan-2-ol, C3H8O, InChI=1S/C3H8O/c1-3(2)4/h3-4H,1-2H3, purity 99%
Compound 2: propan-1-ol, C3H8O, InChI=1S/C3H8O/c1-2-3-4/h4H,2-3H2,1H3, purity 99%
Compound 3: dimethyl sulfoxide, C2H6OS, InChI=1S/C2H6OS/c1-4(2)3/h1-2H3, purity 99%
Compound 4: 1,4-dioxane, C4H8O2, InChI=1S/C4H8O2/c1-2-6-4-3-5-1/h1-4H2, purity 99%
Compound 5: butan-1-ol, C4H10O, InChI=1S/C4H10O/c1-2-3-4-5/h5H,2-4H2,1H3, purity 99%
Compound 6: 16.alpha.,17-epoxypregn-4-ene-3,20-dione, C21H28O3, InChI=1S/C21H28O3/c1-12(22)21-18(24-21)11-17-15-5-4-13-10-14(23)6-8-19(13,2)16(15)7-9-20(17,21)3/h10,15-18H,4-9,11H2,1-3H3/t15-,16+,17+,18-,19+,20+,21-/m1/s1, purity 99%
Compound 7: 11.alpha.-hydroxy-16.alpha.,17.alpha.-epoxyprogesterone, C21H28O4, InChI=1S/C21H28O4/c1-11(22)21-17(25-21)9-15-14-5-4-12-8-13(23)6-7-19(12,2)18(14)16(24)10-20(15,21)3/h8,14-18,24H,4-7,9-10H2,1-3H3/t14-,15-,16+,17+,18+,19-,20-,21+/m0/s1, purity 99%

System: propan-1-ol + 11.alpha.-hydroxy-16.alpha.,17.alpha.-epoxyprogesterone; phases: Liquid, Crystal
Fixed: Pressure, kPa = 101
Property: Mole fraction of 11.alpha.-hydroxy-16.alpha.,17.alpha.-epoxyprogesterone (Liquid); method: laser monitoring
Temperature, K	Mole fraction of 11.alpha.-hydroxy-16.alpha.,17.alpha.-epoxyprogesterone	uncertainty
300.5	0.0007957	3.87e-05
303.25	0.0009328	4.54e-05
306.75	0.001085	5.3e-05
309.9	0.001248	6.1e-05
312.7	0.00142	6.9e-05
317.15	0.001723	8.4e-05
321.67	0.002075	0.000101
324.85	0.002352	0.000114
327.95	0.002696	0.000131
332.65	0.003216	0.000156
336.85	0.003825	0.000186
341.65	0.00463	0.000225

System: propan-2-ol + 11.alpha.-hydroxy-16.alpha.,17.alpha.-epoxyprogesterone; phases: Liquid, Crystal
Fixed: Pressure, kPa = 101
Property: Mole fraction of 11.alpha.-hydroxy-16.alpha.,17.alpha.-epoxyprogesterone (Liquid); method: laser monitoring
Temperature, K	Mole fraction of 11.alpha.-hydroxy-16.alpha.,17.alpha.-epoxyprogesterone	uncertainty
297.95	0.0005418	2.64e-05
300.25	0.000643	3.13e-05
303.45	0.0007174	3.49e-05
308.05	0.0009518	4.63e-05
312.65	0.001264	6.2e-05
316.35	0.001471	7.2e-05
320.75	0.001903	9.3e-05
323.85	0.00212	0.000103
327.45	0.002616	0.000127
331.95	0.003111	0.000151
335.65	0.00368	0.000179
340.25	0.004561	0.000222

System: dimethyl sulfoxide + 11.alpha.-hydroxy-16.alpha.,17.alpha.-epoxyprogesterone; phases: Liquid, Crystal
Fixed: Pressure, kPa = 101
Property: Mole fraction of 11.alpha.-hydroxy-16.alpha.,17.alpha.-epoxyprogesterone (Liquid); method: laser monitoring
Temperature, K	Mole fraction of 11.alpha.-hydroxy-16.alpha.,17.alpha.-epoxyprogesterone	uncertainty
297.75	0.004228	0.000203
301.3	0.005146	0.000247
311.06	0.007724	0.000371
315.15	0.008435	0.000405
319.05	0.009664	0.000464
324.25	0.01117	0.00054
327.15	0.01258	0.0006
329.55	0.01412	0.00068
333.67	0.01597	0.00077
337.43	0.01782	0.00086
340.25	0.01955	0.00094
344.65	0.02278	0.00109

System: 1,4-dioxane + 11.alpha.-hydroxy-16.alpha.,17.alpha.-epoxyprogesterone; phases: Liquid, Crystal
Fixed: Pressure, kPa = 101
Property: Mole fraction of 11.alpha.-hydroxy-16.alpha.,17.alpha.-epoxyprogesterone (Liquid); method: laser monitoring
Temperature, K	Mole fraction of 11.alpha.-hydroxy-16.alpha.,17.alpha.-epoxyprogesterone	uncertainty
298	0.002926	0.00014
302.75	0.003526	0.000169
306.39	0.004082	0.000195
310.55	0.004475	0.000214
314.75	0.005181	0.000248
317.25	0.005502	0.000263
320.35	0.006045	0.000289
325.05	0.006874	0.000329
328.55	0.007647	0.000366
332.05	0.008454	0.000404
335.35	0.009315	0.000445
340.15	0.01052	0.0005

System: butan-1-ol + 11.alpha.-hydroxy-16.alpha.,17.alpha.-epoxyprogesterone; phases: Liquid, Crystal
Fixed: Pressure, kPa = 101
Property: Mole fraction of 11.alpha.-hydroxy-16.alpha.,17.alpha.-epoxyprogesterone (Liquid); method: laser monitoring
Temperature, K	Mole fraction of 11.alpha.-hydroxy-16.alpha.,17.alpha.-epoxyprogesterone	uncertainty
298.75	0.0005974	2.88e-05
304.45	0.0007748	3.73e-05
307.35	0.000935	4.5e-05
310.75	0.001126	5.4e-05
315.67	0.001431	6.9e-05
320.75	0.001766	8.5e-05
324.35	0.002046	9.8e-05
328.55	0.002367	0.000114
331.65	0.002681	0.000129
334.15	0.003036	0.000146
336.45	0.003336	0.000161
340.15	0.003842	0.000185

System: propan-2-ol + 16.alpha.,17-epoxypregn-4-ene-3,20-dione; phases: Liquid, Crystal
Fixed: Pressure, kPa = 101
Property: Mole fraction of 16.alpha.,17-epoxypregn-4-ene-3,20-dione (Liquid); method: laser monitoring
Temperature, K	Mole fraction of 16.alpha.,17-epoxypregn-4-ene-3,20-dione	uncertainty
296.65	0.003074	0.000149
299.55	0.003414	0.000166
303.25	0.00405	0.000197
306.35	0.004859	0.000236
311.75	0.005985	0.00029
314.8	0.006892	0.000334
317.85	0.007524	0.000365
322.95	0.00992	0.000481
325.6	0.01101	0.00053
328.75	0.01247	0.00061
333.25	0.01517	0.00074
337.45	0.01772	0.00086

System: propan-1-ol + 16.alpha.,17-epoxypregn-4-ene-3,20-dione; phases: Liquid, Crystal
Fixed: Pressure, kPa = 101
Property: Mole fraction of 16.alpha.,17-epoxypregn-4-ene-3,20-dione (Liquid); method: laser monitoring
Temperature, K	Mole fraction of 16.alpha.,17-epoxypregn-4-ene-3,20-dione	uncertainty
299.15	0.003488	0.000169
304.05	0.004594	0.000223
307.5	0.005241	0.000254
311.55	0.006229	0.000302
313.7	0.00684	0.000332
316.25	0.007695	0.000373
320.65	0.009077	0.00044
324.25	0.0105	0.00051
328.25	0.01222	0.00059
332.05	0.01429	0.00069
335.25	0.01647	0.0008
340.6	0.02032	0.00099

System: dimethyl sulfoxide + 16.alpha.,17-epoxypregn-4-ene-3,20-dione; phases: Liquid, Crystal
Fixed: Pressure, kPa = 101
Property: Mole fraction of 16.alpha.,17-epoxypregn-4-ene-3,20-dione (Liquid); method: laser monitoring
Temperature, K	Mole fraction of 16.alpha.,17-epoxypregn-4-ene-3,20-dione	uncertainty
312.45	0.005389	0.000258
315.5	0.00572	0.000274
318.35	0.006567	0.000315
322.35	0.007559	0.000362
326.5	0.008702	0.000417
328.65	0.009372	0.000449
331.2	0.01015	0.00049
334.9	0.01154	0.00055
339.15	0.01345	0.00064
343.95	0.01608	0.00077
348.35	0.01876	0.0009
353.45	0.02229	0.00107

System: butan-1-ol + 16.alpha.,17-epoxypregn-4-ene-3,20-dione; phases: Liquid, Crystal
Fixed: Pressure, kPa = 101
Property: Mole fraction of 16.alpha.,17-epoxypregn-4-ene-3,20-dione (Liquid); method: laser monitoring
Temperature, K	Mole fraction of 16.alpha.,17-epoxypregn-4-ene-3,20-dione	uncertainty
300.85	0.004123	0.000198
303.9	0.004726	0.000227
306.75	0.005432	0.000261
309.85	0.006236	0.0003
314.25	0.00765	0.000368
319.18	0.009189	0.000441
323.55	0.01091	0.00052
328.05	0.0134	0.00064
332.75	0.01622	0.00078
336.66	0.019	0.00091
340.3	0.02191	0.00105
343.5	0.02438	0.00117
