Measured thermophysical data. Densities, Speeds of Sound, and Refractive Indices of Binary Mixtures of Decan-1-ol with Anisole, o-Cresol, m-Cresol, and p-Cresol at T = (298.15, 303.15, and 308.15) K
Source: J. Chem. Eng. Data, 2011, 10.1021/je100362p
Compound 1: decan-1-ol, C10H22O, InChI=1S/C10H22O/c1-2-3-4-5-6-7-8-9-10-11/h11H,2-10H2,1H3, purity 99.5%
Compound 2: 2-methylphenol, C7H8O, InChI=1S/C7H8O/c1-6-4-2-3-5-7(6)8/h2-5,8H,1H3, purity 99.7%
Compound 3: 3-methylphenol, C7H8O, InChI=1S/C7H8O/c1-6-3-2-4-7(8)5-6/h2-5,8H,1H3, purity 99.7%
Compound 4: 4-methylphenol, C7H8O, InChI=1S/C7H8O/c1-6-2-4-7(8)5-3-6/h2-5,8H,1H3, purity 99%
Compound 5: anisole, C7H8O, InChI=1S/C7H8O/c1-8-7-5-3-2-4-6-7/h2-6H,1H3, purity 99.5%

System: decan-1-ol; phases: Liquid
Fixed: Pressure, kPa = 101.325
Property: Refractive index (Na D-line) (Liquid); method: Standard Abbe refractometry
Temperature, K	Refractive index (Na D-line)	uncertainty
298.15	1.43456	0.00054
303.15	1.43256	0.00054
303.15	1.43266	0.00054
308.15	1.4305	0.00055

System: decan-1-ol; phases: Liquid
Fixed: Pressure, kPa = 101
Property: Speed of sound, m/s (Liquid); method: Sing-around technique in a fixed-path interferometer
Temperature, K	Speed of sound, m/s	uncertainty
298.15	1379.38	1.08
303.15	1362.34	1.07
308.15	1345.58	1.06

System: decan-1-ol; phases: Liquid
Fixed: Pressure, kPa = 101
Property: Mass density, kg/m3 (Liquid); method: VIBTUB:UFactor:4
Temperature, K	Mass density, kg/m3	uncertainty
298.15	826.526	0.554
303.15	823.101	0.561
308.15	819.671	0.568

System: 2-methylphenol; phases: Liquid
Fixed: Pressure, kPa = 101.325
Property: Refractive index (Na D-line) (Liquid); method: Standard Abbe refractometry
Temperature, K	Refractive index (Na D-line)	uncertainty
298.15	1.544	0.0007
303.15	1.54099	0.00078
308.15	1.53699	0.00087

System: 2-methylphenol; phases: Liquid
Fixed: Pressure, kPa = 101
Property: Speed of sound, m/s (Liquid); method: Sing-around technique in a fixed-path interferometer
Temperature, K	Speed of sound, m/s	uncertainty
298.15	1504.56	1.06
303.15	1487.4	1.05
308.15	1470.32	1.04

System: 2-methylphenol; phases: Liquid
Fixed: Pressure, kPa = 101
Property: Mass density, kg/m3 (Liquid); method: VIBTUB::UFactor:4
Temperature, K	Mass density, kg/m3	uncertainty
298.15	1042.322	0.274
303.15	1036.944	0.263
308.15	1031.553	0.253

System: 3-methylphenol; phases: Liquid
Fixed: Pressure, kPa = 101.325
Property: Refractive index (Na D-line) (Liquid); method: Standard Abbe refractometry
Temperature, K	Refractive index (Na D-line)	uncertainty
298.15	1.538	0.0007
303.15	1.535	0.0007
308.15	1.532	0.0007

System: 3-methylphenol; phases: Liquid
Fixed: Pressure, kPa = 101
Property: Speed of sound, m/s (Liquid); method: Sing-around technique in a fixed-path interferometer
Temperature, K	Speed of sound, m/s	uncertainty
298.15	1480.88	1.04
303.15	1465.18	1.03
308.15	1449.6	1.02

System: 3-methylphenol; phases: Liquid
Fixed: Pressure, kPa = 101
Property: Mass density, kg/m3 (Liquid); method: VIBTUB::UFactor:4
Temperature, K	Mass density, kg/m3	uncertainty
298.15	1030.049	0.247
303.15	1026.094	0.239
308.15	1022.116	0.231

System: 4-methylphenol; phases: Liquid
Fixed: Pressure, kPa = 101.325
Property: Refractive index (Na D-line) (Liquid); method: Standard Abbe refractometry
Temperature, K	Refractive index (Na D-line)	uncertainty
298.15	1.537	0.00072
303.15	1.534	0.00072
308.15	1.531	0.00072

System: 4-methylphenol; phases: Liquid
Fixed: Pressure, kPa = 101
Property: Speed of sound, m/s (Liquid); method: Sing-around technique in a fixed-path interferometer
Temperature, K	Speed of sound, m/s	uncertainty
298.15	1486.39	1.41
303.15	1470.7	1.4
308.15	1455.04	1.4

System: 4-methylphenol; phases: Liquid
Fixed: Pressure, kPa = 101
Property: Mass density, kg/m3 (Liquid); method: VIBTUB::UFactor:4
Temperature, K	Mass density, kg/m3	uncertainty
298.15	1030.145	0.493
303.15	1026.275	0.483
308.15	1022.383	0.473

System: anisole; phases: Liquid
Fixed: Pressure, kPa = 101.325
Property: Refractive index (Na D-line) (Liquid); method: Standard Abbe refractometry
Temperature, K	Refractive index (Na D-line)	uncertainty
298.15	1.51495	0.00041
303.15	1.51395	0.00054
308.15	1.51095	0.0007

System: anisole; phases: Liquid
Fixed: Pressure, kPa = 101
Property: Speed of sound, m/s (Liquid); method: Sing-around technique in a fixed-path interferometer
Temperature, K	Speed of sound, m/s	uncertainty
298.15	1406.91	1.11
303.15	1386.77	1.1
308.15	1366.52	1.09

System: anisole; phases: Liquid
Fixed: Pressure, kPa = 101
Property: Mass density, kg/m3 (Liquid); method: VIBTUB::UFactor:4
Temperature, K	Mass density, kg/m3	uncertainty
298.15	989.145	0.247
303.15	984.433	0.256
308.15	979.712	0.265

System: anisole + decan-1-ol; phases: Liquid
Fixed: Pressure, kPa = 101
Property: Refractive index (Na D-line) (Liquid); method: Standard Abbe refractometry
Temperature, K	Mole fraction of anisole	Refractive index (Na D-line)	uncertainty
298.15	0	1.43456	0.00054
298.15	0.0817	1.43761	0.00056
298.15	0.144	1.44029	0.00059
298.15	0.2047	1.44304	0.0006
298.15	0.273	1.44629	0.00062
298.15	0.3484	1.45029	0.00061
298.15	0.4099	1.45394	0.00061
298.15	0.4874	1.45908	0.0006
298.15	0.544	1.46319	0.00059
298.15	0.6071	1.46829	0.00058
298.15	0.6699	1.47385	0.00058
298.15	0.7359	1.48043	0.00057
298.15	0.8171	1.48959	0.00059
298.15	0.91	1.50162	0.00051
298.15	0.9464	1.50672	0.00047
298.15	1	1.51495	0.00041
303.15	0	1.43256	0.00054
303.15	0.0817	1.4356	0.00058
303.15	0.144	1.43803	0.00061
303.15	0.2047	1.44069	0.00062
303.15	0.273	1.44389	0.00062
303.15	0.3484	1.44799	0.00062
303.15	0.4099	1.45164	0.00063
303.15	0.4874	1.45684	0.00062
303.15	0.544	1.46099	0.00062
303.15	0.6071	1.46616	0.00062
303.15	0.6699	1.47181	0.00062
303.15	0.7359	1.47853	0.00062
303.15	0.8171	1.48774	0.0006
303.15	0.91	1.49999	0.0006
303.15	0.9464	1.50539	0.00057
303.15	1	1.51395	0.00054
308.15	0	1.4305	0.00055
308.15	0.0817	1.43301	0.0006
308.15	0.144	1.43539	0.00062
308.15	0.2047	1.43799	0.00063
308.15	0.273	1.44125	0.00062
308.15	0.3484	1.44522	0.00064
308.15	0.4099	1.44877	0.00064
308.15	0.4874	1.45398	0.00065
308.15	0.544	1.45815	0.00065
308.15	0.6071	1.46323	0.00066
308.15	0.6699	1.46884	0.00066
308.15	0.7359	1.47539	0.00066
308.15	0.8171	1.48475	0.00063
308.15	0.91	1.49685	0.00067
308.15	0.9464	1.50231	0.00069
308.15	1	1.51095	0.0007

System: anisole + decan-1-ol; phases: Liquid
Fixed: Pressure, kPa = 101
Property: Speed of sound, m/s (Liquid); method: Sing-around technique in a fixed-path interferometer
Temperature, K	Mole fraction of anisole	Speed of sound, m/s	uncertainty
298.15	0	1379.38	1.08
298.15	0.0817	1377.08	1.08
298.15	0.144	1375.29	1.08
298.15	0.2047	1373.62	1.08
298.15	0.273	1371.88	1.08
298.15	0.3484	1370.24	1.08
298.15	0.4099	1369.36	1.08
298.15	0.4874	1368.85	1.08
298.15	0.544	1369.22	1.08
298.15	0.6071	1370.37	1.08
298.15	0.6699	1372.29	1.09
298.15	0.7359	1375.51	1.09
298.15	0.8171	1381.63	1.1
298.15	0.91	1392.62	1.1
298.15	0.9464	1398.05	1.11
298.15	1	1406.91	1.11
303.15	0	1362.34	1.07
303.15	0.0817	1359.82	1.07
303.15	0.144	1357.89	1.07
303.15	0.2047	1356.09	1.07
303.15	0.273	1354.2	1.07
303.15	0.3484	1352.44	1.07
303.15	0.4099	1351.38	1.07
303.15	0.4874	1350.81	1.07
303.15	0.544	1350.89	1.07
303.15	0.6071	1351.89	1.07
303.15	0.6699	1353.61	1.08
303.15	0.7359	1356.51	1.08
303.15	0.8171	1362.22	1.08
303.15	0.91	1372.75	1.09
303.15	0.9464	1377.91	1.1
303.15	1	1386.77	1.1
308.15	0	1345.58	1.06
308.15	0.0817	1342.74	1.06
308.15	0.144	1340.67	1.06
308.15	0.2047	1338.79	1.06
308.15	0.273	1336.78	1.06
308.15	0.3484	1334.85	1.06
308.15	0.4099	1333.62	1.06
308.15	0.4874	1332.84	1.06
308.15	0.544	1332.84	1.06
308.15	0.6071	1333.56	1.06
308.15	0.6699	1335.05	1.07
308.15	0.7359	1337.64	1.07
308.15	0.8171	1343.01	1.07
308.15	0.91	1352.92	1.08
308.15	0.9464	1357.91	1.09
308.15	1	1366.52	1.09

System: anisole + decan-1-ol; phases: Liquid
Fixed: Pressure, kPa = 101
Property: Mass density, kg/m3 (Liquid); method: VIBTUB:UFactor:4
Temperature, K	Mole fraction of anisole	Mass density, kg/m3	uncertainty
298.15	0	826.526	0.554
298.15	0.0817	833.984	0.541
298.15	0.144	840.044	0.529
298.15	0.2047	846.31	0.517
298.15	0.273	853.826	0.503
298.15	0.3484	862.774	0.486
298.15	0.4099	870.64	0.471
298.15	0.4874	881.37	0.451
298.15	0.544	889.862	0.435
298.15	0.6071	900.075	0.416
298.15	0.6699	911.097	0.396
298.15	0.7359	923.763	0.373
298.15	0.8171	941.067	0.341
298.15	0.91	963.68	0.299
298.15	0.9464	973.453	0.283
298.15	1	989.145	0.247
303.15	0	823.101	0.561
303.15	0.0817	830.48	0.547
303.15	0.144	836.478	0.536
303.15	0.2047	842.682	0.524
303.15	0.273	850.126	0.51
303.15	0.3484	858.992	0.493
303.15	0.4099	866.789	0.479
303.15	0.4874	877.429	0.458
303.15	0.544	885.853	0.443
303.15	0.6071	895.987	0.424
303.15	0.6699	906.926	0.403
303.15	0.7359	919.5	0.38
303.15	0.8171	936.682	0.349
303.15	0.91	959.139	0.307
303.15	0.9464	968.846	0.291
303.15	1	984.433	0.256
308.15	0	819.671	0.568
308.15	0.0817	826.944	0.554
308.15	0.144	832.875	0.543
308.15	0.2047	839.02	0.531
308.15	0.273	846.4	0.517
308.15	0.3484	855.195	0.5
308.15	0.4099	862.929	0.486
308.15	0.4874	873.48	0.466
308.15	0.544	881.832	0.45
308.15	0.6071	891.877	0.431
308.15	0.6699	902.722	0.411
308.15	0.7359	915.191	0.388
308.15	0.8171	932.241	0.356
308.15	0.91	954.549	0.316
308.15	0.9464	964.201	0.299
308.15	1	979.712	0.265

System: 2-methylphenol + decan-1-ol; phases: Liquid
Fixed: Pressure, kPa = 101
Property: Refractive index (Na D-line) (Liquid); method: Standard Abbe refractometry
Temperature, K	Mole fraction of 2-methylphenol	Refractive index (Na D-line)	uncertainty
298.15	0	1.43456	0.00052
298.15	0.0861	1.43944	0.00056
298.15	0.1516	1.44351	0.00057
298.15	0.2077	1.44727	0.00058
298.15	0.2717	1.45185	0.00061
298.15	0.334	1.45667	0.00063
298.15	0.4103	1.46311	0.00065
298.15	0.4797	1.46956	0.00068
298.15	0.5545	1.47719	0.00069
298.15	0.6165	1.48412	0.0007
298.15	0.6875	1.49283	0.00072
298.15	0.7538	1.50182	0.00074
298.15	0.8245	1.51242	0.00074
298.15	0.8811	1.52175	0.00074
298.15	0.941	1.53252	0.00075
298.15	1	1.544	0.0007
303.15	0	1.43266	0.00054
303.15	0.0861	1.43742	0.00057
303.15	0.1516	1.44139	0.00058
303.15	0.2077	1.44505	0.0006
303.15	0.2717	1.44952	0.00061
303.15	0.334	1.45426	0.00063
303.15	0.4103	1.46058	0.00066
303.15	0.4797	1.46691	0.00068
303.15	0.5545	1.47444	0.0007
303.15	0.6165	1.48132	0.00071
303.15	0.6875	1.49001	0.00073
303.15	0.7538	1.49892	0.00075
303.15	0.8245	1.50948	0.00076
303.15	0.8811	1.51879	0.00077
303.15	0.941	1.52952	0.00078
303.15	1	1.54099	0.00078
308.15	0	1.4305	0.00056
308.15	0.0861	1.43507	0.00057
308.15	0.1516	1.43893	0.00059
308.15	0.2077	1.44249	0.00061
308.15	0.2717	1.44685	0.00062
308.15	0.334	1.45145	0.00064
308.15	0.4103	1.45761	0.00066
308.15	0.4797	1.46379	0.00068
308.15	0.5545	1.47117	0.0007
308.15	0.6165	1.47792	0.00072
308.15	0.6875	1.48643	0.00075
308.15	0.7538	1.49522	0.00076
308.15	0.8245	1.50566	0.00078
308.15	0.8811	1.51489	0.0008
308.15	0.941	1.52555	0.00081
308.15	1	1.53699	0.00087

System: 2-methylphenol + decan-1-ol; phases: Liquid
Fixed: Pressure, kPa = 101
Property: Speed of sound, m/s (Liquid); method: Sing-around technique in a fixed-path interferometer
Temperature, K	Mole fraction of 2-methylphenol	Speed of sound, m/s	uncertainty
298.15	0	1379.38	1.08
298.15	0.0861	1385.09	1.07
298.15	0.1516	1389.33	1.07
298.15	0.2077	1393.02	1.06
298.15	0.2717	1397.24	1.06
298.15	0.334	1401.58	1.06
298.15	0.4103	1407.58	1.06
298.15	0.4797	1413.74	1.05
298.15	0.5545	1421.32	1.05
298.15	0.6165	1428.43	1.05
298.15	0.6875	1437.84	1.05
298.15	0.7538	1448.23	1.05
298.15	0.8245	1461.19	1.05
298.15	0.8811	1473.49	1.06
298.15	0.941	1488.79	1.06
298.15	1	1504.56	1.06
303.15	0	1362.34	1.07
303.15	0.0861	1367.99	1.06
303.15	0.1516	1372.14	1.06
303.15	0.2077	1375.74	1.06
303.15	0.2717	1379.92	1.05
303.15	0.334	1384.29	1.05
303.15	0.4103	1390.29	1.05
303.15	0.4797	1396.45	1.04
303.15	0.5545	1403.96	1.04
303.15	0.6165	1411.12	1.04
303.15	0.6875	1420.71	1.04
303.15	0.7538	1431.05	1.04
303.15	0.8245	1443.99	1.04
303.15	0.8811	1456.23	1.04
303.15	0.941	1471.58	1.05
303.15	1	1487.4	1.05
308.15	0	1345.58	1.06
308.15	0.0861	1351.13	1.06
308.15	0.1516	1355.25	1.05
308.15	0.2077	1358.82	1.05
308.15	0.2717	1363.09	1.04
308.15	0.334	1367.42	1.04
308.15	0.4103	1373.22	1.04
308.15	0.4797	1379.22	1.03
308.15	0.5545	1386.82	1.03
308.15	0.6165	1394.08	1.03
308.15	0.6875	1403.72	1.03
308.15	0.7538	1414.11	1.03
308.15	0.8245	1426.82	1.03
308.15	0.8811	1439.12	1.03
308.15	0.941	1454.36	1.04
308.15	1	1470.32	1.04

System: 2-methylphenol + decan-1-ol; phases: Liquid
Fixed: Pressure, kPa = 101
Property: Mass density, kg/m3 (Liquid); method: VIBTUB:UFactor:4
Temperature, K	Mole fraction of 2-methylphenol	Mass density, kg/m3	uncertainty
298.15	0	826.526	0.554
298.15	0.0861	837.502	0.531
298.15	0.1516	846.353	0.512
298.15	0.2077	854.319	0.495
298.15	0.2717	863.895	0.475
298.15	0.334	873.784	0.454
298.15	0.4103	886.741	0.426
298.15	0.4797	899.465	0.4
298.15	0.5545	914.345	0.369
298.15	0.6165	927.694	0.342
298.15	0.6875	944.316	0.309
298.15	0.7538	961.343	0.275
298.15	0.8245	981.399	0.237
298.15	0.8811	999.121	0.205
298.15	0.941	1019.752	0.242
298.15	1	1042.322	0.274
303.15	0	823.101	0.561
303.15	0.0861	834.018	0.538
303.15	0.1516	842.829	0.519
303.15	0.2077	850.761	0.502
303.15	0.2717	860.293	0.481
303.15	0.334	870.135	0.461
303.15	0.4103	883.035	0.433
303.15	0.4797	895.693	0.407
303.15	0.5545	910.475	0.376
303.15	0.6165	923.735	0.349
303.15	0.6875	940.209	0.316
303.15	0.7538	957.079	0.283
303.15	0.8245	976.894	0.244
303.15	0.8811	994.379	0.212
303.15	0.941	1014.708	0.231
303.15	1	1036.944	0.263
308.15	0	819.671	0.568
308.15	0.0861	830.549	0.544
308.15	0.1516	839.316	0.525
308.15	0.2077	847.206	0.509
308.15	0.2717	856.691	0.488
308.15	0.334	866.475	0.467
308.15	0.4103	879.298	0.44
308.15	0.4797	891.869	0.414
308.15	0.5545	906.559	0.384
308.15	0.6165	919.727	0.357
308.15	0.6875	936.089	0.323
308.15	0.7538	952.828	0.29
308.15	0.8245	972.475	0.252
308.15	0.8811	989.769	0.219
308.15	0.941	1009.791	0.22
308.15	1	1031.553	0.253

System: 3-methylphenol + decan-1-ol; phases: Liquid
Fixed: Pressure, kPa = 101
Property: Refractive index (Na D-line) (Liquid); method: Standard Abbe refractometry
Temperature, K	Mole fraction of 3-methylphenol	Refractive index (Na D-line)	uncertainty
298.15	0	1.43456	0.00054
298.15	0.0818	1.43899	0.00058
298.15	0.1443	1.44269	0.00059
298.15	0.2191	1.44749	0.00061
298.15	0.27	1.45104	0.00063
298.15	0.3513	1.45712	0.00066
298.15	0.4154	1.46234	0.00068
298.15	0.4864	1.46869	0.0007
298.15	0.5447	1.47429	0.00072
298.15	0.6205	1.48226	0.00073
298.15	0.6951	1.49092	0.00072
298.15	0.7472	1.49755	0.00073
298.15	0.8163	1.50709	0.00073
298.15	0.8738	1.51581	0.00072
298.15	0.9325	1.5256	0.00073
298.15	1	1.538	0.0007
303.15	0	1.43256	0.00054
303.15	0.0818	1.43686	0.00056
303.15	0.1443	1.44048	0.00058
303.15	0.2191	1.44514	0.0006
303.15	0.27	1.44858	0.00062
303.15	0.3513	1.45453	0.00064
303.15	0.4154	1.45965	0.00065
303.15	0.4864	1.46584	0.00067
303.15	0.5447	1.47138	0.00068
303.15	0.6205	1.47932	0.00069
303.15	0.6951	1.48799	0.00069
303.15	0.7472	1.49459	0.00069
303.15	0.8163	1.50419	0.00068
303.15	0.8738	1.51296	0.00067
303.15	0.9325	1.52274	0.00068
303.15	1	1.535	0.0007
308.15	0	1.4305	0.00055
308.15	0.0818	1.43464	0.00055
308.15	0.1443	1.43816	0.00057
308.15	0.2191	1.44269	0.00059
308.15	0.27	1.44602	0.0006
308.15	0.3513	1.45183	0.00062
308.15	0.4154	1.45687	0.00063
308.15	0.4864	1.46299	0.00064
308.15	0.5447	1.46848	0.00064
308.15	0.6205	1.47636	0.00064
308.15	0.6951	1.48499	0.00066
308.15	0.7472	1.49161	0.00065
308.15	0.8163	1.50126	0.00064
308.15	0.8738	1.51007	0.00064
308.15	0.9325	1.51982	0.00063
308.15	1	1.532	0.0007

System: 3-methylphenol + decan-1-ol; phases: Liquid
Fixed: Pressure, kPa = 101
Property: Speed of sound, m/s (Liquid); method: Sing-around technique in a fixed-path interferometer
Temperature, K	Mole fraction of 3-methylphenol	Speed of sound, m/s	uncertainty
298.15	0	1379.38	1.08
298.15	0.0818	1384.38	1.07
298.15	0.1443	1388.11	1.07
298.15	0.2191	1392.52	1.06
298.15	0.27	1395.68	1.06
298.15	0.3513	1400.55	1.05
298.15	0.4154	1404.82	1.05
298.15	0.4864	1410.12	1.05
298.15	0.5447	1415.06	1.05
298.15	0.6205	1422.35	1.04
298.15	0.6951	1430.72	1.04
298.15	0.7472	1437.18	1.04
298.15	0.8163	1447.28	1.04
298.15	0.8738	1457.31	1.04
298.15	0.9325	1468.82	1.04
298.15	1	1480.88	1.04
303.15	0	1362.34	1.07
303.15	0.0818	1367.35	1.06
303.15	0.1443	1371.03	1.06
303.15	0.2191	1375.46	1.05
303.15	0.27	1378.5	1.05
303.15	0.3513	1383.65	1.05
303.15	0.4154	1388.01	1.04
303.15	0.4864	1393.42	1.04
303.15	0.5447	1398.31	1.04
303.15	0.6205	1405.64	1.03
303.15	0.6951	1414.05	1.03
303.15	0.7472	1420.71	1.03
303.15	0.8163	1431.06	1.03
303.15	0.8738	1441.05	1.03
303.15	0.9325	1452.77	1.03
303.15	1	1465.18	1.03
308.15	0	1345.58	1.06
308.15	0.0818	1350.51	1.06
308.15	0.1443	1354.28	1.05
308.15	0.2191	1358.61	1.05
308.15	0.27	1361.76	1.04
308.15	0.3513	1366.83	1.04
308.15	0.4154	1371.15	1.03
308.15	0.4864	1376.59	1.03
308.15	0.5447	1381.53	1.03
308.15	0.6205	1388.91	1.02
308.15	0.6951	1397.49	1.02
308.15	0.7472	1404.41	1.02
308.15	0.8163	1414.82	1.02
308.15	0.8738	1424.86	1.02
308.15	0.9325	1436.82	1.02
308.15	1	1449.6	1.02

System: 3-methylphenol + decan-1-ol; phases: Liquid
Fixed: Pressure, kPa = 101
Property: Mass density, kg/m3 (Liquid); method: VIBTUB:UFactor:4
Temperature, K	Mole fraction of 3-methylphenol	Mass density, kg/m3	uncertainty
298.15	0	826.526	0.554
298.15	0.0818	836.406	0.533
298.15	0.1443	844.417	0.516
298.15	0.2191	854.601	0.494
298.15	0.27	861.935	0.478
298.15	0.3513	874.407	0.452
298.15	0.4154	884.964	0.429
298.15	0.4864	897.533	0.403
298.15	0.5447	908.582	0.38
298.15	0.6205	924.111	0.348
298.15	0.6951	940.809	0.314
298.15	0.7472	953.452	0.289
298.15	0.8163	971.635	0.253
298.15	0.8738	988.185	0.222
298.15	0.9325	1006.601	0.213
298.15	1	1030.049	0.247
303.15	0	823.101	0.561
303.15	0.0818	832.948	0.54
303.15	0.1443	840.933	0.523
303.15	0.2191	851.084	0.501
303.15	0.27	858.394	0.485
303.15	0.3513	870.825	0.458
303.15	0.4154	881.35	0.436
303.15	0.4864	893.881	0.41
303.15	0.5447	904.899	0.387
303.15	0.6205	920.384	0.355
303.15	0.6951	937.04	0.321
303.15	0.7472	949.651	0.296
303.15	0.8163	967.793	0.26
303.15	0.8738	984.309	0.228
303.15	0.9325	1002.688	0.205
303.15	1	1026.094	0.239
308.15	0	819.671	0.568
308.15	0.0818	829.481	0.546
308.15	0.1443	837.44	0.529
308.15	0.2191	847.557	0.507
308.15	0.27	854.842	0.492
308.15	0.3513	867.235	0.465
308.15	0.4154	877.727	0.443
308.15	0.4864	890.219	0.417
308.15	0.5447	901.205	0.394
308.15	0.6205	916.647	0.362
308.15	0.6951	933.259	0.328
308.15	0.7472	945.837	0.303
308.15	0.8163	963.936	0.267
308.15	0.8738	980.414	0.235
308.15	0.9325	998.753	0.201
308.15	1	1022.116	0.231

System: 4-methylphenol + decan-1-ol; phases: Liquid
Fixed: Pressure, kPa = 101
Property: Refractive index (Na D-line) (Liquid); method: Standard Abbe refractometry
Temperature, K	Mole fraction of 4-methylphenol	Refractive index (Na D-line)	uncertainty
298.15	0	1.43456	0.00054
298.15	0.079	1.43878	0.00059
298.15	0.1424	1.44253	0.0006
298.15	0.2213	1.44759	0.00062
298.15	0.2915	1.45252	0.00064
298.15	0.3611	1.45786	0.00066
298.15	0.418	1.46259	0.00067
298.15	0.4915	1.46921	0.00069
298.15	0.5566	1.47562	0.00072
298.15	0.6321	1.48379	0.00074
298.15	0.7041	1.49234	0.00075
298.15	0.7628	1.49988	0.00075
298.15	0.8229	1.50829	0.00076
298.15	0.8793	1.51677	0.00077
298.15	0.9382	1.52626	0.00077
298.15	1	1.537	0.00072
303.15	0	1.43256	0.00054
303.15	0.079	1.43659	0.00057
303.15	0.1424	1.44025	0.00059
303.15	0.2213	1.44524	0.0006
303.15	0.2915	1.45006	0.00063
303.15	0.3611	1.45529	0.00064
303.15	0.418	1.45994	0.00066
303.15	0.4915	1.46649	0.00067
303.15	0.5566	1.47279	0.00069
303.15	0.6321	1.48088	0.00071
303.15	0.7041	1.48935	0.00072
303.15	0.7628	1.49689	0.00072
303.15	0.8229	1.50524	0.00073
303.15	0.8793	1.51369	0.00074
303.15	0.9382	1.52321	0.00073
303.15	1	1.534	0.00072
308.15	0	1.4305	0.00055
308.15	0.079	1.43439	0.00055
308.15	0.1424	1.43792	0.00057
308.15	0.2213	1.44279	0.00059
308.15	0.2915	1.44748	0.00061
308.15	0.3611	1.45263	0.00063
308.15	0.418	1.45719	0.00064
308.15	0.4915	1.46363	0.00065
308.15	0.5566	1.46987	0.00066
308.15	0.6321	1.47785	0.00067
308.15	0.7041	1.48629	0.00068
308.15	0.7628	1.49381	0.0007
308.15	0.8229	1.50212	0.0007
308.15	0.8793	1.51055	0.0007
308.15	0.9382	1.52011	0.00069
308.15	1	1.531	0.00072

System: 4-methylphenol + decan-1-ol; phases: Liquid
Fixed: Pressure, kPa = 101
Property: Speed of sound, m/s (Liquid); method: Sing-around technique in a fixed-path interferometer
Temperature, K	Mole fraction of 4-methylphenol	Speed of sound, m/s	uncertainty
298.15	0	1379.38	1.08
298.15	0.079	1384.88	1.1
298.15	0.1424	1389.02	1.11
298.15	0.2213	1393.95	1.14
298.15	0.2915	1398.58	1.16
298.15	0.3611	1403.52	1.18
298.15	0.418	1407.68	1.2
298.15	0.4915	1413.71	1.22
298.15	0.5566	1419.63	1.25
298.15	0.6321	1427.46	1.27
298.15	0.7041	1436.08	1.3
298.15	0.7628	1444.05	1.32
298.15	0.8229	1453.22	1.34
298.15	0.8793	1462.35	1.37
298.15	0.9382	1474.21	1.39
298.15	1	1486.39	1.41
303.15	0	1362.34	1.07
303.15	0.079	1367.76	1.09
303.15	0.1424	1371.89	1.11
303.15	0.2213	1376.89	1.13
303.15	0.2915	1381.63	1.15
303.15	0.3611	1386.43	1.17
303.15	0.418	1390.75	1.19
303.15	0.4915	1396.83	1.22
303.15	0.5566	1402.73	1.24
303.15	0.6321	1410.71	1.26
303.15	0.7041	1419.39	1.29
303.15	0.7628	1427.32	1.31
303.15	0.8229	1436.65	1.34
303.15	0.8793	1446.25	1.36
303.15	0.9382	1458.05	1.38
303.15	1	1470.7	1.4
308.15	0	1345.58	1.06
308.15	0.079	1350.88	1.08
308.15	0.1424	1355.09	1.1
308.15	0.2213	1360.04	1.12
308.15	0.2915	1364.69	1.14
308.15	0.3611	1369.61	1.17
308.15	0.418	1373.94	1.18
308.15	0.4915	1379.89	1.21
308.15	0.5566	1385.87	1.23
308.15	0.6321	1394.04	1.26
308.15	0.7041	1402.84	1.28
308.15	0.7628	1411.01	1.3
308.15	0.8229	1420.25	1.33
308.15	0.8793	1429.89	1.35
308.15	0.9382	1442.39	1.37
308.15	1	1455.04	1.4

System: 4-methylphenol + decan-1-ol; phases: Liquid
Fixed: Pressure, kPa = 101
Property: Mass density, kg/m3 (Liquid); method: VIBTUB:UFactor:4
Temperature, K	Mole fraction of 4-methylphenol	Mass density, kg/m3	uncertainty
298.15	0	826.526	0.554
298.15	0.079	836.102	0.544
298.15	0.1424	844.261	0.535
298.15	0.2213	855.053	0.524
298.15	0.2915	865.315	0.513
298.15	0.3611	876.182	0.502
298.15	0.418	885.652	0.493
298.15	0.4915	898.718	0.481
298.15	0.5566	911.201	0.47
298.15	0.6321	926.903	0.457
298.15	0.7041	943.248	0.443
298.15	0.7628	957.751	0.431
298.15	0.8229	973.785	0.419
298.15	0.8793	990.126	0.407
298.15	0.9382	1008.682	0.428
298.15	1	1030.145	0.493
303.15	0	823.101	0.561
303.15	0.079	832.641	0.551
303.15	0.1424	840.772	0.542
303.15	0.2213	851.531	0.53
303.15	0.2915	861.764	0.52
303.15	0.3611	872.603	0.509
303.15	0.418	882.051	0.5
303.15	0.4915	895.088	0.488
303.15	0.5566	907.546	0.476
303.15	0.6321	923.218	0.463
303.15	0.7041	939.531	0.449
303.15	0.7628	954.009	0.437
303.15	0.8229	970.012	0.425
303.15	0.8793	986.325	0.412
303.15	0.9382	1004.847	0.418
303.15	1	1026.275	0.483
308.15	0	819.671	0.568
308.15	0.079	829.175	0.557
308.15	0.1424	837.278	0.548
308.15	0.2213	847.999	0.537
308.15	0.2915	858.196	0.526
308.15	0.3611	869.001	0.515
308.15	0.418	878.417	0.506
308.15	0.4915	891.418	0.494
308.15	0.5566	903.844	0.483
308.15	0.6321	919.477	0.469
308.15	0.7041	935.758	0.455
308.15	0.7628	950.207	0.443
308.15	0.8229	966.196	0.43
308.15	0.8793	982.485	0.418
308.15	0.9382	1000.991	0.408
308.15	1	1022.383	0.473
