Measured thermophysical data. Solubility of Dexibuprofen in Different Solvents from (263.15 to 293.15) K
Source: J. Chem. Eng. Data, 2011, 10.1021/je101165m
Compound 1: (S)-2-(4-isobutylphenyl)propanoic acid, C13H18O2, InChI=1S/C13H18O2/c1-9(2)8-11-4-6-12(7-5-11)10(3)13(14)15/h4-7,9-10H,8H2,1-3H3,(H,14,15)/t10-/m0/s1
Compound 2: ethanol, C2H6O, InChI=1S/C2H6O/c1-2-3/h3H,2H2,1H3
Compound 3: propan-1-ol, C3H8O, InChI=1S/C3H8O/c1-2-3-4/h4H,2-3H2,1H3
Compound 4: propan-2-ol, C3H8O, InChI=1S/C3H8O/c1-3(2)4/h3-4H,1-2H3
Compound 5: ethyl acetate, C4H8O2, InChI=1S/C4H8O2/c1-3-6-4(2)5/h3H2,1-2H3
Compound 6: hexane, C6H14, InChI=1S/C6H14/c1-3-5-6-4-2/h3-6H2,1-2H3

System: ethanol + (S)-2-(4-isobutylphenyl)propanoic acid; phases: Liquid, Crystal
Fixed: Pressure, kPa = 101
Property: Mole fraction of (S)-2-(4-isobutylphenyl)propanoic acid (Liquid); method: UV-Vis spectrophotometer
Temperature, K	Mole fraction of (S)-2-(4-isobutylphenyl)propanoic acid	uncertainty
263.15	0.1242	0.0051
268.15	0.1287	0.0053
273.15	0.1391	0.0058
278.15	0.1404	0.0058
283.15	0.1541	0.0064
288.15	0.1622	0.0067
293.15	0.1691	0.007

System: propan-1-ol + (S)-2-(4-isobutylphenyl)propanoic acid; phases: Liquid, Crystal
Fixed: Pressure, kPa = 101
Property: Mole fraction of (S)-2-(4-isobutylphenyl)propanoic acid (Liquid); method: UV-Vis spectrophotometer
Temperature, K	Mole fraction of (S)-2-(4-isobutylphenyl)propanoic acid	uncertainty
263.15	0.1161	0.0047
268.15	0.1288	0.0053
273.15	0.138	0.0056
278.15	0.1452	0.0059
283.15	0.1581	0.0065
288.15	0.1642	0.0067
293.15	0.1724	0.0071

System: propan-2-ol + (S)-2-(4-isobutylphenyl)propanoic acid; phases: Liquid, Crystal
Fixed: Pressure, kPa = 101
Property: Mole fraction of (S)-2-(4-isobutylphenyl)propanoic acid (Liquid); method: UV-Vis spectrophotometer
Temperature, K	Mole fraction of (S)-2-(4-isobutylphenyl)propanoic acid	uncertainty
263.15	0.1279	0.0052
268.15	0.1441	0.0059
273.15	0.1581	0.0065
278.15	0.1694	0.0069
283.15	0.1897	0.0078
288.15	0.2012	0.0083
293.15	0.2088	0.0086

System: ethyl acetate + (S)-2-(4-isobutylphenyl)propanoic acid; phases: Liquid, Crystal
Fixed: Pressure, kPa = 101
Property: Mole fraction of (S)-2-(4-isobutylphenyl)propanoic acid (Liquid); method: UV-Vis spectrophotometer
Temperature, K	Mole fraction of (S)-2-(4-isobutylphenyl)propanoic acid	uncertainty
263.15	0.1507	0.0061
268.15	0.1687	0.0068
273.15	0.1883	0.0076
278.15	0.2014	0.0082
283.15	0.2202	0.0089
288.15	0.2399	0.0097
293.15	0.2452	0.0099

System: hexane + (S)-2-(4-isobutylphenyl)propanoic acid; phases: Liquid, Crystal
Fixed: Pressure, kPa = 101
Property: Mole fraction of (S)-2-(4-isobutylphenyl)propanoic acid (Liquid); method: UV-Vis spectrophotometer
Temperature, K	Mole fraction of (S)-2-(4-isobutylphenyl)propanoic acid	uncertainty
263.15	0.0303	0.0012
268.15	0.0406	0.0017
273.15	0.0547	0.0022
278.15	0.0803	0.0033
283.15	0.1159	0.0047
288.15	0.1556	0.0064
293.15	0.2104	0.0086
