Measured thermophysical data. Partial Molar Volumes of N,N'-1,2-Ethyl-bis(salicyladimine) Schiff Base (Salen) in Organic Solvents at T = (283.15 to 318.15) K
Source: J. Chem. Eng. Data, 2010, 10.1021/je100369a
Compound 1: dimethyl sulfoxide, C2H6OS, InChI=1S/C2H6OS/c1-4(2)3/h1-2H3, purity 99.9%
Compound 2: N,N-dimethylethanamide, C4H9NO, InChI=1S/C4H9NO/c1-4(6)5(2)3/h1-3H3, purity 99%
Compound 3: dimethylformamide, C3H7NO, InChI=1S/C3H7NO/c1-4(2)3-5/h3H,1-2H3, purity 99%
Compound 4: trichloromethane, CHCl3, InChI=1S/CHCl3/c2-1(3)4/h1H, purity 99.4%
Compound 5: dichloromethane, CH2Cl2, InChI=1S/CH2Cl2/c2-1-3/h1H2, purity 99.8%
Compound 6: 2,2'-[ethylenebis(nitrilomethylidyne)]diphenol, C16H16N2O2, InChI=1S/C16H16N2O2/c19-15-7-3-1-5-13(15)11-17-9-10-18-12-14-6-2-4-8-16(14)20/h1-8,11-12,19-20H,9-10H2

System: dimethyl sulfoxide; phases: Liquid
Fixed: Pressure, kPa = 101.325
Property: Refractive index (Na D-line) (Liquid); method: Standard Abbe refractometry
Temperature, K	Refractive index (Na D-line)	uncertainty
288.15	1.4793	0.0006
298.15	1.4752	0.0006
308.15	1.471	0.0006
318.15	1.467	0.0006

System: dimethyl sulfoxide; phases: Liquid
Fixed: Pressure, kPa = 101.325
Property: Mass density, kg/m3 (Liquid); method: VIBTUB:UFactor:2
Temperature, K	Mass density, kg/m3	uncertainty
288.15	1105.3	0.15
298.15	1095.29	0.15
308.15	1085.25	0.14
318.15	1075.21	0.13

System: N,N-dimethylethanamide; phases: Liquid
Fixed: Pressure, kPa = 101.325
Property: Refractive index (Na D-line) (Liquid); method: Standard Abbe refractometry
Temperature, K	Refractive index (Na D-line)	uncertainty
288.15	1.4382	0.0006
298.15	1.4346	0.0006
308.15	1.4312	0.0006
318.18	1.426	0.0007

System: N,N-dimethylethanamide; phases: Liquid
Fixed: Pressure, kPa = 101.325
Property: Mass density, kg/m3 (Liquid); method: VIBTUB:UFactor:6
Temperature, K	Mass density, kg/m3	uncertainty
288.15	945.5	0.49
298.15	936.28	0.51
308.15	927.05	0.53
318.18	917.79	0.55

System: dimethylformamide; phases: Liquid
Fixed: Pressure, kPa = 101.325
Property: Refractive index (Na D-line) (Liquid); method: Standard Abbe refractometry
Temperature, K	Refractive index (Na D-line)	uncertainty
288.15	1.431	0.0006
298.15	1.4276	0.0006
308.15	1.423	0.0007
318.15	1.418	0.0007

System: dimethylformamide; phases: Liquid
Fixed: Pressure, kPa = 101.325
Property: Mass density, kg/m3 (Liquid); method: VIBTUB:UFactor:6
Temperature, K	Mass density, kg/m3	uncertainty
288.15	953.58	0.48
298.15	944.06	0.5
308.15	934.52	0.52
318.15	924.9	0.54

System: trichloromethane; phases: Liquid
Fixed: Pressure, kPa = 101.325
Property: Refractive index (Na D-line) (Liquid); method: Standard Abbe refractometry
Temperature, K	Refractive index (Na D-line)	uncertainty
283.15	1.45	0.0007
288.15	1.4471	0.0007
293.15	1.4439	0.0007
298.15	1.442	0.0006

System: trichloromethane; phases: Liquid
Fixed: Pressure, kPa = 101.325
Property: Mass density, kg/m3 (Liquid); method: VIBTUB:UFactor:4
Temperature, K	Mass density, kg/m3	uncertainty
283.15	1496.43	1.08
288.15	1487.09	1.06
293.15	1477.68	1.04
298.15	1468.28	1.03

System: dichloromethane; phases: Liquid
Fixed: Pressure, kPa = 101.325
Property: Refractive index (Na D-line) (Liquid); method: Standard Abbe refractometry
Temperature, K	Refractive index (Na D-line)	uncertainty
283.15	1.4305	0.0007
288.15	1.4276	0.0007
293.15	1.4251	0.0007
298.15	1.4219	0.0008

System: dichloromethane; phases: Liquid
Fixed: Pressure, kPa = 101.325
Property: Mass density, kg/m3 (Liquid); method: VIBTUB:UFactor:2
Temperature, K	Mass density, kg/m3	uncertainty
283.15	1343.65	0.36
288.15	1334.57	0.35
293.15	1325.43	0.34
298.15	1316.27	0.34

System: 2,2'-[ethylenebis(nitrilomethylidyne)]diphenol + N,N-dimethylethanamide; phases: Liquid
Fixed: Pressure, kPa = 101
Property: Mass density, kg/m3 (Liquid); method: VIBTUB:UFactor:6
Temperature, K	Molality, mol/kg of 2,2'-[ethylenebis(nitrilomethylidyne)]diphenol	Mass density, kg/m3	uncertainty
288.15	0.0298	946.92	0.5
288.15	0.0503	947.9	0.51
288.15	0.0704	948.86	0.51
288.15	0.0902	949.8	0.5
288.15	0.11	950.76	0.53
288.15	0.13	951.71	0.53
288.15	0.151	952.73	0.54
288.15	0.1699	953.61	0.55
288.15	0.1898	954.55	0.55
298.15	0.0298	937.72	0.52
298.15	0.0503	938.72	0.53
298.15	0.0704	939.69	0.53
298.15	0.0902	940.66	0.54
298.15	0.11	941.6	0.54
298.15	0.13	942.56	0.55
298.15	0.151	943.57	0.56
298.15	0.1699	944.49	0.56
298.15	0.1898	945.43	0.57
308.15	0.0298	928.51	0.54
308.15	0.0503	929.52	0.54
308.15	0.0704	930.5	0.55
308.15	0.0902	931.48	0.55
308.15	0.11	932.43	0.56
308.15	0.13	933.41	0.57
308.15	0.151	934.41	0.57
308.15	0.1699	935.35	0.58
308.15	0.1898	936.28	0.59
318.15	0.0298	919.27	0.56
318.15	0.0503	920.29	0.56
318.15	0.0704	921.29	0.57
318.15	0.0902	922.28	0.57
318.15	0.11	923.25	0.58
318.15	0.13	924.23	0.58
318.15	0.151	925.25	0.59
318.15	0.1699	926.19	0.6
318.15	0.1898	927.14	0.6

System: dimethyl sulfoxide + 2,2'-[ethylenebis(nitrilomethylidyne)]diphenol; phases: Liquid
Fixed: Pressure, kPa = 101
Property: Mass density, kg/m3 (Liquid); method: VIBTUB:UFactor:6
Temperature, K	Molality, mol/kg of 2,2'-[ethylenebis(nitrilomethylidyne)]diphenol	Mass density, kg/m3	uncertainty
288.15	0.0098	1105.42	0.44
288.15	0.03	1105.67	0.44
288.15	0.0502	1105.93	0.44
288.15	0.0697	1106.18	0.45
288.15	0.0903	1106.45	0.45
288.15	0.1097	1106.71	0.45
288.15	0.13	1106.99	0.46
288.15	0.1502	1107.28	0.46
288.15	0.1701	1107.55	0.46
288.15	0.1893	1107.81	0.47
298.15	0.0098	1095.42	0.42
298.15	0.03	1095.69	0.42
298.15	0.0502	1095.96	0.42
298.15	0.0697	1096.23	0.42
298.15	0.0903	1096.52	0.43
298.15	0.1097	1096.79	0.43
298.15	0.13	1097.08	0.43
298.15	0.1502	1097.39	0.44
298.15	0.1701	1097.66	0.44
298.15	0.1893	1097.91	0.44
308.15	0.0098	1085.39	0.39
308.15	0.03	1085.68	0.39
308.15	0.0502	1085.97	0.4
308.15	0.0697	1086.26	0.4
308.15	0.0903	1086.56	0.4
308.15	0.1097	1086.85	0.41
308.15	0.13	1087.14	0.41
308.15	0.1502	1087.45	0.41
308.15	0.1701	1087.75	0.42
308.15	0.1893	1088.03	0.42
318.15	0.0098	1075.36	0.37
318.15	0.03	1075.67	0.37
318.15	0.0502	1075.98	0.37
318.15	0.0697	1076.28	0.38
318.15	0.0903	1076.6	0.38
318.15	0.1097	1076.9	0.38
318.15	0.13	1077.22	0.39
318.15	0.1502	1077.56	0.39
318.15	0.1701	1077.84	0.39
318.15	0.1893	1078.13	0.4

System: dimethylformamide + 2,2'-[ethylenebis(nitrilomethylidyne)]diphenol; phases: Liquid
Fixed: Pressure, kPa = 101
Property: Mass density, kg/m3 (Liquid); method: VIBTUB:UFactor:6
Temperature, K	Molality, mol/kg of 2,2'-[ethylenebis(nitrilomethylidyne)]diphenol	Mass density, kg/m3	uncertainty
288.15	0.0302	954.99	0.49
288.15	0.049	955.87	0.49
288.15	0.0701	956.86	0.5
288.15	0.0913	957.85	0.5
288.15	0.1101	958.72	0.51
288.15	0.1238	959.36	0.52
288.15	0.1483	960.5	0.52
288.15	0.1702	961.48	0.53
288.15	0.1886	962.35	0.54
298.15	0.0302	945.49	0.5
298.15	0.049	946.39	0.51
298.15	0.0701	947.39	0.52
298.15	0.0913	948.39	0.52
298.15	0.1101	949.27	0.53
298.15	0.1238	949.91	0.53
298.15	0.1483	951.05	0.54
298.15	0.1702	952.08	0.55
298.15	0.1886	952.94	0.55
308.15	0.0302	935.97	0.52
308.15	0.049	936.88	0.53
308.15	0.0701	937.89	0.53
308.15	0.0913	938.9	0.54
308.15	0.1101	939.79	0.55
308.15	0.1238	940.44	0.55
308.15	0.1483	941.6	0.56
308.15	0.1702	942.63	0.57
308.15	0.1886	943.48	0.57
318.15	0.0302	926.38	0.54
318.15	0.049	927.29	0.55
318.15	0.0701	928.32	0.55
318.15	0.0913	929.35	0.56
318.15	0.1101	930.25	0.56
318.15	0.1238	930.91	0.57
318.15	0.1483	932.08	0.58
318.15	0.1702	933.14	0.58
318.15	0.1886	933.99	0.59

System: dichloromethane + 2,2'-[ethylenebis(nitrilomethylidyne)]diphenol; phases: Liquid
Fixed: Pressure, kPa = 101
Property: Mass density, kg/m3 (Liquid); method: VIBTUB:UFactor:4
Temperature, K	Molality, mol/kg of 2,2'-[ethylenebis(nitrilomethylidyne)]diphenol	Mass density, kg/m3	uncertainty
283.15	0.0306	1342.32	0.68
283.15	0.049	1341.5	0.69
283.15	0.0703	1340.58	0.69
283.15	0.0903	1339.65	0.69
283.15	0.1103	1338.77	0.7
283.15	0.1301	1337.88	0.7
283.15	0.15	1337.01	0.71
283.15	0.1702	1336.07	0.71
283.15	0.1911	1335.14	0.72
288.15	0.0306	1333.32	0.67
288.15	0.049	1332.54	0.67
288.15	0.0703	1331.67	0.68
288.15	0.0903	1330.82	0.68
288.15	0.1103	1329.93	0.68
288.15	0.1301	1329.12	0.69
288.15	0.15	1328.26	0.69
288.15	0.1702	1327.34	0.7
288.15	0.1911	1326.47	0.7
293.15	0.0306	1324.26	0.66
293.15	0.049	1323.56	0.66
293.15	0.0703	1322.69	0.66
293.15	0.0903	1321.91	0.67
293.15	0.1103	1321.06	0.67
293.15	0.1301	1320.31	0.67
293.15	0.15	1319.5	0.68
293.15	0.1702	1318.65	0.68
293.15	0.1911	1317.78	0.69
298.15	0.0306	1315.18	0.64
298.15	0.049	1314.5	0.64
298.15	0.0703	1313.71	0.65
298.15	0.0903	1312.95	0.65
298.15	0.1103	1312.16	0.66
298.15	0.1301	1311.43	0.66
298.15	0.15	1310.67	0.66
298.15	0.1702	1309.84	0.67
298.15	0.1911	1309.07	0.68

System: trichloromethane + 2,2'-[ethylenebis(nitrilomethylidyne)]diphenol; phases: Liquid
Fixed: Pressure, kPa = 101
Property: Mass density, kg/m3 (Liquid); method: VIBTUB:UFactor:4
Temperature, K	Molality, mol/kg of 2,2'-[ethylenebis(nitrilomethylidyne)]diphenol	Mass density, kg/m3	uncertainty
283.15	0.0099	1495.46	1.07
283.15	0.03	1493.53	1.08
283.15	0.0498	1491.63	1.09
283.15	0.0702	1489.69	1.1
283.15	0.0904	1487.79	1.11
283.15	0.1102	1485.95	1.12
283.15	0.1336	1483.73	1.13
283.15	0.1501	1482.28	1.14
283.15	0.19	1478.69	1.16
288.15	0.0099	1486.15	1.05
288.15	0.03	1484.27	1.06
288.15	0.0498	1482.44	1.07
288.15	0.0702	1480.56	1.08
288.15	0.0904	1478.71	1.09
288.15	0.1102	1476.92	1.1
288.15	0.1336	1474.75	1.11
288.15	0.1501	1473.37	1.12
288.15	0.19	1469.85	1.14
293.15	0.0099	1476.77	1.03
293.15	0.03	1474.97	1.04
293.15	0.0498	1473.19	1.05
293.15	0.0702	1471.36	1.06
293.15	0.0904	1469.56	1.07
293.15	0.1102	1467.84	1.08
293.15	0.1336	1465.71	1.1
293.15	0.1501	1464.38	1.1
293.15	0.19	1460.93	1.13
298.15	0.0099	1467.41	1.02
298.15	0.03	1465.66	1.03
298.15	0.0498	1463.95	1.04
298.15	0.0702	1462.15	1.05
298.15	0.0904	1460.41	1.06
298.15	0.1102	1458.74	1.07
298.15	0.1336	1456.68	1.08
298.15	0.1501	1455.37	1.09
298.15	0.19	1452.05	1.11
