Measured thermophysical data. Electrical Conductivity of Electrolytes Found In Natural Waters from (5 to 90) deg C
Source: J. Chem. Eng. Data, 2011, 10.1021/je101012n
Compound 1: potassium chloride, ClK, InChI=1S/ClH.K/h1H;/q;+1/p-1
Compound 2: water, H2O, InChI=1S/H2O/h1H2, purity 98%
Compound 3: sodium chloride, ClNa, InChI=1S/ClH.Na/h1H;/q;+1/p-1
Compound 4: hydrogen chloride, ClH, InChI=1S/ClH/h1H
Compound 5: lithium chloride, ClLi, InChI=1S/ClH.Li/h1H;/q;+1/p-1
Compound 6: cesium chloride, ClCs, InChI=1S/ClH.Cs/h1H;/q;+1/p-1
Compound 7: ammonium chloride (NH4Cl), ClH4N, InChI=1S/ClH.H3N/h1H;1H3
Compound 8: calcium chloride, CaCl2, InChI=1S/Ca.2ClH/h;2*1H/q+2;;/p-2
Compound 9: magnesium chloride, Cl2Mg, InChI=1S/2ClH.Mg/h2*1H;/q;;+2/p-2
Compound 10: barium chloride, BaCl2, InChI=1S/Ba.2ClH/h;2*1H/q+2;;/p-2
Compound 11: strontium chloride, Cl2Sr, InChI=1S/2ClH.Sr/h2*1H;/q;;+2/p-2
Compound 12: sulfuric acid, H2O4S, InChI=1S/H2O4S/c1-5(2,3)4/h(H2,1,2,3,4)
Compound 13: sodium sulfate, Na2O4S, InChI=1S/2Na.H2O4S/c;;1-5(2,3)4/h;;(H2,1,2,3,4)/q2*+1;/p-2
Compound 14: potassium sulfate, K2O4S, InChI=1S/2K.H2O4S/c;;1-5(2,3)4/h;;(H2,1,2,3,4)/q2*+1;/p-2
Compound 15: cesium sulfate, Cs2O4S, InChI=1S/2Cs.H2O4S/c;;1-5(2,3)4/h;;(H2,1,2,3,4)/q2*+1;/p-2
Compound 16: calcium sulfate, CaO4S, InChI=1S/Ca.H2O4S/c;1-5(2,3)4/h;(H2,1,2,3,4)/q+2;/p-2
Compound 17: hydrogen potassium sulfate, HKO4S, InChI=1S/K.H2O4S/c;1-5(2,3)4/h;(H2,1,2,3,4)/q+1;/p-1
Compound 18: potassium bicarbonate, CHKO3, InChI=1S/CH2O3.K/c2-1(3)4;/h(H2,2,3,4);/q;+1/p-1
Compound 19: potassium carbonate, CK2O3, InChI=1S/CH2O3.2K/c2-1(3)4;;/h(H2,2,3,4);;/q;2*+1/p-2
Compound 20: sodium bicarbonate, CHNaO3, InChI=1S/CH2O3.Na/c2-1(3)4;/h(H2,2,3,4);/q;+1/p-1
Compound 21: sodium carbonate, CNa2O3, InChI=1S/CH2O3.2Na/c2-1(3)4;;/h(H2,2,3,4);;/q;2*+1/p-2
Compound 22: sodium hydroxide, HNaO, InChI=1S/Na.H2O/h;1H2/q+1;/p-1
Compound 23: sodium fluoride, FNa, InChI=1S/FH.Na/h1H;/q;+1/p-1
Compound 24: potassium fluoride, FK, InChI=1S/FH.K/h1H;/q;+1/p-1
Compound 25: potassium bromide, BrK, InChI=1S/BrH.K/h1H;/q;+1/p-1
Compound 26: potassium nitrate, KNO3, InChI=1S/K.NO3/c;2-1(3)4/q+1;-1
Compound 27: nitric acid, zinc salt, N2O6Zn, InChI=1S/2NO3.Zn/c2*2-1(3)4;/q2*-1;+2
Compound 28: aluminum trinitrate, AlN3O9, InChI=1S/Al.3NO3/c;3*2-1(3)4/q+3;3*-1
Compound 29: copper dinitrate, CuN2O6, InChI=1S/Cu.2NO3/c;2*2-1(3)4/q+2;2*-1
Compound 30: ferrous chloride, Cl2Fe, InChI=1S/2ClH.Fe/h2*1H;/q;;+2/p-2
Compound 31: iron(II) sulfate, FeO4S, InChI=1S/Fe.H2O4S/c;1-5(2,3)4/h;(H2,1,2,3,4)/q+2;/p-2
Compound 32: ferric sulfate, Fe2O12S3, InChI=1S/2Fe.3H2O4S/c;;3*1-5(2,3)4/h;;3*(H2,1,2,3,4)/q2*+3;;;/p-6
Compound 33: magnesium nitrate, MgN2O6, InChI=1S/Mg.2NO3/c;2*2-1(3)4/q+2;2*-1
Compound 34: manganese nitrate, MnN2O6, InChI=1S/Mn.2NO3/c;2*2-1(3)4/q+2;2*-1
Compound 35: ferric nitrate, FeN3O9, InChI=1S/Fe.3NO3/c;3*2-1(3)4/q+3;3*-1

System: potassium chloride + water; phases: Liquid
Fixed: Pressure, kPa = 101
Property: Electrical conductivity, S/m (Liquid); method: Alternating current cell with electrodes
Temperature, K	Molality, mol/kg of potassium chloride	Electrical conductivity, S/m	uncertainty
278.15	0.0001	0.0009464	3.8e-06
278.15	0.001	0.009198	3.7e-05
278.15	0.01	0.0891	0.0004
278.15	0.1	0.8184	0.0033
278.15	0.5	3.875	0.0155
278.15	1	7.203	0.0288
283.15	0.0001	0.001074	4e-06
283.15	0.001	0.0105	0.0001
283.15	0.01	0.1014	0.0004
283.15	0.1	0.9292	0.0037
283.15	0.5	4.375	0.0175
283.15	1	8.084	0.0323
298.15	0.0001	0.001487	6e-06
298.15	0.001	0.01471	6e-05
298.15	0.01	0.1408	0.0006
298.15	0.1	1.283	0.0051
298.15	0.5	5.92	0.0237
298.15	1	10.86	0.0434
308.15	0.0001	0.001786	7e-06
308.15	0.001	0.01773	7e-05
308.15	0.01	0.1688	0.0007
308.15	0.1	1.532	0.0061
308.15	0.5	6.981	0.0279
308.15	1	12.8	0.0512
318.15	0.0001	0.002105	8e-06
318.15	0.001	0.0207	0.0001
318.15	0.01	0.1977	0.0008
318.15	0.1	1.788	0.0072
318.15	0.5	8.107	0.0324
318.15	1	14.77	0.0591
343.15	0.0001	0.002969	1.2e-05
343.15	0.001	0.02897	0.00012
343.15	0.01	0.2761	0.0011
343.15	0.1	2.471	0.0099
343.15	0.5	11.23	0.0449
343.15	1	20.25	0.081
363.15	0.0001	0.003716	1.5e-05
363.15	0.001	0.03587	0.00014
363.15	0.01	0.3426	0.0014
363.15	0.1	3.086	0.0123
363.15	0.5	13.48	0.0539
363.15	1	24.58	0.0983

System: sodium chloride + water; phases: Liquid
Fixed: Pressure, kPa = 101
Property: Electrical conductivity, S/m (Liquid); method: Alternating current cell with electrodes
Temperature, K	Molality, mol/kg of sodium chloride	Electrical conductivity, S/m	uncertainty
278.15	0.000104	0.0008271	3.3e-06
278.15	0.00099	0.007531	3e-05
278.15	0.01	0.07349	0.00029
278.15	0.1	0.6588	0.0026
278.15	0.5	2.948	0.0118
278.15	1	5.444	0.0218
283.15	0.000104	0.0009431	3.8e-06
283.15	0.00099	0.008619	3.4e-05
283.15	0.01	0.08395	0.00034
283.15	0.1	0.7505	0.003
283.15	0.5	3.348	0.0134
283.15	1	6.123	0.0245
298.15	0.000104	0.001295	5e-06
298.15	0.00099	0.01224	5e-05
298.15	0.01	0.1185	0.0005
298.15	0.1	1.06	0.0042
298.15	0.5	4.652	0.0186
298.15	1	8.43	0.0337
308.15	0.000104	0.00161	6e-06
308.15	0.00099	0.01478	6e-05
308.15	0.01	0.1425	0.0006
308.15	0.1	1.277	0.0051
308.15	0.5	5.625	0.0225
308.15	1	10.19	0.0408
318.15	0.000104	0.001893	8e-06
318.15	0.00099	0.01747	7e-05
318.15	0.01	0.1694	0.0007
318.15	0.1	1.505	0.006
318.15	0.5	6.624	0.0265
318.15	1	11.94	0.0478
343.15	0.000104	0.002693	1.1e-05
343.15	0.00099	0.02497	0.0001
343.15	0.01	0.2418	0.001
343.15	0.1	2.148	0.0086
343.15	0.5	9.35	0.0374
343.15	1	16.8	0.0672
363.15	0.000104	0.003358	1.3e-05
363.15	0.00099	0.03126	0.00013
363.15	0.01	0.3029	0.0012
363.15	0.1	2.691	0.0108
363.15	0.5	11.68	0.0467
363.15	1	20.94	0.0838

System: hydrogen chloride + water; phases: Liquid
Fixed: Pressure, kPa = 101
Property: Electrical conductivity, S/m (Liquid); method: Alternating current cell with electrodes
Temperature, K	Molality, mol/kg of hydrogen chloride	Electrical conductivity, S/m	uncertainty
278.15	0.00011	0.003313	1.3e-05
278.15	0.000958	0.028	0.0001
278.15	0.00937	0.2714	0.0011
278.15	0.09398	2.604	0.0104
278.15	0.4603	11.98	0.0479
278.15	0.85	20.2	0.0808
283.15	0.00011	0.003683	1.5e-05
283.15	0.000958	0.03088	0.00012
283.15	0.00937	0.3001	0.0012
283.15	0.09398	2.872	0.0115
283.15	0.4603	13.14	0.0526
283.15	0.85	22.06	0.0882
298.15	0.00011	0.004665	1.9e-05
298.15	0.000958	0.03978	0.00016
298.15	0.00937	0.3869	0.0015
298.15	0.09398	3.684	0.0147
298.15	0.4603	16.69	0.0668
298.15	0.85	27.9	0.1116
308.15	0.00011	0.00531	2.1e-05
308.15	0.000958	0.04565	0.00018
308.15	0.00937	0.4408	0.0018
308.15	0.09398	4.19	0.0168
308.15	0.4603	18.97	0.0759
308.15	0.85	31.53	0.1261
318.15	0.00011	0.005973	2.4e-05
318.15	0.000958	0.05121	0.0002
318.15	0.00937	0.4932	0.002
318.15	0.09398	4.673	0.0187
318.15	0.4603	21.09	0.0844
318.15	0.85	34.95	0.1398
343.15	0.00011	0.007487	3e-05
343.15	0.000958	0.06414	0.00026
343.15	0.00937	0.6227	0.0025
343.15	0.09398	5.872	0.0235
343.15	0.4603	26.23	0.1049
343.15	0.85	43.45	0.1738
363.15	0.00011	0.008461	3.4e-05
363.15	0.000958	0.07325	0.00029
363.15	0.00937	0.7132	0.0029
363.15	0.09398	6.722	0.0269
363.15	0.4603	29.87	0.1195
363.15	0.85	48.24	0.193

System: lithium chloride + water; phases: Liquid
Fixed: Pressure, kPa = 101
Property: Electrical conductivity, S/m (Liquid); method: Alternating current cell with electrodes
Temperature, K	Molality, mol/kg of lithium chloride	Electrical conductivity, S/m	uncertainty
278.15	8.5e-05	0.0005986	2.4e-06
278.15	0.000952	0.006496	2.6e-05
278.15	0.00845	0.05562	0.00022
278.15	0.09523	0.5516	0.0022
278.15	0.9613	4.317	0.0173
283.15	8.5e-05	0.0006826	2.7e-06
283.15	0.000952	0.007487	3e-05
283.15	0.00845	0.06414	0.00026
283.15	0.09523	0.6326	0.0025
283.15	0.9613	4.986	0.0199
298.15	8.5e-05	0.0009588	3.8e-06
298.15	0.000952	0.01069	4e-05
298.15	0.00845	0.09167	0.00037
298.15	0.09523	0.9019	0.0036
298.15	0.9613	7.13	0.0285
308.15	8.5e-05	0.00117	5e-06
308.15	0.000952	0.01311	5e-05
308.15	0.00845	0.1123	0.0005
308.15	0.09523	1.099	0.0044
308.15	0.9613	8.35	0.0334
318.15	8.5e-05	0.001388	6e-06
318.15	0.000952	0.01528	6e-05
318.15	0.00845	0.1315	0.0005
318.15	0.09523	1.276	0.0051
318.15	0.9613	9.794	0.0392
343.15	8.5e-05	0.001978	8e-06
343.15	0.000952	0.02191	9e-05
343.15	0.00845	0.1886	0.0008
343.15	0.09523	1.809	0.0072
343.15	0.9613	12.64	0.0506
363.15	8.5e-05	0.002483	1e-05
363.15	0.000952	0.02774	0.00011
363.15	0.00845	0.2366	0.0009
363.15	0.09523	2.257	0.009
363.15	0.9613	15.57	0.0623

System: cesium chloride + water; phases: Liquid
Fixed: Pressure, kPa = 101
Property: Electrical conductivity, S/m (Liquid); method: Alternating current cell with electrodes
Temperature, K	Molality, mol/kg of cesium chloride	Electrical conductivity, S/m	uncertainty
278.15	0.000106	0.001018	4e-06
278.15	0.00101	0.009529	3.8e-05
278.15	0.01058	0.09738	0.00039
278.15	0.1009	0.8548	0.0034
278.15	0.4763	3.754	0.015
278.15	1.09	8.303	0.0332
283.15	0.000106	0.001151	5e-06
283.15	0.00101	0.01089	4e-05
283.15	0.01058	0.1107	0.0004
283.15	0.1009	0.9735	0.0039
283.15	0.4763	4.256	0.017
283.15	1.09	9.355	0.0374
298.15	0.000106	0.001597	6e-06
298.15	0.00101	0.0151	0.0001
298.15	0.01058	0.1539	0.0006
298.15	0.1009	1.346	0.0054
298.15	0.4763	5.762	0.023
298.15	1.09	12.29	0.0492
308.15	0.000106	0.001917	8e-06
308.15	0.00101	0.01817	7e-05
308.15	0.01058	0.185	0.0007
308.15	0.1009	1.614	0.0065
308.15	0.4763	6.816	0.0273
308.15	1.09	14.25	0.057
318.15	0.000106	0.002242	9e-06
318.15	0.00101	0.02103	8e-05
318.15	0.01058	0.2142	0.0009
318.15	0.1009	1.859	0.0074
318.15	0.4763	7.917	0.0317
318.15	1.09	16.55	0.0662
343.15	0.000106	0.003135	1.3e-05
343.15	0.00101	0.0293	0.0001
343.15	0.01058	0.2972	0.0012
343.15	0.1009	2.604	0.0104
343.15	0.4763	11.01	0.044
343.15	1.09	22.98	0.0919
363.15	0.000106	0.004007	1.6e-05
363.15	0.00101	0.03658	0.00015
363.15	0.01058	0.3702	0.0015
363.15	0.1009	3.107	0.0124
363.15	0.4763	13.23	0.0529
363.15	1.09	26.87	0.1075

System: water + ammonium chloride (NH4Cl); phases: Liquid
Fixed: Pressure, kPa = 101
Property: Electrical conductivity, S/m (Liquid); method: Alternating current cell with electrodes
Temperature, K	Molality, mol/kg of ammonium chloride (NH4Cl)	Electrical conductivity, S/m	uncertainty
278.15	0.000977	0.008892	3.6e-05
278.15	0.00965	0.0856	0.0003
278.15	0.09765	0.7999	0.0032
278.15	0.4735	3.542	0.0142
278.15	1.034	7.301	0.0292
283.15	0.000977	0.01017	4e-05
283.15	0.00965	0.09786	0.00039
283.15	0.09765	0.9148	0.0037
283.15	0.4735	4.027	0.0161
283.15	1.034	8.293	0.0332
298.15	0.000977	0.01441	6e-05
298.15	0.00965	0.1381	0.0006
298.15	0.09765	1.276	0.0051
298.15	0.4735	5.525	0.0221
298.15	1.034	11.12	0.0445
308.15	0.000977	0.01738	7e-05
308.15	0.00965	0.1671	0.0007
308.15	0.09765	1.545	0.0062
308.15	0.4735	6.577	0.0263
308.15	1.034	13.13	0.0525
318.15	0.000977	0.02024	8e-05
318.15	0.00965	0.1938	0.0008
318.15	0.09765	1.801	0.0072
318.15	0.4735	7.691	0.0308
318.15	1.034	15.36	0.0614
343.15	0.000977	0.0287	0.0001
343.15	0.00965	0.2731	0.0011
343.15	0.09765	2.535	0.0101
343.15	0.4735	10.75	0.043
343.15	1.034	21.55	0.0862
363.15	0.000977	0.03591	0.00014
363.15	0.00965	0.3363	0.0013
363.15	0.09765	3.142	0.0126
363.15	0.4735	13.26	0.053
363.15	1.034	25.35	0.1014

System: water + calcium chloride; phases: Liquid
Fixed: Pressure, kPa = 101
Property: Electrical conductivity, S/m (Liquid); method: Alternating current cell with electrodes
Temperature, K	Molality, mol/kg of calcium chloride	Electrical conductivity, S/m	uncertainty
278.15	7.6e-05	0.001256	5e-06
278.15	0.000755	0.01195	5e-05
278.15	0.00755	0.1103	0.0004
278.15	0.0755	0.9331	0.0037
278.15	0.3773	4.179	0.0167
283.15	7.6e-05	0.001432	6e-06
283.15	0.000755	0.01369	6e-05
283.15	0.00755	0.1263	0.0005
283.15	0.0755	1.062	0.0042
283.15	0.3773	4.73	0.0189
298.15	7.6e-05	0.001998	8e-06
298.15	0.000755	0.01945	8e-05
298.15	0.00755	0.1792	0.0007
298.15	0.0755	1.496	0.006
298.15	0.3773	6.531	0.0261
308.15	7.6e-05	0.002384	1e-05
308.15	0.000755	0.02351	9e-05
308.15	0.00755	0.216	0.0009
308.15	0.0755	1.793	0.0072
308.15	0.3773	7.792	0.0312
318.15	7.6e-05	0.002814	1.1e-05
318.15	0.000755	0.02784	0.00011
318.15	0.00755	0.2547	0.001
318.15	0.0755	2.11	0.0084
318.15	0.3773	9.092	0.0364
343.15	7.6e-05	0.004073	1.6e-05
343.15	0.000755	0.03992	0.00016
343.15	0.00755	0.3636	0.0015
343.15	0.0755	2.982	0.0119
343.15	0.3773	12.66	0.0506
363.15	7.6e-05	0.00517	2e-05
363.15	0.000755	0.05001	0.0002
363.15	0.00755	0.4547	0.0018
363.15	0.0755	3.694	0.0148
363.15	0.3773	15.58	0.0623

System: water + magnesium chloride; phases: Liquid
Fixed: Pressure, kPa = 101
Property: Electrical conductivity, S/m (Liquid); method: Alternating current cell with electrodes
Temperature, K	Molality, mol/kg of magnesium chloride	Electrical conductivity, S/m	uncertainty
278.15	0.000119	0.001861	7e-06
278.15	0.000984	0.01481	6e-05
278.15	0.01137	0.1537	0.0006
278.15	0.09942	1.1	0.0044
278.15	0.3609	3.449	0.0138
283.15	0.000119	0.002134	9e-06
283.15	0.000984	0.017	0.0001
283.15	0.01137	0.176	0.0007
283.15	0.09942	1.256	0.005
283.15	0.3609	3.927	0.0157
298.15	0.000119	0.002989	1.2e-05
298.15	0.000984	0.02432	0.0001
298.15	0.01137	0.2503	0.001
298.15	0.09942	1.772	0.0071
298.15	0.3609	5.491	0.022
308.15	0.000119	0.003553	1.4e-05
308.15	0.000984	0.02937	0.00012
308.15	0.01137	0.302	0.0012
308.15	0.09942	2.137	0.0085
308.15	0.3609	6.606	0.0264
318.15	0.000119	0.004209	1.7e-05
318.15	0.000984	0.03478	0.00014
318.15	0.01137	0.3534	0.0014
318.15	0.09942	2.515	0.0101
318.15	0.3609	7.753	0.031
343.15	0.000119	0.006086	2.4e-05
343.15	0.000984	0.0501	0.0002
343.15	0.01137	0.5068	0.002
343.15	0.09942	3.575	0.0143
343.15	0.3609	10.94	0.0438
363.15	0.000119	0.00764	3e-05
363.15	0.000984	0.06265	0.00025
363.15	0.01137	0.6347	0.0025
363.15	0.09942	4.424	0.0177
363.15	0.3609	13.6	0.0544

System: water + barium chloride; phases: Liquid
Fixed: Pressure, kPa = 101
Property: Electrical conductivity, S/m (Liquid); method: Alternating current cell with electrodes
Temperature, K	Molality, mol/kg of barium chloride	Electrical conductivity, S/m	uncertainty
278.15	9.2e-05	0.001632	7e-06
278.15	0.0011	0.01799	7e-05
278.15	0.00896	0.1386	0.0006
278.15	0.1029	1.366	0.0055
278.15	0.31	3.657	0.0146
283.15	9.2e-05	0.00188	1e-05
283.15	0.0011	0.0206	0.0001
283.15	0.00896	0.1585	0.0006
283.15	0.1029	1.553	0.0062
283.15	0.31	4.127	0.0165
298.15	9.2e-05	0.002597	1e-05
298.15	0.0011	0.02897	0.00012
298.15	0.00896	0.2229	0.0009
298.15	0.1029	2.167	0.0087
298.15	0.31	5.589	0.0224
308.15	9.2e-05	0.003085	1.2e-05
308.15	0.0011	0.03508	0.00014
308.15	0.00896	0.2681	0.0011
308.15	0.1029	2.588	0.0104
308.15	0.31	6.794	0.0272
318.15	9.2e-05	0.003626	1.5e-05
318.15	0.0011	0.04141	0.00017
318.15	0.00896	0.3161	0.0013
318.15	0.1029	3.034	0.0121
318.15	0.31	7.859	0.0314
343.15	9.2e-05	0.005187	2.1e-05
343.15	0.0011	0.05911	0.00024
343.15	0.00896	0.4493	0.0018
343.15	0.1029	4.247	0.017
343.15	0.31	10.32	0.0413
363.15	9.2e-05	0.00644	3e-05
363.15	0.0011	0.07372	0.00029
363.15	0.00896	0.5593	0.0022
363.15	0.1029	4.814	0.0193
363.15	0.31	12.51	0.05

System: water + strontium chloride; phases: Liquid
Fixed: Pressure, kPa = 101
Property: Electrical conductivity, S/m (Liquid); method: Alternating current cell with electrodes
Temperature, K	Molality, mol/kg of strontium chloride	Electrical conductivity, S/m	uncertainty
278.15	0.000125	0.002084	8e-06
278.15	0.00141	0.02222	9e-05
278.15	0.012	0.1807	0.0007
278.15	0.1313	1.663	0.0067
278.15	0.3891	4.194	0.0168
283.15	0.000125	0.002384	1e-05
283.15	0.00141	0.02538	0.0001
283.15	0.012	0.2072	0.0008
283.15	0.1313	1.892	0.0076
283.15	0.3891	4.751	0.019
298.15	0.000125	0.003331	1.3e-05
298.15	0.00141	0.03603	0.00014
298.15	0.012	0.2926	0.0012
298.15	0.1313	2.646	0.0106
298.15	0.3891	6.457	0.0258
308.15	0.000125	0.003972	1.6e-05
308.15	0.00141	0.04353	0.00017
308.15	0.012	0.3531	0.0014
308.15	0.1313	3.174	0.0127
308.15	0.3891	7.797	0.0312
318.15	0.000125	0.004689	1.9e-05
318.15	0.00141	0.05151	0.00021
318.15	0.012	0.4164	0.0017
318.15	0.1313	3.719	0.0149
318.15	0.3891	9.074	0.0363
343.15	0.000125	0.00678	3e-05
343.15	0.00141	0.07369	0.00029
343.15	0.012	0.5927	0.0024
343.15	0.1313	5.229	0.0209
343.15	0.3891	12.51	0.05
363.15	0.000125	0.00842	3e-05
363.15	0.00141	0.09235	0.00037
363.15	0.012	0.7383	0.003
363.15	0.1313	6.184	0.0247
363.15	0.3891	15.38	0.0615

System: sulfuric acid + water; phases: Liquid
Fixed: Pressure, kPa = 101
Property: Electrical conductivity, S/m (Liquid); method: Alternating current cell with electrodes
Temperature, K	Molality, mol/kg of sulfuric acid	Electrical conductivity, S/m	uncertainty
278.15	9.4e-05	0.005493	2.2e-05
278.15	0.000936	0.05201	0.00021
278.15	0.00944	0.4321	0.0017
278.15	0.09223	3.12	0.0125
278.15	0.4664	13.46	0.0538
283.15	9.4e-05	0.006105	2.4e-05
283.15	0.000936	0.05749	0.00023
283.15	0.00944	0.4729	0.0019
283.15	0.09223	3.444	0.0138
283.15	0.4664	14.5	0.058
298.15	9.4e-05	0.007827	3.1e-05
298.15	0.000936	0.07292	0.00029
298.15	0.00944	0.5772	0.0023
298.15	0.09223	4.13	0.0165
298.15	0.4664	17.37	0.0695
308.15	9.4e-05	0.008931	3.6e-05
308.15	0.000936	0.08174	0.00033
308.15	0.00944	0.6319	0.0025
308.15	0.09223	4.525	0.0181
308.15	0.4664	19.34	0.0774
318.15	9.4e-05	0.009949	4e-05
318.15	0.000936	0.09001	0.00036
318.15	0.00944	0.6759	0.0027
318.15	0.09223	4.885	0.0195
318.15	0.4664	20.96	0.0838
343.15	9.4e-05	0.01221	5e-05
343.15	0.000936	0.1026	0.0004
343.15	0.00944	0.7372	0.0029
343.15	0.09223	5.575	0.0223
343.15	0.4664	25.62	0.1025
363.15	9.4e-05	0.01367	5e-05
363.15	0.000936	0.1058	0.00042
363.15	0.00944	0.7698	0.0031
363.15	0.09223	6.159	0.0246
363.15	0.4664	28.05	0.1122

System: water + sodium sulfate; phases: Liquid
Fixed: Pressure, kPa = 101
Property: Electrical conductivity, S/m (Liquid); method: Alternating current cell with electrodes
Temperature, K	Molality, mol/kg of sodium sulfate	Electrical conductivity, S/m	uncertainty
278.15	0.0001	0.001565	6e-06
278.15	0.001	0.01463	6e-05
278.15	0.01	0.1296	0.0005
278.15	0.1001	1	0.004
278.15	0.1989	1.756	0.007
278.15	0.4999	3.383	0.0135
283.15	0.0001	0.001807	7e-06
283.15	0.001	0.0168	0.0001
283.15	0.01	0.1488	0.0006
283.15	0.1001	1.148	0.0046
283.15	0.1989	2.022	0.0081
283.15	0.4999	3.854	0.0154
298.15	0.0001	0.002576	1e-05
298.15	0.001	0.02415	0.0001
298.15	0.01	0.2128	0.0009
298.15	0.1001	1.639	0.0066
298.15	0.1989	2.882	0.0115
298.15	0.4999	5.47	0.0219
308.15	0.0001	0.003181	1.3e-05
308.15	0.001	0.0292	0.0001
308.15	0.01	0.2575	0.001
308.15	0.1001	1.986	0.0079
308.15	0.1989	3.508	0.014
308.15	0.4999	6.708	0.0268
318.15	0.0001	0.003786	1.5e-05
318.15	0.001	0.03475	0.00014
318.15	0.01	0.3049	0.0012
318.15	0.1001	2.347	0.0094
318.15	0.1989	4.153	0.0166
318.15	0.4999	7.954	0.0318
343.15	0.0001	0.005401	2.2e-05
343.15	0.001	0.05015	0.0002
343.15	0.01	0.4381	0.0018
343.15	0.1001	3.347	0.0134
343.15	0.1989	5.946	0.0238
343.15	0.4999	11.39	0.0456
363.15	0.0001	0.00676	3e-05
363.15	0.001	0.0633	0.00025
363.15	0.01	0.5474	0.0022
363.15	0.1001	4.17	0.0167
363.15	0.1989	7.43	0.0297
363.15	0.4999	13.7	0.0548

System: water + potassium sulfate; phases: Liquid
Fixed: Pressure, kPa = 101
Property: Electrical conductivity, S/m (Liquid); method: Alternating current cell with electrodes
Temperature, K	Molality, mol/kg of potassium sulfate	Electrical conductivity, S/m	uncertainty
278.15	0.000102	0.001969	8e-06
278.15	0.00105	0.01881	8e-05
278.15	0.01061	0.1685	0.0007
278.15	0.1048	1.341	0.0054
278.15	0.2029	2.362	0.0094
278.15	0.4783	5.151	0.0206
283.15	0.000102	0.002257	9e-06
283.15	0.00105	0.02141	9e-05
283.15	0.01061	0.1919	0.0008
283.15	0.1048	1.523	0.0061
283.15	0.2029	2.672	0.0107
283.15	0.4783	5.78	0.0231
298.15	0.000102	0.003175	1.3e-05
298.15	0.00105	0.03006	0.00012
298.15	0.01061	0.2675	0.0011
298.15	0.1048	2.11	0.0084
298.15	0.2029	3.705	0.0148
298.15	0.4783	7.801	0.0312
308.15	0.000102	0.003884	1.6e-05
308.15	0.00105	0.03611	0.00014
308.15	0.01061	0.3216	0.0013
308.15	0.1048	2.516	0.0101
308.15	0.2029	4.409	0.0176
308.15	0.4783	9.298	0.0372
318.15	0.000102	0.004575	1.8e-05
318.15	0.00105	0.04268	0.00017
318.15	0.01061	0.3765	0.0015
318.15	0.1048	2.94	0.0118
318.15	0.2029	5.138	0.0206
318.15	0.4783	10.8	0.0432
343.15	0.000102	0.006401	2.6e-05
343.15	0.00105	0.06018	0.00024
343.15	0.01061	0.5269	0.0021
343.15	0.1048	4.064	0.0163
343.15	0.2029	7.099	0.0284
343.15	0.4783	14.91	0.0596
363.15	0.000102	0.00794	3e-05
363.15	0.00105	0.07466	0.0003
363.15	0.01061	0.6441	0.0026
363.15	0.1048	4.957	0.0198
363.15	0.2029	8.722	0.0349
363.15	0.4783	17.97	0.0719

System: water + cesium sulfate; phases: Liquid
Fixed: Pressure, kPa = 101
Property: Electrical conductivity, S/m (Liquid); method: Alternating current cell with electrodes
Temperature, K	Molality, mol/kg of cesium sulfate	Electrical conductivity, S/m	uncertainty
278.15	0.000101	0.001962	8e-06
278.15	0.00105	0.01932	8e-05
278.15	0.01021	0.1676	0.0007
278.15	0.1047	1.358	0.0054
278.15	0.1836	2.24	0.009
278.15	0.3588	4.083	0.0163
283.15	0.000101	0.002237	9e-06
283.15	0.00105	0.02195	9e-05
283.15	0.01021	0.1906	0.0008
283.15	0.1047	1.539	0.0062
283.15	0.1836	2.528	0.0101
283.15	0.3588	4.58	0.0183
298.15	0.000101	0.003069	1.2e-05
298.15	0.00105	0.0306	0.0001
298.15	0.01021	0.2654	0.0011
298.15	0.1047	2.124	0.0085
298.15	0.1836	3.468	0.0139
298.15	0.3588	6.204	0.0248
308.15	0.000101	0.003625	1.5e-05
308.15	0.00105	0.03666	0.00015
308.15	0.01021	0.3173	0.0013
308.15	0.1047	2.529	0.0101
308.15	0.1836	4.119	0.0165
308.15	0.3588	7.32	0.0293
318.15	0.000101	0.004233	1.7e-05
318.15	0.00105	0.04304	0.00017
318.15	0.01021	0.3716	0.0015
318.15	0.1047	2.958	0.0118
318.15	0.1836	4.792	0.0192
318.15	0.3588	8.463	0.0339
343.15	0.000101	0.006348	2.5e-05
343.15	0.00105	0.06181	0.00025
343.15	0.01021	0.5216	0.0021
343.15	0.1047	4.094	0.0164
343.15	0.1836	6.59	0.0264
343.15	0.3588	11.58	0.0463
363.15	0.000101	0.0078	3e-05
363.15	0.00105	0.07641	0.00031
363.15	0.01021	0.6438	0.0026
363.15	0.1047	5.022	0.0201
363.15	0.1836	8	0.032
363.15	0.3588	13.73	0.0549

System: water + calcium sulfate; phases: Liquid
Fixed: Pressure, kPa = 101
Property: Electrical conductivity, S/m (Liquid); method: Alternating current cell with electrodes
Temperature, K	Molality, mol/kg of calcium sulfate	Electrical conductivity, S/m	uncertainty
278.15	7.6e-05	0.00123	1e-05
278.15	0.00102	0.01397	6e-05
278.15	0.01245	0.1154	0.0005
283.15	7.6e-05	0.001409	6e-06
283.15	0.00102	0.01601	6e-05
283.15	0.01245	0.1331	0.0005
298.15	7.6e-05	0.001963	8e-06
298.15	0.00102	0.02275	9e-05
298.15	0.01245	0.185	0.0007
308.15	7.6e-05	0.002529	1e-05
308.15	0.00102	0.02808	0.00011
308.15	0.01245	0.2255	0.0009
318.15	7.6e-05	0.003011	1.2e-05
318.15	0.00102	0.0325	0.0001
318.15	0.01245	0.2573	0.001
343.15	7.6e-05	0.004223	1.7e-05
343.15	0.00102	0.04537	0.00018
343.15	0.01245	0.3419	0.0014
363.15	7.6e-05	0.00536	2e-05
363.15	0.00102	0.05546	0.00022
363.15	0.01245	0.3973	0.0016

System: hydrogen potassium sulfate + water; phases: Liquid
Fixed: Pressure, kPa = 101
Property: Electrical conductivity, S/m (Liquid); method: Alternating current cell with electrodes
Temperature, K	Molality, mol/kg of hydrogen potassium sulfate	Electrical conductivity, S/m	uncertainty
278.15	0.000161	0.006027	2.4e-05
278.15	0.000981	0.03588	0.00014
278.15	0.01608	0.4635	0.0019
278.15	0.09815	2.141	0.0086
278.15	0.2291	4.379	0.0175
283.15	0.000161	0.006684	2.7e-05
283.15	0.000981	0.03981	0.00016
283.15	0.01608	0.5067	0.002
283.15	0.09815	2.318	0.0093
283.15	0.2291	4.728	0.0189
298.15	0.000161	0.008772	3.5e-05
298.15	0.000981	0.05156	0.00021
298.15	0.01608	0.623	0.0025
298.15	0.09815	2.791	0.0112
298.15	0.2291	5.71	0.0228
308.15	0.000161	0.01017	4.1e-05
308.15	0.000981	0.05895	0.00024
308.15	0.01608	0.6784	0.0027
308.15	0.09815	2.998	0.012
308.15	0.2291	6.137	0.0245
318.15	0.000161	0.01154	5e-05
318.15	0.000981	0.06564	0.00026
318.15	0.01608	0.7238	0.0029
318.15	0.09815	3.157	0.0126
318.15	0.2291	6.456	0.0258
343.15	0.000161	0.01478	6e-05
343.15	0.000981	0.07958	0.00032
343.15	0.01608	0.7958	0.0032
343.15	0.09815	3.469	0.0139
343.15	0.2291	7.159	0.0286
363.15	0.000161	0.01675	7e-05
363.15	0.000981	0.0854	0.00034
363.15	0.01608	0.8195	0.0033
363.15	0.09815	3.665	0.0147
363.15	0.2291	7.699	0.0308

System: potassium bicarbonate + water; phases: Liquid
Fixed: Pressure, kPa = 101
Property: Electrical conductivity, S/m (Liquid); method: Alternating current cell with electrodes
Temperature, K	Molality, mol/kg of potassium bicarbonate	Electrical conductivity, S/m	uncertainty
278.15	0.001	0.007403	3e-05
278.15	0.00992	0.0687	0.0003
278.15	0.09998	0.6141	0.0025
278.15	0.5001	2.664	0.0107
278.15	0.9999	4.748	0.019
283.15	0.001	0.00834	3e-05
283.15	0.00992	0.07877	0.00032
283.15	0.09998	0.7003	0.0028
283.15	0.5001	3.031	0.0121
283.15	0.9999	5.358	0.0214
298.15	0.001	0.01179	5e-05
298.15	0.00992	0.1107	0.0004
298.15	0.09998	0.9852	0.0039
298.15	0.5001	4.206	0.0168
298.15	0.9999	7.365	0.0295
308.15	0.001	0.01416	5.7e-05
308.15	0.00992	0.1335	0.0005
308.15	0.09998	1.176	0.0047
308.15	0.5001	5.066	0.0203
308.15	0.9999	8.802	0.0352
318.15	0.001	0.01673	7e-05
318.15	0.00992	0.1573	0.0006
318.15	0.09998	1.383	0.0055
318.15	0.5001	5.94	0.0238
318.15	0.9999	10.31	0.0412
343.15	0.001	0.02401	0.0001
343.15	0.00992	0.2237	0.0009
343.15	0.09998	1.963	0.0079
343.15	0.5001	8.391	0.0336
343.15	0.9999	14.3	0.0572
363.15	0.001	0.03038	0.00012
363.15	0.00992	0.2794	0.00112
363.15	0.09998	2.446	0.0098
363.15	0.5001	10.49	0.042
363.15	0.9999	17.93	0.0717

System: potassium carbonate + water; phases: Liquid
Fixed: Pressure, kPa = 101
Property: Electrical conductivity, S/m (Liquid); method: Alternating current cell with electrodes
Temperature, K	Molality, mol/kg of potassium carbonate	Electrical conductivity, S/m	uncertainty
278.15	0.00132	0.02129	9e-05
278.15	0.01048	0.1568	0.0006
278.15	0.1319	1.589	0.0064
278.15	0.3525	3.8	0.0152
283.15	0.00132	0.02471	0.0001
283.15	0.01048	0.1809	0.0007
283.15	0.1319	1.815	0.0073
283.15	0.3525	4.305	0.0172
298.15	0.00132	0.03642	0.00015
298.15	0.01048	0.2575	0.001
298.15	0.1319	2.542	0.0102
298.15	0.3525	5.942	0.0238
308.15	0.00132	0.0439	0.000176
308.15	0.01048	0.3146	0.0013
308.15	0.1319	3.054	0.0122
308.15	0.3525	7.115	0.0285
318.15	0.00132	0.05331	0.00021
318.15	0.01048	0.3758	0.0015
318.15	0.1319	3.59	0.0144
318.15	0.3525	8.319	0.0333
343.15	0.00132	0.07921	0.00032
343.15	0.01048	0.5522	0.0022
343.15	0.1319	5.098	0.0204
343.15	0.3525	11.6	0.0464
363.15	0.00132	0.09755	0.00039
363.15	0.01048	0.6987	0.00279
363.15	0.1319	6.345	0.0254
363.15	0.3525	14.31	0.0572

System: sodium bicarbonate + water; phases: Liquid
Fixed: Pressure, kPa = 101
Property: Electrical conductivity, S/m (Liquid); method: Alternating current cell with electrodes
Temperature, K	Molality, mol/kg of sodium bicarbonate	Electrical conductivity, S/m	uncertainty
278.15	0.00121	0.006911	2.8e-05
278.15	0.01187	0.06467	0.00026
278.15	0.1223	0.5728	0.0023
278.15	0.7226	2.634	0.0105
283.15	0.00121	0.008034	3.2e-05
283.15	0.01187	0.07485	0.0003
283.15	0.1223	0.6641	0.0027
283.15	0.7226	3.055	0.0122
298.15	0.00121	0.01162	5e-05
298.15	0.01187	0.1086	0.0004
298.15	0.1223	0.9598	0.0038
298.15	0.7226	4.383	0.0175
308.15	0.00121	0.01437	5.7e-05
308.15	0.01187	0.1346	0.0005
308.15	0.1223	1.177	0.0047
308.15	0.7226	5.346	0.0214
318.15	0.00121	0.01703	7e-05
318.15	0.01187	0.1589	0.0006
318.15	0.1223	1.395	0.0056
318.15	0.7226	6.41	0.0256
343.15	0.00121	0.02506	0.0001
343.15	0.01187	0.234	0.0009
343.15	0.1223	2.044	0.0082
343.15	0.7226	9.404	0.0376
363.15	0.00121	0.03284	0.00013
363.15	0.01187	0.3056	0.00122
363.15	0.1223	2.457	0.0098
363.15	0.7226	11.39	0.0456

System: sodium carbonate + water; phases: Liquid
Fixed: Pressure, kPa = 101
Property: Electrical conductivity, S/m (Liquid); method: Alternating current cell with electrodes
Temperature, K	Molality, mol/kg of sodium carbonate	Electrical conductivity, S/m	uncertainty
278.15	0.000912	0.01348	5e-05
278.15	0.01031	0.1285	0.0005
278.15	0.09334	0.886	0.0035
278.15	0.3041	2.324	0.0093
283.15	0.000912	0.01603	6e-05
283.15	0.01031	0.1491	0.0006
283.15	0.09334	1.024	0.0041
283.15	0.3041	2.685	0.0107
298.15	0.000912	0.02439	0.0001
298.15	0.01031	0.2182	0.0009
298.15	0.09334	1.486	0.0059
298.15	0.3041	3.893	0.0156
308.15	0.000912	0.02888	0.000116
308.15	0.01031	0.2684	0.0011
308.15	0.09334	1.822	0.0073
308.15	0.3041	4.781	0.0191
318.15	0.000912	0.03495	0.00014
318.15	0.01031	0.3237	0.0013
318.15	0.09334	2.182	0.0087
318.15	0.3041	5.713	0.0229
343.15	0.000912	0.05196	0.00021
343.15	0.01031	0.4867	0.0019
343.15	0.09334	3.222	0.0129
343.15	0.3041	8.362	0.0334
363.15	0.000912	0.06513	0.00026
363.15	0.01031	0.6187	0.00247
363.15	0.09334	4.117	0.0165
363.15	0.3041	10.64	0.0426

System: sodium hydroxide + water; phases: Liquid
Fixed: Pressure, kPa = 101
Property: Electrical conductivity, S/m (Liquid); method: Alternating current cell with electrodes
Temperature, K	Molality, mol/kg of sodium hydroxide	Electrical conductivity, S/m	uncertainty
278.15	0.001	0.01671	7e-05
278.15	0.01	0.1596	0.0006
278.15	0.1	1.498	0.006
278.15	0.5	6.639	0.0266
278.15	1	12.13	0.0485
283.15	0.001	0.01919	8e-05
283.15	0.01	0.1793	0.0007
283.15	0.1	1.677	0.0067
283.15	0.5	7.417	0.0297
283.15	1	13.5	0.054
298.15	0.001	0.02459	0.0001
298.15	0.01	0.2414	0.001
298.15	0.1	2.251	0.009
298.15	0.5	9.875	0.0395
298.15	1	18.01	0.072
308.15	0.001	0.02833	0.000113
308.15	0.01	0.2784	0.0011
308.15	0.1	2.635	0.0105
308.15	0.5	11.59	0.0464
308.15	1	21.19	0.0848
318.15	0.001	0.03327	0.00013
318.15	0.01	0.3201	0.0013
318.15	0.1	3.026	0.0121
318.15	0.5	13.25	0.053
318.15	1	24.38	0.0975
343.15	0.001	0.04401	0.00018
343.15	0.01	0.4294	0.0017
343.15	0.1	4.062	0.0162
343.15	0.5	17.72	0.0709
343.15	1	32.74	0.131
363.15	0.001	0.05213	0.00021
363.15	0.01	0.5115	0.00205
363.15	0.1	4.861	0.0194
363.15	0.5	20.63	0.0825
363.15	1	36.66	0.1466

System: sodium fluoride + water; phases: Liquid
Fixed: Pressure, kPa = 101
Property: Electrical conductivity, S/m (Liquid); method: Alternating current cell with electrodes
Temperature, K	Molality, mol/kg of sodium fluoride	Electrical conductivity, S/m	uncertainty
278.15	8.8e-05	0.0005802	2.3e-06
278.15	0.00092	0.006016	2.4e-05
278.15	0.00878	0.05214	0.00021
278.15	0.0906	0.4638	0.0019
278.15	0.4176	1.917	0.0077
278.15	0.8404	3.432	0.0137
283.15	8.8e-05	0.0006955	2.8e-06
283.15	0.00092	0.006909	2.8e-05
283.15	0.00878	0.05994	0.00024
283.15	0.0906	0.5338	0.0021
283.15	0.4176	2.201	0.0088
283.15	0.8404	3.915	0.0157
298.15	8.8e-05	0.0009523	3.8e-06
298.15	0.00092	0.009683	3.9e-05
298.15	0.00878	0.08551	0.00034
298.15	0.0906	0.7669	0.0031
298.15	0.4176	3.151	0.0126
298.15	0.8404	5.579	0.0223
308.15	8.8e-05	0.00122	5e-06
308.15	0.00092	0.01152	5e-05
308.15	0.00878	0.1038	0.0004
308.15	0.0906	0.9341	0.0037
308.15	0.4176	3.824	0.0153
308.15	0.8404	6.791	0.0272
318.15	8.8e-05	0.001433	6e-06
318.15	0.00092	0.01398	6e-05
318.15	0.00878	0.1234	0.0005
318.15	0.0906	1.112	0.0044
318.15	0.4176	4.547	0.0182
318.15	0.8404	7.478	0.0299
343.15	8.8e-05	0.002014	8e-06
343.15	0.00092	0.02009	8e-05
343.15	0.00878	0.1798	0.0007
343.15	0.0906	1.621	0.0065
343.15	0.4176	6.57	0.0263
343.15	0.8404	11.37	0.0455
363.15	8.8e-05	0.00252	1e-05
363.15	0.00092	0.02474	0.0001
363.15	0.00878	0.227	0.0009
363.15	0.0906	2.042	0.0082
363.15	0.4176	8.137	0.0325
363.15	0.8404	14.54	0.0582

System: water + potassium fluoride; phases: Liquid
Fixed: Pressure, kPa = 101
Property: Electrical conductivity, S/m (Liquid); method: Alternating current cell with electrodes
Temperature, K	Molality, mol/kg of potassium fluoride	Electrical conductivity, S/m	uncertainty
278.15	0.000325	0.002576	1e-05
278.15	0.00109	0.008262	3.3e-05
278.15	0.035	0.2417	0.001
278.15	0.11	0.7375	0.003
278.15	0.52	3.023	0.0121
278.15	0.99	5.272	0.0211
283.15	0.000325	0.002933	1.2e-05
283.15	0.00109	0.009509	3.8e-05
283.15	0.035	0.2829	0.0011
283.15	0.11	0.8455	0.0034
283.15	0.52	3.435	0.0137
283.15	0.99	6.034	0.0241
298.15	0.000325	0.004125	1.7e-05
298.15	0.00109	0.01357	5e-05
298.15	0.035	0.3939	0.0016
298.15	0.11	1.195	0.0048
298.15	0.52	4.804	0.0192
298.15	0.99	8.275	0.0331
308.15	0.000325	0.005036	2e-05
308.15	0.00109	0.01642	7e-05
308.15	0.035	0.4778	0.0019
308.15	0.11	1.445	0.0058
308.15	0.52	5.771	0.0231
308.15	0.99	9.907	0.0396
318.15	0.000325	0.005965	2.4e-05
318.15	0.00109	0.01929	8e-05
318.15	0.035	0.5576	0.0022
318.15	0.11	1.692	0.0068
318.15	0.52	6.801	0.0272
318.15	0.99	11.75	0.047
343.15	0.000325	0.008448	3.4e-05
343.15	0.00109	0.02734	0.00011
343.15	0.035	0.7954	0.0032
343.15	0.11	2.409	0.0096
343.15	0.52	9.683	0.0387
343.15	0.99	16.85	0.0674
363.15	0.000325	0.01046	4e-05
363.15	0.00109	0.03426	0.00014
363.15	0.035	0.9964	0.004
363.15	0.11	3.004	0.012
363.15	0.52	11.86	0.0474
363.15	0.99	20.13	0.0805

System: water + potassium bromide; phases: Liquid
Fixed: Pressure, kPa = 101
Property: Electrical conductivity, S/m (Liquid); method: Alternating current cell with electrodes
Temperature, K	Molality, mol/kg of potassium bromide	Electrical conductivity, S/m	uncertainty
278.15	9.9e-05	0.0009344	3.7e-06
278.15	0.000975	0.009114	3.6e-05
278.15	0.00987	0.08994	0.00036
278.15	0.09755	0.8252	0.0033
278.15	1.21	8.409	0.0336
283.15	9.9e-05	0.001066	4e-06
283.15	0.000975	0.01037	4e-05
283.15	0.00987	0.1022	0.0004
283.15	0.09755	0.9355	0.0037
283.15	1.21	9.363	0.0375
298.15	9.9e-05	0.001469	6e-06
298.15	0.000975	0.01441	6e-05
298.15	0.00987	0.1417	0.0006
298.15	0.09755	1.29	0.0052
298.15	1.21	12.45	0.0498
308.15	9.9e-05	0.00175	7e-06
308.15	0.000975	0.01716	7e-05
308.15	0.00987	0.1689	0.0007
308.15	0.09755	1.535	0.0061
308.15	1.21	14.54	0.0582
318.15	9.9e-05	0.002072	8e-06
318.15	0.000975	0.02007	8e-05
318.15	0.00987	0.1974	0.0008
318.15	0.09755	1.787	0.0071
318.15	1.21	16.72	0.0669
343.15	9.9e-05	0.002896	1.2e-05
343.15	0.000975	0.02802	0.00011
343.15	0.00987	0.2761	0.0011
343.15	0.09755	2.491	0.01
343.15	1.21	22.46	0.0898
363.15	9.9e-05	0.003522	1.4e-05
363.15	0.000975	0.0343	0.00014
363.15	0.00987	0.3376	0.0014
363.15	0.09755	2.952	0.0118
363.15	1.21	26.28	0.1051

System: water + potassium nitrate; phases: Liquid
Fixed: Pressure, kPa = 101
Property: Electrical conductivity, S/m (Liquid); method: Alternating current cell with electrodes
Temperature, K	Molality, mol/kg of potassium nitrate	Electrical conductivity, S/m	uncertainty
278.15	0.000103	0.0009389	3.8e-06
278.15	0.000997	0.008901	3.6e-05
278.15	0.01026	0.0874	0.0004
278.15	0.09972	0.7601	0.003
278.15	0.4093	2.815	0.0113
278.15	0.7941	4.806	0.0192
283.15	0.000103	0.001073	4e-06
283.15	0.000997	0.01015	4e-05
283.15	0.01026	0.09971	0.0004
283.15	0.09972	0.8658	0.0035
283.15	0.4093	3.211	0.0128
283.15	0.7941	5.474	0.0219
298.15	0.000103	0.001486	6e-06
298.15	0.000997	0.01411	6e-05
298.15	0.01026	0.1385	0.0006
298.15	0.09972	1.201	0.0048
298.15	0.4093	4.407	0.0176
298.15	0.7941	7.428	0.0297
308.15	0.000103	0.001798	7e-06
308.15	0.000997	0.01701	7e-05
308.15	0.01026	0.1664	0.0007
308.15	0.09972	1.44	0.0058
308.15	0.4093	5.264	0.0211
308.15	0.7941	8.831	0.0353
318.15	0.000103	0.002048	8e-06
318.15	0.000997	0.01956	8e-05
318.15	0.01026	0.1919	0.0008
318.15	0.09972	1.669	0.0067
318.15	0.4093	6.162	0.0246
318.15	0.7941	10.38	0.0415
343.15	0.000103	0.00283	1.1e-05
343.15	0.000997	0.02717	0.00011
343.15	0.01026	0.2666	0.0011
343.15	0.09972	2.342	0.0094
343.15	0.4093	8.59	0.0344
343.15	0.7941	14.63	0.0585
363.15	0.000103	0.00348	1.4e-05
363.15	0.000997	0.0338	0.00014
363.15	0.01026	0.3287	0.0013
363.15	0.09972	2.875	0.0115
363.15	0.4093	10.45	0.0418
363.15	0.7941	16.97	0.0679

System: water + nitric acid, zinc salt; phases: Liquid
Fixed: Pressure, kPa = 101
Property: Electrical conductivity, S/m (Liquid); method: Alternating current cell with electrodes
Temperature, K	Molality, mol/kg of nitric acid, zinc salt	Electrical conductivity, S/m	uncertainty
278.15	8.7e-05	0.001368	5e-06
278.15	0.00127	0.01814	7e-05
278.15	0.00874	0.1162	0.0005
278.15	0.1275	1.391	0.0056
278.15	0.3325	3.111	0.0124
283.15	8.7e-05	0.001579	6e-06
283.15	0.00127	0.02081	8e-05
283.15	0.00874	0.1334	0.0005
283.15	0.1275	1.592	0.0064
283.15	0.3325	3.653	0.0146
298.15	8.7e-05	0.002248	9e-06
298.15	0.00127	0.02942	0.00012
298.15	0.00874	0.1891	0.0008
298.15	0.1275	2.217	0.0089
298.15	0.3325	4.931	0.0197
308.15	8.7e-05	0.002744	1.1e-05
308.15	0.00127	0.03606	0.00014
308.15	0.00874	0.2299	0.0009
308.15	0.1275	2.658	0.0106
308.15	0.3325	5.906	0.0236
318.15	8.7e-05	0.003188	1.3e-05
318.15	0.00127	0.04205	0.00017
318.15	0.00874	0.2687	0.0011
318.15	0.1275	3.118	0.0125
318.15	0.3325	6.986	0.0279
343.15	8.7e-05	0.004549	1.8e-05
343.15	0.00127	0.06014	0.00024
343.15	0.00874	0.383	0.0015
343.15	0.1275	4.402	0.0176
343.15	0.3325	9.937	0.0397
363.15	8.7e-05	0.00575	2.3e-05
363.15	0.00127	0.07615	0.0003
363.15	0.00874	0.4824	0.0019
363.15	0.1275	5.442	0.0218
363.15	0.3325	11.83	0.0473

System: water + aluminum trinitrate; phases: Liquid
Fixed: Pressure, kPa = 101
Property: Electrical conductivity, S/m (Liquid); method: Alternating current cell with electrodes
Molality, mol/kg of aluminum trinitrate	Temperature, K	Electrical conductivity, S/m	uncertainty
8.8e-05	278.1	0.03869	0.00015
8.8e-05	283.1	0.04302	0.00017
8.8e-05	298.15	0.05552	0.00022
8.8e-05	308.15	0.06334	0.00025
8.8e-05	318.15	0.07101	0.00028
8.8e-05	343.15	0.09049	0.00036
8.8e-05	363.15	0.1042	0.0004
0.000883	278.1	0.05671	0.00023
0.000883	283.1	0.06384	0.00026
0.000883	298.15	0.08484	0.00034
0.000883	308.15	0.09898	0.0004
0.000883	318.15	0.1135	0.0005
0.000883	343.15	0.1533	0.0006
0.000883	363.15	0.1872	0.0008
0.00871	278.1	0.2168	0.0009
0.00871	283.1	0.2457	0.001
0.00871	298.15	0.3424	0.0014
0.00871	308.15	0.411	0.0016
0.00871	318.15	0.4827	0.0019
0.00871	343.15	0.6932	0.0028
0.00871	363.15	0.8941	0.0036
0.0881	278.1	1.551	0.0062
0.0881	283.1	1.706	0.0068
0.0881	298.15	2.378	0.0095
0.0881	308.15	2.873	0.0115
0.0881	318.15	3.387	0.0135
0.0881	343.15	4.867	0.0195
0.0881	363.15	5.923	0.0237
0.158	278.1	2.511	0.01
0.158	283.1	2.826	0.0113
0.158	298.15	3.913	0.0157
0.158	308.15	4.788	0.0192
0.158	318.15	5.595	0.0224
0.158	343.15	7.689	0.0308
0.158	363.15	9.698	0.0388

System: copper dinitrate + water; phases: Liquid
Fixed: Pressure, kPa = 101
Property: Electrical conductivity, S/m (Liquid); method: Alternating current cell with electrodes
Temperature, K	Molality, mol/kg of copper dinitrate	Electrical conductivity, S/m	uncertainty
278.1	0.0001	0.01101	4e-05
278.1	0.0011	0.02486	0.0001
278.1	0.01032	0.1433	0.0006
278.1	0.1108	1.207	0.0048
278.1	0.3459	3.219	0.0129
283.1	0.0001	0.01227	5e-05
283.1	0.0011	0.02823	0.00011
283.1	0.01032	0.1641	0.0007
283.1	0.1108	1.382	0.0055
283.1	0.3459	3.68	0.0147
298.15	0.0001	0.01613	6e-05
298.15	0.0011	0.0388	0.0002
298.15	0.01032	0.2308	0.0009
298.15	0.1108	1.935	0.0077
298.15	0.3459	5.093	0.0204
308.15	0.0001	0.0187	0.0001
308.15	0.0011	0.04633	0.00019
308.15	0.01032	0.2795	0.0011
308.15	0.1108	2.333	0.0093
308.15	0.3459	6.092	0.0244
318.15	0.0001	0.0208	0.0001
318.15	0.0011	0.05303	0.00021
318.15	0.01032	0.3256	0.0013
318.15	0.1108	2.746	0.011
318.15	0.3459	7.235	0.0289
343.15	0.0001	0.02684	0.00011
343.15	0.0011	0.07303	0.00029
343.15	0.01032	0.4628	0.0019
343.15	0.1108	3.918	0.0157
343.15	0.3459	10.34	0.0414
363.15	0.0001	0.0318	0.0001
363.15	0.0011	0.08992	0.00036
363.15	0.01032	0.5792	0.0023
363.15	0.1108	4.838	0.0194
363.15	0.3459	12.57	0.0503

System: water + ferrous chloride; phases: Liquid
Fixed: Pressure, kPa = 101
Property: Electrical conductivity, S/m (Liquid); method: Alternating current cell with electrodes
Temperature, K	Molality, mol/kg of ferrous chloride	Electrical conductivity, S/m	uncertainty
278.1	9e-05	0.3365	0.0013
278.1	0.000726	0.3437	0.0014
278.1	0.00908	0.4397	0.0018
278.1	0.1169	1.6	0.0064
283.1	9e-05	0.3724	0.0015
283.1	0.000726	0.3802	0.0015
283.1	0.00908	0.4997	0.002
283.1	0.1169	1.807	0.0072
298.15	9e-05	0.4835	0.0019
298.15	0.000726	0.494	0.002
298.15	0.00908	0.6568	0.0026
298.15	0.1169	2.494	0.01
308.15	9e-05	0.5486	0.0022
308.15	0.000726	0.5646	0.0023
308.15	0.00908	0.7661	0.0031
308.15	0.1169	3.003	0.012
318.15	9e-05	0.6142	0.0025
318.15	0.000726	0.635	0.0025
318.15	0.00908	0.8715	0.0035
318.15	0.1169	3.516	0.0141
343.15	9e-05	0.7702	0.0031
343.15	0.000726	0.8025	0.0032
343.15	0.00908	1.148	0.0046
343.15	0.1169	4.889	0.0196
363.15	9e-05	0.8954	0.0036
363.15	0.000726	0.9282	0.0037
363.15	0.00908	1.354	0.0054
363.15	0.1169	5.966	0.0239

System: iron(II) sulfate + water; phases: Liquid
Fixed: Pressure, kPa = 101
Property: Electrical conductivity, S/m (Liquid); method: Alternating current cell with electrodes
Temperature, K	Molality, mol/kg of iron(II) sulfate	Electrical conductivity, S/m	uncertainty
278.1	0.00112	0.06212	0.00025
278.1	0.00212	0.06435	0.00026
278.1	0.01287	0.1183	0.0005
278.1	0.1121	0.2469	0.001
278.1	0.2576	1.238	0.005
283.1	0.00112	0.06791	0.00027
283.1	0.00212	0.07287	0.00029
283.1	0.01287	0.1326	0.0005
283.1	0.1121	0.269	0.0011
283.1	0.2576	1.415	0.0057
298.15	0.00112	0.08697	0.00035
298.15	0.00212	0.09366	0.00037
298.15	0.01287	0.1784	0.0007
298.15	0.1121	0.3516	0.0014
298.15	0.2576	1.98	0.0079
308.15	0.00112	0.09771	0.00039
308.15	0.00212	0.1063	0.0004
308.15	0.01287	0.2092	0.0008
308.15	0.1121	0.3913	0.0016
308.15	0.2576	2.303	0.0092
318.15	0.00112	0.1075	0.0004
318.15	0.00212	0.1165	0.0005
318.15	0.01287	0.2419	0.001
318.15	0.1121	0.4714	0.0019
318.15	0.2576	2.692	0.0108
343.15	0.00112	0.1235	0.0005
343.15	0.00212	0.1409	0.0006
343.15	0.01287	0.3214	0.0013
343.15	0.2576	3.631	0.0145
363.15	0.00112	0.1274	0.0005
363.15	0.00212	0.1543	0.0006
363.15	0.01287	0.3988	0.0016
363.15	0.2576	4.11	0.0164

System: water + ferric sulfate; phases: Liquid
Fixed: Pressure, kPa = 101
Property: Electrical conductivity, S/m (Liquid); method: Alternating current cell with electrodes
Temperature, K	Molality, mol/kg of ferric sulfate	Electrical conductivity, S/m	uncertainty
278.1	0.000104	0.3946	0.0016
278.1	0.000829	0.4036	0.0016
283.1	0.000104	0.4306	0.0017
283.1	0.000829	0.4402	0.0018
298.15	0.000104	0.5228	0.0021
298.15	0.000829	0.535	0.0021
308.15	0.000104	0.5695	0.0023
308.15	0.000829	0.5829	0.0023
318.15	0.000104	0.6051	0.0024
318.15	0.000829	0.6204	0.0025
343.15	0.000104	0.659	0.0026
343.15	0.000829	0.681	0.0027
363.15	0.000104	0.6888	0.0028
363.15	0.000829	0.718	0.0029

System: water + magnesium nitrate; phases: Liquid
Fixed: Pressure, kPa = 101
Property: Electrical conductivity, S/m (Liquid); method: Alternating current cell with electrodes
Temperature, K	Molality, mol/kg of magnesium nitrate	Electrical conductivity, S/m	uncertainty
278.1	9.8e-05	0.007334	2.9e-05
278.1	0.000976	0.01971	8e-05
278.1	0.00937	0.1291	0.0005
278.1	0.09844	1.079	0.0043
278.1	0.3271	3.129	0.0125
283.1	9.8e-05	0.008166	3.3e-05
283.1	0.000976	0.02238	9e-05
283.1	0.00937	0.1472	0.0006
283.1	0.09844	1.228	0.0049
283.1	0.3271	3.538	0.0142
298.15	9.8e-05	0.01072	4e-05
298.15	0.000976	0.03083	0.00012
298.15	0.00937	0.2073	0.0008
298.15	0.09844	1.724	0.0069
298.15	0.3271	4.926	0.0197
308.15	9.8e-05	0.01244	5e-05
308.15	0.000976	0.03667	0.00015
308.15	0.00937	0.2488	0.001
308.15	0.09844	2.078	0.0083
308.15	0.3271	5.922	0.0237
318.15	9.8e-05	0.01407	6e-05
318.15	0.000976	0.04272	0.00017
318.15	0.00937	0.2927	0.0012
318.15	0.09844	2.442	0.0098
318.15	0.3271	6.968	0.0279
343.15	9.8e-05	0.01831	7e-05
343.15	0.000976	0.0591	0.0002
343.15	0.00937	0.4146	0.0017
343.15	0.09844	3.471	0.0139
343.15	0.3271	9.861	0.0394
363.15	9.8e-05	0.02164	9e-05
363.15	0.000976	0.07277	0.00029
363.15	0.00937	0.5165	0.0021
363.15	0.09844	4.261	0.017
363.15	0.3271	11.62	0.0465

System: water + manganese nitrate; phases: Liquid
Fixed: Pressure, kPa = 101
Property: Electrical conductivity, S/m (Liquid); method: Alternating current cell with electrodes
Temperature, K	Molality, mol/kg of manganese nitrate	Electrical conductivity, S/m	uncertainty
278.1	0.000917	0.05151	0.00021
278.1	0.01047	0.1786	0.0007
278.1	0.086	1.04	0.0042
278.1	0.8521	7.064	0.0283
283.1	0.000917	0.05774	0.00023
283.1	0.01047	0.2033	0.0008
283.1	0.086	1.179	0.0047
283.1	0.8521	7.973	0.0319
298.15	0.000917	0.07688	0.00031
298.15	0.01047	0.282	0.0011
298.15	0.086	1.63	0.0065
298.15	0.8521	10.69	0.0428
308.15	0.000917	0.08959	0.00036
308.15	0.01047	0.3382	0.0014
308.15	0.086	1.958	0.0078
308.15	0.8521	12.54	0.0502
318.15	0.000917	0.1015	0.0004
318.15	0.01047	0.3934	0.0016
318.15	0.086	2.295	0.0092
318.15	0.8521	14.41	0.0576
343.15	0.000917	0.1307	0.0005
343.15	0.01047	0.538	0.0022
343.15	0.086	3.125	0.0125
343.15	0.8521	19.41	0.0776
363.15	0.000917	0.155	0.0006
363.15	0.01047	0.6651	0.0027
363.15	0.086	3.692	0.0148

System: water + ferric nitrate; phases: Liquid
Fixed: Pressure, kPa = 101
Property: Electrical conductivity, S/m (Liquid); method: Alternating current cell with electrodes
Temperature, K	Molality, mol/kg of ferric nitrate	Electrical conductivity, S/m	uncertainty
278.1	9.9e-05	4.031	0.0161
278.1	0.000984	4.037	0.0161
278.1	0.00985	4.14	0.0166
278.1	0.09618	5.143	0.0206
278.1	0.2534	6.656	0.0266
283.1	9.9e-05	4.478	0.0179
283.1	0.000984	4.486	0.0179
283.1	0.00985	4.597	0.0184
283.1	0.09618	5.777	0.0231
283.1	0.2534	7.523	0.0301
298.15	9.9e-05	5.73	0.0229
298.15	0.000984	5.739	0.023
298.15	0.00985	5.915	0.0237
298.15	0.09618	7.576	0.0303
298.15	0.2534	9.984	0.0399
308.15	9.9e-05	6.532	0.0261
308.15	0.000984	6.547	0.0262
308.15	0.00985	6.76	0.027
308.15	0.09618	8.788	0.0352
308.15	0.2534	11.83	0.0473
318.15	9.9e-05	7.245	0.029
318.15	0.000984	7.259	0.029
318.15	0.00985	7.532	0.0301
318.15	0.09618	10.15	0.0406
318.15	0.2534	14.02	0.0561
343.15	9.9e-05	9.086	0.0363
343.15	0.000984	9.106	0.0364
343.15	0.00985	9.553	0.0382
343.15	0.09618	13.85	0.0554
343.15	0.2534	20.32	0.0813
363.15	9.9e-05	10.27	0.0411
363.15	0.000984	10.33	0.0413
363.15	0.00985	10.91	0.0436
363.15	0.09618	16.52	0.0661
