Measured thermophysical data. Measurements of Density and Heat Capacity for Binary Mixtures {x Benzonitrile + (1 -x) (Octane or Nonane)}
Source: J. Chem. Eng. Data, 2010, 10.1021/je100145f
Compound 1: benzonitrile, C7H5N, InChI=1S/C7H5N/c8-6-7-4-2-1-3-5-7/h1-5H, purity 99%
Compound 2: octane, C8H18, InChI=1S/C8H18/c1-3-5-7-8-6-4-2/h3-8H2,1-2H3, purity 99.5%
Compound 3: nonane, C9H20, InChI=1S/C9H20/c1-3-5-7-9-8-6-4-2/h3-9H2,1-2H3, purity 99%

System: benzonitrile; phases: Liquid
Fixed: Pressure, kPa = 101
Property: Mass density, kg/m3 (Liquid); method: Vibrating tube method
Temperature, K	Mass density, kg/m3	uncertainty
283.15	1013.99	0.31
288.15	1009.55	0.31
293.15	1005.12	0.3
298.15	1000.69	0.3
303.15	996.26	0.3
308.15	991.83	0.3
313.15	987.4	0.3
318.15	982.96	0.3
285.15	1012.21	0.31

System: benzonitrile; phases: Liquid
Fixed: Pressure, kPa = 101
Property: Molar heat capacity at constant pressure, J/K/mol (Liquid); method: Small sample (50 mg) DSC
Temperature, K	Molar heat capacity at constant pressure, J/K/mol	uncertainty
283.15	163.43	3.27
288.15	164.61	3.29
293.15	165.82	3.32
298.15	167.06	3.34
303.15	168.32	3.37
308.15	169.59	3.39
313.15	170.87	3.42
318.15	172.15	3.44
285.15	163.9	3.28
288.15	164.63	3.29

System: octane; phases: Liquid
Fixed: Pressure, kPa = 101
Property: Mass density, kg/m3 (Liquid); method: Vibrating tube method
Temperature, K	Mass density, kg/m3	uncertainty
283.15	710.76	0.22
288.15	706.76	0.22
293.15	702.74	0.22
298.15	698.71	0.23
303.15	694.66	0.23
308.15	690.58	0.23
313.15	686.49	0.23
318.15	682.37	0.23

System: octane; phases: Liquid
Fixed: Pressure, kPa = 101
Property: Molar heat capacity at constant pressure, J/K/mol (Liquid); method: Small sample (50 mg) DSC
Temperature, K	Molar heat capacity at constant pressure, J/K/mol	uncertainty
283.15	248.2	4.96
288.15	250.1	5
293.15	252.06	5.04
298.15	254.08	5.08
303.15	256.16	5.12
308.15	258.28	5.17
313.15	260.45	5.21
318.15	262.66	5.25

System: nonane; phases: Liquid
Fixed: Pressure, kPa = 101
Property: Mass density, kg/m3 (Liquid); method: Vibrating tube method
Temperature, K	Mass density, kg/m3	uncertainty
285.15	724.54	0.31
288.15	722.22	0.32
293.15	718.35	0.32
298.15	714.46	0.32
303.15	710.55	0.32
308.15	706.63	0.32
313.15	702.7	0.32

System: nonane; phases: Liquid
Fixed: Pressure, kPa = 101
Property: Molar heat capacity at constant pressure, J/K/mol (Liquid); method: Small sample (50 mg) DSC
Temperature, K	Molar heat capacity at constant pressure, J/K/mol	uncertainty
285.15	278.38	5.57
288.15	279.6	5.59
293.15	281.72	5.63
298.15	283.86	5.68
303.15	286.11	5.72
308.15	288.4	5.77
313.15	290.76	5.82

System: benzonitrile + octane; phases: Liquid
Fixed: Pressure, kPa = 101
Property: Mass density, kg/m3 (Liquid); method: Vibrating tube method
Temperature, K	Mole fraction of benzonitrile	Mass density, kg/m3	uncertainty
283.15	0	710.76	0.22
283.15	0.022	714.94	0.22
283.15	0.0576	721.95	0.22
283.15	0.102	731.07	0.22
283.15	0.1999	752.43	0.23
283.15	0.2998	776.16	0.23
283.15	0.4001	802.02	0.25
283.15	0.4637	819.57	0.26
283.15	0.4997	829.9	0.27
283.15	0.5004	830.12	0.27
283.15	0.6001	860.7	0.27
283.15	0.7001	894.21	0.27
283.15	0.7998	930.65	0.27
283.15	0.9001	970.69	0.28
283.15	0.95	991.86	0.29
283.15	0.9801	1005.05	0.3
283.15	1	1013.99	0.31
288.15	0	706.76	0.22
288.15	0.022	710.93	0.22
288.15	0.0576	717.92	0.22
288.15	0.102	727.01	0.22
288.15	0.1999	748.32	0.23
288.15	0.2998	772.01	0.23
288.15	0.4001	797.83	0.25
288.15	0.4637	815.35	0.26
288.15	0.4997	825.68	0.27
288.15	0.5004	825.9	0.27
288.15	0.6001	856.42	0.27
288.15	0.7001	889.88	0.27
288.15	0.7998	926.27	0.27
288.15	0.9001	966.28	0.28
288.15	0.95	987.44	0.29
288.15	0.9801	1000.62	0.29
288.15	1	1009.55	0.31
293.15	0	702.74	0.22
293.15	0.022	706.9	0.22
293.15	0.0576	713.87	0.22
293.15	0.102	722.94	0.22
293.15	0.1999	744.2	0.23
293.15	0.2998	767.84	0.24
293.15	0.4001	793.63	0.25
293.15	0.4637	811.12	0.26
293.15	0.4997	821.44	0.27
293.15	0.5004	821.66	0.27
293.15	0.6001	852.14	0.27
293.15	0.7001	885.55	0.27
293.15	0.7998	921.9	0.27
293.15	0.9001	961.87	0.28
293.15	0.95	983.01	0.29
293.15	0.9801	996.19	0.29
293.15	1	1005.12	0.3
298.15	0	698.71	0.23
298.15	0.022	702.86	0.23
298.15	0.0576	709.81	0.23
298.15	0.102	718.85	0.23
298.15	0.1999	740.06	0.23
298.15	0.2998	763.66	0.24
298.15	0.4001	789.41	0.25
298.15	0.4637	806.89	0.26
298.15	0.4997	817.19	0.28
298.15	0.5004	817.41	0.28
298.15	0.6001	847.85	0.27
298.15	0.7001	881.22	0.27
298.15	0.7998	917.52	0.27
298.15	0.9001	957.46	0.28
298.15	0.95	978.59	0.29
298.15	0.9801	991.77	0.29
298.15	1	1000.69	0.3
303.15	0	694.66	0.23
303.15	0.022	698.79	0.23
303.15	0.0576	705.72	0.23
303.15	0.102	714.74	0.23
303.15	0.1999	735.9	0.23
303.15	0.2998	759.46	0.24
303.15	0.4001	785.18	0.25
303.15	0.4637	802.63	0.26
303.15	0.4997	812.93	0.28
303.15	0.5004	813.14	0.28
303.15	0.6001	843.55	0.27
303.15	0.7001	876.87	0.27
303.15	0.7998	913.13	0.27
303.15	0.9001	953.05	0.28
303.15	0.95	974.17	0.29
303.15	0.9801	987.34	0.29
303.15	1	996.26	0.3
308.15	0	690.58	0.23
308.15	0.022	694.71	0.23
308.15	0.0576	701.62	0.23
308.15	0.102	710.61	0.23
308.15	0.1999	731.73	0.23
308.15	0.2998	755.25	0.24
308.15	0.4001	780.93	0.25
308.15	0.4637	798.37	0.27
308.15	0.4997	808.65	0.28
308.15	0.5004	808.86	0.28
308.15	0.6001	839.23	0.27
308.15	0.7001	872.51	0.27
308.15	0.7998	908.74	0.27
308.15	0.9001	948.63	0.28
308.15	0.95	969.74	0.29
308.15	0.9801	982.91	0.29
308.15	1	991.83	0.3
313.15	0	686.49	0.23
313.15	0.022	690.6	0.23
313.15	0.0576	697.49	0.23
313.15	0.102	706.47	0.23
313.15	0.1999	727.54	0.23
313.15	0.2998	751.02	0.24
313.15	0.4001	776.67	0.25
313.15	0.4637	794.09	0.27
313.15	0.4997	804.35	0.28
313.15	0.5004	804.56	0.28
313.15	0.6001	834.9	0.27
313.15	0.7001	868.15	0.27
313.15	0.7998	904.34	0.27
313.15	0.9001	944.21	0.28
313.15	0.95	965.31	0.29
313.15	0.9801	978.48	0.29
313.15	1	987.4	0.3
318.15	0	682.37	0.23
318.15	0.022	686.47	0.23
318.15	0.0576	693.34	0.23
318.15	0.102	702.29	0.23
318.15	0.1999	723.33	0.23
318.15	0.2998	746.78	0.24
318.15	0.4001	772.39	0.25
318.15	0.4637	789.79	0.27
318.15	0.4997	800.04	0.28
318.15	0.5004	800.25	0.28
318.15	0.6001	830.56	0.27
318.15	0.7001	863.78	0.27
318.15	0.7998	899.94	0.27
318.15	0.9001	939.78	0.28
318.15	0.95	960.88	0.29
318.15	0.9801	974.05	0.29
318.15	1	982.96	0.3

System: benzonitrile + octane; phases: Liquid
Fixed: Pressure, kPa = 101
Property: Molar heat capacity at constant pressure, J/K/mol (Liquid); method: Small sample (50 mg) DSC
Temperature, K	Mole fraction of benzonitrile	Molar heat capacity at constant pressure, J/K/mol	uncertainty
283.15	0	248.2	4.96
283.15	0.0219	246.32	4.93
283.15	0.0576	243.69	4.87
283.15	0.1021	240.66	4.81
283.15	0.1999	234.51	4.69
283.15	0.2998	229.04	4.58
283.15	0.4002	224.38	4.49
283.15	0.4637	219.83	4.4
283.15	0.5001	215.93	4.32
283.15	0.6001	203.15	4.06
283.15	0.7003	192.17	3.84
283.15	0.7999	182.68	3.65
283.15	0.9	173.26	3.47
283.15	0.95	168.41	3.37
283.15	0.9801	165.44	3.31
283.15	1	163.43	3.27
288.15	0	250.1	5
288.15	0.0219	248.19	4.96
288.15	0.0576	245.52	4.91
288.15	0.1021	242.38	4.85
288.15	0.1999	235.9	4.72
288.15	0.2998	229.53	4.59
288.15	0.4002	222.59	4.45
288.15	0.4637	217.33	4.35
288.15	0.5001	213.9	4.28
288.15	0.6001	203.61	4.07
288.15	0.7003	193.38	3.87
288.15	0.7999	183.92	3.68
288.15	0.9	174.47	3.49
288.15	0.95	169.62	3.39
288.15	0.9801	166.62	3.33
288.15	1	164.61	3.29
293.15	0	252.06	5.04
293.15	0.0219	250.11	5
293.15	0.0576	247.38	4.95
293.15	0.1021	244.17	4.88
293.15	0.1999	237.41	4.75
293.15	0.2998	230.52	4.61
293.15	0.4002	223.06	4.46
293.15	0.4637	217.69	4.35
293.15	0.5001	214.32	4.29
293.15	0.6001	204.57	4.09
293.15	0.7003	194.65	3.89
293.15	0.7999	185.2	3.7
293.15	0.9	175.71	3.51
293.15	0.95	170.83	3.42
293.15	0.9801	167.83	3.36
293.15	1	165.82	3.32
298.15	0	254.08	5.08
298.15	0.0219	252.1	5.04
298.15	0.0576	249.32	4.99
298.15	0.1021	246	4.92
298.15	0.1999	239.04	4.78
298.15	0.2998	231.82	4.64
298.15	0.4002	224.03	4.48
298.15	0.4637	218.58	4.37
298.15	0.5001	215.28	4.31
298.15	0.6001	205.76	4.12
298.15	0.7003	195.97	3.92
298.15	0.7999	186.53	3.73
298.15	0.9	176.98	3.54
298.15	0.95	172.09	3.44
298.15	0.9801	169.07	3.38
298.15	1	167.06	3.34
303.15	0	256.16	5.12
303.15	0.0219	254.14	5.08
303.15	0.0576	251.3	5.03
303.15	0.1021	247.92	4.96
303.15	0.1999	240.74	4.81
303.15	0.2998	233.28	4.67
303.15	0.4002	225.26	4.51
303.15	0.4637	219.78	4.4
303.15	0.5001	216.5	4.33
303.15	0.6001	207.09	4.14
303.15	0.7003	197.33	3.95
303.15	0.7999	187.88	3.76
303.15	0.9	178.27	3.57
303.15	0.95	173.36	3.47
303.15	0.9801	170.34	3.41
303.15	1	168.32	3.37
308.15	0	258.28	5.17
308.15	0.0219	256.24	5.12
308.15	0.0576	253.34	5.07
308.15	0.1021	249.87	5
308.15	0.1999	242.5	4.85
308.15	0.2998	234.82	4.7
308.15	0.4002	226.66	4.53
308.15	0.4637	221.13	4.42
308.15	0.5001	217.77	4.36
308.15	0.6001	208.41	4.17
308.15	0.7003	198.73	3.97
308.15	0.7999	189.25	3.79
308.15	0.9	179.58	3.59
308.15	0.95	174.65	3.49
308.15	0.9801	171.61	3.43
308.15	1	169.59	3.39
313.15	0	260.45	5.21
313.15	0.0219	258.38	5.17
313.15	0.0576	255.43	5.11
313.15	0.1021	251.88	5.04
313.15	0.1999	244.34	4.89
313.15	0.2998	236.47	4.73
313.15	0.4002	228.12	4.56
313.15	0.4637	222.51	4.45
313.15	0.5001	219.26	4.39
313.15	0.6001	209.85	4.2
313.15	0.7003	200.16	4
313.15	0.7999	190.63	3.81
313.15	0.9	180.92	3.62
313.15	0.95	175.96	3.52
313.15	0.9801	172.89	3.46
313.15	1	170.87	3.42
318.15	0	262.66	5.25
318.15	0.0219	260.56	5.21
318.15	0.0576	257.56	5.15
318.15	0.1021	253.94	5.08
318.15	0.1999	246.23	4.92
318.15	0.2998	238.12	4.76
318.15	0.4002	229.73	4.59
318.15	0.5001	220.74	4.41
318.15	0.6001	211.38	4.23
318.15	0.7003	201.61	4.03
318.15	0.7999	192.02	3.84
318.15	0.9	182.23	3.64
318.15	0.95	177.25	3.55
318.15	0.9801	174.17	3.48
318.15	1	172.15	3.44

System: benzonitrile + nonane; phases: Liquid
Fixed: Pressure, kPa = 101
Property: Mass density, kg/m3 (Liquid); method: Vibrating tube method
Temperature, K	Mole fraction of benzonitrile	Mass density, kg/m3	uncertainty
285.15	0	724.54	0.31
285.15	0.0239	728.45	0.31
285.15	0.0499	732.81	0.31
285.15	0.0989	741.4	0.31
285.15	0.1985	760.34	0.31
285.15	0.2542	771.77	0.31
285.15	0.2998	781.58	0.32
285.15	0.4005	804.92	0.32
285.15	0.4966	829.64	0.33
285.15	0.5998	859.12	0.33
285.15	0.6996	891.01	0.32
285.15	0.7999	926.93	0.31
285.15	0.9001	967.24	0.3
285.15	0.9497	988.96	0.3
285.15	0.9805	1003.05	0.3
285.15	1	1012.21	0.31
288.15	0	722.22	0.32
288.15	0.0239	726.13	0.31
288.15	0.0499	730.47	0.31
288.15	0.0989	739.05	0.31
288.15	0.1985	757.95	0.31
288.15	0.2542	769.36	0.31
288.15	0.2998	779.16	0.32
288.15	0.4005	802.47	0.32
288.15	0.4966	827.16	0.33
288.15	0.5998	856.6	0.33
288.15	0.6996	888.45	0.32
288.15	0.7999	924.34	0.31
288.15	0.9001	964.61	0.3
288.15	0.9497	986.32	0.3
288.15	0.9805	1000.4	0.3
288.15	1	1009.55	0.31
293.15	0	718.35	0.32
293.15	0.0239	722.24	0.32
293.15	0.0499	726.57	0.31
293.15	0.0989	735.11	0.31
293.15	0.1985	753.95	0.31
293.15	0.2542	765.34	0.31
293.15	0.2998	775.11	0.32
293.15	0.4005	798.37	0.32
293.15	0.4966	823.01	0.33
293.15	0.5998	852.4	0.33
293.15	0.6996	884.18	0.32
293.15	0.7999	920	0.31
293.15	0.9001	960.22	0.3
293.15	0.9497	981.91	0.3
293.15	0.9805	995.97	0.3
293.15	1	1005.12	0.3
298.15	0	714.46	0.32
298.15	0.0239	718.34	0.32
298.15	0.0499	722.65	0.32
298.15	0.0989	731.16	0.31
298.15	0.1985	749.94	0.31
298.15	0.2542	761.3	0.31
298.15	0.2998	771.05	0.32
298.15	0.4005	794.26	0.32
298.15	0.4966	818.85	0.33
298.15	0.5998	848.19	0.33
298.15	0.6996	879.91	0.32
298.15	0.7999	915.67	0.31
298.15	0.9001	955.83	0.3
298.15	0.9497	977.49	0.3
298.15	0.9805	991.55	0.3
298.15	1	1000.69	0.3
303.15	0	710.55	0.32
303.15	0.0239	714.42	0.32
303.15	0.0499	718.72	0.32
303.15	0.0989	727.2	0.32
303.15	0.1985	745.93	0.31
303.15	0.2542	757.25	0.32
303.15	0.2998	766.97	0.32
303.15	0.4005	790.14	0.32
303.15	0.4966	814.68	0.33
303.15	0.5998	843.96	0.33
303.15	0.6996	875.63	0.32
303.15	0.7999	911.33	0.31
303.15	0.9001	951.44	0.3
303.15	0.9497	973.08	0.3
303.15	0.9805	987.13	0.3
303.15	1	996.26	0.3
308.15	0	706.63	0.32
308.15	0.0239	710.49	0.32
308.15	0.0499	714.77	0.32
308.15	0.0989	723.22	0.32
308.15	0.1985	741.89	0.32
308.15	0.2542	753.19	0.32
308.15	0.2998	762.89	0.32
308.15	0.4005	786	0.32
308.15	0.4966	810.5	0.33
308.15	0.5998	839.73	0.33
308.15	0.6996	871.34	0.32
308.15	0.7999	906.99	0.31
308.15	0.9001	947.05	0.3
308.15	0.9497	968.67	0.3
308.15	0.9805	982.7	0.3
308.15	1	991.83	0.3
313.15	0	702.7	0.32
313.15	0.0239	706.54	0.32
313.15	0.0499	710.81	0.32
313.15	0.0989	719.23	0.32
313.15	0.1985	737.84	0.32
313.15	0.2542	749.11	0.32
313.15	0.2998	758.79	0.32
313.15	0.4005	781.85	0.32
313.15	0.4966	806.31	0.33
313.15	0.5998	835.48	0.33
313.15	0.6996	867.05	0.32
313.15	0.7999	902.64	0.31
313.15	0.9001	942.65	0.3
313.15	0.9497	964.25	0.3
313.15	0.9805	978.27	0.3
313.15	1	987.4	0.3

System: benzonitrile + nonane; phases: Liquid
Fixed: Pressure, kPa = 101
Property: Molar heat capacity at constant pressure, J/K/mol (Liquid); method: Small sample (50 mg) DSC
Temperature, K	Mole fraction of benzonitrile	Molar heat capacity at constant pressure, J/K/mol	uncertainty
285.15	0	278.38	5.57
285.15	0.0239	275.6	5.51
285.15	0.0499	272.83	5.46
285.15	0.0989	267.94	5.36
285.15	0.1984	258.53	5.17
285.15	0.2543	253.53	5.07
285.15	0.3	249.7	4.99
285.15	0.4004	242.4	4.85
285.15	0.4968	234.22	4.68
285.15	0.6	217.32	4.35
285.15	0.6996	202.24	4.04
285.15	0.8	189.2	3.78
285.15	0.9	176.74	3.53
285.15	0.9498	170.45	3.41
285.15	0.9805	166.46	3.33
285.15	1	163.9	3.28
288.15	0	279.6	5.59
288.15	0.0239	276.8	5.54
288.15	0.0499	274.01	5.48
288.15	0.0989	269.06	5.38
288.15	0.1984	259.47	5.19
288.15	0.2543	254.27	5.09
288.15	0.3	250.12	5
288.15	0.4004	241.04	4.82
288.15	0.4968	230.79	4.62
288.15	0.6	216.76	4.34
288.15	0.6996	202.88	4.06
288.15	0.8	189.97	3.8
288.15	0.9	177.48	3.55
288.15	0.9498	171.18	3.42
288.15	0.9805	167.19	3.34
288.15	1	164.63	3.29
293.15	0	281.72	5.63
293.15	0.0239	278.87	5.58
293.15	0.0499	276.02	5.52
293.15	0.0989	270.98	5.42
293.15	0.1984	261.13	5.22
293.15	0.2543	255.7	5.11
293.15	0.3	251.28	5.03
293.15	0.4004	241.24	4.82
293.15	0.4968	230.43	4.61
293.15	0.6	217.29	4.35
293.15	0.6996	204.1	4.08
293.15	0.8	191.28	3.83
293.15	0.9	178.75	3.58
293.15	0.9498	172.4	3.45
293.15	0.9805	168.41	3.37
293.15	1	165.82	3.32
298.15	0	283.86	5.68
298.15	0.0239	280.98	5.62
298.15	0.0499	278.11	5.56
298.15	0.0989	272.97	5.46
298.15	0.1984	262.87	5.26
298.15	0.2543	257.26	5.15
298.15	0.3	252.66	5.05
298.15	0.4004	242.16	4.84
298.15	0.4968	231.16	4.62
298.15	0.6	218.27	4.37
298.15	0.6996	205.37	4.11
298.15	0.8	192.63	3.85
298.15	0.9	180.02	3.6
298.15	0.9498	173.65	3.47
298.15	0.9805	169.64	3.39
298.15	1	167.06	3.34
303.15	0	286.11	5.72
303.15	0.0239	283.18	5.66
303.15	0.0499	280.26	5.61
303.15	0.0989	275.01	5.5
303.15	0.1984	264.72	5.29
303.15	0.2543	258.97	5.18
303.15	0.3	254.22	5.08
303.15	0.4004	243.44	4.87
303.15	0.4968	232.33	4.65
303.15	0.6	219.53	4.39
303.15	0.6996	206.74	4.13
303.15	0.8	194	3.88
303.15	0.9	181.35	3.63
303.15	0.9498	174.93	3.5
303.15	0.9805	170.89	3.42
303.15	1	168.32	3.37
308.15	0	288.4	5.77
308.15	0.0239	285.48	5.71
308.15	0.0499	282.5	5.65
308.15	0.0989	277.16	5.54
308.15	0.1984	266.66	5.33
308.15	0.2543	260.77	5.22
308.15	0.3	255.89	5.12
308.15	0.4004	244.94	4.9
308.15	0.4968	233.66	4.67
308.15	0.6	220.89	4.42
308.15	0.6996	208.21	4.16
308.15	0.8	195.39	3.91
308.15	0.9	182.67	3.65
308.15	0.9498	176.22	3.52
308.15	0.9805	172.18	3.44
308.15	1	169.59	3.39
313.15	0	290.76	5.82
313.15	0.0239	287.76	5.76
313.15	0.0499	284.75	5.7
313.15	0.0989	279.34	5.59
313.15	0.1984	268.65	5.37
313.15	0.2543	262.65	5.25
313.15	0.3	257.63	5.15
313.15	0.4004	246.59	4.93
313.15	0.4968	235.16	4.7
313.15	0.6	222.37	4.45
313.15	0.6996	209.67	4.19
313.15	0.8	196.84	3.94
313.15	0.9	184.01	3.68
313.15	0.9498	177.48	3.55
313.15	0.9805	173.44	3.47
313.15	1	170.87	3.42
