Measured thermophysical data. Vapor Pressure of Tetrakis(dimethylamino)germanium
Source: J. Chem. Eng. Data, 2010, 10.1021/je100295f
Compound 1: tetrakis(dimethylamino)germanium, C8H24GeN4, InChI=1S/C8H24GeN4/c1-10(2)9(11(3)4,12(5)6)13(7)8/h1-8H3

System: tetrakis(dimethylamino)germanium; phases: Liquid, Gas
Property: Vapor or sublimation pressure, kPa (Liquid); method: Closed cell (Static) method
Temperature, K	Vapor or sublimation pressure, kPa	uncertainty
278.15	0.01192	0.00048
278.15	0.01198	0.00048
283.15	0.01693	0.00058
283.15	0.01696	0.00058
288.15	0.02405	0.0007
288.15	0.02398	0.00069
293.15	0.03399	0.00086
293.15	0.03388	0.00086
298.15	0.04828	0.00111
298.15	0.04825	0.00111
302.95	0.06787	0.00147
302.95	0.0679	0.00147
308.17	0.09612	0.00197
308.17	0.0961	0.00197
