Measured thermophysical data. Solubilities of Carbon Dioxide in a Dipentaerythritol Ester and in a Polyether
Source: J. Chem. Eng. Data, 2010, 10.1021/je1006339
Compound 1: carbon dioxide, CO2, InChI=1S/CO2/c2-1-3, purity 99.998%
Compound 2: dipentaerythritol hexaheptanoate, C52H94O13, InChI=1S/C52H94O13/c1-7-13-19-25-31-45(53)60-39-51(40-61-46(54)32-26-20-14-8-2,41-62-47(55)33-27-21-15-9-3)37-59-38-52(42-63-48(56)34-28-22-16-10-4,43-64-49(57)35-29-23-17-11-5)44-65-50(58)36-30-24-18-12-6/h7-44H2,1-6H3, purity 95%

System: carbon dioxide + dipentaerythritol hexaheptanoate; phases: Liquid, Gas
Property: Mole fraction of carbon dioxide (Liquid); method: Pressure change in the gas system
Temperature, K	Pressure, kPa	Mole fraction of carbon dioxide	uncertainty
283.15	740	0.405	0.033
283.15	1294	0.576	0.046
283.16	3441	0.843	0.067
283.17	2605	0.777	0.062
298.15	788	0.364	0.029
298.15	2836	0.723	0.058
298.15	3803	0.781	0.062
298.15	5265	0.86	0.069
298.16	1387	0.519	0.042
323.02	6294	0.81	0.065
323.15	1535	0.441	0.035
323.15	3203	0.636	0.051
323.16	867	0.299	0.024
323.16	4363	0.695	0.056
348.15	944	0.248	0.02
348.15	1678	0.379	0.03
348.15	3552	0.57	0.046
348.15	4895	0.632	0.051
