Measured thermophysical data. Measurement and Correlation of the Solubility of Prednisone Acetate in Different Solvents
Source: J. Chem. Eng. Data, 2011, 10.1021/je101201w
Compound 1: 21-acetoxy-17.alpha.-hydroxypregna-1,4-diene-3,11,20-trione, C23H28O6, InChI=1S/C23H28O6/c1-13(24)29-12-19(27)23(28)9-7-17-16-5-4-14-10-15(25)6-8-21(14,2)20(16)18(26)11-22(17,23)3/h6,8,10,16-17,20,28H,4-5,7,9,11-12H2,1-3H3/t16-,17-,20+,21-,22-,23-/m0/s1
Compound 2: ethanol, C2H6O, InChI=1S/C2H6O/c1-2-3/h3H,2H2,1H3
Compound 3: ethyl acetate, C4H8O2, InChI=1S/C4H8O2/c1-3-6-4(2)5/h3H2,1-2H3
Compound 4: 1,2-dichloroethane, C2H4Cl2, InChI=1S/C2H4Cl2/c3-1-2-4/h1-2H2
Compound 5: methanol, CH4O, InChI=1S/CH4O/c1-2/h2H,1H3
Compound 6: trichloromethane, CHCl3, InChI=1S/CHCl3/c2-1(3)4/h1H

System: ethanol + 21-acetoxy-17.alpha.-hydroxypregna-1,4-diene-3,11,20-trione; phases: Liquid, Crystal
Fixed: Pressure, kPa = 101
Property: Mole fraction of 21-acetoxy-17.alpha.-hydroxypregna-1,4-diene-3,11,20-trione (Liquid); method: laser monitoring
Temperature, K	Mole fraction of 21-acetoxy-17.alpha.-hydroxypregna-1,4-diene-3,11,20-trione	uncertainty
296.45	0.000762	3.4e-05
298.55	0.000789	3.5e-05
301.85	0.000928	4.1e-05
305.05	0.00106	5e-05
310.65	0.00132	6e-05
315.95	0.00159	7e-05
319.65	0.00174	8e-05
324.55	0.00203	9e-05
330.25	0.00242	0.00011
337.45	0.0031	0.00014

System: 21-acetoxy-17.alpha.-hydroxypregna-1,4-diene-3,11,20-trione + ethyl acetate; phases: Liquid, Crystal
Fixed: Pressure, kPa = 101
Property: Mole fraction of 21-acetoxy-17.alpha.-hydroxypregna-1,4-diene-3,11,20-trione (Liquid); method: laser monitoring
Temperature, K	Mole fraction of 21-acetoxy-17.alpha.-hydroxypregna-1,4-diene-3,11,20-trione	uncertainty
295.65	0.00135	6e-05
305.05	0.0018	7e-05
309.65	0.00209	9e-05
313.15	0.00229	9e-05
317.45	0.00254	0.0001
321.75	0.00281	0.00012
327.25	0.00325	0.00013
331.85	0.00366	0.00015
337.45	0.00424	0.00017

System: 1,2-dichloroethane + 21-acetoxy-17.alpha.-hydroxypregna-1,4-diene-3,11,20-trione; phases: Liquid, Crystal
Fixed: Pressure, kPa = 101
Property: Mole fraction of 21-acetoxy-17.alpha.-hydroxypregna-1,4-diene-3,11,20-trione (Liquid); method: laser monitoring
Temperature, K	Mole fraction of 21-acetoxy-17.alpha.-hydroxypregna-1,4-diene-3,11,20-trione	uncertainty
293.35	0.00195	8e-05
298.15	0.00262	0.00011
306.05	0.00342	0.00014
311.25	0.00412	0.00017
315.45	0.00476	0.00019
318.65	0.00522	0.00021
321.95	0.00576	0.00024
325.75	0.00645	0.00026
329.85	0.00745	0.0003
334.65	0.00857	0.00035

System: methanol + 21-acetoxy-17.alpha.-hydroxypregna-1,4-diene-3,11,20-trione; phases: Liquid, Crystal
Fixed: Pressure, kPa = 101
Property: Mole fraction of 21-acetoxy-17.alpha.-hydroxypregna-1,4-diene-3,11,20-trione (Liquid); method: laser monitoring
Temperature, K	Mole fraction of 21-acetoxy-17.alpha.-hydroxypregna-1,4-diene-3,11,20-trione	uncertainty
285.45	0.00054	3e-05
292.95	0.00081	4e-05
298.25	0.00102	5e-05
302.55	0.00124	6e-05
306.85	0.00145	7e-05
310.75	0.0017	8e-05
314.95	0.00197	9e-05
319.05	0.00231	0.00011
325.15	0.00286	0.00014

System: trichloromethane + 21-acetoxy-17.alpha.-hydroxypregna-1,4-diene-3,11,20-trione; phases: Liquid, Crystal
Fixed: Pressure, kPa = 101
Property: Mole fraction of 21-acetoxy-17.alpha.-hydroxypregna-1,4-diene-3,11,20-trione (Liquid); method: laser monitoring
Temperature, K	Mole fraction of 21-acetoxy-17.alpha.-hydroxypregna-1,4-diene-3,11,20-trione	uncertainty
287.05	0.01075	0.00044
289.25	0.01309	0.00053
293.65	0.01653	0.00067
299.45	0.021	0.00085
313.15	0.02628	0.00107
320.75	0.02837	0.00115
323.95	0.02936	0.00119
327.65	0.0304	0.00124
