Measured thermophysical data. An Absolute Viscometer for Liquids: Measurement of the Viscosity of Water at T = 298.15 K and p = 0.1 MPa
Source: J. Chem. Eng. Data, 2011, 10.1021/je100990n
Compound 1: water, H2O, InChI=1S/H2O/h1H2

System: water; phases: Liquid
Fixed: Temperature, K = 293.15
Fixed: Pressure, kPa = 101.325
Property: Viscosity, Pa*s (Liquid); method: Vibrating wire viscometry
Viscosity, Pa*s	uncertainty
0.0010016	8.7e-06
0.0010049	8.7e-06
0.0009992	8.7e-06
