Measured thermophysical data. Density, Viscosity, and Thermal Conductivity of Electronic Grade Phosphoric Acid
Source: J. Chem. Eng. Data, 2011, 10.1021/je100938j
Compound 1: phosphoric acid, H3O4P, InChI=1S/H3O4P/c1-5(2,3)4/h(H3,1,2,3,4), purity 99.9%
Compound 2: water, H2O, InChI=1S/H2O/h1H2, purity 99.9%

System: phosphoric acid + water; phases: Liquid
Fixed: Pressure, kPa = 101
Property: Viscosity, Pa*s (Liquid); method: CAPTUB:UFactor:16
Temperature, K	Mass fraction of phosphoric acid	Viscosity, Pa*s	uncertainty
283.15	0.787	0.03859	0.00252
283.15	0.811	0.05123	0.00041
283.15	0.847	0.0676	0.00566
283.15	0.863	0.08435	0.01216
283.15	0.88	0.10482	0.02129
283.15	0.892	0.11613	0.0268
283.15	0.897	0.12536	0.03151
283.15	0.901	0.13456	0.03639
288.15	0.787	0.0324	0.00214
288.15	0.811	0.04053	0.00264
288.15	0.847	0.05385	0.00114
288.15	0.863	0.06391	0.00437
288.15	0.88	0.07965	0.01024
288.15	0.892	0.09174	0.01532
288.15	0.897	0.09658	0.01747
288.15	0.901	0.10026	0.01916
293.15	0.787	0.0277	0.00184
293.15	0.811	0.03201	0.00211
293.15	0.847	0.04683	0.00303
293.15	0.863	0.05426	0.00126
293.15	0.88	0.06447	0.00456
293.15	0.892	0.06915	0.00622
293.15	0.897	0.07528	0.00852
293.15	0.901	0.0792	0.01006
298.15	0.787	0.02433	0.00163
298.15	0.811	0.02761	0.00184
298.15	0.847	0.03759	0.00246
298.15	0.863	0.04317	0.00281
298.15	0.88	0.05035	0.0003
298.15	0.892	0.05412	0.00123
298.15	0.897	0.0603	0.00316
298.15	0.901	0.06475	0.00465
303.15	0.787	0.0203	0.00138
303.15	0.811	0.02366	0.00159
303.15	0.847	0.03035	0.00201
303.15	0.863	0.03461	0.00227
303.15	0.88	0.03868	0.00253
303.15	0.892	0.04303	0.0028
303.15	0.897	0.04681	0.00304
303.15	0.901	0.05257	0.00079
308.15	0.787	0.01753	0.00121
308.15	0.811	0.01985	0.00136
308.15	0.847	0.02419	0.00163
308.15	0.863	0.02764	0.00184
308.15	0.88	0.03189	0.0021
308.15	0.892	0.0339	0.00223
308.15	0.897	0.03764	0.00246
308.15	0.901	0.04108	0.00268
313.15	0.787	0.01463	0.00103
313.15	0.811	0.0177	0.00122
313.15	0.847	0.02148	0.00146
313.15	0.863	0.02264	0.00153
313.15	0.88	0.0253	0.0017
313.15	0.892	0.02725	0.00182
313.15	0.897	0.02946	0.00196
313.15	0.901	0.0321	0.00212

System: phosphoric acid + water; phases: Liquid
Fixed: Pressure, kPa = 101
Property: Mass density, kg/m3 (Liquid); method: Pycnometric method
Temperature, K	Mass fraction of phosphoric acid	Mass density, kg/m3	uncertainty
283.15	0.787	1622	4
283.15	0.811	1652	4
283.15	0.847	1693	4
283.15	0.863	1712	4
283.15	0.88	1733	4
283.15	0.892	1748	4
283.15	0.897	1753	4
283.15	0.901	1758	4
288.15	0.787	1619	4
288.15	0.811	1649	4
288.15	0.847	1689	4
288.15	0.863	1709	4
288.15	0.88	1730	4
288.15	0.892	1744	4
288.15	0.897	1749	4
288.15	0.901	1754	4
293.15	0.787	1617	4
293.15	0.811	1645	4
293.15	0.847	1685	4
293.15	0.863	1705	4
293.15	0.88	1726	4
293.15	0.892	1739	4
293.15	0.897	1745	4
293.15	0.901	1751	4
298.15	0.787	1615	4
298.15	0.811	1643	4
298.15	0.847	1683	4
298.15	0.863	1703	4
298.15	0.88	1722	4
298.15	0.892	1736	4
298.15	0.897	1742	4
298.15	0.901	1747	4
303.15	0.787	1611	4
303.15	0.811	1637	4
303.15	0.847	1681	4
303.15	0.863	1698	4
303.15	0.88	1718	4
303.15	0.892	1733	4
303.15	0.897	1738	4
303.15	0.901	1743	4
308.15	0.787	1608	4
308.15	0.811	1632	4
308.15	0.847	1676	4
308.15	0.863	1695	4
308.15	0.88	1714	4
308.15	0.892	1728	4
308.15	0.897	1733	4
308.15	0.901	1739	4
313.15	0.787	1606	4
313.15	0.811	1629	4
313.15	0.847	1670	4
313.15	0.863	1693	4
313.15	0.88	1710	4
313.15	0.892	1724	4
313.15	0.897	1729	4
313.15	0.901	1734	4
