Measured thermophysical data. Densities and Viscosities of Binary Mixtures of exo-Tetrahydrodicyclopentadiene with N-Undecane or N-Tetradecane at T = (293.15 to 313.15) K
Source: J. Chem. Eng. Data, 2010, 10.1021/je100313a
Compound 1: exo-tetrahydrodicyclopentadiene, C10H16, InChI=1S/C10H16/c1-2-9-7-4-5-8(6-7)10(9)3-1/h7-10H,1-6H2/t7-,8+,9+,10-
Compound 2: undecane, C11H24, InChI=1S/C11H24/c1-3-5-7-9-11-10-8-6-4-2/h3-11H2,1-2H3
Compound 3: tetradecane, C14H30, InChI=1S/C14H30/c1-3-5-7-9-11-13-14-12-10-8-6-4-2/h3-14H2,1-2H3

System: exo-tetrahydrodicyclopentadiene; phases: Liquid
Fixed: Pressure, kPa = 101
Property: Viscosity, Pa*s (Liquid); method: CAPTUB:UFactor:2
Temperature, K	Viscosity, Pa*s	uncertainty
293.15	0.003076	4.6e-05
293.15	0.003077	4.6e-05
298.15	0.002784	4.2e-05
303.15	0.002525	3.9e-05
313.15	0.002112	3.4e-05

System: exo-tetrahydrodicyclopentadiene; phases: Liquid
Fixed: Pressure, kPa = 101
Property: Mass density, kg/m3 (Liquid); method: VIBTUB:UFactor:6
Temperature, K	Mass density, kg/m3	uncertainty
293.15	935.3	1
298.15	931.4	1
303.15	927.5	1
313.15	919.6	1

System: undecane; phases: Liquid
Fixed: Pressure, kPa = 101
Property: Viscosity, Pa*s (Liquid); method: CAPTUB::UFactor:2
Temperature, K	Viscosity, Pa*s	uncertainty
293.15	0.001199	2.2e-05
298.15	0.001099	2.1e-05
303.15	0.001022	2e-05
313.15	0.000878	1.9e-05

System: undecane; phases: Liquid
Fixed: Pressure, kPa = 101
Property: Mass density, kg/m3 (Liquid); method: VIBTUB::UFactor:6
Temperature, K	Mass density, kg/m3	uncertainty
293.15	740.4	0.9
298.15	736.7	0.9
303.15	733	0.9
313.15	725.6	0.9

System: tetradecane; phases: Liquid
Fixed: Pressure, kPa = 101
Property: Viscosity, Pa*s (Liquid); method: CAPTUB::UFactor:2
Temperature, K	Viscosity, Pa*s	uncertainty
293.15	0.002346	3.1e-05
298.15	0.002107	2.9e-05
303.15	0.001897	2.7e-05
313.15	0.001594	2.5e-05

System: tetradecane; phases: Liquid
Fixed: Pressure, kPa = 101
Property: Mass density, kg/m3 (Liquid); method: VIBTUB::UFactor:6
Temperature, K	Mass density, kg/m3	uncertainty
293.15	762.9	0.9
298.15	759.2	0.9
303.15	755.7	0.9
313.15	748.6	0.9

System: undecane + exo-tetrahydrodicyclopentadiene; phases: Liquid
Fixed: Pressure, kPa = 101
Property: Viscosity, Pa*s (Liquid); method: CAPTUB:UFactor:2
Temperature, K	Mole fraction of undecane	Viscosity, Pa*s	uncertainty
293.15	0	0.003076	4.6e-05
293.15	0.0881	0.002697	4.1e-05
293.15	0.1777	0.00239	3.6e-05
293.15	0.2711	0.002135	3.3e-05
293.15	0.3669	0.001921	3e-05
293.15	0.4654	0.001747	2.8e-05
293.15	0.5658	0.001608	2.6e-05
293.15	0.6685	0.001483	2.5e-05
293.15	0.778	0.001373	2.3e-05
293.15	0.8855	0.001284	2.2e-05
293.15	1	0.001199	2.2e-05
298.15	0	0.002784	4.2e-05
298.15	0.0881	0.002439	3.8e-05
298.15	0.1777	0.002162	3.4e-05
298.15	0.2711	0.001937	3.1e-05
298.15	0.3669	0.001751	2.8e-05
298.15	0.4654	0.001594	2.6e-05
298.15	0.5658	0.00147	2.5e-05
298.15	0.6685	0.001358	2.4e-05
298.15	0.778	0.001259	2.2e-05
298.15	0.8855	0.001177	2.2e-05
298.15	1	0.001099	2.1e-05
303.15	0	0.002525	3.9e-05
303.15	0.0881	0.002228	3.5e-05
303.15	0.1777	0.001982	3.2e-05
303.15	0.2711	0.00178	2.9e-05
303.15	0.3669	0.001615	2.7e-05
303.15	0.4654	0.00147	2.5e-05
303.15	0.5658	0.001359	2.4e-05
303.15	0.6685	0.001256	2.3e-05
303.15	0.778	0.001167	2.2e-05
303.15	0.8855	0.001093	2.1e-05
303.15	1	0.001022	2e-05
313.15	0	0.002112	3.4e-05
313.15	0.0881	0.001856	3.1e-05
313.15	0.1777	0.001662	2.8e-05
313.15	0.2711	0.001499	2.6e-05
313.15	0.3669	0.001362	2.4e-05
313.15	0.4654	0.001246	2.3e-05
313.15	0.5658	0.001158	2.2e-05
313.15	0.6685	0.001074	2.1e-05
313.15	0.778	0.001	2e-05
313.15	0.8855	0.000941	2e-05
313.15	1	0.000878	1.9e-05

System: undecane + exo-tetrahydrodicyclopentadiene; phases: Liquid
Fixed: Pressure, kPa = 101
Property: Mass density, kg/m3 (Liquid); method: VIBTUB:UFactor:6
Temperature, K	Mole fraction of undecane	Mass density, kg/m3	uncertainty
293.15	0	935.3	1
293.15	0.0881	911.7	1
293.15	0.1777	889.3	0.9
293.15	0.2711	867.6	0.9
293.15	0.3669	846.8	0.9
293.15	0.4654	827	0.9
293.15	0.5658	808.2	0.9
293.15	0.6685	790.3	0.9
293.15	0.778	772.6	0.9
293.15	0.8855	756.5	0.9
293.15	1	740.4	0.9
298.15	0	931.4	1
298.15	0.0881	907.8	1
298.15	0.1777	885.4	1
298.15	0.2711	863.7	0.9
298.15	0.3669	843	0.9
298.15	0.4654	823.1	0.9
298.15	0.5658	804.4	0.9
298.15	0.6685	786.6	0.9
298.15	0.778	768.9	0.9
298.15	0.8855	752.7	0.9
298.15	1	736.7	0.9
303.15	0	927.5	1
303.15	0.0881	903.9	1
303.15	0.1777	881.6	1
303.15	0.2711	859.9	0.9
303.15	0.3669	839.2	0.9
303.15	0.4654	819.3	0.9
303.15	0.5658	800.6	0.9
303.15	0.6685	782.8	0.9
303.15	0.778	765.2	0.9
303.15	0.8855	749	0.9
303.15	1	733	0.9
313.15	0	919.6	1
313.15	0.0881	896.1	1
313.15	0.1777	873.8	1
313.15	0.2711	852.1	0.9
313.15	0.3669	831.5	0.9
313.15	0.4654	811.7	0.9
313.15	0.5658	793	0.9
313.15	0.6685	775.2	0.9
313.15	0.778	757.7	0.9
313.15	0.8855	741.6	0.9
313.15	1	725.6	0.9

System: tetradecane + exo-tetrahydrodicyclopentadiene; phases: Liquid
Fixed: Pressure, kPa = 101
Property: Viscosity, Pa*s (Liquid); method: CAPTUB:UFactor:2
Temperature, K	Mole fraction of tetradecane	Viscosity, Pa*s	uncertainty
293.15	0	0.003077	4.6e-05
293.15	0.0703	0.002961	4.4e-05
293.15	0.1451	0.002857	4.2e-05
293.15	0.2274	0.002766	4e-05
293.15	0.2692	0.002724	4e-05
293.15	0.4088	0.002609	3.7e-05
293.15	0.5067	0.002544	3.6e-05
293.15	0.616	0.002487	3.5e-05
293.15	0.7324	0.002438	3.4e-05
293.15	0.8606	0.00239	3.2e-05
293.15	1	0.002346	3.1e-05
298.15	0	0.002784	4.2e-05
298.15	0.0703	0.002679	4.1e-05
298.15	0.1451	0.002582	3.9e-05
298.15	0.2274	0.002496	3.7e-05
298.15	0.2692	0.002456	3.6e-05
298.15	0.4088	0.00235	3.4e-05
298.15	0.5067	0.002291	3.3e-05
298.15	0.616	0.002243	3.2e-05
298.15	0.7324	0.002197	3.1e-05
298.15	0.8606	0.002151	3e-05
298.15	1	0.002107	2.9e-05
303.15	0	0.002525	3.9e-05
303.15	0.0703	0.002429	3.8e-05
303.15	0.1451	0.002343	3.6e-05
303.15	0.2274	0.002259	3.4e-05
303.15	0.2692	0.002223	3.4e-05
303.15	0.4088	0.002125	3.2e-05
303.15	0.5067	0.002072	3.1e-05
303.15	0.616	0.002028	3e-05
303.15	0.7324	0.001983	2.9e-05
303.15	0.8606	0.00194	2.8e-05
303.15	1	0.001897	2.7e-05
313.15	0	0.002112	3.4e-05
313.15	0.0703	0.002034	3.3e-05
313.15	0.1451	0.001958	3.2e-05
313.15	0.2274	0.001888	3e-05
313.15	0.2692	0.001857	3e-05
313.15	0.4088	0.001777	2.8e-05
313.15	0.5067	0.001734	2.8e-05
313.15	0.616	0.001698	2.7e-05
313.15	0.7324	0.001663	2.6e-05
313.15	0.8606	0.001629	2.5e-05
313.15	1	0.001594	2.5e-05

System: tetradecane + exo-tetrahydrodicyclopentadiene; phases: Liquid
Fixed: Pressure, kPa = 101
Property: Mass density, kg/m3 (Liquid); method: VIBTUB:UFactor:6
Temperature, K	Mole fraction of tetradecane	Mass density, kg/m3	uncertainty
293.15	0	935.3	1
293.15	0.0703	914.6	1
293.15	0.1451	894.8	1
293.15	0.2274	875.5	0.9
293.15	0.2692	866.5	0.9
293.15	0.4088	839.5	0.9
293.15	0.5067	823.2	0.9
293.15	0.616	807	0.9
293.15	0.7324	791.7	0.9
293.15	0.8606	776.9	0.9
293.15	1	762.9	0.9
298.15	0	931.4	1
298.15	0.0703	910.8	1
298.15	0.1451	891	1
298.15	0.2274	871.7	0.9
298.15	0.2692	862.7	0.9
298.15	0.4088	835.8	0.9
298.15	0.5067	819.5	0.9
298.15	0.616	803.4	0.9
298.15	0.7324	788.2	0.9
298.15	0.8606	773.4	0.9
298.15	1	759.2	0.9
303.15	0	927.5	1
303.15	0.0703	906.9	1
303.15	0.1451	887.1	1
303.15	0.2274	868	0.9
303.15	0.2692	859	0.9
303.15	0.4088	832.1	0.9
303.15	0.5067	815.9	0.9
303.15	0.616	799.8	0.9
303.15	0.7324	784.6	0.9
303.15	0.8606	769.8	0.9
303.15	1	755.7	0.9
313.15	0	919.6	1
313.15	0.0703	899.2	1
313.15	0.1451	879.5	1
313.15	0.2274	860.4	1
313.15	0.2692	851.4	1
313.15	0.4088	824.7	0.9
313.15	0.5067	808.5	0.9
313.15	0.616	792.5	0.9
313.15	0.7324	777.4	0.9
313.15	0.8606	762.7	0.9
313.15	1	748.6	0.9
