Measured thermophysical data. Liquid-Liquid Equilibria for the Ternary System Water + Hexadecane + Propylene Glycol n-Propyl Ether
Source: J. Chem. Eng. Data, 2011, 10.1021/je101281x
Compound 1: hexadecane, C16H34, InChI=1S/C16H34/c1-3-5-7-9-11-13-15-16-14-12-10-8-6-4-2/h3-16H2,1-2H3
Compound 2: water, H2O, InChI=1S/H2O/h1H2
Compound 3: 1-propoxy-2-propanol, C6H14O2, InChI=1S/C6H14O2/c1-3-4-8-5-6(2)7/h6-7H,3-5H2,1-2H3

System: hexadecane + 1-propoxy-2-propanol + water; phases: Liquid mixture 3, Liquid mixture 2, Liquid mixture 1
Fixed: Pressure, kPa = 101
Property: Mass fraction of 1-propoxy-2-propanol (Liquid mixture 3); method: Chromatography
Property: Mass fraction of 1-propoxy-2-propanol (Liquid mixture 2); method: Chromatography
Property: Mass fraction of 1-propoxy-2-propanol (Liquid mixture 1); method: Chromatography
Property: Mass fraction of water (Liquid mixture 3); method: Chromatography
Property: Mass fraction of water (Liquid mixture 2); method: Chromatography
Property: Mass fraction of water (Liquid mixture 1); method: Chromatography
Temperature, K	Mass fraction of 1-propoxy-2-propanol	uncertainty	Mass fraction of 1-propoxy-2-propanol	uncertainty	Mass fraction of 1-propoxy-2-propanol	uncertainty	Mass fraction of water	uncertainty	Mass fraction of water	uncertainty	Mass fraction of water	uncertainty
308.15	0.1982	0.0023	0.7034	0.0028	0.1681	0.0022	0.8004	0.0023	0.2632	0.0026	0.0037	0.0018
318.15	0.152	0.0021	0.7383	0.0026	0.2321	0.0024	0.8472	0.0021	0.1936	0.0023	0.0072	0.0018
328.15	0.123	0.002	0.7401	0.0026	0.3157	0.0029	0.8753	0.002	0.1526	0.0021	0.0146	0.0018
333.15	0.1207	0.002	0.7095	0.0027	0.4005	0.0034	0.8774	0.002	0.1209	0.002	0.024	0.0018

System: hexadecane + 1-propoxy-2-propanol + water; phases: Liquid mixture 3, Liquid mixture 1
Fixed: Pressure, kPa = 101
Property: Mass fraction of 1-propoxy-2-propanol (Liquid mixture 3); method: Chromatography
Property: Mass fraction of water (Liquid mixture 1); method: Chromatography
Property: Mass fraction of 1-propoxy-2-propanol (Liquid mixture 1); method: Chromatography
Temperature, K	Mass fraction of water	Mass fraction of 1-propoxy-2-propanol	uncertainty	Mass fraction of water	uncertainty	Mass fraction of 1-propoxy-2-propanol	uncertainty
298.15	0.9261	0.0739	0.0026	0.0001	0.0001	0.0246	
298.15	0.8625	0.1375	0.0027	0.0004	0.0004	0.0599	
298.15	0.7978	0.199	0.0029	0.0013	0.0013	0.1005	
298.15	0.7302	0.2664	0.0032	0.0019	0.0018	0.1218	
298.15	0.5813	0.4135	0.0039	0.0021	0.0018	0.1259	
298.15	0.4926	0.4982	0.0043	0.0021	0.0018	0.126	
298.15	0.4098	0.5776	0.0039	0.0021	0.0018	0.1263	
298.15	0.3231	0.6558	0.0035	0.0021	0.0018	0.1282	
298.15	0.2426	0.7244	0.0031	0.0023	0.0018	0.1359	
298.15	0.1739	0.7673	0.0029	0.0031	0.0018	0.156	
298.15	0.0884	0.7551	0.0029	0.0086	0.0018	0.2556	
308.15	0.8217	0.1752	0.0029	0.0023	0.0018	0.144	
308.15	0.8546	0.14	0.0028	0.0012	0.0012	0.1018	
308.15	0.8966	0.0979	0.0026	0.0004	0.0004	0.0592	
308.15	0.9463	0.0483	0.0025	0.0002	0.0002	0.0268	
318.15	0.8653	0.1329	0.0027	0.0027	0.0018	0.1604	
318.15	0.8951	0.1026	0.0026	0.001	0.001	0.0985	
318.15	0.9416	0.0574	0.0025	0.0004	0.0004	0.0421	

System: hexadecane + 1-propoxy-2-propanol + water; phases: Liquid mixture 2, Liquid mixture 1
Fixed: Pressure, kPa = 101
Property: Mass fraction of 1-propoxy-2-propanol (Liquid mixture 2); method: Chromatography
Property: Mass fraction of water (Liquid mixture 1); method: Chromatography
Property: Mass fraction of 1-propoxy-2-propanol (Liquid mixture 1); method: Chromatography
Temperature, K	Mass fraction of water	Mass fraction of 1-propoxy-2-propanol	uncertainty	Mass fraction of water	uncertainty	Mass fraction of 1-propoxy-2-propanol	uncertainty
308.15	0.1849	0.7547	0.0025	0.0043	0.0018	0.1852	
308.15	0.1155	0.7585	0.0028	0.0084	0.0018	0.2539	
308.15	0.0661	0.6703	0.0032	0.0223	0.0018	0.405	
318.15	0.1289	0.7489	0.0032	0.0105	0.0018	0.2889	
318.15	0.0938	0.7095	0.0034	0.0189	0.0018	0.3682	

System: hexadecane + 1-propoxy-2-propanol + water; phases: Liquid mixture 3, Liquid mixture 2
Fixed: Pressure, kPa = 101
Property: Mass fraction of 1-propoxy-2-propanol (Liquid mixture 3); method: Chromatography
Property: Mass fraction of 1-propoxy-2-propanol (Liquid mixture 2); method: Chromatography
Property: Mass fraction of water (Liquid mixture 2); method: Chromatography
Temperature, K	Mass fraction of water	Mass fraction of 1-propoxy-2-propanol	uncertainty	Mass fraction of 1-propoxy-2-propanol	uncertainty	Mass fraction of water	uncertainty
308.15	0.7925	0.2075	0.0029	0.7072	0.003	0.2689	
308.15	0.7906	0.2094	0.0029	0.6949	0.003	0.2883	
308.15	0.749	0.251	0.0031	0.6139	0.0036	0.3861	
318.15	0.8497	0.1503	0.0028	0.7438	0.0027	0.2209	
318.15	0.8345	0.1665	0.0029	0.6993	0.003	0.3007	
