Measured thermophysical data. Studies of Physicochemical and Thermodynamic Properties of the Paramagnetic 1-Alkyl-3-methylimidazolium Ionic Liquids (EMIm)2[Co(NCS)4] and (BMIm)2[Co(NCS)4]
Source: J. Chem. Eng. Data, 2010, 10.1021/je100563b
Compound 1: bis(1-butyl-3-methylimidazolium) tetrathiocyanatocobaltate, C20H30CoN8S4, InChI=1S/2C8H15N2.4CNS.Co/c2*1-3-4-5-10-7-6-9(2)8-10;4*2-1-3;/h2*6-8H,3-5H2,1-2H3;;;;;/q2*+1;4*-1;+2

System: bis(1-butyl-3-methylimidazolium) tetrathiocyanatocobaltate; phases: Liquid
Fixed: Pressure, kPa = 101.325
Property: Electrical conductivity, S/m (Liquid); method: Alternating current cell with electrodes
Temperature, K	Electrical conductivity, S/m	uncertainty
288.2	0.066	0.001
293.2	0.096	0.001
298.2	0.134	0.002
303.4	0.185	0.002
308.2	0.248	0.003
313.2	0.325	0.004
318.2	0.408	0.005
323.1	0.51	0.006
328.2	0.627	0.007
333.2	0.755	0.008

System: bis(1-butyl-3-methylimidazolium) tetrathiocyanatocobaltate; phases: Liquid, Air at 1 atmosphere
Property: Surface tension liquid-gas, N/m (Liquid); method: Pendant drop shape
Temperature, K	Surface tension liquid-gas, N/m	uncertainty
288.15	0.05018	0.00134
293.15	0.04984	0.00133
298.15	0.04954	0.00132
303.15	0.04919	0.00131
308.15	0.04892	0.00131
313.15	0.04854	0.0013
318.15	0.04828	0.00129

System: bis(1-butyl-3-methylimidazolium) tetrathiocyanatocobaltate; phases: Liquid
Fixed: Pressure, kPa = 101.325
Property: Kinematic viscosity, m2/s (Liquid); method: Capillary tube (Ostwald; Ubbelohde) method
Temperature, K	Kinematic viscosity, m2/s	uncertainty
288.15	0.00056232	2.792e-05
293.25	0.00037462	1.696e-05
298.15	0.00025778	1.035e-05
303.55	0.00018003	6.45e-06
308.15	0.00013577	4.42e-06
313.15	0.00010209	3.07e-06
318.15	7.8e-05	2.21e-06
323.15	6.121e-05	1.7e-06

System: bis(1-butyl-3-methylimidazolium) tetrathiocyanatocobaltate; phases: Liquid
Fixed: Pressure, kPa = 101.325
Property: Mass density, kg/m3 (Liquid); method: Vibrating tube method
Temperature, K	Mass density, kg/m3	uncertainty
288.15	1228.62	8.22
293.15	1225.34	8.18
298.15	1222.01	8.13
303.15	1218.65	8.08
308.15	1215.16	8.04
313.15	1211.75	7.99
318.15	1208.25	7.95
323.15	1204.81	7.9
