Measured thermophysical data. Interfacial Tension Measurements of the (H2O + CO2) System at Elevated Pressures and Temperatures
Source: J. Chem. Eng. Data, 2010, 10.1021/je100198g
Compound 1: carbon dioxide, CO2, InChI=1S/CO2/c2-1-3, purity 99.995%
Compound 2: water, H2O, InChI=1S/H2O/h1H2

System: carbon dioxide + water; phases: Liquid mixture 1, Liquid mixture 2
Fixed: Temperature, K = 297.9
Property: Interfacial tension, N/m (Liquid mixture 1); method: Pendant drop shape
Pressure, kPa	Interfacial tension, N/m	uncertainty
7020	0.0319	0.0007
8020	0.0319	0.0007
10010	0.0318	0.0007
14990	0.0306	0.0007
19990	0.03	0.0007

System: carbon dioxide + water; phases: Liquid, Gas
Property: Surface tension liquid-gas, N/m (Liquid); method: Pendant drop shape
Temperature, K	Pressure, kPa	Surface tension liquid-gas, N/m	uncertainty
297.8	1010	0.0659	0.0015
297.9	2000	0.0592	0.0014
297.9	3000	0.0529	0.0012
297.9	4000	0.0475	0.0011
297.9	5010	0.0418	0.001
297.9	6010	0.0367	0.0009
312.9	1000	0.0637	0.0015
312.9	2000	0.059	0.0014
312.8	3010	0.0514	0.0012
312.8	4010	0.0473	0.0011
312.8	5020	0.0443	0.0011
312.8	6000	0.0406	0.001
312.9	7020	0.0373	0.0009
312.9	8020	0.0339	0.0008
312.9	10000	0.0321	0.0008
312.9	15000	0.0308	0.0007
313.2	20020	0.0304	0.0007
312.9	24920	0.0295	0.0007
333.5	1000	0.0626	0.0015
333.5	1990	0.0601	0.0014
333.5	2990	0.0562	0.0013
333.5	3990	0.0527	0.0012
333.5	5000	0.0498	0.0012
333.5	6000	0.0466	0.0011
333.5	7010	0.0437	0.001
333.5	8010	0.0408	0.001
333.5	8990	0.0382	0.0009
333.6	10000	0.0324	0.0008
333.6	10570	0.0317	0.0008
333.5	15010	0.0312	0.0007
333.5	20000	0.0301	0.0007
333.5	25000	0.0289	0.0007
333.5	30000	0.0287	0.0007
333.5	40000	0.0272	0.0007
333.5	50000	0.0268	0.0006
333.5	60000	0.0253	0.0006
343.3	1000	0.0614	0.0014
343.3	2000	0.0571	0.0013
343.3	3000	0.0557	0.0013
343.3	4000	0.0518	0.0012
343.3	5000	0.0487	0.0012
343.3	6000	0.0456	0.0011
343.3	7050	0.0427	0.001
343.3	8030	0.0401	0.001
343.3	9020	0.0377	0.0009
343.3	10030	0.0357	0.0009
343.3	11040	0.0344	0.0008
343.3	12050	0.0331	0.0008
343.3	15090	0.0308	0.0007
343.3	20200	0.0292	0.0007
343.3	25250	0.0285	0.0007
343.3	35280	0.0271	0.0007
343.3	41320	0.0263	0.0006
374.3	1000	0.0562	0.0013
374.3	2000	0.0535	0.0013
374.3	3000	0.0513	0.0012
374.3	4000	0.0489	0.0012
374.3	5000	0.0466	0.0011
374.3	6000	0.0448	0.0011
374.3	9000	0.0399	0.0009
374.3	10000	0.0383	0.0009
374.3	11000	0.0369	0.0009
374.3	12000	0.0353	0.0008
374.3	13000	0.0341	0.0008
374.3	14000	0.0331	0.0008
374.3	15000	0.0325	0.0008
374.3	16000	0.0316	0.0008
374.3	17000	0.0308	0.0007
374.3	18000	0.0303	0.0007
374.3	19000	0.0297	0.0007
374.3	20000	0.0296	0.0007
374.3	30000	0.0259	0.0006
374.3	40000	0.0245	0.0006
374.3	49990	0.0236	0.0006
374.3	60050	0.0231	0.0006
