Measured thermophysical data. Surface Tensions and the Gibbs Excess Surface Concentration of Binary Mixtures of the Ionic Liquid 1-Ethyl-3-methylimidazolium Bis[(trifluoromethyl)sulfonyl]imide with Tetrahydrofuran and Acetonitrile
Source: J. Chem. Eng. Data, 2011, 10.1021/je101146f
Compound 1: tetrahydrofuran, C4H8O, InChI=1S/C4H8O/c1-2-4-5-3-1/h1-4H2
Compound 2: acetonitrile, C2H3N, InChI=1S/C2H3N/c1-2-3/h1H3
Compound 3: 1-ethyl-3-methylimidazolium bis((trifluoromethyl)sulfonyl)imide, C8H11F6N3O4S2, InChI=1S/C6H11N2.C2F6NO4S2/c1-3-8-5-4-7(2)6-8;3-1(4,5)14(10,11)9-15(12,13)2(6,7)8/h4-6H,3H2,1-2H3;/q+1;-1

System: tetrahydrofuran; phases: Liquid, Gas
Property: Surface tension liquid-gas, N/m (Liquid); method: Ring tensiometer
Temperature, K	Surface tension liquid-gas, N/m	uncertainty
293.15	0.02731	0.00043
298.15	0.02668	0.00043
303.13	0.02604	0.00042
308.15	0.02538	0.00042

System: acetonitrile; phases: Liquid, Gas
Property: Surface tension liquid-gas, N/m (Liquid); method: Ring tensiometer
Temperature, K	Surface tension liquid-gas, N/m	uncertainty
293.15	0.02895	0.00045
298.15	0.02837	0.00045
303.13	0.02766	0.00044
308.15	0.02703	0.00043
313.15	0.02643	0.00043

System: 1-ethyl-3-methylimidazolium bis((trifluoromethyl)sulfonyl)imide; phases: Liquid, Gas
Property: Surface tension liquid-gas, N/m (Liquid); method: Ring tensiometer
Temperature, K	Surface tension liquid-gas, N/m	uncertainty
293.15	0.03614	0.0005
298.15	0.0359	0.0005
303.13	0.03556	0.00049
308.15	0.03535	0.00049
313.15	0.0351	0.00049

System: tetrahydrofuran + 1-ethyl-3-methylimidazolium bis((trifluoromethyl)sulfonyl)imide; phases: Liquid, Gas
Property: Surface tension liquid-gas, N/m (Liquid); method: Ring tensiometer
Temperature, K	Mole fraction of 1-ethyl-3-methylimidazolium bis((trifluoromethyl)sulfonyl)imide	Surface tension liquid-gas, N/m	uncertainty
293.15	0	0.02731	0.00043
293.15	0.1037	0.02872	0.00045
293.15	0.2024	0.02994	0.00045
293.15	0.3255	0.03105	0.00046
293.15	0.3841	0.03162	0.00046
293.15	0.4425	0.03212	0.00047
293.15	0.5469	0.03298	0.00047
293.15	0.6863	0.03407	0.00048
293.15	0.7697	0.03455	0.00048
293.15	0.9177	0.03565	0.00049
293.15	1	0.03614	0.0005
298.15	0	0.02668	0.00043
298.15	0.1037	0.0281	0.00044
298.15	0.2024	0.02942	0.00045
298.15	0.3255	0.03062	0.00046
298.15	0.3841	0.03118	0.00046
298.15	0.4425	0.03176	0.00046
298.15	0.5469	0.03263	0.00047
298.15	0.6863	0.03381	0.00048
298.15	0.7697	0.03438	0.00048
298.15	0.9177	0.03546	0.00049
298.15	1	0.0359	0.0005
303.13	0	0.02604	0.00042
303.13	0.1037	0.02752	0.00043
303.13	0.2024	0.02884	0.00044
303.13	0.3255	0.03018	0.00045
303.13	0.3841	0.03082	0.00046
303.13	0.4425	0.03141	0.00046
303.13	0.5469	0.03239	0.00047
303.13	0.6863	0.03352	0.00048
303.13	0.7697	0.03415	0.00048
303.13	0.9177	0.03522	0.00049
303.13	1	0.03556	0.00049
308.15	0	0.02538	0.00042
308.15	0.1037	0.02688	0.00043
308.15	0.2024	0.02833	0.00044
308.15	0.3255	0.02984	0.00045
308.15	0.3841	0.03052	0.00045
308.15	0.4425	0.03107	0.00046
308.15	0.5469	0.03208	0.00046
308.15	0.6863	0.03326	0.00047
308.15	0.7697	0.03392	0.00048
308.15	0.9177	0.03498	0.00049
308.15	1	0.03535	0.00049

System: acetonitrile + 1-ethyl-3-methylimidazolium bis((trifluoromethyl)sulfonyl)imide; phases: Liquid, Gas
Property: Surface tension liquid-gas, N/m (Liquid); method: Ring tensiometer
Temperature, K	Mole fraction of 1-ethyl-3-methylimidazolium bis((trifluoromethyl)sulfonyl)imide	Surface tension liquid-gas, N/m	uncertainty
293.15	0	0.02895	0.00045
293.15	0.0533	0.03048	0.00047
293.15	0.1886	0.03272	0.00048
293.15	0.337	0.03402	0.00049
293.15	0.4724	0.03477	0.00049
293.15	0.652	0.03538	0.00049
293.15	0.8245	0.03583	0.0005
293.15	0.924	0.03598	0.0005
293.15	1	0.03614	0.0005
298.15	0	0.02837	0.00045
298.15	0.0533	0.0298	0.00046
298.15	0.1886	0.0321	0.00048
298.15	0.337	0.03355	0.00049
298.15	0.4724	0.03442	0.00049
298.15	0.652	0.03511	0.00049
298.15	0.8245	0.0356	0.00049
298.15	0.924	0.03576	0.00049
298.15	1	0.0359	0.0005
303.13	0	0.02766	0.00044
303.13	0.0533	0.02926	0.00045
303.13	0.1886	0.03163	0.00047
303.13	0.337	0.03315	0.00048
303.13	0.4724	0.03399	0.00049
303.13	0.652	0.0348	0.00049
303.13	0.8245	0.03529	0.00049
303.13	0.924	0.0355	0.00049
303.13	1	0.03556	0.00049
308.15	0	0.02703	0.00043
308.15	0.0533	0.02865	0.00045
308.15	0.1886	0.03116	0.00047
308.15	0.337	0.03278	0.00048
308.15	0.4724	0.03361	0.00048
308.15	0.652	0.03449	0.00049
308.15	0.8245	0.03499	0.00049
308.15	0.924	0.03522	0.00049
308.15	1	0.03535	0.00049
313.15	0	0.02643	0.00043
313.15	0.0533	0.02804	0.00044
313.15	0.1886	0.03069	0.00046
313.15	0.337	0.03236	0.00047
313.15	0.4724	0.03328	0.00048
313.15	0.652	0.0342	0.00048
313.15	0.8245	0.03475	0.00048
313.15	0.924	0.035	0.00049
313.15	1	0.0351	0.00049
