Measured thermophysical data. Thermophysical Properties and Water Saturation of [PF6]-Based Ionic Liquids
Source: J. Chem. Eng. Data, 2010, 10.1021/je100638g
Compound 1: 1-methyl-3-propylimidazolium hexafluorophosphate, C7H13F6N2P, InChI=1S/C7H13N2.F6P/c1-3-4-9-6-5-8(2)7-9;1-7(2,3,4,5)6/h5-7H,3-4H2,1-2H3;/q+1;-1, purity 99%
Compound 2: 1-methyl-3-propylpyridinium hexafluorophosphate, C9H14F6NP, InChI=1S/C9H14N.F6P/c1-3-5-9-6-4-7-10(2)8-9;1-7(2,3,4,5)6/h4,6-8H,3,5H2,1-2H3;/q+1;-1, purity 99%
Compound 3: water, H2O, InChI=1S/H2O/h1H2

System: 1-methyl-3-propylimidazolium hexafluorophosphate; phases: Crystal, Liquid, Gas
Property: Molar enthalpy of transition or fusion, kJ/mol (Crystal); method: DSC
Molar enthalpy of transition or fusion, kJ/mol	uncertainty
16.7	0.5

System: 1-methyl-3-propylimidazolium hexafluorophosphate; phases: Crystal, Liquid, Air at 1 atmosphere
Property: Normal melting temperature, K (Crystal); method: DTA
Normal melting temperature, K	uncertainty
311.6	0.5

System: 1-methyl-3-propylimidazolium hexafluorophosphate; phases: Liquid
Fixed: Pressure, kPa = 100
Property: Viscosity, Pa*s (Liquid); method: CAPTUB:UFactor:8
Temperature, K	Viscosity, Pa*s	uncertainty
318.15	0.085006	0.006264
323.15	0.068178	0.003007
328.15	0.055458	0.000982
333.15	0.0457	0.001535
338.15	0.038092	0.001286
343.15	0.032099	0.00109
348.15	0.027321	0.000935
353.15	0.023469	0.00081
358.15	0.020337	0.000709
363.15	0.017771	0.000627

System: 1-methyl-3-propylimidazolium hexafluorophosphate; phases: Liquid
Fixed: Pressure, kPa = 100
Property: Mass density, kg/m3 (Liquid); method: VIBTUB:UFactor:16
Temperature, K	Mass density, kg/m3	uncertainty
318.15	1397.5	3.4
323.15	1393.2	3.3
328.15	1389	3.3
333.15	1384.7	3.3
338.15	1380.5	3.3
343.15	1376.3	3.2
348.15	1372.1	3.2
353.15	1367.9	3.2
358.15	1363.8	3.1
363.15	1359.6	3.1

System: 1-methyl-3-propylpyridinium hexafluorophosphate; phases: Crystal, Liquid, Gas
Property: Molar enthalpy of transition or fusion, kJ/mol (Crystal); method: DSC
Molar enthalpy of transition or fusion, kJ/mol	uncertainty
15	0.5

System: 1-methyl-3-propylpyridinium hexafluorophosphate; phases: Crystal, Liquid, Air at 1 atmosphere
Property: Normal melting temperature, K (Crystal); method: DTA
Normal melting temperature, K	uncertainty
311.2	0.5

System: 1-methyl-3-propylpyridinium hexafluorophosphate; phases: Liquid
Fixed: Pressure, kPa = 100
Property: Viscosity, Pa*s (Liquid); method: CAPTUB:UFactor:8
Temperature, K	Viscosity, Pa*s	uncertainty
318.15	0.13287	0.017792
323.15	0.10217	0.010086
328.15	0.079968	0.005252
333.15	0.063669	0.002233
338.15	0.05152	0.000647
343.15	0.042287	0.001426
348.15	0.03516	0.001192
353.15	0.029579	0.00101
358.15	0.025148	0.000865
363.15	0.021594	0.000753

System: 1-methyl-3-propylpyridinium hexafluorophosphate; phases: Liquid
Fixed: Pressure, kPa = 100
Property: Mass density, kg/m3 (Liquid); method: VIBTUB:UFactor:16
Temperature, K	Mass density, kg/m3	uncertainty
318.15	1365.4	3.2
323.15	1361.3	3.1
328.15	1357.3	3.1
333.15	1353.2	3.1
338.15	1349.2	3
343.15	1345.2	3
348.15	1341.2	3
353.15	1337.2	3
358.15	1333.2	2.9
363.15	1329.2	2.9

System: water + 1-methyl-3-propylimidazolium hexafluorophosphate; phases: Liquid
Fixed: Mole fraction of water = 0.306
Fixed: Pressure, kPa = 100
Property: Viscosity, Pa*s (Liquid); method: CAPTUB:UFactor:8
Temperature, K	Viscosity, Pa*s	uncertainty
303.15	0.039408	0.001323
308.15	0.032254	0.001097
313.15	0.026844	0.00092
318.15	0.022612	0.000782
323.15	0.019285	0.000674
328.15	0.016581	0.000587
333.15	0.014386	0.000517
338.15	0.012612	0.00046
343.15	0.011134	0.000413
348.15	0.009905	0.000373
353.15	0.008874	0.000341
358.15	0.007983	0.000312
363.15	0.007228	0.000289

System: water + 1-methyl-3-propylimidazolium hexafluorophosphate; phases: Liquid
Fixed: Pressure, kPa = 100
Fixed: Mole fraction of water = 0.306
Property: Mass density, kg/m3 (Liquid); method: VIBTUB:UFactor:16
Temperature, K	Mass density, kg/m3	uncertainty
303.15	1389.2	3.3
308.15	1384.7	3.3
313.15	1380.2	3.3
318.15	1375.7	3.2
323.15	1371.3	3.2
328.15	1366.9	3.2
333.15	1362.5	3.2
338.15	1358.1	3.1
343.15	1353.8	3.1
348.15	1349.4	3.1
353.15	1345.1	3.1
358.15	1340.8	3
363.15	1336.5	3

System: water + 1-methyl-3-propylimidazolium hexafluorophosphate; phases: Liquid mixture 1, Liquid
Fixed: Pressure, kPa = 100
Property: Mole fraction of water (Liquid mixture 1); method: Titration method
Temperature, K	Mole fraction of water	uncertainty
288.15	0.2437	0.0047
293.15	0.2709	0.0042
298.15	0.2925	0.0045
303.15	0.3168	0.0067
308.15	0.3461	0.0054
313.15	0.3769	0.0079
318.15	0.405	0.0067

System: water + 1-methyl-3-propylimidazolium hexafluorophosphate; phases: Liquid mixture 2, Liquid
Fixed: Pressure, kPa = 100
Property: Mole fraction of water (Liquid mixture 2); method: Titration method
Temperature, K	Mole fraction of water	uncertainty
288.15	0.001158	8.2e-05
293.15	0.001543	2.7e-05
298.15	0.001957	3.5e-05
303.15	0.002528	4.3e-05
308.15	0.002772	0.000138
313.15	0.002965	5.9e-05
318.15	0.003314	5.6e-05

System: water + 1-methyl-3-propylpyridinium hexafluorophosphate; phases: Liquid
Fixed: Mole fraction of water = 0.249
Fixed: Pressure, kPa = 100
Property: Viscosity, Pa*s (Liquid); method: CAPTUB:UFactor:8
Temperature, K	Viscosity, Pa*s	uncertainty
303.15	0.073388	0.003957
308.15	0.057548	0.001278
313.15	0.04598	0.001554
318.15	0.037356	0.001267
323.15	0.030806	0.001051
328.15	0.025755	0.000886
333.15	0.021759	0.000756
338.15	0.018602	0.000654
343.15	0.016037	0.000571
348.15	0.013976	0.000504
353.15	0.012277	0.00045
358.15	0.010861	0.000405
363.15	0.009677	0.000367

System: water + 1-methyl-3-propylpyridinium hexafluorophosphate; phases: Liquid
Fixed: Mole fraction of water = 0.249
Fixed: Pressure, kPa = 100
Property: Mass density, kg/m3 (Liquid); method: VIBTUB:UFactor:16
Temperature, K	Mass density, kg/m3	uncertainty
303.15	1362.5	3.5
308.15	1358.3	3.4
313.15	1354	3.4
318.15	1349.8	3.4
323.15	1345.6	3.3
328.15	1341.4	3.3
333.15	1337.2	3.3
338.15	1333.1	3.3
343.15	1328.9	3.2
348.15	1324.8	3.2
353.15	1320.7	3.2
358.15	1316.6	3.2
363.15	1312.5	3.1

System: water + 1-methyl-3-propylpyridinium hexafluorophosphate; phases: Liquid mixture 1, Liquid
Fixed: Pressure, kPa = 100
Property: Mole fraction of water (Liquid mixture 1); method: Titration method
Temperature, K	Mole fraction of water	uncertainty
303.15	0.2949	0.0058
308.15	0.3248	0.005
313.15	0.3516	0.0086
318.15	0.3772	0.0073

System: water + 1-methyl-3-propylpyridinium hexafluorophosphate; phases: Liquid mixture 2, Liquid
Fixed: Pressure, kPa = 100
Property: Mole fraction of 1-methyl-3-propylpyridinium hexafluorophosphate (Liquid mixture 2); method: Titration method
Temperature, K	Mole fraction of 1-methyl-3-propylpyridinium hexafluorophosphate	uncertainty
288.15	0.000918	0.000101
293.15	0.001223	5.1e-05
298.15	0.001646	6.2e-05
303.15	0.00199	3.1e-05
308.15	0.002204	6.4e-05
313.15	0.002363	5.2e-05
318.15	0.002689	6.6e-05
