Measured thermophysical data. Phase Equilibria of Long-Chain Carboxylic Acids in Supercritical Propane
Source: J. Chem. Eng. Data, 2011, 10.1021/je101077v
Compound 1: propane, C3H8, InChI=1S/C3H8/c1-3-2/h3H2,1-2H3, purity 99.95%
Compound 2: octanoic acid, C8H16O2, InChI=1S/C8H16O2/c1-2-3-4-5-6-7-8(9)10/h2-7H2,1H3,(H,9,10), purity 99%
Compound 3: decanoic acid, C10H20O2, InChI=1S/C10H20O2/c1-2-3-4-5-6-7-8-9-10(11)12/h2-9H2,1H3,(H,11,12), purity 99.5%
Compound 4: undecanoic acid, C11H22O2, InChI=1S/C11H22O2/c1-2-3-4-5-6-7-8-9-10-11(12)13/h2-10H2,1H3,(H,12,13), purity 99%
Compound 5: dodecanoic acid, C12H24O2, InChI=1S/C12H24O2/c1-2-3-4-5-6-7-8-9-10-11-12(13)14/h2-11H2,1H3,(H,13,14), purity 99%
Compound 6: hexadecanoic acid, C16H32O2, InChI=1S/C16H32O2/c1-2-3-4-5-6-7-8-9-10-11-12-13-14-15-16(17)18/h2-15H2,1H3,(H,17,18), purity 99%
Compound 7: octadecanoic acid, C18H36O2, InChI=1S/C18H36O2/c1-2-3-4-5-6-7-8-9-10-11-12-13-14-15-16-17-18(19)20/h2-17H2,1H3,(H,19,20), purity 99.5%
Compound 8: docosanoic acid, C22H44O2, InChI=1S/C22H44O2/c1-2-3-4-5-6-7-8-9-10-11-12-13-14-15-16-17-18-19-20-21-22(23)24/h2-21H2,1H3,(H,23,24), purity 99.5%

System: propane + octanoic acid; phases: Liquid, Gas
Property: Vapor or sublimation pressure, kPa (Liquid); method: Closed cell (Static) method
Mass fraction of octanoic acid	Temperature, K	Vapor or sublimation pressure, kPa	uncertainty
0.0176	380.2	4790	130
0.0176	393.8	5340	140
0.0176	407.3	5790	200
0.0287	379.8	4950	120
0.0287	393.5	5670	130
0.0287	407.1	6230	150
0.051	381.2	5000	120
0.051	395.1	5820	130
0.051	409	6550	190
0.0814	380.8	4950	130
0.0814	395.1	5880	160
0.0814	408.6	6720	180
0.121	380.8	4900	130
0.121	394.3	5870	130
0.121	407.9	6740	130
0.179	382.1	4950	130
0.179	395.3	5910	120
0.179	409.4	6900	130
0.229	380.4	4780	130
0.229	394.3	5860	130
0.229	408.2	6900	130
0.302	380.9	4590	130
0.302	394.4	5570	130
0.302	408.3	6610	130
0.384	380.9	4590	120
0.384	394.4	5570	130
0.384	408.3	6610	130
0.452	380.9	4530	130
0.452	393.9	5410	130
0.452	407.5	6440	130
0.554	382.1	4310	140
0.554	395.4	5130	150
0.554	408.3	6010	160
0.652	380.2	3780	150
0.652	394.6	4500	170
0.652	408.6	5300	190

System: propane + decanoic acid; phases: Liquid, Gas
Property: Vapor or sublimation pressure, kPa (Liquid); method: Closed cell (Static) method
Mass fraction of decanoic acid	Temperature, K	Vapor or sublimation pressure, kPa	uncertainty
0.0156	376.5	4680	130
0.0156	392.7	5600	150
0.0156	408.2	6320	250
0.0266	375.8	4590	130
0.0266	391.8	5700	150
0.0266	407.5	6510	170
0.0531	376.9	4660	120
0.0531	393.4	5870	160
0.0531	409.2	6900	220
0.0739	377.3	4700	120
0.0739	393.5	5950	170
0.0739	409.3	7090	180
0.12	377.6	4710	130
0.12	393.9	6130	130
0.12	409.7	7380	140
0.179	376.8	4570	130
0.179	393.3	6010	130
0.179	409.2	7370	130
0.232	377.7	4610	130
0.232	394.4	6160	130
0.232	410.2	7510	130
0.314	376.3	4410	130
0.314	393.5	5960	130
0.314	409.2	7380	130
0.374	376.7	4400	130
0.374	393.4	5790	130
0.374	409.6	7290	150
0.454	377	4190	130
0.454	392.4	5390	140
0.454	409	6790	160
0.545	376.5	4040	130
0.545	393.4	5210	140
0.545	408.7	6370	150
0.628	376.7	3720	150
0.628	393.7	4850	150
0.628	409.7	5950	170

System: propane + undecanoic acid; phases: Liquid, Gas
Property: Vapor or sublimation pressure, kPa (Liquid); method: Closed cell (Static) method
Mass fraction of undecanoic acid	Temperature, K	Vapor or sublimation pressure, kPa	uncertainty
0.018	380.2	4990	130
0.018	393.8	5920	150
0.018	407.3	6620	210
0.0289	379.8	4990	130
0.0289	393.5	6050	150
0.0289	407.1	6900	190
0.0472	381.2	5120	130
0.0472	395.1	6160	150
0.0472	409	7170	200
0.0771	380.8	5140	130
0.0771	395.1	6330	180
0.0771	408.6	7370	200
0.125	380.8	5200	130
0.125	394.3	6450	150
0.125	407.9	7660	130
0.184	382.1	5130	130
0.184	395.3	6500	140
0.184	409.4	7670	130
0.237	380.4	5060	130
0.237	394.3	6400	130
0.237	408.2	7610	130
0.306	382	4870	130
0.306	394.9	6180	140
0.306	408.1	7480	130
0.387	380.9	4670	140
0.387	394.4	6060	130
0.387	408.3	7340	130
0.452	380.9	4540	130
0.452	393.9	5820	150
0.452	407.5	6960	160
0.557	382.1	4430	130
0.557	395.4	5300	160
0.557	408.3	6330	180
0.653	380.2	4040	140
0.653	394.6	4840	150
0.653	408.6	5640	190

System: propane + dodecanoic acid; phases: Liquid, Gas
Property: Vapor or sublimation pressure, kPa (Liquid); method: Closed cell (Static) method
Mass fraction of dodecanoic acid	Temperature, K	Vapor or sublimation pressure, kPa	uncertainty
0.0149	377	4780	130
0.0149	392.9	5790	170
0.0149	407.8	6620	320
0.0281	379.5	5010	130
0.0281	395	6200	160
0.0281	409.2	7070	230
0.0519	380.3	5170	130
0.0519	394.1	6340	140
0.0519	407.4	7360	230
0.0804	379.2	5050	130
0.0804	393.5	6350	130
0.0804	407.8	7490	140
0.125	381.2	5260	130
0.125	395	6560	140
0.125	408.7	7790	170
0.181	380.2	5050	130
0.181	395	6540	130
0.181	409	7850	130
0.231	381.4	5170	130
0.231	394.9	6590	130
0.231	408.4	7880	130
0.3	380.7	5000	130
0.3	394.2	6370	140
0.3	409.5	7870	140
0.389	379.8	4850	130
0.389	393.8	6100	130
0.389	407.2	7430	140
0.448	381	4820	130
0.448	394.9	5980	160
0.448	409.7	7290	160
0.55	380.7	4400	150
0.55	395.4	5480	170
0.55	409.5	6590	190
0.648	380.9	4040	140
0.648	396.1	4960	160
0.648	410.3	5910	190

System: hexadecanoic acid + propane; phases: Liquid, Gas
Property: Vapor or sublimation pressure, kPa (Liquid); method: Closed cell (Static) method
Mass fraction of hexadecanoic acid	Temperature, K	Vapor or sublimation pressure, kPa	uncertainty
0.0184	380.9	5390	140
0.0184	394.4	6410	270
0.0184	408.8	7330	440
0.0199	376.4	4940	140
0.0199	392.4	6270	230
0.0199	406.9	7380	300
0.0274	380.3	5280	220
0.0274	393.2	6440	230
0.0274	408.2	7500	430
0.0532	381.8	5570	150
0.0532	394.8	6900	310
0.0532	407.7	8060	490
0.0829	379.3	5380	150
0.0829	392.9	6920	230
0.0829	406.5	8260	300
0.122	378.1	5430	140
0.122	392.5	7250	160
0.122	406.2	8680	170
0.184	379.7	5830	140
0.184	392.9	7430	130
0.184	406	8810	140
0.231	379.8	5730	130
0.231	394.2	7530	140
0.231	407.6	8950	140
0.305	380.4	5810	130
0.305	394.5	7540	150
0.305	408.1	9030	130
0.392	381.8	5460	140
0.392	397.1	7350	130
0.392	409.5	8680	170
0.463	381.1	5190	140
0.463	395.2	6780	170
0.463	408.1	8210	190
0.571	379.6	4730	150
0.571	393.6	5860	190
0.571	408.1	7170	260
0.655	380.2	4180	190
0.655	395.7	5180	230
0.655	408.8	6070	300

System: octadecanoic acid + propane; phases: Liquid, Gas
Property: Vapor or sublimation pressure, kPa (Liquid); method: Closed cell (Static) method
Mass fraction of octadecanoic acid	Temperature, K	Vapor or sublimation pressure, kPa	uncertainty
0.0153	376.9	5060	160
0.0153	392.9	6550	380
0.0153	408.3	7920	410
0.0274	376.9	5090	170
0.0274	393.5	6990	220
0.0274	409.7	8170	280
0.0299	376.5	5160	150
0.0299	391.7	6850	210
0.0299	407	8280	230
0.0394	377	5210	160
0.0394	392.6	7070	280
0.0394	408.1	8550	330
0.0735	376.9	5350	160
0.0735	392.5	7320	150
0.0735	408	8840	220
0.12	375.1	5410	130
0.12	395.1	7950	170
0.12	411.9	9710	340
0.18	375.1	5720	170
0.18	391.3	7970	190
0.18	409.4	10100	260
0.234	376.2	5970	150
0.234	392.2	8370	140
0.234	409.6	10420	140
0.307	375.8	5850	140
0.307	394.7	8610	140
0.307	409.9	10410	150
0.37	376.7	5710	160
0.37	394.5	8160	220
0.37	409.6	9880	180
0.454	376.4	5250	170
0.454	392.7	7440	170
0.454	409	9400	160
0.547	375.4	4620	170
0.547	391.9	6450	260
0.547	410.4	8570	250
0.638	376.4	4080	180
0.638	392.5	5320	280
0.638	409	6740	400

System: propane + docosanoic acid; phases: Liquid, Gas
Property: Vapor or sublimation pressure, kPa (Liquid); method: Closed cell (Static) method
Mass fraction of docosanoic acid	Temperature, K	Vapor or sublimation pressure, kPa	uncertainty
0.015	377.9	5060	340
0.015	393.7	6580	450
0.015	409	8160	500
0.0275	375.3	5410	300
0.0275	391.1	7390	390
0.0275	406.8	8960	560
0.0289	376.8	5760	300
0.0289	393.1	7750	380
0.0289	408.6	9370	400
0.0595	372.8	5570	160
0.0595	390.8	7920	400
0.0595	407.4	9950	590
0.0808	377.1	6510	300
0.0808	393.1	8680	270
0.0808	408.6	10330	240
0.131	377.8	6880	200
0.131	393.5	8980	160
0.131	413.8	11280	150
0.182	377.6	7010	150
0.182	393.5	9160	150
0.182	409.1	11010	160
0.232	376.9	6970	140
0.232	393.3	9250	140
0.232	408.7	11050	140
0.266	378.1	7230	140
0.266	393.2	9330	130
0.266	408.9	11200	130
0.299	377	7220	150
0.299	392.9	9170	140
0.299	408.7	11040	140
0.356	377.8	6910	200
0.356	393.4	9100	160
0.356	408.5	10930	140
0.454	375.9	6160	210
0.454	391.4	8450	190
0.454	406.8	10380	160
0.555	376.1	5030	230
0.555	392.1	7270	310
0.555	407.2	9190	340
0.649	375.5	4250	200
0.649	392	5760	330
0.649	406.9	7270	420
