Measured thermophysical data. Excess Molar Enthalpies of CO2 + Acetone at Pressures from (9.00 to 18.00) MPa and Temperatures from (313.15 to 333.15) K
Source: J. Chem. Eng. Data, 2010, 10.1021/je100220c
Compound 1: acetone, C3H6O, InChI=1S/C3H6O/c1-3(2)4/h1-2H3, purity 99.9%
Compound 2: carbon dioxide, CO2, InChI=1S/CO2/c2-1-3, purity 99.98%

System: acetone + carbon dioxide; phases: Liquid
Property: Excess molar enthalpy (molar enthalpy of mixing), kJ/mol (Liquid); method: Flow calorimetry
Temperature, K	Pressure, kPa	Mole fraction of carbon dioxide	Excess molar enthalpy (molar enthalpy of mixing), kJ/mol	uncertainty
313.15	9000	0.095	-0.454	0.015
313.15	9000	0.18	-0.935	0.023
313.15	9000	0.246	-1.202	0.027
313.15	9000	0.337	-1.494	0.033
313.15	9000	0.432	-1.864	0.041
313.15	9000	0.507	-2.023	0.044
313.15	9000	0.586	-2.226	0.048
313.15	9000	0.662	-2.288	0.049
313.15	9000	0.771	-2.366	0.051
313.15	9000	0.84	-2.234	0.049
313.15	9000	0.9	-2.038	0.045
313.15	9000	0.938	-1.736	0.045
313.15	9000	0.969	-1.202	0.043
313.15	12000	0.108	-0.323	0.009
313.15	12000	0.189	-0.574	0.014
313.15	12000	0.258	-0.732	0.017
313.15	12000	0.332	-0.922	0.021
313.15	12000	0.395	-1.049	0.023
313.15	12000	0.464	-1.167	0.025
313.15	12000	0.562	-1.284	0.05
313.15	12000	0.675	-1.321	0.029
313.15	12000	0.781	-1.201	0.026
313.15	12000	0.847	-1.025	0.024
313.15	12000	0.911	-0.736	0.021
313.15	12000	0.971	-0.256	0.009
313.15	15000	0.111	-0.277	0.007
313.15	15000	0.194	-0.457	0.011
313.15	15000	0.264	-0.621	0.014
313.15	15000	0.34	-0.76	0.017
313.15	15000	0.456	-0.906	0.02
313.15	15000	0.53	-1	0.022
313.15	15000	0.586	-1.021	0.022
313.15	15000	0.647	-1.019	0.022
313.15	15000	0.719	-0.98	0.021
313.15	15000	0.787	-0.887	0.02
313.15	15000	0.852	-0.724	0.017
313.15	15000	0.913	-0.499	0.013
313.15	15000	0.943	-0.364	0.013
313.15	15000	0.972	-0.191	0.013
313.15	18000	0.114	-0.264	0.007
313.15	18000	0.198	-0.417	0.01
313.15	18000	0.269	-0.541	0.012
313.15	18000	0.346	-0.672	0.015
313.15	18000	0.41	-0.781	0.017
313.15	18000	0.479	-0.846	0.018
313.15	18000	0.577	-0.898	0.019
313.15	18000	0.652	-0.919	0.02
313.15	18000	0.724	-0.857	0.019
313.15	18000	0.791	-0.722	0.016
313.15	18000	0.855	-0.569	0.014
313.15	18000	0.915	-0.383	0.011
313.15	18000	0.956	-0.218	0.009
323.15	9000	0.102	-0.728	0.022
323.15	9000	0.158	-1.096	0.027
323.15	9000	0.246	-1.699	0.039
323.15	9000	0.319	-2.142	0.047
323.15	9000	0.424	-2.689	0.059
323.15	9000	0.507	-3.132	0.068
323.15	9000	0.586	-3.491	0.075
323.15	9000	0.699	-4.003	0.087
323.15	9000	0.771	-4.176	0.09
323.15	9000	0.805	-4.174	0.09
323.15	9000	0.84	-4.05	0.087
323.15	9000	0.906	-3.434	0.081
323.15	9000	0.938	-2.609	0.092
323.15	9000	0.969	-1.132	0.098
323.15	12000	0.108	-0.403	0.01
323.15	12000	0.209	-0.761	0.018
323.15	12000	0.305	-1.062	0.024
323.15	12000	0.351	-1.213	0.027
323.15	12000	0.438	-1.471	0.032
323.15	12000	0.562	-1.687	0.037
323.15	12000	0.646	-1.771	0.038
323.15	12000	0.747	-1.796	0.04
323.15	12000	0.801	-1.719	0.039
323.15	12000	0.879	-1.389	0.033
323.15	12000	0.941	-0.933	0.025
323.15	12000	0.971	-0.553	0.023
323.15	15000	0.111	-0.308	0.008
323.15	15000	0.194	-0.531	0.013
323.15	15000	0.264	-0.714	0.016
323.15	15000	0.359	-0.905	0.02
323.15	15000	0.473	-1.118	0.024
323.15	15000	0.53	-1.186	0.026
323.15	15000	0.609	-1.244	0.027
323.15	15000	0.683	-1.24	0.027
323.15	15000	0.787	-1.122	0.024
323.15	15000	0.852	-0.932	0.021
323.15	15000	0.913	-0.651	0.016
323.15	15000	0.943	-0.49	0.017
323.15	15000	0.972	-0.265	0.014
323.15	18000	0.114	-0.271	0.008
323.15	18000	0.219	-0.518	0.012
323.15	18000	0.318	-0.729	0.016
323.15	18000	0.41	-0.883	0.019
323.15	18000	0.479	-0.974	0.021
323.15	18000	0.577	-1.039	0.022
323.15	18000	0.652	-1.025	0.022
323.15	18000	0.724	-0.967	0.021
323.15	18000	0.791	-0.857	0.019
323.15	18000	0.855	-0.698	0.016
323.15	18000	0.915	-0.453	0.013
323.15	18000	0.944	-0.324	0.012
323.15	18000	0.973	-0.186	0.01
333.15	9000	0.102	-0.753	0.022
333.15	9000	0.18	-1.309	0.032
333.15	9000	0.246	-1.776	0.04
333.15	9000	0.337	-2.389	0.053
333.15	9000	0.424	-2.938	0.064
333.15	9000	0.507	-3.347	0.072
333.15	9000	0.625	-4.01	0.086
333.15	9000	0.699	-4.272	0.091
333.15	9000	0.771	-4.366	0.093
333.15	9000	0.807	-4.196	0.097
333.15	9000	0.906	-2.031	0.063
333.15	9000	0.938	-1.21	0.058
333.15	15000	0.111	-0.371	0.01
333.15	15000	0.215	-0.677	0.016
333.15	15000	0.312	-0.941	0.021
333.15	15000	0.404	-1.191	0.027
333.15	15000	0.489	-1.363	0.03
333.15	15000	0.609	-1.524	0.034
333.15	15000	0.683	-1.558	0.035
333.15	15000	0.753	-1.505	0.034
333.15	15000	0.82	-1.296	0.03
333.15	15000	0.883	-1.039	0.024
333.15	15000	0.915	-0.844	0.023
333.15	15000	0.943	-0.653	0.023
333.15	15000	0.972	-0.342	0.023
