Measured thermophysical data. Viscosities of l-Phenylalanine, l-Leucine, l-Glutamic Acid, or l-Proline + 2.0 mol*dm-3 Aqueous NaCl or 2.0 mol*dm-3 Aqueous NaNO3 Solutions at T = (298.15 to 328.15) K
Source: J. Chem. Eng. Data, 2010, 10.1021/je1000878
Compound 1: L-phenylalanine, C9H11NO2, InChI=1S/C9H11NO2/c10-8(9(11)12)6-7-4-2-1-3-5-7/h1-5,8H,6,10H2,(H,11,12)/t8-/m0/s1, purity 99%
Compound 2: L-leucine, C6H13NO2, InChI=1S/C6H13NO2/c1-4(2)3-5(7)6(8)9/h4-5H,3,7H2,1-2H3,(H,8,9)/t5-/m0/s1, purity 99%
Compound 3: L-glutamic acid, C5H9NO4, InChI=1S/C5H9NO4/c6-3(5(9)10)1-2-4(7)8/h3H,1-2,6H2,(H,7,8)(H,9,10)/t3-/m0/s1, purity 99%
Compound 4: L-proline, C5H9NO2, InChI=1S/C5H9NO2/c7-5(8)4-2-1-3-6-4/h4,6H,1-3H2,(H,7,8)/t4-/m0/s1, purity 99%
Compound 5: sodium chloride, ClNa, InChI=1S/ClH.Na/h1H;/q;+1/p-1, purity 99%
Compound 6: sodium nitrate, NNaO3, InChI=1S/NO3.Na/c2-1(3)4;/q-1;+1, purity 99%
Compound 7: water, H2O, InChI=1S/H2O/h1H2

System: sodium chloride + water; phases: Liquid
Fixed: Pressure, kPa = 101.3
Fixed: Amount concentration (molarity), mol/dm3 of sodium chloride = 2
Property: Viscosity, Pa*s (Liquid); method: CAPTUB:UFactor:2
Temperature, K	Viscosity, Pa*s	uncertainty
298.15	0.001085	1.44e-05
303.15	0.0009761	1.32e-05
308.15	0.0008816	1.2e-05
313.15	0.00080695	1.1e-05
318.15	0.0007426	1.03e-05
323.15	0.000676	9.5e-06
328.15	0.0006257	8.8e-06

System: sodium nitrate + water; phases: Liquid
Fixed: Pressure, kPa = 101.3
Fixed: Amount concentration (molarity), mol/dm3 of sodium nitrate = 2
Property: Viscosity, Pa*s (Liquid); method: CAPTUB:UFactor:2
Temperature, K	Viscosity, Pa*s	uncertainty
298.15	0.0010364	1.38e-05
303.15	0.0009367	1.27e-05
308.15	0.0008519	1.16e-05
313.15	0.0007777	1.07e-05
318.15	0.0007167	9.9e-06
323.15	0.0006559	9.2e-06
328.15	0.0006043	8.6e-06

System: L-phenylalanine + sodium chloride + water; phases: Liquid
Fixed: Pressure, kPa = 101
Fixed: Solvent: Amount concentration (molarity), mol/dm3 of sodium chloride = 2
Property: Viscosity, Pa*s (Liquid); method: CAPTUB:UFactor:2
Temperature, K	Molality, mol/kg of L-phenylalanine	Viscosity, Pa*s	uncertainty
298.15	0	0.001085	1.44e-05
298.15	0.0187	0.0011033	1.47e-05
298.15	0.0374	0.0011236	1.49e-05
298.15	0.0562	0.0011403	1.52e-05
298.15	0.0751	0.0011648	1.55e-05
298.15	0.0941	0.0012034	1.59e-05
303.15	0	0.0009761	1.32e-05
303.15	0.0187	0.0009942	1.34e-05
303.15	0.0374	0.0010127	1.37e-05
303.15	0.0562	0.0010224	1.38e-05
303.15	0.0751	0.0010484	1.42e-05
303.15	0.0941	0.0010816	1.47e-05
308.15	0	0.0008816	1.2e-05
308.15	0.0187	0.0008977	1.22e-05
308.15	0.0374	0.0009082	1.24e-05
308.15	0.0562	0.0009187	1.25e-05
308.15	0.0751	0.0009262	1.26e-05
308.15	0.0941	0.0009356	1.29e-05
313.15	0	0.00080695	1.1e-05
313.15	0.0187	0.0008177	1.12e-05
313.15	0.0374	0.0008264	1.13e-05
313.15	0.0562	0.000836	1.14e-05
313.15	0.0751	0.0008478	1.15e-05
313.15	0.0941	0.0008571	1.16e-05
318.15	0	0.0007426	1.03e-05
318.15	0.0187	0.0007508	1.04e-05
318.15	0.0374	0.0007584	1.04e-05
318.15	0.0562	0.0007663	1.05e-05
318.15	0.0751	0.0007737	1.06e-05
318.15	0.0941	0.0007828	1.07e-05
323.15	0	0.000676	9.5e-06
323.15	0.0187	0.0006841	9.5e-06
323.15	0.0374	0.0006915	9.6e-06
323.15	0.0562	0.0007009	9.7e-06
323.15	0.0751	0.0007123	9.9e-06
323.15	0.0941	0.0007187	1e-05
328.15	0	0.0006257	8.8e-06
328.15	0.0187	0.0006355	8.9e-06
328.15	0.0374	0.0006394	9e-06
328.15	0.0562	0.0006486	9.1e-06
328.15	0.0751	0.0006566	9.2e-06
328.15	0.0941	0.0006594	9.3e-06

System: L-phenylalanine + sodium nitrate + water; phases: Liquid
Fixed: Pressure, kPa = 101
Fixed: Solvent: Amount concentration (molarity), mol/dm3 of sodium nitrate = 2
Property: Viscosity, Pa*s (Liquid); method: CAPTUB:UFactor:2
Temperature, K	Molality, mol/kg of L-phenylalanine	Viscosity, Pa*s	uncertainty
298.15	0	0.0010364	1.38e-05
298.15	0.018	0.0010561	1.4e-05
298.15	0.0362	0.0010631	1.42e-05
298.15	0.0543	0.0010772	1.43e-05
298.15	0.0726	0.0010945	1.45e-05
298.15	0.0909	0.0011056	1.47e-05
298.15	0.1094	0.0011305	1.51e-05
298.15	0.128	0.0011512	1.53e-05
298.15	0.1465	0.0011626	1.54e-05
303.15	0	0.0009367	1.27e-05
303.15	0.018	0.0009523	1.29e-05
303.15	0.0362	0.0009601	1.3e-05
303.15	0.0543	0.0009741	1.31e-05
303.15	0.0726	0.0009867	1.33e-05
303.15	0.0909	0.0009949	1.34e-05
303.15	0.1094	0.0010043	1.36e-05
303.15	0.128	0.0010268	1.39e-05
303.15	0.1465	0.0010426	1.4e-05
308.15	0	0.0008519	1.16e-05
308.15	0.018	0.0008652	1.18e-05
308.15	0.0362	0.0008702	1.18e-05
308.15	0.0543	0.0008841	1.2e-05
308.15	0.0726	0.0008956	1.21e-05
308.15	0.0909	0.0009046	1.22e-05
308.15	0.1094	0.000914	1.23e-05
308.15	0.128	0.0009255	1.25e-05
308.15	0.1465	0.0009438	1.27e-05
313.15	0	0.0007777	1.07e-05
313.15	0.018	0.0007897	1.08e-05
313.15	0.0362	0.0007992	1.09e-05
313.15	0.0543	0.0008084	1.11e-05
313.15	0.0726	0.0008207	1.12e-05
313.15	0.0909	0.0008269	1.13e-05
313.15	0.1094	0.0008434	1.15e-05
313.15	0.128	0.0008477	1.15e-05
313.15	0.1465	0.0008586	1.16e-05
318.15	0	0.0007167	9.9e-06
318.15	0.018	0.0007257	1e-05
318.15	0.0362	0.0007316	1.01e-05
318.15	0.0543	0.0007379	1.02e-05
318.15	0.0726	0.0007466	1.03e-05
318.15	0.0909	0.0007554	1.04e-05
318.15	0.1094	0.0007638	1.06e-05
318.15	0.128	0.0007775	1.07e-05
318.15	0.1465	0.0007887	1.08e-05
323.15	0	0.0006559	9.2e-06
323.15	0.018	0.0006653	9.3e-06
323.15	0.0362	0.0006694	9.3e-06
323.15	0.0543	0.0006763	9.4e-06
323.15	0.0726	0.0006849	9.5e-06
323.15	0.0909	0.0006918	9.6e-06
323.15	0.1094	0.0006998	9.7e-06
323.15	0.128	0.0007075	9.8e-06
323.15	0.1465	0.0007189	9.9e-06
328.15	0	0.0006043	8.6e-06
328.15	0.018	0.0006195	8.7e-06
328.15	0.0362	0.0006271	8.8e-06
328.15	0.0543	0.0006337	8.8e-06
328.15	0.0726	0.0006406	8.9e-06
328.15	0.0909	0.0006509	9e-06
328.15	0.1094	0.0006562	9.1e-06
328.15	0.128	0.000663	9.2e-06
328.15	0.1465	0.0006768	9.3e-06

System: L-leucine + sodium chloride + water; phases: Liquid
Fixed: Pressure, kPa = 101
Fixed: Solvent: Amount concentration (molarity), mol/dm3 of sodium chloride = 2
Property: Viscosity, Pa*s (Liquid); method: CAPTUB:UFactor:2
Temperature, K	Molality, mol/kg of L-leucine	Viscosity, Pa*s	uncertainty
298.15	0	0.001085	1.44e-05
298.15	0.0186	0.0010933	1.46e-05
298.15	0.0374	0.0011112	1.48e-05
298.15	0.0562	0.0011152	1.49e-05
298.15	0.075	0.0011377	1.51e-05
298.15	0.094	0.0011621	1.53e-05
298.15	0.113	0.00118	1.56e-05
303.15	0	0.0009761	1.32e-05
303.15	0.0186	0.000981	1.32e-05
303.15	0.0374	0.0009882	1.34e-05
303.15	0.0562	0.0010042	1.35e-05
303.15	0.075	0.0010213	1.38e-05
303.15	0.094	0.0010473	1.42e-05
303.15	0.113	0.0010643	1.43e-05
308.15	0	0.0008816	1.2e-05
308.15	0.0186	0.0008908	1.2e-05
308.15	0.0374	0.0008997	1.21e-05
308.15	0.0562	0.0009084	1.23e-05
308.15	0.075	0.0009158	1.24e-05
308.15	0.094	0.0009268	1.26e-05
308.15	0.113	0.0009447	1.29e-05
313.15	0	0.00080695	1.1e-05
313.15	0.0186	0.0008162	1.11e-05
313.15	0.0374	0.0008233	1.12e-05
313.15	0.0562	0.0008301	1.13e-05
313.15	0.075	0.0008392	1.14e-05
313.15	0.094	0.0008493	1.15e-05
313.15	0.113	0.0008575	1.17e-05
318.15	0	0.0007426	1.03e-05
318.15	0.0186	0.0007423	1.03e-05
318.15	0.0374	0.0007529	1.04e-05
318.15	0.0562	0.0007597	1.04e-05
318.15	0.075	0.0007679	1.05e-05
318.15	0.094	0.0007753	1.06e-05
318.15	0.113	0.0007825	1.07e-05
323.15	0	0.000676	9.5e-06
323.15	0.0186	0.0006782	9.4e-06
323.15	0.0374	0.0006895	9.6e-06
323.15	0.0562	0.0006988	9.7e-06
323.15	0.075	0.0007078	9.8e-06
323.15	0.094	0.0007176	9.9e-06
323.15	0.113	0.000727	1e-05
328.15	0	0.0006257	8.8e-06
328.15	0.0186	0.000632	8.9e-06
328.15	0.0374	0.0006375	9e-06
328.15	0.0562	0.0006443	9.1e-06
328.15	0.075	0.0006499	9.2e-06
328.15	0.094	0.0006553	9.3e-06
328.15	0.113	0.0006594	9.4e-06

System: L-leucine + sodium nitrate + water; phases: Liquid
Fixed: Pressure, kPa = 101
Fixed: Solvent: Amount concentration (molarity), mol/dm3 of sodium nitrate = 2
Property: Viscosity, Pa*s (Liquid); method: CAPTUB:UFactor:2
Temperature, K	Molality, mol/kg of L-leucine	Viscosity, Pa*s	uncertainty
298.15	0	0.0010364	1.38e-05
298.15	0.0182	0.0010509	1.39e-05
298.15	0.0364	0.0010623	1.4e-05
298.15	0.0547	0.0010716	1.41e-05
298.15	0.0731	0.0010805	1.42e-05
298.15	0.0915	0.0010906	1.43e-05
298.15	0.1101	0.001099	1.44e-05
298.15	0.1287	0.0011078	1.45e-05
298.15	0.1474	0.0011179	1.46e-05
303.15	0	0.0009367	1.27e-05
303.15	0.0182	0.0009554	1.29e-05
303.15	0.0364	0.0009683	1.3e-05
303.15	0.0547	0.0009774	1.31e-05
303.15	0.0731	0.0009854	1.32e-05
303.15	0.0915	0.0009971	1.34e-05
303.15	0.1101	0.0010056	1.34e-05
303.15	0.1287	0.0010125	1.35e-05
303.15	0.1474	0.0010234	1.36e-05
308.15	0	0.0008519	1.16e-05
308.15	0.0182	0.0008592	1.17e-05
308.15	0.0364	0.0008711	1.19e-05
308.15	0.0547	0.0008804	1.2e-05
308.15	0.0731	0.0008843	1.2e-05
308.15	0.0915	0.0008951	1.22e-05
308.15	0.1101	0.0009062	1.23e-05
308.15	0.1287	0.0009166	1.24e-05
308.15	0.1474	0.0009283	1.25e-05
313.15	0	0.0007777	1.07e-05
313.15	0.0182	0.0007879	1.08e-05
313.15	0.0364	0.0007969	1.09e-05
313.15	0.0547	0.0008049	1.1e-05
313.15	0.0731	0.0008127	1.1e-05
313.15	0.0915	0.0008182	1.11e-05
313.15	0.1101	0.0008283	1.13e-05
313.15	0.1287	0.0008369	1.14e-05
313.15	0.1474	0.0008458	1.15e-05
318.15	0	0.0007167	9.9e-06
318.15	0.0182	0.0007208	1e-05
318.15	0.0364	0.0007332	1.01e-05
318.15	0.0547	0.0007411	1.02e-05
318.15	0.0731	0.0007481	1.03e-05
318.15	0.0915	0.0007545	1.04e-05
318.15	0.1101	0.0007619	1.05e-05
318.15	0.1287	0.0007704	1.06e-05
318.15	0.1474	0.0007802	1.07e-05
323.15	0	0.0006559	9.2e-06
323.15	0.0182	0.0006624	9.3e-06
323.15	0.0364	0.0006703	9.4e-06
323.15	0.0547	0.0006763	9.4e-06
323.15	0.0731	0.0006797	9.5e-06
323.15	0.0915	0.0006852	9.6e-06
323.15	0.1101	0.0006898	9.6e-06
323.15	0.1287	0.0006955	9.7e-06
323.15	0.1474	0.0007033	9.8e-06
328.15	0	0.0006043	8.6e-06
328.15	0.0182	0.0006132	8.7e-06
328.15	0.0364	0.0006202	8.8e-06
328.15	0.0547	0.000628	8.8e-06
328.15	0.0731	0.0006323	8.9e-06
328.15	0.0915	0.0006378	8.9e-06
328.15	0.1101	0.0006422	9e-06
328.15	0.1287	0.0006479	9e-06
328.15	0.1474	0.0006531	9.1e-06

System: L-glutamic acid + sodium chloride + water; phases: Liquid
Fixed: Pressure, kPa = 101
Fixed: Solvent: Amount concentration (molarity), mol/dm3 of sodium chloride = 2
Property: Viscosity, Pa*s (Liquid); method: CAPTUB:UFactor:2
Temperature, K	Molality, mol/kg of L-glutamic acid	Viscosity, Pa*s	uncertainty
298.15	0	0.001085	1.44e-05
298.15	0.0093	0.0010862	1.45e-05
298.15	0.0186	0.0010939	1.46e-05
298.15	0.028	0.0011008	1.47e-05
298.15	0.0373	0.0011038	1.47e-05
298.15	0.0467	0.0011077	1.47e-05
298.15	0.0561	0.0011137	1.48e-05
303.15	0	0.0009761	1.32e-05
303.15	0.0093	0.0009755	1.32e-05
303.15	0.0186	0.0009815	1.33e-05
303.15	0.028	0.0009864	1.33e-05
303.15	0.0373	0.0009909	1.34e-05
303.15	0.0467	0.0009966	1.34e-05
303.15	0.0561	0.0010026	1.35e-05
308.15	0	0.0008816	1.2e-05
308.15	0.0093	0.0008852	1.2e-05
308.15	0.0186	0.0008903	1.2e-05
308.15	0.028	0.0008959	1.21e-05
308.15	0.0373	0.0008978	1.21e-05
308.15	0.0467	0.0009026	1.22e-05
308.15	0.0561	0.0009076	1.23e-05
313.15	0	0.00080695	1.1e-05
313.15	0.0093	0.0008114	1.11e-05
313.15	0.0186	0.0008156	1.11e-05
313.15	0.028	0.0008202	1.12e-05
313.15	0.0373	0.0008239	1.12e-05
313.15	0.0467	0.0008286	1.13e-05
313.15	0.0561	0.0008335	1.13e-05
318.15	0	0.0007426	1.03e-05
318.15	0.0093	0.000741	1.03e-05
318.15	0.0186	0.0007459	1.03e-05
318.15	0.028	0.0007497	1.04e-05
318.15	0.0373	0.0007542	1.04e-05
318.15	0.0467	0.0007589	1.05e-05
318.15	0.0561	0.0007629	1.05e-05
323.15	0	0.000676	9.5e-06
323.15	0.0093	0.0006762	9.4e-06
323.15	0.0186	0.00068	9.5e-06
323.15	0.028	0.0006837	9.5e-06
323.15	0.0373	0.0006874	9.6e-06
323.15	0.0467	0.000692	9.6e-06
323.15	0.0561	0.0006967	9.7e-06
328.15	0	0.0006257	8.8e-06
328.15	0.0093	0.0006293	8.8e-06
328.15	0.0186	0.0006322	8.9e-06
328.15	0.028	0.0006359	8.9e-06
328.15	0.0373	0.0006388	9e-06
328.15	0.0467	0.0006424	9e-06
328.15	0.0561	0.0006454	9.1e-06

System: L-glutamic acid + sodium nitrate + water; phases: Liquid
Fixed: Pressure, kPa = 101
Fixed: Solvent: Amount concentration (molarity), mol/dm3 of sodium nitrate = 2
Property: Viscosity, Pa*s (Liquid); method: CAPTUB:UFactor:2
Temperature, K	Molality, mol/kg of L-glutamic acid	Viscosity, Pa*s	uncertainty
298.15	0	0.0010364	1.38e-05
298.15	0.0091	0.0010419	1.39e-05
298.15	0.0182	0.0010455	1.39e-05
298.15	0.0272	0.0010524	1.39e-05
298.15	0.0364	0.001057	1.4e-05
298.15	0.0455	0.0010652	1.41e-05
298.15	0.0546	0.0010724	1.41e-05
303.15	0	0.0009367	1.27e-05
303.15	0.0091	0.0009409	1.27e-05
303.15	0.0182	0.0009469	1.27e-05
303.15	0.0272	0.0009562	1.28e-05
303.15	0.0364	0.0009609	1.29e-05
303.15	0.0455	0.0009682	1.29e-05
303.15	0.0546	0.000978	1.3e-05
308.15	0	0.0008519	1.16e-05
308.15	0.0091	0.0008616	1.17e-05
308.15	0.0182	0.0008684	1.18e-05
308.15	0.0272	0.0008738	1.19e-05
308.15	0.0364	0.0008823	1.19e-05
308.15	0.0455	0.0008904	1.2e-05
308.15	0.0546	0.0008973	1.21e-05
313.15	0	0.0007777	1.07e-05
313.15	0.0091	0.0007838	1.08e-05
313.15	0.0182	0.0007881	1.08e-05
313.15	0.0272	0.0007932	1.09e-05
313.15	0.0364	0.0007983	1.09e-05
313.15	0.0455	0.0008046	1.1e-05
313.15	0.0546	0.0008103	1.11e-05
318.15	0	0.0007167	9.9e-06
318.15	0.0091	0.0007209	1e-05
318.15	0.0182	0.0007255	1e-05
318.15	0.0272	0.0007295	1.01e-05
318.15	0.0364	0.000739	1.02e-05
318.15	0.0455	0.0007462	1.03e-05
318.15	0.0546	0.0007543	1.04e-05
323.15	0	0.0006559	9.2e-06
323.15	0.0091	0.000658	9.2e-06
323.15	0.0182	0.000662	9.3e-06
323.15	0.0272	0.0006683	9.4e-06
323.15	0.0364	0.0006743	9.4e-06
323.15	0.0455	0.0006796	9.5e-06
323.15	0.0546	0.0006846	9.6e-06
328.15	0	0.0006043	8.6e-06
328.15	0.0091	0.0006078	8.6e-06
328.15	0.0182	0.0006122	8.7e-06
328.15	0.0272	0.0006157	8.7e-06
328.15	0.0364	0.0006218	8.8e-06
328.15	0.0455	0.0006261	8.9e-06
328.15	0.0546	0.0006317	8.9e-06

System: L-proline + sodium chloride + water; phases: Liquid
Fixed: Pressure, kPa = 101
Fixed: Solvent: Amount concentration (molarity), mol/dm3 of sodium chloride = 2
Property: Viscosity, Pa*s (Liquid); method: CAPTUB:UFactor:2
Temperature, K	Molality, mol/kg of L-proline	Viscosity, Pa*s	uncertainty
298.15	0	0.001085	1.44e-05
298.15	0.1893	0.0011417	1.52e-05
298.15	0.3854	0.0012223	1.61e-05
298.15	0.5881	0.0013074	1.72e-05
298.15	0.7988	0.0014125	1.83e-05
298.15	1.0166	0.0014865	1.91e-05
298.15	1.2426	0.001632	2.09e-05
298.15	1.4782	0.0017291	2.22e-05
298.15	1.7234	0.0018447	2.37e-05
303.15	0	0.0009761	1.32e-05
303.15	0.1893	0.0010259	1.38e-05
303.15	0.3854	0.0010961	1.47e-05
303.15	0.5881	0.0011713	1.56e-05
303.15	0.7988	0.0012651	1.67e-05
303.15	1.0166	0.0013683	1.79e-05
303.15	1.2426	0.0014548	1.91e-05
303.15	1.4782	0.0015516	2.03e-05
303.15	1.7234	0.0016474	2.14e-05
308.15	0	0.0008816	1.2e-05
308.15	0.1893	0.0009324	1.26e-05
308.15	0.3854	0.0009878	1.32e-05
308.15	0.5881	0.0010586	1.41e-05
308.15	0.7988	0.0011472	1.52e-05
308.15	1.0166	0.0011976	1.61e-05
308.15	1.2426	0.0012996	1.72e-05
308.15	1.4782	0.001381	1.82e-05
308.15	1.7234	0.0014731	1.93e-05
313.15	0	0.00080695	1.1e-05
313.15	0.1893	0.00085119	1.154e-05
313.15	0.3854	0.00090433	1.217e-05
313.15	0.5881	0.00096918	1.298e-05
313.15	0.7988	0.0010306	1.38e-05
313.15	1.0166	0.0010784	1.44e-05
313.15	1.2426	0.0011715	1.54e-05
313.15	1.4782	0.0012396	1.62e-05
313.15	1.7234	0.0013182	1.73e-05
318.15	0	0.0007426	1.03e-05
318.15	0.1893	0.0007822	1.07e-05
318.15	0.3854	0.0008271	1.13e-05
318.15	0.5881	0.0008792	1.2e-05
318.15	0.7988	0.0009463	1.27e-05
318.15	1.0166	0.000983	1.31e-05
318.15	1.2426	0.0010774	1.43e-05
318.15	1.4782	0.0011416	1.51e-05
318.15	1.7234	0.0012	1.58e-05
323.15	0	0.000676	9.5e-06
323.15	0.1893	0.0007106	9.9e-06
323.15	0.3854	0.0007552	1.04e-05
323.15	0.5881	0.0007984	1.08e-05
323.15	0.7988	0.0008527	1.16e-05
323.15	1.0166	0.0009083	1.21e-05
323.15	1.2426	0.0009643	1.3e-05
323.15	1.4782	0.0010168	1.36e-05
323.15	1.7234	0.0010771	1.43e-05
328.15	0	0.0006257	8.8e-06
328.15	0.1893	0.0006591	9.2e-06
328.15	0.3854	0.0006981	9.6e-06
328.15	0.5881	0.0007529	1.03e-05
328.15	0.7988	0.0007869	1.07e-05
328.15	1.0166	0.0008383	1.14e-05
328.15	1.2426	0.0008878	1.19e-05
328.15	1.4782	0.0009418	1.26e-05
328.15	1.7234	0.0009856	1.32e-05

System: L-proline + sodium nitrate + water; phases: Liquid
Fixed: Pressure, kPa = 101
Fixed: Solvent: Amount concentration (molarity), mol/dm3 of sodium nitrate = 2
Property: Viscosity, Pa*s (Liquid); method: CAPTUB:UFactor:2
Temperature, K	Molality, mol/kg of L-proline	Viscosity, Pa*s	uncertainty
298.15	0	0.0010364	1.38e-05
298.15	0.1841	0.0011095	1.48e-05
298.15	0.3748	0.0011844	1.56e-05
298.15	0.5725	0.0012625	1.66e-05
298.15	0.7773	0.001345	1.77e-05
298.15	0.9898	0.0014344	1.88e-05
298.15	1.211	0.0015431	2.01e-05
298.15	1.4404	0.0016531	2.15e-05
298.15	1.6789	0.0017797	2.3e-05
303.15	0	0.0009367	1.27e-05
303.15	0.1841	0.0009951	1.34e-05
303.15	0.3748	0.0010652	1.43e-05
303.15	0.5725	0.0011327	1.51e-05
303.15	0.7773	0.0011999	1.6e-05
303.15	0.9898	0.0012802	1.69e-05
303.15	1.211	0.0013705	1.81e-05
303.15	1.4404	0.0014711	1.93e-05
303.15	1.6789	0.0015818	2.07e-05
308.15	0	0.0008519	1.16e-05
308.15	0.1841	0.0009134	1.23e-05
308.15	0.3748	0.0009619	1.3e-05
308.15	0.5725	0.0010216	1.37e-05
308.15	0.7773	0.0010835	1.44e-05
308.15	0.9898	0.001153	1.53e-05
308.15	1.211	0.0012241	1.62e-05
308.15	1.4404	0.0013199	1.74e-05
308.15	1.6789	0.0014139	1.85e-05
313.15	0	0.0007777	1.07e-05
313.15	0.1841	0.0008281	1.13e-05
313.15	0.3748	0.0008743	1.18e-05
313.15	0.5725	0.0009272	1.25e-05
313.15	0.7773	0.0009866	1.32e-05
313.15	0.9898	0.0010464	1.39e-05
313.15	1.211	0.0011133	1.47e-05
313.15	1.4404	0.0011891	1.56e-05
313.15	1.6789	0.0012749	1.67e-05
318.15	0	0.0007167	9.9e-06
318.15	0.1841	0.0007694	1.05e-05
318.15	0.3748	0.0008065	1.1e-05
318.15	0.5725	0.0008502	1.15e-05
318.15	0.7773	0.0009001	1.22e-05
318.15	0.9898	0.0009595	1.29e-05
318.15	1.211	0.0010152	1.35e-05
318.15	1.4404	0.0010933	1.45e-05
318.15	1.6789	0.0011575	1.53e-05
323.15	0	0.0006559	9.2e-06
323.15	0.1841	0.0006986	9.7e-06
323.15	0.3748	0.0007324	1.01e-05
323.15	0.5725	0.0007744	1.06e-05
323.15	0.7773	0.0008194	1.12e-05
323.15	0.9898	0.0008705	1.18e-05
323.15	1.211	0.0009206	1.24e-05
323.15	1.4404	0.0009791	1.31e-05
323.15	1.6789	0.0010472	1.39e-05
328.15	0	0.0006043	8.6e-06
328.15	0.1841	0.0006448	9.1e-06
328.15	0.3748	0.0006785	9.4e-06
328.15	0.5725	0.0007165	9.9e-06
328.15	0.7773	0.0007548	1.04e-05
328.15	0.9898	0.0008019	1.09e-05
328.15	1.211	0.0008498	1.15e-05
328.15	1.4404	0.0009041	1.21e-05
328.15	1.6789	0.0009608	1.29e-05
