Measured thermophysical data. Solubilities of Pharmaceutical Compounds in Ionic Liquids
Source: J. Chem. Eng. Data, 2011, 10.1021/je101040p
Compound 1: 1-butyl-3-methylimidazolium hexafluorophosphate, C8H15F6N2P, InChI=1S/C8H15N2.F6P/c1-3-4-5-10-7-6-9(2)8-10;1-7(2,3,4,5)6/h6-8H,3-5H2,1-2H3;/q+1;-1
Compound 2: 1-hexyl-3-methylimidazolium hexafluorophosphate, C10H19F6N2P, InChI=1S/C10H19N2.F6P/c1-3-4-5-6-7-12-9-8-11(2)10-12;1-7(2,3,4,5)6/h8-10H,3-7H2,1-2H3;/q+1;-1
Compound 3: ibuprofen, C13H18O2, InChI=1S/C13H18O2/c1-9(2)8-11-4-6-12(7-5-11)10(3)13(14)15/h4-7,9-10H,8H2,1-3H3,(H,14,15)
Compound 4: N-acetyl-p-aminophenol, C8H9NO2, InChI=1S/C8H9NO2/c1-6(10)9-7-2-4-8(11)5-3-7/h2-5,11H,1H3,(H,9,10)
Compound 5: water, H2O, InChI=1S/H2O/h1H2, purity 99.9%

System: ibuprofen + 1-butyl-3-methylimidazolium hexafluorophosphate; phases: Liquid, Crystal
Fixed: Pressure, kPa = 101
Property: Mass concentration, kg/m3 (Liquid); method: UV Spectrophotometry
Temperature, K	Mass concentration, kg/m3	uncertainty
298.15	12.176	1.218
308.15	20.271	2.027
318.15	31.527	3.153
328.15	36.448	3.645
338.15	56.806	5.681

System: N-acetyl-p-aminophenol + 1-butyl-3-methylimidazolium hexafluorophosphate; phases: Liquid, Crystal
Fixed: Pressure, kPa = 101
Property: Mass concentration, kg/m3 (Liquid); method: UV Spectrophotometry
Temperature, K	Mass concentration, kg/m3	uncertainty
298.15	6.948	0.695
308.15	10.05	1.34
318.15	11.0141	2.3097
328.15	15.668	1.567
338.15	23.087	2.309

System: ibuprofen + 1-hexyl-3-methylimidazolium hexafluorophosphate; phases: Liquid, Crystal
Fixed: Pressure, kPa = 101
Property: Mass concentration, kg/m3 (Liquid); method: UV Spectrophotometry
Temperature, K	Mass concentration, kg/m3	uncertainty
298.15	26.384	3.815
308.15	37.198	4.528
318.15	50.763	5.076
328.15	65.882	6.588
338.15	120.413	12.041

System: N-acetyl-p-aminophenol + 1-hexyl-3-methylimidazolium hexafluorophosphate; phases: Liquid, Crystal
Fixed: Pressure, kPa = 101
Property: Mass concentration, kg/m3 (Liquid); method: UV Spectrophotometry
Temperature, K	Mass concentration, kg/m3	uncertainty
298.15	13.209	2.136
308.15	15.223	1.522
318.15	20.855	2.524
328.15	26.125	2.613
338.15	30.401	5.607

System: water + ibuprofen; phases: Liquid, Crystal
Fixed: Pressure, kPa = 101
Property: Mass concentration, kg/m3 (Liquid); method: UV Spectrophotometry
Temperature, K	Mass concentration, kg/m3	uncertainty
298.15	0.124	0.012
308.15	0.179	0.037
318.15	0.276	0.141
328.15	0.376	0.128
338.15	0.523	0.15

System: N-acetyl-p-aminophenol + water; phases: Liquid, Crystal
Fixed: Pressure, kPa = 101
Property: Mass concentration, kg/m3 (Liquid); method: UV Spectrophotometry
Temperature, K	Mass concentration, kg/m3	uncertainty
298.15	19.159	1.916
308.15	25.446	2.545
318.15	34.453	3.445
328.15	51.596	5.16
338.15	66.552	6.655
