Measured thermophysical data. Sound Velocity and Adiabatic Compressibility of Molten MCl + NdCl3 Mixtures (M = Li, Na, K, and Cs)
Source: J. Chem. Eng. Data, 2010, 10.1021/je100554g
Compound 1: neodymium(III) chloride, Cl3Nd, InChI=1S/3ClH.Nd/h3*1H;/q;;;+3/p-3
Compound 2: lithium chloride, ClLi, InChI=1S/ClH.Li/h1H;/q;+1/p-1
Compound 3: sodium chloride, ClNa, InChI=1S/ClH.Na/h1H;/q;+1/p-1
Compound 4: potassium chloride, ClK, InChI=1S/ClH.K/h1H;/q;+1/p-1
Compound 5: cesium chloride, ClCs, InChI=1S/ClH.Cs/h1H;/q;+1/p-1

System: neodymium(III) chloride; phases: Liquid
Fixed: Pressure, kPa = 101.325
Property: Speed of sound, m/s (Liquid); method: Pulse-echo method
Temperature, K	Speed of sound, m/s	uncertainty
1044	1248	14
1045	1259	14
1075	1237	13
1083	1227	13
1099	1227	13
1148	1223	13
1165	1212	13
1184	1188	13
1218	1190	13

System: lithium chloride; phases: Liquid
Fixed: Pressure, kPa = 101.325
Property: Speed of sound, m/s (Liquid); method: Pulse-echo method
Temperature, K	Speed of sound, m/s	uncertainty
950	1988	21
976	1973	20
1003	1945	20
1030	1924	20
1062	1894	20
1082	1879	19
1110	1858	19
1148	1825	19
1181	1791	19

System: lithium chloride + neodymium(III) chloride; phases: Liquid
Fixed: Mole fraction of neodymium(III) chloride = 0.5
Fixed: Pressure, kPa = 101
Property: Speed of sound, m/s (Liquid); method: Pulse-echo method
Temperature, K	Speed of sound, m/s	uncertainty
995	1395	15
1033	1374	15
1108	1350	14
1133	1331	14
1167	1326	14

System: sodium chloride + neodymium(III) chloride; phases: Liquid
Fixed: Pressure, kPa = 101
Property: Speed of sound, m/s (Liquid); method: Pulse-echo method
Temperature, K	Mole fraction of neodymium(III) chloride	Speed of sound, m/s	uncertainty
1009	0.365	1450	15
1048	0.365	1418	15
1053	0.2	1520	16
1063	0.75	1290	14
1073	0.2	1502	16
1073	0.75	1285	14
1074	0.365	1389	15
1090	0.44	1350	14
1100	0.365	1368	15
1103	0.2	1465	16
1103	0.44	1340	14
1103	0.75	1270	14
1115	0.44	1325	14
1123	0.44	1330	14
1127	0.2	1476	16
1128	0.365	1354	14
1133	0.44	1325	14
1133	0.75	1256	14
1143	0.2	1447	15
1143	0.44	1322	14
1150	0.44	1307	14
1154	0.75	1250	13
1155	0.365	1357	14
1173	0.2	1420	15
1175	0.365	1340	14
1176	0.75	1240	13

System: potassium chloride + neodymium(III) chloride; phases: Liquid
Fixed: Pressure, kPa = 101
Property: Speed of sound, m/s (Liquid); method: Pulse-echo method
Temperature, K	Mole fraction of neodymium(III) chloride	Speed of sound, m/s	uncertainty
1007	0.75	1275	14
1037	0.75	1259	14
1053	0.37	1283	14
1058	0.25	1370	15
1063	0.5	1259	14
1067	0.75	1240	13
1076	0.25	1355	14
1080	0.37	1260	14
1088	0.5	1240	13
1096	0.25	1340	14
1110	0.37	1250	13
1110	0.75	1225	13
1118	0.25	1315	14
1124	0.5	1230	13
1128	0.37	1241	13
1139	0.75	1210	13
1145	0.37	1223	13
1146	0.25	1300	14
1150	0.5	1214	13
1163	0.75	1197	13
1173	0.37	1212	13
1176	0.25	1256	14
1178	0.37	1200	13
1185	0.5	1190	13
1186	0.25	1260	14
1203	0.5	1186	13
1213	0.25	1234	13

System: cesium chloride + neodymium(III) chloride; phases: Liquid
Fixed: Pressure, kPa = 101
Property: Speed of sound, m/s (Liquid); method: Pulse-echo method
Temperature, K	Mole fraction of neodymium(III) chloride	Speed of sound, m/s	uncertainty
913	0.45	1110	12
968	0.45	1080	12
998	0.8	1205	13
1008	0.45	1053	12
1043	0.8	1172	13
1061	0.45	1026	11
1083	0.8	1148	13
1112	0.45	998	11
1123	0.8	1129	12
1138	0.45	980	11
1143	0.8	1115	12
1147	0.25	969	11
1169	0.25	961	11
1188	0.25	953	11
1207	0.25	949	11
1226	0.25	941	11
1245	0.25	934	11
