Measured thermophysical data. Solubilities and Adsorption Equilibria of beta-Carotene in Supercritical and Near-Critical Fluids
Source: J. Chem. Eng. Data, 2011, 10.1021/je100229f
Compound 1: .beta.-carotene, C40H56, InChI=1S/C40H56/c1-31(19-13-21-33(3)25-27-37-35(5)23-15-29-39(37,7)8)17-11-12-18-32(2)20-14-22-34(4)26-28-38-36(6)24-16-30-40(38,9)10/h11-14,17-22,25-28H,15-16,23-24,29-30H2,1-10H3/b12-11+,19-13+,20-14+,27-25+,28-26+,31-17+,32-18+,33-21+,34-22+
Compound 2: propane, C3H8, InChI=1S/C3H8/c1-3-2/h3H2,1-2H3

System: propane + .beta.-carotene; phases: Liquid, Gas
Property: Mole fraction of .beta.-carotene (Liquid); method: Chromatography
Temperature, K	Pressure, kPa	Mole fraction of .beta.-carotene	uncertainty
303	3350	9.2e-06	5e-07
303	5400	1.03e-05	7e-07
303	6300	1.05e-05	8e-07
303	7400	1.12e-05	8e-07
303	8800	1.21e-05	1.2e-06
303	9650	1.24e-05	1.2e-06
303	11000	1.41e-05	1.3e-06
303	12700	1.68e-05	1e-06
313	3200	1.14e-05	7e-07
313	4650	1.3e-05	1.2e-06
313	6900	1.5e-05	1.4e-06
313	8000	1.65e-05	1.5e-06
313	9200	1.82e-05	1.6e-06
313	10200	1.94e-05	1.8e-06
313	12000	2.02e-05	2.1e-06
313	13400	2.27e-05	1e-06
323	3200	1.6e-05	1e-06
323	4800	1.87e-05	1.2e-06
323	7300	2.44e-05	1.8e-06
323	8600	2.73e-05	1.9e-06
323	10600	3.1e-05	2.4e-06
323	12200	3.63e-05	3.2e-06
