Measured thermophysical data. Densities, Viscosities, and Refractive Indices of 1-Hexyl-3-propanenitrile Imidazolium Ionic Liquids Incorporated with Sulfonate-Based Anions
Source: J. Chem. Eng. Data, 2011, 10.1021/je101316g
Compound 1: 1-(2-cyanoethyl)-3-hexyl-1H-imidazol-3-ium 1,4-bis((2-ethylhexyl)oxy)-1,4-dioxobutane-2-sulfonate, C32H57N3O7S, InChI=1S/C20H38O7S.C12H20N3/c1-5-9-11-16(7-3)14-26-19(21)13-18(28(23,24)25)20(22)27-15-17(8-4)12-10-6-2;1-2-3-4-5-8-14-10-11-15(12-14)9-6-7-13/h16-18H,5-15H2,1-4H3,(H,23,24,25);10-12H,2-6,8-9H2,1H3/q;+1/p-1
Compound 2: 3-(2-cyanoethyl)-1-hexyl-1H-imidazolium dodecyl sulfate, C24H45N3O4S, InChI=1S/C12H20N3.C12H26O4S/c1-2-3-4-5-8-14-10-11-15(12-14)9-6-7-13;1-2-3-4-5-6-7-8-9-10-11-12-16-17(13,14)15/h10-12H,2-6,8-9H2,1H3;2-12H2,1H3,(H,13,14,15)/q+1;/p-1
Compound 3: 3-(2-cyanoethyl)-1-hexyl-1H-imidazolium benzenesulfonate, C18H25N3O3S, InChI=1S/C12H20N3.C6H6O3S/c1-2-3-4-5-8-14-10-11-15(12-14)9-6-7-13;7-10(8,9)6-4-2-1-3-5-6/h10-12H,2-6,8-9H2,1H3;1-5H,(H,7,8,9)/q+1;/p-1
Compound 4: 3-(2-cyanoethyl)-1-hexyl-1H-imidazolium 3-sulfobenzoate, C19H25N3O5S, InChI=1S/C12H20N3.C7H6O5S/c1-2-3-4-5-8-14-10-11-15(12-14)9-6-7-13;8-7(9)5-2-1-3-6(4-5)13(10,11)12/h10-12H,2-6,8-9H2,1H3;1-4H,(H,8,9)(H,10,11,12)/q+1;/p-1
Compound 5: 3-(2-cyanoethyl)-1-hexyl-1H-imidazolium trifluoromethanesulfonate, C13H20F3N3O3S, InChI=1S/C12H20N3.CHF3O3S/c1-2-3-4-5-8-14-10-11-15(12-14)9-6-7-13;2-1(3,4)8(5,6)7/h10-12H,2-6,8-9H2,1H3;(H,5,6,7)/q+1;/p-1

System: 1-(2-cyanoethyl)-3-hexyl-1H-imidazol-3-ium 1,4-bis((2-ethylhexyl)oxy)-1,4-dioxobutane-2-sulfonate; phases: Liquid
Fixed: Pressure, kPa = 101.325
Property: Viscosity, Pa*s (Liquid); method: CONCYL:UFactor:4
Temperature, K	Viscosity, Pa*s	uncertainty
298.15	19.8963	6.4266
303.15	12.1174	3.595
308.15	7.5714	2.0553
313.15	4.5867	1.1222
318.15	2.9395	0.6487
323.15	1.9477	0.3869
328.15	1.2647	0.2221
333.15	0.8483	0.1309
338.15	0.5794	0.0776
343.15	0.4114	0.0477
348.15	0.2786	0.0266
353.15	0.1912	0.0147

System: 1-(2-cyanoethyl)-3-hexyl-1H-imidazol-3-ium 1,4-bis((2-ethylhexyl)oxy)-1,4-dioxobutane-2-sulfonate; phases: Liquid
Fixed: Pressure, kPa = 101.325
Property: Refractive index (Na D-line) (Liquid); method: Standard Abbe refractometry
Temperature, K	Refractive index (Na D-line)	uncertainty
298.15	1.4797	0.00076
303.15	1.47841	0.00076
308.15	1.47709	0.00076
313.15	1.4758	0.00076
318.15	1.47447	0.00076
323.15	1.47305	0.00076
328.15	1.47171	0.00076
333.15	1.47029	0.00077

System: 1-(2-cyanoethyl)-3-hexyl-1H-imidazol-3-ium 1,4-bis((2-ethylhexyl)oxy)-1,4-dioxobutane-2-sulfonate; phases: Liquid
Fixed: Pressure, kPa = 101.325
Property: Mass density, kg/m3 (Liquid); method: Vibrating tube method
Temperature, K	Mass density, kg/m3	uncertainty
293.15	1092.7	2.6
298.15	1089	2.6
303.15	1085.4	2.6
308.15	1081.8	2.5
313.15	1078.3	2.5
318.15	1074.8	2.5
323.15	1071.3	2.5
328.15	1067.9	2.5
333.15	1064.4	2.5
338.15	1061	2.4
343.15	1057.6	2.4
348.15	1054.2	2.4
353.15	1050.7	2.4

System: 3-(2-cyanoethyl)-1-hexyl-1H-imidazolium dodecyl sulfate; phases: Liquid
Fixed: Pressure, kPa = 101.325
Property: Viscosity, Pa*s (Liquid); method: CONCYL:UFactor:4
Temperature, K	Viscosity, Pa*s	uncertainty
298.15	13.7697	4.1752
303.15	8.2527	2.2784
308.15	5.1852	1.3017
313.15	3.3546	0.764
318.15	2.051	0.4135
323.15	1.3018	0.2307
328.15	0.8463	0.1305
333.15	0.5669	0.0753
338.15	0.3901	0.0441
343.15	0.2749	0.026
348.15	0.1895	0.0143
353.15	0.1336	0.0077

System: 3-(2-cyanoethyl)-1-hexyl-1H-imidazolium dodecyl sulfate; phases: Liquid
Fixed: Pressure, kPa = 101.325
Property: Refractive index (Na D-line) (Liquid); method: Standard Abbe refractometry
Temperature, K	Refractive index (Na D-line)	uncertainty
298.15	1.48409	0.00073
303.15	1.48269	0.00073
308.15	1.48125	0.00073
313.15	1.47991	0.00072
318.15	1.47863	0.00073
323.15	1.47702	0.00074
328.15	1.47566	0.00073
333.15	1.47422	0.00073

System: 3-(2-cyanoethyl)-1-hexyl-1H-imidazolium dodecyl sulfate; phases: Liquid
Fixed: Pressure, kPa = 101.325
Property: Mass density, kg/m3 (Liquid); method: Vibrating tube method
Temperature, K	Mass density, kg/m3	uncertainty
293.15	1101.1	2.3
298.15	1097.8	2.3
303.15	1094.5	2.3
308.15	1091.2	2.3
313.15	1088	2.3
318.15	1084.7	2.3
323.15	1081.5	2.3
328.15	1078.3	2.3
333.15	1075.1	2.2
338.15	1071.9	2.2
343.15	1068.8	2.2
348.15	1065.6	2.2
353.15	1062.6	2.2

System: 3-(2-cyanoethyl)-1-hexyl-1H-imidazolium benzenesulfonate; phases: Liquid
Fixed: Pressure, kPa = 101.325
Property: Viscosity, Pa*s (Liquid); method: CONCYL:UFactor:4
Temperature, K	Viscosity, Pa*s	uncertainty
293.15	7.0794	1.8936
298.15	4.2681	1.0271
303.15	2.8656	0.628
308.15	1.7951	0.3488
313.15	1.1704	0.2005
318.15	0.7813	0.117
323.15	0.5376	0.0698
328.15	0.3599	0.0391
333.15	0.2742	0.0258
338.15	0.181	0.0132
343.15	0.1336	0.0076
348.15	0.0946	0.0038
353.15	0.07	0.0019

System: 3-(2-cyanoethyl)-1-hexyl-1H-imidazolium benzenesulfonate; phases: Liquid
Fixed: Pressure, kPa = 101.325
Property: Refractive index (Na D-line) (Liquid); method: Standard Abbe refractometry
Temperature, K	Refractive index (Na D-line)	uncertainty
298.15	1.527	0.00066
303.15	1.5261	0.00067
308.15	1.52499	0.00068
313.15	1.52382	0.00068
318.15	1.52266	0.00068
323.15	1.52145	0.00068
328.15	1.52025	0.00069
333.15	1.51899	0.00069

System: 3-(2-cyanoethyl)-1-hexyl-1H-imidazolium benzenesulfonate; phases: Liquid
Fixed: Pressure, kPa = 101.325
Property: Mass density, kg/m3 (Liquid); method: Vibrating tube method
Temperature, K	Mass density, kg/m3	uncertainty
293.15	1226	2.5
298.15	1222.7	2.5
303.15	1219.4	2.5
308.15	1216.1	2.5
313.15	1212.8	2.5
318.15	1209.6	2.5
323.15	1206.3	2.5
328.15	1203	2.4
333.15	1199.7	2.4
338.15	1196.5	2.4
343.15	1193.3	2.4
348.15	1190.1	2.4
353.15	1187.8	2.4

System: 3-(2-cyanoethyl)-1-hexyl-1H-imidazolium 3-sulfobenzoate; phases: Liquid
Fixed: Pressure, kPa = 101.325
Property: Viscosity, Pa*s (Liquid); method: CONCYL:UFactor:4
Temperature, K	Viscosity, Pa*s	uncertainty
293.15	19.212	6.1704
298.15	11.463	3.367
303.15	7.5783	2.0566
308.15	4.7658	1.1755
313.15	3.0011	0.6659
318.15	1.9533	0.3886
323.15	1.1899	0.2054
328.15	0.8305	0.1272
333.15	0.5573	0.0737
338.15	0.3521	0.0382
343.15	0.2255	0.0193
348.15	0.1336	0.0079
353.15	0.0928	0.0038

System: 3-(2-cyanoethyl)-1-hexyl-1H-imidazolium 3-sulfobenzoate; phases: Liquid
Fixed: Pressure, kPa = 101.325
Property: Refractive index (Na D-line) (Liquid); method: Standard Abbe refractometry
Temperature, K	Refractive index (Na D-line)	uncertainty
298.15	1.52295	0.00074
303.15	1.52221	0.00074
308.15	1.52146	0.00075
313.15	1.52029	0.00076
318.15	1.51936	0.00076
323.15	1.518	0.00078
328.15	1.51666	0.00079
333.15	1.51502	0.0008

System: 3-(2-cyanoethyl)-1-hexyl-1H-imidazolium 3-sulfobenzoate; phases: Liquid
Fixed: Pressure, kPa = 101.325
Property: Mass density, kg/m3 (Liquid); method: Vibrating tube method
Temperature, K	Mass density, kg/m3	uncertainty
293.15	1248.1	3.6
298.15	1244.6	3.6
303.15	1241.2	3.6
308.15	1238	3.6
313.15	1234.7	3.6
318.15	1231.5	3.5
323.15	1228.2	3.5
328.15	1225	3.5
333.15	1221.8	3.5
338.15	1218.6	3.5
343.15	1215.4	3.4
348.15	1212.1	3.4
353.15	1208.9	3.4

System: 3-(2-cyanoethyl)-1-hexyl-1H-imidazolium trifluoromethanesulfonate; phases: Liquid
Fixed: Pressure, kPa = 101.325
Property: Viscosity, Pa*s (Liquid); method: CONCYL:UFactor:4
Temperature, K	Viscosity, Pa*s	uncertainty
293.15	2.2436	0.4624
298.15	1.4697	0.2701
303.15	0.9919	0.1615
308.15	0.6485	0.0911
313.15	0.4378	0.0523
318.15	0.3019	0.0302
323.15	0.214	0.0175
328.15	0.1551	0.0102
333.15	0.1027	0.0047
338.15	0.0774	0.0025
343.15	0.0548	0.0013
348.15	0.0401	0.001
353.15	0.0294	0.0008

System: 3-(2-cyanoethyl)-1-hexyl-1H-imidazolium trifluoromethanesulfonate; phases: Liquid
Fixed: Pressure, kPa = 101.325
Property: Refractive index (Na D-line) (Liquid); method: Standard Abbe refractometry
Temperature, K	Refractive index (Na D-line)	uncertainty
298.15	1.52975	0.0008
303.15	1.52891	0.00081
308.15	1.52774	0.00081
313.15	1.52683	0.00081
318.15	1.5259	0.00081
323.15	1.52464	0.00082
328.15	1.52334	0.00082
333.15	1.52226	0.00081

System: 3-(2-cyanoethyl)-1-hexyl-1H-imidazolium trifluoromethanesulfonate; phases: Liquid
Fixed: Pressure, kPa = 101.325
Property: Mass density, kg/m3 (Liquid); method: Vibrating tube method
Temperature, K	Mass density, kg/m3	uncertainty
293.15	1289.6	4.6
298.15	1285.7	4.6
303.15	1281.9	4.6
308.15	1278.3	4.6
313.15	1274.6	4.5
318.15	1271	4.5
323.15	1267.4	4.5
328.15	1263.8	4.5
333.15	1260.2	4.4
338.15	1256.6	4.4
343.15	1253.1	4.4
348.15	1249.2	4.3
353.15	1245.8	4.3
