Measured thermophysical data. P, rho, and T Measurements of the Limonene + alpha-Pinene Mixtures
Source: J. Chem. Eng. Data, 2011, 10.1021/je1009619
Compound 1: (R)-1-methyl-4-(1-methylethenyl)cyclohexene, C10H16, InChI=1S/C10H16/c1-8(2)10-6-4-9(3)5-7-10/h4,10H,1,5-7H2,2-3H3/t10-/m0/s1, purity 98%
Compound 2: (S)-2-pinene, C10H16, InChI=1S/C10H16/c1-7-4-5-8-6-9(7)10(8,2)3/h4,8-9H,5-6H2,1-3H3/t8-,9-/m0/s1, purity 98%

System: (R)-1-methyl-4-(1-methylethenyl)cyclohexene; phases: Liquid
Property: Mass density, kg/m3 (Liquid); method: Vibrating tube method
Temperature, K	Pressure, kPa	Mass density, kg/m3	uncertainty
283.15	20000	862	0.9
283.15	25000	864.9	0.9
283.15	30000	867.7	0.9
283.15	35000	870.4	0.9
283.15	40000	873.3	1
298.15	20000	851.5	0.9
298.15	25000	854.5	0.9
298.15	30000	857.6	0.9
298.15	35000	860.9	0.9
298.15	40000	863.4	1
313.15	20000	841	0.9
313.15	25000	844.2	0.9
313.15	30000	847.2	0.9
313.15	35000	850.3	0.9
313.15	40000	853.3	1
328.15	20000	830.5	0.9
328.15	25000	833.8	0.9
328.15	30000	837.2	0.9
328.15	35000	840.4	1
328.15	40000	843.8	1
343.15	20000	820.1	0.9
343.15	25000	823.7	0.9
343.15	30000	827.3	0.9
343.15	35000	831.1	1
343.15	40000	834.6	1
358.15	20000	810.2	0.9
358.15	25000	813.9	0.9
358.15	30000	817.6	0.9
358.15	35000	821.3	1
358.15	40000	824.8	1

System: (S)-2-pinene; phases: Liquid
Property: Mass density, kg/m3 (Liquid); method: Vibrating tube method
Temperature, K	Pressure, kPa	Mass density, kg/m3	uncertainty
283.15	20000	880	0.9
283.15	25000	883.2	0.9
283.15	30000	886.3	0.9
283.15	35000	889.4	0.9
283.15	40000	892.5	1
298.15	20000	868.8	0.9
298.15	25000	872.1	0.9
298.15	30000	875.3	0.9
298.15	35000	878.6	0.9
298.15	40000	881.9	1
313.15	20000	858	0.9
313.15	25000	861.3	0.9
313.15	30000	864.7	0.9
313.15	35000	867.9	0.9
313.15	40000	871.3	1
328.15	20000	846.7	0.9
328.15	25000	850.4	0.9
328.15	30000	854	0.9
328.15	35000	857.5	0.9
328.15	40000	861.1	1
343.15	20000	835.9	0.9
343.15	25000	839.7	0.9
343.15	30000	843.8	0.9
343.15	35000	847.7	1
343.15	40000	851.4	1
358.15	20000	825	0.9
358.15	25000	829.2	0.9
358.15	30000	833.3	0.9
358.15	35000	837.4	1
358.15	40000	841.5	1

System: (R)-1-methyl-4-(1-methylethenyl)cyclohexene + (S)-2-pinene; phases: Liquid
Property: Mass density, kg/m3 (Liquid); method: Vibrating tube method
Temperature, K	Pressure, kPa	Mole fraction of (R)-1-methyl-4-(1-methylethenyl)cyclohexene	Mass density, kg/m3	uncertainty
283.15	20000	0	880	0.9
283.15	20000	0.0976	878.3	0.9
283.15	20000	0.1991	876.4	0.9
283.15	20000	0.2983	874.6	0.9
283.15	20000	0.3955	872.9	0.9
283.15	20000	0.5036	870.9	0.9
283.15	20000	0.5967	869.2	0.9
283.15	20000	0.7024	867.4	0.9
283.15	20000	0.8084	865.3	0.9
283.15	20000	0.906	863.5	0.9
283.15	20000	1	862	0.9
283.15	25000	0	883.2	0.9
283.15	25000	0.0976	881.4	0.9
283.15	25000	0.1991	879.3	0.9
283.15	25000	0.2983	877.6	0.9
283.15	25000	0.3955	875.8	0.9
283.15	25000	0.5036	873.8	0.9
283.15	25000	0.5967	872.1	0.9
283.15	25000	0.7024	870.3	0.9
283.15	25000	0.8084	868.3	0.9
283.15	25000	0.906	866.6	0.9
283.15	25000	1	864.9	0.9
283.15	30000	0	886.3	0.9
283.15	30000	0.0976	884.3	0.9
283.15	30000	0.1991	882.4	0.9
283.15	30000	0.2983	880.5	0.9
283.15	30000	0.3955	878.7	0.9
283.15	30000	0.5036	876.7	0.9
283.15	30000	0.5967	875.1	0.9
283.15	30000	0.7024	873.1	0.9
283.15	30000	0.8084	871.3	0.9
283.15	30000	0.906	869.2	0.9
283.15	30000	1	867.7	0.9
283.15	35000	0	889.4	0.9
283.15	35000	0.0976	887.5	0.9
283.15	35000	0.1991	885.4	0.9
283.15	35000	0.2983	883.4	0.9
283.15	35000	0.3955	881.7	0.9
283.15	35000	0.5036	879.7	0.9
283.15	35000	0.5967	878	0.9
283.15	35000	0.7024	876.1	0.9
283.15	35000	0.8084	873.9	0.9
283.15	35000	0.906	871.9	0.9
283.15	35000	1	870.4	0.9
283.15	40000	0	892.5	1
283.15	40000	0.0976	890.4	1
283.15	40000	0.1991	888.5	1
283.15	40000	0.2983	886.5	1
283.15	40000	0.3955	884.7	1
283.15	40000	0.5036	882.7	1
283.15	40000	0.5967	880.9	1
283.15	40000	0.7024	878.9	1
283.15	40000	0.8084	876.5	1
283.15	40000	0.906	874.4	1
283.15	40000	1	873.3	1
298.15	20000	0	868.8	0.9
298.15	20000	0.0976	866.9	0.9
298.15	20000	0.1991	865.4	0.9
298.15	20000	0.2983	863.5	0.9
298.15	20000	0.3955	861.7	0.9
298.15	20000	0.5036	860	0.9
298.15	20000	0.5967	858.4	0.9
298.15	20000	0.7024	856.9	0.9
298.15	20000	0.8084	855.1	0.9
298.15	20000	0.906	853	0.9
298.15	20000	1	851.5	0.9
298.15	25000	0	872.1	0.9
298.15	25000	0.0976	870.3	0.9
298.15	25000	0.1991	868.6	0.9
298.15	25000	0.2983	866.8	0.9
298.15	25000	0.3955	865	0.9
298.15	25000	0.5036	863.2	0.9
298.15	25000	0.5967	861.6	0.9
298.15	25000	0.7024	859.8	0.9
298.15	25000	0.8084	858	0.9
298.15	25000	0.906	856.1	0.9
298.15	25000	1	854.5	0.9
298.15	30000	0	875.3	0.9
298.15	30000	0.0976	873.5	0.9
298.15	30000	0.1991	871.7	0.9
298.15	30000	0.2983	869.8	0.9
298.15	30000	0.3955	868.1	0.9
298.15	30000	0.5036	866.3	0.9
298.15	30000	0.5967	864.7	0.9
298.15	30000	0.7024	862.8	0.9
298.15	30000	0.8084	861	0.9
298.15	30000	0.906	859.1	0.9
298.15	30000	1	857.6	0.9
298.15	35000	0	878.6	0.9
298.15	35000	0.0976	876.7	0.9
298.15	35000	0.1991	875	0.9
298.15	35000	0.2983	873.1	0.9
298.15	35000	0.3955	871.3	0.9
298.15	35000	0.5036	869.5	0.9
298.15	35000	0.5967	867.9	0.9
298.15	35000	0.7024	865.9	0.9
298.15	35000	0.8084	864.1	0.9
298.15	35000	0.906	862.2	0.9
298.15	35000	1	860.9	0.9
298.15	40000	0	881.9	1
298.15	40000	0.0976	880	1
298.15	40000	0.1991	878.1	1
298.15	40000	0.2983	876.3	1
298.15	40000	0.3955	874.5	1
298.15	40000	0.5036	872.6	1
298.15	40000	0.5967	871	1
298.15	40000	0.7024	869	1
298.15	40000	0.8084	867.1	1
298.15	40000	0.906	865.2	1
298.15	40000	1	863.4	1
313.15	20000	0	858	0.9
313.15	20000	0.0976	856.2	0.9
313.15	20000	0.1991	854.4	0.9
313.15	20000	0.2983	852.6	0.9
313.15	20000	0.3955	851	0.9
313.15	20000	0.5036	849.2	0.9
313.15	20000	0.5967	847.6	0.9
313.15	20000	0.7024	845.9	0.9
313.15	20000	0.8084	844.1	0.9
313.15	20000	0.906	842.4	0.9
313.15	20000	1	841	0.9
313.15	25000	0	861.3	0.9
313.15	25000	0.0976	859.5	0.9
313.15	25000	0.1991	857.7	0.9
313.15	25000	0.2983	855.9	0.9
313.15	25000	0.3955	854.3	0.9
313.15	25000	0.5036	852.5	0.9
313.15	25000	0.5967	851	0.9
313.15	25000	0.7024	849.2	0.9
313.15	25000	0.8084	847.4	0.9
313.15	25000	0.906	845.7	0.9
313.15	25000	1	844.2	0.9
313.15	30000	0	864.7	0.9
313.15	30000	0.0976	862.8	0.9
313.15	30000	0.1991	861.1	0.9
313.15	30000	0.2983	859.3	0.9
313.15	30000	0.3955	857.6	0.9
313.15	30000	0.5036	855.7	0.9
313.15	30000	0.5967	854.2	0.9
313.15	30000	0.7024	852.4	0.9
313.15	30000	0.8084	850.5	0.9
313.15	30000	0.906	848.8	0.9
313.15	30000	1	847.2	0.9
313.15	35000	0	867.9	0.9
313.15	35000	0.0976	866.2	0.9
313.15	35000	0.1991	864.5	0.9
313.15	35000	0.2983	862.6	0.9
313.15	35000	0.3955	860.9	0.9
313.15	35000	0.5036	858.9	0.9
313.15	35000	0.5967	857.4	0.9
313.15	35000	0.7024	855.6	0.9
313.15	35000	0.8084	853.8	0.9
313.15	35000	0.906	852	0.9
313.15	35000	1	850.3	0.9
313.15	40000	0	871.3	1
313.15	40000	0.0976	869.5	1
313.15	40000	0.1991	867.8	1
313.15	40000	0.2983	866	1
313.15	40000	0.3955	864.2	1
313.15	40000	0.5036	862.2	1
313.15	40000	0.5967	860.6	1
313.15	40000	0.7024	858.8	1
313.15	40000	0.8084	856.9	1
313.15	40000	0.906	855.1	1
313.15	40000	1	853.3	1
328.15	20000	0	846.7	0.9
328.15	20000	0.0976	845.1	0.9
328.15	20000	0.1991	843.4	0.9
328.15	20000	0.2983	841.8	0.9
328.15	20000	0.3955	840.2	0.9
328.15	20000	0.5036	838.4	0.9
328.15	20000	0.5967	837	0.9
328.15	20000	0.7024	835.3	0.9
328.15	20000	0.8084	833.5	0.9
328.15	20000	0.906	832	0.9
328.15	20000	1	830.5	0.9
328.15	25000	0	850.4	0.9
328.15	25000	0.0976	848.7	0.9
328.15	25000	0.1991	847	0.9
328.15	25000	0.2983	845.2	0.9
328.15	25000	0.3955	843.6	0.9
328.15	25000	0.5036	841.9	0.9
328.15	25000	0.5967	840.4	0.9
328.15	25000	0.7024	838.6	0.9
328.15	25000	0.8084	836.9	0.9
328.15	25000	0.906	835.4	0.9
328.15	25000	1	833.8	0.9
328.15	30000	0	854	0.9
328.15	30000	0.0976	852.3	0.9
328.15	30000	0.1991	850.6	0.9
328.15	30000	0.2983	848.8	0.9
328.15	30000	0.3955	847.2	0.9
328.15	30000	0.5036	845.4	0.9
328.15	30000	0.5967	843.9	0.9
328.15	30000	0.7024	842.1	0.9
328.15	30000	0.8084	840.4	0.9
328.15	30000	0.906	838.7	0.9
328.15	30000	1	837.2	0.9
328.15	35000	0	857.5	0.9
328.15	35000	0.0976	855.8	0.9
328.15	35000	0.1991	854	0.9
328.15	35000	0.2983	852.3	0.9
328.15	35000	0.3955	850.6	0.9
328.15	35000	0.5036	848.8	0.9
328.15	35000	0.5967	847.3	0.9
328.15	35000	0.7024	845.5	1
328.15	35000	0.8084	843.7	1
328.15	35000	0.906	841.9	1
328.15	35000	1	840.4	1
328.15	40000	0	861.1	1
328.15	40000	0.0976	859.4	1
328.15	40000	0.1991	857.5	1
328.15	40000	0.2983	855.8	1
328.15	40000	0.3955	854.1	1
328.15	40000	0.5036	852.1	1
328.15	40000	0.5967	850.6	1
328.15	40000	0.7024	848.8	1
328.15	40000	0.8084	847.1	1
328.15	40000	0.906	845.3	1
328.15	40000	1	843.8	1
343.15	20000	0	835.9	0.9
343.15	20000	0.0976	834.4	0.9
343.15	20000	0.1991	832.8	0.9
343.15	20000	0.2983	831.2	0.9
343.15	20000	0.3955	829.6	0.9
343.15	20000	0.5036	827.9	0.9
343.15	20000	0.5967	826.5	0.9
343.15	20000	0.7024	824.8	0.9
343.15	20000	0.8084	823.1	0.9
343.15	20000	0.906	821.6	0.9
343.15	20000	1	820.1	0.9
343.15	25000	0	839.7	0.9
343.15	25000	0.0976	838.1	0.9
343.15	25000	0.1991	836.5	0.9
343.15	25000	0.2983	834.9	0.9
343.15	25000	0.3955	833.4	0.9
343.15	25000	0.5036	831.7	0.9
343.15	25000	0.5967	830.2	0.9
343.15	25000	0.7024	828.4	0.9
343.15	25000	0.8084	826.8	0.9
343.15	25000	0.906	825.2	0.9
343.15	25000	1	823.7	0.9
343.15	30000	0	843.8	0.9
343.15	30000	0.0976	842.1	0.9
343.15	30000	0.1991	840.4	0.9
343.15	30000	0.2983	838.8	0.9
343.15	30000	0.3955	837.1	0.9
343.15	30000	0.5036	835.4	0.9
343.15	30000	0.5967	834	0.9
343.15	30000	0.7024	832.1	0.9
343.15	30000	0.8084	830.4	0.9
343.15	30000	0.906	828.8	0.9
343.15	30000	1	827.3	0.9
343.15	35000	0	847.7	1
343.15	35000	0.0976	846	1
343.15	35000	0.1991	844.2	1
343.15	35000	0.2983	842.5	1
343.15	35000	0.3955	840.9	1
343.15	35000	0.5036	839.1	1
343.15	35000	0.5967	837.6	1
343.15	35000	0.7024	835.9	1
343.15	35000	0.8084	834.1	1
343.15	35000	0.906	832.2	1
343.15	35000	1	831.1	1
343.15	40000	0	851.4	1
343.15	40000	0.0976	849.6	1
343.15	40000	0.1991	847.9	1
343.15	40000	0.2983	846.2	1
343.15	40000	0.3955	844.5	1
343.15	40000	0.5036	842.7	1
343.15	40000	0.5967	841.2	1
343.15	40000	0.7024	839.5	1
343.15	40000	0.8084	837.3	1
343.15	40000	0.906	835.5	1
343.15	40000	1	834.6	1
358.15	20000	0	825	0.9
358.15	20000	0.0976	823.5	0.9
358.15	20000	0.1991	822.1	0.9
358.15	20000	0.2983	820.7	0.9
358.15	20000	0.3955	819.3	0.9
358.15	20000	0.5036	817.9	0.9
358.15	20000	0.5967	816.5	0.9
358.15	20000	0.7024	815.1	0.9
358.15	20000	0.8084	813.3	0.9
358.15	20000	0.906	811.5	0.9
358.15	20000	1	810.2	0.9
358.15	25000	0	829.2	0.9
358.15	25000	0.0976	827.7	0.9
358.15	25000	0.1991	826	0.9
358.15	25000	0.2983	824.6	0.9
358.15	25000	0.3955	823.1	0.9
358.15	25000	0.5036	821.6	0.9
358.15	25000	0.5967	820.2	0.9
358.15	25000	0.7024	818.7	0.9
358.15	25000	0.8084	816.9	0.9
358.15	25000	0.906	815.3	0.9
358.15	25000	1	813.9	0.9
358.15	30000	0	833.3	0.9
358.15	30000	0.0976	831.6	0.9
358.15	30000	0.1991	830	0.9
358.15	30000	0.2983	828.4	0.9
358.15	30000	0.3955	826.9	0.9
358.15	30000	0.5036	825.3	0.9
358.15	30000	0.5967	823.9	0.9
358.15	30000	0.7024	822.2	0.9
358.15	30000	0.8084	820.6	0.9
358.15	30000	0.906	818.7	0.9
358.15	30000	1	817.6	0.9
358.15	35000	0	837.4	1
358.15	35000	0.0976	835.7	1
358.15	35000	0.1991	834	1
358.15	35000	0.2983	832.2	1
358.15	35000	0.3955	830.7	1
358.15	35000	0.5036	829	1
358.15	35000	0.5967	827.5	1
358.15	35000	0.7024	825.8	1
358.15	35000	0.8084	824	1
358.15	35000	0.906	822.4	1
358.15	35000	1	821.3	1
358.15	40000	0	841.5	1
358.15	40000	0.0976	839.7	1
358.15	40000	0.1991	838	1
358.15	40000	0.2983	836.2	1
358.15	40000	0.3955	834.6	1
358.15	40000	0.5036	832.8	1
358.15	40000	0.5967	831.2	1
358.15	40000	0.7024	829.4	1
358.15	40000	0.8084	827.6	1
358.15	40000	0.906	825.9	1
358.15	40000	1	824.8	1
