Measured thermophysical data. Temperature Dependence of Viscosity and Specific Conductivity of Fluoroborate-Based Ionic Liquids in Light of the Fractional Walden Rule and Angell's Fragility Concept
Source: J. Chem. Eng. Data, 2010, 10.1021/je1005505
Compound 1: 1-ethyl-3-methylimidazolium difluoromono(oxalato)borate, C8H11BF2N2O4, InChI=1S/C6H11N2.C2BF2O4/c1-3-8-5-4-7(2)6-8;4-3(5)8-1(6)2(7)9-3/h4-6H,3H2,1-2H3;/q+1;-1
Compound 2: 1-butyl-3-methylimidazolium difluoromono(oxalato)borate, C10H15BF2N2O4, InChI=1S/C8H15N2.C2BF2O4/c1-3-4-5-10-7-6-9(2)8-10;4-3(5)8-1(6)2(7)9-3/h6-8H,3-5H2,1-2H3;/q+1;-1
Compound 3: 1-ethyl-3-methylimidazolium difluoromono(malonato)borate, C9H13BF2N2O4, InChI=1S/C6H11N2.C3H2BF2O4/c1-3-8-5-4-7(2)6-8;5-4(6)9-2(7)1-3(8)10-4/h4-6H,3H2,1-2H3;1H2/q+1;-1
Compound 4: 1-butyl-3-methylimidazolium difluoromono(malonato)borate, C11H17BF2N2O4, InChI=1S/C8H15N2.C3H2BF2O4/c1-3-4-5-10-7-6-9(2)8-10;5-4(6)9-2(7)1-3(8)10-4/h6-8H,3-5H2,1-2H3;1H2/q+1;-1
Compound 5: 1-ethyl-3-methylimidazolium difluorobis(acetato)borate, C10H17BF2N2O4, InChI=1S/C6H11N2.C4H6BF2O4/c1-3-8-5-4-7(2)6-8;1-3(8)10-5(6,7)11-4(2)9/h4-6H,3H2,1-2H3;1-2H3/q+1;-1
Compound 6: 1-butyl-3-methylimidazolium diacetoxydifluoroborate, C12H21BF2N2O4, InChI=1S/C8H15N2.C4H6BF2O4/c1-3-4-5-10-7-6-9(2)8-10;1-3(8)10-5(6,7)11-4(2)9/h6-8H,3-5H2,1-2H3;1-2H3/q+1;-1
Compound 7: tetraethylammonium diacetoxydifluoroborate, C12H26BF2NO4, InChI=1S/C8H20N.C4H6BF2O4/c1-5-9(6-2,7-3)8-4;1-3(8)10-5(6,7)11-4(2)9/h5-8H2,1-4H3;1-2H3/q+1;-1
Compound 8: 1-ethyl-3-methylimidazolium difluorobis(2,2,2-trifluoroacetoxy)borate, C10H11BF8N2O4, InChI=1S/C6H11N2.C4BF8O4/c1-3-8-5-4-7(2)6-8;6-3(7,8)1(14)16-5(12,13)17-2(15)4(9,10)11/h4-6H,3H2,1-2H3;/q+1;-1
Compound 9: 1-butyl-3-methylimidazolium difluorobis(trifluoroacetato)borate, C12H15BF8N2O4, InChI=1S/C8H15N2.C4BF8O4/c1-3-4-5-10-7-6-9(2)8-10;6-3(7,8)1(14)16-5(12,13)17-2(15)4(9,10)11/h6-8H,3-5H2,1-2H3;/q+1;-1
Compound 10: tetraethylammonium difluorobis(trifluoroacetato)borate, C12H20BF8NO4, InChI=1S/C8H20N.C4BF8O4/c1-5-9(6-2,7-3)8-4;6-3(7,8)1(14)16-5(12,13)17-2(15)4(9,10)11/h5-8H2,1-4H3;/q+1;-1
Compound 11: tetraethylammonium difluoromono(oxalato)borate, C10H20BF2NO4, InChI=1S/C8H20N.C2BF2O4/c1-5-9(6-2,7-3)8-4;4-3(5)8-1(6)2(7)9-3/h5-8H2,1-4H3;/q+1;-1

System: 1-ethyl-3-methylimidazolium difluoromono(oxalato)borate; phases: Liquid
Fixed: Pressure, kPa = 101.325
Property: Electrical conductivity, S/m (Liquid); method: Symmetrical Wheatstone-bridge
Temperature, K	Electrical conductivity, S/m	uncertainty
268.15	0.0776	0.00078
278.15	0.18939	0.00189
288.15	0.38044	0.00381
298.15	0.66187	0.00662
303.15	0.83758	0.00838
313.15	1.2596	0.0126
323.15	1.7706	0.0177
333.15	2.3607	0.0236
343.15	3.0187	0.0302
353.15	3.7383	0.0374

System: 1-ethyl-3-methylimidazolium difluoromono(oxalato)borate; phases: Liquid
Fixed: Pressure, kPa = 101.325
Property: Viscosity, Pa*s (Liquid); method: Capillary tube (Ostwald; Ubbelohde) method
Temperature, K	Viscosity, Pa*s	uncertainty
278.15	0.24993	0.00778
283.15	0.16733	0.00436
288.15	0.11588	0.00258
293.15	0.083077	0.001638
298.15	0.061854	0.001135
303.15	0.047341	0.000871
313.15	0.029769	0.000548
323.15	0.020194	0.000372
333.15	0.014525	0.000268
343.15	0.010907	0.000202
353.15	0.008536	0.000158

System: 1-ethyl-3-methylimidazolium difluoromono(oxalato)borate; phases: Liquid
Fixed: Pressure, kPa = 101.325
Property: Mass density, kg/m3 (Liquid); method: Vibrating tube method
Temperature, K	Mass density, kg/m3	uncertainty
298.15	1337	4
303.15	1332	3
313.15	1322	3
323.15	1312	3
333.15	1303	3

System: 1-butyl-3-methylimidazolium difluoromono(oxalato)borate; phases: Liquid
Fixed: Pressure, kPa = 101.325
Property: Electrical conductivity, S/m (Liquid); method: Symmetrical Wheatstone-bridge
Temperature, K	Electrical conductivity, S/m	uncertainty
258.15	0.00949	0.0001
268.15	0.03015	0.0003
278.15	0.07543	0.00075
288.15	0.16071	0.00161
298.15	0.2976	0.00298
303.15	0.38898	0.00389
313.15	0.6188	0.00619
323.15	0.9138	0.00914
333.15	1.2702	0.0127
343.15	1.6848	0.0168
353.15	2.1558	0.0216

System: 1-butyl-3-methylimidazolium difluoromono(oxalato)borate; phases: Liquid
Fixed: Pressure, kPa = 101.325
Property: Viscosity, Pa*s (Liquid); method: Capillary tube (Ostwald; Ubbelohde) method
Temperature, K	Viscosity, Pa*s	uncertainty
268.15	1.1869	0.0658
273.15	0.702	0.03301
278.15	0.43176	0.01701
283.15	0.2809	0.00923
288.15	0.19062	0.00524
293.15	0.13456	0.00319
298.15	0.097896	0.002044
303.15	0.0733	0.001394
313.15	0.044078	0.000811
323.15	0.028578	0.000526
333.15	0.019831	0.000366
343.15	0.014541	0.000269
353.15	0.011065	0.000205

System: 1-butyl-3-methylimidazolium difluoromono(oxalato)borate; phases: Liquid
Fixed: Pressure, kPa = 101.325
Property: Mass density, kg/m3 (Liquid); method: Vibrating tube method
Temperature, K	Mass density, kg/m3	uncertainty
298.15	1259	3
303.15	1254	3
313.15	1245	3
323.15	1236	3
333.15	1227	3

System: 1-ethyl-3-methylimidazolium difluoromono(malonato)borate; phases: Liquid
Fixed: Pressure, kPa = 101.325
Property: Electrical conductivity, S/m (Liquid); method: Symmetrical Wheatstone-bridge
Temperature, K	Electrical conductivity, S/m	uncertainty
258.15	0.00899	9e-05
268.15	0.03256	0.00033
278.15	0.08625	0.00086
288.15	0.18674	0.00187
298.15	0.34562	0.00346
303.15	0.45028	0.0045
313.15	0.71031	0.0071
323.15	1.0396	0.0104
333.15	1.4351	0.0144
343.15	1.8942	0.0189
353.15	2.4107	0.0241

System: 1-ethyl-3-methylimidazolium difluoromono(malonato)borate; phases: Liquid
Fixed: Pressure, kPa = 101.325
Property: Viscosity, Pa*s (Liquid); method: Capillary tube (Ostwald; Ubbelohde) method
Temperature, K	Viscosity, Pa*s	uncertainty
268.15	1.526	0.0908
273.15	0.87486	0.04421
278.15	0.51885	0.02193
283.15	0.33077	0.01168
288.15	0.22169	0.00652
293.15	0.1549	0.0039
298.15	0.113	0.00249
303.15	0.084546	0.001677
313.15	0.050862	0.000917
323.15	0.033396	0.000615
333.15	0.023269	0.000429
343.15	0.017052	0.000315
353.15	0.013031	0.000241

System: 1-ethyl-3-methylimidazolium difluoromono(malonato)borate; phases: Liquid
Fixed: Pressure, kPa = 101.325
Property: Mass density, kg/m3 (Liquid); method: Vibrating tube method
Temperature, K	Mass density, kg/m3	uncertainty
298.15	1331	3
303.15	1326	3
313.15	1318	3
323.15	1310	3
333.15	1301	3

System: 1-butyl-3-methylimidazolium difluoromono(malonato)borate; phases: Liquid
Fixed: Pressure, kPa = 101.325
Property: Electrical conductivity, S/m (Liquid); method: Symmetrical Wheatstone-bridge
Temperature, K	Electrical conductivity, S/m	uncertainty
268.15	0.01472	0.00015
278.15	0.04125	0.00041
288.15	0.09494	0.00095
298.15	0.18861	0.00189
303.15	0.25442	0.00255
313.15	0.42775	0.00428
323.15	0.66267	0.00663
333.15	0.96103	0.00961
343.15	1.3227	0.0132
353.15	1.7446	0.0174

System: 1-butyl-3-methylimidazolium difluoromono(malonato)borate; phases: Liquid
Fixed: Pressure, kPa = 101.325
Property: Viscosity, Pa*s (Liquid); method: Capillary tube (Ostwald; Ubbelohde) method
Temperature, K	Viscosity, Pa*s	uncertainty
278.15	0.98063	0.05134
283.15	0.6104	0.02735
288.15	0.3973	0.01514
293.15	0.26966	0.0087
303.15	0.13729	0.00329
308.15	0.1021	0.00217
313.15	0.077906	0.001506
323.15	0.04825	0.000888
333.15	0.032079	0.000591
343.15	0.022538	0.000415
353.15	0.016556	0.000306

System: 1-butyl-3-methylimidazolium difluoromono(malonato)borate; phases: Liquid
Fixed: Pressure, kPa = 101.325
Property: Mass density, kg/m3 (Liquid); method: Vibrating tube method
Temperature, K	Mass density, kg/m3	uncertainty
298.15	1258	3
303.15	1254	3
313.15	1246	3
323.15	1238	3
333.15	1230	3

System: 1-ethyl-3-methylimidazolium difluorobis(acetato)borate; phases: Liquid
Fixed: Pressure, kPa = 101.325
Property: Electrical conductivity, S/m (Liquid); method: Symmetrical Wheatstone-bridge
Temperature, K	Electrical conductivity, S/m	uncertainty
258.15	0.00702	7e-05
268.15	0.02277	0.00023
278.15	0.05957	0.0006
288.15	0.13236	0.00132
298.15	0.25394	0.00254
303.15	0.33643	0.00337
313.15	0.54893	0.00549
323.15	0.8289	0.00829
333.15	1.1759	0.0118
343.15	1.5899	0.0159
353.15	2.0692	0.0207

System: 1-ethyl-3-methylimidazolium difluorobis(acetato)borate; phases: Liquid
Fixed: Pressure, kPa = 101.325
Property: Viscosity, Pa*s (Liquid); method: Capillary tube (Ostwald; Ubbelohde) method
Temperature, K	Viscosity, Pa*s	uncertainty
273.15	1.1691	0.0645
278.15	0.68954	0.03223
283.15	0.43598	0.01724
288.15	0.2869	0.00952
293.15	0.19648	0.00547
298.15	0.13867	0.00333
303.15	0.10162	0.00215
313.15	0.058447	0.001064
323.15	0.036732	0.000676
333.15	0.024704	0.000455
343.15	0.017534	0.000324
353.15	0.013008	0.00024

System: 1-ethyl-3-methylimidazolium difluorobis(acetato)borate; phases: Liquid
Fixed: Pressure, kPa = 101.325
Property: Mass density, kg/m3 (Liquid); method: Vibrating tube method
Temperature, K	Mass density, kg/m3	uncertainty
298.15	1228	3
303.15	1224	3
313.15	1217	3
323.15	1209	3
333.15	1201	3

System: 1-butyl-3-methylimidazolium diacetoxydifluoroborate; phases: Liquid
Fixed: Pressure, kPa = 101.325
Property: Electrical conductivity, S/m (Liquid); method: Symmetrical Wheatstone-bridge
Temperature, K	Electrical conductivity, S/m	uncertainty
288.15	0.04722	0.00047
298.15	0.09661	0.00097
303.15	0.13273	0.00133
313.15	0.23214	0.00232
323.15	0.37353	0.00374
333.15	0.56059	0.00561
343.15	0.79456	0.00795
353.15	1.0763	0.0108

System: 1-butyl-3-methylimidazolium diacetoxydifluoroborate; phases: Liquid
Fixed: Pressure, kPa = 101.325
Property: Viscosity, Pa*s (Liquid); method: Capillary tube (Ostwald; Ubbelohde) method
Temperature, K	Viscosity, Pa*s	uncertainty
283.15	0.79313	0.03883
288.15	0.51273	0.02157
293.15	0.34343	0.01233
298.15	0.23252	0.007
303.15	0.16499	0.00427
308.15	0.12033	0.00273
313.15	0.093261	0.001913
323.15	0.055428	0.001004
333.15	0.035475	0.000653
343.15	0.024101	0.000444
353.15	0.017168	0.000317

System: 1-butyl-3-methylimidazolium diacetoxydifluoroborate; phases: Liquid
Fixed: Pressure, kPa = 101.325
Property: Mass density, kg/m3 (Liquid); method: Vibrating tube method
Temperature, K	Mass density, kg/m3	uncertainty
298.15	1176	3
303.15	1170	3
313.15	1162	3
323.15	1155	3
333.15	1148	3

System: tetraethylammonium diacetoxydifluoroborate; phases: Liquid
Fixed: Pressure, kPa = 101.325
Property: Electrical conductivity, S/m (Liquid); method: Symmetrical Wheatstone-bridge
Temperature, K	Electrical conductivity, S/m	uncertainty
278.15	0.02655	0.00027
288.15	0.05875	0.00059
298.15	0.11665	0.00117
303.15	0.15773	0.00158
313.15	0.26849	0.00269
323.15	0.4225	0.00423
333.15	0.62377	0.00624
343.15	0.87421	0.00874
353.15	1.1736	0.0117

System: tetraethylammonium diacetoxydifluoroborate; phases: Liquid
Fixed: Pressure, kPa = 101.325
Property: Viscosity, Pa*s (Liquid); method: Capillary tube (Ostwald; Ubbelohde) method
Temperature, K	Viscosity, Pa*s	uncertainty
273.15	1.8007	0.112
278.15	1.0952	0.0593
283.15	0.69793	0.03275
288.15	0.46155	0.01866
293.15	0.3157	0.01093
298.15	0.2225	0.00655
303.15	0.16111	0.00413
308.15	0.11959	0.0027
313.15	0.09229	0.001886
323.15	0.056419	0.001023
333.15	0.0369	0.000679
343.15	0.025457	0.000469
353.15	0.018349	0.000339

System: tetraethylammonium diacetoxydifluoroborate; phases: Liquid
Fixed: Pressure, kPa = 101.325
Property: Mass density, kg/m3 (Liquid); method: Vibrating tube method
Temperature, K	Mass density, kg/m3	uncertainty
298.15	1134	3
303.15	1131	3
313.15	1124	2
323.15	1117	2
333.15	1110	2

System: 1-ethyl-3-methylimidazolium difluorobis(2,2,2-trifluoroacetoxy)borate; phases: Liquid
Fixed: Pressure, kPa = 101.325
Property: Electrical conductivity, S/m (Liquid); method: Symmetrical Wheatstone-bridge
Temperature, K	Electrical conductivity, S/m	uncertainty
238.15	0.0275	0.00028
248.15	0.07596	0.00076
258.15	0.16852	0.00169
268.15	0.31537	0.00315
278.15	0.52226	0.00522
288.15	0.79039	0.0079
298.15	1.117	0.0112
303.15	1.3009	0.013
313.15	1.7072	0.0171
323.15	2.161	0.0216
333.15	2.6557	0.0266
343.15	3.1873	0.0319
353.15	3.7491	0.0375

System: 1-ethyl-3-methylimidazolium difluorobis(2,2,2-trifluoroacetoxy)borate; phases: Liquid
Fixed: Pressure, kPa = 101.325
Property: Viscosity, Pa*s (Liquid); method: Capillary tube (Ostwald; Ubbelohde) method
Temperature, K	Viscosity, Pa*s	uncertainty
258.15	0.15908	0.00405
263.15	0.11046	0.00242
268.15	0.079897	0.001556
278.15	0.04559	0.000839
288.15	0.028832	0.000531
293.15	0.023608	0.000435
298.15	0.019633	0.000362
303.15	0.016561	0.000306
313.15	0.012208	0.000226
323.15	0.009362	0.000173
333.15	0.007414	0.000138
343.15	0.006014	0.000112
353.15	0.004995	9.3e-05

System: 1-ethyl-3-methylimidazolium difluorobis(2,2,2-trifluoroacetoxy)borate; phases: Liquid
Fixed: Pressure, kPa = 101.325
Property: Mass density, kg/m3 (Liquid); method: Vibrating tube method
Temperature, K	Mass density, kg/m3	uncertainty
298.15	1428	4
303.15	1422	4
313.15	1411	4
323.15	1400	4
333.15	1388	4

System: 1-butyl-3-methylimidazolium difluorobis(trifluoroacetato)borate; phases: Liquid
Fixed: Pressure, kPa = 101.325
Property: Electrical conductivity, S/m (Liquid); method: Symmetrical Wheatstone-bridge
Temperature, K	Electrical conductivity, S/m	uncertainty
248.15	0.02319	0.00023
258.15	0.05735	0.00057
268.15	0.11983	0.0012
278.15	0.21862	0.00219
288.15	0.35917	0.00359
298.15	0.54391	0.00544
303.15	0.65284	0.00653
313.15	0.90347	0.00904
323.15	1.1952	0.012
333.15	1.5247	0.0152
343.15	1.8894	0.0189
353.15	2.2827	0.0228

System: 1-butyl-3-methylimidazolium difluorobis(trifluoroacetato)borate; phases: Liquid
Fixed: Pressure, kPa = 101.325
Property: Viscosity, Pa*s (Liquid); method: Capillary tube (Ostwald; Ubbelohde) method
Temperature, K	Viscosity, Pa*s	uncertainty
268.15	0.15466	0.00389
273.15	0.10966	0.00239
278.15	0.080455	0.001571
288.15	0.046858	0.000862
293.15	0.036976	0.000681
298.15	0.029745	0.000548
303.15	0.024331	0.000448
313.15	0.017005	0.000314
323.15	0.012463	0.00023
333.15	0.009497	0.000176
343.15	0.007466	0.000139
353.15	0.006028	0.000112

System: 1-butyl-3-methylimidazolium difluorobis(trifluoroacetato)borate; phases: Liquid
Fixed: Pressure, kPa = 101.325
Property: Mass density, kg/m3 (Liquid); method: Vibrating tube method
Temperature, K	Mass density, kg/m3	uncertainty
298.15	1357	4
303.15	1352	4
313.15	1341	4
323.15	1330	3
333.15	1320	3

System: tetraethylammonium difluorobis(trifluoroacetato)borate; phases: Liquid
Fixed: Pressure, kPa = 101.325
Property: Electrical conductivity, S/m (Liquid); method: Symmetrical Wheatstone-bridge
Temperature, K	Electrical conductivity, S/m	uncertainty
268.15	0.09714	0.00097
278.15	0.17557	0.00176
288.15	0.28649	0.00287
298.15	0.43413	0.00434
303.15	0.5223	0.00522
313.15	0.72787	0.00728
323.15	0.9723	0.00972
333.15	1.2535	0.0125
343.15	1.5697	0.0157
353.15	1.9147	0.0191

System: tetraethylammonium difluorobis(trifluoroacetato)borate; phases: Liquid
Fixed: Pressure, kPa = 101.325
Property: Viscosity, Pa*s (Liquid); method: Capillary tube (Ostwald; Ubbelohde) method
Temperature, K	Viscosity, Pa*s	uncertainty
273.15	0.17561	0.00467
278.15	0.12825	0.00298
283.15	0.09743	0.002031
288.15	0.075161	0.001439
293.15	0.059198	0.001079
298.15	0.047283	0.00087
303.15	0.038504	0.000709
313.15	0.026578	0.00049
323.15	0.019193	0.000354
333.15	0.014387	0.000266
343.15	0.011114	0.000206
353.15	0.008798	0.000163

System: tetraethylammonium difluorobis(trifluoroacetato)borate; phases: Liquid
Fixed: Pressure, kPa = 101.325
Property: Mass density, kg/m3 (Liquid); method: Vibrating tube method
Temperature, K	Mass density, kg/m3	uncertainty
298.15	1319	3
303.15	1314	3
313.15	1304	3
323.15	1294	3
333.15	1285	3

System: tetraethylammonium difluoromono(oxalato)borate; phases: Liquid
Fixed: Pressure, kPa = 101.325
Property: Electrical conductivity, S/m (Liquid); method: Symmetrical Wheatstone-bridge
Temperature, K	Electrical conductivity, S/m	uncertainty
308.15	0.2577	0.0026
313.15	0.3212	0.0032
318.15	0.3933	0.0039
323.15	0.4746	0.0047
328.15	0.5637	0.0056
333.15	0.6652	0.0067
338.15	0.7699	0.0077
343.15	0.8889	0.0089
348.15	1.0163	0.0102
353.15	1.1531	0.0115

System: tetraethylammonium difluoromono(oxalato)borate; phases: Liquid
Fixed: Pressure, kPa = 101.325
Property: Viscosity, Pa*s (Liquid); method: Capillary tube (Ostwald; Ubbelohde) method
Temperature, K	Viscosity, Pa*s	uncertainty
308.15	0.09113	0.001854
313.15	0.071851	0.001359
318.15	0.057725	0.001049
323.15	0.046951	0.000864
328.15	0.038946	0.000717
333.15	0.032656	0.000601
343.15	0.023579	0.000435
353.15	0.017739	0.000327

System: tetraethylammonium difluoromono(oxalato)borate; phases: Liquid
Fixed: Pressure, kPa = 101.325
Property: Mass density, kg/m3 (Liquid); method: Vibrating tube method
Temperature, K	Mass density, kg/m3	uncertainty
313.15	1178	3
323.15	1171	3
333.15	1163	3
