Measured thermophysical data. Volumetric Properties of Binary Mixtures of 1,2-Dichloroethane with Polyethers from (283.15 to 333.15) K and at Atmospheric Pressure
Source: J. Chem. Eng. Data, 2011, 10.1021/je101361u
Compound 1: 1,2-dichloroethane, C2H4Cl2, InChI=1S/C2H4Cl2/c3-1-2-4/h1-2H2, purity 99.8%
Compound 2: 1,2-dimethoxyethane, C4H10O2, InChI=1S/C4H10O2/c1-5-3-4-6-2/h3-4H2,1-2H3, purity 99%
Compound 3: 2,5,8-trioxanonane, C6H14O3, InChI=1S/C6H14O3/c1-7-3-5-9-6-4-8-2/h3-6H2,1-2H3, purity 99%
Compound 4: diethylene glycol diethyl ether, C8H18O3, InChI=1S/C8H18O3/c1-3-9-5-7-11-8-6-10-4-2/h3-8H2,1-2H3, purity 98%

System: 1,2-dichloroethane; phases: Liquid
Fixed: Pressure, kPa = 101.325
Property: Mass density, kg/m3 (Liquid); method: VIBTUB:UFactor:2
Temperature, K	Mass density, kg/m3	uncertainty
283.15	1267.39	0.29
284.15	1265.95	0.29
285.15	1264.5	0.29
286.15	1263.05	0.29
287.15	1261.6	0.28
288.15	1260.15	0.28
289.15	1258.7	0.28
290.15	1257.25	0.28
291.15	1255.8	0.28
292.15	1254.35	0.28
293.15	1252.89	0.28
294.15	1251.44	0.28
295.15	1249.98	0.28
296.15	1248.52	0.27
297.15	1247.07	0.27
298.15	1245.61	0.27
299.15	1244.15	0.27
300.15	1242.69	0.27
301.15	1241.22	0.27
302.15	1239.76	0.27
303.15	1238.29	0.27
304.15	1236.83	0.26
305.15	1235.36	0.26
306.15	1233.89	0.26
307.15	1232.42	0.26
308.15	1230.95	0.26
309.15	1229.47	0.26
310.15	1228	0.26
311.15	1226.53	0.26
312.15	1225.05	0.26
313.15	1223.57	0.25
314.15	1222.09	0.25
315.15	1220.61	0.25
316.15	1219.13	0.25
317.15	1217.64	0.25
318.15	1216.16	0.25
319.15	1214.67	0.25
320.15	1213.18	0.25
321.15	1211.69	0.24
322.15	1210.2	0.24
323.15	1208.7	0.24
324.15	1207.21	0.24
325.15	1205.71	0.24
326.15	1204.21	0.24
327.15	1202.71	0.24
328.15	1201.21	0.24
329.15	1199.7	0.23
330.15	1198.19	0.23
331.15	1196.69	0.23
332.15	1195.18	0.23
333.15	1193.66	0.23

System: 1,2-dimethoxyethane; phases: Liquid
Fixed: Pressure, kPa = 101.325
Property: Mass density, kg/m3 (Liquid); method: VIBTUB:UFactor:4
Temperature, K	Mass density, kg/m3	uncertainty
283.15	877.64	0.47
284.15	876.56	0.47
285.15	875.48	0.47
286.15	874.4	0.48
287.15	873.31	0.48
288.15	872.23	0.48
289.15	871.14	0.48
290.15	870.05	0.48
291.15	868.96	0.48
292.15	867.87	0.48
293.15	866.79	0.49
294.15	865.7	0.49
295.15	864.61	0.49
296.15	863.51	0.49
297.15	862.42	0.49
298.15	861.32	0.49
299.15	860.22	0.49
300.15	859.12	0.5
301.15	858.01	0.5
302.15	856.91	0.5
303.15	855.8	0.5
304.15	854.69	0.5
305.15	853.58	0.5
306.15	852.46	0.5
307.15	851.35	0.51
308.15	850.24	0.51
309.15	849.13	0.51
310.15	848.02	0.51
311.15	846.9	0.51
312.15	845.79	0.51
313.15	844.67	0.51
314.15	843.55	0.52
315.15	842.42	0.52
316.15	841.29	0.52
317.15	840.17	0.52
318.15	839.04	0.52
319.15	837.91	0.52
320.15	836.77	0.52
321.15	835.64	0.53
322.15	834.5	0.53
323.15	833.36	0.53
324.15	832.22	0.53
325.15	831.08	0.53
326.15	829.93	0.53
327.15	828.78	0.53
328.15	827.63	0.54
329.15	826.48	0.54
330.15	825.33	0.54
331.15	824.17	0.54
332.15	823.02	0.54
333.15	821.86	0.54

System: 2,5,8-trioxanonane; phases: Liquid
Fixed: Pressure, kPa = 101.325
Property: Mass density, kg/m3 (Liquid); method: VIBTUB:UFactor:4
Temperature, K	Mass density, kg/m3	uncertainty
283.15	953.66	0.38
284.15	952.67	0.38
285.15	951.69	0.38
286.15	950.7	0.38
287.15	949.71	0.38
288.15	948.72	0.38
289.15	947.73	0.39
290.15	946.74	0.39
291.15	945.75	0.39
292.15	944.76	0.39
293.15	943.76	0.39
294.15	942.79	0.39
295.15	941.79	0.39
296.15	940.79	0.39
297.15	939.8	0.4
298.15	938.8	0.4
299.15	937.8	0.4
300.15	936.81	0.4
301.15	935.81	0.4
302.15	934.82	0.4
303.15	933.82	0.4
304.15	932.82	0.4
305.15	931.82	0.4
306.15	930.82	0.41
307.15	929.83	0.41
308.15	928.83	0.41
309.15	927.82	0.41
310.15	926.83	0.41
311.15	925.82	0.41
312.15	924.82	0.41
313.15	923.82	0.41
314.15	922.81	0.42
315.15	921.81	0.42
316.15	920.8	0.42
317.15	919.8	0.42
318.15	918.79	0.42
319.15	917.78	0.42
320.15	916.78	0.42
321.15	915.77	0.42
322.15	914.75	0.43
323.15	913.75	0.43
324.15	912.73	0.43
325.15	911.72	0.43
326.15	910.7	0.43
327.15	909.69	0.43
328.15	908.67	0.43
329.15	907.65	0.44
330.15	906.63	0.44
331.15	905.62	0.44
332.15	904.6	0.44
333.15	903.59	0.44

System: diethylene glycol diethyl ether; phases: Liquid
Fixed: Pressure, kPa = 101.325
Property: Mass density, kg/m3 (Liquid); method: VIBTUB:UFactor:6
Temperature, K	Mass density, kg/m3	uncertainty
283.15	916.36	1.06
284.15	915.39	1.06
285.15	914.43	1.07
286.15	913.46	1.07
287.15	912.5	1.07
288.15	911.53	1.07
289.15	910.57	1.07
290.15	909.6	1.07
291.15	908.63	1.07
292.15	907.67	1.07
293.15	906.71	1.07
294.15	905.75	1.07
295.15	904.78	1.07
296.15	903.81	1.08
297.15	902.85	1.08
298.15	901.88	1.08
299.15	900.92	1.08
300.15	899.95	1.08
301.15	898.98	1.08
302.15	898.02	1.08
303.15	897.05	1.08
304.15	896.08	1.08
305.15	895.12	1.08
306.15	894.15	1.08
307.15	893.18	1.09
308.15	892.21	1.09
309.15	891.25	1.09
310.15	890.28	1.09
311.15	889.31	1.09
312.15	888.34	1.09
313.15	887.37	1.09
314.15	886.4	1.09
315.15	885.43	1.09
316.15	884.46	1.09
317.15	883.48	1.09
318.15	882.51	1.1
319.15	881.54	1.1
320.15	880.57	1.1
321.15	879.6	1.1
322.15	878.63	1.1
323.15	877.66	1.1
324.15	876.7	1.1
325.15	875.73	1.1
326.15	874.75	1.1
327.15	873.78	1.1
328.15	872.81	1.11
329.15	871.84	1.11
330.15	870.87	1.11
331.15	869.89	1.11
332.15	868.92	1.11
333.15	867.94	1.11

System: 1,2-dichloroethane + 1,2-dimethoxyethane; phases: Liquid
Fixed: Pressure, kPa = 101.3
Property: Mass density, kg/m3 (Liquid); method: VIBTUB:UFactor:4
Temperature, K	Mole fraction of 1,2-dichloroethane	Mass density, kg/m3	uncertainty
283.15	0.0251	885.37	0.49
283.15	0.05	893.06	0.48
283.15	0.0501	893.14	0.48
283.15	0.075	900.9	0.46
283.15	0.1	908.78	0.45
283.15	0.1552	926.63	0.42
283.15	0.2001	941.4	0.39
283.15	0.2501	958.23	0.37
283.15	0.3002	975.46	0.34
283.15	0.35	992.96	0.32
283.15	0.4001	1010.98	0.32
283.15	0.45	1029.37	0.34
283.15	0.5	1048.22	0.36
283.15	0.5001	1048.32	0.36
283.15	0.55	1067.59	0.38
283.15	0.6001	1087.41	0.4
283.15	0.65	1107.73	0.43
283.15	0.7	1128.6	0.45
283.15	0.75	1150.14	0.48
283.15	0.8	1172.13	0.51
283.15	0.85	1195.03	0.54
283.15	0.9	1218.48	0.57
283.15	0.925	1230.36	0.58
283.15	0.975	1254.94	0.61
288.15	0.0251	879.96	0.49
288.15	0.05	887.61	0.48
288.15	0.0501	887.69	0.48
288.15	0.075	895.43	0.47
288.15	0.1	903.28	0.45
288.15	0.1552	921.05	0.42
288.15	0.2001	935.76	0.4
288.15	0.2501	952.53	0.37
288.15	0.3002	969.68	0.35
288.15	0.35	987.11	0.32
288.15	0.4001	1005.05	0.31
288.15	0.45	1023.36	0.33
288.15	0.5	1042.13	0.35
288.15	0.5001	1042.23	0.35
288.15	0.55	1061.41	0.37
288.15	0.6001	1081.15	0.39
288.15	0.65	1101.37	0.42
288.15	0.7	1122.14	0.44
288.15	0.75	1143.57	0.47
288.15	0.8	1165.45	0.5
288.15	0.85	1188.23	0.53
288.15	0.9	1211.55	0.55
288.15	0.925	1223.37	0.57
288.15	0.975	1247.8	0.6
293.15	0.0251	874.49	0.5
293.15	0.05	882.11	0.49
293.15	0.0501	882.19	0.49
293.15	0.075	889.9	0.47
293.15	0.1	897.71	0.46
293.15	0.1552	915.42	0.43
293.15	0.2001	930.07	0.41
293.15	0.2501	946.77	0.38
293.15	0.3002	963.86	0.35
293.15	0.35	981.21	0.33
293.15	0.4001	999.08	0.31
293.15	0.45	1017.3	0.32
293.15	0.5	1035.99	0.34
293.15	0.5001	1036.09	0.34
293.15	0.55	1055.19	0.36
293.15	0.6001	1074.83	0.39
293.15	0.65	1094.96	0.41
293.15	0.7	1115.63	0.43
293.15	0.75	1136.95	0.46
293.15	0.8	1158.71	0.49
293.15	0.85	1181.37	0.52
293.15	0.9	1204.56	0.54
293.15	0.925	1216.32	0.56
293.15	0.975	1240.62	0.59
298.15	0.0251	868.99	0.51
298.15	0.05	876.59	0.49
298.15	0.0501	876.66	0.49
298.15	0.075	884.34	0.48
298.15	0.1	892.12	0.47
298.15	0.1552	909.76	0.44
298.15	0.2001	924.35	0.41
298.15	0.2501	940.98	0.39
298.15	0.3002	957.99	0.36
298.15	0.35	975.28	0.34
298.15	0.4001	993.07	0.31
298.15	0.45	1011.21	0.32
298.15	0.5	1029.82	0.33
298.15	0.5001	1029.91	0.33
298.15	0.55	1048.93	0.36
298.15	0.6001	1068.48	0.38
298.15	0.65	1088.51	0.4
298.15	0.7	1109.08	0.42
298.15	0.75	1130.3	0.45
298.15	0.8	1151.94	0.48
298.15	0.85	1174.49	0.51
298.15	0.9	1197.56	0.53
298.15	0.925	1209.25	0.55
298.15	0.975	1233.42	0.58
303.15	0.0251	863.45	0.51
303.15	0.05	871.02	0.5
303.15	0.0501	871.08	0.5
303.15	0.075	878.74	0.49
303.15	0.1	886.49	0.47
303.15	0.1552	904.05	0.44
303.15	0.2001	918.59	0.42
303.15	0.2501	935.15	0.39
303.15	0.3002	952.09	0.37
303.15	0.35	969.3	0.34
303.15	0.4001	987.02	0.32
303.15	0.45	1005.09	0.31
303.15	0.5	1023.61	0.33
303.15	0.5001	1023.7	0.33
303.15	0.55	1042.63	0.35
303.15	0.6001	1062.09	0.37
303.15	0.65	1082.03	0.39
303.15	0.7	1102.5	0.41
303.15	0.75	1123.6	0.44
303.15	0.8	1145.15	0.47
303.15	0.85	1167.57	0.5
303.15	0.9	1190.51	0.52
303.15	0.925	1202.14	0.54
303.15	0.975	1226.18	0.57
308.15	0.0251	857.87	0.52
308.15	0.05	865.42	0.51
308.15	0.0501	865.47	0.51
308.15	0.075	873.1	0.49
308.15	0.1	880.82	0.48
308.15	0.1552	898.32	0.45
308.15	0.2001	912.79	0.42
308.15	0.2501	929.28	0.4
308.15	0.3002	946.16	0.37
308.15	0.35	963.29	0.35
308.15	0.4001	980.93	0.32
308.15	0.45	998.92	0.3
308.15	0.5	1017.36	0.32
308.15	0.5001	1017.45	0.32
308.15	0.55	1036.29	0.34
308.15	0.6001	1055.67	0.36
308.15	0.65	1075.5	0.38
308.15	0.7	1095.88	0.41
308.15	0.75	1116.88	0.43
308.15	0.8	1138.31	0.46
308.15	0.85	1160.61	0.49
308.15	0.9	1183.44	0.51
308.15	0.925	1195	0.53
308.15	0.975	1218.9	0.56
313.15	0.0251	852.25	0.53
313.15	0.05	859.77	0.51
313.15	0.0501	859.82	0.51
313.15	0.075	867.42	0.5
313.15	0.1	875.11	0.49
313.15	0.1552	892.54	0.46
313.15	0.2001	906.96	0.43
313.15	0.2501	923.37	0.4
313.15	0.3002	940.18	0.38
313.15	0.35	957.24	0.35
313.15	0.4001	974.8	0.33
313.15	0.45	992.71	0.31
313.15	0.5	1011.06	0.31
313.15	0.5001	1011.16	0.31
313.15	0.55	1029.91	0.33
313.15	0.6001	1049.2	0.35
313.15	0.65	1068.94	0.37
313.15	0.7	1089.21	0.4
313.15	0.75	1110.11	0.42
313.15	0.8	1131.44	0.45
313.15	0.85	1153.62	0.48
313.15	0.9	1176.32	0.5
313.15	0.925	1187.82	0.52
313.15	0.975	1211.59	0.55
318.15	0.0251	846.59	0.53
318.15	0.05	854.09	0.52
318.15	0.0501	854.13	0.52
318.15	0.075	861.7	0.5
318.15	0.1	869.35	0.49
318.15	0.1552	886.71	0.46
318.15	0.2001	901.08	0.44
318.15	0.2501	917.42	0.41
318.15	0.3002	934.15	0.38
318.15	0.35	951.14	0.36
318.15	0.4001	968.62	0.33
318.15	0.45	986.46	0.31
318.15	0.5	1004.73	0.3
318.15	0.5001	1004.83	0.3
318.15	0.55	1023.49	0.32
318.15	0.6001	1042.69	0.34
318.15	0.65	1062.34	0.36
318.15	0.7	1082.51	0.39
318.15	0.75	1103.31	0.41
318.15	0.8	1124.52	0.44
318.15	0.85	1146.58	0.47
318.15	0.9	1169.16	0.49
318.15	0.925	1180.61	0.51
318.15	0.975	1204.25	0.54
323.15	0.0251	840.89	0.54
323.15	0.05	848.36	0.52
323.15	0.0501	848.39	0.52
323.15	0.075	855.93	0.51
323.15	0.1	863.55	0.5
323.15	0.1552	880.84	0.47
323.15	0.2001	895.15	0.44
323.15	0.2501	911.42	0.42
323.15	0.3002	928.08	0.39
323.15	0.35	945	0.37
323.15	0.4001	962.41	0.34
323.15	0.45	980.16	0.32
323.15	0.5	998.35	0.3
323.15	0.5001	998.45	0.3
323.15	0.55	1017.03	0.31
323.15	0.6001	1036.13	0.33
323.15	0.65	1055.68	0.35
323.15	0.7	1075.76	0.38
323.15	0.75	1096.45	0.4
323.15	0.8	1117.56	0.43
323.15	0.85	1139.51	0.46
323.15	0.9	1161.97	0.48
323.15	0.925	1173.35	0.5
323.15	0.975	1196.86	0.53
328.15	0.0251	835.13	0.55
328.15	0.05	842.55	0.53
328.15	0.0501	842.6	0.53
328.15	0.075	850.11	0.52
328.15	0.1	857.7	0.51
328.15	0.1552	874.92	0.48
328.15	0.2001	889.17	0.45
328.15	0.2501	905.37	0.42
328.15	0.3002	921.97	0.4
328.15	0.35	938.81	0.37
328.15	0.4001	956.14	0.35
328.15	0.45	973.82	0.32
328.15	0.5	991.93	0.3
328.15	0.5001	992.02	0.3
328.15	0.55	1010.51	0.3
328.15	0.6001	1029.53	0.32
328.15	0.65	1048.98	0.35
328.15	0.7	1068.97	0.37
328.15	0.75	1089.55	0.39
328.15	0.8	1110.55	0.42
328.15	0.85	1132.39	0.45
328.15	0.9	1154.73	0.47
328.15	0.925	1166.05	0.49
328.15	0.975	1189.43	0.52
333.15	0.0251	829.32	0.55
333.15	0.05	836.72	0.54
333.15	0.0501	836.76	0.54
333.15	0.075	844.24	0.52
333.15	0.1	851.8	0.51
333.15	0.1552	868.95	0.48
333.15	0.2001	883.15	0.46
333.15	0.2501	899.27	0.43
333.15	0.3002	915.79	0.4
333.15	0.35	932.56	0.38
333.15	0.4001	949.82	0.35
333.15	0.45	967.42	0.33
333.15	0.5	985.45	0.31
333.15	0.5001	985.53	0.31
333.15	0.55	1003.94	0.3
333.15	0.6001	1022.87	0.32
333.15	0.65	1042.24	0.34
333.15	0.7	1062.12	0.36
333.15	0.75	1082.61	0.38
333.15	0.8	1103.5	0.41
333.15	0.85	1125.22	0.44
333.15	0.9	1147.44	0.46
333.15	0.925	1158.7	0.48
333.15	0.975	1181.97	0.51

System: 1,2-dichloroethane + 2,5,8-trioxanonane; phases: Liquid
Fixed: Pressure, kPa = 101.3
Property: Mass density, kg/m3 (Liquid); method: Vibrating tube method
Temperature, K	Mole fraction of 1,2-dichloroethane	Mass density, kg/m3	uncertainty
283.15	0.0252	958.22	0.25
283.15	0.0508	963.01	0.24
283.15	0.0751	967.64	0.24
283.15	0.1	972.47	0.23
283.15	0.1502	982.62	0.22
283.15	0.1999	993.12	0.22
283.15	0.25	1004.25	0.21
283.15	0.3002	1015.91	0.21
283.15	0.3501	1028.01	0.21
283.15	0.4	1040.79	0.22
283.15	0.45	1054.2	0.22
283.15	0.5003	1068.49	0.22
283.15	0.5499	1083.31	0.23
283.15	0.5999	1098.98	0.24
283.15	0.6501	1115.77	0.25
283.15	0.7	1133.3	0.26
283.15	0.75	1151.98	0.27
283.15	0.8	1172.08	0.28
283.15	0.8499	1193.31	0.3
283.15	0.9	1216.25	0.31
283.15	0.925	1228.27	0.33
283.15	0.9494	1240.66	0.34
283.15	0.975	1253.89	0.34
288.15	0	948.72	0.23
288.15	0.0252	953.25	0.25
288.15	0.0508	958.01	0.24
288.15	0.0751	962.62	0.24
288.15	0.1	967.4	0.23
288.15	0.1502	977.49	0.22
288.15	0.1999	987.92	0.22
288.15	0.25	998.97	0.21
288.15	0.3002	1010.56	0.21
288.15	0.3501	1022.59	0.21
288.15	0.4	1035.28	0.21
288.15	0.45	1048.58	0.22
288.15	0.5003	1062.78	0.22
288.15	0.5499	1077.45	0.23
288.15	0.5999	1093.07	0.23
288.15	0.6501	1109.73	0.24
288.15	0.7	1127.26	0.25
288.15	0.75	1145.68	0.27
288.15	0.8	1165.61	0.28
288.15	0.8499	1186.69	0.3
288.15	0.9	1209.44	0.31
288.15	0.925	1221.36	0.33
288.15	0.9494	1233.66	0.34
288.15	0.975	1246.79	0.34
293.15	0.0252	948.26	0.25
293.15	0.0508	952.99	0.24
293.15	0.0751	957.57	0.24
293.15	0.1	962.33	0.23
293.15	0.1502	972.35	0.22
293.15	0.1999	982.7	0.22
293.15	0.25	993.69	0.21
293.15	0.3002	1005.2	0.21
293.15	0.3501	1017.14	0.21
293.15	0.4	1029.75	0.21
293.15	0.45	1042.96	0.21
293.15	0.5003	1057.05	0.22
293.15	0.5499	1071.62	0.22
293.15	0.5999	1087.13	0.23
293.15	0.6501	1103.67	0.24
293.15	0.7	1121.07	0.25
293.15	0.75	1139.34	0.26
293.15	0.8	1159.12	0.28
293.15	0.8499	1180.04	0.29
293.15	0.9	1202.6	0.31
293.15	0.925	1214.42	0.32
293.15	0.9494	1226.62	0.33
293.15	0.975	1239.64	0.34
298.15	0.0252	943.26	0.25
298.15	0.0508	947.97	0.24
298.15	0.0751	952.52	0.24
298.15	0.1	957.24	0.23
298.15	0.1502	967.19	0.22
298.15	0.1999	977.48	0.22
298.15	0.25	988.39	0.21
298.15	0.3002	999.83	0.2
298.15	0.3501	1011.69	0.2
298.15	0.4	1024.2	0.21
298.15	0.45	1037.32	0.21
298.15	0.5003	1051.31	0.22
298.15	0.5499	1065.77	0.22
298.15	0.5999	1081.17	0.23
298.15	0.6501	1097.58	0.24
298.15	0.7	1114.85	0.25
298.15	0.75	1132.98	0.26
298.15	0.8	1152.61	0.27
298.15	0.8499	1173.37	0.29
298.15	0.9	1195.74	0.3
298.15	0.925	1207.47	0.32
298.15	0.9494	1219.57	0.33
298.15	0.975	1232.47	0.33
303.15	0.0252	938.26	0.25
303.15	0.0508	942.93	0.24
303.15	0.0751	947.45	0.24
303.15	0.1	952.14	0.23
303.15	0.1502	962.02	0.22
303.15	0.1999	972.24	0.22
303.15	0.25	983.08	0.21
303.15	0.3002	994.44	0.2
303.15	0.3501	1006.21	0.2
303.15	0.4	1018.64	0.2
303.15	0.45	1031.66	0.21
303.15	0.5003	1045.56	0.21
303.15	0.5499	1059.91	0.22
303.15	0.5999	1075.19	0.23
303.15	0.6501	1091.48	0.24
303.15	0.7	1108.62	0.24
303.15	0.75	1126.61	0.26
303.15	0.8	1146.07	0.27
303.15	0.8499	1166.67	0.29
303.15	0.9	1188.86	0.3
303.15	0.925	1200.48	0.32
303.15	0.9494	1212.48	0.33
303.15	0.975	1225.28	0.33
308.15	0.0252	933.23	0.25
308.15	0.0508	937.88	0.24
308.15	0.0751	942.36	0.24
308.15	0.1	947.02	0.23
308.15	0.1502	956.85	0.22
308.15	0.1999	966.98	0.22
308.15	0.25	977.75	0.21
308.15	0.3002	989.03	0.2
308.15	0.3501	1000.72	0.2
308.15	0.4	1013.05	0.2
308.15	0.45	1025.99	0.2
308.15	0.5003	1039.78	0.21
308.15	0.5499	1054.03	0.22
308.15	0.5999	1069.2	0.22
308.15	0.6501	1085.36	0.23
308.15	0.7	1102.36	0.24
308.15	0.75	1120.21	0.25
308.15	0.8	1139.52	0.27
308.15	0.8499	1159.94	0.28
308.15	0.9	1181.94	0.3
308.15	0.925	1193.47	0.31
308.15	0.9494	1205.37	0.32
308.15	0.975	1218.05	0.33
313.15	0.0252	928.2	0.25
313.15	0.0508	932.81	0.24
313.15	0.0751	937.26	0.24
313.15	0.1	941.89	0.23
313.15	0.1502	951.65	0.22
313.15	0.1999	961.71	0.22
313.15	0.25	972.4	0.21
313.15	0.3002	983.61	0.2
313.15	0.3501	995.21	0.2
313.15	0.4	1007.46	0.2
313.15	0.45	1020.29	0.2
313.15	0.5003	1033.98	0.21
313.15	0.5499	1048.12	0.21
313.15	0.5999	1063.17	0.22
313.15	0.6501	1079.21	0.23
313.15	0.7	1096.08	0.24
313.15	0.75	1113.78	0.25
313.15	0.8	1132.93	0.26
313.15	0.8499	1153.19	0.28
313.15	0.9	1175	0.29
313.15	0.925	1186.42	0.31
313.15	0.9494	1198.22	0.32
313.15	0.975	1210.78	0.32
318.15	0.0252	923.14	0.25
318.15	0.0508	927.72	0.24
318.15	0.0751	932.15	0.24
318.15	0.1	936.74	0.23
318.15	0.1502	946.43	0.22
318.15	0.1999	956.42	0.22
318.15	0.25	967.04	0.21
318.15	0.3002	978.16	0.2
318.15	0.3501	989.69	0.2
318.15	0.4	1001.83	0.19
318.15	0.45	1014.56	0.2
318.15	0.5003	1028.16	0.2
318.15	0.5499	1042.19	0.21
318.15	0.5999	1057.13	0.22
318.15	0.6501	1073.04	0.23
318.15	0.7	1089.77	0.24
318.15	0.75	1107.32	0.25
318.15	0.8	1126.31	0.26
318.15	0.8499	1146.4	0.28
318.15	0.9	1168.02	0.29
318.15	0.925	1179.34	0.31
318.15	0.9494	1191.02	0.31
323.15	0.0252	918.07	0.25
323.15	0.0508	922.62	0.24
323.15	0.0751	927.01	0.24
323.15	0.1	931.58	0.23
323.15	0.1502	941.2	0.22
323.15	0.1999	951.12	0.22
323.15	0.25	961.66	0.21
323.15	0.3002	972.68	0.2
323.15	0.3501	984.14	0.2
323.15	0.4	996.19	0.19
323.15	0.45	1008.81	0.2
323.15	0.5003	1022.31	0.2
323.15	0.5499	1036.25	0.21
323.15	0.5999	1051.05	0.21
323.15	0.6501	1066.84	0.22
323.15	0.7	1083.44	0.23
323.15	0.75	1100.83	0.24
323.15	0.8	1119.65	0.26
323.15	0.8499	1139.57	0.27
323.15	0.9	1160.99	0.29
323.15	0.925	1172.21	0.3
323.15	0.9494	1183.78	0.31
328.15	0.0252	912.99	0.25
328.15	0.0508	917.5	0.24
328.15	0.0751	921.85	0.24
328.15	0.1	926.39	0.23
328.15	0.1502	935.95	0.22
328.15	0.1999	945.79	0.22
328.15	0.25	956.26	0.21
328.15	0.3002	967.18	0.2
328.15	0.3501	978.56	0.2
328.15	0.4	990.53	0.19
328.15	0.45	1003.05	0.19
328.15	0.5003	1016.44	0.2
328.15	0.5499	1030.26	0.2
328.15	0.5999	1044.95	0.21
328.15	0.6501	1060.6	0.22
328.15	0.7	1077.08	0.23
328.15	0.75	1094.32	0.24
328.15	0.8	1112.98	0.26
328.15	0.8499	1132.71	0.27
328.15	0.9	1153.95	0.28
328.15	0.925	1165.08	0.3
328.15	0.9494	1176.54	0.31
333.15	0.0252	907.88	0.25
333.15	0.0508	912.36	0.24
333.15	0.0751	916.68	0.24
333.15	0.1	921.19	0.23
333.15	0.1502	930.67	0.22
333.15	0.1999	940.45	0.22
333.15	0.25	950.83	0.21
333.15	0.3002	961.67	0.2
333.15	0.3501	972.96	0.2
333.15	0.4	984.84	0.19
333.15	0.45	997.27	0.19
333.15	0.5003	1010.54	0.2
333.15	0.5499	1024.25	0.2
333.15	0.5999	1038.81	0.21
333.15	0.6501	1054.34	0.22
333.15	0.7	1070.67	0.23
333.15	0.75	1087.77	0.24
333.15	0.8	1106.28	0.25
333.15	0.8499	1125.84	0.27
333.15	0.9	1146.89	0.28
333.15	0.925	1157.9	0.29
333.15	0.9494	1169.26	0.3

System: 1,2-dichloroethane + diethylene glycol diethyl ether; phases: Liquid
Fixed: Pressure, kPa = 101.3
Property: Mass density, kg/m3 (Liquid); method: Vibrating tube method
Temperature, K	Mole fraction of 1,2-dichloroethane	Mass density, kg/m3	uncertainty
283.15	0.0234	920.54	0.72
283.15	0.0504	925.19	0.7
283.15	0.0751	929.56	0.67
283.15	0.1009	934.31	0.65
283.15	0.1504	943.66	0.6
283.15	0.2	953.71	0.55
283.15	0.2546	965.43	0.51
283.15	0.2999	975.65	0.47
283.15	0.35	987.75	0.43
283.15	0.4006	1000.78	0.39
283.15	0.4502	1014.42	0.37
283.15	0.5002	1029.16	0.35
283.15	0.5499	1044.87	0.33
283.15	0.6	1061.87	0.32
283.15	0.65	1080.19	0.32
283.15	0.6999	1100.05	0.32
283.15	0.7492	1121.14	0.33
283.15	0.8	1145.22	0.34
283.15	0.85	1171.12	0.36
283.15	0.9	1199.76	0.39
283.15	0.95	1231.56	0.42
283.15	0.975	1248.9	0.44
288.15	0.0234	915.7	0.72
288.15	0.0504	920.3	0.69
288.15	0.0751	924.64	0.67
288.15	0.1009	929.36	0.64
288.15	0.1504	938.64	0.6
288.15	0.2	948.62	0.55
288.15	0.2546	960.24	0.5
288.15	0.2999	970.39	0.46
288.15	0.35	982.41	0.43
288.15	0.4006	995.34	0.39
288.15	0.4502	1008.87	0.36
288.15	0.5002	1023.52	0.34
288.15	0.5499	1039.11	0.33
288.15	0.6	1056	0.32
288.15	0.65	1074.19	0.32
288.15	0.6999	1093.92	0.32
288.15	0.7492	1114.87	0.32
288.15	0.8	1138.79	0.34
288.15	0.85	1164.52	0.36
288.15	0.9	1192.98	0.39
288.15	0.95	1224.58	0.41
288.15	0.975	1241.8	0.44
293.15	0.0234	910.83	0.71
293.15	0.0504	915.41	0.69
293.15	0.0751	919.72	0.66
293.15	0.1009	924.39	0.64
293.15	0.1504	933.61	0.59
293.15	0.2	943.52	0.55
293.15	0.2546	955.05	0.5
293.15	0.2999	965.13	0.46
293.15	0.35	977.05	0.42
293.15	0.4006	989.89	0.39
293.15	0.4502	1003.32	0.36
293.15	0.5002	1017.86	0.34
293.15	0.5499	1033.35	0.32
293.15	0.6	1050.12	0.32
293.15	0.65	1068.18	0.31
293.15	0.6999	1087.77	0.31
293.15	0.7492	1108.58	0.32
293.15	0.8	1132.34	0.34
293.15	0.85	1157.9	0.36
293.15	0.9	1186.17	0.39
293.15	0.95	1217.56	0.41
293.15	0.975	1234.66	0.43
298.15	0.0234	905.98	0.71
298.15	0.0504	910.52	0.68
298.15	0.0751	914.8	0.66
298.15	0.1009	919.44	0.63
298.15	0.1504	928.58	0.59
298.15	0.2	938.42	0.54
298.15	0.2546	949.86	0.5
298.15	0.2999	959.86	0.46
298.15	0.35	971.69	0.42
298.15	0.4006	984.44	0.39
298.15	0.4502	997.77	0.35
298.15	0.5002	1012.21	0.33
298.15	0.5499	1027.58	0.32
298.15	0.6	1044.23	0.31
298.15	0.65	1062.16	0.31
298.15	0.6999	1081.63	0.31
298.15	0.7492	1102.29	0.32
298.15	0.8	1125.89	0.33
298.15	0.85	1151.27	0.35
298.15	0.9	1179.35	0.38
298.15	0.95	1210.52	0.41
298.15	0.975	1227.5	0.43
303.15	0.0234	901.12	0.7
303.15	0.0504	905.62	0.68
303.15	0.0751	909.87	0.65
303.15	0.1009	914.47	0.63
303.15	0.1504	923.55	0.58
303.15	0.2	933.31	0.54
303.15	0.2546	944.67	0.49
303.15	0.2999	954.59	0.46
303.15	0.35	966.34	0.42
303.15	0.4006	978.99	0.38
303.15	0.4502	992.22	0.35
303.15	0.5002	1006.55	0.33
303.15	0.5499	1021.8	0.32
303.15	0.6	1038.33	0.31
303.15	0.65	1056.14	0.3
303.15	0.6999	1075.47	0.3
303.15	0.7492	1095.99	0.31
303.15	0.8	1119.42	0.33
303.15	0.85	1144.62	0.35
303.15	0.9	1172.51	0.38
303.15	0.95	1203.45	0.4
303.15	0.975	1220.32	0.43
308.15	0.0234	896.25	0.7
308.15	0.0504	900.73	0.67
308.15	0.0751	904.95	0.65
308.15	0.1009	909.51	0.63
308.15	0.1504	918.52	0.58
308.15	0.2	928.2	0.54
308.15	0.2546	939.47	0.49
308.15	0.2999	949.32	0.46
308.15	0.35	960.97	0.42
308.15	0.4006	973.53	0.38
308.15	0.4502	986.66	0.35
308.15	0.5002	1000.88	0.32
308.15	0.5499	1016.02	0.31
308.15	0.6	1032.44	0.3
308.15	0.65	1050.11	0.3
308.15	0.6999	1069.3	0.3
308.15	0.7492	1089.67	0.31
308.15	0.8	1112.94	0.33
308.15	0.85	1137.96	0.35
308.15	0.9	1165.64	0.38
308.15	0.95	1196.36	0.4
308.15	0.975	1213.1	0.42
313.15	0.0234	891.38	0.69
313.15	0.0504	895.82	0.67
313.15	0.0751	900.01	0.65
313.15	0.1009	904.54	0.62
313.15	0.1504	913.47	0.58
313.15	0.2	923.09	0.53
313.15	0.2546	934.27	0.49
313.15	0.2999	944.04	0.45
313.15	0.35	955.6	0.42
313.15	0.4006	968.06	0.38
313.15	0.4502	981.1	0.35
313.15	0.5002	995.21	0.32
313.15	0.5499	1010.23	0.31
313.15	0.6	1026.51	0.3
313.15	0.65	1044.07	0.3
313.15	0.6999	1063.11	0.3
313.15	0.7492	1083.34	0.31
313.15	0.8	1106.44	0.32
313.15	0.85	1131.28	0.34
313.15	0.9	1158.75	0.37
313.15	0.95	1189.24	0.4
313.15	0.975	1205.85	0.42
318.15	0.0234	886.51	0.69
318.15	0.0504	890.92	0.66
318.15	0.0751	895.06	0.64
318.15	0.1009	899.56	0.62
318.15	0.1504	908.43	0.57
318.15	0.2	917.97	0.53
318.15	0.2546	929.05	0.49
318.15	0.2999	938.75	0.45
318.15	0.35	950.21	0.41
318.15	0.4006	962.59	0.38
318.15	0.4502	975.52	0.35
318.15	0.5002	989.52	0.32
318.15	0.5499	1004.42	0.3
318.15	0.6	1020.6	0.29
318.15	0.65	1038	0.29
318.15	0.6999	1056.9	0.29
318.15	0.7492	1077	0.3
318.15	0.8	1099.91	0.32
318.15	0.85	1124.57	0.34
318.15	0.9	1151.82	0.37
318.15	0.95	1182.08	0.39
318.15	0.975	1198.56	0.42
323.15	0	877.66	0.7
323.15	0.0234	881.62	0.69
323.15	0.0504	886	0.66
323.15	0.0751	890.1	0.64
323.15	0.1009	894.58	0.61
323.15	0.1504	903.37	0.57
323.15	0.2	912.84	0.53
323.15	0.2546	923.83	0.48
323.15	0.2999	933.46	0.45
323.15	0.35	944.83	0.41
323.15	0.4006	957.11	0.38
323.15	0.4502	969.94	0.35
323.15	0.5002	983.83	0.32
323.15	0.5499	998.59	0.3
323.15	0.6	1014.67	0.29
323.15	0.65	1031.92	0.29
323.15	0.6999	1050.67	0.29
323.15	0.7492	1070.63	0.3
323.15	0.8	1093.36	0.32
323.15	0.85	1117.84	0.34
323.15	0.9	1144.87	0.37
323.15	0.95	1174.86	0.39
323.15	0.975	1191.23	0.41
328.15	0.0234	876.73	0.68
328.15	0.0504	881.07	0.65
328.15	0.0751	885.15	0.63
328.15	0.1009	889.59	0.61
328.15	0.1504	898.31	0.57
328.15	0.2	907.7	0.52
328.15	0.2546	918.61	0.48
328.15	0.2999	928.16	0.45
328.15	0.35	939.44	0.41
328.15	0.4006	951.61	0.38
328.15	0.4502	964.34	0.35
328.15	0.5002	978.12	0.32
328.15	0.5499	992.77	0.3
328.15	0.6	1008.71	0.29
328.15	0.65	1025.84	0.28
328.15	0.6999	1044.44	0.29
328.15	0.7492	1064.24	0.3
328.15	0.8	1086.78	0.31
328.15	0.85	1111.08	0.33
328.15	0.9	1137.9	0.36
328.15	0.95	1167.69	0.39
328.15	0.975	1183.9	0.41
333.15	0.0234	871.83	0.68
333.15	0.0504	876.13	0.65
333.15	0.0751	880.18	0.63
333.15	0.1009	884.59	0.61
333.15	0.1504	893.23	0.56
333.15	0.2	902.54	0.52
333.15	0.2546	913.36	0.48
333.15	0.2999	922.86	0.44
333.15	0.35	934.03	0.41
333.15	0.4006	946.09	0.37
333.15	0.4502	958.72	0.34
333.15	0.5002	972.39	0.32
333.15	0.5499	986.94	0.3
333.15	0.6	1002.74	0.28
333.15	0.65	1019.73	0.28
333.15	0.6999	1038.18	0.28
333.15	0.7492	1057.81	0.29
333.15	0.8	1080.17	0.31
333.15	0.85	1104.27	0.33
333.15	0.9	1130.88	0.36
333.15	0.95	1160.44	0.38
333.15	0.975	1176.53	0.4
