Measured thermophysical data. Liquid-Liquid Equilibrium in the System Phosphoric Acid/Water/Tri-n-butyl Phosphate/Calcium Chloride
Source: J. Chem. Eng. Data, 2010, 10.1021/je100054k
Compound 1: phosphoric acid, H3O4P, InChI=1S/H3O4P/c1-5(2,3)4/h(H3,1,2,3,4)
Compound 2: tributyl phosphate, C12H27O4P, InChI=1S/C12H27O4P/c1-4-7-10-14-17(13,15-11-8-5-2)16-12-9-6-3/h4-12H2,1-3H3
Compound 3: water, H2O, InChI=1S/H2O/h1H2

System: tributyl phosphate + phosphoric acid + water; phases: Liquid mixture 1, Liquid mixture 2
Fixed: Pressure, kPa = 101
Fixed: Temperature, K = 298.15
Property: Mass density, kg/m3 (Liquid mixture 1); method: Vibrating tube method
Mass fraction of phosphoric acid	Mass density, kg/m3	uncertainty
0.028333	1015.4	8.8
0.055929	1029.4	9.2
0.08041	1044.3	10.3
0.099924	1060.2	10.1
0.128287	1075.2	9.6
0.154428	1088.6	10.1
0.178798	1104	10.6

System: tributyl phosphate + phosphoric acid + water; phases: Liquid mixture 2, Liquid mixture 1
Fixed: Pressure, kPa = 101
Fixed: Temperature, K = 298.15
Property: Mass density, kg/m3 (Liquid mixture 2); method: Vibrating tube method
Mass fraction of phosphoric acid	Mass density, kg/m3	uncertainty
0.00201	972.9	6.6
0.004951	973.4	6.6
0.008863	975	6.7
0.012849	977.1	6.7
0.022967	980.2	6.8
0.028201	983.6	6.8
0.034557	987.5	6.9

System: tributyl phosphate + phosphoric acid + water; phases: Liquid mixture 1, Liquid mixture 2
Fixed: Temperature, K = 298.15
Fixed: Pressure, kPa = 101.3
Property: Mass fraction of water (Liquid mixture 1); method: Titration method
Property: Mass fraction of water (Liquid mixture 2); method: Titration method
Property: Mass fraction of phosphoric acid (Liquid mixture 2); method: Titration method
Mass fraction of phosphoric acid	Mass fraction of water	uncertainty	Mass fraction of water	uncertainty	Mass fraction of phosphoric acid	uncertainty
0.028333	0.970514	0.010035	0.068694	0.010187	0.00201	
0.055929	0.943007	0.01422	0.068081	0.010184	0.004951	
0.08041	0.918539	0.014311	0.067377	0.01018	0.008863	
0.099924	0.89913	0.014417	0.066942	0.010178	0.012849	
0.128287	0.870743	0.014611	0.066412	0.010175	0.022967	
0.154428	0.844594	0.014805	0.065991	0.010173	0.028201	
0.178798	0.820269	0.011218	0.065487	0.01017	0.034557	
