Measured thermophysical data. Densities, Viscosities, and Refractive Indices of Binary Mixtures of Diethyl Oxalate with Some Ketones at (303.15, 308.15, and 313.15) K
Source: J. Chem. Eng. Data, 2010, 10.1021/je100715x
Compound 1: diethyl ethanedioate, C6H10O4, InChI=1S/C6H10O4/c1-3-9-5(7)6(8)10-4-2/h3-4H2,1-2H3, purity 99%
Compound 2: acetophenone, C8H8O, InChI=1S/C8H8O/c1-7(9)8-5-3-2-4-6-8/h2-6H,1H3, purity 99%
Compound 3: cyclopentanone, C5H8O, InChI=1S/C5H8O/c6-5-3-1-2-4-5/h1-4H2, purity 99%
Compound 4: cyclohexanone, C6H10O, InChI=1S/C6H10O/c7-6-4-2-1-3-5-6/h1-5H2, purity 99%
Compound 5: pentan-3-one, C5H10O, InChI=1S/C5H10O/c1-3-5(6)4-2/h3-4H2,1-2H3, purity 99%

System: diethyl ethanedioate; phases: Liquid
Fixed: Pressure, kPa = 101.325
Property: Viscosity, Pa*s (Liquid); method: Capillary tube (Ostwald; Ubbelohde) method
Temperature, K	Viscosity, Pa*s	uncertainty
303.15	0.001623	2.1e-05
308.15	0.00148	1.9e-05
313.15	0.001367	1.8e-05

System: diethyl ethanedioate; phases: Liquid
Fixed: Pressure, kPa = 101.325
Property: Refractive index (Na D-line) (Liquid); method: Standard Abbe refractometry
Temperature, K	Refractive index (Na D-line)	uncertainty
303.15	1.4063	0.0004
308.15	1.404	0.0004
313.15	1.402	0.0004

System: diethyl ethanedioate; phases: Liquid
Fixed: Pressure, kPa = 101.325
Property: Mass density, kg/m3 (Liquid); method: Vibrating tube method
Temperature, K	Mass density, kg/m3	uncertainty
303.15	1066.1	0.4
308.15	1060.5	0.4
313.15	1054.5	0.4

System: acetophenone; phases: Liquid
Fixed: Pressure, kPa = 101.325
Property: Viscosity, Pa*s (Liquid); method: Capillary tube (Ostwald; Ubbelohde) method
Temperature, K	Viscosity, Pa*s	uncertainty
303.15	0.001518	2e-05
308.15	0.001378	1.8e-05
313.15	0.001291	1.6e-05

System: acetophenone; phases: Liquid
Fixed: Pressure, kPa = 101.325
Property: Refractive index (Na D-line) (Liquid); method: Standard Abbe refractometry
Temperature, K	Refractive index (Na D-line)	uncertainty
303.15	1.5294	0.0004
308.15	1.527	0.0004
313.15	1.525	0.0004

System: acetophenone; phases: Liquid
Fixed: Pressure, kPa = 101.325
Property: Mass density, kg/m3 (Liquid); method: Vibrating tube method
Temperature, K	Mass density, kg/m3	uncertainty
303.15	1019.9	0.3
308.15	1016.9	0.3
313.15	1013.5	0.3

System: cyclopentanone; phases: Liquid
Fixed: Pressure, kPa = 101.325
Property: Viscosity, Pa*s (Liquid); method: Capillary tube (Ostwald; Ubbelohde) method
Temperature, K	Viscosity, Pa*s	uncertainty
303.15	0.000999	1.3e-05
308.15	0.000927	1.2e-05
313.15	0.000865	1.1e-05

System: cyclopentanone; phases: Liquid
Fixed: Pressure, kPa = 101.325
Property: Refractive index (Na D-line) (Liquid); method: Standard Abbe refractometry
Temperature, K	Refractive index (Na D-line)	uncertainty
298.15	1.4352	0.0004
303.15	1.4335	0.0004
308.15	1.431	0.0004
313.15	1.429	0.0004

System: cyclopentanone; phases: Liquid
Fixed: Pressure, kPa = 101.325
Property: Mass density, kg/m3 (Liquid); method: Vibrating tube method
Temperature, K	Mass density, kg/m3	uncertainty
303.15	938.5	0.4
308.15	933.9	0.4
313.15	929	0.4

System: cyclohexanone; phases: Liquid
Fixed: Pressure, kPa = 101.325
Property: Viscosity, Pa*s (Liquid); method: Capillary tube (Ostwald; Ubbelohde) method
Temperature, K	Viscosity, Pa*s	uncertainty
303.15	0.001816	2.3e-05
308.15	0.001657	2.1e-05
313.15	0.001542	2e-05

System: cyclohexanone; phases: Liquid
Fixed: Pressure, kPa = 101.325
Property: Refractive index (Na D-line) (Liquid); method: Standard Abbe refractometry
Temperature, K	Refractive index (Na D-line)	uncertainty
303.15	1.4465	0.0004
308.15	1.444	0.0004
313.15	1.442	0.0004

System: cyclohexanone; phases: Liquid
Fixed: Pressure, kPa = 101.325
Property: Mass density, kg/m3 (Liquid); method: Vibrating tube method
Temperature, K	Mass density, kg/m3	uncertainty
303.15	937.7	0.4
308.15	932.8	0.4
313.15	928.2	0.4

System: pentan-3-one; phases: Liquid
Fixed: Pressure, kPa = 101.325
Property: Viscosity, Pa*s (Liquid); method: Capillary tube (Ostwald; Ubbelohde) method
Temperature, K	Viscosity, Pa*s	uncertainty
303.15	0.000429	6e-06
308.15	0.000397	5e-06
313.15	0.000388	5e-06

System: pentan-3-one; phases: Liquid
Fixed: Pressure, kPa = 101.325
Property: Refractive index (Na D-line) (Liquid); method: Standard Abbe refractometry
Temperature, K	Refractive index (Na D-line)	uncertainty
303.15	1.3879	0.0004
308.15	1.3857	0.0004
313.15	1.3835	0.0004

System: pentan-3-one; phases: Liquid
Fixed: Pressure, kPa = 101.325
Property: Mass density, kg/m3 (Liquid); method: Vibrating tube method
Temperature, K	Mass density, kg/m3	uncertainty
303.15	805.7	0.3
308.15	801.7	0.3
313.15	797.7	0.4

System: diethyl ethanedioate + acetophenone; phases: Liquid
Fixed: Pressure, kPa = 101
Property: Viscosity, Pa*s (Liquid); method: Capillary tube (Ostwald; Ubbelohde) method
Temperature, K	Mole fraction of diethyl ethanedioate	Viscosity, Pa*s	uncertainty
303.15	0.0875	0.001557	2e-05
303.15	0.1478	0.001578	2.1e-05
303.15	0.2538	0.00161	2.1e-05
303.15	0.3443	0.001628	2.1e-05
303.15	0.4591	0.001645	2.2e-05
303.15	0.5501	0.001655	2.2e-05
303.15	0.6601	0.001657	2.2e-05
303.15	0.7601	0.001654	2.2e-05
303.15	0.8846	0.001648	2.1e-05
303.15	0.95	0.001635	2.1e-05
308.15	0.0875	0.001405	1.8e-05
308.15	0.1478	0.001418	1.8e-05
308.15	0.2538	0.001439	1.9e-05
308.15	0.3443	0.001454	1.9e-05
308.15	0.4591	0.001467	1.9e-05
308.15	0.5501	0.001477	1.9e-05
308.15	0.6601	0.001485	1.9e-05
308.15	0.7601	0.001487	1.9e-05
308.15	0.8846	0.001489	1.9e-05
308.15	0.95	0.00149	1.9e-05
313.15	0.0875	0.001308	1.7e-05
313.15	0.1478	0.001317	1.7e-05
313.15	0.2538	0.001333	1.7e-05
313.15	0.3443	0.001344	1.7e-05
313.15	0.4591	0.001355	1.7e-05
313.15	0.5501	0.001362	1.8e-05
313.15	0.6601	0.001366	1.8e-05
313.15	0.7601	0.00137	1.8e-05
313.15	0.8846	0.001373	1.8e-05
313.15	0.95	0.001375	1.8e-05

System: diethyl ethanedioate + acetophenone; phases: Liquid
Fixed: Pressure, kPa = 101
Property: Refractive index (Na D-line) (Liquid); method: Standard Abbe refractometry
Temperature, K	Mole fraction of diethyl ethanedioate	Refractive index (Na D-line)	uncertainty
303.15	0.0875	1.5171	0.0004
303.15	0.1478	1.5087	0.0004
303.15	0.2538	1.4945	0.0004
303.15	0.3443	1.4826	0.0004
303.15	0.4591	1.4685	0.0004
303.15	0.5501	1.4574	0.0004
303.15	0.6601	1.4439	0.0004
303.15	0.7601	1.4325	0.0004
303.15	0.8846	1.4187	0.0004
303.15	0.95	1.4117	0.0004
308.15	0.0875	1.5151	0.0004
308.15	0.1478	1.5068	0.0004
308.15	0.2538	1.4928	0.0004
308.15	0.3443	1.4811	0.0004
308.15	0.4591	1.4671	0.0004
308.15	0.5501	1.456	0.0004
308.15	0.6601	1.4424	0.0004
308.15	0.7601	1.4309	0.0004
308.15	0.8846	1.4167	0.0004
308.15	0.95	1.4095	0.0004
313.15	0.0875	1.5133	0.0004
313.15	0.1478	1.5053	0.0004
313.15	0.2538	1.4912	0.0004
313.15	0.3443	1.4796	0.0004
313.15	0.4591	1.4656	0.0004
313.15	0.5501	1.4544	0.0004
313.15	0.6601	1.4411	0.0004
313.15	0.7601	1.4293	0.0004
313.15	0.8846	1.4154	0.0004
313.15	0.95	1.4079	0.0004

System: diethyl ethanedioate + acetophenone; phases: Liquid
Fixed: Pressure, kPa = 101
Property: Mass density, kg/m3 (Liquid); method: Vibrating tube method
Temperature, K	Mole fraction of diethyl ethanedioate	Mass density, kg/m3	uncertainty
303.15	0.0875	1024.1	0.3
303.15	0.1478	1026.7	0.3
303.15	0.2538	1031.2	0.4
303.15	0.3443	1034.9	0.4
303.15	0.4591	1039.9	0.4
303.15	0.5501	1044	0.4
303.15	0.6601	1049.3	0.4
303.15	0.7601	1054.3	0.4
303.15	0.8846	1060.6	0.4
303.15	0.95	1063.8	0.4
308.15	0.0875	1021	0.3
308.15	0.1478	1023.6	0.4
308.15	0.2538	1027.9	0.4
308.15	0.3443	1031.5	0.4
308.15	0.4591	1036.2	0.4
308.15	0.5501	1040.1	0.4
308.15	0.6601	1045.2	0.4
308.15	0.7601	1049.8	0.4
308.15	0.8846	1055.6	0.4
308.15	0.95	1058.5	0.4
313.15	0.0875	1017.4	0.3
313.15	0.1478	1019.9	0.4
313.15	0.2538	1024	0.4
313.15	0.3443	1027.5	0.4
313.15	0.4591	1032	0.4
313.15	0.5501	1035.7	0.4
313.15	0.6601	1040.2	0.4
313.15	0.7601	1044.5	0.4
313.15	0.8846	1049.9	0.4
313.15	0.95	1052.5	0.4

System: diethyl ethanedioate + cyclopentanone; phases: Liquid
Fixed: Pressure, kPa = 101
Property: Viscosity, Pa*s (Liquid); method: Capillary tube (Ostwald; Ubbelohde) method
Temperature, K	Mole fraction of diethyl ethanedioate	Viscosity, Pa*s	uncertainty
303.15	0.0679	0.001045	1.4e-05
303.15	0.1501	0.001095	1.4e-05
303.15	0.2518	0.001153	1.5e-05
303.15	0.3903	0.001233	1.6e-05
303.15	0.4511	0.001265	1.6e-05
303.15	0.5509	0.001326	1.7e-05
303.15	0.6587	0.001394	1.8e-05
303.15	0.7587	0.001458	1.9e-05
303.15	0.8755	0.001537	2e-05
303.15	0.961	0.001596	2.1e-05
308.15	0.0679	0.00096	1.2e-05
308.15	0.1501	0.000999	1.3e-05
308.15	0.2518	0.001048	1.4e-05
308.15	0.3903	0.001119	1.5e-05
308.15	0.4511	0.001152	1.5e-05
308.15	0.5509	0.001207	1.6e-05
308.15	0.6587	0.001269	1.6e-05
308.15	0.7587	0.001329	1.7e-05
308.15	0.8755	0.001401	1.8e-05
308.15	0.961	0.001454	1.9e-05
313.15	0.0679	0.000891	1.2e-05
313.15	0.1501	0.000925	1.2e-05
313.15	0.2518	0.000968	1.3e-05
313.15	0.3903	0.001031	1.3e-05
313.15	0.4511	0.001058	1.4e-05
313.15	0.5509	0.001107	1.4e-05
313.15	0.6587	0.001163	1.5e-05
313.15	0.7587	0.001219	1.6e-05
313.15	0.8755	0.001288	1.7e-05
313.15	0.961	0.001342	1.7e-05

System: diethyl ethanedioate + cyclopentanone; phases: Liquid
Fixed: Pressure, kPa = 101
Property: Refractive index (Na D-line) (Liquid); method: Standard Abbe refractometry
Temperature, K	Mole fraction of diethyl ethanedioate	Refractive index (Na D-line)	uncertainty
303.15	0.0679	1.4299	0.0004
303.15	0.1501	1.4264	0.0004
303.15	0.2518	1.4226	0.0004
303.15	0.3903	1.4182	0.0004
303.15	0.4511	1.4164	0.0004
303.15	0.5509	1.4139	0.0004
303.15	0.6587	1.4115	0.0004
303.15	0.7587	1.4098	0.0004
303.15	0.8755	1.408	0.0004
303.15	0.961	1.4068	0.0004
308.15	0.0679	1.4278	0.0004
308.15	0.1501	1.4244	0.0004
308.15	0.2518	1.4207	0.0004
308.15	0.3903	1.4164	0.0004
308.15	0.4511	1.4147	0.0004
308.15	0.5509	1.4122	0.0004
308.15	0.6587	1.4098	0.0004
308.15	0.7587	1.4079	0.0004
308.15	0.8755	1.4059	0.0004
308.15	0.961	1.4045	0.0004
313.15	0.0679	1.4262	0.0004
313.15	0.1501	1.4231	0.0004
313.15	0.2518	1.4198	0.0004
313.15	0.3903	1.4158	0.0004
313.15	0.4511	1.4142	0.0004
313.15	0.5509	1.4116	0.0004
313.15	0.6587	1.4089	0.0004
313.15	0.7587	1.4067	0.0004
313.15	0.8755	1.4043	0.0004
313.15	0.961	1.4027	0.0004

System: diethyl ethanedioate + cyclopentanone; phases: Liquid
Fixed: Pressure, kPa = 101
Property: Mass density, kg/m3 (Liquid); method: Vibrating tube method
Temperature, K	Mole fraction of diethyl ethanedioate	Mass density, kg/m3	uncertainty
303.15	0.0679	950.9	0.4
303.15	0.1501	965	0.4
303.15	0.2518	981	0.3
303.15	0.3903	1000.6	0.4
303.15	0.4511	1008.5	0.4
303.15	0.5509	1020.7	0.4
303.15	0.6587	1032.9	0.4
303.15	0.7587	1043.4	0.4
303.15	0.8755	1054.9	0.4
303.15	0.961	1062.7	0.4
308.15	0.0679	946.1	0.4
308.15	0.1501	960.1	0.4
308.15	0.2518	976	0.4
308.15	0.3903	995.4	0.4
308.15	0.4511	1003.2	0.4
308.15	0.5509	1015.3	0.4
308.15	0.6587	1027.4	0.4
308.15	0.7587	1037.9	0.4
308.15	0.8755	1049.3	0.4
308.15	0.961	1057	0.4
313.15	0.0679	941.1	0.4
313.15	0.1501	954.9	0.4
313.15	0.2518	970.6	0.4
313.15	0.3903	989.9	0.4
313.15	0.4511	997.7	0.4
313.15	0.5509	1009.7	0.4
313.15	0.6587	1021.7	0.4
313.15	0.7587	1032.1	0.4
313.15	0.8755	1043.3	0.4
313.15	0.961	1051	0.4

System: diethyl ethanedioate + cyclohexanone; phases: Liquid
Fixed: Pressure, kPa = 101
Property: Viscosity, Pa*s (Liquid); method: Capillary tube (Ostwald; Ubbelohde) method
Temperature, K	Mole fraction of diethyl ethanedioate	Viscosity, Pa*s	uncertainty
303.15	0.0784	0.001777	2.3e-05
303.15	0.1495	0.001737	2.3e-05
303.15	0.2501	0.001682	2.2e-05
303.15	0.3443	0.001637	2.2e-05
303.15	0.4324	0.001609	2.1e-05
303.15	0.5507	0.001584	2.1e-05
303.15	0.6755	0.001575	2.1e-05
303.15	0.7601	0.001581	2.1e-05
303.15	0.8756	0.001606	2.1e-05
303.15	0.9502	0.00162	2.1e-05
308.15	0.0784	0.001595	2.1e-05
308.15	0.1495	0.001556	2e-05
308.15	0.2501	0.0015	2e-05
308.15	0.3443	0.001461	1.9e-05
308.15	0.4324	0.001435	1.9e-05
308.15	0.5507	0.001415	1.9e-05
308.15	0.6755	0.001404	1.8e-05
308.15	0.7601	0.001407	1.8e-05
308.15	0.8756	0.001437	1.9e-05
308.15	0.9502	0.001464	1.9e-05
313.15	0.0784	0.001466	1.9e-05
313.15	0.1495	0.001416	1.8e-05
313.15	0.2501	0.00136	1.8e-05
313.15	0.3443	0.001325	1.7e-05
313.15	0.4324	0.001304	1.7e-05
313.15	0.5507	0.001285	1.7e-05
313.15	0.6755	0.001276	1.7e-05
313.15	0.7601	0.001284	1.7e-05
313.15	0.8756	0.001329	1.7e-05
313.15	0.9502	0.001351	1.7e-05

System: diethyl ethanedioate + cyclohexanone; phases: Liquid
Fixed: Pressure, kPa = 101
Property: Refractive index (Na D-line) (Liquid); method: Standard Abbe refractometry
Temperature, K	Mole fraction of diethyl ethanedioate	Refractive index (Na D-line)	uncertainty
303.15	0.0784	1.4429	0.0004
303.15	0.1495	1.4399	0.0004
303.15	0.2501	1.4359	0.0004
303.15	0.3443	1.4323	0.0004
303.15	0.4324	1.4287	0.0004
303.15	0.5507	1.4239	0.0004
303.15	0.6755	1.4186	0.0004
303.15	0.7601	1.4154	0.0004
303.15	0.8756	1.4108	0.0004
303.15	0.9502	1.4081	0.0004
308.15	0.0784	1.4406	0.0004
308.15	0.1495	1.4376	0.0004
308.15	0.2501	1.434	0.0004
308.15	0.3443	1.4307	0.0004
308.15	0.4324	1.4273	0.0004
308.15	0.5507	1.4223	0.0004
308.15	0.6755	1.4168	0.0004
308.15	0.7601	1.4133	0.0004
308.15	0.8756	1.4088	0.0004
308.15	0.9502	1.4059	0.0004
313.15	0.0784	1.4388	0.0004
313.15	0.1495	1.4359	0.0004
313.15	0.2501	1.4321	0.0004
313.15	0.3443	1.4287	0.0004
313.15	0.4324	1.4252	0.0004
313.15	0.5507	1.4204	0.0004
313.15	0.6755	1.4152	0.0004
313.15	0.7601	1.4116	0.0004
313.15	0.8756	1.4071	0.0004
313.15	0.9502	1.4043	0.0004

System: diethyl ethanedioate + cyclohexanone; phases: Liquid
Fixed: Pressure, kPa = 101
Property: Mass density, kg/m3 (Liquid); method: Vibrating tube method
Temperature, K	Mole fraction of diethyl ethanedioate	Mass density, kg/m3	uncertainty
303.15	0.0784	950.2	0.4
303.15	0.1495	961	0.4
303.15	0.2501	975.4	0.4
303.15	0.3443	988.4	0.4
303.15	0.4324	1000	0.4
303.15	0.5507	1015.1	0.4
303.15	0.6755	1030.3	0.4
303.15	0.7601	1040.2	0.4
303.15	0.8756	1053.1	0.4
303.15	0.9502	1061	0.4
308.15	0.0784	945.1	0.4
308.15	0.1495	955.8	0.4
308.15	0.2501	970.3	0.4
308.15	0.3443	983.1	0.4
308.15	0.4324	994.7	0.4
308.15	0.5507	1009.6	0.4
308.15	0.6755	1024.7	0.4
308.15	0.7601	1034.5	0.4
308.15	0.8756	1047.4	0.4
308.15	0.9502	1055.3	0.4
313.15	0.0784	940.1	0.4
313.15	0.1495	950.6	0.4
313.15	0.2501	964.9	0.4
313.15	0.3443	977.7	0.4
313.15	0.4324	989.2	0.4
313.15	0.5507	1004	0.4
313.15	0.6755	1019	0.4
313.15	0.7601	1028.7	0.4
313.15	0.8756	1041.4	0.4
313.15	0.9502	1049.3	0.4

System: diethyl ethanedioate + pentan-3-one; phases: Liquid
Fixed: Pressure, kPa = 101
Property: Viscosity, Pa*s (Liquid); method: Capillary tube (Ostwald; Ubbelohde) method
Temperature, K	Mole fraction of diethyl ethanedioate	Viscosity, Pa*s	uncertainty
303.15	0.0865	0.000485	6e-06
303.15	0.1436	0.000527	7e-06
303.15	0.2448	0.00061	8e-06
303.15	0.3389	0.000701	9e-06
303.15	0.4495	0.000818	1.1e-05
303.15	0.5325	0.000916	1.2e-05
303.15	0.6518	0.001071	1.4e-05
303.15	0.7587	0.001224	1.6e-05
303.15	0.8659	0.001395	1.8e-05
303.15	0.9438	0.001525	2e-05
308.15	0.0865	0.000452	6e-06
308.15	0.1436	0.000491	6e-06
308.15	0.2448	0.000567	7e-06
308.15	0.3389	0.00065	8e-06
308.15	0.4495	0.000759	1e-05
308.15	0.5325	0.000848	1.1e-05
308.15	0.6518	0.000987	1.3e-05
308.15	0.7587	0.001121	1.4e-05
308.15	0.8659	0.001274	1.6e-05
308.15	0.9438	0.001391	1.8e-05
313.15	0.0865	0.00044	6e-06
313.15	0.1436	0.000478	6e-06
313.15	0.2448	0.000551	7e-06
313.15	0.3389	0.000627	8e-06
313.15	0.4495	0.000726	9e-06
313.15	0.5325	0.000808	1e-05
313.15	0.6518	0.000936	1.2e-05
313.15	0.7587	0.001061	1.3e-05
313.15	0.8659	0.001196	1.5e-05
313.15	0.9438	0.001295	1.7e-05

System: diethyl ethanedioate + pentan-3-one; phases: Liquid
Fixed: Pressure, kPa = 101
Property: Refractive index (Na D-line) (Liquid); method: Standard Abbe refractometry
Temperature, K	Mole fraction of diethyl ethanedioate	Refractive index (Na D-line)	uncertainty
303.15	0.0865	1.3901	0.0004
303.15	0.1436	1.3916	0.0004
303.15	0.2448	1.3941	0.0004
303.15	0.3389	1.3962	0.0004
303.15	0.4495	1.3984	0.0004
303.15	0.5325	1.3999	0.0004
303.15	0.6518	1.4018	0.0004
303.15	0.7587	1.4033	0.0004
303.15	0.8659	1.4047	0.0004
303.15	0.9438	1.4056	0.0004
308.15	0.0865	1.3881	0.0004
308.15	0.1436	1.3897	0.0004
308.15	0.2448	1.3924	0.0004
308.15	0.3389	1.3947	0.0004
308.15	0.4495	1.3969	0.0004
308.15	0.5325	1.3983	0.0004
308.15	0.6518	1.4	0.0004
308.15	0.7587	1.4014	0.0004
308.15	0.8659	1.4026	0.0004
308.15	0.9438	1.4034	0.0004
313.15	0.0865	1.3861	0.0004
313.15	0.1436	1.3877	0.0004
313.15	0.2448	1.3906	0.0004
313.15	0.3389	1.393	0.0004
313.15	0.4495	1.3954	0.0004
313.15	0.5325	1.3969	0.0004
313.15	0.6518	1.3986	0.0004
313.15	0.7587	1.3998	0.0004
313.15	0.8659	1.4008	0.0004
313.15	0.9438	1.4015	0.0004

System: diethyl ethanedioate + pentan-3-one; phases: Liquid
Fixed: Pressure, kPa = 101
Property: Mass density, kg/m3 (Liquid); method: Vibrating tube method
Temperature, K	Mole fraction of diethyl ethanedioate	Mass density, kg/m3	uncertainty
303.15	0.0865	834	0.4
303.15	0.1436	852	0.3
303.15	0.2448	882.5	0.3
303.15	0.3389	909.4	0.3
303.15	0.4495	939.4	0.3
303.15	0.5325	960.8	0.3
303.15	0.6518	990	0.4
303.15	0.7587	1014.7	0.4
303.15	0.8659	1038.2	0.4
303.15	0.9438	1054.6	0.4
308.15	0.0865	829.9	0.4
308.15	0.1436	847.8	0.4
308.15	0.2448	878.2	0.4
308.15	0.3389	905	0.4
308.15	0.4495	934.8	0.4
308.15	0.5325	956.1	0.4
308.15	0.6518	985.1	0.4
308.15	0.7587	1009.6	0.4
308.15	0.8659	1032.9	0.4
308.15	0.9438	1049.1	0.4
313.15	0.0865	825.8	0.4
313.15	0.1436	843.6	0.4
313.15	0.2448	873.8	0.4
313.15	0.3389	900.5	0.4
313.15	0.4495	930.1	0.4
313.15	0.5325	951.2	0.4
313.15	0.6518	979.9	0.4
313.15	0.7587	1004.2	0.4
313.15	0.8659	1027.2	0.4
313.15	0.9438	1043.3	0.4
