Measured thermophysical data. Effect of 2,2',2''-Nitrilotrisethanol on the Vapor-Liquid Equilibria of the Ethanol + Water System at Atmospheric Pressure
Source: J. Chem. Eng. Data, 2010, 10.1021/je100171z
Compound 1: ethanol, C2H6O, InChI=1S/C2H6O/c1-2-3/h3H,2H2,1H3, purity 99.8%
Compound 2: water, H2O, InChI=1S/H2O/h1H2
Compound 3: triethanolamine, C6H15NO3, InChI=1S/C6H15NO3/c8-4-1-7(2-5-9)3-6-10/h8-10H,1-6H2, purity 97%

System: ethanol + triethanolamine + water; phases: Liquid, Gas
Fixed: Pressure, kPa = 98.5
Property: Boiling temperature at pressure P, K (Liquid); method: Ebulliometric method (Recirculating still)
Amount concentration (molarity), mol/dm3 of triethanolamine	Solvent: Mole fraction of ethanol	Boiling temperature at pressure P, K	uncertainty
0.88	0	371.9	0.4
0.88	0.007	368.8	2
0.88	0.017	366.4	1.5
0.88	0.066	362.8	0.7
0.88	0.116	359.2	0.7
0.88	0.16	358	0.6
0.88	0.258	356	0.5
0.88	0.368	354.8	0.5
0.88	0.529	353.8	0.5
0.88	0.676	353.4	0.4
0.88	0.837	353.2	0.4
0.88	0.911	353.2	0.4
0.88	0.947	353.2	0.4
0.88	1	353.2	0.4
1.55	0	372.65	0.41
1.55	0.02	369.25	1.04
1.55	0.049	364.8	0.76
1.55	0.085	362.2	0.49
1.55	0.169	359.4	0.45
1.55	0.214	358.4	0.43
1.55	0.364	355.55	0.42
1.55	0.514	354.95	0.41
1.55	0.613	354.55	0.41
1.55	0.667	354.55	0.41
1.55	0.818	354.35	0.41
1.55	0.936	354.15	0.41
1.55	1	354.15	0.41

System: ethanol + triethanolamine + water; phases: Gas, Liquid
Fixed: Pressure, kPa = 98.5
Property: Mole fraction of ethanol (Gas); method: Chromatography
Amount concentration (molarity), mol/dm3 of triethanolamine	Solvent: Mole fraction of ethanol	Mole fraction of ethanol	uncertainty
0	0.833	0.85	0.008
0.13	0.844	0.863	0.008
0.34	0.823	0.848	0.009
0.63	0.813	0.853	0.007
0.88	0.837	0.877	0.008
1.55	0.84	0.895	0.105

System: ethanol + triethanolamine + water; phases: Gas, Liquid
Fixed: Pressure, kPa = 98.5
Property: Mole fraction of ethanol (Gas); method: Chromatography
Amount concentration (molarity), mol/dm3 of triethanolamine	Solvent: Mole fraction of ethanol	Mole fraction of ethanol	uncertainty
0.88	0	0	0.001
0.88	0.007	0.123	0.078
0.88	0.017	0.225	0.062
0.88	0.066	0.335	0.021
0.88	0.116	0.428	0.019
0.88	0.16	0.478	0.015
0.88	0.258	0.545	0.013
0.88	0.368	0.612	0.011
0.88	0.529	0.689	0.01
0.88	0.676	0.775	0.01
0.88	0.837	0.877	0.009
0.88	0.911	0.926	0.009
0.88	0.947	0.961	0.009
0.88	1	1	0.001
1.55	0	0	0.001
1.55	0.02	0.139	0.034
1.55	0.049	0.28	0.024
1.55	0.085	0.393	0.012
1.55	0.169	0.491	0.01
1.55	0.214	0.515	0.009
1.55	0.364	0.625	0.009
1.55	0.514	0.697	0.008
1.55	0.613	0.745	0.008
1.55	0.667	0.778	0.008
1.55	0.818	0.875	0.008
1.55	0.936	0.96	0.007
1.55	1	1	0.001
