Measured thermophysical data. Effect of Temperature and Concentration of KBr or KNO3 on the Volumetric and Transport Properties of Aqueous Solutions of Tripotassium Citrate
Source: J. Chem. Eng. Data, 2011, 10.1021/je1012789
Compound 1: potassium citrate, C6H5K3O7, InChI=1S/C6H8O7.3K/c7-3(8)1-6(13,5(11)12)2-4(9)10;;;/h13H,1-2H2,(H,7,8)(H,9,10)(H,11,12);;;/q;3*+1/p-3, purity 99%
Compound 2: potassium bromide, BrK, InChI=1S/BrH.K/h1H;/q;+1/p-1, purity 99.5%
Compound 3: potassium nitrate, KNO3, InChI=1S/K.NO3/c;2-1(3)4/q+1;-1, purity 99.5%
Compound 4: water, H2O, InChI=1S/H2O/h1H2

System: water + potassium bromide; phases: Liquid
Fixed: Pressure, kPa = 101
Property: Viscosity, Pa*s (Liquid); method: CAPTUB:UFactor:4
Temperature, K	Molality, mol/kg of potassium bromide	Viscosity, Pa*s	uncertainty
293.15	0.2	0.000985	2.5e-05
293.15	0.3	0.000975	2.5e-05
293.15	0.4	0.00097	2.4e-05
293.15	0.5	0.00097	2.4e-05
293.15	0.6	0.00095	2.4e-05
293.15	0.7	0.000936	2.4e-05
298.15	0.2	0.000873	2.2e-05
298.15	0.3	0.000863	2.2e-05
298.15	0.4	0.00086	2.2e-05
298.15	0.5	0.000857	2.2e-05
298.15	0.6	0.000846	2.2e-05
298.15	0.7	0.000832	2.1e-05
303.15	0.2	0.000782	2e-05
303.15	0.3	0.000772	2e-05
303.15	0.4	0.000769	2e-05
303.15	0.5	0.000765	2e-05
303.15	0.6	0.00076	2e-05
303.15	0.7	0.00074	1.9e-05
308.15	0.2	0.000698	1.8e-05
308.15	0.3	0.000688	1.8e-05
308.15	0.4	0.000682	1.8e-05
308.15	0.5	0.000678	1.8e-05
308.15	0.6	0.000674	1.8e-05
308.15	0.7	0.000664	1.8e-05
313.15	0.2	0.000622	1.7e-05
313.15	0.3	0.000612	1.7e-05
313.15	0.4	0.000608	1.7e-05
313.15	0.5	0.000605	1.6e-05
313.15	0.6	0.000602	1.6e-05
313.15	0.7	0.000595	1.6e-05

System: water + potassium bromide; phases: Liquid
Fixed: Pressure, kPa = 101
Property: Speed of sound, m/s (Liquid); method: FPINT:UFactor:2
Temperature, K	Molality, mol/kg of potassium bromide	Speed of sound, m/s	uncertainty
293.15	0.2	1486.97	1.58
293.15	0.3	1488.91	1.58
293.15	0.4	1490.91	1.58
293.15	0.5	1492.77	1.59
293.15	0.6	1493.36	1.58
293.15	0.7	1497.07	1.58
298.15	0.2	1500.61	1.59
298.15	0.3	1503.2	1.59
298.15	0.4	1504.04	1.59
298.15	0.5	1506.46	1.59
298.15	0.6	1506.05	1.59
298.15	0.7	1509.08	1.59
303.15	0.2	1512.48	1.59
303.15	0.3	1514.18	1.59
303.15	0.4	1516.04	1.59
303.15	0.5	1517.15	1.59
303.15	0.6	1517.9	1.59
303.15	0.7	1520.44	1.59
308.15	0.2	1523.42	1.59
308.15	0.3	1524.57	1.59
308.15	0.4	1526.42	1.6
308.15	0.5	1527.7	1.6
308.15	0.6	1527.77	1.6
308.15	0.7	1529.56	1.6
313.15	0.2	1532.35	1.6
313.15	0.3	1532.8	1.6
313.15	0.4	1534.7	1.6
313.15	0.5	1535.45	1.6
313.15	0.6	1535.92	1.6
313.15	0.7	1538.14	1.6

System: water + potassium bromide; phases: Liquid
Fixed: Pressure, kPa = 101
Property: Mass density, kg/m3 (Liquid); method: VIBTUB:UFactor:6
Temperature, K	Molality, mol/kg of potassium bromide	Mass density, kg/m3	uncertainty
293.15	0.2	1015.189	0.305
293.15	0.3	1023.339	0.318
293.15	0.4	1031.606	0.332
293.15	0.5	1039.705	0.346
293.15	0.6	1047.694	0.361
293.15	0.7	1055.698	0.376
298.15	0.2	1013.796	0.303
298.15	0.3	1022.076	0.316
298.15	0.4	1030.172	0.329
298.15	0.5	1038.336	0.343
298.15	0.6	1046.105	0.357
298.15	0.7	1054.223	0.373
303.15	0.2	1012.3	0.3
303.15	0.3	1020.507	0.312
303.15	0.4	1028.555	0.326
303.15	0.5	1036.786	0.34
303.15	0.6	1044.604	0.351
303.15	0.7	1052.518	0.369
308.15	0.2	1010.632	0.297
308.15	0.3	1018.897	0.309
308.15	0.4	1026.732	0.322
308.15	0.5	1035.001	0.337
308.15	0.6	1042.987	0.35
308.15	0.7	1050.61	0.364
313.15	0.2	1008.742	0.293
313.15	0.3	1016.994	0.306
313.15	0.4	1024.777	0.317
313.15	0.5	1032.88	0.332
313.15	0.6	1041.011	0.346
313.15	0.7	1048.619	0.36

System: water + potassium nitrate; phases: Liquid
Fixed: Pressure, kPa = 101
Property: Viscosity, Pa*s (Liquid); method: CAPTUB::UFactor:4
Temperature, K	Molality, mol/kg of potassium nitrate	Viscosity, Pa*s	uncertainty
293.15	0.2	0.00098	2.5e-05
293.15	0.3	0.000977	2.5e-05
293.15	0.4	0.000973	2.4e-05
293.15	0.5	0.00097	2.4e-05
293.15	0.6	0.000967	2.4e-05
293.15	0.7	0.000963	2.4e-05
298.15	0.2	0.000871	2.2e-05
298.15	0.3	0.000869	2.2e-05
298.15	0.4	0.000867	2.2e-05
298.15	0.5	0.000862	2.2e-05
298.15	0.6	0.000862	2.2e-05
298.15	0.7	0.000859	2.2e-05
303.15	0.2	0.000778	2e-05
303.15	0.3	0.000776	2e-05
303.15	0.4	0.000775	2e-05
303.15	0.5	0.000774	2e-05
303.15	0.6	0.000773	2e-05
303.15	0.7	0.000772	2e-05
308.15	0.2	0.000672	1.8e-05
308.15	0.3	0.00067	1.8e-05
308.15	0.4	0.000669	1.8e-05
308.15	0.5	0.000678	1.8e-05
308.15	0.6	0.000666	1.8e-05
308.15	0.7	0.000665	1.8e-05
313.15	0.2	0.000595	1.6e-05
313.15	0.3	0.000593	1.6e-05
313.15	0.4	0.000585	1.6e-05
313.15	0.5	0.000577	1.6e-05
313.15	0.6	0.000569	1.6e-05
313.15	0.7	0.000563	1.6e-05

System: water + potassium nitrate; phases: Liquid
Fixed: Pressure, kPa = 101
Property: Speed of sound, m/s (Liquid); method: FPINT:UFactor:2
Temperature, K	Molality, mol/kg of potassium nitrate	Speed of sound, m/s	uncertainty
293.15	0.2	1490.65	1.58
293.15	0.3	1493.5	1.58
293.15	0.4	1497.36	1.58
293.15	0.5	1501.03	1.59
293.15	0.6	1504.4	1.59
293.15	0.7	1507.61	1.59
298.15	0.2	1504	1.59
298.15	0.3	1506.99	1.59
298.15	0.4	1510.14	1.59
298.15	0.5	1513.37	1.59
298.15	0.6	1517	1.6
298.15	0.7	1520.05	1.6
303.15	0.2	1515.58	1.59
303.15	0.3	1518.72	1.59
303.15	0.4	1522.03	1.6
303.15	0.5	1524.67	1.6
303.15	0.6	1528.36	1.6
303.15	0.7	1530.91	1.6
308.15	0.2	1525.97	1.6
308.15	0.3	1528.82	1.6
308.15	0.4	1531.37	1.6
308.15	0.5	1534.27	1.6
308.15	0.6	1536.77	1.6
308.15	0.7	1539.38	1.6
313.15	0.2	1534.64	1.6
313.15	0.3	1537.54	1.6
313.15	0.4	1539.73	1.6
313.15	0.5	1542.48	1.6
313.15	0.6	1544.85	1.61
313.15	0.7	1547.68	1.61

System: water + potassium nitrate; phases: Liquid
Fixed: Pressure, kPa = 101
Property: Mass density, kg/m3 (Liquid); method: VIBTUB:UFactor:6
Temperature, K	Molality, mol/kg of potassium nitrate	Mass density, kg/m3	uncertainty
293.15	0.2	1010.621	0.294
293.15	0.3	1016.689	0.303
293.15	0.4	1022.681	0.312
293.15	0.5	1028.599	0.322
293.15	0.6	1034.609	0.333
293.15	0.7	1040.367	0.342
298.15	0.2	1009.415	0.292
298.15	0.3	1015.467	0.3
298.15	0.4	1021.25	0.31
298.15	0.5	1027.126	0.319
298.15	0.6	1032.835	0.328
298.15	0.7	1038.556	0.338
303.15	0.2	1007.803	0.288
303.15	0.3	1013.822	0.297
303.15	0.4	1019.623	0.306
303.15	0.5	1025.396	0.315
303.15	0.6	1031.201	0.325
303.15	0.7	1036.791	0.334
308.15	0.2	1006.091	0.284
308.15	0.3	1011.973	0.293
308.15	0.4	1017.788	0.302
308.15	0.5	1023.575	0.311
308.15	0.6	1029.215	0.32
308.15	0.7	1034.869	0.33
313.15	0.2	1004.283	0.28
313.15	0.3	1009.98	0.289
313.15	0.4	1015.895	0.298
313.15	0.5	1021.558	0.307
313.15	0.6	1027.232	0.316
313.15	0.7	1032.757	0.326

System: potassium citrate + water + potassium bromide; phases: Liquid
Fixed: Pressure, kPa = 101
Property: Viscosity, Pa*s (Liquid); method: CAPTUB:UFactor:4
Temperature, K	Molality, mol/kg of potassium citrate	Molality, mol/kg of potassium bromide	Viscosity, Pa*s	uncertainty
293.15	0	0.2	0.000985	2.5e-05
293.15	0	0.3	0.000975	2.5e-05
293.15	0	0.4	0.00097	2.4e-05
293.15	0	0.5	0.00097	2.4e-05
293.15	0	0.6	0.00095	2.4e-05
293.15	0	0.7	0.000936	2.4e-05
293.15	0.2	0.2	0.001112	2.8e-05
293.15	0.2	0.3	0.001109	2.7e-05
293.15	0.2	0.4	0.001104	2.7e-05
293.15	0.2	0.5	0.001096	2.7e-05
293.15	0.2	0.6	0.001085	2.7e-05
293.15	0.2	0.7	0.001083	2.7e-05
293.15	0.4	0.2	0.001256	3.1e-05
293.15	0.4	0.3	0.001249	3.1e-05
293.15	0.4	0.5	0.001235	3e-05
293.15	0.4	0.6	0.001232	3e-05
293.15	0.4	0.7	0.00122	3e-05
293.15	0.4001	0.4	0.00124	3e-05
293.15	0.6	0.2	0.001419	3.4e-05
293.15	0.6	0.3	0.001415	3.4e-05
293.15	0.6	0.4	0.00141	3.4e-05
293.15	0.6	0.5	0.0014	3.4e-05
293.15	0.6	0.6	0.001394	3.4e-05
293.15	0.6001	0.7	0.001378	3.4e-05
293.15	0.7995	0.2	0.001613	3.9e-05
293.15	0.8	0.3	0.001607	3.9e-05
293.15	0.8	0.4	0.0016	3.9e-05
293.15	0.8	0.5	0.001589	3.8e-05
293.15	0.8	0.6	0.001574	3.8e-05
293.15	0.8001	0.7	0.001555	3.8e-05
293.15	1	0.2	0.001825	4.4e-05
293.15	1	0.3	0.001819	4.3e-05
293.15	1	0.4	0.001813	4.3e-05
293.15	1	0.5	0.001801	4.3e-05
293.15	1	0.6	0.001789	4.3e-05
293.15	1.0001	0.7	0.001771	4.2e-05
293.15	1.2	0.3	0.002062	4.9e-05
293.15	1.2	0.4	0.002052	4.9e-05
293.15	1.2	0.5	0.002031	4.8e-05
293.15	1.2	0.6	0.002026	4.8e-05
293.15	1.2	0.7	0.002011	4.8e-05
293.15	1.2001	0.2	0.002071	4.9e-05
298.15	0	0.2	0.000873	2.2e-05
298.15	0	0.3	0.000863	2.2e-05
298.15	0	0.4	0.00086	2.2e-05
298.15	0	0.5	0.000857	2.2e-05
298.15	0	0.6	0.000846	2.2e-05
298.15	0	0.7	0.000832	2.1e-05
298.15	0.2	0.2	0.000992	2.5e-05
298.15	0.2	0.3	0.000986	2.5e-05
298.15	0.2	0.4	0.00098	2.5e-05
298.15	0.2	0.5	0.000979	2.5e-05
298.15	0.2	0.6	0.000978	2.5e-05
298.15	0.2	0.7	0.000975	2.4e-05
298.15	0.4	0.2	0.001109	2.8e-05
298.15	0.4	0.3	0.001107	2.7e-05
298.15	0.4	0.5	0.001105	2.7e-05
298.15	0.4	0.6	0.001104	2.7e-05
298.15	0.4	0.7	0.0011	2.7e-05
298.15	0.4001	0.4	0.001106	2.7e-05
298.15	0.6	0.2	0.001267	3.1e-05
298.15	0.6	0.3	0.001261	3.1e-05
298.15	0.6	0.4	0.001253	3.1e-05
298.15	0.6	0.5	0.001245	3.1e-05
298.15	0.6	0.6	0.001239	3e-05
298.15	0.6001	0.7	0.001233	3e-05
298.15	0.7995	0.2	0.001436	3.5e-05
298.15	0.8	0.3	0.001416	3.4e-05
298.15	0.8	0.4	0.0014	3.4e-05
298.15	0.8	0.5	0.001396	3.4e-05
298.15	0.8	0.6	0.00139	3.4e-05
298.15	0.8001	0.7	0.001388	3.4e-05
298.15	1	0.2	0.001624	3.9e-05
298.15	1	0.3	0.001616	3.9e-05
298.15	1	0.4	0.00161	3.9e-05
298.15	1	0.5	0.001607	3.9e-05
298.15	1	0.6	0.001603	3.9e-05
298.15	1.0001	0.7	0.001587	3.8e-05
298.15	1.2	0.3	0.00183	4.4e-05
298.15	1.2	0.4	0.001822	4.4e-05
298.15	1.2	0.5	0.001813	4.3e-05
298.15	1.2	0.6	0.001807	4.3e-05
298.15	1.2	0.7	0.001791	4.3e-05
298.15	1.2001	0.2	0.001836	4.4e-05
303.15	0	0.2	0.000782	2e-05
303.15	0	0.3	0.000772	2e-05
303.15	0	0.4	0.000769	2e-05
303.15	0	0.5	0.000765	2e-05
303.15	0	0.6	0.00076	2e-05
303.15	0	0.7	0.00074	1.9e-05
303.15	0.2	0.2	0.000899	2.3e-05
303.15	0.2	0.3	0.000897	2.3e-05
303.15	0.2	0.4	0.000895	2.3e-05
303.15	0.2	0.5	0.000893	2.3e-05
303.15	0.2	0.6	0.000891	2.3e-05
303.15	0.2	0.7	0.000881	2.2e-05
303.15	0.4	0.2	0.001003	2.5e-05
303.15	0.4	0.3	0.001	2.5e-05
303.15	0.4	0.5	0.000995	2.5e-05
303.15	0.4	0.6	0.000993	2.5e-05
303.15	0.4	0.7	0.00099	2.5e-05
303.15	0.4001	0.4	0.000997	2.5e-05
303.15	0.6	0.2	0.001133	2.8e-05
303.15	0.6	0.3	0.001127	2.8e-05
303.15	0.6	0.4	0.00112	2.8e-05
303.15	0.6	0.5	0.001118	2.8e-05
303.15	0.6	0.6	0.001116	2.8e-05
303.15	0.6001	0.7	0.001113	2.8e-05
303.15	0.7995	0.2	0.001289	3.2e-05
303.15	0.8	0.3	0.001282	3.1e-05
303.15	0.8	0.4	0.001277	3.1e-05
303.15	0.8	0.5	0.001276	3.1e-05
303.15	0.8	0.6	0.001275	3.1e-05
303.15	0.8001	0.7	0.001271	3.1e-05
303.15	1	0.2	0.001458	3.5e-05
303.15	1	0.3	0.001447	3.5e-05
303.15	1	0.4	0.001435	3.5e-05
303.15	1	0.5	0.001426	3.5e-05
303.15	1	0.6	0.001423	3.5e-05
303.15	1.0001	0.7	0.001422	3.5e-05
303.15	1.2	0.3	0.001646	4e-05
303.15	1.2	0.4	0.001644	3.9e-05
303.15	1.2	0.5	0.001643	3.9e-05
303.15	1.2	0.6	0.001641	3.9e-05
303.15	1.2	0.7	0.001617	3.9e-05
303.15	1.2001	0.2	0.001648	4e-05
308.15	0	0.2	0.000698	1.8e-05
308.15	0	0.3	0.000688	1.8e-05
308.15	0	0.4	0.000682	1.8e-05
308.15	0	0.5	0.000678	1.8e-05
308.15	0	0.6	0.000674	1.8e-05
308.15	0	0.7	0.000664	1.8e-05
308.15	0.2	0.2	0.000802	2.1e-05
308.15	0.2	0.3	0.000802	2.1e-05
308.15	0.2	0.4	0.000801	2.1e-05
308.15	0.2	0.5	0.0008	2.1e-05
308.15	0.2	0.6	0.000799	2.1e-05
308.15	0.2	0.7	0.000797	2.1e-05
308.15	0.4	0.2	0.000901	2.3e-05
308.15	0.4	0.3	0.0009	2.3e-05
308.15	0.4	0.5	0.000894	2.3e-05
308.15	0.4	0.6	0.000891	2.3e-05
308.15	0.4	0.7	0.000882	2.2e-05
308.15	0.4001	0.4	0.000897	2.3e-05
308.15	0.6	0.2	0.001028	2.6e-05
308.15	0.6	0.3	0.001022	2.5e-05
308.15	0.6	0.4	0.001019	2.5e-05
308.15	0.6	0.5	0.001011	2.5e-05
308.15	0.6	0.6	0.001008	2.5e-05
308.15	0.6001	0.7	0.001	2.5e-05
308.15	0.7995	0.2	0.001162	2.9e-05
308.15	0.8	0.3	0.001159	2.9e-05
308.15	0.8	0.4	0.001155	2.8e-05
308.15	0.8	0.5	0.001151	2.8e-05
308.15	0.8	0.6	0.001148	2.8e-05
308.15	0.8001	0.7	0.001145	2.8e-05
308.15	1	0.2	0.001311	3.2e-05
308.15	1	0.3	0.001307	3.2e-05
308.15	1	0.4	0.0013	3.2e-05
308.15	1	0.5	0.001295	3.2e-05
308.15	1	0.6	0.001291	3.1e-05
308.15	1.0001	0.7	0.001275	3.1e-05
308.15	1.2	0.3	0.001479	3.6e-05
308.15	1.2	0.4	0.00147	3.6e-05
308.15	1.2	0.5	0.00146	3.5e-05
308.15	1.2	0.6	0.001453	3.5e-05
308.15	1.2	0.7	0.001442	3.5e-05
308.15	1.2001	0.2	0.001487	3.6e-05
313.15	0	0.2	0.000622	1.7e-05
313.15	0	0.3	0.000612	1.7e-05
313.15	0	0.4	0.000608	1.7e-05
313.15	0	0.5	0.000605	1.6e-05
313.15	0	0.6	0.000602	1.6e-05
313.15	0	0.7	0.000595	1.6e-05
313.15	0.2	0.2	0.000727	1.9e-05
313.15	0.2	0.3	0.000727	1.9e-05
313.15	0.2	0.4	0.000726	1.9e-05
313.15	0.2	0.5	0.000725	1.9e-05
313.15	0.2	0.6	0.000725	1.9e-05
313.15	0.2	0.7	0.000725	1.9e-05
313.15	0.4	0.2	0.000827	2.1e-05
313.15	0.4	0.3	0.000825	2.1e-05
313.15	0.4	0.5	0.000818	2.1e-05
313.15	0.4	0.6	0.000812	2.1e-05
313.15	0.4	0.7	0.000808	2.1e-05
313.15	0.4001	0.4	0.00082	2.1e-05
313.15	0.6	0.2	0.000929	2.3e-05
313.15	0.6	0.3	0.000926	2.3e-05
313.15	0.6	0.4	0.00092	2.3e-05
313.15	0.6	0.5	0.000918	2.3e-05
313.15	0.6	0.6	0.000912	2.3e-05
313.15	0.6001	0.7	0.000903	2.3e-05
313.15	0.7995	0.2	0.001042	2.6e-05
313.15	0.8	0.3	0.001039	2.6e-05
313.15	0.8	0.4	0.001037	2.6e-05
313.15	0.8	0.5	0.00103	2.6e-05
313.15	0.8	0.6	0.001028	2.6e-05
313.15	0.8001	0.7	0.001022	2.6e-05
313.15	1	0.2	0.00119	2.9e-05
313.15	1	0.3	0.001187	2.9e-05
313.15	1	0.4	0.001183	2.9e-05
313.15	1	0.5	0.001175	2.9e-05
313.15	1	0.6	0.00117	2.9e-05
313.15	1.0001	0.7	0.001167	2.9e-05
313.15	1.2	0.3	0.001333	3.3e-05
313.15	1.2	0.4	0.001323	3.2e-05
313.15	1.2	0.5	0.001321	3.2e-05
313.15	1.2	0.6	0.001317	3.2e-05
313.15	1.2	0.7	0.00131	3.2e-05
313.15	1.2001	0.2	0.00134	3.3e-05

System: potassium citrate + water + potassium bromide; phases: Liquid
Fixed: Pressure, kPa = 101
Property: Speed of sound, m/s (Liquid); method: FPINT:UFactor:2
Temperature, K	Amount concentration (molarity), mol/dm3 of potassium citrate	Molality, mol/kg of potassium bromide	Speed of sound, m/s	uncertainty
293.15	0	0.2	1486.97	1.58
293.15	0	0.3	1488.91	1.58
293.15	0	0.4	1490.91	1.58
293.15	0	0.5	1492.77	1.59
293.15	0	0.6	1493.36	1.58
293.15	0	0.7	1497.07	1.58
293.15	0.2	0.2	1525	1.61
293.15	0.2	0.3	1526.38	1.61
293.15	0.2	0.4	1527.92	1.61
293.15	0.2	0.5	1530.31	1.61
293.15	0.2	0.6	1531.31	1.61
293.15	0.2	0.7	1532.41	1.61
293.15	0.4	0.2	1561.39	1.63
293.15	0.4	0.3	1562.41	1.63
293.15	0.4	0.5	1565.83	1.63
293.15	0.4	0.6	1566.49	1.63
293.15	0.4	0.7	1567.87	1.63
293.15	0.4001	0.4	1563.83	1.63
293.15	0.6	0.2	1596.4	1.65
293.15	0.6	0.3	1597.4	1.65
293.15	0.6	0.4	1598.18	1.65
293.15	0.6	0.5	1599.18	1.65
293.15	0.6	0.6	1600.52	1.65
293.15	0.6001	0.7	1601.81	1.65
293.15	0.7995	0.2	1630.46	1.67
293.15	0.8	0.3	1631.06	1.67
293.15	0.8	0.4	1631.86	1.67
293.15	0.8	0.5	1631.86	1.67
293.15	0.8	0.6	1633.21	1.67
293.15	0.8001	0.7	1634.7	1.67
293.15	1	0.2	1662.76	1.69
293.15	1	0.3	1663.76	1.69
293.15	1	0.4	1664.03	1.69
293.15	1	0.5	1665.03	1.69
293.15	1	0.6	1665.55	1.69
293.15	1.0001	0.7	1665.84	1.7
293.15	1.2	0.3	1693.64	1.72
293.15	1.2	0.4	1694.1	1.71
293.15	1.2	0.5	1694.34	1.71
293.15	1.2	0.6	1695.02	1.72
293.15	1.2	0.7	1696.63	1.72
293.15	1.2001	0.2	1692.06	1.72
298.15	0	0.2	1500.61	1.59
298.15	0	0.3	1503.2	1.59
298.15	0	0.4	1504.04	1.59
298.15	0	0.5	1506.46	1.59
298.15	0	0.6	1506.05	1.59
298.15	0	0.7	1509.08	1.59
298.15	0.2	0.2	1537.45	1.61
298.15	0.2	0.3	1539.38	1.61
298.15	0.2	0.4	1540.52	1.61
298.15	0.2	0.5	1543.45	1.61
298.15	0.2	0.6	1543.92	1.62
298.15	0.2	0.7	1544.29	1.61
298.15	0.4	0.2	1572.5	1.63
298.15	0.4	0.3	1573.39	1.63
298.15	0.4	0.5	1576.93	1.64
298.15	0.4	0.6	1577.07	1.64
298.15	0.4	0.7	1577.78	1.63
298.15	0.4001	0.4	1575.05	1.63
298.15	0.6	0.2	1606.44	1.66
298.15	0.6	0.3	1607.4	1.66
298.15	0.6	0.4	1607.97	1.66
298.15	0.6	0.5	1608.88	1.66
298.15	0.6	0.6	1609	1.66
298.15	0.6001	0.7	1610.71	1.66
298.15	0.7995	0.2	1639.26	1.68
298.15	0.8	0.3	1640	1.68
298.15	0.8	0.4	1640.85	1.68
298.15	0.8	0.5	1641.86	1.68
298.15	0.8	0.6	1642.54	1.68
298.15	0.8001	0.7	1643.2	1.68
298.15	1	0.2	1670.93	1.7
298.15	1	0.3	1671.16	1.7
298.15	1	0.4	1671.89	1.7
298.15	1	0.5	1672.03	1.7
298.15	1	0.6	1673.08	1.7
298.15	1.0001	0.7	1674.3	1.7
298.15	1.2	0.3	1702.11	1.72
298.15	1.2	0.4	1701.55	1.72
298.15	1.2	0.5	1702.02	1.72
298.15	1.2	0.6	1703.17	1.72
298.15	1.2	0.7	1703.55	1.72
298.15	1.2001	0.2	1701.67	1.72
303.15	0	0.2	1512.48	1.59
303.15	0	0.3	1514.18	1.59
303.15	0	0.4	1516.04	1.59
303.15	0	0.5	1517.15	1.59
303.15	0	0.6	1517.9	1.59
303.15	0	0.7	1520.44	1.59
303.15	0.2	0.2	1548.28	1.61
303.15	0.2	0.3	1549.42	1.61
303.15	0.2	0.4	1551.53	1.62
303.15	0.2	0.5	1553.01	1.61
303.15	0.2	0.6	1555.73	1.62
303.15	0.2	0.7	1553.85	1.62
303.15	0.4	0.2	1582.79	1.64
303.15	0.4	0.3	1583.39	1.64
303.15	0.4	0.5	1586.23	1.64
303.15	0.4	0.6	1587.56	1.64
303.15	0.4	0.7	1586.6	1.64
303.15	0.4001	0.4	1584.63	1.64
303.15	0.6	0.2	1615.18	1.66
303.15	0.6	0.3	1616.4	1.66
303.15	0.6	0.4	1617.2	1.66
303.15	0.6	0.5	1618.58	1.66
303.15	0.6	0.6	1619.92	1.66
303.15	0.6001	0.7	1619.29	1.66
303.15	0.7995	0.2	1647.27	1.68
303.15	0.8	0.3	1647.46	1.68
303.15	0.8	0.4	1648.9	1.68
303.15	0.8	0.5	1648.86	1.68
303.15	0.8	0.6	1650.57	1.68
303.15	0.8001	0.7	1650.03	1.68
303.15	1	0.2	1678.28	1.7
303.15	1	0.3	1678.76	1.7
303.15	1	0.4	1678.9	1.7
303.15	1	0.5	1678.03	1.7
303.15	1	0.6	1680.55	1.7
303.15	1.0001	0.7	1680.21	1.7
303.15	1.2	0.3	1708.23	1.72
303.15	1.2	0.4	1708.56	1.72
303.15	1.2	0.5	1708.94	1.72
303.15	1.2	0.6	1709.16	1.72
303.15	1.2	0.7	1709.51	1.72
303.15	1.2001	0.2	1708.1	1.72
308.15	0	0.2	1523.42	1.59
308.15	0	0.3	1524.57	1.59
308.15	0	0.4	1526.42	1.6
308.15	0	0.5	1527.7	1.6
308.15	0	0.6	1527.77	1.6
308.15	0	0.7	1529.56	1.6
308.15	0.2	0.2	1558.28	1.62
308.15	0.2	0.3	1559.39	1.62
308.15	0.2	0.4	1560.82	1.62
308.15	0.2	0.5	1561.53	1.62
308.15	0.2	0.6	1562.42	1.62
308.15	0.2	0.7	1562.91	1.62
308.15	0.4	0.2	1590.71	1.64
308.15	0.4	0.3	1591.39	1.64
308.15	0.4	0.5	1593.93	1.64
308.15	0.4	0.6	1594	1.64
308.15	0.4	0.7	1595.29	1.64
308.15	0.4001	0.4	1592.35	1.64
308.15	0.6	0.2	1623.05	1.66
308.15	0.6	0.3	1623.4	1.66
308.15	0.6	0.4	1624.54	1.66
308.15	0.6	0.5	1625.18	1.66
308.15	0.6	0.6	1625.74	1.66
308.15	0.6001	0.7	1626.31	1.66
308.15	0.7995	0.2	1653.95	1.68
308.15	0.8	0.3	1654.46	1.68
308.15	0.8	0.4	1655.2	1.68
308.15	0.8	0.5	1655.86	1.68
308.15	0.8	0.6	1656.97	1.68
308.15	0.8001	0.7	1657.55	1.69
308.15	1	0.2	1684.53	1.7
308.15	1	0.3	1684.76	1.7
308.15	1	0.4	1685.41	1.7
308.15	1	0.5	1685.83	1.71
308.15	1	0.6	1686.08	1.71
308.15	1.0001	0.7	1686.95	1.71
308.15	1.2	0.3	1713.79	1.72
308.15	1.2	0.4	1713.9	1.72
308.15	1.2	0.5	1714.26	1.73
308.15	1.2	0.6	1714.94	1.73
308.15	1.2	0.7	1715.66	1.73
308.15	1.2001	0.2	1713.44	1.72
313.15	0	0.2	1532.35	1.6
313.15	0	0.3	1532.8	1.6
313.15	0	0.4	1534.7	1.6
313.15	0	0.5	1535.45	1.6
313.15	0	0.6	1535.92	1.6
313.15	0	0.7	1538.14	1.6
313.15	0.2	0.2	1566.18	1.62
313.15	0.2	0.3	1566.67	1.62
313.15	0.2	0.4	1568.05	1.62
313.15	0.2	0.5	1568.72	1.62
313.15	0.2	0.6	1569.74	1.62
313.15	0.2	0.7	1570.11	1.62
313.15	0.4	0.2	1597.77	1.64
313.15	0.4	0.3	1598.39	1.64
313.15	0.4	0.5	1599.75	1.64
313.15	0.4	0.6	1600.1	1.64
313.15	0.4	0.7	1600.76	1.64
313.15	0.4001	0.4	1599.46	1.65
313.15	0.6	0.2	1629.57	1.67
313.15	0.6	0.3	1629.4	1.67
313.15	0.6	0.4	1630.92	1.67
313.15	0.6	0.5	1631.18	1.67
313.15	0.6	0.6	1631.49	1.67
313.15	0.6001	0.7	1631.75	1.67
313.15	0.7995	0.2	1659	1.69
313.15	0.8	0.3	1659.46	1.69
313.15	0.8	0.4	1659.76	1.69
313.15	0.8	0.5	1660.06	1.69
313.15	0.8	0.6	1661.94	1.69
313.15	0.8001	0.7	1662.54	1.69
313.15	1	0.2	1688.92	1.71
313.15	1	0.3	1689.06	1.71
313.15	1	0.4	1689.87	1.71
313.15	1	0.5	1690.13	1.71
313.15	1	0.6	1691.84	1.71
313.15	1.0001	0.7	1692.27	1.71
313.15	1.2	0.3	1717.52	1.73
313.15	1.2	0.4	1717.99	1.73
313.15	1.2	0.5	1718.16	1.73
313.15	1.2	0.6	1718.48	1.73
313.15	1.2	0.7	1719.99	1.73
313.15	1.2001	0.2	1717.19	1.73

System: potassium citrate + water + potassium bromide; phases: Liquid
Fixed: Pressure, kPa = 101
Property: Mass density, kg/m3 (Liquid); method: VIBTUB:UFactor:6
Temperature, K	Molality, mol/kg of potassium citrate	Molality, mol/kg of potassium bromide	Mass density, kg/m3	uncertainty
293.15	0	0.2	1015.189	0.305
293.15	0	0.3	1023.339	0.318
293.15	0	0.4	1031.606	0.332
293.15	0	0.5	1039.705	0.346
293.15	0	0.6	1047.694	0.361
293.15	0	0.7	1055.698	0.376
293.15	0.2	0.2	1053.197	0.376
293.15	0.2	0.3	1060.984	0.389
293.15	0.2	0.4	1068.612	0.403
293.15	0.2	0.5	1076.29	0.419
293.15	0.2	0.6	1083.904	0.434
293.15	0.2	0.7	1091.37	0.448
293.15	0.4	0.2	1088.467	0.446
293.15	0.4	0.3	1095.967	0.46
293.15	0.4	0.5	1110.395	0.49
293.15	0.4	0.6	1117.642	0.506
293.15	0.4	0.7	1124.606	0.52
293.15	0.4001	0.4	1103.065	0.474
293.15	0.6	0.2	1121.33	0.517
293.15	0.6	0.3	1128.53	0.531
293.15	0.6	0.4	1135.097	0.546
293.15	0.6	0.5	1142.197	0.562
293.15	0.6	0.6	1149.06	0.577
293.15	0.6001	0.7	1155.637	0.591
293.15	0.7995	0.2	1151.926	0.587
293.15	0.8	0.3	1158.726	0.601
293.15	0.8	0.4	1165.092	0.616
293.15	0.8	0.5	1171.892	0.632
293.15	0.8	0.6	1178.429	0.647
293.15	0.8001	0.7	1184.571	0.66
293.15	1	0.2	1180.499	0.655
293.15	1	0.3	1186.999	0.67
293.15	1	0.4	1193.199	0.684
293.15	1	0.5	1199.599	0.699
293.15	1	0.6	1205.829	0.714
293.15	1.0001	0.7	1211.891	0.727
293.15	1.2	0.3	1213.639	0.737
293.15	1.2	0.4	1219.595	0.751
293.15	1.2	0.5	1225.573	0.765
293.15	1.2	0.6	1231.557	0.779
293.15	1.2	0.7	1237.331	0.792
293.15	1.2001	0.2	1207.569	0.723
298.15	0	0.2	1013.796	0.303
298.15	0	0.3	1022.076	0.316
298.15	0	0.4	1030.172	0.329
298.15	0	0.5	1038.336	0.343
298.15	0	0.6	1046.105	0.357
298.15	0	0.7	1054.223	0.373
298.15	0.2	0.2	1051.639	0.372
298.15	0.2	0.3	1059.468	0.385
298.15	0.2	0.4	1067.069	0.4
298.15	0.2	0.5	1074.768	0.415
298.15	0.2	0.6	1082.11	0.43
298.15	0.2	0.7	1089.751	0.445
298.15	0.4	0.2	1086.705	0.441
298.15	0.4	0.3	1094.167	0.456
298.15	0.4	0.5	1108.695	0.486
298.15	0.4	0.6	1115.634	0.501
298.15	0.4	0.7	1122.809	0.516
298.15	0.4001	0.4	1101.344	0.471
298.15	0.6	0.2	1119.378	0.512
298.15	0.6	0.3	1126.43	0.527
298.15	0.6	0.4	1133.259	0.542
298.15	0.6	0.5	1140.3	0.557
298.15	0.6	0.6	1146.832	0.572
298.15	0.6001	0.7	1153.782	0.587
298.15	0.7995	0.2	1149.831	0.582
298.15	0.8	0.3	1156.726	0.597
298.15	0.8	0.4	1163.131	0.611
298.15	0.8	0.5	1169.802	0.627
298.15	0.8	0.6	1176.075	0.641
298.15	0.8001	0.7	1182.596	0.656
298.15	1	0.2	1178.269	0.65
298.15	1	0.3	1184.859	0.665
298.15	1	0.4	1191.092	0.679
298.15	1	0.5	1197.499	0.694
298.15	1	0.6	1203.469	0.708
298.15	1.0001	0.7	1209.758	0.723
298.15	1.2	0.3	1211.429	0.731
298.15	1.2	0.4	1217.329	0.745
298.15	1.2	0.5	1223.548	0.76
298.15	1.2	0.6	1229.108	0.773
298.15	1.2	0.7	1235.303	0.788
298.15	1.2001	0.2	1205.333	0.717
303.15	0	0.2	1012.3	0.3
303.15	0	0.3	1020.507	0.312
303.15	0	0.4	1028.555	0.326
303.15	0	0.5	1036.786	0.34
303.15	0	0.6	1044.604	0.351
303.15	0	0.7	1052.518	0.369
303.15	0.2	0.2	1049.999	0.368
303.15	0.2	0.3	1057.747	0.381
303.15	0.2	0.4	1065.314	0.396
303.15	0.2	0.5	1073.072	0.41
303.15	0.2	0.6	1079.29	0.423
303.15	0.2	0.7	1087.952	0.442
303.15	0.4	0.2	1085.029	0.437
303.15	0.4	0.3	1092.267	0.451
303.15	0.4	0.5	1106.895	0.482
303.15	0.4	0.6	1113.833	0.498
303.15	0.4	0.7	1120.899	0.512
303.15	0.4001	0.4	1099.48	0.466
303.15	0.6	0.2	1117.591	0.508
303.15	0.6	0.3	1124.53	0.522
303.15	0.6	0.4	1131.285	0.537
303.15	0.6	0.5	1138.397	0.553
303.15	0.6	0.6	1144.873	0.567
303.15	0.6001	0.7	1151.711	0.582
303.15	0.7995	0.2	1147.901	0.577
303.15	0.8	0.3	1154.626	0.592
303.15	0.8	0.4	1161.058	0.607
303.15	0.8	0.5	1167.822	0.622
303.15	0.8	0.6	1173.936	0.636
303.15	0.8001	0.7	1180.386	0.651
303.15	1	0.2	1176.3	0.645
303.15	1	0.3	1182.799	0.66
303.15	1	0.4	1188.88	0.674
303.15	1	0.5	1195.409	0.689
303.15	1	0.6	1201.303	0.703
303.15	1.0001	0.7	1207.48	0.717
303.15	1.2	0.3	1209.412	0.727
303.15	1.2	0.4	1215.236	0.74
303.15	1.2	0.5	1221.249	0.754
303.15	1.2	0.6	1227.006	0.768
303.15	1.2	0.7	1232.98	0.782
303.15	1.2001	0.2	1203.315	0.713
308.15	0	0.2	1010.632	0.297
308.15	0	0.3	1018.897	0.309
308.15	0	0.4	1026.732	0.322
308.15	0	0.5	1035.001	0.337
308.15	0	0.6	1042.987	0.35
308.15	0	0.7	1050.61	0.364
308.15	0.2	0.2	1048.148	0.364
308.15	0.2	0.3	1055.956	0.377
308.15	0.2	0.4	1063.355	0.392
308.15	0.2	0.5	1071.163	0.407
308.15	0.2	0.6	1078.643	0.422
308.15	0.2	0.7	1085.927	0.436
308.15	0.4	0.2	1082.959	0.433
308.15	0.4	0.3	1090.367	0.447
308.15	0.4	0.5	1104.895	0.478
308.15	0.4	0.6	1111.892	0.492
308.15	0.4	0.7	1118.802	0.507
308.15	0.4001	0.4	1097.413	0.462
308.15	0.6	0.2	1115.44	0.503
308.15	0.6	0.3	1122.53	0.518
308.15	0.6	0.4	1129.113	0.532
308.15	0.6	0.5	1136.257	0.548
308.15	0.6	0.6	1142.836	0.562
308.15	0.6001	0.7	1149.507	0.577
308.15	0.7995	0.2	1145.752	0.573
308.15	0.8	0.3	1152.606	0.587
308.15	0.8	0.4	1158.816	0.601
308.15	0.8	0.5	1165.642	0.617
308.15	0.8	0.6	1171.855	0.631
308.15	0.8001	0.7	1178.099	0.645
308.15	1	0.2	1174.11	0.641
308.15	1	0.3	1180.749	0.655
308.15	1	0.4	1186.571	0.669
308.15	1	0.5	1193.109	0.684
308.15	1	0.6	1198.884	0.697
308.15	1.0001	0.7	1205.051	0.712
308.15	1.2	0.3	1206.976	0.72
308.15	1.2	0.4	1212.659	0.734
308.15	1.2	0.5	1218.962	0.749
308.15	1.2	0.6	1224.614	0.762
308.15	1.2	0.7	1230.391	0.776
308.15	1.2001	0.2	1201.175	0.707
313.15	0	0.2	1008.742	0.293
313.15	0	0.3	1016.994	0.306
313.15	0	0.4	1024.777	0.317
313.15	0	0.5	1032.88	0.332
313.15	0	0.6	1041.011	0.346
313.15	0	0.7	1048.619	0.36
313.15	0.2	0.2	1046.084	0.361
313.15	0.2	0.3	1053.923	0.373
313.15	0.2	0.4	1061.293	0.387
313.15	0.2	0.5	1068.894	0.403
313.15	0.2	0.6	1076.533	0.417
313.15	0.2	0.7	1083.798	0.431
313.15	0.4	0.2	1080.813	0.429
313.15	0.4	0.3	1088.207	0.442
313.15	0.4	0.5	1102.545	0.473
313.15	0.4	0.6	1109.646	0.488
313.15	0.4	0.7	1116.57	0.502
313.15	0.4001	0.4	1095.226	0.457
313.15	0.6	0.2	1113.293	0.499
313.15	0.6	0.3	1120.33	0.513
313.15	0.6	0.4	1126.887	0.527
313.15	0.6	0.5	1133.897	0.543
313.15	0.6	0.6	1140.56	0.557
313.15	0.6001	0.7	1147.249	0.572
313.15	0.7995	0.2	1143.241	0.567
313.15	0.8	0.3	1150.356	0.582
313.15	0.8	0.4	1156.455	0.596
313.15	0.8	0.5	1163.192	0.612
313.15	0.8	0.6	1169.537	0.626
313.15	0.8001	0.7	1175.736	0.64
313.15	1	0.2	1171.599	0.635
313.15	1	0.3	1178.409	0.65
313.15	1	0.4	1184.16	0.663
313.15	1	0.5	1190.609	0.678
313.15	1	0.6	1196.429	0.691
313.15	1.0001	0.7	1202.572	0.706
313.15	1.2	0.3	1204.703	0.715
313.15	1.2	0.4	1210.15	0.728
313.15	1.2	0.5	1216.476	0.743
313.15	1.2	0.6	1222.219	0.757
313.15	1.2	0.7	1227.943	0.77
313.15	1.2001	0.2	1198.543	0.701

System: potassium citrate + water + potassium nitrate; phases: Liquid
Fixed: Pressure, kPa = 101
Property: Viscosity, Pa*s (Liquid); method: CAPTUB:UFactor:4
Temperature, K	Molality, mol/kg of potassium citrate	Molality, mol/kg of potassium nitrate	Viscosity, Pa*s	uncertainty
293.15	0	0.2	0.00098	2.5e-05
293.15	0	0.3	0.000977	2.5e-05
293.15	0	0.4	0.000973	2.4e-05
293.15	0	0.5	0.00097	2.4e-05
293.15	0	0.6	0.000967	2.4e-05
293.15	0	0.7	0.000963	2.4e-05
293.15	0.15	0.2	0.001088	2.7e-05
293.15	0.15	0.3	0.001083	2.7e-05
293.15	0.15	0.4	0.00108	2.7e-05
293.15	0.15	0.5	0.001077	2.7e-05
293.15	0.15	0.6	0.001065	2.6e-05
293.15	0.15	0.7	0.001047	2.6e-05
293.15	0.2999	0.6	0.001166	2.9e-05
293.15	0.2999	0.7	0.001145	2.8e-05
293.15	0.3	0.3	0.001193	2.9e-05
293.15	0.3	0.4	0.00119	2.9e-05
293.15	0.3	0.5	0.001186	2.9e-05
293.15	0.3002	0.2	0.001196	2.9e-05
293.15	0.4498	0.2	0.001316	3.2e-05
293.15	0.45	0.3	0.001313	3.2e-05
293.15	0.45	0.5	0.001304	3.2e-05
293.15	0.45	0.6	0.001286	3.1e-05
293.15	0.4501	0.7	0.001261	3.1e-05
293.15	0.4502	0.4	0.00131	3.2e-05
293.15	0.5974	0.6	0.001414	3.4e-05
293.15	0.6	0.2	0.001448	3.5e-05
293.15	0.6	0.3	0.001447	3.5e-05
293.15	0.6	0.5	0.001438	3.5e-05
293.15	0.6001	0.7	0.001398	3.4e-05
293.15	0.6002	0.4	0.001444	3.5e-05
293.15	0.7499	0.2	0.001592	3.8e-05
293.15	0.75	0.3	0.001591	3.8e-05
293.15	0.75	0.4	0.001588	3.8e-05
293.15	0.75	0.5	0.001583	3.8e-05
293.15	0.7502	0.6	0.001563	3.8e-05
293.15	0.8333	0.7	0.00162	3.9e-05
293.15	0.9	0.2	0.001753	4.2e-05
293.15	0.9	0.5	0.001735	4.2e-05
293.15	0.9001	0.3	0.00175	4.2e-05
293.15	0.9018	0.4	0.001745	4.2e-05
293.15	0.9048	0.6	0.00173	4.1e-05
293.15	0.9052	0.7	0.0017	4.1e-05
298.15	0	0.2	0.000871	2.2e-05
298.15	0	0.3	0.000869	2.2e-05
298.15	0	0.4	0.000867	2.2e-05
298.15	0	0.5	0.000862	2.2e-05
298.15	0	0.6	0.000862	2.2e-05
298.15	0	0.7	0.000859	2.2e-05
298.15	0.15	0.2	0.000967	2.4e-05
298.15	0.15	0.3	0.000965	2.4e-05
298.15	0.15	0.4	0.000959	2.4e-05
298.15	0.15	0.5	0.000952	2.4e-05
298.15	0.15	0.6	0.00095	2.4e-05
298.15	0.15	0.7	0.00093	2.4e-05
298.15	0.2999	0.6	0.001046	2.6e-05
298.15	0.2999	0.7	0.001023	2.6e-05
298.15	0.3	0.3	0.00106	2.6e-05
298.15	0.3	0.4	0.001056	2.6e-05
298.15	0.3	0.5	0.00105	2.6e-05
298.15	0.3002	0.2	0.001062	2.6e-05
298.15	0.4498	0.2	0.001168	2.9e-05
298.15	0.45	0.3	0.001164	2.9e-05
298.15	0.45	0.5	0.001155	2.9e-05
298.15	0.45	0.6	0.001141	2.8e-05
298.15	0.4501	0.7	0.001116	2.8e-05
298.15	0.4502	0.4	0.001157	2.9e-05
298.15	0.5974	0.6	0.001275	3.1e-05
298.15	0.6	0.2	0.001285	3.2e-05
298.15	0.6	0.3	0.001282	3.1e-05
298.15	0.6	0.5	0.001276	3.1e-05
298.15	0.6001	0.7	0.00125	3.1e-05
298.15	0.6002	0.4	0.001277	3.1e-05
298.15	0.7499	0.2	0.001412	3.4e-05
298.15	0.75	0.3	0.001409	3.4e-05
298.15	0.75	0.4	0.001408	3.4e-05
298.15	0.75	0.5	0.0014	3.4e-05
298.15	0.7502	0.6	0.001397	3.4e-05
298.15	0.8333	0.7	0.00145	3.5e-05
298.15	0.9	0.2	0.001552	3.8e-05
298.15	0.9	0.5	0.001532	3.7e-05
298.15	0.9001	0.3	0.001545	3.7e-05
298.15	0.9018	0.4	0.001537	3.7e-05
298.15	0.9048	0.6	0.001528	3.7e-05
298.15	0.9052	0.7	0.001503	3.6e-05
303.15	0	0.2	0.000778	2e-05
303.15	0	0.3	0.000776	2e-05
303.15	0	0.4	0.000775	2e-05
303.15	0	0.5	0.000774	2e-05
303.15	0	0.6	0.000773	2e-05
303.15	0	0.7	0.000772	2e-05
303.15	0.15	0.2	0.000866	2.2e-05
303.15	0.15	0.3	0.000863	2.2e-05
303.15	0.15	0.4	0.000861	2.2e-05
303.15	0.15	0.5	0.000858	2.2e-05
303.15	0.15	0.6	0.000856	2.2e-05
303.15	0.15	0.7	0.000835	2.1e-05
303.15	0.2999	0.6	0.000933	2.4e-05
303.15	0.2999	0.7	0.000908	2.3e-05
303.15	0.3	0.3	0.000943	2.4e-05
303.15	0.3	0.4	0.000941	2.4e-05
303.15	0.3	0.5	0.000937	2.4e-05
303.15	0.3002	0.2	0.000946	2.4e-05
303.15	0.4498	0.2	0.001037	2.6e-05
303.15	0.45	0.3	0.001033	2.6e-05
303.15	0.45	0.5	0.001028	2.6e-05
303.15	0.45	0.6	0.001022	2.6e-05
303.15	0.4501	0.7	0.001004	2.5e-05
303.15	0.4502	0.4	0.001031	2.6e-05
303.15	0.5974	0.6	0.001125	2.8e-05
303.15	0.6	0.2	0.00114	2.8e-05
303.15	0.6	0.3	0.001137	2.8e-05
303.15	0.6	0.5	0.00113	2.8e-05
303.15	0.6001	0.7	0.001101	2.7e-05
303.15	0.6002	0.4	0.001134	2.8e-05
303.15	0.7499	0.2	0.001252	3.1e-05
303.15	0.75	0.3	0.001247	3.1e-05
303.15	0.75	0.4	0.001245	3.1e-05
303.15	0.75	0.5	0.00124	3.1e-05
303.15	0.7502	0.6	0.001238	3e-05
303.15	0.8333	0.7	0.001289	3.2e-05
303.15	0.9	0.2	0.001373	3.3e-05
303.15	0.9	0.5	0.001361	3.3e-05
303.15	0.9001	0.3	0.00137	3.3e-05
303.15	0.9018	0.4	0.001367	3.3e-05
303.15	0.9048	0.6	0.001354	3.3e-05
303.15	0.9052	0.7	0.001339	3.3e-05
308.15	0	0.2	0.000672	1.8e-05
308.15	0	0.3	0.00067	1.8e-05
308.15	0	0.4	0.000669	1.8e-05
308.15	0	0.5	0.000678	1.8e-05
308.15	0	0.6	0.000666	1.8e-05
308.15	0	0.7	0.000665	1.8e-05
308.15	0.15	0.2	0.000782	2e-05
308.15	0.15	0.3	0.000778	2e-05
308.15	0.15	0.4	0.000775	2e-05
308.15	0.15	0.5	0.00077	2e-05
308.15	0.15	0.6	0.000766	2e-05
308.15	0.15	0.7	0.000754	2e-05
308.15	0.2999	0.6	0.000837	2.1e-05
308.15	0.2999	0.7	0.000805	2.1e-05
308.15	0.3	0.3	0.000852	2.2e-05
308.15	0.3	0.4	0.00085	2.2e-05
308.15	0.3	0.5	0.000844	2.2e-05
308.15	0.3002	0.2	0.000853	2.2e-05
308.15	0.4498	0.2	0.000935	2.4e-05
308.15	0.45	0.3	0.00093	2.3e-05
308.15	0.45	0.5	0.000923	2.3e-05
308.15	0.45	0.6	0.00092	2.3e-05
308.15	0.4501	0.7	0.0009	2.3e-05
308.15	0.4502	0.4	0.000924	2.3e-05
308.15	0.5974	0.6	0.001004	2.5e-05
308.15	0.6	0.2	0.001024	2.6e-05
308.15	0.6	0.3	0.001018	2.5e-05
308.15	0.6	0.5	0.00101	2.5e-05
308.15	0.6001	0.7	0.00099	2.5e-05
308.15	0.6002	0.4	0.001016	2.5e-05
308.15	0.7499	0.2	0.001132	2.8e-05
308.15	0.75	0.3	0.001119	2.8e-05
308.15	0.75	0.4	0.001115	2.8e-05
308.15	0.75	0.5	0.001108	2.7e-05
308.15	0.7502	0.6	0.001102	2.7e-05
308.15	0.8333	0.7	0.00113	2.8e-05
308.15	0.9	0.2	0.001234	3e-05
308.15	0.9	0.5	0.001206	3e-05
308.15	0.9001	0.3	0.001225	3e-05
308.15	0.9018	0.4	0.00121	3e-05
308.15	0.9048	0.6	0.001198	2.9e-05
308.15	0.9052	0.7	0.001183	2.9e-05
313.15	0	0.2	0.000595	1.6e-05
313.15	0	0.3	0.000593	1.6e-05
313.15	0	0.4	0.000585	1.6e-05
313.15	0	0.5	0.000577	1.6e-05
313.15	0	0.6	0.000569	1.6e-05
313.15	0	0.7	0.000563	1.6e-05
313.15	0.15	0.2	0.00071	1.9e-05
313.15	0.15	0.3	0.000719	1.9e-05
313.15	0.15	0.4	0.00071	1.9e-05
313.15	0.15	0.5	0.000698	1.8e-05
313.15	0.15	0.6	0.000689	1.8e-05
313.15	0.15	0.7	0.00069	1.8e-05
313.15	0.2999	0.6	0.000759	2e-05
313.15	0.2999	0.7	0.000753	1.9e-05
313.15	0.3	0.3	0.000785	2e-05
313.15	0.3	0.4	0.000777	2e-05
313.15	0.3	0.5	0.000765	2e-05
313.15	0.3002	0.2	0.000774	2e-05
313.15	0.4498	0.2	0.000848	2.2e-05
313.15	0.45	0.3	0.000846	2.2e-05
313.15	0.45	0.5	0.00083	2.1e-05
313.15	0.45	0.6	0.000826	2.1e-05
313.15	0.4501	0.7	0.000815	2.1e-05
313.15	0.4502	0.4	0.00084	2.2e-05
313.15	0.5974	0.6	0.000915	2.3e-05
313.15	0.6	0.2	0.00093	2.3e-05
313.15	0.6	0.3	0.000925	2.3e-05
313.15	0.6	0.5	0.000917	2.3e-05
313.15	0.6001	0.7	0.0009	2.3e-05
313.15	0.6002	0.4	0.000922	2.3e-05
313.15	0.7499	0.2	0.001029	2.6e-05
313.15	0.75	0.3	0.001015	2.5e-05
313.15	0.75	0.4	0.00101	2.5e-05
313.15	0.75	0.5	0.001006	2.5e-05
313.15	0.7502	0.6	0.000991	2.5e-05
313.15	0.8333	0.7	0.00105	2.6e-05
313.15	0.9	0.2	0.001119	2.8e-05
313.15	0.9	0.5	0.001107	2.7e-05
313.15	0.9001	0.3	0.001113	2.8e-05
313.15	0.9018	0.4	0.001109	2.7e-05
313.15	0.9048	0.6	0.001106	2.7e-05
313.15	0.9052	0.7	0.001105	2.7e-05

System: potassium citrate + water + potassium nitrate; phases: Liquid
Fixed: Pressure, kPa = 101
Property: Speed of sound, m/s (Liquid); method: FPINT:UFactor:2
Temperature, K	Amount concentration (molarity), mol/dm3 of potassium citrate	Molality, mol/kg of potassium nitrate	Speed of sound, m/s	uncertainty
293.15	0	0.2	1490.65	1.58
293.15	0	0.3	1493.5	1.58
293.15	0	0.4	1497.36	1.58
293.15	0	0.5	1501.03	1.59
293.15	0	0.6	1504.4	1.59
293.15	0	0.7	1507.61	1.59
293.15	0.15	0.2	1519.25	1.6
293.15	0.15	0.3	1521.83	1.6
293.15	0.15	0.4	1525.02	1.6
293.15	0.15	0.5	1528.09	1.6
293.15	0.15	0.6	1531.64	1.61
293.15	0.15	0.7	1534.21	1.61
293.15	0.2999	0.6	1558.41	1.62
293.15	0.2999	0.7	1560.71	1.62
293.15	0.3	0.3	1549.76	1.62
293.15	0.3	0.4	1552	1.62
293.15	0.3	0.5	1554.5	1.62
293.15	0.3002	0.2	1547.06	1.62
293.15	0.4498	0.2	1573.15	1.64
293.15	0.45	0.3	1576.45	1.64
293.15	0.45	0.5	1580.98	1.64
293.15	0.45	0.6	1584.09	1.64
293.15	0.4501	0.7	1586.76	1.64
293.15	0.4502	0.4	1578.38	1.64
293.15	0.5974	0.6	1609.52	1.66
293.15	0.6	0.2	1599.93	1.65
293.15	0.6	0.3	1603.23	1.65
293.15	0.6	0.5	1606.38	1.66
293.15	0.6001	0.7	1611.95	1.66
293.15	0.6002	0.4	1604.38	1.66
293.15	0.7499	0.2	1624.91	1.67
293.15	0.75	0.3	1628.21	1.67
293.15	0.75	0.4	1629.51	1.67
293.15	0.75	0.5	1631.91	1.67
293.15	0.7502	0.6	1635.32	1.67
293.15	0.8333	0.7	1650.88	1.68
293.15	0.9	0.2	1650.59	1.68
293.15	0.9	0.5	1656.57	1.69
293.15	0.9001	0.3	1652.18	1.68
293.15	0.9018	0.4	1654.99	1.69
293.15	0.9048	0.6	1659.66	1.69
293.15	0.9052	0.7	1662.11	1.69
298.15	0	0.2	1504	1.59
298.15	0	0.3	1506.99	1.59
298.15	0	0.4	1510.14	1.59
298.15	0	0.5	1513.37	1.59
298.15	0	0.6	1517	1.6
298.15	0	0.7	1520.05	1.6
298.15	0.15	0.2	1531.68	1.61
298.15	0.15	0.3	1534.42	1.61
298.15	0.15	0.4	1537.24	1.61
298.15	0.15	0.5	1540.1	1.61
298.15	0.15	0.6	1543.38	1.61
298.15	0.15	0.7	1545.61	1.61
298.15	0.2999	0.6	1568.78	1.63
298.15	0.2999	0.7	1571.22	1.63
298.15	0.3	0.3	1560.76	1.62
298.15	0.3	0.4	1563.48	1.63
298.15	0.3	0.5	1566	1.63
298.15	0.3002	0.2	1558.53	1.62
298.15	0.4498	0.2	1584.38	1.64
298.15	0.45	0.3	1586.95	1.64
298.15	0.45	0.5	1591.38	1.64
298.15	0.45	0.6	1594.12	1.65
298.15	0.4501	0.7	1596.51	1.65
298.15	0.4502	0.4	1589.65	1.65
298.15	0.5974	0.6	1618.92	1.66
298.15	0.6	0.2	1609.91	1.66
298.15	0.6	0.3	1612.23	1.66
298.15	0.6	0.5	1616.38	1.66
298.15	0.6001	0.7	1620.82	1.66
298.15	0.6002	0.4	1615.14	1.66
298.15	0.7499	0.2	1633.91	1.67
298.15	0.75	0.3	1636.91	1.67
298.15	0.75	0.4	1639.6	1.68
298.15	0.75	0.5	1641.51	1.68
298.15	0.7502	0.6	1643.72	1.68
298.15	0.8333	0.7	1658.02	1.69
298.15	0.9	0.2	1659.12	1.69
298.15	0.9	0.5	1664.63	1.69
298.15	0.9001	0.3	1660.72	1.69
298.15	0.9018	0.4	1662.91	1.69
298.15	0.9048	0.6	1667.92	1.69
298.15	0.9052	0.7	1669.58	1.7
303.15	0	0.2	1515.58	1.59
303.15	0	0.3	1518.72	1.59
303.15	0	0.4	1522.03	1.6
303.15	0	0.5	1524.67	1.6
303.15	0	0.6	1528.36	1.6
303.15	0	0.7	1530.91	1.6
303.15	0.15	0.2	1542.67	1.61
303.15	0.15	0.3	1545.57	1.61
303.15	0.15	0.4	1548.39	1.61
303.15	0.15	0.5	1550.91	1.61
303.15	0.15	0.6	1553.92	1.62
303.15	0.15	0.7	1555.97	1.62
303.15	0.2999	0.6	1578.22	1.63
303.15	0.2999	0.7	1580.99	1.63
303.15	0.3	0.3	1571.06	1.63
303.15	0.3	0.4	1573.98	1.63
303.15	0.3	0.5	1575.9	1.63
303.15	0.3002	0.2	1569.27	1.63
303.15	0.4498	0.2	1593.75	1.64
303.15	0.45	0.3	1596.15	1.65
303.15	0.45	0.5	1599.98	1.65
303.15	0.45	0.6	1602.83	1.65
303.15	0.4501	0.7	1605.12	1.65
303.15	0.4502	0.4	1598.93	1.65
303.15	0.5974	0.6	1626.41	1.67
303.15	0.6	0.2	1619	1.66
303.15	0.6	0.3	1619.93	1.66
303.15	0.6	0.5	1624.98	1.66
303.15	0.6001	0.7	1628.78	1.67
303.15	0.6002	0.4	1623.76	1.66
303.15	0.7499	0.2	1642.46	1.68
303.15	0.75	0.3	1644.91	1.68
303.15	0.75	0.4	1647.2	1.68
303.15	0.75	0.5	1649.51	1.68
303.15	0.7502	0.6	1650.56	1.68
303.15	0.8333	0.7	1665.03	1.69
303.15	0.9	0.2	1666.29	1.69
303.15	0.9	0.5	1672.32	1.7
303.15	0.9001	0.3	1669.07	1.69
303.15	0.9018	0.4	1669.53	1.69
303.15	0.9048	0.6	1674.52	1.7
303.15	0.9052	0.7	1676.01	1.7
308.15	0	0.2	1525.97	1.6
308.15	0	0.3	1528.82	1.6
308.15	0	0.4	1531.37	1.6
308.15	0	0.5	1534.27	1.6
308.15	0	0.6	1536.77	1.6
308.15	0	0.7	1539.38	1.6
308.15	0.15	0.2	1552.29	1.61
308.15	0.15	0.3	1555.02	1.61
308.15	0.15	0.4	1556.96	1.62
308.15	0.15	0.5	1559.74	1.62
308.15	0.15	0.6	1562	1.62
308.15	0.15	0.7	1563.96	1.62
308.15	0.2999	0.6	1586.22	1.64
308.15	0.2999	0.7	1588.27	1.64
308.15	0.3	0.3	1579.96	1.63
308.15	0.3	0.4	1582.08	1.63
308.15	0.3	0.5	1584	1.63
308.15	0.3002	0.2	1577.4	1.63
308.15	0.4498	0.2	1601.82	1.65
308.15	0.45	0.3	1604.15	1.65
308.15	0.45	0.5	1607.88	1.65
308.15	0.45	0.6	1610.25	1.65
308.15	0.4501	0.7	1612.19	1.65
308.15	0.4502	0.4	1605.93	1.65
308.15	0.5974	0.6	1633.1	1.67
308.15	0.6	0.2	1625.95	1.66
308.15	0.6	0.3	1627.03	1.66
308.15	0.6	0.5	1631.38	1.67
308.15	0.6001	0.7	1635.29	1.67
308.15	0.6002	0.4	1630.5	1.67
308.15	0.7499	0.2	1649.31	1.68
308.15	0.75	0.3	1650.01	1.68
308.15	0.75	0.4	1652.85	1.68
308.15	0.75	0.5	1654.51	1.68
308.15	0.7502	0.6	1657.53	1.69
308.15	0.8333	0.7	1670.64	1.69
308.15	0.9	0.2	1672.5	1.7
308.15	0.9	0.5	1677.91	1.7
308.15	0.9001	0.3	1673.88	1.7
308.15	0.9018	0.4	1674.59	1.7
308.15	0.9048	0.6	1679.64	1.7
308.15	0.9052	0.7	1681.39	1.7
313.15	0	0.2	1534.64	1.6
313.15	0	0.3	1537.54	1.6
313.15	0	0.4	1539.73	1.6
313.15	0	0.5	1542.48	1.6
313.15	0	0.6	1544.85	1.61
313.15	0	0.7	1547.68	1.61
313.15	0.15	0.2	1560.35	1.62
313.15	0.15	0.3	1562.68	1.62
313.15	0.15	0.4	1564.97	1.62
313.15	0.15	0.5	1567.29	1.62
313.15	0.15	0.6	1569.17	1.62
313.15	0.15	0.7	1571.46	1.62
313.15	0.2999	0.6	1593.05	1.64
313.15	0.2999	0.7	1594.95	1.64
313.15	0.3	0.3	1587.06	1.64
313.15	0.3	0.4	1589.19	1.64
313.15	0.3	0.5	1591	1.64
313.15	0.3002	0.2	1585.02	1.63
313.15	0.4498	0.2	1608.79	1.65
313.15	0.45	0.3	1611.05	1.65
313.15	0.45	0.5	1614.38	1.66
313.15	0.45	0.6	1616.5	1.66
313.15	0.4501	0.7	1618.3	1.66
313.15	0.4502	0.4	1612.41	1.65
313.15	0.5974	0.6	1640	1.67
313.15	0.6	0.2	1632.35	1.67
313.15	0.6	0.3	1633.53	1.67
313.15	0.6	0.5	1637.38	1.67
313.15	0.6001	0.7	1641.06	1.67
313.15	0.6002	0.4	1635.66	1.67
313.15	0.7499	0.2	1654.98	1.68
313.15	0.75	0.3	1656.41	1.69
313.15	0.75	0.4	1658.25	1.68
313.15	0.75	0.5	1660.51	1.69
313.15	0.7502	0.6	1663.82	1.69
313.15	0.8333	0.7	1675.64	1.7
313.15	0.9	0.2	1677.95	1.7
313.15	0.9	0.5	1682.16	1.7
313.15	0.9001	0.3	1678.88	1.7
313.15	0.9018	0.4	1679.28	1.7
313.15	0.9048	0.6	1686.1	1.7
313.15	0.9052	0.7	1685.71	1.7

System: potassium citrate + water + potassium nitrate; phases: Liquid
Fixed: Pressure, kPa = 101
Property: Mass density, kg/m3 (Liquid); method: VIBTUB:UFactor:6
Temperature, K	Molality, mol/kg of potassium citrate	Molality, mol/kg of potassium nitrate	Mass density, kg/m3	uncertainty
293.15	0	0.2	1010.621	0.294
293.15	0	0.3	1016.689	0.303
293.15	0	0.4	1022.681	0.312
293.15	0	0.5	1028.599	0.322
293.15	0	0.6	1034.609	0.333
293.15	0	0.7	1040.367	0.342
293.15	0.15	0.2	1039.472	0.345
293.15	0.15	0.3	1045.154	0.354
293.15	0.15	0.4	1050.841	0.365
293.15	0.15	0.5	1056.408	0.375
293.15	0.15	0.6	1062.135	0.386
293.15	0.15	0.7	1067.557	0.396
293.15	0.2999	0.6	1088.109	0.439
293.15	0.2999	0.7	1093.268	0.449
293.15	0.3	0.3	1072.098	0.406
293.15	0.3	0.4	1077.477	0.417
293.15	0.3	0.5	1082.677	0.428
293.15	0.3002	0.2	1066.788	0.397
293.15	0.4498	0.2	1092.547	0.45
293.15	0.45	0.3	1097.607	0.46
293.15	0.45	0.5	1107.664	0.481
293.15	0.45	0.6	1112.847	0.493
293.15	0.4501	0.7	1117.63	0.502
293.15	0.4502	0.4	1102.814	0.471
293.15	0.5974	0.6	1135.907	0.545
293.15	0.6	0.2	1117.053	0.504
293.15	0.6	0.3	1121.853	0.514
293.15	0.6	0.5	1131.344	0.535
293.15	0.6001	0.7	1140.718	0.555
293.15	0.6002	0.4	1126.844	0.525
293.15	0.7499	0.2	1140.178	0.557
293.15	0.75	0.3	1144.798	0.567
293.15	0.75	0.4	1149.536	0.578
293.15	0.75	0.5	1153.936	0.588
293.15	0.7502	0.6	1158.528	0.598
293.15	0.8333	0.7	1174.687	0.637
293.15	0.9	0.2	1162.337	0.61
293.15	0.9	0.5	1175.546	0.641
293.15	0.9001	0.3	1166.446	0.62
293.15	0.9018	0.4	1171.39	0.631
293.15	0.9048	0.6	1180.576	0.652
293.15	0.9052	0.7	1184.628	0.661
298.15	0	0.2	1009.415	0.292
298.15	0	0.3	1015.467	0.3
298.15	0	0.4	1021.25	0.31
298.15	0	0.5	1027.126	0.319
298.15	0	0.6	1032.835	0.328
298.15	0	0.7	1038.556	0.338
298.15	0.15	0.2	1038.147	0.342
298.15	0.15	0.3	1043.81	0.351
298.15	0.15	0.4	1049.288	0.361
298.15	0.15	0.5	1054.811	0.371
298.15	0.15	0.6	1060.218	0.381
298.15	0.15	0.7	1065.619	0.392
298.15	0.2999	0.6	1086.08	0.434
298.15	0.2999	0.7	1091.217	0.444
298.15	0.3	0.3	1070.618	0.403
298.15	0.3	0.4	1075.803	0.413
298.15	0.3	0.5	1080.977	0.424
298.15	0.3002	0.2	1065.297	0.393
298.15	0.4498	0.2	1090.949	0.446
298.15	0.45	0.3	1096.047	0.456
298.15	0.45	0.5	1105.864	0.477
298.15	0.45	0.6	1110.731	0.488
298.15	0.4501	0.7	1115.515	0.498
298.15	0.4502	0.4	1100.969	0.467
298.15	0.5974	0.6	1133.676	0.54
298.15	0.6	0.2	1115.407	0.5
298.15	0.6	0.3	1120.203	0.51
298.15	0.6	0.5	1129.474	0.531
298.15	0.6001	0.7	1138.579	0.55
298.15	0.6002	0.4	1124.855	0.52
298.15	0.7499	0.2	1138.542	0.553
298.15	0.75	0.3	1143.078	0.563
298.15	0.75	0.4	1147.435	0.573
298.15	0.75	0.5	1151.936	0.583
298.15	0.7502	0.6	1156.277	0.593
298.15	0.8333	0.7	1172.456	0.632
298.15	0.9	0.2	1160.502	0.606
298.15	0.9	0.5	1173.43	0.636
298.15	0.9001	0.3	1164.806	0.615
298.15	0.9018	0.4	1169.293	0.626
298.15	0.9048	0.6	1178.268	0.647
298.15	0.9052	0.7	1182.361	0.656
303.15	0	0.2	1007.803	0.288
303.15	0	0.3	1013.822	0.297
303.15	0	0.4	1019.623	0.306
303.15	0	0.5	1025.396	0.315
303.15	0	0.6	1031.201	0.325
303.15	0	0.7	1036.791	0.334
303.15	0.15	0.2	1036.418	0.338
303.15	0.15	0.3	1042.068	0.347
303.15	0.15	0.4	1047.515	0.357
303.15	0.15	0.5	1052.995	0.367
303.15	0.15	0.6	1058.498	0.378
303.15	0.15	0.7	1063.782	0.387
303.15	0.2999	0.6	1084.279	0.43
303.15	0.2999	0.7	1089.258	0.44
303.15	0.3	0.3	1068.768	0.399
303.15	0.3	0.4	1073.949	0.409
303.15	0.3	0.5	1079.077	0.419
303.15	0.3002	0.2	1063.416	0.389
303.15	0.4498	0.2	1088.974	0.442
303.15	0.45	0.3	1094.097	0.452
303.15	0.45	0.5	1103.864	0.473
303.15	0.45	0.6	1108.823	0.483
303.15	0.4501	0.7	1113.501	0.493
303.15	0.4502	0.4	1098.986	0.462
303.15	0.5974	0.6	1131.625	0.535
303.15	0.6	0.2	1113.207	0.495
303.15	0.6	0.3	1118.203	0.506
303.15	0.6	0.5	1127.444	0.526
303.15	0.6001	0.7	1136.481	0.545
303.15	0.6002	0.4	1122.767	0.516
303.15	0.7499	0.2	1136.282	0.548
303.15	0.75	0.3	1140.978	0.558
303.15	0.75	0.4	1145.364	0.568
303.15	0.75	0.5	1149.836	0.578
303.15	0.7502	0.6	1154.181	0.588
303.15	0.8333	0.7	1170.293	0.627
303.15	0.9	0.2	1158.36	0.601
303.15	0.9	0.5	1171.162	0.63
303.15	0.9001	0.3	1162.656	0.61
303.15	0.9018	0.4	1167.054	0.621
303.15	0.9048	0.6	1176.093	0.642
303.15	0.9052	0.7	1180.155	0.65
308.15	0	0.2	1006.091	0.284
308.15	0	0.3	1011.973	0.293
308.15	0	0.4	1017.788	0.302
308.15	0	0.5	1023.575	0.311
308.15	0	0.6	1029.215	0.32
308.15	0	0.7	1034.869	0.33
308.15	0.15	0.2	1034.543	0.334
308.15	0.15	0.3	1040.103	0.343
308.15	0.15	0.4	1045.566	0.353
308.15	0.15	0.5	1051.066	0.363
308.15	0.15	0.6	1056.393	0.373
308.15	0.15	0.7	1061.709	0.383
308.15	0.2999	0.6	1082.11	0.425
308.15	0.2999	0.7	1087.123	0.435
308.15	0.3	0.3	1066.698	0.394
308.15	0.3	0.4	1071.871	0.404
308.15	0.3	0.5	1077.077	0.415
308.15	0.3002	0.2	1061.469	0.384
308.15	0.4498	0.2	1086.882	0.437
308.15	0.45	0.3	1091.947	0.447
308.15	0.45	0.5	1101.814	0.468
308.15	0.45	0.6	1106.555	0.478
308.15	0.4501	0.7	1111.255	0.488
308.15	0.4502	0.4	1096.831	0.457
308.15	0.5974	0.6	1129.365	0.53
308.15	0.6	0.2	1111.036	0.49
308.15	0.6	0.3	1116.003	0.501
308.15	0.6	0.5	1125.344	0.521
308.15	0.6001	0.7	1134.218	0.54
308.15	0.6002	0.4	1120.566	0.51
308.15	0.7499	0.2	1134.107	0.543
308.15	0.75	0.3	1138.778	0.553
308.15	0.75	0.4	1143.057	0.563
308.15	0.75	0.5	1147.646	0.573
308.15	0.7502	0.6	1151.9	0.583
308.15	0.8333	0.7	1167.944	0.622
308.15	0.9	0.2	1156.087	0.596
308.15	0.9	0.5	1168.859	0.625
308.15	0.9001	0.3	1160.397	0.605
308.15	0.9018	0.4	1164.806	0.615
308.15	0.9048	0.6	1173.701	0.636
308.15	0.9052	0.7	1177.874	0.645
313.15	0	0.2	1004.283	0.28
313.15	0	0.3	1009.98	0.289
313.15	0	0.4	1015.895	0.298
313.15	0	0.5	1021.558	0.307
313.15	0	0.6	1027.232	0.316
313.15	0	0.7	1032.757	0.326
313.15	0.15	0.2	1032.598	0.33
313.15	0.15	0.3	1037.991	0.339
313.15	0.15	0.4	1043.535	0.349
313.15	0.15	0.5	1048.893	0.358
313.15	0.15	0.6	1054.265	0.368
313.15	0.15	0.7	1059.488	0.378
313.15	0.2999	0.6	1079.893	0.42
313.15	0.2999	0.7	1084.815	0.43
313.15	0.3	0.3	1064.498	0.39
313.15	0.3	0.4	1069.751	0.4
313.15	0.3	0.5	1074.817	0.41
313.15	0.3002	0.2	1059.388	0.38
313.15	0.4498	0.2	1084.61	0.432
313.15	0.45	0.3	1089.647	0.442
313.15	0.45	0.5	1099.494	0.463
313.15	0.45	0.6	1104.278	0.473
313.15	0.4501	0.7	1108.933	0.483
313.15	0.4502	0.4	1094.688	0.453
313.15	0.5974	0.6	1127.052	0.525
313.15	0.6	0.2	1108.77	0.485
313.15	0.6	0.3	1113.603	0.495
313.15	0.6	0.5	1122.894	0.516
313.15	0.6001	0.7	1131.858	0.534
313.15	0.6002	0.4	1118.424	0.506
313.15	0.7499	0.2	1131.726	0.538
313.15	0.75	0.3	1136.278	0.547
313.15	0.75	0.4	1140.817	0.557
313.15	0.75	0.5	1145.236	0.568
313.15	0.7502	0.6	1149.572	0.577
313.15	0.8333	0.7	1165.439	0.616
313.15	0.9	0.2	1153.556	0.59
313.15	0.9	0.5	1166.368	0.619
313.15	0.9001	0.3	1157.937	0.6
313.15	0.9018	0.4	1162.351	0.61
313.15	0.9048	0.6	1171.247	0.63
313.15	0.9052	0.7	1175.331	0.639
