Measured thermophysical data. Viscosity and Density of the Ternary Solution of Magnesium Chloride + Sodium Chloride + Water from (298.15 to 318.15) K
Source: J. Chem. Eng. Data, 2010, 10.1021/je100111w
Compound 1: magnesium chloride, Cl2Mg, InChI=1S/2ClH.Mg/h2*1H;/q;;+2/p-2
Compound 2: sodium chloride, ClNa, InChI=1S/ClH.Na/h1H;/q;+1/p-1
Compound 3: water, H2O, InChI=1S/H2O/h1H2

System: sodium chloride + water + magnesium chloride; phases: Liquid
Fixed: Pressure, kPa = 101
Property: Mass density, kg/m3 (Liquid); method: Pycnometric method
Temperature, K	Molality, mol/kg of sodium chloride	Molality, mol/kg of magnesium chloride	Mass density, kg/m3	uncertainty
298.15	1.2439	2.7076	1206.5	0.8
298.15	1.0855	2.3591	1183.6	0.7
298.15	0.9592	2.0894	1163.6	0.6
298.15	0.8628	1.8766	1150.3	0.6
298.15	0.7837	1.7014	1137.4	0.5
298.15	0.7155	1.5576	1126.2	0.5
298.15	0.6588	1.4368	1118.2	0.5
298.15	0.4262	0.9273	1077.5	0.4
298.15	0.3273	0.711	1066.2	0.4
298.15	0.0982	0.2157	1015.4	0.3
298.15	1.5722	2.2839	1193.3	0.8
298.15	1.3261	1.9252	1167	0.6
298.15	1.1449	1.6629	1147	0.6
298.15	1.0098	1.465	1130.4	0.5
298.15	0.903	1.3066	1118.1	0.5
298.15	0.8146	1.1827	1106.6	0.5
298.15	0.743	1.0797	1098	0.4
298.15	0.4628	0.6679	1061.1	0.4
298.15	0.3468	0.5052	1046.6	0.4
298.15	0.0995	0.1452	1011.4	0.3
298.15	2.4667	1.7834	1193.6	0.8
298.15	2.1411	1.5528	1168.4	0.7
298.15	1.9011	1.3806	1152.5	0.6
298.15	1.7076	1.24	1138.7	0.6
298.15	1.5511	1.1253	1117.1	0.5
298.15	1.4222	1.0292	1115.2	0.5
298.15	1.3132	0.9559	1105.7	0.5
298.15	0.8463	0.6187	1070.1	0.4
298.15	0.6538	0.4788	1054.4	0.4
298.15	0.1958	0.1439	1014.7	0.3
298.15	3.0925	1.1282	1171.8	0.7
298.15	2.62	0.9478	1149.1	0.6
298.15	2.2763	0.8193	1131.2	0.6
298.15	1.9969	0.7252	1115.2	0.5
298.15	1.7829	0.6484	1106.8	0.5
298.15	1.6122	0.5878	1095.3	0.5
298.15	1.4736	0.5359	1086.9	0.4
298.15	0.9251	0.3304	1056	0.4
298.15	0.7011	0.256	1041.2	0.4
298.15	0.199	0.074	1009.7	0.3
298.15	3.6311	0.8859	1174.5	0.7
298.15	3.1806	0.7685	1155.7	0.6
298.15	2.8215	0.6868	1139.7	0.6
298.15	2.5405	0.6166	1126.2	0.5
298.15	2.307	0.5584	1125.7	0.8
298.15	2.1146	0.5133	1107.9	0.5
298.15	1.9523	0.4757	1097.9	0.5
298.15	1.2729	0.3087	1066.1	0.4
298.15	0.9727	0.2353	1050.3	0.4
298.15	0.2952	0.0717	1013.6	0.3
303.15	1.2439	2.7076	1204.6	0.8
303.15	1.0855	2.3591	1181.4	0.7
303.15	0.9592	2.0894	1161.6	0.6
303.15	0.8628	1.8766	1148.2	0.6
303.15	0.7837	1.7014	1135.1	0.5
303.15	0.7155	1.5576	1124	0.5
303.15	0.6588	1.4368	1115.8	0.5
303.15	0.4262	0.9273	1075.7	0.4
303.15	0.3273	0.711	1063	0.4
303.15	0.0982	0.2157	1015.4	0.3
303.15	1.5722	2.2839	1190.9	0.8
303.15	1.3261	1.9252	1165	0.7
303.15	1.1449	1.6629	1145	0.6
303.15	1.0098	1.465	1128.4	0.5
303.15	0.903	1.3066	1116	0.5
303.15	0.8146	1.1827	1104.6	0.5
303.15	0.743	1.0797	1095.8	0.5
303.15	0.4628	0.6679	1059.6	0.4
303.15	0.3468	0.5052	1044.7	0.4
303.15	0.0995	0.1452	1010	0.3
303.15	2.4667	1.7834	1191.5	0.8
303.15	2.1411	1.5528	1166.1	0.7
303.15	1.9011	1.3806	1150.2	0.6
303.15	1.7076	1.24	1136.4	0.6
303.15	1.5511	1.1253	1115.1	0.5
303.15	1.4222	1.0292	1113.5	0.5
303.15	1.3132	0.9559	1103.8	0.5
303.15	0.8463	0.6187	1068.4	0.4
303.15	0.6538	0.4788	1052.8	0.4
303.15	0.1958	0.1439	1013.2	0.3
303.15	3.0925	1.1282	1169.5	0.7
303.15	2.62	0.9478	1147	0.6
303.15	2.2763	0.8193	1128.9	0.6
303.15	1.9969	0.7252	1113	0.5
303.15	1.7829	0.6484	1105.1	0.5
303.15	1.6122	0.5878	1093	0.5
303.15	1.4736	0.5359	1084.7	0.5
303.15	0.9251	0.3304	1053.8	0.4
303.15	0.7011	0.256	1039.7	0.4
303.15	0.199	0.074	1008.4	0.3
303.15	3.6311	0.8859	1172.3	0.7
303.15	3.1806	0.7685	1153.4	0.6
303.15	2.8215	0.6868	1137.9	0.6
303.15	2.5405	0.6166	1124.1	0.5
303.15	2.307	0.5584	1113.9	0.6
303.15	2.1146	0.5133	1105.8	0.5
303.15	1.9523	0.4757	1095.6	0.5
303.15	1.2729	0.3087	1064.4	0.4
303.15	0.9727	0.2353	1048.6	0.4
303.15	0.2952	0.0717	1011.9	0.3
308.15	1.2439	2.7076	1202.6	0.8
308.15	1.0855	2.3591	1179.6	0.7
308.15	0.9592	2.0894	1159.6	0.7
308.15	0.8628	1.8766	1146.5	0.6
308.15	0.7837	1.7014	1133.3	0.6
308.15	0.7155	1.5576	1122.2	0.5
308.15	0.6588	1.4368	1113.6	0.5
308.15	0.4262	0.9273	1074	0.4
308.15	0.3273	0.711	1061.7	0.4
308.15	0.0982	0.2157	1013.6	0.4
308.15	1.5722	2.2839	1188.8	0.8
308.15	1.3261	1.9252	1162.5	0.7
308.15	1.1449	1.6629	1143.2	0.6
308.15	1.0098	1.465	1126.7	0.5
308.15	0.903	1.3066	1114	0.5
308.15	0.8146	1.1827	1102.4	0.5
308.15	0.743	1.0797	1092	0.5
308.15	0.4628	0.6679	1057.5	0.4
308.15	0.3468	0.5052	1042.9	0.4
308.15	0.0995	0.1452	1008.3	0.4
308.15	2.4667	1.7834	1189.2	0.8
308.15	2.1411	1.5528	1164.1	0.7
308.15	1.9011	1.3806	1148.2	0.6
308.15	1.7076	1.24	1134.3	0.6
308.15	1.5511	1.1253	1113.2	0.5
308.15	1.4222	1.0292	1111.5	0.5
308.15	1.3132	0.9559	1101.3	0.5
308.15	0.8463	0.6187	1066.3	0.4
308.15	0.6538	0.4788	1050.8	0.4
308.15	0.1958	0.1439	1011.4	0.4
308.15	3.0925	1.1282	1167.2	0.7
308.15	2.62	0.9478	1144.4	0.6
308.15	2.2763	0.8193	1126.7	0.6
308.15	1.9969	0.7252	1109.9	0.5
308.15	1.7829	0.6484	1102.5	0.5
308.15	1.6122	0.5878	1090.5	0.5
308.15	1.4736	0.5359	1081.7	0.5
308.15	0.9251	0.3304	1052.1	0.4
308.15	0.7011	0.256	1037.7	0.4
308.15	0.199	0.074	1006.4	0.4
308.15	3.6311	0.8859	1170	0.8
308.15	3.1806	0.7685	1151.1	0.7
308.15	2.8215	0.6868	1135.4	0.6
308.15	2.5405	0.6166	1121.4	0.6
308.15	2.307	0.5584	1111.8	0.5
308.15	2.1146	0.5133	1103.8	0.5
308.15	1.9523	0.4757	1093.5	0.5
308.15	1.2729	0.3087	1062.1	0.4
308.15	0.9727	0.2353	1046.8	0.4
308.15	0.2952	0.0717	1010.1	0.4
313.15	1.2439	2.7076	1200.1	0.8
313.15	1.0855	2.3591	1177.2	0.7
313.15	0.9592	2.0894	1157.7	0.7
313.15	0.8628	1.8766	1144.6	0.6
313.15	0.7837	1.7014	1131	0.6
313.15	0.7155	1.5576	1120	0.5
313.15	0.6588	1.4368	1112.2	0.5
313.15	0.4262	0.9273	1072	0.4
313.15	0.3273	0.711	1059.6	0.4
313.15	0.0982	0.2157	1011.3	0.4
313.15	1.5722	2.2839	1186.2	0.8
313.15	1.3261	1.9252	1161.3	0.7
313.15	1.1449	1.6629	1141	0.6
313.15	1.0098	1.465	1124.7	0.6
313.15	0.903	1.3066	1111.8	0.5
313.15	0.8146	1.1827	1099.9	0.5
313.15	0.743	1.0797	1090.8	0.5
313.15	0.4628	0.6679	1055.3	0.4
313.15	0.3468	0.5052	1040.9	0.4
313.15	0.0995	0.1452	1006.7	0.4
313.15	2.4667	1.7834	1185.3	0.8
313.15	2.1411	1.5528	1161.6	0.7
313.15	1.9011	1.3806	1146.1	0.6
313.15	1.7076	1.24	1132.5	0.6
313.15	1.5511	1.1253	1111.7	0.5
313.15	1.4222	1.0292	1109.3	0.5
313.15	1.3132	0.9559	1100	0.5
313.15	0.8463	0.6187	1064.2	0.4
313.15	0.6538	0.4788	1048.7	0.4
313.15	0.1958	0.1439	1009.4	0.4
313.15	3.0925	1.1282	1164.7	0.7
313.15	2.62	0.9478	1142.3	0.6
313.15	2.2763	0.8193	1124	0.6
313.15	1.9969	0.7252	1108.6	0.5
313.15	1.7829	0.6484	1100.3	0.5
313.15	1.6122	0.5878	1087.7	0.5
313.15	1.4736	0.5359	1078	0.5
313.15	0.9251	0.3304	1049.7	0.4
313.15	0.7011	0.256	1035.7	0.4
313.15	0.199	0.074	1003.7	0.4
313.15	3.6311	0.8859	1165.3	0.7
313.15	3.1806	0.7685	1146.2	0.7
313.15	2.8215	0.6868	1130.2	0.6
313.15	2.5405	0.6166	1116.9	0.6
313.15	2.307	0.5584	1107.4	0.5
313.15	2.1146	0.5133	1098.8	0.5
313.15	1.9523	0.4757	1088.6	0.5
313.15	1.2729	0.3087	1057.2	0.4
313.15	0.9727	0.2353	1043	0.4
313.15	0.2952	0.0717	1006	0.4
318.15	1.2439	2.7076	1198.9	0.9
318.15	1.0855	2.3591	1175	0.8
318.15	0.9592	2.0894	1155.3	0.7
318.15	0.8628	1.8766	1142.3	0.6
318.15	0.7837	1.7014	1128.7	0.6
318.15	0.7155	1.5576	1118.2	0.5
318.15	0.6588	1.4368	1109.9	0.5
318.15	0.4262	0.9273	1070.4	0.4
318.15	0.3273	0.711	1057.9	0.4
318.15	0.0982	0.2157	1009.3	0.4
318.15	1.5722	2.2839	1183.9	0.8
318.15	1.3261	1.9252	1158.4	0.7
318.15	1.1449	1.6629	1138.9	0.6
318.15	1.0098	1.465	1122.1	0.6
318.15	0.903	1.3066	1109.6	0.5
318.15	0.8146	1.1827	1097.6	0.5
318.15	0.743	1.0797	1088	0.5
318.15	0.4628	0.6679	1053.3	0.4
318.15	0.3468	0.5052	1039	0.4
318.15	0.0995	0.1452	1004.4	0.4
318.15	2.4667	1.7834	1183.8	0.8
318.15	2.1411	1.5528	1159.3	0.7
318.15	1.9011	1.3806	1143.3	0.6
318.15	1.7076	1.24	1129.9	0.6
318.15	1.5511	1.1253	1108.9	0.6
318.15	1.4222	1.0292	1107.1	0.5
318.15	1.3132	0.9559	1097.1	0.5
318.15	0.8463	0.6187	1061.7	0.4
318.15	0.6538	0.4788	1046.5	0.4
318.15	0.1958	0.1439	1007.2	0.4
318.15	3.0925	1.1282	1162.1	0.7
318.15	2.62	0.9478	1140	0.6
318.15	2.2763	0.8193	1121.4	0.6
318.15	1.9969	0.7252	1106.5	0.5
318.15	1.7829	0.6484	1098.2	0.5
318.15	1.6122	0.5878	1085.7	0.5
318.15	1.4736	0.5359	1075.4	0.5
318.15	0.9251	0.3304	1047.3	0.4
318.15	0.7011	0.256	1033.2	0.4
318.15	0.199	0.074	1001.6	0.4
318.15	3.6311	0.8859	1165.3	0.7
318.15	3.1806	0.7685	1146.2	0.7
318.15	2.8215	0.6868	1130.2	0.6
318.15	2.5405	0.6166	1116.9	0.6
318.15	2.307	0.5584	1107.4	0.5
318.15	2.1146	0.5133	1098.8	0.5
318.15	1.9523	0.4757	1088.6	0.5
318.15	1.2729	0.3087	1057.2	0.4
318.15	0.9727	0.2353	1043	0.4
318.15	0.2952	0.0717	1006	0.4

System: sodium chloride + water + magnesium chloride; phases: Liquid
Fixed: Pressure, kPa = 101
Property: Viscosity, Pa*s (Liquid); method: Capillary tube (Ostwald; Ubbelohde) method
Temperature, K	Molality, mol/kg of sodium chloride	Molality, mol/kg of magnesium chloride	Viscosity, Pa*s	uncertainty
298.15	1.2439	2.7076	0.002847	4.16e-05
298.15	1.0855	2.3591	0.002412	3.46e-05
298.15	0.9592	2.0894	0.0021319	3e-05
298.15	0.8628	1.8766	0.0019459	2.72e-05
298.15	0.7837	1.7014	0.001797	2.48e-05
298.15	0.7155	1.5576	0.0016943	2.33e-05
298.15	0.6588	1.4368	0.0016099	2.2e-05
298.15	0.4262	0.9273	0.0013023	1.75e-05
298.15	0.3273	0.711	0.0012341	1.66e-05
298.15	0.0982	0.2157	0.0009819	1.29e-05
298.15	1.5722	2.2839	0.0024808	3.59e-05
298.15	1.3261	1.9252	0.0021016	2.96e-05
298.15	1.1449	1.6629	0.001857	2.58e-05
298.15	1.0098	1.465	0.0016909	2.32e-05
298.15	0.903	1.3066	0.0015787	2.16e-05
298.15	0.8146	1.1827	0.0014892	2.02e-05
298.15	0.743	1.0797	0.001421	1.93e-05
298.15	0.4628	0.6679	0.0011879	1.58e-05
298.15	0.3468	0.5052	0.0011073	1.49e-05
298.15	0.0995	0.1452	0.0009508	1.22e-05
298.15	2.4667	1.7834	0.0022885	3.31e-05
298.15	2.1411	1.5528	0.0019835	2.81e-05
298.15	1.9011	1.3806	0.001794	2.52e-05
298.15	1.7076	1.24	0.0016622	2.37e-05
298.15	1.5511	1.1253	0.00155	2.14e-05
298.15	1.4222	1.0292	0.0014814	2.02e-05
298.15	1.3132	0.9559	0.0014274	1.94e-05
298.15	0.8463	0.6187	0.0012024	1.59e-05
298.15	0.6538	0.4788	0.0011259	1.5e-05
298.15	0.1958	0.1439	0.0009587	1.26e-05
298.15	3.0925	1.1282	0.0018701	2.66e-05
298.15	2.62	0.9478	0.0016454	2.33e-05
298.15	2.2763	0.8193	0.0015216	2.13e-05
298.15	1.9969	0.7252	0.0014047	1.92e-05
298.15	1.7829	0.6484	0.0013505	1.83e-05
298.15	1.6122	0.5878	0.0012792	1.73e-05
298.15	1.4736	0.5359	0.0012374	1.67e-05
298.15	0.9251	0.3304	0.0010914	1.45e-05
298.15	0.7011	0.256	0.0010504	1.4e-05
298.15	0.199	0.074	0.0009343	1.23e-05
298.15	3.6311	0.8859	0.0018145	2.61e-05
298.15	3.1806	0.7685	0.0016436	2.31e-05
298.15	2.8215	0.6868	0.001531	2.14e-05
298.15	2.5405	0.6166	0.0014298	1.98e-05
298.15	2.307	0.5584	0.0013745	1.89e-05
298.15	2.1146	0.5133	0.0013117	1.79e-05
298.15	1.9523	0.4757	0.0012567	1.69e-05
298.15	1.2729	0.3087	0.0011156	1.49e-05
298.15	0.9727	0.2353	0.0010578	1.4e-05
298.15	0.2952	0.0717	0.0009481	1.25e-05
303.15	1.2439	2.7076	0.0025276	3.72e-05
303.15	1.0855	2.3591	0.0021452	3.09e-05
303.15	0.9592	2.0894	0.0019081	2.7e-05
303.15	0.8628	1.8766	0.0017397	2.44e-05
303.15	0.7837	1.7014	0.0016134	2.24e-05
303.15	0.7155	1.5576	0.0015134	2.09e-05
303.15	0.6588	1.4368	0.0014419	1.98e-05
303.15	0.4262	0.9273	0.0011656	1.57e-05
303.15	0.3273	0.711	0.0010878	1.45e-05
303.15	0.0982	0.2157	0.0008821	1.16e-05
303.15	1.5722	2.2839	0.0022034	3.2e-05
303.15	1.3261	1.9252	0.0018832	2.68e-05
303.15	1.1449	1.6629	0.0016619	2.32e-05
303.15	1.0098	1.465	0.0015212	2.1e-05
303.15	0.903	1.3066	0.0014115	1.94e-05
303.15	0.8146	1.1827	0.0013399	1.83e-05
303.15	0.743	1.0797	0.0012725	1.73e-05
303.15	0.4628	0.6679	0.0010687	1.43e-05
303.15	0.3468	0.5052	0.0009972	1.33e-05
303.15	0.0995	0.1452	0.0008799	1.16e-05
303.15	2.4667	1.7834	0.002046	2.97e-05
303.15	2.1411	1.5528	0.0017787	2.54e-05
303.15	1.9011	1.3806	0.0016054	2.26e-05
303.15	1.7076	1.24	0.0014912	2.08e-05
303.15	1.5511	1.1253	0.00139	1.92e-05
303.15	1.4222	1.0292	0.0013352	1.83e-05
303.15	1.3132	0.9559	0.0012819	1.75e-05
303.15	0.8463	0.6187	0.0011	1.47e-05
303.15	0.6538	0.4788	0.0010136	1.35e-05
303.15	0.1958	0.1439	0.0008625	1.14e-05
303.15	3.0925	1.1282	0.0016824	2.41e-05
303.15	2.62	0.9478	0.0014785	2.08e-05
303.15	2.2763	0.8193	0.0013555	1.89e-05
303.15	1.9969	0.7252	0.0012725	1.74e-05
303.15	1.7829	0.6484	0.0012181	1.66e-05
303.15	1.6122	0.5878	0.0011509	1.56e-05
303.15	1.4736	0.5359	0.0011129	1.51e-05
303.15	0.9251	0.3304	0.0009803	1.31e-05
303.15	0.7011	0.256	0.0009312	1.25e-05
303.15	0.199	0.074	0.0008411	1.11e-05
303.15	3.6311	0.8859	0.0016208	2.34e-05
303.15	3.1806	0.7685	0.0014868	2.11e-05
303.15	2.8215	0.6868	0.0013718	1.93e-05
303.15	2.5405	0.6166	0.0012835	1.78e-05
303.15	2.307	0.5584	0.0012323	1.7e-05
303.15	2.1146	0.5133	0.0011821	1.62e-05
303.15	1.9523	0.4757	0.001145	1.55e-05
303.15	1.2729	0.3087	0.0010052	1.35e-05
303.15	0.9727	0.2353	0.0009502	1.27e-05
303.15	0.2952	0.0717	0.0008471	1.12e-05
308.15	1.2439	2.7076	0.0022485	3.29e-05
308.15	1.0855	2.3591	0.0019223	2.76e-05
308.15	0.9592	2.0894	0.0017079	2.42e-05
308.15	0.8628	1.8766	0.0015638	2.18e-05
308.15	0.7837	1.7014	0.0014517	2e-05
308.15	0.7155	1.5576	0.0013691	1.88e-05
308.15	0.6588	1.4368	0.001303	1.78e-05
308.15	0.4262	0.9273	0.0010551	1.41e-05
308.15	0.3273	0.711	0.0010021	1.32e-05
308.15	0.0982	0.2157	0.0008021	1.06e-05
308.15	1.5722	2.2839	0.0019801	2.86e-05
308.15	1.3261	1.9252	0.0016846	2.39e-05
308.15	1.1449	1.6629	0.0014961	2.09e-05
308.15	1.0098	1.465	0.0013696	1.89e-05
308.15	0.903	1.3066	0.0012773	1.74e-05
308.15	0.8146	1.1827	0.0012016	1.64e-05
308.15	0.743	1.0797	0.0011447	1.55e-05
308.15	0.4628	0.6679	0.0009628	1.28e-05
308.15	0.3468	0.5052	0.0008982	1.19e-05
308.15	0.0995	0.1452	0.0007691	1.03e-05
308.15	2.4667	1.7834	0.0018333	2.66e-05
308.15	2.1411	1.5528	0.0015887	2.27e-05
308.15	1.9011	1.3806	0.0014462	2.03e-05
308.15	1.7076	1.24	0.0013452	1.87e-05
308.15	1.5511	1.1253	0.00126	1.74e-05
308.15	1.4222	1.0292	0.0012087	1.65e-05
308.15	1.3132	0.9559	0.0011597	1.58e-05
308.15	0.8463	0.6187	0.0009813	1.32e-05
308.15	0.6538	0.4788	0.0009203	1.22e-05
308.15	0.1958	0.1439	0.0007782	1.03e-05
308.15	3.0925	1.1282	0.0015106	2.15e-05
308.15	2.62	0.9478	0.0013291	1.87e-05
308.15	2.2763	0.8193	0.0012251	1.7e-05
308.15	1.9969	0.7252	0.0011506	1.58e-05
308.15	1.7829	0.6484	0.0010978	1.5e-05
308.15	1.6122	0.5878	0.0010445	1.41e-05
308.15	1.4736	0.5359	0.0010087	1.36e-05
308.15	0.9251	0.3304	0.0008905	1.18e-05
308.15	0.7011	0.256	0.0008426	1.11e-05
308.15	0.199	0.074	0.0007578	1e-05
308.15	3.6311	0.8859	0.0014623	2.18e-05
308.15	3.1806	0.7685	0.0013312	1.96e-05
308.15	2.8215	0.6868	0.0012349	1.79e-05
308.15	2.5405	0.6166	0.0011591	1.66e-05
308.15	2.307	0.5584	0.0011081	1.58e-05
308.15	2.1146	0.5133	0.0010689	1.52e-05
308.15	1.9523	0.4757	0.0010331	1.46e-05
308.15	1.2729	0.3087	0.0009107	1.26e-05
308.15	0.9727	0.2353	0.0008645	1.19e-05
308.15	0.2952	0.0717	0.0007691	1.05e-05
313.15	1.2439	2.7076	0.0020216	2.94e-05
313.15	1.0855	2.3591	0.0017319	2.47e-05
313.15	0.9592	2.0894	0.0015372	2.16e-05
313.15	0.8628	1.8766	0.0014215	1.98e-05
313.15	0.7837	1.7014	0.0013252	1.83e-05
313.15	0.7155	1.5576	0.0012389	1.7e-05
313.15	0.6588	1.4368	0.0011804	1.61e-05
313.15	0.4262	0.9273	0.000957	1.28e-05
313.15	0.3273	0.711	0.0009084	1.2e-05
313.15	0.0982	0.2157	0.0007224	9.5e-06
313.15	1.5722	2.2839	0.0017917	2.58e-05
313.15	1.3261	1.9252	0.0015255	2.15e-05
313.15	1.1449	1.6629	0.001353	1.88e-05
313.15	1.0098	1.465	0.0012398	1.7e-05
313.15	0.903	1.3066	0.0011572	1.58e-05
313.15	0.8146	1.1827	0.0010931	1.48e-05
313.15	0.743	1.0797	0.0010441	1.41e-05
313.15	0.4628	0.6679	0.0008775	1.17e-05
313.15	0.3468	0.5052	0.0008148	1.08e-05
313.15	0.0995	0.1452	0.0006987	9.2e-06
313.15	2.4667	1.7834	0.0016488	2.38e-05
313.15	2.1411	1.5528	0.0014365	2.03e-05
313.15	1.9011	1.3806	0.0013102	1.83e-05
313.15	1.7076	1.24	0.0012223	1.69e-05
313.15	1.5511	1.1253	0.00114	1.56e-05
313.15	1.4222	1.0292	0.0011007	1.5e-05
313.15	1.3132	0.9559	0.0010555	1.43e-05
313.15	0.8463	0.6187	0.0008904	1.19e-05
313.15	0.6538	0.4788	0.0008359	1.11e-05
313.15	0.1958	0.1439	0.0007103	9.3e-06
313.15	3.0925	1.1282	0.0013944	1.98e-05
313.15	2.62	0.9478	0.0012087	1.69e-05
313.15	2.2763	0.8193	0.0011099	1.53e-05
313.15	1.9969	0.7252	0.0010421	1.43e-05
313.15	1.7829	0.6484	0.0009999	1.36e-05
313.15	1.6122	0.5878	0.0009526	1.29e-05
313.15	1.4736	0.5359	0.0009176	1.23e-05
313.15	0.9251	0.3304	0.0008108	1.08e-05
313.15	0.7011	0.256	0.0007749	1.02e-05
313.15	0.199	0.074	0.0006891	9e-06
313.15	3.6311	0.8859	0.0012044	1.74e-05
313.15	3.1806	0.7685	0.0011027	1.57e-05
313.15	2.8215	0.6868	0.0010288	1.44e-05
313.15	2.5405	0.6166	0.0009674	1.35e-05
313.15	2.307	0.5584	0.0009242	1.28e-05
313.15	2.1146	0.5133	0.0008913	1.23e-05
313.15	1.9523	0.4757	0.0008635	1.18e-05
313.15	1.2729	0.3087	0.0007623	1.02e-05
313.15	0.9727	0.2353	0.0007212	9.7e-06
313.15	0.2952	0.0717	0.0006387	8.5e-06
318.15	1.2439	2.7076	0.0018294	2.67e-05
318.15	1.0855	2.3591	0.0015775	2.25e-05
318.15	0.9592	2.0894	0.0014058	1.97e-05
318.15	0.8628	1.8766	0.0012889	1.8e-05
318.15	0.7837	1.7014	0.0011996	1.67e-05
318.15	0.7155	1.5576	0.0011255	1.55e-05
318.15	0.6588	1.4368	0.0010681	1.47e-05
318.15	0.4262	0.9273	0.0008764	1.17e-05
318.15	0.3273	0.711	0.0008357	1.1e-05
318.15	0.0982	0.2157	0.0006651	8.7e-06
318.15	1.5722	2.2839	0.0016253	2.35e-05
318.15	1.3261	1.9252	0.0013907	1.96e-05
318.15	1.1449	1.6629	0.0012331	1.72e-05
318.15	1.0098	1.465	0.0011321	1.57e-05
318.15	0.903	1.3066	0.0010566	1.44e-05
318.15	0.8146	1.1827	0.0009991	1.36e-05
318.15	0.743	1.0797	0.0009479	1.28e-05
318.15	0.4628	0.6679	0.0007985	1.07e-05
318.15	0.3468	0.5052	0.0007491	9.7e-06
318.15	0.0995	0.1452	0.0006451	8.5e-06
318.15	2.4667	1.7834	0.0015046	2.17e-05
318.15	2.1411	1.5528	0.0013119	1.86e-05
318.15	1.9011	1.3806	0.0011929	1.67e-05
318.15	1.7076	1.24	0.0011268	1.53e-05
318.15	1.5511	1.1253	0.00105	1.44e-05
318.15	1.4222	1.0292	0.0010077	1.38e-05
318.15	1.3132	0.9559	0.0009788	1.32e-05
318.15	0.8463	0.6187	0.0008151	1.09e-05
318.15	0.6538	0.4788	0.0007673	1.02e-05
318.15	0.1958	0.1439	0.0006495	8.6e-06
318.15	3.0925	1.1282	0.001256	1.81e-05
318.15	2.62	0.9478	0.0011053	1.53e-05
318.15	2.2763	0.8193	0.0010153	1.4e-05
318.15	1.9969	0.7252	0.0009582	1.31e-05
318.15	1.7829	0.6484	0.0009133	1.25e-05
318.15	1.6122	0.5878	0.0008711	1.18e-05
318.15	1.4736	0.5359	0.0008413	1.13e-05
318.15	0.9251	0.3304	0.0007423	9.9e-06
318.15	0.7011	0.256	0.0007067	9.4e-06
318.15	0.199	0.074	0.0006458	8.4e-06
318.15	3.6311	0.8859	0.0012044	1.66e-05
318.15	3.1806	0.7685	0.0011027	1.5e-05
318.15	2.8215	0.6868	0.0010288	1.38e-05
318.15	2.5405	0.6166	0.0009674	1.29e-05
318.15	2.307	0.5584	0.0009242	1.22e-05
318.15	2.1146	0.5133	0.0008913	1.17e-05
318.15	1.9523	0.4757	0.0008635	1.13e-05
318.15	1.2729	0.3087	0.0007623	9.8e-06
318.15	0.9727	0.2353	0.0007212	9.2e-06
318.15	0.2952	0.0717	0.0006387	8.1e-06
