Measured thermophysical data. Partition of Substituted Benzenes between Hydrophobic Ionic Liquids and Water: Evaluation of Interactions between Substituents and Ionic Liquids
Source: J. Chem. Eng. Data, 2011, 10.1021/je101215x
Compound 1: benzene, C6H6, InChI=1S/C6H6/c1-2-4-6-5-3-1/h1-6H
Compound 2: toluene, C7H8, InChI=1S/C7H8/c1-7-5-3-2-4-6-7/h2-6H,1H3
Compound 3: 1,3,5-trimethylbenzene, C9H12, InChI=1S/C9H12/c1-7-4-8(2)6-9(3)5-7/h4-6H,1-3H3
Compound 4: chlorobenzene, C6H5Cl, InChI=1S/C6H5Cl/c7-6-4-2-1-3-5-6/h1-5H
Compound 5: benzenemethanol, C7H8O, InChI=1S/C7H8O/c8-6-7-4-2-1-3-5-7/h1-5,8H,6H2
Compound 6: benzonitrile, C7H5N, InChI=1S/C7H5N/c8-6-7-4-2-1-3-5-7/h1-5H
Compound 7: acetophenone, C8H8O, InChI=1S/C8H8O/c1-7(9)8-5-3-2-4-6-8/h2-6H,1H3
Compound 8: nitrobenzene, C6H5NO2, InChI=1S/C6H5NO2/c8-7(9)6-4-2-1-3-5-6/h1-5H
Compound 9: anisole, C7H8O, InChI=1S/C7H8O/c1-8-7-5-3-2-4-6-7/h2-6H,1H3
Compound 10: 1-butyl-3-methylimidazolium hexafluorophosphate, C8H15F6N2P, InChI=1S/C8H15N2.F6P/c1-3-4-5-10-7-6-9(2)8-10;1-7(2,3,4,5)6/h6-8H,3-5H2,1-2H3;/q+1;-1, purity 98%
Compound 11: 1-butyl-1-methylpyrrolidinium bis[(trifluoromethyl)sulfonyl]imide, C11H20F6N2O4S2, InChI=1S/C9H20N.C2F6NO4S2/c1-3-4-7-10(2)8-5-6-9-10;3-1(4,5)14(10,11)9-15(12,13)2(6,7)8/h3-9H2,1-2H3;/q+1;-1
Compound 12: 1-butyl-3-methylimidazolium bis(trifluoromethylsulfonyl)imide, C10H15F6N3O4S2, InChI=1S/C8H15N2.C2F6NO4S2/c1-3-4-5-10-7-6-9(2)8-10;3-1(4,5)14(10,11)9-15(12,13)2(6,7)8/h6-8H,3-5H2,1-2H3;/q+1;-1
Compound 13: water, H2O, InChI=1S/H2O/h1H2, purity 99.9%
Compound 14: 1,2-dimethylbenzene, C8H10, InChI=1S/C8H10/c1-7-5-3-4-6-8(7)2/h3-6H,1-2H3
Compound 15: 1,4-dimethylbenzene, C8H10, InChI=1S/C8H10/c1-7-3-5-8(2)6-4-7/h3-6H,1-2H3
Compound 16: 1,3-dimethylbenzene, C8H10, InChI=1S/C8H10/c1-7-4-3-5-8(2)6-7/h3-6H,1-2H3
Compound 17: 1,2-dichlorobenzene, C6H4Cl2, InChI=1S/C6H4Cl2/c7-5-3-1-2-4-6(5)8/h1-4H
Compound 18: 1,4-dichlorobenzene, C6H4Cl2, InChI=1S/C6H4Cl2/c7-5-1-2-6(8)4-3-5/h1-4H
Compound 19: 1,3-dichlorobenzene, C6H4Cl2, InChI=1S/C6H4Cl2/c7-5-2-1-3-6(8)4-5/h1-4H

System: benzene + water + 1-butyl-3-methylimidazolium bis(trifluoromethylsulfonyl)imide; phases: Liquid mixture 1, Liquid
Property: Amount concentration (molarity), mol/dm3 of benzene (Liquid mixture 1); method: SPECTR
Amount concentration (molarity), mol/dm3 of benzene	Temperature, K	Pressure, kPa	Amount concentration (molarity), mol/dm3 of benzene	uncertainty
0	298.2	101	220.82	6.85

System: benzene + water + 1-butyl-1-methylpyrrolidinium bis[(trifluoromethyl)sulfonyl]imide; phases: Liquid mixture 1, Liquid
Property: Amount concentration (molarity), mol/dm3 of benzene (Liquid mixture 1); method: SPECTR
Amount concentration (molarity), mol/dm3 of benzene	Temperature, K	Pressure, kPa	Amount concentration (molarity), mol/dm3 of benzene	uncertainty
0	298.2	101	211.86	6.58

System: benzene + water + 1-butyl-3-methylimidazolium hexafluorophosphate; phases: Liquid mixture 1, Liquid
Property: Amount concentration (molarity), mol/dm3 of benzene (Liquid mixture 1); method: SPECTR
Amount concentration (molarity), mol/dm3 of benzene	Temperature, K	Pressure, kPa	Amount concentration (molarity), mol/dm3 of benzene	uncertainty
0	298.2	101	166.9	15.54

System: toluene + water + 1-butyl-3-methylimidazolium hexafluorophosphate; phases: Liquid mixture 1, Liquid
Property: Amount concentration (molarity), mol/dm3 of toluene (Liquid mixture 1); method: SPECTR
Amount concentration (molarity), mol/dm3 of toluene	Temperature, K	Pressure, kPa	Amount concentration (molarity), mol/dm3 of toluene	uncertainty
0	298.2	101	302.08	14.54

System: toluene + water + 1-butyl-1-methylpyrrolidinium bis[(trifluoromethyl)sulfonyl]imide; phases: Liquid mixture 1, Liquid
Property: Amount concentration (molarity), mol/dm3 of toluene (Liquid mixture 1); method: SPECTR
Amount concentration (molarity), mol/dm3 of toluene	Temperature, K	Pressure, kPa	Amount concentration (molarity), mol/dm3 of toluene	uncertainty
0	298.2	101	525.36	48.93

System: toluene + water + 1-butyl-3-methylimidazolium bis(trifluoromethylsulfonyl)imide; phases: Liquid mixture 1, Liquid
Property: Amount concentration (molarity), mol/dm3 of toluene (Liquid mixture 1); method: SPECTR
Amount concentration (molarity), mol/dm3 of toluene	Temperature, K	Pressure, kPa	Amount concentration (molarity), mol/dm3 of toluene	uncertainty
0	298.2	101	501.72	14.54

System: 1,3,5-trimethylbenzene + water + 1-butyl-3-methylimidazolium hexafluorophosphate; phases: Liquid mixture 1, Liquid
Property: Amount concentration (molarity), mol/dm3 of 1,3,5-trimethylbenzene (Liquid mixture 1); method: SPECTR
Amount concentration (molarity), mol/dm3 of 1,3,5-trimethylbenzene	Temperature, K	Pressure, kPa	Amount concentration (molarity), mol/dm3 of 1,3,5-trimethylbenzene	uncertainty
0	298.2	101	1230.59	59.27

System: 1,3,5-trimethylbenzene + water + 1-butyl-1-methylpyrrolidinium bis[(trifluoromethyl)sulfonyl]imide; phases: Liquid mixture 1, Liquid
Property: Amount concentration (molarity), mol/dm3 of 1,3,5-trimethylbenzene (Liquid mixture 1); method: SPECTR
Amount concentration (molarity), mol/dm3 of 1,3,5-trimethylbenzene	Temperature, K	Pressure, kPa	Amount concentration (molarity), mol/dm3 of 1,3,5-trimethylbenzene	uncertainty
0	298.2	101	3023.15	281.51

System: 1,3,5-trimethylbenzene + water + 1-butyl-3-methylimidazolium bis(trifluoromethylsulfonyl)imide; phases: Liquid mixture 1, Liquid
Property: Amount concentration (molarity), mol/dm3 of 1,3,5-trimethylbenzene (Liquid mixture 1); method: SPECTR
Amount concentration (molarity), mol/dm3 of 1,3,5-trimethylbenzene	Temperature, K	Pressure, kPa	Amount concentration (molarity), mol/dm3 of 1,3,5-trimethylbenzene	uncertainty
0	298.2	101	2188.34	105.41

System: chlorobenzene + water + 1-butyl-3-methylimidazolium hexafluorophosphate; phases: Liquid mixture 1, Liquid
Property: Amount concentration (molarity), mol/dm3 of chlorobenzene (Liquid mixture 1); method: SPECTR
Amount concentration (molarity), mol/dm3 of chlorobenzene	Temperature, K	Pressure, kPa	Amount concentration (molarity), mol/dm3 of chlorobenzene	uncertainty
0	298.2	101	387.34	16.97

System: chlorobenzene + water + 1-butyl-1-methylpyrrolidinium bis[(trifluoromethyl)sulfonyl]imide; phases: Liquid mixture 1, Liquid
Property: Amount concentration (molarity), mol/dm3 of chlorobenzene (Liquid mixture 1); method: SPECTR
Amount concentration (molarity), mol/dm3 of chlorobenzene	Temperature, K	Pressure, kPa	Amount concentration (molarity), mol/dm3 of chlorobenzene	uncertainty
0	298.2	101	603.2	56.17

System: chlorobenzene + water + 1-butyl-3-methylimidazolium bis(trifluoromethylsulfonyl)imide; phases: Liquid mixture 1, Liquid
Property: Amount concentration (molarity), mol/dm3 of chlorobenzene (Liquid mixture 1); method: SPECTR
Amount concentration (molarity), mol/dm3 of chlorobenzene	Temperature, K	Pressure, kPa	Amount concentration (molarity), mol/dm3 of chlorobenzene	uncertainty
0	298.2	101	660.87	31.8

System: benzenemethanol + water + 1-butyl-3-methylimidazolium hexafluorophosphate; phases: Liquid mixture 1, Liquid
Property: Amount concentration (molarity), mol/dm3 of benzenemethanol (Liquid mixture 1); method: SPECTR
Amount concentration (molarity), mol/dm3 of benzenemethanol	Pressure, kPa	Temperature, K	Amount concentration (molarity), mol/dm3 of benzenemethanol	uncertainty
0	101	298.2	6.93	0.65

System: benzenemethanol + water + 1-butyl-1-methylpyrrolidinium bis[(trifluoromethyl)sulfonyl]imide; phases: Liquid mixture 1, Liquid
Property: Amount concentration (molarity), mol/dm3 of benzenemethanol (Liquid mixture 1); method: SPECTR
Amount concentration (molarity), mol/dm3 of benzenemethanol	Pressure, kPa	Temperature, K	Amount concentration (molarity), mol/dm3 of benzenemethanol	uncertainty
0	101	298.2	7.35	0.3

System: benzenemethanol + water + 1-butyl-3-methylimidazolium bis(trifluoromethylsulfonyl)imide; phases: Liquid mixture 1, Liquid
Property: Amount concentration (molarity), mol/dm3 of benzenemethanol (Liquid mixture 1); method: SPECTR
Amount concentration (molarity), mol/dm3 of benzenemethanol	Pressure, kPa	Temperature, K	Amount concentration (molarity), mol/dm3 of benzenemethanol	uncertainty
0	101	298.2	8.73	1.21

System: benzonitrile + water + 1-butyl-3-methylimidazolium hexafluorophosphate; phases: Liquid mixture 1, Liquid
Property: Amount concentration (molarity), mol/dm3 of benzonitrile (Liquid mixture 1); method: SPECTR
Amount concentration (molarity), mol/dm3 of benzonitrile	Temperature, K	Pressure, kPa	Amount concentration (molarity), mol/dm3 of benzonitrile	uncertainty
0	298.2	101	102.33	1.59

System: benzonitrile + water + 1-butyl-1-methylpyrrolidinium bis[(trifluoromethyl)sulfonyl]imide; phases: Liquid mixture 1, Liquid
Property: Amount concentration (molarity), mol/dm3 of benzonitrile (Liquid mixture 1); method: SPECTR
Amount concentration (molarity), mol/dm3 of benzonitrile	Temperature, K	Pressure, kPa	Amount concentration (molarity), mol/dm3 of benzonitrile	uncertainty
0	298.2	101	92.05	1.83

System: benzonitrile + water + 1-butyl-3-methylimidazolium bis(trifluoromethylsulfonyl)imide; phases: Liquid mixture 1, Liquid
Property: Amount concentration (molarity), mol/dm3 of benzonitrile (Liquid mixture 1); method: SPECTR
Amount concentration (molarity), mol/dm3 of benzonitrile	Temperature, K	Pressure, kPa	Amount concentration (molarity), mol/dm3 of benzonitrile	uncertainty
0	298.2	101	97.06	2.25

System: acetophenone + water + 1-butyl-3-methylimidazolium hexafluorophosphate; phases: Liquid mixture 1, Liquid
Property: Amount concentration (molarity), mol/dm3 of acetophenone (Liquid mixture 1); method: SPECTR
Amount concentration (molarity), mol/dm3 of acetophenone	Temperature, K	Pressure, kPa	Amount concentration (molarity), mol/dm3 of acetophenone	uncertainty
0	298.2	101	83.96	3.68

System: acetophenone + water + 1-butyl-1-methylpyrrolidinium bis[(trifluoromethyl)sulfonyl]imide; phases: Liquid mixture 1, Liquid
Property: Amount concentration (molarity), mol/dm3 of acetophenone (Liquid mixture 1); method: SPECTR
Amount concentration (molarity), mol/dm3 of acetophenone	Temperature, K	Pressure, kPa	Amount concentration (molarity), mol/dm3 of acetophenone	uncertainty
0	298.2	101	82.61	1.92

System: acetophenone + water + 1-butyl-3-methylimidazolium bis(trifluoromethylsulfonyl)imide; phases: Liquid mixture 1, Liquid
Property: Amount concentration (molarity), mol/dm3 of acetophenone (Liquid mixture 1); method: SPECTR
Amount concentration (molarity), mol/dm3 of acetophenone	Temperature, K	Pressure, kPa	Amount concentration (molarity), mol/dm3 of acetophenone	uncertainty
0	298.2	101	97.83	9.11

System: nitrobenzene + water + 1-butyl-3-methylimidazolium hexafluorophosphate; phases: Liquid mixture 1, Liquid
Property: Amount concentration (molarity), mol/dm3 of nitrobenzene (Liquid mixture 1); method: SPECTR
Amount concentration (molarity), mol/dm3 of nitrobenzene	Temperature, K	Pressure, kPa	Amount concentration (molarity), mol/dm3 of nitrobenzene	uncertainty
0	298.2	101	175.8	4.74

System: nitrobenzene + water + 1-butyl-1-methylpyrrolidinium bis[(trifluoromethyl)sulfonyl]imide; phases: Liquid mixture 1, Liquid
Property: Amount concentration (molarity), mol/dm3 of nitrobenzene (Liquid mixture 1); method: SPECTR
Amount concentration (molarity), mol/dm3 of nitrobenzene	Temperature, K	Pressure, kPa	Amount concentration (molarity), mol/dm3 of nitrobenzene	uncertainty
0	298.2	101	161.09	5.68

System: nitrobenzene + water + 1-butyl-3-methylimidazolium bis(trifluoromethylsulfonyl)imide; phases: Liquid mixture 1, Liquid
Property: Amount concentration (molarity), mol/dm3 of nitrobenzene (Liquid mixture 1); method: SPECTR
Amount concentration (molarity), mol/dm3 of nitrobenzene	Temperature, K	Pressure, kPa	Amount concentration (molarity), mol/dm3 of nitrobenzene	uncertainty
0	298.2	101	180.73	4.19

System: anisole + water + 1-butyl-3-methylimidazolium hexafluorophosphate; phases: Liquid mixture 1, Liquid
Property: Amount concentration (molarity), mol/dm3 of anisole (Liquid mixture 1); method: SPECTR
Amount concentration (molarity), mol/dm3 of anisole	Temperature, K	Pressure, kPa	Amount concentration (molarity), mol/dm3 of anisole	uncertainty
0	298.2	101	165.98	5.85

System: anisole + water + 1-butyl-1-methylpyrrolidinium bis[(trifluoromethyl)sulfonyl]imide; phases: Liquid mixture 1, Liquid
Property: Amount concentration (molarity), mol/dm3 of anisole (Liquid mixture 1); method: SPECTR
Amount concentration (molarity), mol/dm3 of anisole	Temperature, K	Pressure, kPa	Amount concentration (molarity), mol/dm3 of anisole	uncertainty
0	298.2	101	214.79	4.24

System: anisole + water + 1-butyl-3-methylimidazolium bis(trifluoromethylsulfonyl)imide; phases: Liquid mixture 1, Liquid
Property: Amount concentration (molarity), mol/dm3 of anisole (Liquid mixture 1); method: SPECTR
Amount concentration (molarity), mol/dm3 of anisole	Temperature, K	Pressure, kPa	Amount concentration (molarity), mol/dm3 of anisole	uncertainty
0	298.2	101	208.99	10.06

System: 1,2-dimethylbenzene + water + 1-butyl-3-methylimidazolium hexafluorophosphate; phases: Liquid mixture 1, Liquid
Property: Amount concentration (molarity), mol/dm3 of 1,2-dimethylbenzene (Liquid mixture 1); method: SPECTR
Amount concentration (molarity), mol/dm3 of 1,2-dimethylbenzene	Temperature, K	Pressure, kPa	Amount concentration (molarity), mol/dm3 of 1,2-dimethylbenzene	uncertainty
0	298.2	101	593	20.9

System: 1,2-dimethylbenzene + water + 1-butyl-1-methylpyrrolidinium bis[(trifluoromethyl)sulfonyl]imide; phases: Liquid mixture 1, Liquid
Property: Amount concentration (molarity), mol/dm3 of 1,2-dimethylbenzene (Liquid mixture 1); method: SPECTR
Amount concentration (molarity), mol/dm3 of 1,2-dimethylbenzene	Temperature, K	Pressure, kPa	Amount concentration (molarity), mol/dm3 of 1,2-dimethylbenzene	uncertainty
0	298.2	101	1122.16	39.51

System: 1,2-dimethylbenzene + water + 1-butyl-3-methylimidazolium bis(trifluoromethylsulfonyl)imide; phases: Liquid, Liquid
Property: Amount concentration (molarity), mol/dm3 of 1,2-dimethylbenzene (Liquid); method: SPECTR
Amount concentration (molarity), mol/dm3 of 1,2-dimethylbenzene	Pressure, kPa	Temperature, K	Amount concentration (molarity), mol/dm3 of 1,2-dimethylbenzene	uncertainty
0	101	298.2	1116.91	25.94

System: 1,4-dimethylbenzene + water + 1-butyl-3-methylimidazolium hexafluorophosphate; phases: Liquid mixture 1, Liquid
Property: Amount concentration (molarity), mol/dm3 of 1,4-dimethylbenzene (Liquid mixture 1); method: SPECTR
Amount concentration (molarity), mol/dm3 of 1,4-dimethylbenzene	Temperature, K	Pressure, kPa	Amount concentration (molarity), mol/dm3 of 1,4-dimethylbenzene	uncertainty
0	298.2	101	602.72	29.04

System: 1,4-dimethylbenzene + water + 1-butyl-1-methylpyrrolidinium bis[(trifluoromethyl)sulfonyl]imide; phases: Liquid mixture 1, Liquid
Property: Amount concentration (molarity), mol/dm3 of 1,4-dimethylbenzene (Liquid mixture 1); method: SPECTR
Amount concentration (molarity), mol/dm3 of 1,4-dimethylbenzene	Temperature, K	Pressure, kPa	Amount concentration (molarity), mol/dm3 of 1,4-dimethylbenzene	uncertainty
0	298.2	101	1122.32	54.06

System: 1,4-dimethylbenzene + water + 1-butyl-3-methylimidazolium bis(trifluoromethylsulfonyl)imide; phases: Liquid mixture 1, Liquid
Property: Amount concentration (molarity), mol/dm3 of 1,4-dimethylbenzene (Liquid mixture 1); method: SPECTR
Amount concentration (molarity), mol/dm3 of 1,4-dimethylbenzene	Temperature, K	Pressure, kPa	Amount concentration (molarity), mol/dm3 of 1,4-dimethylbenzene	uncertainty
0	298.2	101	1166.86	27.1

System: 1,3-dimethylbenzene + water + 1-butyl-3-methylimidazolium hexafluorophosphate; phases: Liquid mixture 1, Liquid
Property: Amount concentration (molarity), mol/dm3 of 1,3-dimethylbenzene (Liquid mixture 1); method: SPECTR
Amount concentration (molarity), mol/dm3 of 1,3-dimethylbenzene	Temperature, K	Pressure, kPa	Amount concentration (molarity), mol/dm3 of 1,3-dimethylbenzene	uncertainty
0	298.2	101	595.74	20.97

System: 1,3-dimethylbenzene + water + 1-butyl-1-methylpyrrolidinium bis[(trifluoromethyl)sulfonyl]imide; phases: Liquid mixture 1, Liquid
Property: Amount concentration (molarity), mol/dm3 of 1,3-dimethylbenzene (Liquid mixture 1); method: SPECTR
Amount concentration (molarity), mol/dm3 of 1,3-dimethylbenzene	Temperature, K	Pressure, kPa	Amount concentration (molarity), mol/dm3 of 1,3-dimethylbenzene	uncertainty
0	298.2	101	1172.35	41.26

System: 1,3-dimethylbenzene + water + 1-butyl-3-methylimidazolium bis(trifluoromethylsulfonyl)imide; phases: Liquid mixture 1, Liquid
Property: Amount concentration (molarity), mol/dm3 of 1,3-dimethylbenzene (Liquid mixture 1); method: SPECTR
Amount concentration (molarity), mol/dm3 of 1,3-dimethylbenzene	Temperature, K	Pressure, kPa	Amount concentration (molarity), mol/dm3 of 1,3-dimethylbenzene	uncertainty
0	298.2	101	1148.46	55.32

System: 1,2-dichlorobenzene + water + 1-butyl-3-methylimidazolium hexafluorophosphate; phases: Liquid mixture 1, Liquid
Property: Amount concentration (molarity), mol/dm3 of 1,2-dichlorobenzene (Liquid mixture 1); method: SPECTR
Amount concentration (molarity), mol/dm3 of 1,2-dichlorobenzene	Temperature, K	Pressure, kPa	Amount concentration (molarity), mol/dm3 of 1,2-dichlorobenzene	uncertainty
0	298.2	101	912.98	122.14

System: 1,2-dichlorobenzene + water + 1-butyl-1-methylpyrrolidinium bis[(trifluoromethyl)sulfonyl]imide; phases: Liquid mixture 1, Liquid
Property: Amount concentration (molarity), mol/dm3 of 1,2-dichlorobenzene (Liquid mixture 1); method: SPECTR
Amount concentration (molarity), mol/dm3 of 1,2-dichlorobenzene	Temperature, K	Pressure, kPa	Amount concentration (molarity), mol/dm3 of 1,2-dichlorobenzene	uncertainty
0	298.2	101	1319.65	122.89

System: 1,2-dichlorobenzene + water + 1-butyl-3-methylimidazolium bis(trifluoromethylsulfonyl)imide; phases: Liquid mixture 1, Liquid
Property: Amount concentration (molarity), mol/dm3 of 1,2-dichlorobenzene (Liquid mixture 1); method: SPECTR
Amount concentration (molarity), mol/dm3 of 1,2-dichlorobenzene	Temperature, K	Pressure, kPa	Amount concentration (molarity), mol/dm3 of 1,2-dichlorobenzene	uncertainty
0	298.2	101	1586.57	147.73

System: 1,3-dichlorobenzene + water + 1-butyl-3-methylimidazolium bis(trifluoromethylsulfonyl)imide; phases: Liquid mixture 1, Liquid
Property: Amount concentration (molarity), mol/dm3 of 1,3-dichlorobenzene (Liquid mixture 1); method: SPECTR
Amount concentration (molarity), mol/dm3 of 1,3-dichlorobenzene	Temperature, K	Pressure, kPa	Amount concentration (molarity), mol/dm3 of 1,3-dichlorobenzene	uncertainty
0	298.2	101	1596.22	69.89

System: 1,3-dichlorobenzene + water + 1-butyl-1-methylpyrrolidinium bis[(trifluoromethyl)sulfonyl]imide; phases: Liquid mixture 1, Liquid
Property: Amount concentration (molarity), mol/dm3 of 1,3-dichlorobenzene (Liquid mixture 1); method: SPECTR
Amount concentration (molarity), mol/dm3 of 1,3-dichlorobenzene	Temperature, K	Pressure, kPa	Amount concentration (molarity), mol/dm3 of 1,3-dichlorobenzene	uncertainty
0	298.2	101	1122.32	54.06

System: 1,3-dichlorobenzene + water + 1-butyl-3-methylimidazolium hexafluorophosphate; phases: Liquid mixture 1, Liquid
Property: Amount concentration (molarity), mol/dm3 of 1,3-dichlorobenzene (Liquid mixture 1); method: SPECTR
Amount concentration (molarity), mol/dm3 of 1,3-dichlorobenzene	Temperature, K	Pressure, kPa	Amount concentration (molarity), mol/dm3 of 1,3-dichlorobenzene	uncertainty
0	298.2	101	758.78	36.55

System: 1,4-dichlorobenzene + water + 1-butyl-3-methylimidazolium bis(trifluoromethylsulfonyl)imide; phases: Liquid mixture 1, Liquid
Property: Amount concentration (molarity), mol/dm3 of 1,4-dichlorobenzene (Liquid mixture 1); method: SPECTR
Amount concentration (molarity), mol/dm3 of 1,4-dichlorobenzene	Pressure, kPa	Temperature, K	Amount concentration (molarity), mol/dm3 of 1,4-dichlorobenzene	uncertainty
0	101	298.2	1380.68	60.46

System: 1,4-dichlorobenzene + water + 1-butyl-1-methylpyrrolidinium bis[(trifluoromethyl)sulfonyl]imide; phases: Liquid mixture 1, Liquid
Property: Amount concentration (molarity), mol/dm3 of 1,4-dichlorobenzene (Liquid mixture 1); method: SPECTR
Amount concentration (molarity), mol/dm3 of 1,4-dichlorobenzene	Pressure, kPa	Temperature, K	Amount concentration (molarity), mol/dm3 of 1,4-dichlorobenzene	uncertainty
0	101	298.2	1224.88	53.63

System: 1,4-dichlorobenzene + water + 1-butyl-3-methylimidazolium hexafluorophosphate; phases: Liquid mixture 1, Liquid
Property: Amount concentration (molarity), mol/dm3 of 1,4-dichlorobenzene (Liquid mixture 1); method: SPECTR
Amount concentration (molarity), mol/dm3 of 1,4-dichlorobenzene	Pressure, kPa	Temperature, K	Amount concentration (molarity), mol/dm3 of 1,4-dichlorobenzene	uncertainty
0	101	298.2	833.79	29.35
