Measured thermophysical data. Vapor Pressure of Zirconium Tetrafluoride
Source: J. Chem. Eng. Data, 2011, 10.1021/je100972k
Compound 1: zirconium(IV) fluoride, F4Zr, InChI=1S/4FH.Zr/h4*1H;/q;;;;+4/p-4

System: zirconium(IV) fluoride; phases: Crystal, Gas
Property: Vapor or sublimation pressure, kPa (Crystal); method: TOREFF:UFactor:5
Temperature, K	Vapor or sublimation pressure, kPa	uncertainty
685	8.13e-06	2.08e-06
689	8.13e-06	2.08e-06
690	1.05e-05	2.7e-06
693	1.05e-05	2.7e-06
693	1.62e-05	4.1e-06
698.5	1.62e-05	4.1e-06
699	1.55e-05	3.9e-06
699	2.4e-05	6.1e-06
704	1.2e-05	3.1e-06
705	3.24e-05	8.2e-06
706.5	2.4e-05	6.1e-06
707	3.09e-05	7.8e-06
709	3.09e-05	7.8e-06
709.5	2.82e-05	7.1e-06
711	4.9e-05	1.23e-05
711.5	1.62e-05	4.1e-06
712.5	2.4e-05	6.1e-06
713	4.17e-05	1.05e-05
713.5	3.24e-05	8.2e-06
715	2.04e-05	5.2e-06
717	6.46e-05	1.62e-05
717	2.4e-05	6.1e-06
719	3.63e-05	9.1e-06
720	4.9e-05	1.23e-05
720	3.47e-05	8.7e-06
720	2.82e-05	7.1e-06
720.5	5.25e-05	1.32e-05
721	3.24e-05	8.2e-06
723.5	4.9e-05	1.23e-05
724	6.46e-05	1.62e-05
724	4.68e-05	1.18e-05
724.5	4.68e-05	1.18e-05
725.5	4.07e-05	1.02e-05
725.5	3.63e-05	9.1e-06
726.5	4.07e-05	1.02e-05
728.5	9.33e-05	2.34e-05
728.5	0.000112	2.8e-05
729	6.46e-05	1.62e-05
729.5	8.91e-05	2.23e-05
730	8.32e-05	2.09e-05
730	6.92e-05	1.74e-05
731.5	5.62e-05	1.41e-05
731.5	4.9e-05	1.23e-05
732	6.92e-05	1.74e-05
732	5.62e-05	1.41e-05
734.5	0.000112	2.8e-05
735	8.91e-05	2.23e-05
735.5	0.000162	4.1e-05
736	0.00012	3e-05
736	9.33e-05	2.34e-05
737	0.000117	2.9e-05
737	8.13e-05	2.04e-05
737	6.46e-05	1.62e-05
737.5	0.000145	3.6e-05
737.5	7.24e-05	1.82e-05
739.5	0.000135	3.4e-05
740.5	0.000155	3.9e-05
740.5	9.33e-05	2.34e-05
741	0.000112	2.8e-05
742	0.000219	5.5e-05
743	0.000141	3.5e-05
743	0.000105	2.6e-05
743	8.91e-05	2.23e-05
743.5	0.000162	4.1e-05
743.5	9.77e-05	2.45e-05
746.5	0.000224	5.6e-05
746.5	0.000209	5.2e-05
746.5	0.000204	5.1e-05
748	0.000162	4.1e-05
748.5	0.000282	7.1e-05
748.5	0.00012	3e-05
749	0.000151	3.8e-05
749	0.000129	3.2e-05
750	0.000145	3.6e-05
750.5	0.000209	5.2e-05
751	0.00024	6e-05
751.5	0.000251	6.3e-05
753	0.000209	5.2e-05
753	0.000158	4e-05
754	0.000324	8.1e-05
754	0.000209	5.2e-05
754.5	0.000372	9.3e-05
754.5	0.00017	4.3e-05
755	0.000178	4.5e-05
756	0.000288	7.2e-05
756	0.000417	0.000104
756	0.000302	7.6e-05
756.5	0.000302	7.6e-05
757	0.000302	7.6e-05
757.5	0.000251	6.3e-05
758	0.000195	4.9e-05
759	0.000257	6.4e-05
760	0.000234	5.9e-05
760	0.000219	5.5e-05
760.5	0.000363	9.1e-05
763	0.000407	0.000102
763	0.00055	0.000138
763	0.000513	0.000128
763	0.000316	7.9e-05
764	0.000234	5.9e-05
765	0.000347	8.7e-05
765.5	0.000302	7.6e-05
766	0.000501	0.000125
766	0.000603	0.000151
766	0.000468	0.000117
766	0.000372	9.3e-05
766	0.000282	7.1e-05
766.5	0.000457	0.000114
769	0.000741	0.000185
769	0.000437	0.000109
770.5	0.000447	0.000112
771.5	0.000363	9.1e-05
772	0.000537	0.000134
772	0.000407	0.000102
773	0.000417	0.000104
774	0.000891	0.000223
774	0.000427	0.000107
775	0.000646	0.000162
777.5	0.000603	0.000151
778	0.000525	0.000131
778	0.000501	0.000125
779	0.000724	0.000181
781	0.00055	0.000138
783	0.000646	0.000162
783.5	0.000933	0.000233
784	0.000813	0.000203
785	0.000646	0.000162
786	0.001	0.00025
788	0.00145	0.00036
789	0.000813	0.000203
789.5	0.00102	0.00026
791	0.000977	0.000244
792	0.00129	0.00032
793	0.00129	0.00032
794	0.00105	0.00026
798	0.00148	0.00037
798	0.00123	0.00031
798	0.00126	0.00032
799	0.00234	0.00059
801	0.00186	0.00047
801	0.0017	0.00043
802	0.00155	0.00039
803	0.00166	0.00042
803.5	0.00186	0.00047
807	0.00209	0.00052
808	0.00295	0.00074
810.5	0.0024	0.0006
811	0.00275	0.00069
811	0.00209	0.00052
815	0.00295	0.00074
818	0.00389	0.00097
821	0.0038	0.00095
823	0.00617	0.00154
828	0.00562	0.00141
