Measured thermophysical data. Volumetric and Viscometric Behavior of the Binary System: (Hexan-1-ol + p-Xylene)
Source: J. Chem. Eng. Data, 2010, 10.1021/je100390b
Compound 1: hexan-1-ol, C6H14O, InChI=1S/C6H14O/c1-2-3-4-5-6-7/h7H,2-6H2,1H3, purity 98%
Compound 2: 1,4-dimethylbenzene, C8H10, InChI=1S/C8H10/c1-7-3-5-8(2)6-4-7/h3-6H,1-2H3, purity 98%

System: hexan-1-ol; phases: Liquid
Fixed: Pressure, kPa = 101
Property: Viscosity, Pa*s (Liquid); method: Capillary tube (Ostwald; Ubbelohde) method
Temperature, K	Viscosity, Pa*s	uncertainty
303.15	0.003829	4.5e-05
313.15	0.002879	3.5e-05
323.15	0.002215	2.8e-05

System: hexan-1-ol; phases: Liquid
Fixed: Pressure, kPa = 101
Property: Mass density, kg/m3 (Liquid); method: Pycnometric method
Temperature, K	Mass density, kg/m3	uncertainty
303.15	811.9	0.8
313.15	804.6	0.8
323.15	797.5	0.8

System: 1,4-dimethylbenzene; phases: Liquid
Fixed: Pressure, kPa = 101
Property: Viscosity, Pa*s (Liquid); method: Capillary tube (Ostwald; Ubbelohde) method
Temperature, K	Viscosity, Pa*s	uncertainty
303.15	0.000573	1.2e-05
313.15	0.000512	1.2e-05
323.15	0.000461	1.1e-05

System: 1,4-dimethylbenzene; phases: Liquid
Fixed: Pressure, kPa = 101
Property: Mass density, kg/m3 (Liquid); method: Pycnometric method
Temperature, K	Mass density, kg/m3	uncertainty
303.15	852.4	0.8
313.15	843.9	0.8
323.15	835.2	0.9

System: 1,4-dimethylbenzene + hexan-1-ol; phases: Liquid
Fixed: Pressure, kPa = 101
Property: Viscosity, Pa*s (Liquid); method: Capillary tube (Ostwald; Ubbelohde) method
Temperature, K	Mole fraction of hexan-1-ol	Viscosity, Pa*s	uncertainty
303.15	0	0.000573	1.2e-05
303.15	0.0999	0.000616	1.2e-05
303.15	0.1999	0.000693	1.3e-05
303.15	0.2999	0.000799	1.4e-05
303.15	0.4001	0.000946	1.5e-05
303.15	0.4997	0.001148	1.7e-05
303.15	0.6	0.00142	1.9e-05
303.15	0.7	0.001801	2.3e-05
303.15	0.8	0.002323	2.9e-05
303.15	0.8999	0.003004	3.6e-05
303.15	1	0.003829	4.5e-05
313.15	0	0.000512	1.2e-05
313.15	0.0999	0.000544	1.2e-05
313.15	0.1999	0.000605	1.2e-05
313.15	0.2999	0.000689	1.3e-05
313.15	0.4001	0.000802	1.4e-05
313.15	0.4997	0.000956	1.5e-05
313.15	0.6	0.001156	1.7e-05
313.15	0.7	0.001433	1.9e-05
313.15	0.8	0.001806	2.3e-05
313.15	0.8999	0.002295	2.8e-05
313.15	1	0.002879	3.5e-05
323.15	0	0.000461	1.1e-05
323.15	0.0999	0.000485	1.2e-05
323.15	0.1999	0.000533	1.2e-05
323.15	0.2999	0.0006	1.2e-05
323.15	0.4001	0.000689	1.3e-05
323.15	0.4997	0.000807	1.4e-05
323.15	0.6	0.000958	1.5e-05
323.15	0.7	0.001161	1.7e-05
323.15	0.8	0.001433	1.9e-05
323.15	0.8999	0.001788	2.3e-05
323.15	1	0.002215	2.8e-05

System: 1,4-dimethylbenzene + hexan-1-ol; phases: Liquid
Fixed: Pressure, kPa = 101
Property: Mass density, kg/m3 (Liquid); method: Pycnometric method
Temperature, K	Mole fraction of hexan-1-ol	Mass density, kg/m3	uncertainty
303.15	0	852.4	0.8
303.15	0.0999	847.8	0.8
303.15	0.1999	843.5	0.8
303.15	0.2999	839.4	0.8
303.15	0.4001	835.4	0.8
303.15	0.4997	831.4	0.8
303.15	0.6	827.5	0.8
303.15	0.7	823.6	0.8
303.15	0.8	819.7	0.8
303.15	0.8999	815.8	0.8
303.15	1	811.9	0.8
313.15	0	843.9	0.8
313.15	0.0999	839.3	0.8
313.15	0.1999	835.1	0.8
313.15	0.2999	831.1	0.8
313.15	0.4001	827.2	0.8
313.15	0.4997	823.3	0.8
313.15	0.6	819.5	0.8
313.15	0.7	815.7	0.8
313.15	0.8	812	0.8
313.15	0.8999	808.3	0.8
313.15	1	804.6	0.8
323.15	0	835.2	0.9
323.15	0.0999	830.5	0.8
323.15	0.1999	826.4	0.8
323.15	0.2999	822.6	0.8
323.15	0.4001	818.9	0.8
323.15	0.4997	815.2	0.8
323.15	0.6	811.6	0.8
323.15	0.7	808	0.8
323.15	0.8	804.4	0.8
323.15	0.8999	800.9	0.8
323.15	1	797.5	0.8
