Measured thermophysical data. Miscibility Phenomena in Systems Containing Polyhydroxy Alcohols and Ionic Liquids
Source: J. Chem. Eng. Data, 2011, 10.1021/je101269p
Compound 1: 1,2-butanediol, C4H10O2, InChI=1S/C4H10O2/c1-2-4(6)3-5/h4-6H,2-3H2,1H3, purity 98%
Compound 2: 1,3-butanediol, C4H10O2, InChI=1S/C4H10O2/c1-4(6)2-3-5/h4-6H,2-3H2,1H3, purity 99%
Compound 3: 1,4-butanediol, C4H10O2, InChI=1S/C4H10O2/c5-3-1-2-4-6/h5-6H,1-4H2, purity 99%
Compound 4: 1-ethyl-3-methylimidazolium bis((trifluoromethyl)sulfonyl)imide, C8H11F6N3O4S2, InChI=1S/C6H11N2.C2F6NO4S2/c1-3-8-5-4-7(2)6-8;3-1(4,5)14(10,11)9-15(12,13)2(6,7)8/h4-6H,3H2,1-2H3;/q+1;-1, purity 98%
Compound 5: 1-butyl-3-methylimidazolium bis(trifluoromethylsulfonyl)imide, C10H15F6N3O4S2, InChI=1S/C8H15N2.C2F6NO4S2/c1-3-4-5-10-7-6-9(2)8-10;3-1(4,5)14(10,11)9-15(12,13)2(6,7)8/h6-8H,3-5H2,1-2H3;/q+1;-1, purity 98%
Compound 6: 1-octyl-3-methylimidazolium bis[(trifluoromethyl)sulfonyl]imide, C14H23F6N3O4S2, InChI=1S/C12H23N2.C2F6NO4S2/c1-3-4-5-6-7-8-9-14-11-10-13(2)12-14;3-1(4,5)14(10,11)9-15(12,13)2(6,7)8/h10-12H,3-9H2,1-2H3;/q+1;-1, purity 98%
Compound 7: 1-decyl-3-methylimidazolium bis(trifluoromethylsulfonyl)amide, C16H27F6N3O4S2, InChI=1S/C14H27N2.C2F6NO4S2/c1-3-4-5-6-7-8-9-10-11-16-13-12-15(2)14-16;3-1(4,5)14(10,11)9-15(12,13)2(6,7)8/h12-14H,3-11H2,1-2H3;/q+1;-1, purity 98%

System: 1,2-butanediol + 1-ethyl-3-methylimidazolium bis((trifluoromethyl)sulfonyl)imide; phases: Liquid mixture 1, Liquid mixture 2
Fixed: Pressure, kPa = 101
Property: Liquid-liquid equilibrium temperature, K (Liquid mixture 1); method: VISOBS:UFactor:4
Mole fraction of 1-ethyl-3-methylimidazolium bis((trifluoromethyl)sulfonyl)imide	Liquid-liquid equilibrium temperature, K	uncertainty
0.1292	298.36	0.62
0.1383	298.78	0.62
0.154	299.77	0.62
0.1695	300.39	0.62
0.2161	302.7	0.62
0.2226	302.82	0.62
0.2567	303.26	0.62
0.2614	303.13	0.62
0.2837	302.5	0.62
0.3173	300.38	0.62
0.3625	298.17	0.62
0.3674	297.94	0.62
0.4074	295.91	0.62

System: 1,3-butanediol + 1-ethyl-3-methylimidazolium bis((trifluoromethyl)sulfonyl)imide; phases: Liquid mixture 1, Liquid mixture 2
Fixed: Pressure, kPa = 101
Property: Liquid-liquid equilibrium temperature, K (Liquid mixture 1); method: VISOBS:UFactor:4
Mole fraction of 1-ethyl-3-methylimidazolium bis((trifluoromethyl)sulfonyl)imide	Liquid-liquid equilibrium temperature, K	uncertainty
0.0277	306.36	0.62
0.0901	317.33	0.62
0.161	323.41	0.62
0.1891	325.36	0.62
0.2095	326.13	0.62
0.2305	326.75	0.62
0.2621	326.42	0.62
0.3226	325.81	0.62
0.3561	324.04	0.62
0.394	322.43	0.62
0.4256	320.91	0.62
0.4744	318.84	0.62
0.5364	314.33	0.62
0.5533	313.25	0.62
0.6608	303.29	0.62
0.6785	301.51	0.62
0.6932	300.14	0.62

System: 1,4-butanediol + 1-ethyl-3-methylimidazolium bis((trifluoromethyl)sulfonyl)imide; phases: Liquid mixture 1, Liquid mixture 2
Fixed: Pressure, kPa = 101
Property: Liquid-liquid equilibrium temperature, K (Liquid mixture 1); method: VISOBS:UFactor:4
Mole fraction of 1-ethyl-3-methylimidazolium bis((trifluoromethyl)sulfonyl)imide	Liquid-liquid equilibrium temperature, K	uncertainty
0.0253	303.73	0.62
0.0531	337.76	0.62
0.0706	340.79	0.62
0.1201	343.48	0.62
0.1565	344.59	0.62
0.1793	344.77	0.62
0.1977	345.11	0.62
0.2275	345.39	0.62
0.2548	345.73	0.62
0.2894	345.8	0.62
0.317	345.88	0.62
0.3893	345.81	0.62
0.489	341.45	0.62
0.553	335.09	0.62
0.5829	332.39	0.62
0.6461	327.78	0.62
0.6769	324.77	0.62
0.7509	317.3	0.62
0.7706	314.96	0.62
0.8344	304.58	0.62

System: 1,2-butanediol + 1-butyl-3-methylimidazolium bis(trifluoromethylsulfonyl)imide; phases: Liquid mixture 1, Liquid mixture 2
Fixed: Pressure, kPa = 101
Property: Liquid-liquid equilibrium temperature, K (Liquid mixture 1); method: VISOBS:UFactor:12
Mole fraction of 1-butyl-3-methylimidazolium bis(trifluoromethylsulfonyl)imide	Liquid-liquid equilibrium temperature, K	uncertainty
0.0241	366.87	1.86
0.1513	407.46	1.86
0.2505	436.63	1.86
0.331	454.58	1.86
0.4156	458.82	1.86
0.4704	455.6	1.86
0.5106	451.79	1.86
0.5965	430.47	1.86
0.6344	416.49	1.86
0.6649	404.36	1.86
0.7576	375.58	1.86
0.8361	355.67	1.86
0.9204	328.38	1.86

System: 1,2-butanediol + 1-octyl-3-methylimidazolium bis[(trifluoromethyl)sulfonyl]imide; phases: Liquid mixture 1, Liquid mixture 2
Fixed: Pressure, kPa = 101
Property: Liquid-liquid equilibrium temperature, K (Liquid mixture 1); method: VISOBS:UFactor:12
Mole fraction of 1-octyl-3-methylimidazolium bis[(trifluoromethyl)sulfonyl]imide	Liquid-liquid equilibrium temperature, K	uncertainty
0.0499	303.19	1.86
0.1046	342.83	1.86
0.1315	361.27	1.86
0.16	382.82	1.86
0.2011	409.03	1.86
0.2732	427.97	1.86
0.3414	439.19	1.86
0.401	441.3	1.86
0.4447	437.92	1.86
0.504	430.01	1.86
0.5735	413.04	1.86
0.6354	380.92	1.86
0.7326	320.39	1.86

System: 1,2-butanediol + 1-decyl-3-methylimidazolium bis(trifluoromethylsulfonyl)amide; phases: Liquid mixture 1, Liquid mixture 2
Fixed: Pressure, kPa = 101
Property: Liquid-liquid equilibrium temperature, K (Liquid mixture 1); method: VISOBS:UFactor:16
Mole fraction of 1-decyl-3-methylimidazolium bis(trifluoromethylsulfonyl)amide	Liquid-liquid equilibrium temperature, K	uncertainty
0.0731	295.27	2.48
0.0978	316.69	2.48
0.1565	340.49	2.48
0.2171	371.9	2.48
0.2706	382.93	2.48
0.3762	388.63	2.48
0.4756	374.01	2.48
0.5422	360.58	2.48
0.5634	352.82	2.48
0.6398	335.91	2.48
0.7021	321.05	2.48
0.7666	303.56	2.48
