Measured thermophysical data. Hydrogen Solubilities in the IUPAC Ionic Liquid 1-Hexyl-3-methylimidazolium Bis(Trifluoromethylsulfonyl)Imide
Source: J. Chem. Eng. Data, 2011, 10.1021/je101060k
Compound 1: 1-hexyl-3-methylimidazolium bis[(trifluoromethyl)sulfonyl]imide, C12H19F6N3O4S2, InChI=1S/C10H19N2.C2F6NO4S2/c1-3-4-5-6-7-12-9-8-11(2)10-12;3-1(4,5)14(10,11)9-15(12,13)2(6,7)8/h8-10H,3-7H2,1-2H3;/q+1;-1, purity 99.5%
Compound 2: hydrogen, H2, InChI=1S/H2/h1H, purity 99.999%

System: hydrogen + 1-hexyl-3-methylimidazolium bis[(trifluoromethyl)sulfonyl]imide; phases: Gas, Liquid
Property: Vapor or sublimation pressure, kPa (Gas); method: CCELL:UFactor:4
Mole fraction of hydrogen	Temperature, K	Vapor or sublimation pressure, kPa	uncertainty
0.0328	300.67	6119	399
0.0328	308.21	5899	387
0.0328	315.67	5699	370
0.0328	323.15	5509	366
0.0328	323.22	5509	366
0.0328	330.65	5338	333
0.0328	330.7	5339	333
0.0328	338.2	5098	323
0.0328	338.21	5119	322
0.0328	345.69	5009	305
0.0328	345.74	4999	305
0.0328	353.23	4839	298
0.0328	353.25	4868	296
0.0328	360.77	4748	284
0.0328	368.23	4579	278
0.0328	368.26	4598	274
0.0328	338.2	5169	319
0.0427	300.88	8053	402
0.0427	308.36	7783	384
0.0427	315.9	7493	370
0.0427	323.31	7289	365
0.0427	323.37	7168	370
0.0427	323.43	7163	385
0.0427	330.85	6928	355
0.0427	330.87	7044	356
0.0427	338.4	6713	340
0.0427	338.41	6803	340
0.0427	345.85	6463	338
0.0427	345.87	6503	338
0.0427	345.88	6583	338
0.0427	353.38	6303	314
0.0427	353.4	6373	315
0.0427	360.89	6103	311
0.0427	360.9	6173	312
0.0427	368.36	5923	304
0.0427	368.41	5993	304
0.0521	300.75	9873	428
0.0521	308.35	9483	405
0.0521	315.94	9143	394
0.0521	323.34	8853	393
0.0521	323.37	8969	406
0.0521	330.9	8664	350
0.0521	338.3	8403	338
0.0521	338.37	8293	338
0.0521	345.9	8163	332
0.0521	353.35	7913	350
0.0521	353.38	7803	349
0.0521	360.88	7663	342
0.0521	368.39	7443	328
0.0612	300.74	11853	459
0.0612	308.22	11373	444
0.0612	315.73	10993	416
0.0612	323.19	10473	410
0.0612	323.21	10782	433
0.0612	330.67	10422	406
0.0612	330.71	10133	385
0.0612	338.19	10072	352
0.0612	338.22	9793	332
0.0612	345.73	9513	318
0.0612	353.17	9233	310
0.0612	353.22	9414	323
0.0612	360.73	8943	317
0.0612	360.75	9144	332
0.0612	368.25	8703	296
0.0612	368.27	8904	339
0.0612	323.21	10592	419
0.0612	345.73	9724	333
