Measured thermophysical data. Effect of Temperature on the Process of Hydrophobic Hydration. Part II. Hydrophobic Hydration of 15-Crown-5 and 18-Crown-6 Ethers
Source: J. Chem. Eng. Data, 2010, 10.1021/je100700z
Compound 1: 1,4,7,10,13-pentaoxacyclopentadecane, C10H20O5, InChI=1S/C10H20O5/c1-2-12-5-6-14-9-10-15-8-7-13-4-3-11-1/h1-10H2, purity 98%
Compound 2: 1,4,7,10,13,16-hexaoxacyclooctadecane, C12H24O6, InChI=1S/C12H24O6/c1-2-14-5-6-16-9-10-18-12-11-17-8-7-15-4-3-13-1/h1-12H2, purity 99%
Compound 3: water, H2O, InChI=1S/H2O/h1H2
Compound 4: dimethylformamide, C3H7NO, InChI=1S/C3H7NO/c1-4(2)3-5/h3H,1-2H3, purity 99%

System: dimethylformamide + water + 1,4,7,10,13-pentaoxacyclopentadecane; phases: Liquid
Fixed: Pressure, kPa = 101
Fixed: Mole fraction of 1,4,7,10,13-pentaoxacyclopentadecane = 0
Property: Molar enthalpy of solution, kJ/mol (Liquid); method: ISOPERIBOL
Temperature, K	Solvent: Mole fraction of water	Molar enthalpy of solution, kJ/mol	uncertainty
293.15	0	-0.48	0.04
293.15	0.1	0.39	0.06
293.15	0.2	1.49	0.04
293.15	0.3	2.46	0.06
293.15	0.4	3.26	0.08
293.15	0.5	3.11	0.06
293.15	0.6	0.98	0.04
293.15	0.7	-4.45	0.07
293.15	0.8	-13.73	0.11
293.15	0.9	-25.79	0.2
293.15	0.92	-28.01	0.22
293.15	0.94	-30.86	0.24
293.15	0.96	-34.06	0.26
293.15	0.98	-37.5	0.29
293.15	1	-41.24	0.32
298.15	0	-0.38	0.07
298.15	0.1	0.48	0.04
298.15	0.2	1.56	0.06
298.15	0.3	2.53	0.04
298.15	0.4	3.33	0.05
298.15	0.5	3.29	0.06
298.15	0.6	1.26	0.04
298.15	0.7	-3.98	0.05
298.15	0.8	-13.12	0.11
298.15	0.9	-24.86	0.19
298.15	0.92	-27.02	0.21
298.15	0.94	-29.8	0.23
298.15	0.96	-32.87	0.25
298.15	0.98	-36.18	0.28
298.15	1	-39.8	0.31
303.15	0	-0.24	0.04
303.15	0.1	0.55	0.04
303.15	0.2	1.64	0.06
303.15	0.3	2.59	0.04
303.15	0.4	3.41	0.06
303.15	0.5	3.49	0.05
303.15	0.6	1.56	0.04
303.15	0.7	-3.43	0.05
303.15	0.8	-12.47	0.1
303.15	0.9	-23.88	0.19
303.15	0.92	-26.04	0.2
303.15	0.94	-28.77	0.22
303.15	0.96	-31.69	0.25
303.15	0.98	-34.89	0.27
303.15	1	-38.37	0.3
308.15	0	-0.1	0.04
308.15	0.1	0.69	0.06
308.15	0.2	1.73	0.06
308.15	0.3	2.7	0.04
308.15	0.4	3.48	0.05
308.15	0.5	3.61	0.07
308.15	0.6	1.85	0.04
308.15	0.7	-3.06	0.05
308.15	0.8	-11.78	0.09
308.15	0.9	-22.88	0.18
308.15	0.92	-24.94	0.19
308.15	0.94	-27.55	0.21
308.15	0.96	-30.49	0.24
308.15	0.98	-33.64	0.26
308.15	1	-37.03	0.29

System: dimethylformamide + water + 1,4,7,10,13,16-hexaoxacyclooctadecane; phases: Liquid
Fixed: Pressure, kPa = 101
Fixed: Mole fraction of 1,4,7,10,13,16-hexaoxacyclooctadecane = 0
Property: Molar enthalpy of solution, kJ/mol (Liquid); method: ISOPERIBOL
Temperature, K	Solvent: Mole fraction of water	Molar enthalpy of solution, kJ/mol	uncertainty
293.15	0	32.07	0.25
293.15	0.1	32.56	0.25
293.15	0.2	33.02	0.26
293.15	0.3	33.59	0.26
293.15	0.4	33.1	0.26
293.15	0.5	31.73	0.25
293.15	0.6	27.69	0.21
293.15	0.7	20.12	0.16
293.15	0.8	8.67	0.08
293.15	0.9	-5.53	0.06
293.15	0.92	-8.7	0.1
293.15	0.94	-11.79	0.1
293.15	0.96	-15.31	0.12
293.15	0.98	-19.19	0.16
293.15	1	-23.65	0.18
298.15	0	33.66	0.26
298.15	0.1	34.08	0.26
298.15	0.2	34.63	0.27
298.15	0.3	35.12	0.27
298.15	0.4	34.68	0.27
298.15	0.5	33.24	0.26
298.15	0.6	29.06	0.23
298.15	0.7	21.76	0.17
298.15	0.8	10.28	0.11
298.15	0.9	-3.93	0.05
298.15	0.92	-7.16	0.1
298.15	0.94	-10.4	0.08
298.15	0.96	-13.71	0.13
298.15	0.98	-17.31	0.14
298.15	1	-21.58	0.17
303.15	0	35.05	0.27
303.15	0.1	35.55	0.28
303.15	0.2	36.06	0.28
303.15	0.3	36.66	0.28
303.15	0.4	36.16	0.28
303.15	0.5	34.71	0.27
303.15	0.6	30.77	0.24
303.15	0.7	23.42	0.18
303.15	0.8	11.95	0.09
303.15	0.9	-2.19	0.06
303.15	0.92	-5.28	0.07
303.15	0.94	-8.47	0.07
303.15	0.96	-11.85	0.1
303.15	0.98	-15.43	0.12
303.15	1	-19.57	0.15
308.15	0	36.49	0.28
308.15	0.1	37.04	0.29
308.15	0.2	37.57	0.29
308.15	0.3	38.19	0.3
308.15	0.4	37.78	0.29
308.15	0.5	36.41	0.28
308.15	0.6	32.3	0.25
308.15	0.7	24.83	0.19
308.15	0.8	13.5	0.1
308.15	0.9	-0.56	0.04
308.15	0.92	-3.62	0.05
308.15	0.94	-6.6	0.08
308.15	0.96	-9.95	0.08
308.15	0.98	-13.57	0.11
308.15	1	-17.42	0.14

System: dimethylformamide + 1,4,7,10,13-pentaoxacyclopentadecane; phases: Liquid
Fixed: Pressure, kPa = 101
Fixed: Mole fraction of 1,4,7,10,13-pentaoxacyclopentadecane = 0
Property: Molar enthalpy of solution, kJ/mol (Liquid); method: ISOPERIBOL
Temperature, K	Molar enthalpy of solution, kJ/mol	uncertainty
293.15	-0.48	0.04
298.15	-0.38	0.07
303.15	-0.24	0.04
308.15	-0.1	0.04

System: water + 1,4,7,10,13-pentaoxacyclopentadecane; phases: Liquid
Fixed: Pressure, kPa = 101
Fixed: Mole fraction of 1,4,7,10,13-pentaoxacyclopentadecane = 0
Property: Molar enthalpy of solution, kJ/mol (Liquid); method: ISOPERIBOL
Temperature, K	Molar enthalpy of solution, kJ/mol	uncertainty
293.15	-41.24	0.32
298.15	-39.8	0.31
303.15	-38.37	0.3
308.15	-37.03	0.29

System: dimethylformamide + 1,4,7,10,13,16-hexaoxacyclooctadecane; phases: Liquid
Fixed: Pressure, kPa = 101
Fixed: Mole fraction of 1,4,7,10,13,16-hexaoxacyclooctadecane = 0
Property: Molar enthalpy of solution, kJ/mol (Liquid); method: ISOPERIBOL
Temperature, K	Molar enthalpy of solution, kJ/mol	uncertainty
293.15	32.07	0.25
298.15	33.66	0.26
303.15	35.05	0.27
308.15	36.49	0.28

System: water + 1,4,7,10,13,16-hexaoxacyclooctadecane; phases: Liquid
Fixed: Pressure, kPa = 101
Fixed: Mole fraction of 1,4,7,10,13,16-hexaoxacyclooctadecane = 0
Property: Molar enthalpy of solution, kJ/mol (Liquid); method: ISOPERIBOL
Temperature, K	Molar enthalpy of solution, kJ/mol	uncertainty
293.15	-23.65	0.18
298.15	-21.58	0.17
303.15	-19.57	0.15
308.15	-17.42	0.14
