Measured thermophysical data. Densities of 1-Butyl-3-methylimidazolium Hexafluorophosphate p Poly(ethylene glycol) in the Temperature Range (283.15 to 363.15) K
Source: J. Chem. Eng. Data, 2011, 10.1021/je1012229
Compound 1: 1-butyl-3-methylimidazolium hexafluorophosphate, C8H15F6N2P, InChI=1S/C8H15N2.F6P/c1-3-4-5-10-7-6-9(2)8-10;1-7(2,3,4,5)6/h6-8H,3-5H2,1-2H3;/q+1;-1, purity 99%

System: 1-butyl-3-methylimidazolium hexafluorophosphate; phases: Liquid
Fixed: Pressure, kPa = 101.325
Property: Mass density, kg/m3 (Liquid); method: Vibrating tube method
Temperature, K	Mass density, kg/m3	uncertainty
283.15	1380.2	0.7
293.15	1372	0.7
303.15	1362.6	0.7
313.15	1354.1	0.7
323.15	1345.7	0.7
333.15	1339.1	0.7
343.15	1331.7	0.7
353.15	1323.4	0.7
363.15	1314.2	0.6
