Measured thermophysical data. Liquid Density of Biofuel Additives: 1-Butoxybutane at Pressures up to 140 MPa and from (293.15 to 393.15) K
Source: J. Chem. Eng. Data, 2011, 10.1021/je101286a
Compound 1: dibutyl ether, C8H18O, InChI=1S/C8H18O/c1-3-5-7-9-8-6-4-2/h3-8H2,1-2H3, purity 99.3%

System: dibutyl ether; phases: Liquid
Property: Mass density, kg/m3 (Liquid); method: Vibrating tube method
Temperature, K	Pressure, kPa	Mass density, kg/m3	uncertainty
293.15	100	768	1
293.15	10000	776.4	1
293.15	20000	783.9	1
293.15	30000	790.8	1.1
293.15	40000	797.2	1.1
293.15	50000	803.2	1.1
293.15	60000	808.7	1.1
293.15	70000	814	1.2
293.15	80000	819.1	1.2
293.15	90000	823.8	1.2
293.15	100000	828.6	1.3
293.15	110000	832.8	1.3
293.15	120000	837	1.3
293.15	130000	841	1.3
293.15	140000	844.9	1.4
313.15	100	750.5	1
313.15	10000	759.8	1
313.15	20000	768.1	1.1
313.15	30000	775.9	1.1
313.15	40000	782.8	1.1
313.15	50000	789.4	1.1
313.15	60000	795.4	1.2
313.15	70000	801.5	1.2
313.15	80000	806.8	1.2
313.15	90000	812	1.3
313.15	100000	816.7	1.3
313.15	110000	821.4	1.3
313.15	120000	825.9	1.3
313.15	130000	830.2	1.4
313.15	140000	834.3	1.4
333.15	100	733.5	1
333.15	10000	744.1	1
333.15	20000	753.5	1.1
333.15	30000	761.9	1.1
333.15	40000	769.5	1.1
333.15	50000	776.6	1.1
333.15	60000	783.1	1.2
333.15	70000	789.2	1.2
333.15	80000	795	1.2
333.15	90000	800.7	1.3
333.15	100000	805.7	1.3
333.15	110000	810.5	1.3
333.15	120000	814.7	1.4
333.15	130000	819.4	1.4
333.15	140000	823.7	1.4
353.15	100	715.1	1
353.15	10000	727.2	1
353.15	20000	737.8	1.1
353.15	30000	747.1	1.1
353.15	40000	755.5	1.1
353.15	50000	763.2	1.2
353.15	60000	770.2	1.2
353.15	70000	776.4	1.2
353.15	80000	782.7	1.3
353.15	90000	788.4	1.3
353.15	100000	794	1.3
353.15	110000	799.2	1.4
353.15	120000	804.2	1.4
353.15	130000	808.6	1.4
353.15	140000	813.3	1.5
373.15	100	696.4	3.5
373.15	10000	710.3	1
373.15	20000	722.3	1.1
373.15	30000	732.8	1.1
373.15	40000	741.8	1.1
373.15	50000	750.1	1.2
373.15	60000	757.6	1.2
373.15	70000	764.7	1.3
373.15	80000	771.1	1.3
373.15	90000	777.2	1.3
373.15	100000	783	1.4
373.15	110000	788.6	1.4
373.15	120000	793.5	1.4
373.15	130000	798.5	1.5
373.15	140000	803.1	1.5
393.15	100	677.3	3.4
393.15	10000	693.9	1
393.15	20000	707.3	1.1
393.15	30000	718.4	1.1
393.15	40000	728.7	1.1
393.15	50000	737.2	1.2
393.15	60000	745.3	1.2
393.15	70000	752.8	1.3
393.15	80000	759.9	1.3
393.15	90000	766.2	1.4
393.15	100000	772.2	1.4
393.15	110000	778.1	1.4
393.15	120000	783.4	1.5
393.15	130000	788.6	1.5
393.15	140000	793.5	1.5
