Measured thermophysical data. Liquid-Liquid Equilibrium, Solid-Liquid Equilibrium, Densities, and Refractivity of a Water, Chloroform, and Acetylacetone Mixture
Source: J. Chem. Eng. Data, 2011, 10.1021/je100747y
Compound 1: 2,4-pentanedione, C5H8O2, InChI=1S/C5H8O2/c1-4(6)3-5(2)7/h3H2,1-2H3
Compound 2: trichloromethane, CHCl3, InChI=1S/CHCl3/c2-1(3)4/h1H
Compound 3: water, H2O, InChI=1S/H2O/h1H2

System: 2,4-pentanedione; phases: Liquid
Property: Refractive index (Na D-line) (Liquid); method: Standard Abbe refractometry
Temperature, K	Pressure, kPa	Refractive index (Na D-line)	uncertainty
298.15	101.325	1.4509	0.0007

System: 2,4-pentanedione; phases: Liquid
Property: Mass density, kg/m3 (Liquid); method: VIBTUB:UFactor:6
Temperature, K	Pressure, kPa	Mass density, kg/m3	uncertainty
298.15	101.325	971	0.4

System: trichloromethane; phases: Liquid
Property: Refractive index (Na D-line) (Liquid); method: Standard Abbe refractometry
Temperature, K	Pressure, kPa	Refractive index (Na D-line)	uncertainty
298.15	101.325	1.443	0.0007

System: trichloromethane; phases: Liquid
Property: Mass density, kg/m3 (Liquid); method: VIBTUB:UFactor:6
Temperature, K	Pressure, kPa	Mass density, kg/m3	uncertainty
298.15	101.325	1478	1.8

System: 2,4-pentanedione + water; phases: Liquid mixture 2, Liquid mixture 1
Fixed: Pressure, kPa = 101
Property: Mole fraction of water (Liquid mixture 2); method: CHROM:UFactor:8
Temperature, K	Mole fraction of water	uncertainty
283.15	0.1104	0.0068
293.15	0.1197	0.0074
298.15	0.1245	0.0077
303.15	0.1397	0.0087
313.15	0.1673	0.0104
323.15	0.1956	0.0121
333.15	0.2428	0.015
343.15	0.2907	0.018

System: 2,4-pentanedione + water; phases: Liquid mixture 1, Liquid mixture 2
Fixed: Pressure, kPa = 101
Property: Mole fraction of water (Liquid mixture 1); method: CHROM:UFactor:8
Temperature, K	Mole fraction of water	uncertainty
283.15	0.9782	0.0014
293.15	0.9716	0.0018
298.15	0.9651	0.0022
303.15	0.9614	0.0024
313.15	0.9585	0.0026
323.15	0.9549	0.0028
333.15	0.9477	0.0032
343.15	0.9376	0.0039

System: trichloromethane + water; phases: Liquid mixture 2, Liquid mixture 1
Fixed: Pressure, kPa = 101
Property: Mole fraction of water (Liquid mixture 2); method: CHROM:UFactor:8
Temperature, K	Mole fraction of water	uncertainty
283.15	0.0078	0.002
293.15	0.0093	0.002
298.15	0.0109	0.002
303.15	0.013	0.002
313.15	0.0155	0.002
323.15	0.0183	0.002

System: trichloromethane + water; phases: Liquid mixture 1, Liquid mixture 2
Fixed: Pressure, kPa = 101
Property: Mole fraction of water (Liquid mixture 1); method: CHROM:UFactor:8
Temperature, K	Mole fraction of water	uncertainty
283.15	0.9994	0.0002
293.15	0.9989	0.0002
298.15	0.9986	0.0002
303.15	0.9978	0.0002
313.15	0.997	0.0003
323.15	0.9961	0.0003

System: trichloromethane + 2,4-pentanedione; phases: Liquid
Fixed: Pressure, kPa = 101
Fixed: Temperature, K = 298.15
Property: Refractive index (Na D-line) (Liquid); method: Standard Abbe refractometry
Mole fraction of trichloromethane	Refractive index (Na D-line)	uncertainty
0.0498	1.4498	0.0007
0.0996	1.4497	0.0007
0.2007	1.4496	0.0007
0.3002	1.4494	0.0007
0.4002	1.4492	0.0007
0.4999	1.4487	0.0007
0.5997	1.4482	0.0007
0.7007	1.4475	0.0007
0.7997	1.4465	0.0007
0.899	1.445	0.0007
0.9494	1.4442	0.0007

System: trichloromethane + 2,4-pentanedione; phases: Liquid, Crystal
Fixed: Pressure, kPa = 101
Property: Solid-liquid equilibrium temperature, K (Liquid); method: VISOBS:UFactor:2
Mole fraction of trichloromethane	Solid-liquid equilibrium temperature, K	uncertainty
0	249.57	0.31
0.1001	245.61	0.31
0.199	240.98	0.31
0.29	235.5	0.31
0.41	226.95	0.31
0.4999	219.14	0.31
0.6001	208.65	0.31
0.651	202.85	0.31
0.6926	197.4	0.31
0.71	194.03	0.31

System: trichloromethane + 2,4-pentanedione; phases: Liquid, Crystal
Fixed: Pressure, kPa = 101
Property: Solid-liquid equilibrium temperature, K (Liquid); method: VISOBS:UFactor:2
Mole fraction of trichloromethane	Solid-liquid equilibrium temperature, K	uncertainty
0.7879	195.02	0.31
0.81	197.18	0.31
0.8999	204.24	0.31
0.9498	207.19	0.31
1	209.27	0.31

System: trichloromethane + 2,4-pentanedione; phases: Liquid
Fixed: Pressure, kPa = 101
Fixed: Temperature, K = 298.15
Property: Mass density, kg/m3 (Liquid); method: Vibrating tube method
Mole fraction of trichloromethane	Mass density, kg/m3	uncertainty
0.0498	988.5	0.3
0.0996	1009.2	0.3
0.2007	1052.6	0.3
0.3002	1097.2	0.3
0.4002	1144.3	0.4
0.4999	1193.6	0.4
0.5997	1245.4	0.5
0.7007	1300.4	0.5
0.7997	1356.8	0.6
0.899	1415.6	0.6
0.9494	1446.3	0.6

System: trichloromethane + 2,4-pentanedione + water; phases: Liquid mixture 1, Liquid mixture 2
Fixed: Temperature, K = 298.15
Fixed: Pressure, kPa = 101
Property: Mole fraction of trichloromethane (Liquid mixture 1); method: CHROM:UFactor:8
Property: Mole fraction of water (Liquid mixture 2); method: CHROM:UFactor:8
Property: Mole fraction of trichloromethane (Liquid mixture 2); method: CHROM:UFactor:8
Mole fraction of water	Mole fraction of trichloromethane	uncertainty	Mole fraction of water	uncertainty	Mole fraction of trichloromethane	uncertainty
0.9651	0		0.1245	0.0077	0	
0.9562	0		0.1238	0.0077	0.0349	
0.9767	0		0.1229	0.0076	0.0608	
0.9878	0		0.1127	0.007	0.1254	
0.9901	0.0009	0.0002	0.1045	0.0065	0.1815	
0.9953	0		0.0877	0.0054	0.3093	
0.9925	0		0.0751	0.0047	0.4436	
0.9934	0.0011	0.0002	0.0472	0.0029	0.6194	
0.9984	0		0.0252	0.0016	0.7453	
0.9976	0.0023	0.0002	0.0159	0.001	0.8675	
0.9991	0.0008	0.0003	0.0049	0.0003	0.9931	
