Measured thermophysical data. Measurement and Correlation for Solubilities of 16-Dehydropregnenolone Acetate in Different Solvents
Source: J. Chem. Eng. Data, 2011, 10.1021/je1013262
Compound 1: 3.beta.-acetoxypregna-5,16-dien-20-one, C23H32O3, InChI=1S/C23H32O3/c1-14(24)19-7-8-20-18-6-5-16-13-17(26-15(2)25)9-11-22(16,3)21(18)10-12-23(19,20)4/h5,7,17-18,20-21H,6,8-13H2,1-4H3/t17-,18-,20-,21-,22-,23+/m0/s1
Compound 2: methanol, CH4O, InChI=1S/CH4O/c1-2/h2H,1H3, purity 99.5%
Compound 3: ethanol, C2H6O, InChI=1S/C2H6O/c1-2-3/h3H,2H2,1H3, purity 99.5%
Compound 4: cyclohexane, C6H12, InChI=1S/C6H12/c1-2-4-6-5-3-1/h1-6H2, purity 99.5%
Compound 5: acetone, C3H6O, InChI=1S/C3H6O/c1-3(2)4/h1-2H3, purity 99.5%
Compound 6: ethyl acetate, C4H8O2, InChI=1S/C4H8O2/c1-3-6-4(2)5/h3H2,1-2H3, purity 99.5%

System: methanol + 3.beta.-acetoxypregna-5,16-dien-20-one; phases: Liquid, Crystal
Fixed: Pressure, kPa = 101
Property: Mole fraction of 3.beta.-acetoxypregna-5,16-dien-20-one (Liquid); method: Laser Monitoring Observation
Temperature, K	Mole fraction of 3.beta.-acetoxypregna-5,16-dien-20-one	uncertainty
282.75	0.0004019	1.92e-05
286.85	0.0004914	2.34e-05
291.95	0.0006322	3.01e-05
295.15	0.0007787	3.71e-05
299.95	0.0009651	4.55e-05
303.85	0.001119	5.3e-05
309.25	0.001417	6.7e-05
312.15	0.001596	7.5e-05
315.55	0.001846	8.8e-05
318.35	0.002149	0.000102
320.05	0.002306	0.000109

System: ethanol + 3.beta.-acetoxypregna-5,16-dien-20-one; phases: Liquid, Crystal
Fixed: Pressure, kPa = 101
Property: Mole fraction of 3.beta.-acetoxypregna-5,16-dien-20-one (Liquid); method: Laser Monitoring Observation
Temperature, K	Mole fraction of 3.beta.-acetoxypregna-5,16-dien-20-one	uncertainty
285	0.001026	4.6e-05
289.85	0.00128	5.6e-05
292.6	0.001436	6.4e-05
294.95	0.001622	7.2e-05
297.65	0.001846	8.1e-05
300.95	0.002101	9.2e-05
304.55	0.002399	0.000106
307.55	0.002772	0.000123
310.55	0.003191	0.000141
314.15	0.003715	0.000164
317.55	0.004321	0.00019
321.35	0.005027	0.000222
324.55	0.005825	0.000257
327.05	0.006501	0.000287

System: cyclohexane + 3.beta.-acetoxypregna-5,16-dien-20-one; phases: Liquid, Crystal
Fixed: Pressure, kPa = 101
Property: Mole fraction of 3.beta.-acetoxypregna-5,16-dien-20-one (Liquid); method: Laser Monitoring Observation
Temperature, K	Mole fraction of 3.beta.-acetoxypregna-5,16-dien-20-one	uncertainty
291.95	0.002121	9e-05
300.25	0.00314	0.000132
302.75	0.003632	0.000154
305.75	0.004262	0.000179
309.25	0.004903	0.000205
312.95	0.00574	0.000241
315.9	0.006619	0.000277
320.15	0.007667	0.00032
322.95	0.008785	0.000372
327.85	0.01122	0.00047
332.25	0.01349	0.00057
336.45	0.01616	0.00068
340.35	0.01899	0.00079

System: acetone + 3.beta.-acetoxypregna-5,16-dien-20-one; phases: Liquid, Crystal
Fixed: Pressure, kPa = 101
Property: Mole fraction of 3.beta.-acetoxypregna-5,16-dien-20-one (Liquid); method: Laser Monitoring Observation
Temperature, K	Mole fraction of 3.beta.-acetoxypregna-5,16-dien-20-one	uncertainty
278.55	0.004268	0.000184
281.35	0.004796	0.000205
284.75	0.005383	0.00023
288.65	0.00622	0.000265
291.75	0.006782	0.000288
293.95	0.007309	0.000312
296.75	0.008002	0.000342
299.05	0.008746	0.000374
301.55	0.009547	0.000408
304.25	0.01049	0.00045
306.65	0.01194	0.00051
309.25	0.01323	0.00057
312.55	0.01481	0.00063
315.85	0.01654	0.00071
319.55	0.01884	0.0008

System: ethyl acetate + 3.beta.-acetoxypregna-5,16-dien-20-one; phases: Liquid, Crystal
Fixed: Pressure, kPa = 101
Property: Mole fraction of 3.beta.-acetoxypregna-5,16-dien-20-one (Liquid); method: Laser Monitoring Observation
Temperature, K	Mole fraction of 3.beta.-acetoxypregna-5,16-dien-20-one	uncertainty
292.3	0.01305	0.00054
295.83	0.01447	0.0006
298.8	0.01582	0.00065
302.05	0.01741	0.00072
305.45	0.01903	0.00079
307.95	0.02071	0.00086
310.55	0.02249	0.00093
313.75	0.02457	0.00102
316.75	0.02687	0.00111
319.95	0.0296	0.00123
323.15	0.03246	0.00134
326.65	0.0362	0.0015
330.25	0.0406	0.00169
333.45	0.04719	0.00198
