Measured thermophysical data. Critical Behavior of Binary Mixtures of Dimethyl Carbonate + Nonane and Dimethyl Carbonate + Dodecane: Measurements of the Coexistence Curves
Source: J. Chem. Eng. Data, 2011, 10.1021/je101317k
Compound 1: dimethyl carbonate, C3H6O3, InChI=1S/C3H6O3/c1-5-3(4)6-2/h1-2H3, purity 99%
Compound 2: nonane, C9H20, InChI=1S/C9H20/c1-3-5-7-9-8-6-4-2/h3-9H2,1-2H3, purity 99%
Compound 3: dodecane, C12H26, InChI=1S/C12H26/c1-3-5-7-9-11-12-10-8-6-4-2/h3-12H2,1-2H3, purity 99%

System: dimethyl carbonate; phases: Liquid
Fixed: Pressure, kPa = 101
Fixed: Wavelength, nm = 632.8
Property: Refractive index (other wavelength) (Liquid); method: Standard Abbe refractometry
Temperature, K	Refractive index (other wavelength)	uncertainty
277.784	1.3747	0.0004
278.133	1.3745	0.0004
279.182	1.374	0.0004
280.25	1.3735	0.0004
280.744	1.3733	0.0004
281.69	1.3728	0.0004
293.189	1.3676	0.0004
294.274	1.3671	0.0004
295.295	1.3666	0.0004
296.338	1.3661	0.0004
297.376	1.3656	0.0004
298.398	1.3651	0.0004
299.476	1.3647	0.0004

System: nonane; phases: Liquid
Fixed: Pressure, kPa = 101
Fixed: Wavelength, nm = 632.8
Property: Refractive index (other wavelength) (Liquid); method: Standard Abbe refractometry
Temperature, K	Refractive index (other wavelength)	uncertainty
277.149	1.4116	0.0004
278.188	1.4111	0.0004
279.204	1.4106	0.0004
279.711	1.4104	0.0004
280.28	1.4101	0.0004
281.69	1.4095	0.0004

System: dodecane; phases: Liquid
Fixed: Pressure, kPa = 101
Fixed: Wavelength, nm = 632.8
Property: Refractive index (other wavelength) (Liquid); method: Standard Abbe refractometry
Temperature, K	Refractive index (other wavelength)	uncertainty
293.278	1.4203	0.0004
294.331	1.4198	0.0004
295.373	1.4194	0.0004
296.539	1.4189	0.0004
297.583	1.4184	0.0004
298.651	1.418	0.0004
299.724	1.4175	0.0004

System: nonane + dimethyl carbonate; phases: Liquid mixture 1, Liquid mixture 2
Fixed: Pressure, kPa = 101
Fixed: Wavelength, nm = 632.8
Property: Refractive index (other wavelength) (Liquid mixture 1); method: Standard Abbe refractometry
Temperature, K	Refractive index (other wavelength)	uncertainty
276.305	1.3997	0.0004
277.239	1.3986	0.0004
277.915	1.3978	0.0004
278.545	1.3969	0.0004
279.095	1.3961	0.0004
279.541	1.3953	0.0004
279.897	1.3946	0.0004
280.094	1.3941	0.0004
280.259	1.3938	0.0004
280.413	1.3934	0.0004
280.512	1.3931	0.0004
280.597	1.3929	0.0004
280.683	1.3925	0.0004
280.753	1.3922	0.0004
280.81	1.392	0.0004
280.859	1.3917	0.0004
280.902	1.3915	0.0004
280.937	1.3912	0.0004
280.965	1.3911	0.0004
280.989	1.3909	0.0004
281.01	1.3906	0.0004
281.026	1.3904	0.0004
281.039	1.3903	0.0004
281.05	1.3901	0.0004
281.059	1.3898	0.0004
281.063	1.3898	0.0004
281.068	1.3896	0.0004
281.071	1.3895	0.0004

System: nonane + dimethyl carbonate; phases: Liquid mixture 2, Liquid mixture 1
Fixed: Pressure, kPa = 101
Fixed: Wavelength, nm = 632.8
Property: Refractive index (other wavelength) (Liquid mixture 2); method: Standard Abbe refractometry
Temperature, K	Refractive index (other wavelength)	uncertainty
276.305	1.3824	0.0004
277.239	1.3825	0.0004
277.915	1.3826	0.0004
278.545	1.3827	0.0004
279.095	1.383	0.0004
279.541	1.3832	0.0004
279.897	1.3835	0.0004
280.094	1.3838	0.0004
280.259	1.3839	0.0004
280.413	1.3842	0.0004
280.512	1.3844	0.0004
280.597	1.3846	0.0004
280.683	1.3848	0.0004
280.753	1.385	0.0004
280.81	1.3852	0.0004
280.859	1.3853	0.0004
280.902	1.3856	0.0004
280.937	1.3858	0.0004
280.965	1.3859	0.0004
280.989	1.386	0.0004
281.01	1.3863	0.0004
281.026	1.3865	0.0004
281.039	1.3867	0.0004
281.05	1.3868	0.0004
281.059	1.387	0.0004
281.063	1.3871	0.0004
281.068	1.3873	0.0004
281.071	1.3874	0.0005

System: nonane + dimethyl carbonate; phases: Liquid mixture 1, Liquid mixture 2
Fixed: Pressure, kPa = 101
Property: Mole fraction of dimethyl carbonate (Liquid mixture 1); method: Index of refraction calibration data
Temperature, K	Mole fraction of dimethyl carbonate	uncertainty
276.305	0.394	0.002
277.239	0.416	0.002
277.915	0.431	0.002
278.545	0.45	0.002
279.095	0.467	0.002
279.541	0.485	0.002
279.897	0.502	0.002
280.094	0.514	0.002
280.259	0.521	0.002
280.413	0.53	0.002
280.512	0.538	0.002
280.597	0.543	0.002
280.683	0.553	0.002
280.753	0.561	0.002
280.81	0.566	0.002
280.859	0.574	0.002
280.902	0.579	0.002
280.937	0.587	0.002
280.965	0.589	0.002
280.989	0.594	0.003
281.01	0.602	0.003
281.026	0.608	0.003
281.039	0.61	0.004
281.05	0.615	0.004
281.059	0.623	0.004
281.063	0.623	0.005
281.068	0.629	0.005
281.071	0.631	0.005

System: nonane + dimethyl carbonate; phases: Liquid mixture 2, Liquid mixture 1
Fixed: Pressure, kPa = 101
Property: Mole fraction of dimethyl carbonate (Liquid mixture 2); method: Index of refraction calibration data
Temperature, K	Mole fraction of dimethyl carbonate	uncertainty
276.305	0.851	0.002
277.239	0.84	0.002
277.915	0.831	0.002
278.545	0.822	0.002
279.095	0.81	0.002
279.541	0.801	0.002
279.897	0.79	0.002
280.094	0.782	0.002
280.259	0.778	0.002
280.413	0.769	0.002
280.512	0.763	0.002
280.597	0.758	0.002
280.683	0.752	0.002
280.753	0.747	0.002
280.81	0.742	0.002
280.859	0.739	0.002
280.902	0.731	0.002
280.937	0.726	0.002
280.965	0.723	0.002
280.989	0.721	0.002
281.01	0.713	0.003
281.026	0.708	0.003
281.039	0.703	0.003
281.05	0.7	0.003
281.059	0.695	0.004
281.063	0.693	0.005
281.068	0.688	0.005
281.071	0.685	0.005

System: nonane + dimethyl carbonate; phases: Liquid
Fixed: Temperature, K = 281.69
Fixed: Pressure, kPa = 101
Fixed: Wavelength, nm = 632.8
Property: Refractive index (other wavelength) (Liquid); method: Standard Abbe refractometry
Mole fraction of dimethyl carbonate	Refractive index (other wavelength)	uncertainty
0	1.4095	0.0004
0.105	1.4061	0.0004
0.201	1.4031	0.0004
0.305	1.3999	0.0004
0.405	1.3968	0.0004
0.505	1.3936	0.0004
0.596	1.3905	0.0004
0.706	1.3863	0.0004
0.8	1.3822	0.0004
0.888	1.3781	0.0004
1	1.3728	0.0004

System: dodecane + dimethyl carbonate; phases: Liquid mixture 1, Liquid mixture 2
Fixed: Pressure, kPa = 101
Fixed: Wavelength, nm = 632.8
Property: Refractive index (other wavelength) (Liquid mixture 1); method: Standard Abbe refractometry
Temperature, K	Refractive index (other wavelength)	uncertainty
288.245	1.408	0.0004
289.791	1.4064	0.0004
291.141	1.4049	0.0004
292.263	1.4035	0.0004
293.288	1.4022	0.0004
294.173	1.4009	0.0004
294.958	1.3997	0.0004
295.605	1.3986	0.0004
296.152	1.3974	0.0004
296.579	1.3964	0.0004
296.879	1.3957	0.0004
297.081	1.3951	0.0004
297.262	1.3945	0.0004
297.416	1.394	0.0004
297.509	1.3936	0.0004
297.592	1.3932	0.0004
297.663	1.3929	0.0004
297.723	1.3926	0.0004
297.783	1.3922	0.0004
297.834	1.3919	0.0004
297.874	1.3916	0.0004
297.906	1.3913	0.0004
297.934	1.391	0.0004
297.959	1.3907	0.0004
297.985	1.3904	0.0004
298.007	1.39	0.0004
298.022	1.3898	0.0004
298.035	1.3896	0.0004
298.042	1.3893	0.0004
298.049	1.3891	0.0005
298.057	1.3888	0.0004
298.061	1.3886	0.0005
298.064	1.3883	0.0005

System: dodecane + dimethyl carbonate; phases: Liquid mixture 2, Liquid mixture 1
Fixed: Pressure, kPa = 101
Fixed: Wavelength, nm = 632.8
Property: Refractive index (other wavelength) (Liquid mixture 2); method: Standard Abbe refractometry
Temperature, K	Refractive index (other wavelength)	uncertainty
288.245	1.3772	0.0004
289.791	1.3771	0.0004
291.141	1.3772	0.0004
292.263	1.3773	0.0004
293.288	1.3775	0.0004
294.173	1.3778	0.0004
294.958	1.378	0.0004
295.605	1.3784	0.0004
296.152	1.3789	0.0004
296.579	1.3793	0.0004
296.879	1.3798	0.0004
297.081	1.3801	0.0004
297.262	1.3805	0.0004
297.416	1.3808	0.0004
297.509	1.3811	0.0004
297.592	1.3814	0.0004
297.663	1.3816	0.0004
297.723	1.3819	0.0004
297.783	1.3822	0.0004
297.834	1.3825	0.0004
297.874	1.3827	0.0004
297.906	1.383	0.0004
297.934	1.3832	0.0004
297.959	1.3834	0.0004
297.985	1.3837	0.0004
298.007	1.384	0.0004
298.022	1.3842	0.0004
298.035	1.3845	0.0004
298.042	1.3847	0.0004
298.049	1.385	0.0005
298.057	1.3852	0.0004
298.061	1.3855	0.0005
298.064	1.3857	0.0005

System: dodecane + dimethyl carbonate; phases: Liquid mixture 1, Liquid mixture 2
Fixed: Pressure, kPa = 101
Property: Mole fraction of dimethyl carbonate (Liquid mixture 1); method: Index of refraction calibration data
Temperature, K	Mole fraction of dimethyl carbonate	uncertainty
288.245	0.408	0.002
289.791	0.43	0.002
291.141	0.451	0.002
292.263	0.472	0.002
293.288	0.491	0.002
294.173	0.511	0.002
294.958	0.529	0.002
295.605	0.546	0.002
296.152	0.565	0.002
296.579	0.581	0.002
296.879	0.592	0.002
297.081	0.602	0.002
297.262	0.612	0.002
297.416	0.62	0.002
297.509	0.626	0.002
297.592	0.633	0.002
297.663	0.638	0.002
297.723	0.643	0.002
297.783	0.65	0.002
297.834	0.654	0.002
297.874	0.659	0.002
297.906	0.664	0.002
297.934	0.669	0.002
297.959	0.674	0.002
297.985	0.679	0.003
298.007	0.686	0.003
298.022	0.689	0.003
298.035	0.692	0.004
298.042	0.697	0.003
298.049	0.7	0.004
298.057	0.705	0.003
298.061	0.709	0.004
298.064	0.713	0.005

System: dodecane + dimethyl carbonate; phases: Liquid mixture 2, Liquid mixture 1
Fixed: Pressure, kPa = 101
Property: Mole fraction of dimethyl carbonate (Liquid mixture 2); method: Index of refraction calibration data
Temperature, K	Mole fraction of dimethyl carbonate	uncertainty
288.245	0.923	0.002
289.791	0.916	0.002
291.141	0.908	0.002
292.263	0.901	0.002
293.288	0.893	0.002
294.173	0.884	0.002
294.958	0.877	0.002
295.605	0.869	0.002
296.152	0.859	0.002
296.579	0.852	0.002
296.879	0.844	0.002
297.081	0.839	0.002
297.262	0.832	0.002
297.416	0.827	0.002
297.509	0.823	0.002
297.592	0.818	0.002
297.663	0.815	0.002
297.723	0.811	0.002
297.783	0.806	0.002
297.834	0.802	0.002
297.874	0.799	0.002
297.906	0.794	0.002
297.934	0.791	0.002
297.959	0.788	0.002
297.985	0.784	0.002
298.007	0.779	0.003
298.022	0.776	0.003
298.035	0.772	0.003
298.042	0.769	0.003
298.049	0.764	0.004
298.057	0.761	0.003
298.061	0.757	0.004
298.064	0.754	0.004

System: dodecane + dimethyl carbonate; phases: Liquid
Fixed: Temperature, K = 299.73
Fixed: Pressure, kPa = 101
Fixed: Wavelength, nm = 632.8
Property: Refractive index (other wavelength) (Liquid); method: Standard Abbe refractometry
Mole fraction of dimethyl carbonate	Refractive index (other wavelength)	uncertainty
0.103	1.414	0.0004
0.204	1.4106	0.0004
0.299	1.4071	0.0004
0.409	1.4028	0.0004
0.512	1.3983	0.0004
0.611	1.3934	0.0004
0.713	1.3875	0.0004
0.791	1.3823	0.0004
0.899	1.3739	0.0004
