Measured thermophysical data. Volumetric Properties, Viscosities, and Isobaric Heat Capacities of Imidazolium Octanoate Protic Ionic Liquid in Molecular Solvents
Source: J. Chem. Eng. Data, 2010, 10.1021/je100671v
Compound 1: ethanol, C2H6O, InChI=1S/C2H6O/c1-2-3/h3H,2H2,1H3, purity 99%
Compound 2: octan-1-ol, C8H18O, InChI=1S/C8H18O/c1-2-3-4-5-6-7-8-9/h9H,2-8H2,1H3, purity 99%
Compound 3: acetonitrile, C2H3N, InChI=1S/C2H3N/c1-2-3/h1H3, purity 99%
Compound 4: water, H2O, InChI=1S/H2O/h1H2, purity 99.9%
Compound 5: 1H-imidazolium octanoate, C11H20N2O2, InChI=1S/C8H16O2.C3H4N2/c1-2-3-4-5-6-7-8(9)10;1-2-5-3-4-1/h2-7H2,1H3,(H,9,10);1-3H,(H,4,5)

System: ethanol; phases: Liquid
Fixed: Pressure, kPa = 101.3
Property: Molar heat capacity at constant pressure, J/K/mol (Liquid); method: Flow calorimetry
Temperature, K	Molar heat capacity at constant pressure, J/K/mol	uncertainty
298.15	112	0.4
303.15	114	0.4
308.15	116	0.4
313.15	118	0.4

System: ethanol; phases: Liquid
Fixed: Pressure, kPa = 101.3
Property: Viscosity, Pa*s (Liquid); method: CAPTUB::UFactor:4
Temperature, K	Viscosity, Pa*s	uncertainty
293.15	0.00121	4e-05
298.15	0.0011	3.5e-05
303.15	0.001	3.2e-05
308.15	0.00091	3e-05
313.15	0.00083	2.8e-05
318.15	0.00072	2.5e-05
323.15	0.000615	2.2e-05

System: ethanol; phases: Liquid
Property: Mass density, kg/m3 (Liquid); method: Pycnometric method
Temperature, K	Pressure, kPa	Mass density, kg/m3	uncertainty
298.15	101.3	790	3.2

System: octan-1-ol; phases: Liquid
Fixed: Pressure, kPa = 101.3
Property: Molar heat capacity at constant pressure, J/K/mol (Liquid); method: Flow calorimetry
Temperature, K	Molar heat capacity at constant pressure, J/K/mol	uncertainty
298.15	304	1.4
303.15	329	1.5
308.15	354	1.5
313.15	379	1.6

System: octan-1-ol; phases: Liquid
Fixed: Pressure, kPa = 101.3
Property: Viscosity, Pa*s (Liquid); method: CAPTUB::UFactor:4
Temperature, K	Viscosity, Pa*s	uncertainty
293.15	0.009183	0.000235
298.15	0.00784	0.000208
303.15	0.00642	0.000179
308.15	0.005341	0.000153
313.15	0.004661	0.000137
318.15	0.003701	0.000113
323.15	0.00284	9e-05

System: octan-1-ol; phases: Liquid
Property: Mass density, kg/m3 (Liquid); method: Pycnometric method
Temperature, K	Pressure, kPa	Mass density, kg/m3	uncertainty
298.15	101.3	824.5	3.3

System: acetonitrile; phases: Liquid
Fixed: Pressure, kPa = 101.3
Property: Molar heat capacity at constant pressure, J/K/mol (Liquid); method: Flow calorimetry
Temperature, K	Molar heat capacity at constant pressure, J/K/mol	uncertainty
298.15	91.69	0.31
303.15	92.21	0.31
308.15	92.4	0.31
313.15	92.82	0.31

System: acetonitrile; phases: Liquid
Fixed: Pressure, kPa = 101.3
Property: Viscosity, Pa*s (Liquid); method: CAPTUB:UFactor:4
Temperature, K	Viscosity, Pa*s	uncertainty
293.15	0.00035	1.4e-05
298.15	0.000333	1.34e-05
303.15	0.000325	1.3e-05
308.15	0.000292	1.2e-05
313.15	0.000279	1.2e-05
318.15	0.000245	1.1e-05
323.15	0.000223	1e-05

System: acetonitrile; phases: Liquid
Property: Mass density, kg/m3 (Liquid); method: Pycnometric method
Temperature, K	Pressure, kPa	Mass density, kg/m3	uncertainty
298.15	101.3	771.5	3.1

System: water; phases: Liquid
Fixed: Pressure, kPa = 101.3
Property: Viscosity, Pa*s (Liquid); method: CAPTUB::UFactor:4
Temperature, K	Viscosity, Pa*s	uncertainty
293.15	0.001002	3.2e-05
298.15	0.00089	2.9e-05
303.15	0.000797	2.6e-05
308.15	0.000718	2.4e-05
313.15	0.000651	2.2e-05
318.15	0.000587	2e-05
323.15	0.000556	2e-05

System: water; phases: Liquid
Property: Mass density, kg/m3 (Liquid); method: Pycnometric method
Temperature, K	Pressure, kPa	Mass density, kg/m3	uncertainty
298.15	101.3	997.1	4

System: 1H-imidazolium octanoate; phases: Liquid, Air at 1 atmosphere
Property: Surface tension liquid-gas, N/m (Liquid); method: UNKNOWN
Temperature, K	Surface tension liquid-gas, N/m	uncertainty
298.15	0.0328	0.0027

System: 1H-imidazolium octanoate; phases: Liquid
Fixed: Pressure, kPa = 101.3
Property: Molar heat capacity at constant pressure, J/K/mol (Liquid); method: Flow calorimetry
Temperature, K	Molar heat capacity at constant pressure, J/K/mol	uncertainty
298.15	769	2.6
303.15	772.4	2.6
303.15	772.6	2.6
308.15	782.2	2.6
308.15	782.3	2.6
313.15	788.1	2.6
313.15	788.2	2.6

System: 1H-imidazolium octanoate; phases: Liquid
Fixed: Pressure, kPa = 101.3
Property: Viscosity, Pa*s (Liquid); method: CAPTUB::UFactor:4
Temperature, K	Viscosity, Pa*s	uncertainty
293.15	0.08848	0.00457
298.15	0.07127	0.00239
303.15	0.05648	0.00089
308.15	0.0453	0.00107
313.15	0.03692	0.00087
318.15	0.03056	0.00072
323.15	0.02533	0.00061

System: 1H-imidazolium octanoate; phases: Liquid
Property: Mass density, kg/m3 (Liquid); method: Pycnometric method
Temperature, K	Pressure, kPa	Mass density, kg/m3	uncertainty
298.15	101.3	987	4

System: ethanol + 1H-imidazolium octanoate; phases: Liquid
Fixed: Temperature, K = 298.15
Fixed: Pressure, kPa = 101.3
Property: Mass density, kg/m3 (Liquid); method: Pycnometric method
Mole fraction of 1H-imidazolium octanoate	Mass density, kg/m3	uncertainty
0	790	3.2
0.1011	853.9	3.4
0.2001	891.8	3.6
0.2994	918.8	3.7
0.4001	938.1	3.8
0.5214	954.6	3.9
0.6	962.7	3.9
0.699	970.1	3.9
0.8016	976.3	3.9
0.8957	981.6	4
1	987	4

System: ethanol + 1H-imidazolium octanoate; phases: Liquid
Fixed: Pressure, kPa = 101.3
Property: Molar heat capacity at constant pressure, J/K/mol (Liquid); method: FLOW:UFactor:2
Temperature, K	Mole fraction of 1H-imidazolium octanoate	Molar heat capacity at constant pressure, J/K/mol	uncertainty
298.15	0	112	0.5
298.15	0.1011	188.6	0.8
298.15	0.2001	256.6	1.1
298.15	0.2994	317.3	1.3
298.15	0.4001	364.9	1.5
298.15	0.5214	420	1.7
298.15	0.6	458.2	1.9
298.15	0.699	516.2	2.1
298.15	0.8016	591	2.4
298.15	0.8957	667.5	2.8
298.15	1	769	3.2
303.15	0	114	0.5
303.15	0.1011	187.3	0.8
303.15	0.2001	255.1	1.1
303.15	0.2994	315.6	1.3
303.15	0.4001	360.4	1.5
303.15	0.5214	419.9	1.7
303.15	0.6	459.4	1.9
303.15	0.699	517.1	2.1
303.15	0.8016	591.6	2.5
303.15	0.8957	673.1	2.8
303.15	1	772.6	3.2
308.15	0	116	0.5
308.15	0.1011	187.1	0.8
308.15	0.2001	254.3	1.1
308.15	0.2994	312.3	1.3
308.15	0.4001	358.7	1.5
308.15	0.5214	421.1	1.7
308.15	0.6	462.5	1.9
308.15	0.699	520.9	2.2
308.15	0.8016	596.5	2.5
308.15	0.8957	681.9	2.8
308.15	1	782.3	3.3
313.15	0	118	0.5
313.15	0.1011	186.6	0.8
313.15	0.2001	253.8	1.1
313.15	0.2994	308.3	1.3
313.15	0.4001	357	1.5
313.15	0.5214	419.7	1.7
313.15	0.6	464.1	1.9
313.15	0.699	523.8	2.2
313.15	0.8016	599.4	2.5
313.15	0.8957	683.6	2.8
313.15	1	788.2	3.3

System: ethanol + 1H-imidazolium octanoate; phases: Liquid
Fixed: Pressure, kPa = 101.3
Property: Viscosity, Pa*s (Liquid); method: CAPTUB:UFactor:4
Temperature, K	Mole fraction of 1H-imidazolium octanoate	Viscosity, Pa*s	uncertainty
293.15	0	0.00121	4e-05
293.15	0.1011	0.003236	9.7e-05
293.15	0.2001	0.006029	0.000169
293.15	0.2994	0.01032	0.00026
293.15	0.4001	0.0145	0.0004
293.15	0.5214	0.0229	0.0005
293.15	0.6	0.0298	0.0007
293.15	0.699	0.0404	0.0009
293.15	0.8016	0.05379	0.00064
293.15	0.8957	0.06868	0.00207
293.15	1	0.08848	0.00457
298.15	0	0.0011	3.5e-05
298.15	0.1011	0.002949	8.7e-05
298.15	0.2001	0.005466	0.000154
298.15	0.2994	0.009322	0.000236
298.15	0.4001	0.0133	0.00032
298.15	0.5214	0.02	0.00047
298.15	0.6	0.0255	0.00059
298.15	0.699	0.034	0.00078
298.15	0.8016	0.04447	0.00103
298.15	0.8957	0.05578	0.00081
298.15	1	0.07127	0.00239
303.15	0	0.001	3.2e-05
303.15	0.1011	0.002686	8e-05
303.15	0.2001	0.004927	0.000142
303.15	0.2994	0.008398	0.000215
303.15	0.4001	0.012	0.00029
303.15	0.5214	0.0178	0.00042
303.15	0.6	0.0223	0.00052
303.15	0.699	0.0289	0.00067
303.15	0.8016	0.03653	0.00085
303.15	0.8957	0.04496	0.00105
303.15	1	0.05648	0.00089
308.15	0	0.00091	3e-05
308.15	0.1011	0.002471	7.4e-05
308.15	0.2001	0.00454	0.000131
308.15	0.2994	0.007772	0.000202
308.15	0.4001	0.0114	0.00028
308.15	0.5214	0.0164	0.00039
308.15	0.6	0.0199	0.00047
308.15	0.699	0.0248	0.00058
308.15	0.8016	0.03043	0.00071
308.15	0.8957	0.03681	0.00086
308.15	1	0.0453	0.00107
313.15	0	0.00083	2.8e-05
313.15	0.1011	0.002278	6.8e-05
313.15	0.2001	0.004194	0.000121
313.15	0.2994	0.0069	0.000184
313.15	0.4001	0.0099	0.000249
313.15	0.5214	0.014	0.00034
313.15	0.6	0.0172	0.00041
313.15	0.699	0.0215	0.0005
313.15	0.8016	0.02609	0.00061
313.15	0.8957	0.031	0.00072
313.15	1	0.03692	0.00087
318.15	0	0.00072	2.5e-05
318.15	0.1011	0.002125	6.4e-05
318.15	0.2001	0.003962	0.000115
318.15	0.2994	0.0063	0.00017
318.15	0.4001	0.009	0.000227
318.15	0.5214	0.0126	0.0003
318.15	0.6	0.0153	0.00036
318.15	0.699	0.0188	0.00044
318.15	0.8016	0.0224	0.00052
318.15	0.8957	0.0262	0.00061
318.15	1	0.03056	0.00072
323.15	0	0.000615	2.2e-05
323.15	0.2001	0.004433	0.000129
323.15	0.2994	0.0064	0.000172
323.15	0.4001	0.0089	0.000224
323.15	0.5214	0.012	0.00029
323.15	0.6	0.0141	0.00034
323.15	0.699	0.0167	0.0004
323.15	0.8016	0.0196	0.00046
323.15	0.8957	0.0223	0.00053
323.15	1	0.02533	0.00061

System: acetonitrile + 1H-imidazolium octanoate; phases: Liquid
Fixed: Temperature, K = 298.15
Fixed: Pressure, kPa = 101.3
Property: Mass density, kg/m3 (Liquid); method: Pycnometric method
Mole fraction of 1H-imidazolium octanoate	Mass density, kg/m3	uncertainty
0	771.5	3.1
0.1004	846.7	3.4
0.2012	891.6	3.6
0.3076	923	3.7
0.4005	942.5	3.8
0.501	957.9	3.9
0.5995	969.6	3.9
0.702	978.9	4
0.8014	985.2	4
0.8956	988.1	4
1	987	4

System: acetonitrile + 1H-imidazolium octanoate; phases: Liquid
Fixed: Pressure, kPa = 101.3
Property: Molar heat capacity at constant pressure, J/K/mol (Liquid); method: FLOW:UFactor:2
Temperature, K	Mole fraction of 1H-imidazolium octanoate	Molar heat capacity at constant pressure, J/K/mol	uncertainty
298.15	0	91.69	0.39
298.15	0.1004	137.6	0.6
298.15	0.2012	215.8	1.2
298.15	0.3076	337.2	2.1
298.15	0.4005	499.6	2.7
298.15	0.501	675.7	3.5
298.15	0.5995	845.9	4.1
298.15	0.702	995.6	5.3
298.15	0.8014	1046	5
298.15	0.8956	1020	6
298.15	1	769	3.2
303.15	0	92.21	0.39
303.15	0.1004	154.1	1
303.15	0.2012	248.1	1.7
303.15	0.3076	395.8	2.5
303.15	0.4005	544	2.7
303.15	0.501	725.8	3.4
303.15	0.5995	890.8	4
303.15	0.702	1047	5
303.15	0.8014	1100	5
303.15	0.8956	1045	4
303.15	1	772.4	3.2
308.15	0	92.4	0.39
308.15	0.1004	173.2	0.9
308.15	0.2012	280.7	1.7
308.15	0.3076	430.2	2.2
308.15	0.4005	574.1	2.7
308.15	0.501	751.8	3.4
308.15	0.5995	924.9	4.2
308.15	0.702	1083	5
308.15	0.8014	1149	5
308.15	0.8956	1052	4
308.15	1	782.2	3.3
313.15	0	92.82	0.39
313.15	0.1004	183.8	1.1
313.15	0.2012	307.4	1.8
313.15	0.3076	457.1	2.3
313.15	0.4005	609	3
313.15	0.501	791.1	3.7
313.15	0.5995	979.9	4.3
313.15	0.702	1120	5
313.15	0.8014	1185	5
313.15	0.8956	1054	5
313.15	1	788.1	3.3

System: acetonitrile + 1H-imidazolium octanoate; phases: Liquid
Fixed: Pressure, kPa = 101.3
Property: Viscosity, Pa*s (Liquid); method: CAPTUB:UFactor:4
Temperature, K	Mole fraction of 1H-imidazolium octanoate	Viscosity, Pa*s	uncertainty
293.15	0	0.00035	1.4e-05
293.15	0.1004	0.001201	3.9e-05
293.15	0.2012	0.002747	8.1e-05
293.15	0.3076	0.0058	0.00016
293.15	0.4005	0.0106	0.00027
293.15	0.501	0.01794	0.00042
293.15	0.5995	0.02596	0.00061
293.15	0.702	0.03782	0.00087
293.15	0.8014	0.05042	0.0005
293.15	0.8956	0.066	0.00177
293.15	1	0.08848	0.00457
298.15	0	0.000333	1.34e-05
298.15	0.1004	0.001199	3.8e-05
298.15	0.2012	0.0033	9.7e-05
298.15	0.3076	0.0063	0.00017
298.15	0.4005	0.01	0.00025
298.15	0.501	0.01611	0.00038
298.15	0.5995	0.0227	0.00053
298.15	0.702	0.032	0.00074
298.15	0.8014	0.04188	0.00096
298.15	0.8956	0.0543	0.00067
298.15	1	0.07127	0.00239
303.15	0	0.000325	1.3e-05
303.15	0.1004	0.00121	3.8e-05
303.15	0.2012	0.002402	7.2e-05
303.15	0.3076	0.0056	0.000156
303.15	0.4005	0.0096	0.000241
303.15	0.501	0.01467	0.00035
303.15	0.5995	0.02017	0.00047
303.15	0.702	0.02747	0.00064
303.15	0.8014	0.0353	0.00081
303.15	0.8956	0.0454	0.00105
303.15	1	0.05648	0.00089
308.15	0	0.000292	1.2e-05
308.15	0.1004	0.001241	3.9e-05
308.15	0.2012	0.002808	8.3e-05
308.15	0.3076	0.0055	0.000155
308.15	0.4005	0.0084	0.000218
308.15	0.501	0.0128	0.00031
308.15	0.5995	0.01789	0.00042
308.15	0.702	0.02368	0.00055
308.15	0.8014	0.03004	0.00069
308.15	0.8956	0.037	0.00086
308.15	1	0.0453	0.00107
313.15	0	0.000279	1.2e-05
313.15	0.1004	0.001397	4.5e-05
313.15	0.2012	0.00223	6.7e-05
313.15	0.3076	0.0044	0.000127
313.15	0.4005	0.007398	0.000194
313.15	0.501	0.0114	0.00028
313.15	0.5995	0.0156	0.00037
313.15	0.702	0.02083	0.00049
313.15	0.8014	0.0261	0.00061
313.15	0.8956	0.0314	0.00073
313.15	1	0.03692	0.00087
318.15	0	0.000245	1.1e-05
318.15	0.1004	0.00177	5.4e-05
318.15	0.2012	0.0031	9.3e-05
318.15	0.3076	0.0051	0.000146
318.15	0.4005	0.007511	0.000195
318.15	0.501	0.0107	0.00026
318.15	0.5995	0.0141	0.00034
318.15	0.702	0.01821	0.00043
318.15	0.8014	0.0223	0.00052
318.15	0.8956	0.02631	0.00062
318.15	1	0.03056	0.00072
323.15	0	0.000223	1e-05
323.15	0.1004	0.0016	4.9e-05
323.15	0.2012	0.003223	9.5e-05
323.15	0.3076	0.005376	0.000151
323.15	0.4005	0.0076	0.000197
323.15	0.501	0.0102	0.00025
323.15	0.5995	0.0132	0.00032
323.15	0.702	0.01621	0.00038
323.15	0.8014	0.01955	0.00046
323.15	0.8956	0.02252	0.00053
323.15	1	0.02533	0.00061

System: octan-1-ol + 1H-imidazolium octanoate; phases: Liquid
Fixed: Temperature, K = 298.15
Fixed: Pressure, kPa = 101.3
Property: Mass density, kg/m3 (Liquid); method: Pycnometric method
Mole fraction of 1H-imidazolium octanoate	Mass density, kg/m3	uncertainty
0	824.5	3.3
0.1003	844.8	3.4
0.201	863.9	3.5
0.3001	881.8	3.6
0.3995	898.9	3.6
0.4993	915.6	3.7
0.6	931.7	3.8
0.7009	947	3.8
0.8001	961.2	3.9
0.8989	974.4	3.9
1	987	4

System: octan-1-ol + 1H-imidazolium octanoate; phases: Liquid
Fixed: Pressure, kPa = 101.3
Property: Molar heat capacity at constant pressure, J/K/mol (Liquid); method: FLOW:UFactor:2
Temperature, K	Mole fraction of 1H-imidazolium octanoate	Molar heat capacity at constant pressure, J/K/mol	uncertainty
298.15	0	304	1.6
298.15	0.1003	469	2.3
298.15	0.201	570.9	2.5
298.15	0.3001	603.8	2.6
298.15	0.3995	591.7	2.5
298.15	0.4993	571.6	2.4
298.15	0.6	547.5	2.3
298.15	0.7009	540.4	2.3
298.15	0.8001	534.8	2.2
298.15	0.8989	606.3	2.5
298.15	1	769	3.2
303.15	0	329	1.7
303.15	0.1003	479	2
303.15	0.201	566.2	2.4
303.15	0.3001	601.4	2.5
303.15	0.3995	599.3	2.5
303.15	0.4993	579.9	2.4
303.15	0.6	565.6	2.5
303.15	0.7009	534.5	30
303.15	0.8001	557.8	2.7
303.15	0.8989	638.3	2.8
303.15	1	772.6	3.2
308.15	0	354	1.8
308.15	0.1003	483	2
308.15	0.201	556.1	2.3
308.15	0.3001	598.1	2.5
308.15	0.3995	613.1	2.5
308.15	0.4993	594.4	2.5
308.15	0.6	587.6	2.5
308.15	0.7009	585.6	2.8
308.15	0.8001	605.7	2.9
308.15	0.8989	656.8	2.9
308.15	1	782.3	3.3
313.15	0	379	1.9
313.15	0.1003	497	2.1
313.15	0.201	561.1	2.3
313.15	0.3001	592.2	2.5
313.15	0.3995	606.7	2.6
313.15	0.4993	604.1	2.5
313.15	0.6	596.3	2.5
313.15	0.7009	607	2.7
313.15	0.8001	633.3	3
313.15	0.8989	681.9	3.3
313.15	1	788.2	3.3

System: octan-1-ol + 1H-imidazolium octanoate; phases: Liquid
Fixed: Pressure, kPa = 101.3
Property: Viscosity, Pa*s (Liquid); method: CAPTUB:UFactor:4
Temperature, K	Mole fraction of 1H-imidazolium octanoate	Viscosity, Pa*s	uncertainty
293.15	0	0.009183	0.000235
293.15	0.1003	0.0105	0.00027
293.15	0.201	0.0134	0.00033
293.15	0.3001	0.018	0.00043
293.15	0.3995	0.024	0.00056
293.15	0.4993	0.03085	0.00072
293.15	0.6	0.03942	0.00091
293.15	0.7009	0.05103	0.00051
293.15	0.8001	0.06444	0.00159
293.15	0.8989	0.07805	0.00318
293.15	1	0.08848	0.00457
298.15	0	0.00784	0.000208
298.15	0.1003	0.0091	0.000231
298.15	0.201	0.0117	0.00029
298.15	0.3001	0.01539	0.00037
298.15	0.3995	0.0203	0.00048
298.15	0.4993	0.0259	0.00061
298.15	0.6	0.0333	0.00077
298.15	0.7009	0.0419	0.00097
298.15	0.8001	0.05231	0.00059
298.15	0.8989	0.06319	0.00149
298.15	1	0.07127	0.00239
303.15	0	0.00642	0.000179
303.15	0.1003	0.00833	0.000213
303.15	0.201	0.01	0.00025
303.15	0.3001	0.01324	0.00032
303.15	0.3995	0.0172	0.00041
303.15	0.4993	0.02167	0.00051
303.15	0.6	0.0275	0.00064
303.15	0.7009	0.03444	0.0008
303.15	0.8001	0.0422	0.00099
303.15	0.8989	0.05026	0.00055
303.15	1	0.05648	0.00089
308.15	0	0.005341	0.000153
308.15	0.1003	0.007641	0.000203
308.15	0.201	0.009401	0.000239
308.15	0.3001	0.01172	0.00029
308.15	0.3995	0.01495	0.00036
308.15	0.4993	0.01876	0.00045
308.15	0.6	0.02323	0.00055
308.15	0.7009	0.02856	0.00067
308.15	0.8001	0.03463	0.00081
308.15	0.8989	0.04069	0.00096
308.15	1	0.0453	0.00107
313.15	0	0.004661	0.000137
313.15	0.1003	0.005937	0.000168
313.15	0.201	0.0075	0.000202
313.15	0.3001	0.009786	0.00025
313.15	0.3995	0.0123	0.00031
313.15	0.4993	0.01557	0.00038
313.15	0.6	0.0194	0.00046
313.15	0.7009	0.02344	0.00056
313.15	0.8001	0.0285	0.00067
313.15	0.8989	0.03314	0.00078
313.15	1	0.03692	0.00087
318.15	0	0.003701	0.000113
318.15	0.1003	0.005377	0.000152
318.15	0.201	0.0067	0.00018
318.15	0.3001	0.008459	0.000219
318.15	0.3995	0.0107	0.00027
318.15	0.4993	0.01305	0.00032
318.15	0.6	0.0164	0.00039
318.15	0.7009	0.0198	0.00047
318.15	0.8001	0.02363	0.00056
318.15	0.8989	0.02768	0.00065
318.15	1	0.03056	0.00072
323.15	0	0.00284	9e-05
323.15	0.1003	0.004821	0.000142
323.15	0.201	0.0059	0.000163
323.15	0.3001	0.00748	0.000197
323.15	0.3995	0.0094	0.000239
323.15	0.4993	0.0116	0.00029
323.15	0.6	0.01421	0.00035
323.15	0.7009	0.0171	0.00041
323.15	0.8001	0.02017	0.00048
323.15	0.8989	0.0229	0.00055
323.15	1	0.02533	0.00061

System: water + 1H-imidazolium octanoate; phases: Liquid
Fixed: Temperature, K = 298.15
Fixed: Pressure, kPa = 101.3
Property: Mass density, kg/m3 (Liquid); method: Pycnometric method
Mole fraction of 1H-imidazolium octanoate	Mass density, kg/m3	uncertainty
0	997.1	4
0.1846	1002.9	4
0.2005	1003.1	4
0.3357	998.6	4
0.3983	996.6	4
0.4881	994.1	4
0.5909	991.7	4
0.6958	990	4
0.8036	988.8	4
0.9011	987.9	4
1	987	4

System: water + 1H-imidazolium octanoate; phases: Liquid
Fixed: Pressure, kPa = 101.3
Property: Viscosity, Pa*s (Liquid); method: CAPTUB:UFactor:4
Temperature, K	Mole fraction of 1H-imidazolium octanoate	Viscosity, Pa*s	uncertainty
293.15	0	0.001002	3.2e-05
293.15	0.1846	0.02063	0.00047
293.15	0.2005	0.02218	0.00051
293.15	0.3357	0.0349	0.00077
293.15	0.3983	0.03983	0.00088
293.15	0.4881	0.04574	0.00102
293.15	0.5909	0.05043	0.00041
293.15	0.6958	0.05353	0.0006
293.15	0.8036	0.05859	0.00105
293.15	0.9011	0.0679	0.00203
293.15	1	0.08848	0.00457
298.15	0	0.00089	2.9e-05
298.15	0.1846	0.01759	0.00041
298.15	0.2005	0.01869	0.00043
298.15	0.3357	0.02909	0.00066
298.15	0.3983	0.03299	0.00075
298.15	0.4881	0.0374	0.00086
298.15	0.5909	0.0411	0.00094
298.15	0.6958	0.0433	0.001
298.15	0.8036	0.0463	0.00109
298.15	0.9011	0.05406	0.00072
298.15	1	0.07127	0.00239
303.15	0	0.000797	2.6e-05
303.15	0.1846	0.01475	0.00035
303.15	0.2005	0.016	0.00038
303.15	0.3357	0.02426	0.00056
303.15	0.3983	0.02723	0.00063
303.15	0.4881	0.0304	0.0007
303.15	0.5909	0.033	0.00077
303.15	0.6958	0.0346	0.00081
303.15	0.8036	0.03657	0.00087
303.15	0.9011	0.0417	0.001
303.15	1	0.05648	0.00089
308.15	0	0.000718	2.4e-05
308.15	0.1846	0.01262	0.0003
308.15	0.2005	0.01352	0.00032
308.15	0.3357	0.02032	0.00047
308.15	0.3983	0.0223	0.00052
308.15	0.4881	0.025	0.00058
308.15	0.5909	0.0265	0.00062
308.15	0.6958	0.0276	0.00065
308.15	0.8036	0.02922	0.00069
308.15	0.9011	0.03319	0.00079
308.15	1	0.0453	0.00107
313.15	0	0.000651	2.2e-05
313.15	0.1846	0.01093	0.00026
313.15	0.2005	0.01172	0.00028
313.15	0.3357	0.01717	0.0004
313.15	0.3983	0.01894	0.00044
313.15	0.4881	0.02082	0.00048
313.15	0.5909	0.02189	0.00051
313.15	0.6958	0.0228	0.00053
313.15	0.8036	0.02417	0.00057
313.15	0.9011	0.02732	0.00064
313.15	1	0.03692	0.00087
318.15	0	0.000587	2e-05
318.15	0.1846	0.009916	0.000241
318.15	0.2005	0.0104	0.00025
318.15	0.3357	0.0149	0.00035
318.15	0.3983	0.01616	0.00038
318.15	0.4881	0.01787	0.00041
318.15	0.5909	0.0186	0.00043
318.15	0.6958	0.01922	0.00045
318.15	0.8036	0.02039	0.00048
318.15	0.9011	0.02317	0.00054
318.15	1	0.03056	0.00072
323.15	0	0.000556	2e-05
323.15	0.1846	0.009303	0.000228
323.15	0.2005	0.009764	0.000237
323.15	0.3357	0.0134	0.00032
323.15	0.3983	0.01435	0.00034
323.15	0.4881	0.01572	0.00037
323.15	0.5909	0.01617	0.00038
323.15	0.6958	0.01685	0.0004
323.15	0.8036	0.01755	0.00041
323.15	0.9011	0.01977	0.00046
323.15	1	0.02533	0.00061
