Measured thermophysical data. Thermodynamic Study of the Three Fluorobenzamides: Vapor Pressures, Phase Diagrams, and Hydrogen Bonds
Source: J. Chem. Eng. Data, 2010, 10.1021/je100801s
Compound 1: o-fluorobenzamide, C7H6FNO, InChI=1S/C7H6FNO/c8-6-4-2-1-3-5(6)7(9)10/h1-4H,(H2,9,10), purity 98%
Compound 2: 3-fluorobenzamide, C7H6FNO, InChI=1S/C7H6FNO/c8-6-3-1-2-5(4-6)7(9)10/h1-4H,(H2,9,10), purity 99%
Compound 3: 4-fluorobenzamide, C7H6FNO, InChI=1S/C7H6FNO/c8-6-3-1-5(2-4-6)7(9)10/h1-4H,(H2,9,10), purity 99.6%

System: o-fluorobenzamide; phases: Crystal, Liquid, Air at 1 atmosphere
Property: Molar enthalpy of transition or fusion, kJ/mol (Crystal); method: DSC
Molar enthalpy of transition or fusion, kJ/mol	uncertainty
20.7	0.5

System: o-fluorobenzamide; phases: Crystal, Liquid, Air at 1 atmosphere
Property: Normal melting temperature, K (Crystal); method: DTA
Normal melting temperature, K	uncertainty
388.49	0.52

System: o-fluorobenzamide; phases: Crystal, Gas
Property: Vapor or sublimation pressure, kPa (Crystal); method: Calculated from knudsen effusion weight loss
Temperature, K	Vapor or sublimation pressure, kPa	uncertainty
303.12	0.000102	2e-05
305.21	0.00013	2.1e-05
307.19	0.000166	2.1e-05
309.12	0.000213	2.1e-05
311.2	0.00027	2.2e-05
313.29	0.000341	2.3e-05
315.11	0.000429	2.5e-05
317.2	0.00054	2.8e-05
319.18	0.000668	3.1e-05
321.11	0.000843	3.6e-05
323.18	0.001059	8.3e-05
325.18	0.001295	0.000106

System: o-fluorobenzamide; phases: Crystal, Gas
Property: Vapor or sublimation pressure, kPa (Crystal); method: Closed cell (Static) method
Temperature, K	Vapor or sublimation pressure, kPa	uncertainty
317.98	0.0006	0.00011
320.48	0.0008	0.00011
322.94	0.00105	0.00012
325.41	0.00137	0.00012
327.86	0.00175	0.00013
330.38	0.00233	0.00015
332.86	0.003	0.00016
335.32	0.0038	0.00019
337.75	0.00484	0.00022
340.21	0.00617	0.00027
342.7	0.00785	0.00033
345.32	0.01002	0.00041
350.2	0.01581	0.00056
355.69	0.02544	0.00071
357.75	0.03116	0.0008
360.13	0.03777	0.0009
362.71	0.04753	0.00105
365.1	0.05735	0.0012
370.04	0.08597	0.00164
372.63	0.1058	0.002
377.6	0.1572	0.0022

System: o-fluorobenzamide; phases: Liquid, Gas
Property: Vapor or sublimation pressure, kPa (Liquid); method: Closed cell (Static) method
Temperature, K	Vapor or sublimation pressure, kPa	uncertainty
358.65	0.05979	0.00124
361.55	0.07225	0.00143
364.59	0.08814	0.00168
367.55	0.1048	0.0019
370.55	0.126	0.0023
375.47	0.1688	0.0023
380.43	0.225	0.0028
385.38	0.2972	0.0034
391.35	0.4081	0.0043
394.82	0.4892	0.005
397.41	0.5572	0.0056
399.81	0.6302	0.0063
402.34	0.7124	0.007
404.79	0.8064	0.0078
407.26	0.9115	0.0087
409.66	1.024	0.01
412.16	1.147	0.011

System: 3-fluorobenzamide; phases: Crystal, Liquid, Air at 1 atmosphere
Property: Molar enthalpy of transition or fusion, kJ/mol (Crystal); method: DSC
Molar enthalpy of transition or fusion, kJ/mol	uncertainty
21.5	0.5

System: 3-fluorobenzamide; phases: Crystal, Liquid, Air at 1 atmosphere
Property: Normal melting temperature, K (Crystal); method: DTA
Normal melting temperature, K	uncertainty
401.58	0.39

System: 3-fluorobenzamide; phases: Crystal, Gas
Property: Vapor or sublimation pressure, kPa (Crystal); method: Calculated from knudsen effusion weight loss
Temperature, K	Vapor or sublimation pressure, kPa	uncertainty
323.1	9e-05	2e-05
325.17	0.000114	2e-05
327.18	0.000143	2.1e-05
329.08	0.000183	2.1e-05
331.13	0.000229	2.2e-05
333.18	0.000286	2.2e-05
337.28	0.000461	2.6e-05
339.17	0.000559	2.8e-05
341.08	0.000688	3.2e-05
343.13	0.000842	3.6e-05
345.18	0.001032	8.1e-05

System: 3-fluorobenzamide; phases: Crystal, Gas
Property: Vapor or sublimation pressure, kPa (Crystal); method: Closed cell (Static) method
Temperature, K	Vapor or sublimation pressure, kPa	uncertainty
336.83	0.00046	0.00012
339.76	0.00063	0.00012
342.87	0.00089	0.00012
345.87	0.0012	0.00013
348.82	0.00166	0.00013
351.66	0.00222	0.00015
354.65	0.003	0.00017
357.76	0.00407	0.0002
360.59	0.00535	0.00024
363.62	0.0071	0.0003
366.55	0.00941	0.00039
372.5	0.01592	0.00056
375.47	0.02067	0.00064
378.58	0.02712	0.00074
384.49	0.04471	0.00101
387.47	0.05659	0.00119
390.45	0.07258	0.00144
396.38	0.1148	0.0021

System: 3-fluorobenzamide; phases: Liquid, Gas
Property: Vapor or sublimation pressure, kPa (Liquid); method: Closed cell (Static) method
Temperature, K	Vapor or sublimation pressure, kPa	uncertainty
382.58	0.0587	0.00122
387.53	0.07955	0.00154
392.49	0.108	0.002
397.43	0.1444	0.0021
402.37	0.1895	0.0025
407.27	0.2514	0.003
412.23	0.3264	0.0036
417.16	0.4262	0.0045
422.04	0.5472	0.0055
427.02	0.7039	0.0069
432	0.9006	0.0086

System: 4-fluorobenzamide; phases: Crystal, Liquid, Air at 1 atmosphere
Property: Molar enthalpy of transition or fusion, kJ/mol (Crystal); method: DSC
Molar enthalpy of transition or fusion, kJ/mol	uncertainty
19.5	0.7

System: 4-fluorobenzamide; phases: Crystal, Liquid, Air at 1 atmosphere
Property: Normal melting temperature, K (Crystal); method: DTA
Normal melting temperature, K	uncertainty
429.19	0.39

System: 4-fluorobenzamide; phases: Crystal, Gas
Property: Vapor or sublimation pressure, kPa (Crystal); method: Closed cell (Static) method
Temperature, K	Vapor or sublimation pressure, kPa	uncertainty
344.79	0.0007	0.00012
347.76	0.00097	0.00012
350.74	0.0013	0.00013
353.73	0.00174	0.00014
356.7	0.00236	0.00015
359.68	0.00313	0.00017
362.66	0.0041	0.0002
365.63	0.00535	0.00024
368.61	0.00699	0.0003
371.58	0.009	0.00037
374.54	0.01167	0.00047
377.53	0.015	0.00055
380.48	0.01934	0.00062
383.47	0.02445	0.00069
386.43	0.03134	0.0008
392.35	0.04995	0.00109
395.33	0.06299	0.00129
398.28	0.07872	0.00153
401.25	0.09854	0.00184
404.24	0.1266	0.0023
407.22	0.1568	0.0022
410.16	0.1944	0.0025
413.14	0.2396	0.0029
416.1	0.2948	0.0034
419.06	0.3637	0.004
422.01	0.4419	0.0046
424.99	0.538	0.0055

System: 4-fluorobenzamide; phases: Liquid, Gas
Property: Vapor or sublimation pressure, kPa (Liquid); method: Closed cell (Static) method
Temperature, K	Vapor or sublimation pressure, kPa	uncertainty
410.2	0.2629	0.0031
412.16	0.2902	0.0033
414.13	0.3222	0.0036
416.11	0.3584	0.0039
418.11	0.3963	0.0042
420.05	0.4398	0.0046
422.03	0.4862	0.005
424.02	0.5382	0.0055
426	0.593	0.0059
427.93	0.6524	0.0065
429.92	0.719	0.007
431.89	0.7879	0.0076
433.87	0.8708	0.0084
435.84	0.9508	0.009
437.82	1.04	0.01
