Measured thermophysical data. Densities and Viscosities of Fatty Acid Methyl and Ethyl Esters
Source: J. Chem. Eng. Data, 2010, 10.1021/je100042c
Compound 1: ethyl decanoate, C12H24O2, InChI=1S/C12H24O2/c1-3-5-6-7-8-9-10-11-12(13)14-4-2/h3-11H2,1-2H3
Compound 2: ethyl dodecanoate, C14H28O2, InChI=1S/C14H28O2/c1-3-5-6-7-8-9-10-11-12-13-14(15)16-4-2/h3-13H2,1-2H3
Compound 3: ethyl tetradecanoate, C16H32O2, InChI=1S/C16H32O2/c1-3-5-6-7-8-9-10-11-12-13-14-15-16(17)18-4-2/h3-15H2,1-2H3
Compound 4: ethyl hexadecanoate, C18H36O2, InChI=1S/C18H36O2/c1-3-5-6-7-8-9-10-11-12-13-14-15-16-17-18(19)20-4-2/h3-17H2,1-2H3
Compound 5: ethyl octadecanoate, C20H40O2, InChI=1S/C20H40O2/c1-3-5-6-7-8-9-10-11-12-13-14-15-16-17-18-19-20(21)22-4-2/h3-19H2,1-2H3
Compound 6: ethyl (Z)-9-octadeceneoate, C20H38O2, InChI=1S/C20H38O2/c1-3-5-6-7-8-9-10-11-12-13-14-15-16-17-18-19-20(21)22-4-2/h11-12H,3-10,13-19H2,1-2H3/b12-11-
Compound 7: methyl octanoate, C9H18O2, InChI=1S/C9H18O2/c1-3-4-5-6-7-8-9(10)11-2/h3-8H2,1-2H3
Compound 8: methyl decanoate, C11H22O2, InChI=1S/C11H22O2/c1-3-4-5-6-7-8-9-10-11(12)13-2/h3-10H2,1-2H3
Compound 9: methyl dodecanoate, C13H26O2, InChI=1S/C13H26O2/c1-3-4-5-6-7-8-9-10-11-12-13(14)15-2/h3-12H2,1-2H3
Compound 10: methyl tetradecanoate, C15H30O2, InChI=1S/C15H30O2/c1-3-4-5-6-7-8-9-10-11-12-13-14-15(16)17-2/h3-14H2,1-2H3
Compound 11: methyl hexadecanoate, C17H34O2, InChI=1S/C17H34O2/c1-3-4-5-6-7-8-9-10-11-12-13-14-15-16-17(18)19-2/h3-16H2,1-2H3
Compound 12: methyl octadecanoate, C19H38O2, InChI=1S/C19H38O2/c1-3-4-5-6-7-8-9-10-11-12-13-14-15-16-17-18-19(20)21-2/h3-18H2,1-2H3
Compound 13: methyl cis-9-octadecenoate, C19H36O2, InChI=1S/C19H36O2/c1-3-4-5-6-7-8-9-10-11-12-13-14-15-16-17-18-19(20)21-2/h10-11H,3-9,12-18H2,1-2H3/b11-10-
Compound 14: methyl (Z,Z)-9,12-octadecadienate, C19H34O2, InChI=1S/C19H34O2/c1-3-4-5-6-7-8-9-10-11-12-13-14-15-16-17-18-19(20)21-2/h7-8,10-11H,3-6,9,12-18H2,1-2H3/b8-7-,11-10-

System: ethyl decanoate; phases: Liquid
Fixed: Pressure, kPa = 101.325
Property: Viscosity, Pa*s (Liquid); method: Concentric cylinders viscometry
Temperature, K	Viscosity, Pa*s	uncertainty
283.15	0.002896	2.76e-05
288.15	0.0025882	2.49e-05
293.15	0.0023263	2.25e-05
298.15	0.0021029	2.05e-05
303.15	0.0019111	1.88e-05
308.15	0.0017453	1.73e-05
313.15	0.0016	1.6e-05
318.15	0.0014729	1.49e-05
323.15	0.0013599	1.39e-05
328.15	0.0012594	1.3e-05
333.15	0.0011695	1.22e-05
338.15	0.0010892	1.15e-05
343.15	0.0010171	1.09e-05
348.15	0.0009516	1.03e-05
353.15	0.0008929	9.8e-06

System: ethyl decanoate; phases: Liquid
Fixed: Pressure, kPa = 101.325
Property: Mass density, kg/m3 (Liquid); method: Vibrating tube method
Temperature, K	Mass density, kg/m3	uncertainty
283.15	872.5	1
288.15	868.4	1
293.15	864.3	1
298.15	860.2	1
303.15	856.2	1
308.15	852.1	1
313.15	848	1
318.15	843.9	1
323.15	839.8	1
328.15	835.7	1
333.15	831.6	1
338.15	827.5	1
343.15	823.4	1
348.15	819.2	1
353.15	815.1	1

System: ethyl dodecanoate; phases: Liquid
Fixed: Pressure, kPa = 101.325
Property: Viscosity, Pa*s (Liquid); method: Concentric cylinders viscometry
Temperature, K	Viscosity, Pa*s	uncertainty
283.15	0.0043353	4.07e-05
288.15	0.0038135	3.6e-05
293.15	0.0033797	3.2e-05
298.15	0.0030152	2.87e-05
303.15	0.0027073	2.59e-05
308.15	0.0024455	2.36e-05
313.15	0.0022198	2.15e-05
318.15	0.002024	1.98e-05
323.15	0.0018531	1.82e-05
328.15	0.0017037	1.69e-05
333.15	0.0015703	1.57e-05
338.15	0.0014529	1.47e-05
343.15	0.0013486	1.38e-05
348.15	0.0012543	1.29e-05
353.15	0.0011708	1.22e-05

System: ethyl dodecanoate; phases: Liquid
Fixed: Pressure, kPa = 101.325
Property: Mass density, kg/m3 (Liquid); method: Vibrating tube method
Temperature, K	Mass density, kg/m3	uncertainty
283.15	870.3	1
288.15	866.4	1
293.15	862.4	1
298.15	858.5	1
303.15	854.6	1
308.15	850.7	1
313.15	846.8	1
318.15	842.9	1
323.15	839	1
328.15	835.1	1
333.15	831.1	1
338.15	827.2	1
343.15	823.3	1
348.15	819.4	1
353.15	815.4	1

System: ethyl tetradecanoate; phases: Liquid
Fixed: Pressure, kPa = 101.325
Property: Viscosity, Pa*s (Liquid); method: Concentric cylinders viscometry
Temperature, K	Viscosity, Pa*s	uncertainty
283.15	0.0062601	5.83e-05
288.15	0.0054303	5.08e-05
293.15	0.0047492	4.45e-05
298.15	0.004188	3.94e-05
303.15	0.0037207	3.51e-05
308.15	0.0033278	3.16e-05
313.15	0.0029928	2.85e-05
318.15	0.0027056	2.59e-05
323.15	0.0024579	2.37e-05
328.15	0.0022423	2.17e-05
333.15	0.0020549	2e-05
338.15	0.0018891	1.86e-05
343.15	0.0017432	1.73e-05
348.15	0.0016139	1.61e-05
353.15	0.0014986	1.51e-05

System: ethyl tetradecanoate; phases: Liquid
Fixed: Pressure, kPa = 101.325
Property: Mass density, kg/m3 (Liquid); method: Vibrating tube method
Temperature, K	Mass density, kg/m3	uncertainty
283.15	868.7	1
288.15	864.8	1
293.15	861	1
298.15	857.2	1
303.15	853.4	1
308.15	849.6	1
313.15	845.8	1
318.15	842	1
323.15	838.2	1
328.15	834.5	1
333.15	830.7	1
338.15	826.9	1
343.15	823.1	1
348.15	819.4	1
353.15	815.6	1

System: ethyl hexadecanoate; phases: Liquid
Fixed: Pressure, kPa = 101.325
Property: Viscosity, Pa*s (Liquid); method: Concentric cylinders viscometry
Temperature, K	Viscosity, Pa*s	uncertainty
303.15	0.0050107	4.68e-05
308.15	0.0044399	4.17e-05
313.15	0.0039558	3.72e-05
318.15	0.0035472	3.35e-05
323.15	0.0031973	3.04e-05
328.15	0.0028969	2.76e-05
333.15	0.0026373	2.53e-05
338.15	0.0024121	2.33e-05
343.15	0.002214	2.15e-05
348.15	0.0020391	1.99e-05
353.15	0.0018842	1.85e-05
358.15	0.0017464	1.73e-05
363.15	0.0016233	1.62e-05

System: ethyl hexadecanoate; phases: Liquid
Fixed: Pressure, kPa = 101.325
Property: Mass density, kg/m3 (Liquid); method: Vibrating tube method
Temperature, K	Mass density, kg/m3	uncertainty
303.15	852.6	1
308.15	848.9	1
313.15	845.2	1
318.15	841.5	1
323.15	837.9	1
328.15	834.2	1
333.15	830.5	1
338.15	826.9	1
343.15	823.2	1
348.15	819.5	1
353.15	815.9	1
358.15	812.2	1
363.15	808.6	1

System: ethyl octadecanoate; phases: Liquid
Fixed: Pressure, kPa = 101.325
Property: Viscosity, Pa*s (Liquid); method: Concentric cylinders viscometry
Temperature, K	Viscosity, Pa*s	uncertainty
313.15	0.0050823	4.75e-05
318.15	0.0045285	4.24e-05
323.15	0.0040574	3.82e-05
328.15	0.0036535	3.45e-05
333.15	0.0033073	3.13e-05
338.15	0.0030072	2.86e-05
343.15	0.0027439	2.62e-05
348.15	0.0025153	2.42e-05
353.15	0.0023132	2.24e-05
358.15	0.0021355	2.08e-05
363.15	0.0019777	1.93e-05

System: ethyl octadecanoate; phases: Liquid
Fixed: Pressure, kPa = 101.325
Property: Mass density, kg/m3 (Liquid); method: Vibrating tube method
Temperature, K	Mass density, kg/m3	uncertainty
313.15	844.8	1
318.15	841.1	1
323.15	837.5	1
328.15	833.9	1
333.15	830.3	1
338.15	826.7	1
343.15	823.1	1
348.15	819.5	1
353.15	815.9	1
358.15	812.3	1
363.15	808.7	1

System: ethyl (Z)-9-octadeceneoate; phases: Liquid
Fixed: Pressure, kPa = 101.325
Property: Viscosity, Pa*s (Liquid); method: Concentric cylinders viscometry
Temperature, K	Viscosity, Pa*s	uncertainty
278.15	0.01039	0.0001316
283.15	0.0088392	0.0001122
288.15	0.0075953	9.64e-05
293.15	0.0065909	8.38e-05
298.15	0.0057694	7.34e-05
303.15	0.0050921	6.49e-05
308.15	0.0045248	5.77e-05
313.15	0.004048	5.18e-05
318.15	0.0036409	4.66e-05
323.15	0.0032922	4.23e-05
328.15	0.0029905	3.85e-05
333.15	0.0027294	3.52e-05
338.15	0.0025016	3.24e-05
343.15	0.0023014	2.99e-05
348.15	0.0021243	2.77e-05
353.15	0.0019671	2.57e-05
358.15	0.0018272	2.4e-05
363.15	0.0017018	2.24e-05

System: ethyl (Z)-9-octadeceneoate; phases: Liquid
Fixed: Pressure, kPa = 101.325
Property: Mass density, kg/m3 (Liquid); method: Vibrating tube method
Temperature, K	Mass density, kg/m3	uncertainty
278.15	880.5	1.2
283.15	876.9	1.2
288.15	873.2	1.2
293.15	869.5	1.2
298.15	865.9	1.2
303.15	862.2	1.2
308.15	858.5	1.2
313.15	854.9	1.2
318.15	851.3	1.2
323.15	847.6	1.2
328.15	844	1.2
333.15	840.4	1.2
338.15	836.8	1.2
343.15	833.1	1.2
348.15	829.5	1.2
353.15	825.9	1.2
358.15	822.3	1.2
363.15	818.7	1.2

System: methyl octanoate; phases: Liquid
Fixed: Pressure, kPa = 101.325
Property: Viscosity, Pa*s (Liquid); method: Concentric cylinders viscometry
Temperature, K	Viscosity, Pa*s	uncertainty
283.15	0.0017103	1.7e-05
288.15	0.0015593	1.56e-05
293.15	0.0014275	1.45e-05
298.15	0.0013127	1.34e-05
303.15	0.001212	1.26e-05
308.15	0.0011233	1.18e-05
313.15	0.0010444	1.11e-05
318.15	0.00097334	1.049e-05
323.15	0.00090926	9.94e-06
328.15	0.00085178	9.45e-06
333.15	0.0007998	9.01e-06
338.15	0.00075279	8.61e-06
343.15	0.00071014	8.26e-06
348.15	0.0006713	7.94e-06
353.15	0.00063589	7.65e-06

System: methyl octanoate; phases: Liquid
Fixed: Pressure, kPa = 101.325
Property: Mass density, kg/m3 (Liquid); method: Vibrating tube method
Temperature, K	Mass density, kg/m3	uncertainty
283.15	885.9	1
288.15	881.5	1
293.15	877.1	1
298.15	872.8	1
303.15	868.4	1
308.15	864	1
313.15	859.6	1
318.15	855.2	1
323.15	850.8	1
328.15	846.4	1
333.15	841.9	1
338.15	837.5	1
343.15	833	1
348.15	828.5	1
353.15	824	1

System: methyl decanoate; phases: Liquid
Fixed: Pressure, kPa = 101.325
Property: Viscosity, Pa*s (Liquid); method: Concentric cylinders viscometry
Temperature, K	Viscosity, Pa*s	uncertainty
278.15	0.0029888	2.85e-05
283.15	0.0026543	2.55e-05
288.15	0.0023733	2.29e-05
293.15	0.002136	2.08e-05
298.15	0.0019335	1.9e-05
303.15	0.0017601	1.74e-05
308.15	0.0016091	1.61e-05
313.15	0.0014773	1.49e-05
318.15	0.0013613	1.39e-05
323.15	0.0012589	1.3e-05
328.15	0.0011675	1.22e-05
333.15	0.0010864	1.15e-05
338.15	0.0010133	1.08e-05
343.15	0.0009477	1.026e-05
348.15	0.0008886	9.76e-06
353.15	0.0008342	9.3e-06
358.15	0.00078595	8.89e-06
363.15	0.00074207	8.52e-06

System: methyl decanoate; phases: Liquid
Fixed: Pressure, kPa = 101.325
Property: Mass density, kg/m3 (Liquid); method: Vibrating tube method
Temperature, K	Mass density, kg/m3	uncertainty
278.15	884.7	1
283.15	880.6	1
288.15	876.4	1
293.15	872.3	1
298.15	868.2	1
303.15	864.1	1
308.15	860	1
313.15	856	1
318.15	851.9	1
323.15	847.8	1
328.15	843.6	1
333.15	839.5	1
338.15	835.3	1
343.15	831.2	1
348.15	827	1
353.15	822.9	1
358.15	818.7	1
363.15	814.5	1

System: methyl dodecanoate; phases: Liquid
Fixed: Pressure, kPa = 101.325
Property: Viscosity, Pa*s (Liquid); method: Concentric cylinders viscometry
Temperature, K	Viscosity, Pa*s	uncertainty
283.15	0.0040678	5.2e-05
288.15	0.0035771	4.59e-05
293.15	0.0031668	4.07e-05
298.15	0.0028237	3.64e-05
303.15	0.0025356	3.28e-05
308.15	0.0022893	2.97e-05
313.15	0.0020776	2.71e-05
318.15	0.0018944	2.48e-05
323.15	0.0017347	2.28e-05
328.15	0.0015948	2.11e-05
333.15	0.0014714	1.96e-05
338.15	0.0013621	1.82e-05
343.15	0.0012651	1.7e-05
348.15	0.0011781	1.6e-05
353.15	0.0011002	1.5e-05

System: methyl dodecanoate; phases: Liquid
Fixed: Pressure, kPa = 101.325
Property: Mass density, kg/m3 (Liquid); method: Vibrating tube method
Temperature, K	Mass density, kg/m3	uncertainty
283.15	877.7	1.2
288.15	873.7	1.2
293.15	869.8	1.2
298.15	865.8	1.2
303.15	861.8	1.2
308.15	857.9	1.2
313.15	853.9	1.2
318.15	850	1.2
323.15	846.1	1.2
328.15	842.1	1.2
333.15	838.1	1.2
338.15	834.2	1.2
343.15	830.2	1.2
348.15	826.2	1.2
353.15	822.3	1.2

System: methyl tetradecanoate; phases: Liquid
Fixed: Pressure, kPa = 101.325
Property: Viscosity, Pa*s (Liquid); method: Concentric cylinders viscometry
Temperature, K	Viscosity, Pa*s	uncertainty
298.15	0.0039821	5.09e-05
303.15	0.003543	4.54e-05
308.15	0.0031651	4.07e-05
313.15	0.0028447	3.67e-05
318.15	0.0025709	3.33e-05
323.15	0.0023343	3.03e-05
328.15	0.0021295	2.77e-05
333.15	0.0019498	2.55e-05
338.15	0.0017932	2.35e-05
343.15	0.0016549	2.18e-05
348.15	0.0015321	2.03e-05
353.15	0.0014233	1.9e-05

System: methyl tetradecanoate; phases: Liquid
Fixed: Pressure, kPa = 101.325
Property: Mass density, kg/m3 (Liquid); method: Vibrating tube method
Temperature, K	Mass density, kg/m3	uncertainty
298.15	863.7	1.2
303.15	859.9	1.2
308.15	856	1.2
313.15	852.2	1.2
318.15	848.4	1.2
323.15	844.6	1.2
328.15	840.8	1.2
333.15	837	1.2
338.15	833.1	1.2
343.15	829.3	1.2
348.15	825.5	1.2
353.15	821.8	1.2

System: methyl hexadecanoate; phases: Liquid
Fixed: Pressure, kPa = 101.325
Property: Viscosity, Pa*s (Liquid); method: Concentric cylinders viscometry
Temperature, K	Viscosity, Pa*s	uncertainty
308.15	0.0042122	3.96e-05
313.15	0.0037551	3.54e-05
318.15	0.0033682	3.19e-05
323.15	0.0030378	2.89e-05
328.15	0.002754	2.63e-05
333.15	0.0025083	2.41e-05
338.15	0.0022947	2.22e-05
343.15	0.0021073	2.05e-05
348.15	0.0019421	1.9e-05
353.15	0.001796	1.77e-05
358.15	0.0016659	1.66e-05
363.15	0.0015499	1.55e-05

System: methyl hexadecanoate; phases: Liquid
Fixed: Pressure, kPa = 101.325
Property: Mass density, kg/m3 (Liquid); method: Vibrating tube method
Temperature, K	Mass density, kg/m3	uncertainty
308.15	854.5	1
313.15	850.8	1
318.15	847	1
323.15	843.3	1
328.15	839.6	1
333.15	835.8	1
338.15	832.1	1
343.15	828.4	1
348.15	824.7	1
353.15	821	1
358.15	817.3	1
363.15	813.6	1

System: methyl octadecanoate; phases: Liquid
Fixed: Pressure, kPa = 101.325
Property: Viscosity, Pa*s (Liquid); method: Concentric cylinders viscometry
Temperature, K	Viscosity, Pa*s	uncertainty
313.15	0.0049862	4.66e-05
318.15	0.0044348	4.16e-05
323.15	0.0039645	3.73e-05
328.15	0.0035684	3.37e-05
333.15	0.0032252	3.06e-05
338.15	0.0029293	2.79e-05
343.15	0.0026724	2.56e-05
348.15	0.0024477	2.36e-05
353.15	0.0022504	2.18e-05
358.15	0.0020762	2.02e-05
363.15	0.0019217	1.88e-05

System: methyl octadecanoate; phases: Liquid
Fixed: Pressure, kPa = 101.325
Property: Mass density, kg/m3 (Liquid); method: Vibrating tube method
Temperature, K	Mass density, kg/m3	uncertainty
313.15	849.8	1
318.15	846.1	1
323.15	842.5	1
328.15	838.9	1
333.15	835.3	1
338.15	831.7	1
343.15	828.1	1
348.15	824.5	1
353.15	820.9	1
358.15	817.3	1
363.15	813.7	1

System: methyl cis-9-octadecenoate; phases: Liquid
Fixed: Pressure, kPa = 101.325
Property: Viscosity, Pa*s (Liquid); method: Concentric cylinders viscometry
Temperature, K	Viscosity, Pa*s	uncertainty
283.15	0.0086987	8.06e-05
288.15	0.0074518	6.93e-05
293.15	0.0064499	6e-05
298.15	0.0056336	5.26e-05
303.15	0.0049612	4.64e-05
308.15	0.0044012	4.13e-05
313.15	0.0039303	3.7e-05
318.15	0.0035306	3.34e-05
323.15	0.0031892	3.03e-05
328.15	0.0028944	2.76e-05
333.15	0.0026377	2.53e-05
338.15	0.002416	2.33e-05
343.15	0.0022216	2.15e-05
348.15	0.0020499	2e-05
353.15	0.0018974	1.86e-05

System: methyl cis-9-octadecenoate; phases: Liquid
Fixed: Pressure, kPa = 101.325
Property: Mass density, kg/m3 (Liquid); method: Vibrating tube method
Temperature, K	Mass density, kg/m3	uncertainty
283.15	881.4	1
288.15	877.7	1
293.15	874.1	1
298.15	870.4	1
303.15	866.8	1
308.15	863.1	1
313.15	859.5	1
318.15	855.9	1
323.15	852.3	1
328.15	848.7	1
333.15	845.1	1
338.15	841.5	1
343.15	837.9	1
348.15	834.3	1
353.15	830.7	1

System: methyl (Z,Z)-9,12-octadecadienate; phases: Liquid
Fixed: Pressure, kPa = 101.325
Property: Viscosity, Pa*s (Liquid); method: Concentric cylinders viscometry
Temperature, K	Viscosity, Pa*s	uncertainty
278.15	0.0074664	6.93e-05
283.15	0.0064658	6.02e-05
288.15	0.005655	5.28e-05
293.15	0.0049822	4.66e-05
298.15	0.0044275	4.15e-05
303.15	0.0039615	3.73e-05
308.15	0.0035666	3.37e-05
313.15	0.003227	3.06e-05
318.15	0.0029358	2.8e-05
323.15	0.0026822	2.57e-05
328.15	0.0024605	2.37e-05
333.15	0.002266	2.19e-05
338.15	0.0020934	2.04e-05
343.15	0.0019403	1.9e-05
348.15	0.0018038	1.78e-05
353.15	0.0016816	1.67e-05

System: methyl (Z,Z)-9,12-octadecadienate; phases: Liquid
Fixed: Pressure, kPa = 101.325
Property: Mass density, kg/m3 (Liquid); method: Vibrating tube method
Temperature, K	Mass density, kg/m3	uncertainty
278.15	897.2	1
283.15	893.5	1
288.15	889.9	1
293.15	886.2	1
298.15	882.5	1
303.15	878.8	1
308.15	875.2	1
313.15	871.5	1
318.15	867.9	1
323.15	864.3	1
328.15	860.7	1
333.15	857	1
338.15	853.4	1
343.15	849.8	1
348.15	846.1	1
353.15	842.5	1
358.15	838.7	1
363.15	835.1	1
