Measured thermophysical data. Static Relative Dielectric Permittivities of Ionic Liquids at 25 deg C
Source: J. Chem. Eng. Data, 2011, 10.1021/je101184s
Compound 1: 1-methylimidazolium chloride, C4H7ClN2, InChI=1S/C4H6N2.ClH/c1-6-3-2-5-4-6;/h2-4H,1H3;1H
Compound 2: 1-methylimidazolium bromide, C4H7BrN2, InChI=1S/C4H6N2.BrH/c1-6-3-2-5-4-6;/h2-4H,1H3;1H
Compound 3: 1,3-dimethylimidazolium dimethylphosphate, C7H15N2O4P, InChI=1S/C5H9N2.C2H7O4P/c1-6-3-4-7(2)5-6;1-5-7(3,4)6-2/h3-5H,1-2H3;1-2H3,(H,3,4)/q+1;/p-1
Compound 4: 1-ethyl-3-methylimidazolium trifluoromethanesulfonate, C7H11F3N2O3S, InChI=1S/C6H11N2.CHF3O3S/c1-3-8-5-4-7(2)6-8;2-1(3,4)8(5,6)7/h4-6H,3H2,1-2H3;(H,5,6,7)/q+1;/p-1
Compound 5: 1-ethyl-3-methylimidazolium diethyl phosphate, C10H21N2O4P, InChI=1S/C6H11N2.C4H11O4P/c1-3-8-5-4-7(2)6-8;1-3-7-9(5,6)8-4-2/h4-6H,3H2,1-2H3;3-4H2,1-2H3,(H,5,6)/q+1;/p-1
Compound 6: 1-ethyl-3-methylimidazolium hydrogen sulfate, C6H12N2O4S, InChI=1S/C6H11N2.H2O4S/c1-3-8-5-4-7(2)6-8;1-5(2,3)4/h4-6H,3H2,1-2H3;(H2,1,2,3,4)/q+1;/p-1
Compound 7: 1-ethyl-3-methylimidazolium butylsulfonate, C10H20N2O3S, InChI=1S/C6H11N2.C4H10O3S/c1-3-8-5-4-7(2)6-8;1-2-3-4-8(5,6)7/h4-6H,3H2,1-2H3;2-4H2,1H3,(H,5,6,7)/q+1;/p-1
Compound 8: 1-ethyl-3-methylimidazolium ethyl sulfate, C8H16N2O4S, InChI=1S/C6H11N2.C2H6O4S/c1-3-8-5-4-7(2)6-8;1-2-6-7(3,4)5/h4-6H,3H2,1-2H3;2H2,1H3,(H,3,4,5)/q+1;/p-1
Compound 9: 1-butyl-3-methylimidazolium trifluoromethanesulfonate, C9H15F3N2O3S, InChI=1S/C8H15N2.CHF3O3S/c1-3-4-5-10-7-6-9(2)8-10;2-1(3,4)8(5,6)7/h6-8H,3-5H2,1-2H3;(H,5,6,7)/q+1;/p-1
Compound 10: 1-butyl-3-methylimidazolium thiocyanate, C9H15N3S, InChI=1S/C8H15N2.CHNS/c1-3-4-5-10-7-6-9(2)8-10;2-1-3/h6-8H,3-5H2,1-2H3;3H/q+1;/p-1
Compound 11: 1-butyl-3-methylimidazolium tetrafluoroborate, C8H15BF4N2, InChI=1S/C8H15N2.BF4/c1-3-4-5-10-7-6-9(2)8-10;2-1(3,4)5/h6-8H,3-5H2,1-2H3;/q+1;-1
Compound 12: 1-butyl-3-methylimidazolium hexafluorophosphate, C8H15F6N2P, InChI=1S/C8H15N2.F6P/c1-3-4-5-10-7-6-9(2)8-10;1-7(2,3,4,5)6/h6-8H,3-5H2,1-2H3;/q+1;-1
Compound 13: 1-ethyl-2,3-dimethylimidazolium bis[(trifluoromethyl)sulfonyl]imide, C9H13F6N3O4S2, InChI=1S/C7H13N2.C2F6NO4S2/c1-4-9-6-5-8(3)7(9)2;3-1(4,5)14(10,11)9-15(12,13)2(6,7)8/h5-6H,4H2,1-3H3;/q+1;-1
Compound 14: 1-butyl-2,3-dimethylimidazolium hexafluorophosphate, C9H17F6N2P, InChI=1S/C9H17N2.F6P/c1-4-5-6-11-8-7-10(3)9(11)2;1-7(2,3,4,5)6/h7-8H,4-6H2,1-3H3;/q+1;-1
Compound 15: 1-butyl-2,3-dimethylimidazolium tetrafluoroborate, C9H17BF4N2, InChI=1S/C9H17N2.BF4/c1-4-5-6-11-8-7-10(3)9(11)2;2-1(3,4)5/h7-8H,4-6H2,1-3H3;/q+1;-1
Compound 16: 1-butyl-2,3-dimethyl-1H-imidazolium bis(trifluoromethylsulfonyl)amide, C11H17F6N3O4S2, InChI=1S/C9H17N2.C2F6NO4S2/c1-4-5-6-11-8-7-10(3)9(11)2;3-1(4,5)14(10,11)9-15(12,13)2(6,7)8/h7-8H,4-6H2,1-3H3;/q+1;-1
Compound 17: 3-butyl-1,2,4,5-tetramethyl-1H-imidazol-3-ium tetrafluoroborate, C11H21BF4N2, InChI=1S/C11H21N2.BF4/c1-6-7-8-13-10(3)9(2)12(5)11(13)4;2-1(3,4)5/h6-8H2,1-5H3;/q+1;-1
Compound 18: 1-butyl-2,3,4,5-tetramethylimidazolium bis(trifluoromethylsulfonyl)imide, C13H21F6N3O4S2, InChI=1S/C11H21N2.C2F6NO4S2/c1-6-7-8-13-10(3)9(2)12(5)11(13)4;3-1(4,5)14(10,11)9-15(12,13)2(6,7)8/h6-8H2,1-5H3;/q+1;-1
Compound 19: 1-butyl-1-methylpyrrolidinium dicyanamide, C11H20N4, InChI=1S/C9H20N.C2N3/c1-3-4-7-10(2)8-5-6-9-10;3-1-5-2-4/h3-9H2,1-2H3;/q+1;-1
Compound 20: 1-pentyl-1-methylpyrrolidinium 1,1,1-trifluoro-N-[(trifluoromethyl)sulfonyl]methanesulfonamide, C12H22F6N2O4S2, InChI=1S/C10H22N.C2F6NO4S2/c1-3-4-5-8-11(2)9-6-7-10-11;3-1(4,5)14(10,11)9-15(12,13)2(6,7)8/h3-10H2,1-2H3;/q+1;-1
Compound 21: triethylpentylammonium bis(trifluoromethylsulfonyl)imide, C13H26F6N2O4S2, InChI=1S/C11H26N.C2F6NO4S2/c1-5-9-10-11-12(6-2,7-3)8-4;3-1(4,5)14(10,11)9-15(12,13)2(6,7)8/h5-11H2,1-4H3;/q+1;-1
Compound 22: 2-hydroxyethylammonium acetate, C4H11NO3, InChI=1S/C2H7NO.C2H4O2/c3-1-2-4;1-2(3)4/h4H,1-3H2;1H3,(H,3,4)
Compound 23: ethanolammonium nitrate, C2H8N2O4, InChI=1S/C2H7NO.NO3/c3-1-2-4;2-1(3)4/h4H,1-3H2;/q;-1/p+1
Compound 24: 2-hydroxyethylammonium lactate, C5H13NO4, InChI=1S/C3H6O3.C2H7NO/c1-2(4)3(5)6;3-1-2-4/h2,4H,1H3,(H,5,6);4H,1-3H2
Compound 25: triethanolammonium acetate, C8H19NO5, InChI=1S/C6H15NO3.C2H4O2/c8-4-1-7(2-5-9)3-6-10;1-2(3)4/h8-10H,1-6H2;1H3,(H,3,4)
Compound 26: triethanolamine lactate, C9H21NO6, InChI=1S/C6H15NO3.C3H6O3/c8-4-1-7(2-5-9)3-6-10;1-2(4)3(5)6/h8-10H,1-6H2;2,4H,1H3,(H,5,6)
Compound 27: 1-(2-hydroxyethyl)-3-methylimidazolium tetrafluoroborate, C6H11BF4N2O, InChI=1S/C6H11N2O.BF4/c1-7-2-3-8(6-7)4-5-9;2-1(3,4)5/h2-3,6,9H,4-5H2,1H3;/q+1;-1

System: 1-methylimidazolium chloride; phases: Liquid
Property: Relative permittivity at zero frequency (Liquid); method: Coaxial cylinder capacitor
Temperature, K	Pressure, kPa	Relative permittivity at zero frequency	uncertainty
298.15	101.325	13.8	2

System: 1-methylimidazolium bromide; phases: Liquid
Property: Relative permittivity at zero frequency (Liquid); method: Coaxial cylinder capacitor
Temperature, K	Pressure, kPa	Relative permittivity at zero frequency	uncertainty
298.15	101.325	16.6	2.4

System: 1,3-dimethylimidazolium dimethylphosphate; phases: Liquid
Property: Relative permittivity at zero frequency (Liquid); method: Coaxial cylinder capacitor
Temperature, K	Pressure, kPa	Relative permittivity at zero frequency	uncertainty
298.15	101.325	29.6	3

System: 1-ethyl-3-methylimidazolium trifluoromethanesulfonate; phases: Liquid
Property: Relative permittivity at zero frequency (Liquid); method: Coaxial cylinder capacitor
Temperature, K	Pressure, kPa	Relative permittivity at zero frequency	uncertainty
298.15	101.325	16.5	1

System: 1-ethyl-3-methylimidazolium diethyl phosphate; phases: Liquid
Property: Relative permittivity at zero frequency (Liquid); method: Coaxial cylinder capacitor
Temperature, K	Pressure, kPa	Relative permittivity at zero frequency	uncertainty
298.15	101.325	16.9	1.6

System: 1-ethyl-3-methylimidazolium hydrogen sulfate; phases: Liquid
Property: Relative permittivity at zero frequency (Liquid); method: Coaxial cylinder capacitor
Temperature, K	Pressure, kPa	Relative permittivity at zero frequency	uncertainty
298.15	101.325	18.4	2

System: 1-ethyl-3-methylimidazolium butylsulfonate; phases: Liquid
Property: Relative permittivity at zero frequency (Liquid); method: Coaxial cylinder capacitor
Temperature, K	Pressure, kPa	Relative permittivity at zero frequency	uncertainty
298.15	101.325	30	3

System: 1-ethyl-3-methylimidazolium ethyl sulfate; phases: Liquid
Property: Relative permittivity at zero frequency (Liquid); method: Coaxial cylinder capacitor
Temperature, K	Pressure, kPa	Relative permittivity at zero frequency	uncertainty
298.15	101.325	35	3

System: 1-butyl-3-methylimidazolium trifluoromethanesulfonate; phases: Liquid
Property: Relative permittivity at zero frequency (Liquid); method: Coaxial cylinder capacitor
Temperature, K	Pressure, kPa	Relative permittivity at zero frequency	uncertainty
298.15	101.325	12.9	1

System: 1-butyl-3-methylimidazolium thiocyanate; phases: Liquid
Property: Relative permittivity at zero frequency (Liquid); method: Coaxial cylinder capacitor
Temperature, K	Pressure, kPa	Relative permittivity at zero frequency	uncertainty
298.15	101.325	13.7	1.6

System: 1-butyl-3-methylimidazolium tetrafluoroborate; phases: Liquid
Property: Relative permittivity at zero frequency (Liquid); method: Coaxial cylinder capacitor
Temperature, K	Pressure, kPa	Relative permittivity at zero frequency	uncertainty
298.15	101.325	13.9	0.8

System: 1-butyl-3-methylimidazolium hexafluorophosphate; phases: Liquid
Property: Relative permittivity at zero frequency (Liquid); method: Coaxial cylinder capacitor
Temperature, K	Pressure, kPa	Relative permittivity at zero frequency	uncertainty
298.15	101.325	14	1.4

System: 1-ethyl-2,3-dimethylimidazolium bis[(trifluoromethyl)sulfonyl]imide; phases: Liquid
Property: Relative permittivity at zero frequency (Liquid); method: Coaxial cylinder capacitor
Temperature, K	Pressure, kPa	Relative permittivity at zero frequency	uncertainty
298.15	101.325	12.8	0.8

System: 1-butyl-2,3-dimethylimidazolium hexafluorophosphate; phases: Liquid
Property: Relative permittivity at zero frequency (Liquid); method: Coaxial cylinder capacitor
Temperature, K	Pressure, kPa	Relative permittivity at zero frequency	uncertainty
298.15	101.325	9.4	2

System: 1-butyl-2,3-dimethylimidazolium tetrafluoroborate; phases: Liquid
Property: Relative permittivity at zero frequency (Liquid); method: Coaxial cylinder capacitor
Temperature, K	Pressure, kPa	Relative permittivity at zero frequency	uncertainty
298.15	101.325	13.3	1.2

System: 1-butyl-2,3-dimethyl-1H-imidazolium bis(trifluoromethylsulfonyl)amide; phases: Liquid
Property: Relative permittivity at zero frequency (Liquid); method: Coaxial cylinder capacitor
Temperature, K	Pressure, kPa	Relative permittivity at zero frequency	uncertainty
298.15	101.325	14	1.6

System: 3-butyl-1,2,4,5-tetramethyl-1H-imidazol-3-ium tetrafluoroborate; phases: Liquid
Property: Relative permittivity at zero frequency (Liquid); method: Coaxial cylinder capacitor
Temperature, K	Pressure, kPa	Relative permittivity at zero frequency	uncertainty
298.15	101.325	12	1.2

System: 1-butyl-2,3,4,5-tetramethylimidazolium bis(trifluoromethylsulfonyl)imide; phases: Liquid
Property: Relative permittivity at zero frequency (Liquid); method: Coaxial cylinder capacitor
Temperature, K	Pressure, kPa	Relative permittivity at zero frequency	uncertainty
298.15	101.325	15	1.6

System: 1-butyl-1-methylpyrrolidinium dicyanamide; phases: Liquid
Property: Relative permittivity at zero frequency (Liquid); method: Coaxial cylinder capacitor
Temperature, K	Pressure, kPa	Relative permittivity at zero frequency	uncertainty
298.15	101.325	18	1.6

System: 1-pentyl-1-methylpyrrolidinium 1,1,1-trifluoro-N-[(trifluoromethyl)sulfonyl]methanesulfonamide; phases: Liquid
Property: Relative permittivity at zero frequency (Liquid); method: Coaxial cylinder capacitor
Temperature, K	Pressure, kPa	Relative permittivity at zero frequency	uncertainty
298.15	101.325	12.5	1.2

System: triethylpentylammonium bis(trifluoromethylsulfonyl)imide; phases: Liquid
Property: Relative permittivity at zero frequency (Liquid); method: Coaxial cylinder capacitor
Temperature, K	Pressure, kPa	Relative permittivity at zero frequency	uncertainty
298.15	101.325	12.5	1.4

System: 2-hydroxyethylammonium acetate; phases: Liquid
Property: Relative permittivity at zero frequency (Liquid); method: Coaxial cylinder capacitor
Temperature, K	Pressure, kPa	Relative permittivity at zero frequency	uncertainty
298.15	101.325	58.3	5

System: ethanolammonium nitrate; phases: Liquid
Property: Relative permittivity at zero frequency (Liquid); method: Coaxial cylinder capacitor
Temperature, K	Pressure, kPa	Relative permittivity at zero frequency	uncertainty
298.15	101.325	60.9	4

System: 2-hydroxyethylammonium lactate; phases: Liquid
Property: Relative permittivity at zero frequency (Liquid); method: Coaxial cylinder capacitor
Temperature, K	Pressure, kPa	Relative permittivity at zero frequency	uncertainty
298.15	101.325	85.6	8

System: triethanolammonium acetate; phases: Liquid
Property: Relative permittivity at zero frequency (Liquid); method: Coaxial cylinder capacitor
Temperature, K	Pressure, kPa	Relative permittivity at zero frequency	uncertainty
298.15	101.325	31	3

System: triethanolamine lactate; phases: Liquid
Property: Relative permittivity at zero frequency (Liquid); method: Coaxial cylinder capacitor
Temperature, K	Pressure, kPa	Relative permittivity at zero frequency	uncertainty
298.15	101.325	59.7	6

System: 1-(2-hydroxyethyl)-3-methylimidazolium tetrafluoroborate; phases: Liquid
Property: Relative permittivity at zero frequency (Liquid); method: Coaxial cylinder capacitor
Temperature, K	Pressure, kPa	Relative permittivity at zero frequency	uncertainty
298.15	101.325	23.3	2
