Measured thermophysical data. Measurement and Correlation of Solubility Data for CO2 in NaHCO3 Aqueous Solution
Source: J. Chem. Eng. Data, 2011, 10.1021/je1011168
Compound 1: carbon dioxide, CO2, InChI=1S/CO2/c2-1-3, purity 99.9%
Compound 2: sodium bicarbonate, CHNaO3, InChI=1S/CH2O3.Na/c2-1(3)4;/h(H2,2,3,4);/q;+1/p-1, purity 99.8%
Compound 3: water, H2O, InChI=1S/H2O/h1H2, purity 99.9%

System: carbon dioxide + water; phases: Liquid, Gas
Property: Vapor or sublimation pressure, kPa (Liquid); method: Static equilibrium still method
Molality, mol/kg of carbon dioxide	Temperature, K	Vapor or sublimation pressure, kPa	uncertainty
0.0208	323	105	101
0.0598	333	380	104
0.0673	323	392	104
0.1006	313	369	109
0.1281	333	784	118
0.1487	323	798	115
0.1798	313	792	121
0.1948	333	1209	138
0.233	323	1196	133
0.2626	333	1602	166
0.2751	313	1204	130
0.3198	333	2000	204
0.3204	323	1602	158
0.3916	313	1595	159
0.4014	323	1997	182
0.4736	313	1993	209
0.5111	323	2502	213

System: carbon dioxide + sodium bicarbonate + water; phases: Liquid, Gas
Property: Molality, mol/kg of carbon dioxide (Liquid); method: Static equilibrium still method
Temperature, K	Pressure, kPa	Solvent: Molality, mol/kg of sodium bicarbonate	Molality, mol/kg of carbon dioxide	uncertainty
313	310	0.1	0.0725	0.0059
313	357	0.05	0.0806	0.0064
313	369	0	0.1006	0.0084
313	371	0.5	0.0725	0.0058
313	376	1	0.0793	0.0064
313	708	0.05	0.1595	0.0128
313	792	0	0.1798	0.0146
313	824	0.5	0.1617	0.013
313	826	1	0.1529	0.0123
313	856	0.1	0.195	0.0158
313	913	0.05	0.2104	0.017
313	1200	0.1	0.272	0.022
313	1204	0	0.2751	0.0222
313	1221	0.5	0.2349	0.0189
313	1222	1	0.2161	0.0173
313	1289	0.05	0.3014	0.0243
313	1595	0	0.3916	0.0316
313	1605	0.1	0.3608	0.0291
313	1605	0.5	0.3082	0.0248
313	1619	1	0.2806	0.0226
313	1901	0.1	0.4344	0.0351
313	1990	0.05	0.4604	0.0371
313	1990	0.5	0.39	0.0314
313	1993	0	0.4736	0.0382
313	2035	1	0.3462	0.0278
323	105	0	0.0208	0.0029
323	346	1	0.0667	0.0054
323	362	0.1	0.0655	0.0054
323	392	0	0.0673	0.0056
323	399	0.5	0.0769	0.0062
323	579	0.05	0.1091	0.0089
323	793	0.1	0.144	0.0118
323	798	0	0.1487	0.012
323	807	0.5	0.1417	0.0115
323	830	1	0.1331	0.0108
323	939	0.05	0.1745	0.0142
323	1188	0.5	0.201	0.0163
323	1196	0	0.233	0.0188
323	1204	1	0.1816	0.0148
323	1210	0.1	0.2257	0.0184
323	1292	0.05	0.2447	0.0198
323	1599	0.1	0.3024	0.0244
323	1602	0	0.3204	0.026
323	1603	1	0.238	0.0194
323	1605	0.5	0.2682	0.0218
323	1695	0.05	0.3223	0.0261
323	1958	1	0.2884	0.0235
323	1975	0.05	0.3816	0.0309
323	1993	0.5	0.3363	0.0273
323	1997	0	0.4014	0.0325
323	2017	0.1	0.3866	0.0313
323	2502	0	0.5111	0.0412
333	342	1	0.0418	0.0037
333	369	0.05	0.0565	0.0047
333	378	0.1	0.0471	0.004
333	380	0	0.0598	0.0048
333	404	0.5	0.0516	0.0045
333	762	0.05	0.1196	0.0096
333	784	0	0.1281	0.0103
333	790	0.5	0.0984	0.0083
333	822	0.1	0.1117	0.0092
333	853	1	0.0964	0.0082
333	1185	0.1	0.167	0.0136
333	1191	0.5	0.146	0.0122
333	1200	1	0.1277	0.0108
333	1209	0	0.1948	0.0158
333	1363	0.05	0.2157	0.0175
333	1592	0.05	0.2539	0.0206
333	1593	0.1	0.2668	0.0217
333	1595	1	0.1663	0.0142
333	1598	0.5	0.1963	0.0162
333	1602	0	0.2626	0.0214
333	1792	0.05	0.2756	0.0224
333	1955	1	0.1959	0.0168
333	1988	0.1	0.2997	0.0246
333	2000	0	0.3198	0.0262
333	2016	0.5	0.2564	0.0212
