Measured thermophysical data. Vapor-Liquid Equilibria for the Ternary System Acetonitrile + 1-Propanol + Dimethyl Sulfoxide and the Corresponding Binary Systems at 101.3 kPa
Source: J. Chem. Eng. Data, 2010, 10.1021/je100033s
Compound 1: acetonitrile, C2H3N, InChI=1S/C2H3N/c1-2-3/h1H3, purity 99%
Compound 2: propan-1-ol, C3H8O, InChI=1S/C3H8O/c1-2-3-4/h4H,2-3H2,1H3, purity 99%
Compound 3: dimethyl sulfoxide, C2H6OS, InChI=1S/C2H6OS/c1-4(2)3/h1-2H3, purity 99%

System: acetonitrile; phases: Liquid, Gas
Property: Normal boiling temperature, K (Liquid); method: Ebulliometric method (Recirculating still)
Normal boiling temperature, K	uncertainty
354.65	0.2

System: acetonitrile; phases: Liquid
Property: Refractive index (Na D-line) (Liquid); method: Standard Abbe refractometry
Temperature, K	Pressure, kPa	Refractive index (Na D-line)	uncertainty
293.1	101.325	1.3449	0.0007

System: acetonitrile; phases: Liquid
Property: Mass density, kg/m3 (Liquid); method: Pycnometric method
Temperature, K	Pressure, kPa	Mass density, kg/m3	uncertainty
293.1	101.325	783.1	0.7

System: propan-1-ol; phases: Liquid, Gas
Property: Normal boiling temperature, K (Liquid); method: Ebulliometric method (Recirculating still)
Normal boiling temperature, K	uncertainty
370.24	0.2

System: propan-1-ol; phases: Liquid
Property: Refractive index (Na D-line) (Liquid); method: Standard Abbe refractometry
Temperature, K	Pressure, kPa	Refractive index (Na D-line)	uncertainty
293.1	101.325	1.386	0.0007

System: propan-1-ol; phases: Liquid
Property: Mass density, kg/m3 (Liquid); method: Pycnometric method
Temperature, K	Pressure, kPa	Mass density, kg/m3	uncertainty
293.1	101.325	804	0.7

System: dimethyl sulfoxide; phases: Liquid, Gas
Property: Normal boiling temperature, K (Liquid); method: Ebulliometric method (Recirculating still)
Normal boiling temperature, K	uncertainty
462.06	0.2

System: dimethyl sulfoxide; phases: Liquid
Property: Refractive index (Na D-line) (Liquid); method: Standard Abbe refractometry
Temperature, K	Pressure, kPa	Refractive index (Na D-line)	uncertainty
298.1	101.325	1.4775	0.0007

System: dimethyl sulfoxide; phases: Liquid
Property: Mass density, kg/m3 (Liquid); method: Pycnometric method
Temperature, K	Pressure, kPa	Mass density, kg/m3	uncertainty
298.1	101.325	1096.1	1

System: propan-1-ol + acetonitrile; phases: Liquid, Gas
Fixed: Pressure, kPa = 101.3
Property: Boiling temperature at pressure P, K (Liquid); method: EBULLIO:UFactor:2
Mole fraction of acetonitrile	Boiling temperature at pressure P, K	uncertainty
0.0615	363.98	0.27
0.1121	361.38	0.24
0.1519	360.19	0.2
0.2086	359.06	0.19
0.2539	358.3	0.18
0.291	357.68	0.18
0.3498	356.64	0.19
0.4115	355.56	0.18
0.4661	354.73	0.18
0.5132	354.15	0.18
0.5707	353.68	0.17
0.63	353.4	0.17
0.6907	353.22	0.17
0.7235	353.13	0.17
0.7792	352.92	0.17
0.8283	352.97	0.17
0.8824	353.18	0.17
0.9451	353.69	0.18
0.9776	354.07	0.18
0.9953	354.22	0.17

System: propan-1-ol + acetonitrile; phases: Gas, Liquid
Fixed: Pressure, kPa = 101.3
Property: Mole fraction of acetonitrile (Gas); method: Chromatography
Mole fraction of acetonitrile	Mole fraction of acetonitrile	uncertainty
0.0615	0.2058	0.0101
0.1121	0.321	0.0096
0.1519	0.3916	0.0082
0.2086	0.4712	0.0079
0.2539	0.527	0.007
0.291	0.5576	0.0064
0.3498	0.5945	0.006
0.4115	0.6237	0.0057
0.4661	0.6454	0.0055
0.5132	0.6629	0.0054
0.5707	0.6842	0.0053
0.63	0.7072	0.0052
0.6907	0.7324	0.0051
0.7235	0.747	0.0051
0.7792	0.7739	0.0051
0.8283	0.8014	0.0052
0.8824	0.8399	0.0055
0.9451	0.901	0.0059
0.9776	0.9398	0.0065
0.9953	0.9654	0.007

System: dimethyl sulfoxide + acetonitrile; phases: Liquid, Gas
Fixed: Pressure, kPa = 101.3
Property: Boiling temperature at pressure P, K (Liquid); method: EBULLIO:UFactor:2
Mole fraction of acetonitrile	Boiling temperature at pressure P, K	uncertainty
0.0295	439.01	0.22
0.0603	421.43	0.22
0.0911	409.64	0.22
0.1215	400.63	0.22
0.1801	389.11	0.22
0.2123	384.56	0.22
0.2556	379.48	0.22
0.2803	376.98	0.22
0.3314	372.81	0.22
0.3727	370.01	0.22
0.4237	367.35	0.22
0.5032	363.87	0.22
0.5319	362.92	0.22
0.58	361.58	0.22
0.6331	360.32	0.22
0.7	358.99	0.22
0.7222	358.62	0.22
0.7918	357.61	0.22
0.8309	357.11	0.22
0.8876	356.45	0.22
0.9204	356.01	0.22
0.97	355.29	0.22

System: dimethyl sulfoxide + acetonitrile; phases: Gas, Liquid
Fixed: Pressure, kPa = 101.3
Property: Mole fraction of acetonitrile (Gas); method: Chromatography
Mole fraction of acetonitrile	Mole fraction of acetonitrile	uncertainty
0.0295	0.5056	0.0261
0.0603	0.7008	0.0207
0.0911	0.8156	0.0117
0.1215	0.8662	0.0062
0.1801	0.9198	0.0053
0.2123	0.9398	0.0044
0.2556	0.9531	0.0042
0.2803	0.959	0.004
0.3314	0.9675	0.0041
0.3727	0.9722	0.004
0.4237	0.9766	0.004
0.5032	0.9816	0.004
0.5319	0.9829	0.004
0.58	0.9848	0.004
0.6331	0.9865	0.004
0.7	0.9883	0.004
0.7222	0.9888	0.004
0.7918	0.9903	0.004
0.8309	0.9911	0.004
0.8876	0.9925	0.004
0.9204	0.9935	0.004
0.97	0.9962	0.0038

System: dimethyl sulfoxide + propan-1-ol; phases: Liquid, Gas
Fixed: Pressure, kPa = 101.3
Property: Boiling temperature at pressure P, K (Liquid); method: EBULLIO:UFactor:2
Mole fraction of propan-1-ol	Boiling temperature at pressure P, K	uncertainty
0.0198	458.68	0.88
0.0611	449.78	0.84
0.1136	439.47	0.78
0.1448	433.86	0.7
0.1927	425.94	0.67
0.2157	422.43	0.63
0.2519	416.98	0.58
0.3013	410.51	0.5
0.3709	402.97	0.45
0.42	398.33	0.4
0.4715	394.01	0.35
0.5439	388.94	0.32
0.5908	385.99	0.29
0.6337	383.79	0.27
0.6806	381.45	0.25
0.7417	378.89	0.24
0.7722	377.59	0.23
0.8134	376.05	0.22
0.8536	374.65	0.22
0.8925	373.35	0.21
0.9309	372.28	0.2
0.9594	371.51	0.2

System: dimethyl sulfoxide + propan-1-ol; phases: Gas, Liquid
Fixed: Pressure, kPa = 101.3
Property: Mole fraction of propan-1-ol (Gas); method: Chromatography
Mole fraction of propan-1-ol	Mole fraction of propan-1-ol	uncertainty
0.0198	0.1267	0.021
0.0611	0.3394	0.0185
0.1136	0.5456	0.0155
0.1448	0.6373	0.0112
0.1927	0.7435	0.0097
0.2157	0.7864	0.0075
0.2519	0.8329	0.0061
0.3013	0.8782	0.0051
0.3709	0.9196	0.0046
0.42	0.9378	0.0043
0.4715	0.9532	0.0042
0.5439	0.9685	0.0041
0.5908	0.9752	0.004
0.6337	0.9803	0.004
0.6806	0.9849	0.004
0.7417	0.9895	0.004
0.7722	0.9913	0.004
0.8134	0.9935	0.004
0.8536	0.9953	0.004
0.8925	0.9968	0.0032
0.9309	0.998	0.002
0.9594	0.9988	0.0012

System: dimethyl sulfoxide + propan-1-ol + acetonitrile; phases: Liquid, Gas
Fixed: Pressure, kPa = 101.3
Property: Mole fraction of propan-1-ol (Liquid); method: Chromatography
Property: Mole fraction of propan-1-ol (Gas); method: Chromatography
Property: Mole fraction of acetonitrile (Gas); method: Chromatography
Temperature, K	Mole fraction of acetonitrile	Mole fraction of propan-1-ol	uncertainty	Mole fraction of propan-1-ol	uncertainty	Mole fraction of acetonitrile	uncertainty
355.26	0.8148	0.1003	0.0041	0.0817	0.0041	0.9108	
356.72	0.5042	0.3924	0.0049	0.2764	0.0047	0.7186	
358.84	0.2827	0.6513	0.0048	0.4381	0.0056	0.5605	
360.97	0.316	0.5063	0.0054	0.3636	0.0051	0.6342	
366.4	0.2348	0.4565	0.0052	0.3845	0.0053	0.6133	
367.92	0.1069	0.723	0.0045	0.6433	0.0053	0.3554	
373.45	0.1285	0.5214	0.0053	0.5423	0.0058	0.4391	
379.68	0.2301	0.1526	0.0041	0.1192	0.0041	0.846	
382.32	0.0441	0.5427	0.0052	0.7756	0.0046	0.2027	
385.15	0.1021	0.3715	0.0048	0.5205	0.006	0.4667	
388.31	0.1298	0.2631	0.0044	0.353	0.0051	0.6234	
390.87	0.0907	0.3204	0.0046	0.5021	0.0061	0.4735	
399.68	0.1219	0.0683	0.004	0.0767	0.0041	0.8121	
404.78	0.1023	0.0345	0.004	0.0402	0.004	0.797	
408.1	0.0923	0.0592	0.004	0.0873	0.0041	0.7648	
