Measured thermophysical data. Thermodynamic Properties of 1-Propyl-3-methylimidazolium Glutamic Acid Salt
Source: J. Chem. Eng. Data, 2010, 10.1021/je100131c
Compound 1: 3-methyl-1-propyl-1H-imidazolium (S)-2-amino-4-carboxybutanoate, C12H21N3O4, InChI=1S/C7H13N2.C5H9NO4/c1-3-4-9-6-5-8(2)7-9;6-3(5(9)10)1-2-4(7)8/h5-7H,3-4H2,1-2H3;3H,1-2,6H2,(H,7,8)(H,9,10)/q+1;/p-1/t;3-/m.0/s1

System: 3-methyl-1-propyl-1H-imidazolium (S)-2-amino-4-carboxybutanoate; phases: Glass, Liquid, Gas
Property: Triple point temperature, K (Glass); method: Adiabatic calorimetry
Triple point temperature, K	uncertainty
240	3

System: 3-methyl-1-propyl-1H-imidazolium (S)-2-amino-4-carboxybutanoate; phases: Glass
Fixed: Pressure, kPa = 101.325
Property: Molar heat capacity at constant pressure, J/K/mol (Glass); method: VADIAC:UFactor:4
Temperature, K	Molar heat capacity at constant pressure, J/K/mol	uncertainty
86.074	150.25	1.36
88.048	152.63	1.38
90.009	154.9	1.42
91.965	157.5	1.43
93.946	159.49	1.44
95.918	162.14	1.45
97.887	164.13	1.46
99.854	166.66	1.47
102.593	169.25	1.48
105.331	173.04	1.49
107.277	175.8	1.5
109.244	177.98	1.51
111.235	179.21	1.52
113.197	181.07	1.52
115.139	183.75	1.54
117.103	185.58	1.54
119.091	186.96	1.55
121.056	188.82	1.56
123.004	191.13	1.56
124.974	193.29	1.57
126.97	194.36	1.58
128.941	196.26	1.59
130.895	199.43	1.6
132.836	200.78	1.6
134.792	203.07	1.61
136.778	204.43	1.62
138.747	206.24	1.63
140.703	207.69	1.63
142.645	208.89	1.64
144.607	211.05	1.64
146.596	212.89	1.65
148.567	215.15	1.66
150.535	216.91	1.67
153.036	219.16	1.68
155.557	221.42	1.69
157.531	223.77	1.7
159.493	225.64	1.7
161.44	227	1.71
163.376	228.24	1.71
165.298	230.3	1.72
167.266	232.18	1.73
169.282	234.1	1.74
171.285	236.74	1.75
173.274	237.97	1.75
175.247	240.31	1.76
177.213	242.87	1.77
179.17	243.7	1.77
181.114	245.51	1.78
183.047	248.04	1.79
185.03	250.2	1.8
187.051	252.7	1.81
189.061	255.28	1.82
191.064	257.14	1.83
193.052	259.68	1.84
195.034	262.63	1.85
197.011	264.18	1.86
198.971	266.54	1.87
200.93	268.59	1.87
203.311	271.02	1.88
205.67	273.69	1.9
207.647	277.76	1.91
209.69	281.69	1.93
211.733	283.31	1.93
213.765	284.6	1.94
215.799	286.92	1.95
217.825	290.11	1.96
219.853	294.21	1.98
221.88	296.62	1.99
223.909	297.46	1.99
225.943	299.66	2
227.97	300.73	2
229.985	302.48	2.01
231.961	310.06	2.04
234.002	323.45	2.1
236.07	333.04	2.14
238.024	358.09	2.27
239.861	407.73	2.49
242.007	462.82	2.7

System: 3-methyl-1-propyl-1H-imidazolium (S)-2-amino-4-carboxybutanoate; phases: Liquid
Fixed: Pressure, kPa = 101.325
Property: Molar heat capacity at constant pressure, J/K/mol (Liquid); method: VADIAC:UFactor:4
Temperature, K	Molar heat capacity at constant pressure, J/K/mol	uncertainty
244.243	471	2.68
246.181	472.35	2.69
248.116	473.61	2.69
250.045	475.54	2.7
251.972	476.41	2.71
253.896	477.37	2.71
255.887	478.45	2.71
257.873	480.19	2.72
259.86	481.42	2.73
261.908	483.73	2.73
263.957	485.28	2.74
265.995	486.86	2.75
268.035	487.89	2.75
270.066	489.67	2.76
272.094	491.51	2.77
274.115	493.23	2.77
276.131	495.7	2.78
278.148	497.67	2.79
280.158	498.94	2.8
282.164	501.05	2.8
284.166	503.38	2.81
286.162	505.39	2.82
288.124	507.35	2.83
290.056	509.26	2.84
292.083	511.23	2.84
294.05	513.1	2.85
296.009	514.91	2.86
297.97	516.83	2.87
299.926	518.67	2.87
301.875	520.07	2.88
303.825	521.96	2.89
305.766	523.25	2.89
307.705	524.77	2.9
309.643	526.25	2.91
311.57	527.31	2.91
313.504	528.82	2.92
315.426	530.52	2.92
317.412	531.97	2.93
319.471	533.47	2.93
321.522	534.99	2.94
323.566	536.53	2.95
325.605	538.93	2.96
327.646	539.74	2.96
329.68	541.83	2.97
331.706	543.17	2.97
333.728	544.98	2.98
335.749	546.87	2.99
337.759	549.25	3
339.767	550.76	3
341.77	553.01	3.01
343.77	554.52	3.02
345.764	557	3.03
347.755	559.26	3.04
349.744	561.22	3.04
351.732	563.15	3.05
353.717	565.12	3.06
355.702	566.91	3.07
357.682	568.06	3.07
