Measured thermophysical data. Heat Capacity and Standard Thermodynamic Functions of the Wulfenite PbMoO4 over the Temperature Range of (0 to 320) K
Source: J. Chem. Eng. Data, 2011, 10.1021/je100950u
Compound 1: lead(II) molybdenum(VI) oxide, MoO4Pb, InChI=1S/Mo.4O.Pb/q+6;4*-2;+2, purity 98%

System: lead(II) molybdenum(VI) oxide; phases: Crystal
Fixed: Pressure, kPa = 101.325
Property: Molar heat capacity at constant pressure, J/K/mol (Crystal); method: VADIAC:UFactor:4
Temperature, K	Molar heat capacity at constant pressure, J/K/mol	uncertainty
4.339	0.0578	0.03262
4.37	0.06698	0.03287
4.372	0.06993	0.03295
4.718	0.08003	0.03321
4.73	0.07844	0.03317
4.731	0.0786	0.03317
5.096	0.09543	0.03363
5.1	0.0962	0.03365
5.112	0.09725	0.03368
5.342	0.1172	0.0342
5.345	0.1174	0.0342
5.351	0.1176	0.0342
5.573	0.1367	0.0347
5.578	0.1326	0.0346
5.58	0.1328	0.0346
5.802	0.1452	0.0349
5.815	0.1505	0.0351
5.817	0.1481	0.035
6.03	0.1638	0.0354
6.056	0.1647	0.0354
6.06	0.1669	0.0355
6.346	0.1949	0.0362
6.385	0.1969	0.0363
6.396	0.1997	0.0364
6.757	0.2417	0.0374
6.807	0.2454	0.0375
6.819	0.2486	0.0376
7.17	0.2997	0.0389
7.229	0.3078	0.0391
7.249	0.3106	0.0392
7.595	0.3661	0.0406
7.657	0.3786	0.0409
7.682	0.3831	0.041
8.02	0.4553	0.0428
8.089	0.466	0.0431
8.117	0.4716	0.0432
8.448	0.5479	0.0451
8.524	0.5635	0.0454
8.556	0.5709	0.0456
8.881	0.6583	0.0477
8.96	0.6785	0.0482
8.996	0.6835	0.0483
9.317	0.783	0.0515
9.398	0.8039	0.0521
9.436	0.8195	0.0526
9.751	0.9322	0.0562
9.837	0.9549	0.0569
9.878	0.9763	0.0576
10.18	1.09	0.058
10.5	1.231	0.061
10.54	1.249	0.061
10.85	1.388	0.064
11.39	1.637	0.07
11.43	1.656	0.07
11.74	1.823	0.074
12.28	2.113	0.08
12.32	2.145	0.08
12.64	2.325	0.084
13.19	2.652	0.09
13.24	2.719	0.092
13.55	2.902	0.095
14.1	3.283	0.102
14.16	3.358	0.104
14.47	3.594	0.108
15.03	4.01	0.115
15.09	4.041	0.116
15.41	4.302	0.12
15.96	4.756	0.128
16.03	4.802	0.129
16.35	5.029	0.133
16.91	5.517	0.141
16.98	5.547	0.142
17.3	5.868	0.147
17.86	6.417	0.157
17.92	6.465	0.157
18.25	6.768	0.162
18.81	7.341	0.171
18.88	7.414	0.173
19.2	7.706	0.177
19.77	8.25	0.185
19.84	8.325	0.186
20.16	8.622	0.181
21.21	9.721	0.193
21.23	9.727	0.193
21.29	9.78	0.193
21.61	10.102	0.196
23.09	11.603	0.209
23.15	11.648	0.209
23.23	11.732	0.21
23.56	12.09	0.213
25.07	13.691	0.223
25.13	13.234	0.215
25.19	13.852	0.224
27.05	15.807	0.26
27.11	15.845	0.313
27.2	14.89	0.249
29.05	17.909	0.237
29.07	18.044	0.238
29.18	18.007	0.237
31.04	20.012	0.256
31.08	19.933	0.256
31.13	20.06	0.257
33.06	21.917	0.272
33.08	21.913	0.272
33.13	21.965	0.272
35.07	23.896	0.287
35.08	23.913	0.288
35.13	23.922	0.288
36.01	24.776	0.294
37.07	25.825	0.303
37.08	25.869	0.303
37.12	25.863	0.303
38.03	26.705	0.31
39.07	27.816	0.318
39.11	27.822	0.318
40.02	28.655	0.325
41.07	29.645	0.333
42.02	30.568	0.34
43.06	31.423	0.347
44.02	32.255	0.354
45.06	33.106	0.361
46.02	33.867	0.367
47.05	34.702	0.373
48.02	35.417	0.379
49.05	36.299	0.386
50.01	37.044	0.364
51.05	37.965	0.36
52.01	38.778	0.376
53.04	39.725	0.37
54	40.433	0.388
55.03	41.315	0.38
56	41.942	0.398
57.03	42.554	0.388
58	43.066	0.406
59.03	43.857	0.396
60	44.682	0.418
61.03	45.452	0.406
62	46.222	0.429
63.03	46.951	0.415
64	47.64	0.439
65.03	48.303	0.423
66.01	48.906	0.448
67.04	49.593	0.431
68.01	50.158	0.457
69.04	50.779	0.439
70.02	51.39	0.466
71.55	52.482	0.449
72.53	53.055	0.477
74.56	54.334	0.461
75.55	54.922	0.491
77.59	56.172	0.472
78.57	56.759	0.504
80.63	58.021	0.484
81.61	58.593	0.487

System: lead(II) molybdenum(VI) oxide; phases: Crystal
Fixed: Pressure, kPa = 101.325
Property: Molar heat capacity at constant pressure, J/K/mol (Crystal); method: VADIAC:UFactor:4
Temperature, K	Molar heat capacity at constant pressure, J/K/mol	uncertainty
5	0.0945	0.0338
10	1.02	0.056
15	3.964	0.114
20	8.481	0.179
25	13.63	0.22
30	18.91	0.25
35	23.83	0.29
40	28.64	0.32
45	33.05	0.36
50	37.12	0.36
55	41.18	0.39
60	44.54	0.42
65	48.27	0.44
70	51.39	0.47
75	54.53	0.49
80	57.54	0.48

System: lead(II) molybdenum(VI) oxide; phases: Crystal
Fixed: Pressure, kPa = 101.325
Property: Molar enthalpy function {Hm(T)-Hm(0)}/T, J/K/mol (Crystal); method: VADIAC:UFactor:4
Temperature, K	Molar enthalpy function {Hm(T)-Hm(0)}/T, J/K/mol	uncertainty
5	0.0236	0.0316
10	0.2219	0.0364
15	0.9245	0.0503
20	2.225	0.07
25	3.984	0.087
30	6.033	0.162
35	8.225	0.175
40	10.48	0.19
45	12.75	0.2
50	14.98	0.22
55	17.18	0.23
60	19.32	0.24
65	21.41	0.26
70	23.44	0.27
75	25.41	0.28
80	27.32	0.29

System: lead(II) molybdenum(VI) oxide; phases: Crystal
Fixed: Pressure, kPa = 101.325
Property: Molar entropy, J/K/mol (Crystal); method: VADIAC:UFactor:4
Temperature, K	Molar entropy, J/K/mol	uncertainty
5	0.0315	0.0478
10	0.289	0.057
15	1.193	0.084
20	2.925	0.123
25	5.362	0.159
30	8.316	0.263
35	11.6	0.29
40	15.1	0.33
45	18.73	0.37
50	22.42	0.39
55	26.16	0.43
60	29.88	0.47
65	33.6	0.51
70	37.29	0.55
75	40.94	0.59
80	44.56	0.6
