Measured thermophysical data. Density, Viscosity and Electric Conductance of a Ternary Solution of (Nicotinic  Acid + Dextran 40000 + Water)
Source: J. Chem. Eng. Data, 2011, 10.1021/je100774p
Compound 1: 3-carboxylpyridine, C6H5NO2, InChI=1S/C6H5NO2/c8-6(9)5-2-1-3-7-4-5/h1-4H,(H,8,9), purity 99.5%
Compound 2: water, H2O, InChI=1S/H2O/h1H2

System: 3-carboxylpyridine + water; phases: Liquid
Fixed: Pressure, kPa = 101
Property: Viscosity, Pa*s (Liquid); method: Capillary tube (Ostwald; Ubbelohde) method
Temperature, K	Molality, mol/kg of 3-carboxylpyridine	Viscosity, Pa*s	uncertainty
293.15	0	0.001003	8e-06
293.15	0.004283	0.001004	8e-06
293.15	0.006512	0.001005	8e-06
293.15	0.008188	0.001006	8e-06
293.15	0.01628	0.001007	8e-06
293.15	0.03262	0.001011	8e-06
293.15	0.04903	0.001015	8e-06
293.15	0.06555	0.001018	8e-06
293.15	0.0821	0.001022	8e-06
293.15	0.09871	0.001026	8e-06
293.15	0.1154	0.001029	8e-06
293.15	0.1321	0.001033	8e-06
298.15	0	0.0008904	6.9e-06
298.15	0.004283	0.0008912	7e-06
298.15	0.006512	0.0008917	7e-06
298.15	0.008188	0.0008923	7e-06
298.15	0.01628	0.0008941	7e-06
298.15	0.03262	0.0008978	7e-06
298.15	0.04903	0.0009012	7e-06
298.15	0.06555	0.0009039	7e-06
298.15	0.0821	0.0009074	7.1e-06
298.15	0.09871	0.0009109	7.1e-06
298.15	0.1154	0.0009144	7.1e-06
298.15	0.1321	0.0009178	7.1e-06
303.15	0	0.0007973	6.1e-06
303.15	0.004283	0.0007981	6.1e-06
303.15	0.006512	0.0007985	6.1e-06
303.15	0.008188	0.0007989	6.1e-06
303.15	0.01628	0.0008005	6.2e-06
303.15	0.03262	0.0008035	6.2e-06
303.15	0.04903	0.0008067	6.2e-06
303.15	0.06555	0.0008098	6.2e-06
303.15	0.0821	0.0008127	6.2e-06
303.15	0.09871	0.0008158	6.3e-06
303.15	0.1154	0.0008192	6.3e-06
303.15	0.1321	0.0008225	6.3e-06
308.15	0	0.0007194	5.5e-06
308.15	0.004283	0.0007201	5.5e-06
308.15	0.006512	0.0007205	5.5e-06
308.15	0.008188	0.0007211	5.5e-06
308.15	0.01628	0.0007224	5.5e-06
308.15	0.03262	0.0007254	5.5e-06
308.15	0.04903	0.0007282	5.5e-06
308.15	0.06555	0.0007312	5.6e-06
308.15	0.0821	0.0007338	5.6e-06
308.15	0.09871	0.0007364	5.6e-06
308.15	0.1154	0.0007395	5.6e-06
308.15	0.1321	0.000742	5.6e-06
313.15	0	0.000653	5.1e-06
313.15	0.004283	0.0006538	5.1e-06
313.15	0.006512	0.0006543	5.1e-06
313.15	0.008188	0.0006547	5.1e-06
313.15	0.01628	0.0006561	5.1e-06
313.15	0.03262	0.0006588	5.1e-06
313.15	0.04903	0.000661	5.1e-06
313.15	0.06555	0.0006639	5.1e-06
313.15	0.0821	0.0006662	5.2e-06
313.15	0.09871	0.0006686	5.2e-06
313.15	0.1154	0.0006713	5.2e-06
313.15	0.1321	0.0006742	5.2e-06

System: 3-carboxylpyridine + water; phases: Liquid
Fixed: Pressure, kPa = 101
Property: Mass density, kg/m3 (Liquid); method: VIBTUB:UFactor:4
Temperature, K	Molality, mol/kg of 3-carboxylpyridine	Mass density, kg/m3	uncertainty
293.15	0	998.2	0.16
293.15	0.004283	998.41	0.16
293.15	0.006512	998.5	0.16
293.15	0.00819	998.57	0.16
293.15	0.01628	998.83	0.16
293.15	0.03262	999.56	0.16
293.15	0.04903	1000.25	0.16
293.15	0.06555	1000.89	0.16
293.15	0.0821	1001.66	0.16
293.15	0.09871	1002.29	0.16
293.15	0.1154	1003.05	0.16
293.15	0.1321	1003.75	0.16
298.15	0	997.04	0.17
298.15	0.004283	997.22	0.16
298.15	0.006512	997.3	0.16
298.15	0.00819	997.41	0.16
298.15	0.01628	997.73	0.16
298.15	0.03262	998.36	0.16
298.15	0.04903	999.09	0.16
298.15	0.06555	999.71	0.16
298.15	0.0821	1000.45	0.16
298.15	0.09871	1001.09	0.16
298.15	0.1154	1001.8	0.16
298.15	0.1321	1002.51	0.16
303.15	0	995.64	0.17
303.15	0.004283	995.82	0.16
303.15	0.006512	995.95	0.16
303.15	0.00819	996.01	0.16
303.15	0.01628	996.31	0.16
303.15	0.03262	996.97	0.16
303.15	0.04903	997.72	0.16
303.15	0.06555	998.32	0.16
303.15	0.0821	999.03	0.16
303.15	0.09871	999.67	0.16
303.15	0.1154	1000.33	0.16
303.15	0.1321	1001.03	0.16
308.15	0	994.04	0.18
308.15	0.004283	994.28	0.17
308.15	0.006512	994.35	0.16
308.15	0.00819	994.4	0.16
308.15	0.01628	994.75	0.16
308.15	0.03262	995.44	0.16
308.15	0.04903	996.14	0.16
308.15	0.06555	996.72	0.16
308.15	0.0821	997.41	0.16
308.15	0.09871	998.05	0.16
308.15	0.1154	998.71	0.16
308.15	0.1321	999.39	0.16
313.15	0	992.22	0.17
313.15	0.004283	992.41	0.17
313.15	0.006512	992.59	0.17
313.15	0.00819	992.64	0.16
313.15	0.01628	992.98	0.16
313.15	0.03262	993.51	0.16
313.15	0.04903	994.22	0.17
313.15	0.06555	994.91	0.16
313.15	0.0821	995.56	0.16
313.15	0.09871	996.21	0.16
313.15	0.1154	996.84	0.16
313.15	0.1321	997.49	0.16
