Measured thermophysical data. Liquid Extraction of Benzene from Its Mixtures Using 1-Ethyl-3-methylimidazolium Ethylsulfate as a Solvent
Source: J. Chem. Eng. Data, 2010, 10.1021/je100508y
Compound 1: benzene, C6H6, InChI=1S/C6H6/c1-2-4-6-5-3-1/h1-6H, purity 99.9%
Compound 2: cyclohexane, C6H12, InChI=1S/C6H12/c1-2-4-6-5-3-1/h1-6H2, purity 99.9%
Compound 3: methylcyclohexane, C7H14, InChI=1S/C7H14/c1-7-5-3-2-4-6-7/h7H,2-6H2,1H3, purity 99.9%
Compound 4: cyclooctane, C8H16, InChI=1S/C8H16/c1-2-4-6-8-7-5-3-1/h1-8H2, purity 99%
Compound 5: 1-ethyl-3-methylimidazolium ethyl sulfate, C8H16N2O4S, InChI=1S/C6H11N2.C2H6O4S/c1-3-8-5-4-7(2)6-8;1-2-6-7(3,4)5/h4-6H,3H2,1-2H3;2H2,1H3,(H,3,4,5)/q+1;/p-1, purity 99%

System: benzene; phases: Liquid
Property: Refractive index (Na D-line) (Liquid); method: Standard Abbe refractometry
Temperature, K	Pressure, kPa	Refractive index (Na D-line)	uncertainty
298.15	101.325	1.49774	0.00068

System: benzene; phases: Liquid
Property: Mass density, kg/m3 (Liquid); method: VIBTUB:UFactor:2
Temperature, K	Pressure, kPa	Mass density, kg/m3	uncertainty
298.15	101.325	873.57	0.17

System: cyclohexane; phases: Liquid
Property: Refractive index (Na D-line) (Liquid); method: Standard Abbe refractometry
Temperature, K	Pressure, kPa	Refractive index (Na D-line)	uncertainty
298.15	101.325	1.4236	0.00068

System: cyclohexane; phases: Liquid
Property: Mass density, kg/m3 (Liquid); method: VIBTUB:UFactor:2
Temperature, K	Pressure, kPa	Mass density, kg/m3	uncertainty
298.15	101.325	773.8	0.25

System: methylcyclohexane; phases: Liquid
Property: Refractive index (Na D-line) (Liquid); method: Standard Abbe refractometry
Temperature, K	Pressure, kPa	Refractive index (Na D-line)	uncertainty
298.15	101.325	1.42062	0.00068

System: methylcyclohexane; phases: Liquid
Property: Mass density, kg/m3 (Liquid); method: VIBTUB:UFactor:2
Temperature, K	Pressure, kPa	Mass density, kg/m3	uncertainty
298.15	101.325	765.02	0.25

System: cyclooctane; phases: Liquid
Property: Refractive index (Na D-line) (Liquid); method: Standard Abbe refractometry
Temperature, K	Pressure, kPa	Refractive index (Na D-line)	uncertainty
298.15	101.325	1.45598	0.0007

System: cyclooctane; phases: Liquid
Property: Mass density, kg/m3 (Liquid); method: VIBTUB:UFactor:6
Temperature, K	Pressure, kPa	Mass density, kg/m3	uncertainty
298.15	101.325	831.47	0.73

System: 1-ethyl-3-methylimidazolium ethyl sulfate; phases: Liquid
Property: Refractive index (Na D-line) (Liquid); method: Standard Abbe refractometry
Temperature, K	Pressure, kPa	Refractive index (Na D-line)	uncertainty
298.15	101.325	1.4791	0.0007

System: 1-ethyl-3-methylimidazolium ethyl sulfate; phases: Liquid
Property: Mass density, kg/m3 (Liquid); method: VIBTUB:UFactor:12
Temperature, K	Pressure, kPa	Mass density, kg/m3	uncertainty
298.15	101.325	1237.23	1.81

System: benzene + cyclohexane + 1-ethyl-3-methylimidazolium ethyl sulfate; phases: Liquid mixture 1, Liquid mixture 2
Fixed: Temperature, K = 298.15
Fixed: Pressure, kPa = 101.3
Property: Mole fraction of cyclohexane (Liquid mixture 1); method: Density calibration data
Property: Mole fraction of cyclohexane (Liquid mixture 2); method: Density calibration data
Property: Mole fraction of benzene (Liquid mixture 2); method: Density calibration data
Mole fraction of benzene	Mole fraction of cyclohexane	uncertainty	Mole fraction of cyclohexane	uncertainty	Mole fraction of benzene	uncertainty
0.054	0.946	0.012	0.03	0.012	0.034	
0.11	0.89	0.017	0.031	0.012	0.061	
0.166	0.834	0.017	0.031	0.012	0.084	
0.223	0.777	0.017	0.03	0.012	0.112	
0.349	0.651	0.017	0.026	0.012	0.171	
0.47	0.53	0.017	0.021	0.012	0.222	
0.591	0.409	0.017	0.017	0.012	0.273	
0.726	0.274	0.017	0.011	0.011	0.33	
0.862	0.138	0.012	0.006	0.006	0.389	

System: benzene + methylcyclohexane + 1-ethyl-3-methylimidazolium ethyl sulfate; phases: Liquid mixture 1, Liquid mixture 2
Fixed: Temperature, K = 298.15
Fixed: Pressure, kPa = 101.3
Property: Mole fraction of methylcyclohexane (Liquid mixture 1); method: Density calibration data
Property: Mole fraction of methylcyclohexane (Liquid mixture 2); method: Density calibration data
Property: Mole fraction of benzene (Liquid mixture 2); method: Density calibration data
Mole fraction of benzene	Mole fraction of methylcyclohexane	uncertainty	Mole fraction of methylcyclohexane	uncertainty	Mole fraction of benzene	uncertainty
0.057	0.943	0.012	0.015	0.006	0.036	
0.114	0.886	0.017	0.014	0.006	0.067	
0.166	0.834	0.017	0.013	0.006	0.095	
0.225	0.775	0.017	0.013	0.006	0.122	
0.226	0.774	0.017	0.012	0.006	0.122	
0.344	0.656	0.017	0.011	0.006	0.175	
0.47	0.53	0.017	0.01	0.006	0.224	
0.59	0.41	0.017	0.008	0.006	0.271	
0.727	0.273	0.017	0.007	0.006	0.323	
0.853	0.147	0.012	0.005	0.005	0.374	

System: benzene + cyclooctane + 1-ethyl-3-methylimidazolium ethyl sulfate; phases: Liquid mixture 1, Liquid mixture 2
Fixed: Temperature, K = 298.15
Fixed: Pressure, kPa = 101.3
Property: Mole fraction of cyclooctane (Liquid mixture 1); method: Density calibration data
Property: Mole fraction of cyclooctane (Liquid mixture 2); method: Density calibration data
Property: Mole fraction of benzene (Liquid mixture 2); method: Density calibration data
Mole fraction of benzene	Mole fraction of cyclooctane	uncertainty	Mole fraction of cyclooctane	uncertainty	Mole fraction of benzene	uncertainty
0.101	0.899	0.012	0.011	0.006	0.055	
0.158	0.842	0.017	0.012	0.006	0.085	
0.16	0.84	0.017	0.011	0.006	0.086	
0.214	0.786	0.017	0.011	0.006	0.112	
0.337	0.663	0.017	0.011	0.006	0.174	
0.465	0.535	0.017	0.01	0.006	0.219	
0.588	0.412	0.017	0.01	0.006	0.27	
0.716	0.284	0.017	0.009	0.006	0.321	
0.846	0.154	0.012	0.006	0.006	0.378	
