Measured thermophysical data. Determination and Correlation for Solubilities of Ofloxacin, Norfloxacin, Lomefloxacin, Ciprofloxacin, Pefloxacin, and Pipemidic Acid in 1-Octanol from (293.15 to 333.15) K
Source: J. Chem. Eng. Data, 2010, 10.1021/je100116u
Compound 1: ofloxacin, C18H20FN3O4, InChI=1S/C18H20FN3O4/c1-10-9-26-17-14-11(16(23)12(18(24)25)8-22(10)14)7-13(19)15(17)21-5-3-20(2)4-6-21/h7-8,10H,3-6,9H2,1-2H3,(H,24,25)
Compound 2: norfloxacin, C16H18FN3O3, InChI=1S/C16H18FN3O3/c1-2-19-9-11(16(22)23)15(21)10-7-12(17)14(8-13(10)19)20-5-3-18-4-6-20/h7-9,18H,2-6H2,1H3,(H,22,23)
Compound 3: lomefloxacin, C17H19F2N3O3, InChI=1S/C17H19F2N3O3/c1-3-21-8-11(17(24)25)16(23)10-6-12(18)15(13(19)14(10)21)22-5-4-20-9(2)7-22/h6,8-9,20H,3-5,7H2,1-2H3,(H,24,25)
Compound 4: ciprofloxacin, C17H18FN3O3, InChI=1S/C17H18FN3O3/c18-13-7-11-14(8-15(13)20-5-3-19-4-6-20)21(10-1-2-10)9-12(16(11)22)17(23)24/h7-10,19H,1-6H2,(H,23,24)
Compound 5: pefloxacin, C17H20FN3O3, InChI=1S/C17H20FN3O3/c1-3-20-10-12(17(23)24)16(22)11-8-13(18)15(9-14(11)20)21-6-4-19(2)5-7-21/h8-10H,3-7H2,1-2H3,(H,23,24)
Compound 6: 8-ethyl-5,8-dihydro-5-oxo-2-(1-piperazinyl)pyrido[2,3-d]pyrimidine-6-carboxylic acid, C14H17N5O3, InChI=1S/C14H17N5O3/c1-2-18-8-10(13(21)22)11(20)9-7-16-14(17-12(9)18)19-5-3-15-4-6-19/h7-8,15H,2-6H2,1H3,(H,21,22)
Compound 7: octan-1-ol, C8H18O, InChI=1S/C8H18O/c1-2-3-4-5-6-7-8-9/h9H,2-8H2,1H3

System: octan-1-ol + ofloxacin; phases: Liquid, Crystal
Fixed: Pressure, kPa = 101
Property: Mole fraction of ofloxacin (Liquid); method: Static equilibrium method
Temperature, K	Mole fraction of ofloxacin	uncertainty
293.15	5.066e-05	4.1e-07
298.15	6.302e-05	4.9e-07
303.15	7.78e-05	6e-07
308.15	9.507e-05	7.3e-07
313.15	0.0001177	9e-07
318.15	0.0001423	1.1e-06
323.15	0.0001752	1.3e-06
328.15	0.0002126	1.6e-06
333.15	0.0002548	1.8e-06

System: octan-1-ol + norfloxacin; phases: Liquid, Crystal
Fixed: Pressure, kPa = 101
Property: Mole fraction of norfloxacin (Liquid); method: Static equilibrium method
Temperature, K	Mole fraction of norfloxacin	uncertainty
293.15	5.165e-05	4.1e-07
298.15	6.622e-05	5.1e-07
303.15	8.542e-05	6.4e-07
308.15	0.0001083	8e-07
313.15	0.0001405	1.1e-06
318.15	0.0001773	1.3e-06
323.15	0.0002236	1.7e-06
328.15	0.0002845	2.1e-06
333.15	0.0003518	2.4e-06

System: octan-1-ol + lomefloxacin; phases: Liquid, Crystal
Fixed: Pressure, kPa = 101
Property: Mole fraction of lomefloxacin (Liquid); method: Static equilibrium method
Temperature, K	Mole fraction of lomefloxacin	uncertainty
293.15	2.168e-06	2e-08
298.15	2.758e-06	2.3e-08
303.15	3.554e-06	2.9e-08
308.15	4.582e-06	3.7e-08
313.15	5.883e-06	4.8e-08
318.15	7.631e-06	6.3e-08
323.15	9.914e-06	8.2e-08
328.15	1.296e-05	1.1e-07
333.15	1.682e-05	1.3e-07

System: octan-1-ol + ciprofloxacin; phases: Liquid, Crystal
Fixed: Pressure, kPa = 101
Property: Mole fraction of ciprofloxacin (Liquid); method: Static equilibrium method
Temperature, K	Mole fraction of ciprofloxacin	uncertainty
293.15	2.559e-07	1.06e-08
298.15	4.094e-07	1.09e-08
303.15	6.354e-07	1.19e-08
308.15	9.551e-07	1.35e-08
313.15	1.384e-06	1.6e-08
318.15	1.962e-06	2e-08
323.15	2.682e-06	2.4e-08
328.15	3.621e-06	3e-08
333.15	4.732e-06	3.6e-08

System: octan-1-ol + pefloxacin; phases: Liquid, Crystal
Fixed: Pressure, kPa = 101
Property: Mole fraction of pefloxacin (Liquid); method: Static equilibrium method
Temperature, K	Mole fraction of pefloxacin	uncertainty
293.15	5.481e-07	1.33e-08
298.15	9.63e-07	1.59e-08
303.15	1.666e-06	2.2e-08
308.15	2.71e-06	3.2e-08
313.15	4.346e-06	4.8e-08
318.15	6.768e-06	7.2e-08
323.15	1.035e-05	1e-07
328.15	1.522e-05	1.5e-07
333.15	2.186e-05	1.9e-07

System: octan-1-ol + 8-ethyl-5,8-dihydro-5-oxo-2-(1-piperazinyl)pyrido[2,3-d]pyrimidine-6-carboxylic acid; phases: Liquid, Crystal
Fixed: Pressure, kPa = 101
Property: Mole fraction of 8-ethyl-5,8-dihydro-5-oxo-2-(1-piperazinyl)pyrido[2,3-d]pyrimidine-6-carboxylic acid (Liquid); method: Static equilibrium method
Temperature, K	Mole fraction of 8-ethyl-5,8-dihydro-5-oxo-2-(1-piperazinyl)pyrido[2,3-d]pyrimidine-6-carboxylic acid	uncertainty
293.15	9.138e-07	1.24e-08
298.15	1.205e-06	1.3e-08
303.15	1.569e-06	1.5e-08
308.15	2.028e-06	1.8e-08
313.15	2.602e-06	2e-08
318.15	3.249e-06	2.4e-08
323.15	4.049e-06	2.8e-08
328.15	4.969e-06	3.3e-08
333.15	6.021e-06	3.9e-08
