Measured thermophysical data. Volumetric and Viscometric Studies of Some Amino Acids in Aqueous Solutions of Cadmium Chloride at T = (288.15 to 318.15) K and at Atmospheric Pressure
Source: J. Chem. Eng. Data, 2011, 10.1021/je100909b
Compound 1: 2-aminoacetic acid, C2H5NO2, InChI=1S/C2H5NO2/c3-1-2(4)5/h1,3H2,(H,4,5), purity 99%
Compound 2: DL-2-aminopropanoic acid, C3H7NO2, InChI=1S/C3H7NO2/c1-2(4)3(5)6/h2H,4H2,1H3,(H,5,6), purity 99%
Compound 3: (.+-.)-.alpha.-aminobutyric acid, C4H9NO2, InChI=1S/C4H9NO2/c1-2-3(5)4(6)7/h3H,2,5H2,1H3,(H,6,7), purity 98%
Compound 4: L-valine, C5H11NO2, InChI=1S/C5H11NO2/c1-3(2)4(6)5(7)8/h3-4H,6H2,1-2H3,(H,7,8)/t4-/m0/s1, purity 99%
Compound 5: L-leucine, C6H13NO2, InChI=1S/C6H13NO2/c1-4(2)3-5(7)6(8)9/h4-5H,3,7H2,1-2H3,(H,8,9)/t5-/m0/s1, purity 98%
Compound 6: cadmium chloride, CdCl2, InChI=1S/Cd.2ClH/h;2*1H/q+2;;/p-2, purity 98%
Compound 7: water, H2O, InChI=1S/H2O/h1H2, purity 99.9%

System: water; phases: Liquid
Fixed: Pressure, kPa = 101
Property: Speed of sound, m/s (Liquid); method: FPINT::UFactor:2
Temperature, K	Speed of sound, m/s	uncertainty
288.15	1465.84	1.66
298.15	1496.64	1.68
308.15	1519.84	1.69
318.15	1536.43	1.7

System: water + cadmium chloride; phases: Liquid
Fixed: Pressure, kPa = 101
Property: Viscosity, Pa*s (Liquid); method: CAPTUB:UFactor:8
Temperature, K	Molality, mol/kg of cadmium chloride	Viscosity, Pa*s	uncertainty
288.15	0	0.0011382	5.53e-05
288.15	0.1	0.0011436	5.55e-05
288.15	0.5	0.001223	5.89e-05
288.15	1	0.0013336	6.37e-05
288.15	1.5	0.0014723	6.96e-05
298.15	0	0.0008903	4.46e-05
298.15	0.1	0.000926	4.62e-05
298.15	0.5	0.0010358	5.09e-05
298.15	1	0.0011598	5.62e-05
298.15	1.5	0.0012257	5.91e-05
308.15	0	0.0007195	3.73e-05
308.15	0.1	0.0007258	3.76e-05
308.15	0.5	0.0008259	4.19e-05
308.15	1	0.0009138	4.57e-05
308.15	1.5	0.0009824	4.86e-05
318.15	0	0.0005963	3.2e-05
318.15	0.1	0.0006097	3.26e-05
318.15	0.5	0.0006739	3.53e-05
318.15	1	0.0007467	3.85e-05
318.15	1.5	0.0008197	4.16e-05

System: water + cadmium chloride; phases: Liquid
Fixed: Pressure, kPa = 101
Property: Speed of sound, m/s (Liquid); method: FPINT:UFactor:2
Temperature, K	Molality, mol/kg of cadmium chloride	Speed of sound, m/s	uncertainty
288.15	0	1465.84	1.66
288.15	0.1	1479.04	1.67
288.15	0.5	1484.04	1.69
288.15	1	1492.84	1.72
288.15	1.5	1496.24	1.75
298.15	0	1496.64	1.68
298.15	0.1	1501.64	1.68
298.15	0.5	1507.24	1.7
298.15	1	1511.44	1.73
298.15	1.5	1514.44	1.76
308.15	0	1519.84	1.69
308.15	0.1	1522.44	1.69
308.15	0.5	1525.24	1.71
308.15	1	1527.44	1.74
308.15	1.5	1530.23	1.77
318.15	0	1536.43	1.7
318.15	0.1	1538.63	1.7
318.15	0.5	1541.83	1.72
318.15	1	1543.19	1.74
318.15	1.5	1546.23	1.78

System: water + cadmium chloride; phases: Liquid
Fixed: Pressure, kPa = 101
Property: Mass density, kg/m3 (Liquid); method: Vibrating tube method
Temperature, K	Molality, mol/kg of cadmium chloride	Mass density, kg/m3	uncertainty
288.15	0.1	1015.69	0.163
288.15	0.5	1077.05	0.179
288.15	1	1149.368	0.211
288.15	1.5	1205.713	0.266
298.15	0.1	1012.892	0.159
298.15	0.5	1072.654	0.172
298.15	1	1140.72	0.208
298.15	1.5	1199.851	0.265
308.15	0.1	1009.585	0.157
308.15	0.5	1068.498	0.169
308.15	1	1135.366	0.204
308.15	1.5	1193.022	0.26
318.15	0.1	1005.509	0.154
318.15	0.5	1063.803	0.168
318.15	1	1129.17	0.202
318.15	1.5	1186.001	0.255

System: 2-aminoacetic acid + water; phases: Liquid
Fixed: Pressure, kPa = 101
Property: Viscosity, Pa*s (Liquid); method: CAPTUB:UFactor:3
Temperature, K	Molality, mol/kg of 2-aminoacetic acid	Viscosity, Pa*s	uncertainty
288.15	0.06844	0.0011486714	2.090065e-05
288.15	0.13933	0.0011591429	2.106965e-05
288.15	0.2552	0.0011756468	2.133621e-05
288.15	0.34677	0.0011898743	2.156578e-05
288.15	0.42406	0.0012017116	2.175701e-05
288.15	0.50021	0.001213435	2.194637e-05
298.15	0.06025	0.00089786755	1.686585e-05
298.15	0.12228	0.00090552413	1.698969e-05
298.15	0.19328	0.00091380392	1.712578e-05
298.15	0.27982	0.00092484364	1.730064e-05
298.15	0.41452	0.00094202643	1.758065e-05
298.15	0.48591	0.00095066234	1.772169e-05
308.15	0.06295	0.0007261194	1.40944e-05
308.15	0.12483	0.000732451	1.4197e-05
308.15	0.24757	0.0007455459	1.44084e-05
308.15	0.33446	0.0007536043	1.45391e-05
308.15	0.41948	0.0007623822	1.46825e-05
308.15	0.47088	0.00076720285	1.4762e-05
318.15	0.06088	0.00060172633	1.208475e-05
318.15	0.12483	0.0006064371	1.21613e-05
318.15	0.24757	0.00061758791	1.234226e-05
318.15	0.33446	0.00062533981	1.246807e-05
318.15	0.41948	0.00063291282	1.259105e-05
318.15	0.47088	0.00063559617	1.263478e-05

System: 2-aminoacetic acid + water; phases: Liquid
Fixed: Pressure, kPa = 101
Property: Speed of sound, m/s (Liquid); method: Sing-around technique in a fixed-path interferometer
Temperature, K	Molality, mol/kg of 2-aminoacetic acid	Speed of sound, m/s	uncertainty
288.15	0.05362	1468.86	1.58
288.15	0.12869	1473.09	1.58
288.15	0.19101	1476.62	1.58
288.15	0.25217	1480.11	1.59
288.15	0.34233	1485.3	1.59
288.15	0.50621	1494.9	1.59
288.15	0.562	1498.14	1.59
298.15	0.05362	1499.46	1.59
298.15	0.12869	1503.44	1.59
298.15	0.19101	1506.76	1.59
298.15	0.25217	1510.03	1.59
298.15	0.34233	1514.9	1.59
298.15	0.50621	1523.89	1.59
298.15	0.562	1526.92	1.59
308.15	0.05362	1522.53	1.59
308.15	0.10833	1525.28	1.59
308.15	0.1664	1528.22	1.59
308.15	0.26301	1533.14	1.59
308.15	0.37371	1538.82	1.59
308.15	0.49669	1545.2	1.59
318.15	0.05362	1539.03	1.59
318.15	0.12869	1542.68	1.59
318.15	0.19101	1545.71	1.59
318.15	0.25217	1548.7	1.59
318.15	0.34233	1553.13	1.6
318.15	0.50621	1561.32	1.6
318.15	0.562	1564.09	1.6

System: DL-2-aminopropanoic acid + water; phases: Liquid
Fixed: Pressure, kPa = 101
Property: Viscosity, Pa*s (Liquid); method: CAPTUB:UFactor:3
Temperature, K	Molality, mol/kg of DL-2-aminopropanoic acid	Viscosity, Pa*s	uncertainty
288.15	0.04982	0.0011533	2.1e-05
288.15	0.11093	0.0011718	2.13e-05
288.15	0.2183	0.0012035	2.18e-05
288.15	0.26116	0.0012166	2.2e-05
288.15	0.31068	0.0012313	2.22e-05
288.15	0.45359	0.0012718	2.29e-05
288.15	0.50993	0.00129	2.32e-05
298.15	0.07866	0.0009082	1.7e-05
298.15	0.19338	0.0009331	1.74e-05
298.15	0.31879	0.0009584	1.78e-05
298.15	0.42749	0.0009832	1.82e-05
298.15	0.54848	0.0010127	1.87e-05
298.15	0.59296	0.0010182	1.88e-05
298.15	0.73536	0.0010572	1.94e-05
298.15	0.84173	0.0010716	1.97e-05
298.15	0.95334	0.0010889	2e-05
308.15	0.04619	0.0007279	1.41e-05
308.15	0.10703	0.0007391	1.43e-05
308.15	0.2145	0.0007583	1.46e-05
308.15	0.25777	0.0007656	1.47e-05
308.15	0.30711	0.0007745	1.49e-05
308.15	0.34888	0.0007816	1.5e-05
308.15	0.49825	0.0008076	1.54e-05
318.15	0.04529	0.0006029	1.21e-05
318.15	0.10637	0.0006119	1.22e-05
318.15	0.21406	0.0006275	1.25e-05
318.15	0.25638	0.0006331	1.26e-05
318.15	0.30643	0.0006409	1.27e-05
318.15	0.34918	0.000647	1.28e-05
318.15	0.4205	0.0006561	1.3e-05

System: DL-2-aminopropanoic acid + water; phases: Liquid
Fixed: Pressure, kPa = 101
Property: Speed of sound, m/s (Liquid); method: Sing-around technique in a fixed-path interferometer
Temperature, K	Molality, mol/kg of DL-2-aminopropanoic acid	Speed of sound, m/s	uncertainty
288.15	0.07777	1471.3	1.58
288.15	0.11256	1473.75	1.58
288.15	0.20588	1480.36	1.59
288.15	0.3139	1488.08	1.59
288.15	0.38254	1493	1.59
288.15	0.44093	1497.23	1.59
298.15	0.07777	1501.8	1.59
298.15	0.11256	1504.12	1.59
298.15	0.20588	1510.38	1.59
298.15	0.3139	1517.69	1.59
298.15	0.38254	1522.34	1.59
298.15	0.44093	1526.33	1.59
308.15	0.07777	1524.58	1.59
308.15	0.11256	1526.7	1.59
308.15	0.20588	1532.43	1.59
308.15	0.3139	1539.11	1.59
308.15	0.38254	1543.36	1.59
308.15	0.44093	1546.99	1.59
318.15	0.07777	1540.87	1.59
318.15	0.11256	1542.85	1.59
318.15	0.20588	1548.2	1.59
318.15	0.3139	1554.44	1.6
318.15	0.38254	1558.41	1.6
318.15	0.44093	1561.8	1.6

System: (.+-.)-.alpha.-aminobutyric acid + water; phases: Liquid
Fixed: Pressure, kPa = 101
Property: Viscosity, Pa*s (Liquid); method: CAPTUB:UFactor:3
Temperature, K	Molality, mol/kg of (.+-.)-.alpha.-aminobutyric acid	Viscosity, Pa*s	uncertainty
288.15	0.05106	0.0011589	2.11e-05
288.15	0.09089	0.0011807	2.14e-05
288.15	0.17637	0.0012198	2.2e-05
288.15	0.2253	0.0012417	2.24e-05
288.15	0.26846	0.0012621	2.27e-05
288.15	0.40442	0.0013242	2.37e-05
298.15	0.03245	0.0008996	1.69e-05
298.15	0.05413	0.0009064	1.7e-05
298.15	0.07577	0.0009126	1.71e-05
298.15	0.10803	0.0009222	1.73e-05
298.15	0.14331	0.0009326	1.74e-05
298.15	0.1888	0.0009459	1.76e-05
298.15	0.2162	0.0009534	1.78e-05
308.15	0.04831	0.000731	1.42e-05
308.15	0.08861	0.0007438	1.44e-05
308.15	0.17349	0.0007667	1.48e-05
308.15	0.21984	0.0007794	1.5e-05
308.15	0.26552	0.0007915	1.52e-05
308.15	0.39625	0.0008261	1.57e-05
318.15	0.04911	0.0006052	1.21e-05
318.15	0.08886	0.0006122	1.23e-05
318.15	0.17349	0.0006267	1.25e-05
318.15	0.21964	0.0006354	1.26e-05
318.15	0.26579	0.0006432	1.28e-05
318.15	0.39642	0.0006658	1.31e-05

System: (.+-.)-.alpha.-aminobutyric acid + water; phases: Liquid
Fixed: Pressure, kPa = 101
Property: Speed of sound, m/s (Liquid); method: Sing-around technique in a fixed-path interferometer
Temperature, K	Molality, mol/kg of (.+-.)-.alpha.-aminobutyric acid	Speed of sound, m/s	uncertainty
288.15	0.05062	1469.9	1.82
288.15	0.1107	1474.74	1.82
288.15	0.21749	1483.39	1.82
288.15	0.27381	1487.97	1.82
288.15	0.35868	1494.92	1.82
288.15	0.45231	1502.66	1.82
298.15	0.1107	1505.22	1.82
298.15	0.21749	1513.56	1.82
298.15	0.27381	1517.96	1.83
298.15	0.35868	1524.65	1.83
298.15	0.45231	1532.09	1.83
308.15	0.05062	1523.43	1.83
308.15	0.1107	1527.72	1.83
308.15	0.21749	1535.36	1.83
308.15	0.27381	1539.39	1.83
308.15	0.35868	1545.48	1.83
308.15	0.45231	1552.26	1.83
318.15	0.05062	1539.87	1.83
318.15	0.1107	1543.96	1.83
318.15	0.21749	1551.25	1.83
318.15	0.27381	1555.09	1.83
318.15	0.35868	1560.92	1.83
318.15	0.45231	1567.35	1.83

System: L-valine + water; phases: Liquid
Fixed: Pressure, kPa = 101
Property: Viscosity, Pa*s (Liquid); method: CAPTUB:UFactor:3
Temperature, K	Molality, mol/kg of L-valine	Viscosity, Pa*s	uncertainty
288.15	0.02209	0.0011504	2.09e-05
288.15	0.03342	0.0011566	2.1e-05
288.15	0.04176	0.0011611	2.11e-05
288.15	0.04553	0.0011632	2.11e-05
288.15	0.0505	0.0011661	2.12e-05
288.15	0.05576	0.0011686	2.12e-05
298.15	0.02235	0.0008987	1.69e-05
298.15	0.03324	0.0009027	1.69e-05
298.15	0.04271	0.0009064	1.7e-05
298.15	0.04775	0.0009082	1.7e-05
298.15	0.05319	0.0009101	1.71e-05
298.15	0.05741	0.0009118	1.71e-05
308.15	0.02114	0.0007258	1.41e-05
308.15	0.03147	0.0007288	1.41e-05
308.15	0.04157	0.0007319	1.42e-05
308.15	0.04549	0.0007331	1.42e-05
308.15	0.04791	0.0007337	1.42e-05
308.15	0.05464	0.0007358	1.43e-05
318.15	0.02149	0.0006014	1.21e-05
318.15	0.03166	0.0006038	1.21e-05
318.15	0.04179	0.0006061	1.22e-05
318.15	0.04524	0.0006068	1.22e-05
318.15	0.0474	0.0006073	1.22e-05
318.15	0.05407	0.000609	1.22e-05

System: L-valine + water; phases: Liquid
Fixed: Pressure, kPa = 101
Property: Speed of sound, m/s (Liquid); method: Sing-around technique in a fixed-path interferometer
Temperature, K	Molality, mol/kg of L-valine	Speed of sound, m/s	uncertainty
288.15	0.03559	1469.62	1.58
288.15	0.04365	1470.47	1.58
288.15	0.05244	1471.4	1.58
288.15	0.0586	1472.05	1.58
288.15	0.07142	1473.4	1.58
288.15	0.08303	1474.63	1.58
298.15	0.03559	1500.1	1.59
298.15	0.04365	1500.88	1.59
298.15	0.05244	1501.73	1.59
298.15	0.0586	1502.33	1.59
298.15	0.07142	1503.57	1.59
298.15	0.08303	1504.7	1.59
308.15	0.03559	1523.05	1.59
308.15	0.04365	1523.77	1.59
308.15	0.05244	1524.57	1.59
308.15	0.0586	1525.12	1.59
308.15	0.07142	1526.28	1.59
308.15	0.08303	1527.32	1.59
318.15	0.0197	1538.06	1.59
318.15	0.04365	1540.02	1.59
318.15	0.05244	1540.74	1.59
318.15	0.0586	1541.25	1.59
318.15	0.07142	1542.29	1.59
318.15	0.08303	1543.25	1.59

System: L-leucine + water; phases: Liquid
Fixed: Pressure, kPa = 101
Property: Viscosity, Pa*s (Liquid); method: CAPTUB:UFactor:3
Temperature, K	Molality, mol/kg of L-leucine	Viscosity, Pa*s	uncertainty
288.15	0.01977	0.0011505	2.09e-05
288.15	0.02401	0.001153	2.1e-05
288.15	0.03189	0.001158	2.11e-05
288.15	0.04067	0.0011632	2.11e-05
288.15	0.04511	0.0011661	2.12e-05
288.15	0.0503	0.0011688	2.12e-05
298.15	0.02228	0.0009009	1.69e-05
298.15	0.03694	0.0009076	1.7e-05
298.15	0.04045	0.0009094	1.71e-05
298.15	0.05353	0.0009156	1.72e-05
298.15	0.06724	0.0009222	1.73e-05
298.15	0.08113	0.000928	1.74e-05
308.15	0.0193	0.0007262	1.41e-05
308.15	0.02231	0.0007271	1.41e-05
308.15	0.03116	0.0007301	1.42e-05
308.15	0.03988	0.0007332	1.42e-05
308.15	0.04441	0.0007347	1.42e-05
308.15	0.05005	0.0007366	1.43e-05
318.15	0.01898	0.0006012	1.21e-05
318.15	0.02214	0.000602	1.21e-05
318.15	0.03098	0.0006043	1.21e-05
318.15	0.03968	0.0006064	1.22e-05
318.15	0.04439	0.0006076	1.22e-05
318.15	0.04995	0.0006092	1.22e-05

System: L-leucine + water; phases: Liquid
Fixed: Pressure, kPa = 101
Property: Speed of sound, m/s (Liquid); method: Sing-around technique in a fixed-path interferometer
Temperature, K	Molality, mol/kg of L-leucine	Speed of sound, m/s	uncertainty
288.15	0.02155	1468.63	1.82
288.15	0.0281	1469.48	1.82
288.15	0.03296	1470.11	1.82
288.15	0.04083	1471.13	1.82
288.15	0.06632	1474.44	1.82
288.15	0.07033	1474.96	1.82
298.15	0.01941	1498.83	1.82
298.15	0.0281	1499.91	1.82
298.15	0.03296	1500.48	1.82
298.15	0.05231	1502.74	1.82
298.15	0.06632	1504.38	1.82
308.15	0.03296	1523.25	1.83
308.15	0.04083	1524.06	1.83
308.15	0.05231	1525.25	1.83
308.15	0.06632	1526.69	1.83
308.15	0.07033	1527.1	1.83
318.15	0.0281	1539.06	1.83
318.15	0.03296	1539.51	1.83
318.15	0.04083	1540.23	1.83
318.15	0.05231	1541.31	1.83
318.15	0.06632	1542.62	1.83
318.15	0.07033	1542.99	1.83

System: 2-aminoacetic acid + water + cadmium chloride; phases: Liquid
Fixed: Pressure, kPa = 101
Property: Viscosity, Pa*s (Liquid); method: CAPTUB:UFactor:3
Solvent: Molality, mol/kg of cadmium chloride	Temperature, K	Molality, mol/kg of 2-aminoacetic acid	Viscosity, Pa*s	uncertainty
0	288.15	0.06844	0.0011486714	2.171861e-05
0	288.15	0.13933	0.0011591429	2.189511e-05
0	288.15	0.2552	0.0011756468	2.217334e-05
0	288.15	0.34677	0.0011898743	2.241158e-05
0	288.15	0.42406	0.0012017116	2.261256e-05
0	288.15	0.50021	0.001213435	2.281013e-05
0	298.15	0.06025	0.00089786755	1.748597e-05
0	298.15	0.12228	0.00090552413	1.761528e-05
0	298.15	0.19328	0.00091380392	1.775388e-05
0	298.15	0.27982	0.00092484364	1.794163e-05
0	298.15	0.41452	0.00094202643	1.82321e-05
0	298.15	0.48591	0.00095066234	1.837911e-05
0	308.15	0.06295	0.0007261194	1.45803e-05
0	308.15	0.12483	0.000732451	1.4687e-05
0	308.15	0.24757	0.0007455459	1.4909e-05
0	308.15	0.33446	0.0007536043	1.50444e-05
0	308.15	0.41948	0.0007623822	1.51939e-05
0	308.15	0.47088	0.00076720285	1.52767e-05
0	318.15	0.06088	0.00060172633	1.247431e-05
0	318.15	0.12483	0.0006064371	1.25541e-05
0	318.15	0.24757	0.00061758791	1.274299e-05
0	318.15	0.33446	0.00062533981	1.287424e-05
0	318.15	0.41948	0.00063291282	1.30025e-05
0	318.15	0.47088	0.00063559617	1.304796e-05
0.1	288.15	0.07635	0.0011562	2.18e-05
0.1	288.15	0.14897	0.0011685	2.21e-05
0.1	288.15	0.19806	0.0011764	2.22e-05
0.1	288.15	0.29483	0.0011929	2.25e-05
0.1	288.15	0.36171	0.0012032	2.26e-05
0.1	288.15	0.46308	0.0012184	2.29e-05
0.1	288.15	0.679	0.0012508	2.34e-05
0.1	298.15	0.08208	0.0009374	1.82e-05
0.1	298.15	0.14685	0.0009468	1.83e-05
0.1	298.15	0.20323	0.0009551	1.85e-05
0.1	298.15	0.29864	0.0009672	1.87e-05
0.1	298.15	0.37421	0.0009764	1.88e-05
0.1	298.15	0.42287	0.0009852	1.9e-05
0.1	298.15	0.8922	0.0010442	2e-05
0.1	308.15	0.07753	0.0007344	1.47e-05
0.1	308.15	0.15618	0.0007429	1.49e-05
0.1	308.15	0.18972	0.0007463	1.49e-05
0.1	308.15	0.31609	0.0007603	1.52e-05
0.1	308.15	0.38359	0.0007678	1.53e-05
0.1	308.15	0.4658	0.0007756	1.54e-05
0.1	308.15	0.69752	0.0008011	1.59e-05
0.1	318.15	0.07753	0.0006171	1.27e-05
0.1	318.15	0.15618	0.0006243	1.29e-05
0.1	318.15	0.18972	0.000627	1.29e-05
0.1	318.15	0.31609	0.0006382	1.31e-05
0.1	318.15	0.38359	0.0006439	1.32e-05
0.1	318.15	0.4658	0.000651	1.33e-05
0.1	318.15	0.69752	0.0006759	1.37e-05
0.5	288.15	0.07628	0.0012377	2.32e-05
0.5	288.15	0.12368	0.0012464	2.34e-05
0.5	288.15	0.1714	0.0012554	2.35e-05
0.5	288.15	0.28206	0.0012762	2.39e-05
0.5	288.15	0.35467	0.0012892	2.41e-05
0.5	288.15	0.46715	0.0013108	2.44e-05
0.5	288.15	0.53786	0.0013232	2.47e-05
0.5	298.15	0.07096	0.0010479	2e-05
0.5	298.15	0.11055	0.0010544	2.01e-05
0.5	298.15	0.17911	0.0010652	2.03e-05
0.5	298.15	0.27488	0.0010819	2.06e-05
0.5	298.15	0.35996	0.0010943	2.08e-05
0.5	298.15	0.42348	0.0011063	2.1e-05
0.5	298.15	0.53576	0.0011222	2.13e-05
0.5	308.15	0.07072	0.0008356	1.64e-05
0.5	308.15	0.12133	0.0008422	1.65e-05
0.5	308.15	0.19244	0.0008522	1.67e-05
0.5	308.15	0.28742	0.0008641	1.69e-05
0.5	308.15	0.37264	0.000875	1.71e-05
0.5	308.15	0.49406	0.0008897	1.73e-05
0.5	308.15	0.54545	0.000898	1.75e-05
0.5	318.15	0.07072	0.0006821	1.38e-05
0.5	318.15	0.12133	0.0006876	1.39e-05
0.5	318.15	0.19244	0.0006951	1.41e-05
0.5	318.15	0.28742	0.0007066	1.43e-05
0.5	318.15	0.37264	0.0007155	1.44e-05
0.5	318.15	0.49406	0.0007285	1.46e-05
0.5	318.15	0.54545	0.0007352	1.47e-05
1	288.15	0.06082	0.0013476	2.51e-05
1	288.15	0.10526	0.0013575	2.52e-05
1	288.15	0.21248	0.0013812	2.56e-05
1	288.15	0.29419	0.0014005	2.6e-05
1	288.15	0.42119	0.0014276	2.64e-05
1	288.15	0.53483	0.0014523	2.68e-05
1	298.15	0.06344	0.0011729	2.21e-05
1	298.15	0.09609	0.0011793	2.22e-05
1	298.15	0.20839	0.001202	2.26e-05
1	298.15	0.28781	0.0012183	2.29e-05
1	298.15	0.43888	0.0012477	2.34e-05
1	298.15	0.52761	0.0012643	2.37e-05
1	308.15	0.06319	0.0009242	1.79e-05
1	308.15	0.10632	0.0009312	1.8e-05
1	308.15	0.22124	0.0009487	1.83e-05
1	308.15	0.29385	0.0009612	1.86e-05
1	308.15	0.44874	0.0009865	1.9e-05
1	308.15	0.56131	0.0009997	1.92e-05
1	318.15	0.06319	0.0007549	1.51e-05
1	318.15	0.10632	0.0007608	1.52e-05
1	318.15	0.22124	0.000776	1.54e-05
1	318.15	0.29385	0.0007843	1.56e-05
1	318.15	0.44874	0.0008046	1.59e-05
1	318.15	0.56131	0.0008192	1.62e-05
1.5	288.15	0.06657	0.0014909	2.75e-05
1.5	288.15	0.12572	0.0015066	2.77e-05
1.5	288.15	0.20338	0.0015277	2.81e-05
1.5	288.15	0.28257	0.0015508	2.85e-05
1.5	288.15	0.35316	0.0015676	2.88e-05
1.5	288.15	0.42469	0.0015849	2.91e-05
1.5	298.15	0.06407	0.0013419	2.5e-05
1.5	298.15	0.12036	0.0013565	2.52e-05
1.5	298.15	0.19886	0.0013754	2.55e-05
1.5	298.15	0.27314	0.0013925	2.58e-05
1.5	298.15	0.34578	0.0014094	2.61e-05
1.5	298.15	0.42044	0.0014303	2.65e-05
1.5	308.15	0.0675	0.0009949	1.91e-05
1.5	308.15	0.13023	0.0010062	1.93e-05
1.5	308.15	0.21962	0.001022	1.96e-05
1.5	308.15	0.28719	0.0010354	1.98e-05
1.5	308.15	0.36104	0.0010474	2e-05
1.5	308.15	0.45615	0.0010632	2.03e-05
1.5	318.15	0.0675	0.0008301	1.63e-05
1.5	318.15	0.13023	0.0008394	1.65e-05
1.5	318.15	0.21962	0.0008522	1.67e-05
1.5	318.15	0.28719	0.0008624	1.69e-05
1.5	318.15	0.36104	0.0008738	1.71e-05
1.5	318.15	0.45615	0.0008877	1.73e-05

System: 2-aminoacetic acid + water + cadmium chloride; phases: Liquid
Fixed: Pressure, kPa = 101
Property: Speed of sound, m/s (Liquid); method: Sing-around technique in a fixed-path interferometer
Solvent: Molality, mol/kg of cadmium chloride	Temperature, K	Molality, mol/kg of 2-aminoacetic acid	Speed of sound, m/s	uncertainty
0	288.15	0.05362	1468.86	1.58
0	288.15	0.12869	1473.09	1.58
0	288.15	0.19101	1476.62	1.58
0	288.15	0.25217	1480.11	1.59
0	288.15	0.34233	1485.3	1.59
0	288.15	0.50621	1494.9	1.59
0	288.15	0.562	1498.14	1.59
0	298.15	0.05362	1499.46	1.59
0	298.15	0.12869	1503.44	1.59
0	298.15	0.19101	1506.76	1.59
0	298.15	0.25217	1510.03	1.59
0	298.15	0.34233	1514.9	1.59
0	298.15	0.50621	1523.89	1.59
0	298.15	0.562	1526.92	1.59
0	308.15	0.05362	1522.53	1.59
0	308.15	0.10833	1525.28	1.59
0	308.15	0.1664	1528.22	1.59
0	308.15	0.26301	1533.14	1.59
0	308.15	0.37371	1538.82	1.59
0	308.15	0.49669	1545.2	1.59
0	318.15	0.05362	1539.03	1.59
0	318.15	0.12869	1542.68	1.59
0	318.15	0.19101	1545.71	1.59
0	318.15	0.25217	1548.7	1.59
0	318.15	0.34233	1553.13	1.6
0	318.15	0.50621	1561.32	1.6
0	318.15	0.562	1564.09	1.6
0.1	288.15	0.05279	1482.03	1.59
0.1	288.15	0.1085	1485.19	1.59
0.1	288.15	0.16654	1488.5	1.59
0.1	288.15	0.26013	1493.88	1.59
0.1	288.15	0.37832	1500.76	1.59
0.1	288.15	0.48465	1506.96	1.59
0.1	298.15	0.10858	1507.25	1.59
0.1	298.15	0.16654	1510.27	1.59
0.1	298.15	0.26013	1515.19	1.59
0.1	298.15	0.37832	1521.46	1.59
0.1	298.15	0.48465	1527.16	1.59
0.1	308.15	0.05279	1524.95	1.59
0.1	308.15	0.1085	1527.62	1.59
0.1	308.15	0.16654	1530.4	1.59
0.1	308.15	0.26013	1534.9	1.59
0.1	308.15	0.37832	1540.65	1.59
0.1	308.15	0.48465	1545.85	1.59
0.1	318.15	0.05279	1541.06	1.59
0.1	318.15	0.1085	1543.63	1.59
0.1	318.15	0.16654	1546.31	1.59
0.1	318.15	0.25601	1550.29	1.6
0.1	318.15	0.37832	1556.18	1.6
0.1	318.15	0.48465	1561.19	1.6
0.5	288.15	0.05069	1487.42	1.59
0.5	288.15	0.1112	1491.45	1.59
0.5	288.15	0.1721	1495.54	1.59
0.5	288.15	0.26469	1501.8	1.59
0.5	288.15	0.38693	1510.16	1.59
0.5	288.15	0.49475	1517.61	1.59
0.5	298.15	0.05069	1510.31	1.59
0.5	298.15	0.1112	1514.01	1.59
0.5	298.15	0.1721	1517.74	1.59
0.5	298.15	0.26469	1523.43	1.59
0.5	298.15	0.38693	1531.03	1.59
0.5	298.15	0.49475	1537.78	1.59
0.5	308.15	0.05069	1528.12	1.59
0.5	308.15	0.1112	1531.59	1.59
0.5	308.15	0.1721	1535.09	1.59
0.5	308.15	0.26469	1540.44	1.59
0.5	308.15	0.38693	1547.53	1.59
0.5	308.15	0.49475	1553.8	1.6
0.5	318.15	0.05069	1544.58	1.59
0.5	318.15	0.1112	1547.88	1.59
0.5	318.15	0.1721	1551.19	1.6
0.5	318.15	0.26469	1556.25	1.6
0.5	318.15	0.38693	1563	1.6
0.5	318.15	0.49475	1568.96	1.6
1	288.15	0.05128	1496.94	1.59
1	288.15	0.11479	1502.03	1.59
1	288.15	0.18802	1507.94	1.59
1	288.15	0.26783	1514.43	1.59
1	288.15	0.39461	1524.83	1.59
1	288.15	0.50272	1533.8	1.59
1	298.15	0.05128	1515.11	1.59
1	298.15	0.11479	1519.74	1.59
1	298.15	0.18802	1525.37	1.59
1	298.15	0.26783	1530.71	1.59
1	298.15	0.39461	1540.04	1.59
1	298.15	0.50272	1547.94	1.6
1	308.15	0.05128	1530.88	1.59
1	308.15	0.11479	1535.16	1.59
1	308.15	0.18802	1540.12	1.59
1	308.15	0.26783	1545.5	1.59
1	308.15	0.39461	1554.15	1.6
1	308.15	0.50272	1561.54	1.6
1	318.15	0.05128	1546.57	1.59
1	318.15	0.11479	1550.79	1.6
1	318.15	0.18802	1555.9	1.6
1	318.15	0.26783	1560.71	1.6
1	318.15	0.39461	1569.12	1.6
1	318.15	0.50272	1576.23	1.6
1.5	288.15	0.05262	1500.94	1.59
1.5	288.15	0.10837	1505.93	1.59
1.5	288.15	0.16614	1511.12	1.59
1.5	288.15	0.24349	1518.11	1.59
1.5	288.15	0.38808	1531.37	1.59
1.5	288.15	0.55398	1546.84	1.6
1.5	298.15	0.05262	1518.68	1.59
1.5	298.15	0.10837	1523.2	1.59
1.5	298.15	0.16614	1527.9	1.59
1.5	298.15	0.24349	1534.18	1.59
1.5	298.15	0.38808	1546.09	1.59
1.5	298.15	0.55398	1559.91	1.6
1.5	308.15	0.05262	1534.22	1.59
1.5	308.15	0.10837	1538.44	1.59
1.5	308.15	0.16614	1542.81	1.59
1.5	308.15	0.24349	1548.7	1.59
1.5	308.15	0.38808	1559.77	1.6
1.5	308.15	0.55398	1572.64	1.6
1.5	318.15	0.05262	1550.05	1.6
1.5	318.15	0.10837	1554.09	1.6
1.5	318.15	0.16614	1558.27	1.6
1.5	318.15	0.24349	1563.9	1.6
1.5	318.15	0.38808	1574.49	1.6
1.5	318.15	0.55398	1586.73	1.6

System: 2-aminoacetic acid + water + cadmium chloride; phases: Liquid
Fixed: Pressure, kPa = 101
Property: Mass density, kg/m3 (Liquid); method: Vibrating tube method
Temperature, K	Solvent: Molality, mol/kg of cadmium chloride	Molality, mol/kg of 2-aminoacetic acid	Mass density, kg/m3	uncertainty
288.15	0.1	0.05124	1017.261	0.332
288.15	0.1	0.14235	1020.025	0.335
288.15	0.1	0.20356	1021.868	0.337
288.15	0.1	0.25654	1023.44	0.339
288.15	0.1	0.31256	1025.102	0.341
288.15	0.1	0.45698	1029.34	0.345
288.15	0.1	0.52153	1031.186	0.347
288.15	0.5	0.0451	1078.346	0.399
288.15	0.5	0.14252	1081.119	0.401
288.15	0.5	0.19854	1082.694	0.403
288.15	0.5	0.24325	1083.936	0.404
288.15	0.5	0.30524	1085.658	0.406
288.15	0.5	0.38541	1087.859	0.408
288.15	0.5	0.48754	1090.624	0.411
288.15	1	0.0502	1150.671	0.495
288.15	1	0.1023	1152.006	0.481
288.15	1	0.16845	1153.692	0.483
288.15	1	0.25452	1155.863	0.484
288.15	1	0.30524	1157.128	0.486
288.15	1	0.39854	1159.441	0.488
288.15	1	0.47854	1161.395	0.492
288.15	1.5	0.05142	1206.919	0.543
288.15	1.5	0.10547	1208.172	0.544
288.15	1.5	0.15854	1209.394	0.546
288.15	1.5	0.26548	1211.829	0.548
288.15	1.5	0.31452	1212.931	0.55
288.15	1.5	0.38987	1214.601	0.552
288.15	1.5	0.49874	1216.994	0.554
298.15	0.1	0.05124	1014.407	0.329
298.15	0.1	0.14235	1017.079	0.332
298.15	0.1	0.20356	1018.856	0.334
298.15	0.1	0.25654	1020.372	0.336
298.15	0.1	0.31256	1021.963	0.337
298.15	0.1	0.45698	1026.036	0.342
298.15	0.1	0.52153	1027.833	0.343
298.15	0.5	0.0451	1073.888	0.394
298.15	0.5	0.14252	1076.527	0.396
298.15	0.5	0.19854	1078.03	0.398
298.15	0.5	0.24325	1079.215	0.398
298.15	0.5	0.30524	1080.855	0.401
298.15	0.5	0.38541	1082.956	0.403
298.15	0.5	0.48754	1085.599	0.406
298.15	1	0.0502	1141.955	0.471
298.15	1	0.1023	1143.225	0.47
298.15	1	0.16845	1144.821	0.472
298.15	1	0.25452	1146.882	0.474
298.15	1	0.30524	1148.078	0.476
298.15	1	0.39854	1150.265	0.478
298.15	1	0.47854	1152.115	0.48
298.15	1.5	0.05142	1200.958	0.536
298.15	1.5	0.10547	1202.111	0.537
298.15	1.5	0.15854	1203.232	0.538
298.15	1.5	0.26548	1205.463	0.541
298.15	1.5	0.31452	1206.468	0.542
298.15	1.5	0.38987	1208.007	0.544
298.15	1.5	0.49874	1210.208	0.547
308.15	0.1	0.05124	1011.06	0.326
308.15	0.1	0.14235	1013.662	0.329
308.15	0.1	0.20356	1015.391	0.33
308.15	0.1	0.25654	1016.889	0.332
308.15	0.1	0.31256	1018.445	0.334
308.15	0.1	0.45698	1022.445	0.338
308.15	0.1	0.52153	1024.213	0.339
308.15	0.5	0.0451	1069.688	0.389
308.15	0.5	0.14252	1072.229	0.391
308.15	0.5	0.19854	1073.67	0.393
308.15	0.5	0.24325	1074.807	0.394
308.15	0.5	0.30524	1076.38	0.396
308.15	0.5	0.38541	1078.398	0.398
308.15	0.5	0.48754	1080.947	0.401
308.15	1	0.0502	1136.532	0.466
308.15	1	0.1023	1137.73	0.464
308.15	1	0.16845	1139.327	0.466
308.15	1	0.25452	1141.178	0.467
308.15	1	0.30524	1142.301	0.469
308.15	1	0.39854	1144.365	0.471
308.15	1	0.47854	1146.108	0.473
308.15	1.5	0.05142	1194.051	0.528
308.15	1.5	0.10547	1195.122	0.529
308.15	1.5	0.15854	1196.164	0.53
308.15	1.5	0.26548	1198.24	0.533
308.15	1.5	0.31452	1199.178	0.534
308.15	1.5	0.38987	1200.598	0.536
308.15	1.5	0.49874	1202.64	0.538
318.15	0.1	0.05124	1006.923	0.322
318.15	0.1	0.14235	1009.413	0.324
318.15	0.1	0.20356	1011.065	0.326
318.15	0.1	0.25654	1012.481	0.327
318.15	0.1	0.31256	1013.965	0.329
318.15	0.1	0.45698	1017.78	0.333
318.15	0.1	0.52153	1019.45	0.335
318.15	0.5	0.0451	1064.942	0.386
318.15	0.5	0.14252	1067.38	0.386
318.15	0.5	0.19854	1068.765	0.389
318.15	0.5	0.24325	1069.852	0.389
318.15	0.5	0.30524	1071.362	0.391
318.15	0.5	0.38541	1073.292	0.392
318.15	0.5	0.48754	1075.718	0.395
318.15	1	0.0502	1130.271	0.463
318.15	1	0.1023	1131.404	0.457
318.15	1	0.16845	1132.83	0.46
318.15	1	0.25452	1134.668	0.461
318.15	1	0.30524	1135.73	0.462
318.15	1	0.39854	1137.687	0.465
318.15	1	0.47854	1139.34	0.467
318.15	1.5	0.05142	1186.951	0.52
318.15	1.5	0.10547	1187.941	0.521
318.15	1.5	0.15854	1188.901	0.522
318.15	1.5	0.26548	1190.819	0.524
318.15	1.5	0.31452	1191.675	0.525
318.15	1.5	0.38987	1192.982	0.527
318.15	1.5	0.49874	1194.855	0.529

System: DL-2-aminopropanoic acid + water + cadmium chloride; phases: Liquid
Fixed: Pressure, kPa = 101
Property: Viscosity, Pa*s (Liquid); method: CAPTUB:UFactor:2
Solvent: Molality, mol/kg of cadmium chloride	Temperature, K	Molality, mol/kg of DL-2-aminopropanoic acid	Viscosity, Pa*s	uncertainty
0	288.15	0.04982	0.0011533	1.52e-05
0	288.15	0.11093	0.0011718	1.54e-05
0	288.15	0.2183	0.0012035	1.58e-05
0	288.15	0.26116	0.0012166	1.6e-05
0	288.15	0.31068	0.0012313	1.61e-05
0	288.15	0.45359	0.0012718	1.66e-05
0	288.15	0.50993	0.00129	1.68e-05
0	298.15	0.07866	0.0009082	1.23e-05
0	298.15	0.19338	0.0009331	1.26e-05
0	298.15	0.31879	0.0009584	1.29e-05
0	298.15	0.42749	0.0009832	1.32e-05
0	298.15	0.54848	0.0010127	1.35e-05
0	298.15	0.59296	0.0010182	1.36e-05
0	298.15	0.73536	0.0010572	1.41e-05
0	298.15	0.84173	0.0010716	1.42e-05
0	298.15	0.95334	0.0010889	1.44e-05
0	308.15	0.04619	0.0007279	1.01e-05
0	308.15	0.10703	0.0007391	1.03e-05
0	308.15	0.2145	0.0007583	1.05e-05
0	308.15	0.25777	0.0007656	1.06e-05
0	308.15	0.30711	0.0007745	1.07e-05
0	308.15	0.34888	0.0007816	1.08e-05
0	308.15	0.49825	0.0008076	1.11e-05
0	318.15	0.04529	0.0006029	8.6e-06
0	318.15	0.10637	0.0006119	8.8e-06
0	318.15	0.21406	0.0006275	8.9e-06
0	318.15	0.25638	0.0006331	9e-06
0	318.15	0.30643	0.0006409	9.1e-06
0	318.15	0.34918	0.000647	9.2e-06
0	318.15	0.4205	0.0006561	9.3e-06
0.1	288.15	0.05469	0.0011614	1.53e-05
0.1	288.15	0.1272	0.0011845	1.56e-05
0.1	288.15	0.19242	0.0012055	1.58e-05
0.1	288.15	0.31772	0.0012446	1.63e-05
0.1	288.15	0.40422	0.0012713	1.66e-05
0.1	288.15	0.46603	0.0012893	1.68e-05
0.1	298.15	0.05598	0.0009399	1.27e-05
0.1	298.15	0.12073	0.0009556	1.28e-05
0.1	298.15	0.19629	0.0009741	1.31e-05
0.1	298.15	0.30848	0.0010001	1.34e-05
0.1	298.15	0.38466	0.0010191	1.36e-05
0.1	298.15	0.52653	0.0010513	1.4e-05
0.1	308.15	0.05977	0.0007374	1.03e-05
0.1	308.15	0.12672	0.0007498	1.04e-05
0.1	308.15	0.20454	0.0007635	1.06e-05
0.1	308.15	0.32149	0.0007868	1.08e-05
0.1	308.15	0.41109	0.0008015	1.1e-05
0.1	308.15	0.48744	0.0008169	1.12e-05
0.1	318.15	0.05977	0.0006189	8.8e-06
0.1	318.15	0.12672	0.0006295	9e-06
0.1	318.15	0.20454	0.0006408	9.1e-06
0.1	318.15	0.32149	0.0006587	9.3e-06
0.1	318.15	0.41109	0.0006711	9.5e-06
0.1	318.15	0.48744	0.0006839	9.6e-06
0.5	288.15	0.08846	0.0012559	1.64e-05
0.5	288.15	0.12446	0.0012685	1.66e-05
0.5	288.15	0.19854	0.001296	1.69e-05
0.5	288.15	0.30897	0.0013354	1.74e-05
0.5	288.15	0.41874	0.0013754	1.78e-05
0.5	288.15	0.53646	0.001414	1.83e-05
0.5	298.15	0.08846	0.0010607	1.41e-05
0.5	298.15	0.12446	0.0010704	1.42e-05
0.5	298.15	0.19854	0.0010911	1.45e-05
0.5	298.15	0.30897	0.0011195	1.48e-05
0.5	298.15	0.41874	0.0011486	1.51e-05
0.5	298.15	0.53646	0.0011805	1.55e-05
0.5	308.15	0.09381	0.0008478	1.16e-05
0.5	308.15	0.1452	0.0008594	1.17e-05
0.5	308.15	0.20867	0.0008735	1.19e-05
0.5	308.15	0.33602	0.0009033	1.22e-05
0.5	308.15	0.45409	0.0009289	1.25e-05
0.5	308.15	0.56012	0.0009511	1.28e-05
0.5	318.15	0.09381	0.0006913	9.7e-06
0.5	318.15	0.1452	0.0007	9.8e-06
0.5	318.15	0.20867	0.0007118	9.9e-06
0.5	318.15	0.33602	0.0007341	1.02e-05
0.5	318.15	0.45409	0.0007575	1.05e-05
0.5	318.15	0.56012	0.0007682	1.06e-05
1	288.15	0.06468	0.0013623	1.77e-05
1	288.15	0.11569	0.0013843	1.79e-05
1	288.15	0.20538	0.0014223	1.84e-05
1	288.15	0.26315	0.0014488	1.87e-05
1	288.15	0.30015	0.0014642	1.89e-05
1	288.15	0.5216	0.0015547	2e-05
1	298.15	0.06462	0.0011832	1.56e-05
1	298.15	0.11665	0.0012018	1.58e-05
1	298.15	0.20109	0.0012303	1.61e-05
1	298.15	0.25464	0.0012498	1.63e-05
1	298.15	0.29536	0.0012627	1.65e-05
1	298.15	0.50444	0.0013362	1.74e-05
1	308.15	0.06272	0.0009313	1.26e-05
1	308.15	0.11604	0.0009454	1.27e-05
1	308.15	0.19937	0.0009684	1.3e-05
1	308.15	0.26765	0.0009857	1.32e-05
1	308.15	0.36512	0.0010138	1.35e-05
1	308.15	0.53332	0.0010564	1.4e-05
1	318.15	0.06272	0.0007606	1.05e-05
1	318.15	0.11604	0.0007719	1.07e-05
1	318.15	0.19937	0.0007893	1.09e-05
1	318.15	0.26765	0.0008032	1.1e-05
1	318.15	0.36512	0.0008226	1.13e-05
1	318.15	0.53332	0.0008605	1.17e-05
1.5	288.15	0.06808	0.0015078	1.94e-05
1.5	288.15	0.09752	0.0015224	1.96e-05
1.5	288.15	0.18088	0.0015652	2.01e-05
1.5	288.15	0.25719	0.0016036	2.05e-05
1.5	288.15	0.35415	0.0016531	2.11e-05
1.5	288.15	0.49045	0.0017167	2.19e-05
1.5	298.15	0.06543	0.0013545	1.76e-05
1.5	298.15	0.09301	0.0013663	1.77e-05
1.5	298.15	0.17677	0.0014021	1.81e-05
1.5	298.15	0.26071	0.0014368	1.86e-05
1.5	298.15	0.32652	0.0014672	1.89e-05
1.5	298.15	0.45784	0.0015193	1.95e-05
1.5	308.15	0.06592	0.001003	1.34e-05
1.5	308.15	0.1028	0.001014	1.35e-05
1.5	308.15	0.17995	0.0010371	1.38e-05
1.5	308.15	0.26855	0.0010626	1.41e-05
1.5	308.15	0.34501	0.0010883	1.44e-05
1.5	308.15	0.48821	0.001129	1.49e-05
1.5	318.15	0.06592	0.0008362	1.14e-05
1.5	318.15	0.1028	0.0008457	1.15e-05
1.5	318.15	0.17995	0.0008639	1.18e-05
1.5	318.15	0.26855	0.0008858	1.2e-05
1.5	318.15	0.34501	0.0009028	1.22e-05
1.5	318.15	0.48821	0.0009382	1.26e-05

System: DL-2-aminopropanoic acid + water + cadmium chloride; phases: Liquid
Fixed: Pressure, kPa = 101
Property: Speed of sound, m/s (Liquid); method: Sing-around technique in a fixed-path interferometer
Solvent: Molality, mol/kg of cadmium chloride	Temperature, K	Molality, mol/kg of DL-2-aminopropanoic acid	Speed of sound, m/s	uncertainty
0	288.15	0.07777	1471.3	1.58
0	288.15	0.11256	1473.75	1.58
0	288.15	0.20588	1480.36	1.59
0	288.15	0.3139	1488.08	1.59
0	288.15	0.38254	1493	1.59
0	288.15	0.44093	1497.23	1.59
0	298.15	0.07777	1501.8	1.59
0	298.15	0.11256	1504.12	1.59
0	298.15	0.20588	1510.38	1.59
0	298.15	0.3139	1517.69	1.59
0	298.15	0.38254	1522.34	1.59
0	298.15	0.44093	1526.33	1.59
0	308.15	0.07777	1524.58	1.59
0	308.15	0.11256	1526.7	1.59
0	308.15	0.20588	1532.43	1.59
0	308.15	0.3139	1539.11	1.59
0	308.15	0.38254	1543.36	1.59
0	308.15	0.44093	1546.99	1.59
0	318.15	0.07777	1540.87	1.59
0	318.15	0.11256	1542.85	1.59
0	318.15	0.20588	1548.2	1.59
0	318.15	0.3139	1554.44	1.6
0	318.15	0.38254	1558.41	1.6
0	318.15	0.44093	1561.8	1.6
0.1	288.15	0.10259	1486.07	1.59
0.1	288.15	0.18065	1491.44	1.59
0.1	288.15	0.28413	1498.61	1.59
0.1	288.15	0.3748	1504.95	1.59
0.1	288.15	0.48306	1512.57	1.59
0.1	298.15	0.05094	1504.85	1.59
0.1	298.15	0.10259	1508.12	1.59
0.1	298.15	0.18065	1513.05	1.59
0.1	298.15	0.28413	1519.63	1.59
0.1	298.15	0.3748	1525.43	1.59
0.1	298.15	0.48306	1532.11	1.59
0.1	308.15	0.10259	1528.16	1.59
0.1	308.15	0.18065	1532.48	1.59
0.1	308.15	0.28413	1538.27	1.59
0.1	308.15	0.3748	1543.36	1.59
0.1	308.15	0.48306	1549.12	1.6
0.1	318.15	0.10259	1543.9	1.59
0.1	318.15	0.18065	1547.92	1.59
0.1	318.15	0.28413	1553.25	1.6
0.1	318.15	0.3748	1557.92	1.6
0.1	318.15	0.48306	1563.3	1.6
0.5	288.15	0.12077	1493.81	1.59
0.5	288.15	0.22207	1502.08	1.59
0.5	288.15	0.30792	1509.11	1.59
0.5	288.15	0.40793	1517.39	1.59
0.5	288.15	0.50069	1525.09	1.59
0.5	298.15	0.05171	1511.04	1.59
0.5	298.15	0.12077	1516.13	1.59
0.5	298.15	0.22207	1523.64	1.59
0.5	298.15	0.30792	1530.03	1.59
0.5	298.15	0.40793	1537.52	1.59
0.5	298.15	0.50069	1544.49	1.59
0.5	308.15	0.05171	1528.56	1.59
0.5	308.15	0.12077	1533	1.59
0.5	308.15	0.22207	1539.52	1.59
0.5	308.15	0.30792	1545.04	1.59
0.5	308.15	0.40793	1551.49	1.6
0.5	308.15	0.50069	1557.49	1.6
0.5	318.15	0.12077	1549.11	1.59
0.5	318.15	0.22207	1555.23	1.6
0.5	318.15	0.30792	1560.39	1.6
0.5	318.15	0.40793	1566.42	1.6
0.5	318.15	0.50069	1572.01	1.6
1	288.15	0.04914	1497.48	1.59
1	288.15	0.14348	1506.44	1.59
1	288.15	0.22886	1514.61	1.59
1	288.15	0.30824	1522.22	1.59
1	288.15	0.42848	1533.86	1.59
1	288.15	0.51339	1542.12	1.59
1	298.15	0.04914	1515.64	1.59
1	298.15	0.14348	1523.76	1.59
1	298.15	0.22886	1531.13	1.59
1	298.15	0.30824	1537.97	1.59
1	298.15	0.42848	1548.44	1.6
1	298.15	0.51339	1555.85	1.6
1	308.15	0.14348	1538.41	1.59
1	308.15	0.22886	1544.94	1.59
1	308.15	0.30824	1551.01	1.6
1	308.15	0.42848	1560.23	1.6
1	308.15	0.51339	1566.75	1.6
1	318.15	0.04914	1546.64	1.59
1	318.15	0.14348	1553.18	1.6
1	318.15	0.22886	1559.09	1.6
1	318.15	0.30824	1564.54	1.6
1	318.15	0.42848	1572.86	1.6
1	318.15	0.51339	1578.73	1.6
1.5	288.15	0.05148	1501.67	1.59
1.5	288.15	0.10983	1507.84	1.59
1.5	288.15	0.21343	1518.86	1.59
1.5	288.15	0.29718	1527.82	1.59
1.5	288.15	0.39969	1538.86	1.59
1.5	288.15	0.51453	1551.33	1.6
1.5	298.15	0.05148	1519.38	1.59
1.5	298.15	0.10983	1524.99	1.59
1.5	298.15	0.21343	1534.98	1.59
1.5	298.15	0.29718	1543.08	1.59
1.5	298.15	0.39969	1553.06	1.6
1.5	298.15	0.51453	1564.26	1.6
1.5	308.15	0.05148	1534.62	1.59
1.5	308.15	0.10983	1539.61	1.59
1.5	308.15	0.21343	1548.47	1.59
1.5	308.15	0.29718	1555.66	1.6
1.5	308.15	0.39969	1564.42	1.6
1.5	308.15	0.51453	1574.31	1.6
1.5	318.15	0.05148	1550.23	1.6
1.5	318.15	0.10983	1554.76	1.6
1.5	318.15	0.21343	1562.79	1.6
1.5	318.15	0.29718	1569.27	1.6
1.5	318.15	0.39969	1577.2	1.6
1.5	318.15	0.51453	1586.08	1.6

System: DL-2-aminopropanoic acid + water + cadmium chloride; phases: Liquid
Fixed: Pressure, kPa = 101
Property: Mass density, kg/m3 (Liquid); method: Vibrating tube method
Temperature, K	Solvent: Molality, mol/kg of cadmium chloride	Molality, mol/kg of DL-2-aminopropanoic acid	Mass density, kg/m3	uncertainty
288.15	0.1	0.05854	1017.303	0.332
288.15	0.1	0.15457	1019.919	0.335
288.15	0.1	0.22141	1021.718	0.337
288.15	0.1	0.26842	1022.969	0.338
288.15	0.1	0.32985	1024.591	0.34
288.15	0.1	0.46852	1028.209	0.344
288.15	0.1	0.50128	1029.043	0.345
288.15	0.5	0.0521	1078.3	0.398
288.15	0.5	0.16521	1080.979	0.4
288.15	0.5	0.23524	1082.608	0.401
288.15	0.5	0.2785	1083.595	0.404
288.15	0.5	0.33451	1084.875	0.405
288.15	0.5	0.42147	1086.839	0.407
288.15	0.5	0.50417	1088.686	0.408
288.15	1	0.0585	1150.505	0.491
288.15	1	0.11541	1151.596	0.48
288.15	1	0.17845	1152.792	0.481
288.15	1	0.26854	1154.477	0.482
288.15	1	0.3145	1155.312	0.483
288.15	1	0.38754	1156.646	0.486
288.15	1	0.48987	1158.488	0.488
288.15	1.5	0.05121	1206.509	0.542
288.15	1.5	0.11414	1207.475	0.543
288.15	1.5	0.16854	1208.294	0.544
288.15	1.5	0.27847	1209.935	0.546
288.15	1.5	0.32547	1210.621	0.547
288.15	1.5	0.36898	1211.243	0.547
288.15	1.5	0.51454	1213.321	0.55
298.15	0.1	0.05854	1014.453	0.329
298.15	0.1	0.15457	1016.986	0.332
298.15	0.1	0.22141	1018.725	0.334
298.15	0.1	0.26842	1019.935	0.335
298.15	0.1	0.32985	1021.501	0.337
298.15	0.1	0.46852	1024.998	0.341
298.15	0.1	0.50128	1025.808	0.341
298.15	0.5	0.0521	1073.874	0.393
298.15	0.5	0.16521	1076.488	0.396
298.15	0.5	0.23524	1078.078	0.397
298.15	0.5	0.2785	1079.05	0.399
298.15	0.5	0.33451	1080.301	0.4
298.15	0.5	0.42147	1082.22	0.402
298.15	0.5	0.50417	1084.018	0.403
298.15	1	0.0585	1141.811	0.471
298.15	1	0.11541	1142.857	0.47
298.15	1	0.17845	1144.003	0.471
298.15	1	0.26854	1145.621	0.472
298.15	1	0.3145	1146.429	0.473
298.15	1	0.38754	1147.709	0.475
298.15	1	0.48987	1149.478	0.477
298.15	1.5	0.05121	1200.586	0.535
298.15	1.5	0.11414	1201.48	0.536
298.15	1.5	0.16854	1202.242	0.537
298.15	1.5	0.27847	1203.756	0.539
298.15	1.5	0.32547	1204.39	0.54
298.15	1.5	0.36898	1204.97	0.54
298.15	1.5	0.51454	1206.891	0.542
308.15	0.1	0.05854	1011.088	0.326
308.15	0.1	0.15457	1013.525	0.328
308.15	0.1	0.22141	1015.198	0.33
308.15	0.1	0.26842	1016.362	0.331
308.15	0.1	0.32985	1017.868	0.333
308.15	0.1	0.46852	1021.235	0.337
308.15	0.1	0.50128	1022.014	0.337
308.15	0.5	0.0521	1069.672	0.389
308.15	0.5	0.16521	1072.187	0.391
308.15	0.5	0.23524	1073.721	0.392
308.15	0.5	0.2785	1074.657	0.394
308.15	0.5	0.33451	1075.861	0.395
308.15	0.5	0.42147	1077.708	0.397
308.15	0.5	0.50417	1079.449	0.398
308.15	1	0.0585	1136.39	0.466
308.15	1	0.11541	1137.373	0.463
308.15	1	0.17845	1138.449	0.465
308.15	1	0.26854	1139.965	0.466
308.15	1	0.3145	1140.73	0.467
308.15	1	0.38754	1141.927	0.468
308.15	1	0.48987	1143.586	0.47
308.15	1.5	0.05121	1193.702	0.527
308.15	1.5	0.11414	1194.527	0.528
308.15	1.5	0.16854	1195.225	0.529
308.15	1.5	0.27847	1196.624	0.531
308.15	1.5	0.32547	1197.204	0.531
308.15	1.5	0.36898	1197.726	0.532
308.15	1.5	0.51454	1199.496	0.534
318.15	0.1	0.05854	1006.97	0.321
318.15	0.1	0.15457	1009.338	0.324
318.15	0.1	0.22141	1010.961	0.326
318.15	0.1	0.26842	1012.094	0.327
318.15	0.1	0.32985	1013.556	0.328
318.15	0.1	0.46852	1016.831	0.332
318.15	0.1	0.50128	1017.578	0.333
318.15	0.5	0.0521	1064.919	0.385
318.15	0.5	0.16521	1067.311	0.386
318.15	0.5	0.23524	1068.769	0.388
318.15	0.5	0.2785	1069.656	0.389
318.15	0.5	0.33451	1070.795	0.39
318.15	0.5	0.42147	1072.543	0.391
318.15	0.5	0.50417	1074.183	0.394
318.15	1	0.0585	1130.167	0.461
318.15	1	0.11541	1131.125	0.456
318.15	1	0.17845	1132.174	0.458
318.15	1	0.26854	1133.651	0.459
318.15	1	0.3145	1134.393	0.46
318.15	1	0.38754	1135.563	0.461
318.15	1	0.48987	1137.173	0.464
318.15	1.5	0.05121	1186.635	0.519
318.15	1.5	0.11414	1187.404	0.52
318.15	1.5	0.16854	1188.057	0.521
318.15	1.5	0.27847	1189.354	0.522
318.15	1.5	0.32547	1189.892	0.523
318.15	1.5	0.36898	1190.388	0.524
318.15	1.5	0.51454	1192.03	0.526

System: (.+-.)-.alpha.-aminobutyric acid + water + cadmium chloride; phases: Liquid
Fixed: Pressure, kPa = 101
Property: Viscosity, Pa*s (Liquid); method: CAPTUB:UFactor:3
Solvent: Molality, mol/kg of cadmium chloride	Temperature, K	Molality, mol/kg of (.+-.)-.alpha.-aminobutyric acid	Viscosity, Pa*s	uncertainty
0	288.15	0.05106	0.0011589	2.25e-05
0	288.15	0.09089	0.0011807	2.29e-05
0	288.15	0.17637	0.0012198	2.36e-05
0	288.15	0.2253	0.0012417	2.39e-05
0	288.15	0.26846	0.0012621	2.43e-05
0	288.15	0.40442	0.0013242	2.54e-05
0	298.15	0.03245	0.0008996	1.8e-05
0	298.15	0.05413	0.0009064	1.81e-05
0	298.15	0.07577	0.0009126	1.82e-05
0	298.15	0.10803	0.0009222	1.84e-05
0	298.15	0.14331	0.0009326	1.85e-05
0	298.15	0.1888	0.0009459	1.88e-05
0	298.15	0.2162	0.0009534	1.89e-05
0	308.15	0.04831	0.000731	1.5e-05
0	308.15	0.08861	0.0007438	1.52e-05
0	308.15	0.17349	0.0007667	1.56e-05
0	308.15	0.21984	0.0007794	1.59e-05
0	308.15	0.26552	0.0007915	1.61e-05
0	308.15	0.39625	0.0008261	1.67e-05
0	318.15	0.04911	0.0006052	1.28e-05
0	318.15	0.08886	0.0006122	1.29e-05
0	318.15	0.17349	0.0006267	1.32e-05
0	318.15	0.21964	0.0006354	1.34e-05
0	318.15	0.26579	0.0006432	1.35e-05
0	318.15	0.39642	0.0006658	1.39e-05
0.1	288.15	0.04103	0.0011614	2.25e-05
0.1	288.15	0.06971	0.0011737	2.28e-05
0.1	288.15	0.1509	0.0012084	2.34e-05
0.1	288.15	0.22607	0.0012401	2.39e-05
0.1	288.15	0.32341	0.0012811	2.46e-05
0.1	288.15	0.37054	0.0012984	2.49e-05
0.1	298.15	0.04278	0.00094	1.87e-05
0.1	298.15	0.07062	0.0009487	1.88e-05
0.1	298.15	0.15851	0.0009768	1.93e-05
0.1	298.15	0.22821	0.0009996	1.97e-05
0.1	298.15	0.2902	0.0010184	2e-05
0.1	298.15	0.39279	0.0010501	2.06e-05
0.1	308.15	0.04105	0.000736	1.51e-05
0.1	308.15	0.07079	0.0007439	1.52e-05
0.1	308.15	0.16807	0.0007676	1.57e-05
0.1	308.15	0.23137	0.0007839	1.59e-05
0.1	308.15	0.27937	0.0007953	1.61e-05
0.1	308.15	0.44112	0.0008339	1.68e-05
0.1	318.15	0.04105	0.0006176	1.3e-05
0.1	318.15	0.07079	0.0006232	1.31e-05
0.1	318.15	0.16807	0.0006416	1.35e-05
0.1	318.15	0.23137	0.0006529	1.37e-05
0.1	318.15	0.27937	0.0006613	1.38e-05
0.1	318.15	0.44112	0.000692	1.43e-05
0.5	288.15	0.04057	0.0012431	2.4e-05
0.5	288.15	0.06409	0.0012544	2.42e-05
0.5	288.15	0.15521	0.0012983	2.49e-05
0.5	288.15	0.23395	0.0013374	2.56e-05
0.5	288.15	0.30429	0.00137	2.62e-05
0.5	288.15	0.40407	0.0014156	2.7e-05
0.5	298.15	0.04146	0.001052	2.06e-05
0.5	298.15	0.05831	0.0010586	2.07e-05
0.5	298.15	0.15445	0.0010956	2.14e-05
0.5	298.15	0.22821	0.0011226	2.19e-05
0.5	298.15	0.2902	0.0011451	2.23e-05
0.5	298.15	0.39279	0.0011854	2.3e-05
0.5	308.15	0.03969	0.0008382	1.69e-05
0.5	308.15	0.06938	0.0008472	1.71e-05
0.5	308.15	0.14821	0.0008708	1.75e-05
0.5	308.15	0.21215	0.0008897	1.78e-05
0.5	308.15	0.31349	0.0009208	1.83e-05
0.5	308.15	0.4424	0.0009576	1.9e-05
0.5	318.15	0.03969	0.000683	1.42e-05
0.5	318.15	0.06938	0.0006894	1.43e-05
0.5	318.15	0.14821	0.000707	1.46e-05
0.5	318.15	0.21215	0.0007201	1.48e-05
0.5	318.15	0.31349	0.0007431	1.52e-05
0.5	318.15	0.4424	0.0007702	1.57e-05
1	288.15	0.04303	0.0013589	2.6e-05
1	288.15	0.07014	0.0013741	2.62e-05
1	288.15	0.14502	0.0014175	2.7e-05
1	288.15	0.23189	0.0014678	2.79e-05
1	288.15	0.317	0.0015146	2.87e-05
1	288.15	0.38367	0.0015508	2.93e-05
1	298.15	0.04302	0.00118	2.29e-05
1	298.15	0.07058	0.0011927	2.31e-05
1	298.15	0.15989	0.0012328	2.38e-05
1	298.15	0.23027	0.0012643	2.43e-05
1	298.15	0.30918	0.0012999	2.5e-05
1	298.15	0.38178	0.0013337	2.55e-05
1	308.15	0.04207	0.0009292	1.85e-05
1	308.15	0.07979	0.0009432	1.87e-05
1	308.15	0.16805	0.0009746	1.93e-05
1	308.15	0.23725	0.0009993	1.97e-05
1	308.15	0.33011	0.0010321	2.03e-05
1	308.15	0.39465	0.0010533	2.07e-05
1	318.15	0.04207	0.0007582	1.55e-05
1	318.15	0.07979	0.0007681	1.57e-05
1	318.15	0.16805	0.000792	1.61e-05
1	318.15	0.23725	0.0008084	1.64e-05
1	318.15	0.33011	0.0008326	1.68e-05
1	318.15	0.39465	0.0008501	1.71e-05
1.5	288.15	0.04474	0.0015034	2.85e-05
1.5	288.15	0.0751	0.0015237	2.88e-05
1.5	288.15	0.16487	0.0015839	2.99e-05
1.5	288.15	0.23517	0.0016309	3.07e-05
1.5	288.15	0.30266	0.001674	3.15e-05
1.5	288.15	0.3919	0.0017335	3.25e-05
1.5	298.15	0.04539	0.0013517	2.59e-05
1.5	298.15	0.07384	0.0013677	2.61e-05
1.5	298.15	0.1609	0.0014168	2.7e-05
1.5	298.15	0.2317	0.0014552	2.77e-05
1.5	298.15	0.32072	0.0015025	2.85e-05
1.5	298.15	0.38746	0.0015405	2.91e-05
1.5	308.15	0.04469	0.0010008	1.97e-05
1.5	308.15	0.07983	0.0010147	2e-05
1.5	308.15	0.16098	0.0010487	2.06e-05
1.5	308.15	0.23423	0.0010759	2.11e-05
1.5	308.15	0.32234	0.0011111	2.17e-05
1.5	308.15	0.41657	0.0011473	2.23e-05
1.5	318.15	0.04469	0.0008336	1.68e-05
1.5	318.15	0.07983	0.0008441	1.7e-05
1.5	318.15	0.16098	0.000868	1.74e-05
1.5	318.15	0.23423	0.0008908	1.78e-05
1.5	318.15	0.32234	0.0009164	1.83e-05
1.5	318.15	0.41657	0.0009428	1.87e-05

System: (.+-.)-.alpha.-aminobutyric acid + water + cadmium chloride; phases: Liquid
Fixed: Pressure, kPa = 101
Property: Speed of sound, m/s (Liquid); method: Sing-around technique in a fixed-path interferometer
Solvent: Molality, mol/kg of cadmium chloride	Temperature, K	Molality, mol/kg of (.+-.)-.alpha.-aminobutyric acid	Speed of sound, m/s	uncertainty
0	288.15	0.05062	1469.9	1.82
0	288.15	0.1107	1474.74	1.82
0	288.15	0.21749	1483.39	1.82
0	288.15	0.27381	1487.97	1.82
0	288.15	0.35868	1494.92	1.82
0	288.15	0.45231	1502.66	1.82
0	298.15	0.1107	1505.22	1.82
0	298.15	0.21749	1513.56	1.82
0	298.15	0.27381	1517.96	1.83
0	298.15	0.35868	1524.65	1.83
0	298.15	0.45231	1532.09	1.83
0	308.15	0.05062	1523.43	1.83
0	308.15	0.1107	1527.72	1.83
0	308.15	0.21749	1535.36	1.83
0	308.15	0.27381	1539.39	1.83
0	308.15	0.35868	1545.48	1.83
0	308.15	0.45231	1552.26	1.83
0	318.15	0.05062	1539.87	1.83
0	318.15	0.1107	1543.96	1.83
0	318.15	0.21749	1551.25	1.83
0	318.15	0.27381	1555.09	1.83
0	318.15	0.35868	1560.92	1.83
0	318.15	0.45231	1567.35	1.83
0.1	288.15	0.13804	1489.77	1.82
0.1	288.15	0.26355	1499.64	1.82
0.1	288.15	0.33164	1505	1.82
0.1	288.15	0.42957	1512.81	1.82
0.1	288.15	0.49654	1518.14	1.83
0.1	298.15	0.05039	1505.25	1.82
0.1	298.15	0.13804	1511.56	1.82
0.1	298.15	0.26355	1520.64	1.83
0.1	298.15	0.33164	1525.56	1.83
0.1	298.15	0.42957	1532.69	1.83
0.1	298.15	0.49654	1537.58	1.83
0.1	308.15	0.05039	1525.68	1.83
0.1	308.15	0.13804	1531.35	1.83
0.1	308.15	0.26355	1539.48	1.83
0.1	308.15	0.33164	1543.87	1.83
0.1	308.15	0.42957	1550.2	1.83
0.1	308.15	0.49654	1554.51	1.83
0.1	318.15	0.05039	1541.67	1.83
0.1	318.15	0.13804	1546.97	1.83
0.1	318.15	0.26355	1554.56	1.83
0.1	318.15	0.33164	1558.65	1.83
0.1	318.15	0.42957	1564.57	1.83
0.1	318.15	0.49654	1568.59	1.83
0.5	288.15	0.05055	1488.6	1.82
0.5	288.15	0.10313	1493.35	1.82
0.5	288.15	0.16804	1499.23	1.82
0.5	288.15	0.25137	1506.81	1.82
0.5	288.15	0.32927	1513.92	1.82
0.5	288.15	0.47336	1527.2	1.83
0.5	298.15	0.05055	1511.43	1.82
0.5	298.15	0.10313	1515.8	1.82
0.5	298.15	0.16804	1521.2	1.83
0.5	298.15	0.25137	1528.16	1.83
0.5	298.15	0.32927	1534.67	1.83
0.5	298.15	0.47336	1546.8	1.83
0.5	308.15	0.10313	1532.92	1.83
0.5	308.15	0.16804	1537.75	1.83
0.5	308.15	0.25137	1543.94	1.83
0.5	308.15	0.32927	1549.74	1.83
0.5	308.15	0.47336	1560.49	1.83
0.5	318.15	0.10313	1549.04	1.83
0.5	318.15	0.16804	1553.56	1.83
0.5	318.15	0.25137	1559.37	1.83
0.5	318.15	0.32927	1564.77	1.83
0.5	318.15	0.47336	1574.84	1.83
1	288.15	0.05013	1498.06	1.82
1	288.15	0.11551	1504.9	1.82
1	288.15	0.19776	1513.52	1.82
1	288.15	0.30679	1525.01	1.83
1	288.15	0.38545	1533.33	1.83
1	288.15	0.52336	1548.04	1.83
1	298.15	0.05013	1516.31	1.82
1	298.15	0.11551	1522.68	1.83
1	298.15	0.19776	1530.72	1.83
1	298.15	0.30679	1541.4	1.83
1	298.15	0.38545	1549.11	1.83
1	298.15	0.52336	1562.73	1.83
1	308.15	0.05013	1531.72	1.83
1	308.15	0.11551	1537.29	1.83
1	308.15	0.19776	1544.3	1.83
1	308.15	0.30679	1553.6	1.83
1	308.15	0.38545	1560.26	1.83
1	308.15	0.52336	1572.02	1.83
1	318.15	0.05013	1547.24	1.83
1	318.15	0.11551	1552.45	1.83
1	318.15	0.19776	1558.99	1.83
1	318.15	0.30679	1567.65	1.83
1	318.15	0.38545	1573.89	1.83
1	318.15	0.52336	1584.83	1.83
1.5	288.15	0.05142	1502.22	1.82
1.5	288.15	0.11263	1509.37	1.82
1.5	288.15	0.20548	1520.25	1.82
1.5	288.15	0.3053	1532.01	1.83
1.5	288.15	0.40396	1543.71	1.83
1.5	288.15	0.50788	1556.08	1.83
1.5	298.15	0.05142	1520.02	1.82
1.5	298.15	0.11263	1526.66	1.83
1.5	298.15	0.20548	1536.77	1.83
1.5	298.15	0.3053	1547.66	1.83
1.5	298.15	0.40396	1558.45	1.83
1.5	298.15	0.50788	1569.88	1.83
1.5	308.15	0.05142	1535.15	1.83
1.5	308.15	0.11263	1540.99	1.83
1.5	308.15	0.20548	1549.84	1.83
1.5	308.15	0.3053	1559.36	1.83
1.5	308.15	0.40396	1568.73	1.83
1.5	308.15	0.50788	1578.6	1.83
1.5	318.15	0.05142	1550.84	1.83
1.5	318.15	0.20548	1564.61	1.83
1.5	318.15	0.3053	1573.52	1.83
1.5	318.15	0.40396	1582.28	1.83
1.5	318.15	0.50788	1591.5	1.83

System: (.+-.)-.alpha.-aminobutyric acid + water + cadmium chloride; phases: Liquid
Fixed: Pressure, kPa = 101
Property: Mass density, kg/m3 (Liquid); method: Vibrating tube method
Temperature, K	Solvent: Molality, mol/kg of cadmium chloride	Molality, mol/kg of (.+-.)-.alpha.-aminobutyric acid	Mass density, kg/m3	uncertainty
288.15	0.1	0.05014	1017.037	0.546
288.15	0.1	0.15652	1019.857	0.55
288.15	0.1	0.21451	1021.367	0.552
288.15	0.1	0.26547	1022.673	0.554
288.15	0.1	0.30214	1023.607	0.556
288.15	0.1	0.46857	1027.797	0.562
288.15	0.1	0.50142	1028.549	0.563
288.15	0.5	0.05124	1078.221	0.639
288.15	0.5	0.15424	1080.539	0.642
288.15	0.5	0.20421	1081.643	0.643
288.15	0.5	0.25654	1082.782	0.645
288.15	0.5	0.31452	1084.037	0.647
288.15	0.5	0.39874	1085.831	0.65
288.15	0.5	0.50268	1088.012	0.653
288.15	1	0.04985	1150.228	0.756
288.15	1	0.12145	1151.441	0.754
288.15	1	0.17845	1152.392	0.756
288.15	1	0.26547	1153.816	0.757
288.15	1	0.31452	1154.608	0.759
288.15	1	0.40524	1156.047	0.761
288.15	1	0.49857	1157.507	0.764
288.15	1.5	0.0505	1206.305	0.843
288.15	1.5	0.11658	1207.063	0.844
288.15	1.5	0.15854	1207.534	0.845
288.15	1.5	0.26548	1208.718	0.847
288.15	1.5	0.31452	1209.239	0.848
288.15	1.5	0.38987	1210.033	0.849
288.15	1.5	0.49874	1211.157	0.851
298.15	0.1	0.05014	1014.185	0.542
298.15	0.1	0.15652	1016.89	0.546
298.15	0.1	0.21451	1018.336	0.548
298.15	0.1	0.26547	1019.595	0.55
298.15	0.1	0.30214	1020.49	0.551
298.15	0.1	0.46857	1024.515	0.557
298.15	0.1	0.50142	1025.284	0.558
298.15	0.5	0.05124	1073.76	0.632
298.15	0.5	0.15424	1075.949	0.634
298.15	0.5	0.20421	1076.995	0.636
298.15	0.5	0.25654	1078.072	0.638
298.15	0.5	0.31452	1079.521	0.64
298.15	0.5	0.39874	1080.939	0.642
298.15	0.5	0.50268	1082.99	0.645
298.15	1	0.04985	1141.486	0.738
298.15	1	0.12145	1142.568	0.739
298.15	1	0.17845	1143.415	0.741
298.15	1	0.26547	1144.685	0.743
298.15	1	0.31452	1145.382	0.744
298.15	1	0.40524	1146.669	0.746
298.15	1	0.49857	1147.955	0.748
298.15	1.5	0.0505	1200.354	0.833
298.15	1.5	0.11658	1201.003	0.834
298.15	1.5	0.15854	1201.4	0.835
298.15	1.5	0.26548	1202.411	0.837
298.15	1.5	0.31452	1202.857	0.838
298.15	1.5	0.38987	1203.53	0.839
298.15	1.5	0.49874	1204.497	0.84
308.15	0.1	0.05014	1010.812	0.537
308.15	0.1	0.15652	1013.377	0.54
308.15	0.1	0.21451	1014.752	0.542
308.15	0.1	0.26547	1015.943	0.544
308.15	0.1	0.30214	1016.792	0.545
308.15	0.1	0.46857	1020.607	0.551
308.15	0.1	0.50142	1021.32	0.552
308.15	0.5	0.05124	1069.537	0.625
308.15	0.5	0.15424	1071.592	0.628
308.15	0.5	0.20421	1072.571	0.63
308.15	0.5	0.25654	1073.581	0.631
308.15	0.5	0.31452	1074.69	0.633
308.15	0.5	0.39874	1076.277	0.635
308.15	0.5	0.50268	1078.221	0.638
308.15	1	0.04985	1136.068	0.73
308.15	1	0.12145	1137.061	0.73
308.15	1	0.17845	1137.835	0.732
308.15	1	0.26547	1139.004	0.733
308.15	1	0.31452	1139.646	0.735
308.15	1	0.40524	1140.816	0.736
308.15	1	0.49857	1141.999	0.738
308.15	1.5	0.0505	1193.45	0.822
308.15	1.5	0.11658	1193.998	0.823
308.15	1.5	0.15854	1194.338	0.823
308.15	1.5	0.26548	1195.181	0.825
308.15	1.5	0.31452	1195.546	0.825
308.15	1.5	0.38987	1196.118	0.826
308.15	1.5	0.49874	1196.93	0.828
318.15	0.1	0.05014	1006.72	0.531
318.15	0.1	0.15652	1009.252	0.534
318.15	0.1	0.21451	1010.603	0.536
318.15	0.1	0.26547	1011.783	0.538
318.15	0.1	0.30214	1012.62	0.539
318.15	0.1	0.46857	1016.383	0.545
318.15	0.1	0.50142	1017.102	0.546
318.15	0.5	0.05124	1064.813	0.619
318.15	0.5	0.15424	1066.809	0.621
318.15	0.5	0.20421	1067.76	0.623
318.15	0.5	0.25654	1068.746	0.624
318.15	0.5	0.31452	1069.821	0.626
318.15	0.5	0.39874	1071.362	0.628
318.15	0.5	0.50268	1073.235	0.631
318.15	1	0.04985	1129.876	0.722
318.15	1	0.12145	1130.876	0.721
318.15	1	0.17845	1131.654	0.723
318.15	1	0.26547	1132.831	0.724
318.15	1	0.31452	1133.477	0.725
318.15	1	0.40524	1134.665	0.727
318.15	1	0.49857	1135.852	0.729
318.15	1.5	0.0505	1186.427	0.81
318.15	1.5	0.11658	1186.974	0.811
318.15	1.5	0.15854	1187.313	0.812
318.15	1.5	0.26548	1188.157	0.813
318.15	1.5	0.31452	1188.522	0.814
318.15	1.5	0.38987	1189.094	0.815
318.15	1.5	0.49874	1189.897	0.816

System: L-valine + water + cadmium chloride; phases: Liquid
Fixed: Pressure, kPa = 101
Property: Viscosity, Pa*s (Liquid); method: CAPTUB:UFactor:3
Solvent: Molality, mol/kg of cadmium chloride	Temperature, K	Molality, mol/kg of L-valine	Viscosity, Pa*s	uncertainty
0	288.15	0.02209	0.0011504	2.17e-05
0	288.15	0.03342	0.0011566	2.19e-05
0	288.15	0.04176	0.0011611	2.19e-05
0	288.15	0.04553	0.0011632	2.2e-05
0	288.15	0.0505	0.0011661	2.2e-05
0	288.15	0.05576	0.0011686	2.21e-05
0	308.15	0.02114	0.0007258	1.46e-05
0	308.15	0.03147	0.0007288	1.46e-05
0	308.15	0.04157	0.0007319	1.47e-05
0	308.15	0.04549	0.0007331	1.47e-05
0	308.15	0.04791	0.0007337	1.47e-05
0	308.15	0.05464	0.0007358	1.47e-05
0	318.15	0.02149	0.0006014	1.25e-05
0	318.15	0.03166	0.0006038	1.25e-05
0	318.15	0.04179	0.0006061	1.25e-05
0	318.15	0.04524	0.0006068	1.26e-05
0	318.15	0.0474	0.0006073	1.26e-05
0	318.15	0.05407	0.000609	1.26e-05
0.1	288.15	0.02189	0.0011564	2.18e-05
0.1	288.15	0.04322	0.0011688	2.21e-05
0.1	288.15	0.05355	0.0011746	2.22e-05
0.1	288.15	0.05972	0.0011783	2.22e-05
0.1	288.15	0.0761	0.0011875	2.24e-05
0.1	298.15	0.02505	0.0009364	1.81e-05
0.1	298.15	0.04092	0.0009427	1.82e-05
0.1	298.15	0.05128	0.000947	1.83e-05
0.1	298.15	0.05669	0.0009493	1.84e-05
0.1	298.15	0.06853	0.0009544	1.84e-05
0.1	308.15	0.02168	0.0007328	1.47e-05
0.1	308.15	0.04862	0.0007411	1.48e-05
0.1	308.15	0.05669	0.0007437	1.49e-05
0.1	308.15	0.0604	0.000745	1.49e-05
0.1	308.15	0.07873	0.0007507	1.5e-05
0.1	308.15	0.09911	0.0007569	1.51e-05
0.1	318.15	0.02168	0.0006152	1.27e-05
0.1	318.15	0.04862	0.0006218	1.28e-05
0.1	318.15	0.05669	0.0006238	1.28e-05
0.1	318.15	0.0604	0.0006249	1.29e-05
0.1	318.15	0.07873	0.0006295	1.29e-05
0.1	318.15	0.09911	0.000634	1.3e-05
0.5	288.15	0.02649	0.0012398	2.33e-05
0.5	288.15	0.04708	0.0012527	2.35e-05
0.5	288.15	0.0512	0.0012552	2.35e-05
0.5	288.15	0.05611	0.0012581	2.36e-05
0.5	288.15	0.0709	0.0012673	2.37e-05
0.5	298.15	0.021	0.0010456	2e-05
0.5	298.15	0.04708	0.0010578	2.02e-05
0.5	298.15	0.0512	0.0010596	2.02e-05
0.5	298.15	0.05611	0.0010621	2.03e-05
0.5	298.15	0.0709	0.0010689	2.04e-05
0.5	308.15	0.02211	0.0008345	1.64e-05
0.5	308.15	0.05699	0.000848	1.66e-05
0.5	308.15	0.05871	0.0008483	1.67e-05
0.5	308.15	0.06576	0.0008514	1.67e-05
0.5	308.15	0.07636	0.0008554	1.68e-05
0.5	308.15	0.08538	0.0008585	1.68e-05
0.5	318.15	0.02211	0.0006805	1.38e-05
0.5	318.15	0.05699	0.0006905	1.4e-05
0.5	318.15	0.05871	0.0006912	1.4e-05
0.5	318.15	0.06576	0.0006934	1.4e-05
0.5	318.15	0.07636	0.0006961	1.41e-05
0.5	318.15	0.08538	0.0006991	1.41e-05
1	288.15	0.02507	0.0013532	2.52e-05
1	288.15	0.04679	0.00137	2.54e-05
1	288.15	0.0526	0.0013744	2.55e-05
1	288.15	0.05774	0.0013784	2.56e-05
1	288.15	0.07373	0.0013907	2.58e-05
1	298.15	0.02507	0.0011748	2.22e-05
1	298.15	0.04679	0.0011875	2.24e-05
1	298.15	0.0526	0.0011911	2.24e-05
1	298.15	0.05774	0.001194	2.25e-05
1	298.15	0.07373	0.0012034	2.26e-05
1	308.15	0.02708	0.0009262	1.8e-05
1	308.15	0.05316	0.000938	1.82e-05
1	308.15	0.06245	0.000942	1.82e-05
1	308.15	0.06971	0.0009454	1.83e-05
1	308.15	0.08527	0.0009525	1.84e-05
1	318.15	0.02708	0.0007563	1.51e-05
1	318.15	0.05316	0.0007652	1.52e-05
1	318.15	0.06245	0.0007686	1.53e-05
1	318.15	0.06971	0.0007706	1.53e-05
1	318.15	0.08527	0.0007766	1.54e-05
1.5	288.15	0.01987	0.0014904	2.75e-05
1.5	288.15	0.04174	0.0015101	2.78e-05
1.5	288.15	0.0515	0.001519	2.79e-05
1.5	288.15	0.06431	0.0015306	2.81e-05
1.5	288.15	0.07237	0.0015378	2.83e-05
1.5	298.15	0.01987	0.00134	2.49e-05
1.5	298.15	0.04174	0.0013559	2.52e-05
1.5	298.15	0.0515	0.0013631	2.53e-05
1.5	298.15	0.06431	0.001372	2.55e-05
1.5	298.15	0.07237	0.0013774	2.56e-05
1.5	308.15	0.01987	0.0009926	1.91e-05
1.5	308.15	0.04174	0.0010036	1.93e-05
1.5	308.15	0.0515	0.0010083	1.94e-05
1.5	308.15	0.06431	0.001015	1.95e-05
1.5	308.15	0.07237	0.0010187	1.95e-05
1.5	308.15	0.08435	0.0010252	1.96e-05
1.5	318.15	0.01987	0.0008277	1.63e-05
1.5	318.15	0.04174	0.0008361	1.64e-05
1.5	318.15	0.0515	0.0008398	1.65e-05
1.5	318.15	0.06431	0.0008449	1.66e-05
1.5	318.15	0.07237	0.0008482	1.66e-05
1.5	318.15	0.08435	0.0008531	1.67e-05

System: L-valine + water + cadmium chloride; phases: Liquid
Fixed: Pressure, kPa = 101
Property: Speed of sound, m/s (Liquid); method: Sing-around technique in a fixed-path interferometer
Solvent: Molality, mol/kg of cadmium chloride	Temperature, K	Molality, mol/kg of L-valine	Speed of sound, m/s	uncertainty
0	288.15	0.03559	1469.62	1.58
0	288.15	0.04365	1470.47	1.58
0	288.15	0.05244	1471.4	1.58
0	288.15	0.0586	1472.05	1.58
0	288.15	0.07142	1473.4	1.58
0	288.15	0.08303	1474.63	1.58
0	298.15	0.03559	1500.1	1.59
0	298.15	0.04365	1500.88	1.59
0	298.15	0.05244	1501.73	1.59
0	298.15	0.0586	1502.33	1.59
0	298.15	0.07142	1503.57	1.59
0	298.15	0.08303	1504.7	1.59
0	308.15	0.03559	1523.05	1.59
0	308.15	0.04365	1523.77	1.59
0	308.15	0.05244	1524.57	1.59
0	308.15	0.0586	1525.12	1.59
0	308.15	0.07142	1526.28	1.59
0	308.15	0.08303	1527.32	1.59
0	318.15	0.0197	1538.06	1.59
0	318.15	0.04365	1540.02	1.59
0	318.15	0.05244	1540.74	1.59
0	318.15	0.0586	1541.25	1.59
0	318.15	0.07142	1542.29	1.59
0	318.15	0.08303	1543.25	1.59
0.1	288.15	0.02042	1481.28	1.58
0.1	288.15	0.03022	1482.36	1.59
0.1	288.15	0.04073	1483.52	1.59
0.1	288.15	0.05092	1484.64	1.59
0.1	288.15	0.05885	1485.51	1.59
0.1	288.15	0.06423	1486.1	1.59
0.1	298.15	0.03022	1504.56	1.59
0.1	298.15	0.04073	1505.58	1.59
0.1	298.15	0.05092	1506.56	1.59
0.1	298.15	0.05885	1507.32	1.59
0.1	298.15	0.06423	1507.83	1.59
0.1	308.15	0.03022	1525.11	1.59
0.1	308.15	0.04073	1526.04	1.59
0.1	308.15	0.05092	1526.94	1.59
0.1	308.15	0.05885	1527.64	1.59
0.1	308.15	0.06423	1528.11	1.59
0.1	318.15	0.02042	1540.88	1.59
0.1	318.15	0.03022	1541.65	1.59
0.1	318.15	0.04073	1542.48	1.59
0.1	318.15	0.05092	1543.28	1.59
0.1	318.15	0.05885	1543.91	1.59
0.1	318.15	0.06423	1544.32	1.59
0.5	288.15	0.02786	1487.53	1.59
0.5	288.15	0.03476	1488.4	1.59
0.5	288.15	0.04444	1489.61	1.59
0.5	288.15	0.05065	1490.39	1.59
0.5	288.15	0.05944	1491.49	1.59
0.5	288.15	0.06398	1492.05	1.59
0.5	298.15	0.03476	1511.1	1.59
0.5	298.15	0.04444	1512.17	1.59
0.5	298.15	0.05065	1512.85	1.59
0.5	298.15	0.05944	1513.83	1.59
0.5	298.15	0.06398	1514.32	1.59
0.5	308.15	0.01675	1526.93	1.59
0.5	308.15	0.02786	1528.05	1.59
0.5	308.15	0.03476	1528.74	1.59
0.5	308.15	0.04444	1529.72	1.59
0.5	308.15	0.05065	1530.34	1.59
0.5	308.15	0.05944	1531.23	1.59
0.5	308.15	0.06398	1531.68	1.59
0.5	318.15	0.03476	1544.99	1.59
0.5	318.15	0.04444	1545.87	1.59
0.5	318.15	0.05065	1546.42	1.59
0.5	318.15	0.05944	1547.21	1.59
0.5	318.15	0.06398	1547.62	1.59
0.5	318.15	0.06498	1547.7	1.59
1	288.15	0.02088	1495.89	1.59
1	288.15	0.03051	1497.3	1.59
1	288.15	0.04014	1498.71	1.59
1	288.15	0.05035	1500.21	1.59
1	288.15	0.06055	1501.7	1.59
1	288.15	0.06806	1502.8	1.59
1	298.15	0.02088	1514.09	1.59
1	298.15	0.03051	1515.32	1.59
1	298.15	0.04014	1516.54	1.59
1	298.15	0.05035	1517.82	1.59
1	298.15	0.06055	1519.11	1.59
1	298.15	0.06806	1520.06	1.59
1	308.15	0.02088	1529.87	1.59
1	308.15	0.03051	1530.99	1.59
1	308.15	0.04014	1532.11	1.59
1	308.15	0.05035	1533.29	1.59
1	308.15	0.06055	1534.47	1.59
1	308.15	0.06806	1535.34	1.59
1	318.15	0.02088	1545.41	1.59
1	318.15	0.03051	1546.4	1.59
1	318.15	0.04014	1547.39	1.59
1	318.15	0.05035	1548.44	1.59
1	318.15	0.06055	1549.49	1.59
1	318.15	0.06806	1550.26	1.6
1.5	288.15	0.02043	1499.57	1.59
1.5	288.15	0.0297	1501.09	1.59
1.5	288.15	0.03937	1502.66	1.59
1.5	288.15	0.04776	1504.03	1.59
1.5	288.15	0.05384	1505.02	1.59
1.5	288.15	0.06781	1507.3	1.59
1.5	298.15	0.0297	1518.66	1.59
1.5	298.15	0.03937	1520.02	1.59
1.5	298.15	0.04776	1521.21	1.59
1.5	298.15	0.05384	1522.08	1.59
1.5	298.15	0.06781	1524.04	1.59
1.5	308.15	0.0297	1534.05	1.59
1.5	308.15	0.03937	1535.29	1.59
1.5	308.15	0.0476	1536.34	1.59
1.5	308.15	0.05384	1537.13	1.59
1.5	308.15	0.06781	1538.92	1.59
1.5	318.15	0.02043	1548.57	1.59
1.5	318.15	0.0297	1549.62	1.59
1.5	318.15	0.03937	1550.72	1.6
1.5	318.15	0.04776	1551.67	1.6
1.5	318.15	0.05384	1552.36	1.6
1.5	318.15	0.06781	1553.93	1.6

System: L-valine + water + cadmium chloride; phases: Liquid
Fixed: Pressure, kPa = 101
Property: Mass density, kg/m3 (Liquid); method: Vibrating tube method
Temperature, K	Solvent: Molality, mol/kg of cadmium chloride	Molality, mol/kg of L-valine	Mass density, kg/m3	uncertainty
288.15	0.1	0.01125	1015.978	0.331
288.15	0.1	0.02104	1016.227	0.331
288.15	0.1	0.03256	1016.519	0.331
288.15	0.1	0.04012	1016.709	0.331
288.15	0.1	0.05475	1017.076	0.332
288.15	0.1	0.06452	1017.321	0.332
288.15	0.1	0.07412	1017.558	0.332
288.15	0.5	0.01023	1077.26	0.416
288.15	0.5	0.02088	1077.477	0.396
288.15	0.5	0.03156	1077.694	0.396
288.15	0.5	0.04078	1077.878	0.397
288.15	0.5	0.05298	1078.122	0.397
288.15	0.5	0.06235	1078.308	0.397
288.15	0.5	0.07054	1078.471	0.424
288.15	1	0.01245	1149.354	0.8
288.15	1	0.02145	1149.652	0.48
288.15	1	0.03088	1149.776	0.477
288.15	1	0.04199	1149.921	0.478
288.15	1	0.05047	1150.03	0.477
288.15	1	0.06185	1150.177	0.48
288.15	1	0.07056	1150.287	0.775
288.15	1.5	0.01045	1205.782	0.541
288.15	1.5	0.02089	1205.849	0.541
288.15	1.5	0.03163	1205.916	0.541
288.15	1.5	0.04074	1205.973	0.541
288.15	1.5	0.05044	1206.032	0.541
288.15	1.5	0.06223	1206.104	0.541
288.15	1.5	0.07124	1206.157	0.541
298.15	0.1	0.01125	1013.172	0.329
298.15	0.1	0.02104	1013.415	0.328
298.15	0.1	0.03256	1013.699	0.328
298.15	0.1	0.04012	1013.885	0.329
298.15	0.1	0.05475	1014.244	0.329
298.15	0.1	0.06452	1014.482	0.329
298.15	0.1	0.07412	1014.716	0.328
298.15	0.5	0.01023	1072.855	0.396
298.15	0.5	0.02088	1073.062	0.391
298.15	0.5	0.03156	1073.27	0.392
298.15	0.5	0.04078	1073.448	0.393
298.15	0.5	0.05298	1073.682	0.392
298.15	0.5	0.06235	1073.86	0.392
298.15	0.5	0.07054	1074.015	0.44
298.15	1	0.01245	1140.873	0.547
298.15	1	0.02145	1140.983	0.469
298.15	1	0.03088	1141.097	0.467
298.15	1	0.04199	1141.23	0.47
298.15	1	0.05047	1141.332	0.468
298.15	1	0.06185	1141.465	0.468
298.15	1	0.07056	1141.568	0.491
298.15	1.5	0.01045	1199.909	0.535
298.15	1.5	0.02089	1199.965	0.534
298.15	1.5	0.03163	1200.022	0.534
298.15	1.5	0.04074	1200.07	0.534
298.15	1.5	0.05044	1200.12	0.534
298.15	1.5	0.06223	1200.18	0.534
298.15	1.5	0.07124	1200.222	0.535
308.15	0.1	0.01125	1009.856	0.327
308.15	0.1	0.02104	1010.091	0.325
308.15	0.1	0.03256	1010.365	0.325
308.15	0.1	0.04012	1010.545	0.325
308.15	0.1	0.05475	1010.891	0.325
308.15	0.1	0.06452	1011.121	0.326
308.15	0.1	0.07412	1011.344	0.325
308.15	0.5	0.01023	1068.689	0.396
308.15	0.5	0.02088	1068.887	0.387
308.15	0.5	0.03156	1069.085	0.387
308.15	0.5	0.04078	1069.254	0.388
308.15	0.5	0.05298	1069.475	0.387
308.15	0.5	0.06235	1069.646	0.388
308.15	0.5	0.07054	1069.793	0.442
308.15	1	0.01245	1135.504	0.566
308.15	1	0.02145	1135.603	0.462
308.15	1	0.03088	1135.706	0.461
308.15	1	0.04199	1135.827	0.462
308.15	1	0.05047	1135.917	0.461
308.15	1	0.06185	1136.039	0.462
308.15	1	0.07056	1136.131	0.52
308.15	1.5	0.01045	1193.071	0.527
308.15	1.5	0.02089	1193.12	0.53
308.15	1.5	0.03163	1193.168	0.527
308.15	1.5	0.04074	1193.208	0.527
308.15	1.5	0.05044	1193.251	0.527
308.15	1.5	0.06223	1193.302	0.527
308.15	1.5	0.07124	1193.34	0.53
318.15	0.1	0.01125	1005.775	0.32
318.15	0.1	0.02104	1006.006	0.32
318.15	0.1	0.03256	1006.276	0.321
318.15	0.1	0.04012	1006.451	0.321
318.15	0.1	0.05475	1006.79	0.321
318.15	0.1	0.06452	1007.016	0.321
318.15	0.1	0.07412	1007.235	0.322
318.15	0.5	0.01023	1063.985	0.429
318.15	0.5	0.02088	1064.173	0.382
318.15	0.5	0.03156	1064.36	0.382
318.15	0.5	0.04078	1064.521	0.384
318.15	0.5	0.05298	1064.732	0.383
318.15	0.5	0.06235	1064.894	0.383
318.15	0.5	0.07054	1065.034	0.467
318.15	1	0.01245	1129.306	0.571
318.15	1	0.02145	1129.403	0.456
318.15	1	0.03088	1129.503	0.455
318.15	1	0.04199	1129.622	0.455
318.15	1	0.05047	1129.71	0.455
318.15	1	0.06185	1129.828	0.456
318.15	1	0.07056	1129.918	0.559
318.15	1.5	0.01045	1186.045	0.518
318.15	1.5	0.02089	1186.087	0.518
318.15	1.5	0.03163	1186.131	0.519
318.15	1.5	0.04074	1186.166	0.519
318.15	1.5	0.05044	1186.204	0.519
318.15	1.5	0.06223	1186.247	0.519
318.15	1.5	0.07124	1186.28	0.519

System: L-leucine + water + cadmium chloride; phases: Liquid
Fixed: Pressure, kPa = 101
Property: Viscosity, Pa*s (Liquid); method: CAPTUB:UFactor:3
Solvent: Molality, mol/kg of cadmium chloride	Temperature, K	Molality, mol/kg of L-leucine	Viscosity, Pa*s	uncertainty
0	288.15	0.01977	0.0011505	2.23e-05
0	288.15	0.02401	0.001153	2.24e-05
0	288.15	0.03189	0.001158	2.25e-05
0	288.15	0.04067	0.0011632	2.26e-05
0	288.15	0.04511	0.0011661	2.26e-05
0	288.15	0.0503	0.0011688	2.27e-05
0	298.15	0.02228	0.0009009	1.8e-05
0	298.15	0.03694	0.0009076	1.81e-05
0	298.15	0.04045	0.0009094	1.81e-05
0	298.15	0.05353	0.0009156	1.83e-05
0	298.15	0.06724	0.0009222	1.84e-05
0	298.15	0.08113	0.000928	1.85e-05
0	308.15	0.0193	0.0007262	1.49e-05
0	308.15	0.02231	0.0007271	1.5e-05
0	308.15	0.03116	0.0007301	1.5e-05
0	308.15	0.03988	0.0007332	1.51e-05
0	308.15	0.04441	0.0007347	1.51e-05
0	308.15	0.05005	0.0007366	1.51e-05
0	318.15	0.01898	0.0006012	1.28e-05
0	318.15	0.02214	0.000602	1.28e-05
0	318.15	0.03098	0.0006043	1.28e-05
0	318.15	0.03968	0.0006064	1.28e-05
0	318.15	0.04439	0.0006076	1.29e-05
0	318.15	0.04995	0.0006092	1.29e-05
0.1	288.15	0.01579	0.001154	2.24e-05
0.1	288.15	0.02469	0.0011601	2.25e-05
0.1	288.15	0.03006	0.0011634	2.26e-05
0.1	288.15	0.03871	0.0011692	2.27e-05
0.1	288.15	0.05695	0.0011813	2.29e-05
0.1	288.15	0.08627	0.0011996	2.32e-05
0.1	298.15	0.01478	0.0009337	1.86e-05
0.1	298.15	0.02459	0.0009387	1.87e-05
0.1	298.15	0.03026	0.0009416	1.87e-05
0.1	298.15	0.03451	0.0009438	1.87e-05
0.1	298.15	0.05352	0.0009535	1.89e-05
0.1	298.15	0.0963	0.0009753	1.93e-05
0.1	308.15	0.01392	0.0007309	1.5e-05
0.1	308.15	0.02312	0.0007341	1.51e-05
0.1	308.15	0.03439	0.0007383	1.52e-05
0.1	308.15	0.03929	0.0007403	1.52e-05
0.1	308.15	0.06341	0.0007487	1.53e-05
0.1	308.15	0.10699	0.0007645	1.56e-05
0.1	318.15	0.01392	0.0006136	1.3e-05
0.1	318.15	0.02312	0.000616	1.3e-05
0.1	318.15	0.03439	0.0006193	1.31e-05
0.1	318.15	0.03929	0.0006203	1.31e-05
0.1	318.15	0.06341	0.0006267	1.32e-05
0.1	318.15	0.10699	0.000639	1.34e-05
0.5	288.15	0.00759	0.0012287	2.37e-05
0.5	288.15	0.02201	0.0012395	2.39e-05
0.5	288.15	0.03551	0.0012497	2.41e-05
0.5	288.15	0.04378	0.001256	2.42e-05
0.5	288.15	0.06587	0.0012725	2.45e-05
0.5	288.15	0.07776	0.0012808	2.46e-05
0.5	298.15	0.00794	0.0010407	2.04e-05
0.5	298.15	0.02056	0.0010484	2.06e-05
0.5	298.15	0.03208	0.0010555	2.07e-05
0.5	298.15	0.0443	0.001063	2.08e-05
0.5	298.15	0.05913	0.0010718	2.1e-05
0.5	298.15	0.0708	0.0010791	2.11e-05
0.5	308.15	0.01034	0.0008305	1.68e-05
0.5	308.15	0.02214	0.0008356	1.69e-05
0.5	308.15	0.04238	0.0008447	1.7e-05
0.5	308.15	0.0517	0.0008486	1.71e-05
0.5	308.15	0.05909	0.0008517	1.71e-05
0.5	308.15	0.0773	0.0008601	1.73e-05
0.5	318.15	0.01034	0.0006773	1.41e-05
0.5	318.15	0.02214	0.000681	1.41e-05
0.5	318.15	0.04238	0.0006876	1.43e-05
0.5	318.15	0.0517	0.0006905	1.43e-05
0.5	318.15	0.05909	0.000693	1.44e-05
0.5	318.15	0.0773	0.0006988	1.45e-05
1	288.15	0.01134	0.0013437	2.57e-05
1	288.15	0.0168	0.0013484	2.58e-05
1	288.15	0.02346	0.0013544	2.59e-05
1	288.15	0.03762	0.0013667	2.61e-05
1	288.15	0.04871	0.0013765	2.63e-05
1	288.15	0.06011	0.0013863	2.65e-05
1	298.15	0.01017	0.0011673	2.26e-05
1	298.15	0.01806	0.0011731	2.27e-05
1	298.15	0.02397	0.0011774	2.28e-05
1	298.15	0.03317	0.001184	2.29e-05
1	298.15	0.0464	0.0011939	2.31e-05
1	298.15	0.05533	0.0012005	2.32e-05
1	308.15	0.01156	0.0009199	1.83e-05
1	308.15	0.0196	0.000924	1.84e-05
1	308.15	0.02745	0.0009281	1.85e-05
1	308.15	0.03874	0.0009338	1.86e-05
1	308.15	0.0526	0.000941	1.87e-05
1	308.15	0.06274	0.0009469	1.88e-05
1	318.15	0.01156	0.0007511	1.54e-05
1	318.15	0.0196	0.0007541	1.54e-05
1	318.15	0.02745	0.0007573	1.55e-05
1	318.15	0.03874	0.000761	1.55e-05
1	318.15	0.0526	0.0007663	1.56e-05
1	318.15	0.06274	0.0007711	1.57e-05
1.5	288.15	0.01245	0.0014854	2.82e-05
1.5	288.15	0.01812	0.0014913	2.83e-05
1.5	288.15	0.02242	0.0014957	2.84e-05
1.5	288.15	0.03464	0.0015084	2.86e-05
1.5	288.15	0.04725	0.0015215	2.88e-05
1.5	288.15	0.05675	0.0015315	2.9e-05
1.5	298.15	0.01168	0.0013362	2.56e-05
1.5	298.15	0.01714	0.0013411	2.57e-05
1.5	298.15	0.02169	0.0013452	2.57e-05
1.5	298.15	0.03032	0.0013529	2.59e-05
1.5	298.15	0.04322	0.0013644	2.61e-05
1.5	298.15	0.05214	0.0013724	2.62e-05
1.5	308.15	0.01241	0.0009898	1.95e-05
1.5	308.15	0.01892	0.0009935	1.96e-05
1.5	308.15	0.02441	0.0009966	1.97e-05
1.5	308.15	0.03426	0.0010022	1.98e-05
1.5	308.15	0.05005	0.0010113	1.99e-05
1.5	308.15	0.05982	0.0010175	2e-05
1.5	318.15	0.01241	0.0008251	1.67e-05
1.5	318.15	0.01892	0.0008279	1.67e-05
1.5	318.15	0.02441	0.0008302	1.68e-05
1.5	318.15	0.03426	0.0008345	1.68e-05
1.5	318.15	0.05005	0.0008414	1.7e-05
1.5	318.15	0.05982	0.0008456	1.7e-05

System: L-leucine + water + cadmium chloride; phases: Liquid
Fixed: Pressure, kPa = 101
Property: Speed of sound, m/s (Liquid); method: Sing-around technique in a fixed-path interferometer
Solvent: Molality, mol/kg of cadmium chloride	Temperature, K	Molality, mol/kg of L-leucine	Speed of sound, m/s	uncertainty
0	288.15	0.02155	1468.63	1.82
0	288.15	0.0281	1469.48	1.82
0	288.15	0.03296	1470.11	1.82
0	288.15	0.04083	1471.13	1.82
0	288.15	0.06632	1474.44	1.82
0	288.15	0.07033	1474.96	1.82
0	298.15	0.01941	1498.83	1.82
0	298.15	0.0281	1499.91	1.82
0	298.15	0.03296	1500.48	1.82
0	298.15	0.05231	1502.74	1.82
0	298.15	0.06632	1504.38	1.82
0	308.15	0.03296	1523.25	1.83
0	308.15	0.04083	1524.06	1.83
0	308.15	0.05231	1525.25	1.83
0	308.15	0.06632	1526.69	1.83
0	308.15	0.07033	1527.1	1.83
0	318.15	0.0281	1539.06	1.83
0	318.15	0.03296	1539.51	1.83
0	318.15	0.04083	1540.23	1.83
0	318.15	0.05231	1541.31	1.83
0	318.15	0.06632	1542.62	1.83
0	318.15	0.07033	1542.99	1.83
0.1	288.15	0.02845	1482.87	1.82
0.1	288.15	0.03282	1483.45	1.82
0.1	288.15	0.04186	1484.67	1.82
0.1	288.15	0.05109	1485.91	1.82
0.1	288.15	0.06311	1487.53	1.82
0.1	298.15	0.01887	1503.85	1.82
0.1	298.15	0.03282	1505.47	1.82
0.1	298.15	0.04186	1506.53	1.82
0.1	298.15	0.05109	1507.6	1.82
0.1	298.15	0.06311	1509	1.82
0.1	308.15	0.02845	1525.34	1.83
0.1	308.15	0.03282	1525.77	1.83
0.1	308.15	0.04186	1526.68	1.83
0.1	308.15	0.05109	1527.62	1.83
0.1	308.15	0.06311	1528.83	1.83
0.1	318.15	0.02845	1541.22	1.83
0.1	318.15	0.03282	1541.61	1.83
0.1	318.15	0.04186	1542.43	1.83
0.1	318.15	0.05109	1543.26	1.83
0.1	318.15	0.06311	1544.34	1.83
0.5	288.15	0.03083	1488.69	1.82
0.5	288.15	0.0415	1490.3	1.82
0.5	288.15	0.05122	1491.76	1.82
0.5	288.15	0.0603	1493.13	1.82
0.5	288.15	0.06866	1494.39	1.82
0.5	298.15	0.03083	1511.31	1.82
0.5	298.15	0.0415	1512.72	1.82
0.5	298.15	0.05122	1514	1.82
0.5	298.15	0.0603	1515.19	1.82
0.5	298.15	0.06866	1516.29	1.82
0.5	308.15	0.03083	1528.8	1.83
0.5	308.15	0.0415	1530.03	1.83
0.5	308.15	0.05122	1531.15	1.83
0.5	308.15	0.0603	1532.19	1.83
0.5	308.15	0.06866	1533.15	1.83
0.5	318.15	0.03083	1545.05	1.83
0.5	318.15	0.0415	1546.16	1.83
0.5	318.15	0.05122	1547.17	1.83
0.5	318.15	0.0603	1548.11	1.83
0.5	318.15	0.06866	1548.97	1.83
1	288.15	0.01887	1496.1	1.82
1	288.15	0.02852	1497.77	1.82
1	288.15	0.03728	1499.29	1.82
1	288.15	0.04767	1501.09	1.82
1	288.15	0.05753	1502.79	1.82
1	288.15	0.06725	1504.47	1.82
1	298.15	0.01887	1514.26	1.82
1	298.15	0.02852	1515.7	1.82
1	298.15	0.03728	1517	1.82
1	298.15	0.04767	1518.55	1.82
1	298.15	0.05753	1520.01	1.82
1	298.15	0.06725	1521.45	1.82
1	308.15	0.01887	1529.91	1.83
1	308.15	0.02852	1531.17	1.83
1	308.15	0.03728	1532.32	1.83
1	308.15	0.04767	1533.67	1.83
1	308.15	0.05753	1534.96	1.83
1	308.15	0.06725	1536.22	1.83
1	318.15	0.01887	1545.41	1.83
1	318.15	0.02852	1546.54	1.83
1	318.15	0.03728	1547.56	1.83
1	318.15	0.04767	1548.77	1.83
1	318.15	0.05753	1549.92	1.83
1	318.15	0.06725	1551.04	1.83
1.5	288.15	0.01935	1499.93	1.82
1.5	288.15	0.02862	1501.7	1.82
1.5	288.15	0.03851	1503.59	1.82
1.5	288.15	0.04998	1505.78	1.82
1.5	288.15	0.05758	1507.23	1.82
1.5	288.15	0.0662	1508.88	1.82
1.5	298.15	0.02862	1519.16	1.82
1.5	298.15	0.03851	1520.79	1.82
1.5	298.15	0.04998	1522.68	1.83
1.5	298.15	0.05758	1523.93	1.83
1.5	298.15	0.0662	1525.34	1.83
1.5	308.15	0.01935	1532.99	1.83
1.5	308.15	0.02862	1534.31	1.83
1.5	308.15	0.03851	1535.71	1.83
1.5	308.15	0.04998	1537.33	1.83
1.5	308.15	0.05758	1538.4	1.83
1.5	308.15	0.0662	1539.61	1.83
1.5	318.15	0.01935	1548.67	1.83
1.5	318.15	0.03851	1551.07	1.83
1.5	318.15	0.04998	1552.5	1.83
1.5	318.15	0.05758	1553.44	1.83
1.5	318.15	0.0662	1554.51	1.83

System: L-leucine + water + cadmium chloride; phases: Liquid
Fixed: Pressure, kPa = 101
Property: Mass density, kg/m3 (Liquid); method: Vibrating tube method
Temperature, K	Solvent: Molality, mol/kg of cadmium chloride	Molality, mol/kg of L-leucine	Mass density, kg/m3	uncertainty
288.15	0.1	0.01236	1015.971	0.544
288.15	0.1	0.02232	1016.197	0.544
288.15	0.1	0.03452	1016.472	0.545
288.15	0.1	0.04124	1016.622	0.545
288.15	0.1	0.05021	1016.822	0.545
288.15	0.1	0.05985	1017.035	0.546
288.15	0.1	0.06854	1017.227	0.546
288.15	0.5	0.01221	1077.258	0.656
288.15	0.5	0.02145	1077.413	0.637
288.15	0.5	0.03352	1077.616	0.637
288.15	0.5	0.04052	1077.732	0.637
288.15	0.5	0.05125	1077.91	0.638
288.15	0.5	0.06085	1078.068	0.638
288.15	0.5	0.06985	1078.216	0.65
288.15	1	0.01154	1149.474	0.951
288.15	1	0.02052	1149.555	0.75
288.15	1	0.03065	1149.646	0.753
288.15	1	0.04145	1149.742	0.751
288.15	1	0.05086	1149.824	0.751
288.15	1	0.05985	1149.902	0.751
288.15	1	0.07052	1149.993	0.898
288.15	1.5	0.01154	1205.738	0.842
288.15	1.5	0.02144	1205.758	0.842
288.15	1.5	0.03155	1205.778	0.842
288.15	1.5	0.04085	1205.796	0.842
288.15	1.5	0.05145	1205.814	0.842
288.15	1.5	0.06058	1205.829	0.842
288.15	1.5	0.07145	1205.847	0.842
298.15	0.1	0.01236	1013.165	0.541
298.15	0.1	0.02232	1013.384	0.54
298.15	0.1	0.03452	1013.651	0.541
298.15	0.1	0.04124	1013.796	0.541
298.15	0.1	0.05021	1013.99	0.541
298.15	0.1	0.05985	1014.198	0.541
298.15	0.1	0.06854	1014.384	0.541
298.15	0.5	0.01221	1072.854	0.647
298.15	0.5	0.02145	1073.004	0.63
298.15	0.5	0.03352	1073.198	0.63
298.15	0.5	0.04052	1073.31	0.63
298.15	0.5	0.05125	1073.481	0.631
298.15	0.5	0.06085	1073.633	0.632
298.15	0.5	0.06985	1073.775	0.637
298.15	1	0.01154	1140.822	0.743
298.15	1	0.02052	1140.901	0.737
298.15	1	0.03065	1140.99	0.738
298.15	1	0.04145	1141.083	0.737
298.15	1	0.05086	1141.162	0.737
298.15	1	0.05985	1141.239	0.737
298.15	1	0.07052	1141.327	0.745
298.15	1.5	0.01154	1199.868	0.833
298.15	1.5	0.02144	1199.882	0.832
298.15	1.5	0.03155	1199.894	0.832
298.15	1.5	0.04085	1199.904	0.832
298.15	1.5	0.05145	1199.915	0.833
298.15	1.5	0.07145	1199.937	0.833
308.15	0.1	0.01236	1009.852	0.537
308.15	0.1	0.02232	1010.067	0.536
308.15	0.1	0.03452	1010.329	0.536
308.15	0.1	0.04124	1010.472	0.536
308.15	0.1	0.05021	1010.663	0.536
308.15	0.1	0.05985	1010.867	0.537
308.15	0.1	0.06854	1011.05	0.537
308.15	0.5	0.01221	1068.69	0.645
308.15	0.5	0.02145	1068.834	0.624
308.15	0.5	0.03352	1069.022	0.624
308.15	0.5	0.04052	1069.129	0.624
308.15	0.5	0.05125	1069.294	0.625
308.15	0.5	0.06085	1069.441	0.625
308.15	0.5	0.06985	1069.577	0.634
308.15	1	0.01154	1135.462	0.757
308.15	1	0.02052	1135.535	0.728
308.15	1	0.03065	1135.618	0.729
308.15	1	0.04145	1135.705	0.728
308.15	1	0.05086	1135.78	0.728
308.15	1	0.05985	1135.851	0.728
308.15	1	0.07052	1135.935	0.752
308.15	1.5	0.01154	1193.031	0.821
308.15	1.5	0.02144	1193.037	0.821
308.15	1.5	0.03155	1193.043	0.821
308.15	1.5	0.04085	1193.048	0.821
308.15	1.5	0.05145	1193.052	0.821
308.15	1.5	0.06058	1193.056	0.821
308.15	1.5	0.07145	1193.06	0.821
318.15	0.1	0.01236	1005.768	0.529
318.15	0.1	0.02232	1005.976	0.53
318.15	0.1	0.03452	1006.229	0.53
318.15	0.1	0.04124	1006.368	0.53
318.15	0.1	0.05021	1006.553	0.53
318.15	0.1	0.05985	1006.75	0.531
318.15	0.1	0.06854	1006.927	0.531
318.15	0.5	0.01221	1063.987	0.668
318.15	0.5	0.02145	1064.126	0.617
318.15	0.5	0.03352	1064.306	0.617
318.15	0.5	0.04052	1064.409	0.618
318.15	0.5	0.05125	1064.568	0.618
318.15	0.5	0.06085	1064.709	0.618
318.15	0.5	0.06985	1064.84	0.657
318.15	1	0.01154	1129.26	0.785
318.15	1	0.02052	1129.329	0.718
318.15	1	0.03065	1129.406	0.719
318.15	1	0.04145	1129.488	0.719
318.15	1	0.05086	1129.559	0.719
318.15	1	0.05985	1129.625	0.719
318.15	1	0.07052	1129.704	0.766
318.15	1.5	0.01154	1186.003	0.81
318.15	1.5	0.02144	1186.005	0.81
318.15	1.5	0.03155	1186.006	0.81
318.15	1.5	0.04085	1186.007	0.81
318.15	1.5	0.05145	1186.007	0.81
318.15	1.5	0.06058	1186.008	0.81
318.15	1.5	0.07145	1186.008	0.81
