Measured thermophysical data. Density, Viscosity, and Excess Properties for 1,2-Diaminoethane + 1,2-Ethanediol at (298.15, 303.15, and 308.15) K
Source: J. Chem. Eng. Data, 2010, 10.1021/je100290a
Compound 1: 1,2-ethanediol, C2H6O2, InChI=1S/C2H6O2/c3-1-2-4/h3-4H,1-2H2
Compound 2: ethane-1,2-diamine, C2H8N2, InChI=1S/C2H8N2/c3-1-2-4/h1-4H2

System: 1,2-ethanediol; phases: Liquid
Fixed: Pressure, kPa = 101
Property: Viscosity, Pa*s (Liquid); method: CAPTUB::UFactor:4
Temperature, K	Viscosity, Pa*s	uncertainty
298.15	0.016795	0.000336
303.15	0.013396	0.000274
308.15	0.011333	0.000236

System: 1,2-ethanediol; phases: Liquid
Fixed: Pressure, kPa = 101
Property: Mass density, kg/m3 (Liquid); method: PYCNOM::UFactor:8
Temperature, K	Mass density, kg/m3	uncertainty
298.15	1109.6	3.7
303.15	1105.8	3.7
308.15	1103	3.8

System: ethane-1,2-diamine; phases: Liquid
Fixed: Pressure, kPa = 101
Property: Viscosity, Pa*s (Liquid); method: CAPTUB:UFactor:4
Temperature, K	Viscosity, Pa*s	uncertainty
298.15	0.001276	3.3e-05
303.15	0.001211	3.2e-05
308.15	0.001107	2.9e-05

System: ethane-1,2-diamine; phases: Liquid
Fixed: Pressure, kPa = 101
Property: Mass density, kg/m3 (Liquid); method: PYCNOM:UFactor:8
Temperature, K	Mass density, kg/m3	uncertainty
298.15	894.5	2.8
303.15	890.8	2.8
308.15	885.6	2.9

System: ethane-1,2-diamine + 1,2-ethanediol; phases: Liquid
Fixed: Pressure, kPa = 101
Property: Viscosity, Pa*s (Liquid); method: CAPTUB:UFactor:4
Temperature, K	Mole fraction of ethane-1,2-diamine	Viscosity, Pa*s	uncertainty
298.15	0	0.016795	0.000336
298.15	0.1027	0.022284	0.000438
298.15	0.1541	0.025541	0.000498
298.15	0.2052	0.028368	0.00055
298.15	0.2561	0.030733	0.000594
298.15	0.3066	0.031457	0.000607
298.15	0.3568	0.0307	0.000593
298.15	0.4078	0.028318	0.000549
298.15	0.508	0.020173	0.000399
298.15	0.5579	0.016057	0.000323
298.15	0.6065	0.012509	0.000258
298.15	0.6573	0.009028	0.000194
298.15	0.7071	0.006882	0.000154
298.15	0.756	0.005154	0.000122
298.15	0.8051	0.003787	9.2e-05
298.15	0.8542	0.003199	7.8e-05
298.15	0.9003	0.002273	5.7e-05
298.15	0.9438	0.0018	4.6e-05
298.15	1	0.001276	3.3e-05
303.15	0	0.013396	0.000274
303.15	0.1027	0.017598	0.000351
303.15	0.1541	0.020556	0.000406
303.15	0.2052	0.022441	0.000441
303.15	0.2561	0.023153	0.000454
303.15	0.3066	0.023656	0.000463
303.15	0.3568	0.022853	0.000448
303.15	0.4078	0.021307	0.00042
303.15	0.508	0.015184	0.000307
303.15	0.5579	0.012272	0.000254
303.15	0.6065	0.009748	0.000207
303.15	0.6573	0.007157	0.000159
303.15	0.7071	0.005681	0.000132
303.15	0.756	0.004177	0.000101
303.15	0.8051	0.003154	7.7e-05
303.15	0.8542	0.002552	6.3e-05
303.15	0.9003	0.00192	4.8e-05
303.15	0.9438	0.001561	4e-05
303.15	1	0.001211	3.2e-05
308.15	0	0.011333	0.000236
308.15	0.1027	0.014049	0.000286
308.15	0.1541	0.016928	0.000339
308.15	0.2052	0.018213	0.000363
308.15	0.2561	0.019284	0.000382
308.15	0.3066	0.019196	0.000381
308.15	0.3568	0.018495	0.000368
308.15	0.4078	0.017004	0.000341
308.15	0.508	0.011891	0.000247
308.15	0.5579	0.008772	0.000189
308.15	0.6065	0.006254	0.000143
308.15	0.6573	0.004674	0.000112
308.15	0.7071	0.004008	9.7e-05
308.15	0.756	0.003547	8.6e-05
308.15	0.8051	0.002683	6.6e-05
308.15	0.8542	0.002128	5.3e-05
308.15	0.9003	0.001713	4.3e-05
308.15	0.9438	0.001422	3.7e-05
308.15	1	0.001107	2.9e-05

System: ethane-1,2-diamine + 1,2-ethanediol; phases: Liquid
Fixed: Pressure, kPa = 101
Property: Mass density, kg/m3 (Liquid); method: PYCNOM:UFactor:8
Temperature, K	Mole fraction of ethane-1,2-diamine	Mass density, kg/m3	uncertainty
298.15	0	1109.6	3.7
298.15	0.1027	1096.6	3.6
298.15	0.1541	1086.6	3.6
298.15	0.2052	1078.4	3.5
298.15	0.2561	1068.5	3.5
298.15	0.3066	1061.4	3.5
298.15	0.3568	1051	3.4
298.15	0.4078	1040.4	3.4
298.15	0.508	1018.5	3.3
298.15	0.5579	1006.6	3.2
298.15	0.6065	995.4	3.2
298.15	0.6573	983.1	3.1
298.15	0.7071	970.1	3.1
298.15	0.756	957.3	3
298.15	0.8051	946.2	3
298.15	0.8542	933.4	2.9
298.15	0.9003	919.1	2.9
298.15	0.9438	908.8	2.8
298.15	1	894.5	2.8
303.15	0	1105.8	3.7
303.15	0.1027	1089.8	3.7
303.15	0.1541	1080.9	3.6
303.15	0.2052	1072.4	3.6
303.15	0.2561	1062.2	3.5
303.15	0.3066	1053.5	3.5
303.15	0.3568	1042.8	3.5
303.15	0.4078	1034.8	3.4
303.15	0.508	1013.9	3.3
303.15	0.5579	1000.7	3.3
303.15	0.6065	988.3	3.2
303.15	0.6573	976.2	3.2
303.15	0.7071	964.5	3.1
303.15	0.756	951.7	3.1
303.15	0.8051	938.8	3
303.15	0.8542	924.9	3
303.15	0.9003	913.4	2.9
303.15	0.9438	903.4	2.9
303.15	1	890.8	2.8
308.15	0	1103	3.8
308.15	0.1027	1084.4	3.7
308.15	0.1541	1073.8	3.7
308.15	0.2052	1062.4	3.6
308.15	0.2561	1053.8	3.6
308.15	0.3066	1042.9	3.5
308.15	0.3568	1033.8	3.5
308.15	0.4078	1026.6	3.5
308.15	0.508	1007.2	3.4
308.15	0.5579	994.7	3.3
308.15	0.6065	981.8	3.3
308.15	0.6573	968.7	3.2
308.15	0.7071	956.1	3.2
308.15	0.756	944.4	3.1
308.15	0.8051	931.7	3.1
308.15	0.8542	917.5	3
308.15	0.9003	907.2	3
308.15	0.9438	897.5	2.9
308.15	1	885.6	2.9
