Measured thermophysical data. Solubility of Cannabinol in Supercritical Carbon Dioxide
Source: J. Chem. Eng. Data, 2010, 10.1021/je100245n
Compound 1: carbon dioxide, CO2, InChI=1S/CO2/c2-1-3, purity 99.9%
Compound 2: 6,6,9-trimethyl-3-pentyl-6H-benzo[c]chromen-1-ol, C21H26O2, InChI=1S/C21H26O2/c1-5-6-7-8-15-12-18(22)20-16-11-14(2)9-10-17(16)21(3,4)23-19(20)13-15/h9-13,22H,5-8H2,1-4H3, purity 99.5%

System: carbon dioxide + 6,6,9-trimethyl-3-pentyl-6H-benzo[c]chromen-1-ol; phases: Fluid (supercritical or subcritical phases), Crystal
Property: Mole fraction of 6,6,9-trimethyl-3-pentyl-6H-benzo[c]chromen-1-ol (Fluid (supercritical or subcritical phases)); method: Chromatography
Temperature, K	Pressure, kPa	Mole fraction of 6,6,9-trimethyl-3-pentyl-6H-benzo[c]chromen-1-ol	uncertainty
314	13800	0.000126	2.7e-05
314	14300	0.000127	2.7e-05
314	14500	0.000127	2.7e-05
314	15300	0.000147	3.1e-05
314	15500	0.000158	3.3e-05
314	16300	0.000179	3.7e-05
314	17700	0.000177	3.7e-05
314	18200	0.000202	4.1e-05
314	19100	0.000208	4.3e-05
314	20200	0.000233	4.6e-05
326	13000	0.000251	5.2e-05
326	13400	0.000295	6e-05
326	13700	0.000346	7.2e-05
326	14000	0.000374	7.6e-05
326	14400	0.000309	6.2e-05
326	14800	0.000414	8.3e-05
326	15200	0.00038	7.7e-05
326	15600	0.000392	7.8e-05
326	16200	0.000375	7.7e-05
326	16600	0.000408	8.4e-05
326	17100	0.000451	9e-05
326	17800	0.000416	8.5e-05
334	13000	0.000138	2.9e-05
334	13300	0.000133	2.8e-05
334	13600	0.000165	3.4e-05
334	14600	0.00021	4.3e-05
334	14900	0.000199	4.2e-05
334	15600	0.000235	4.7e-05
334	16500	0.000227	4.7e-05
334	17100	0.000248	5.1e-05
334	17400	0.000217	4.5e-05
334	18200	0.00022	4.5e-05
334	18500	0.000236	5e-05
334	19900	0.000217	4.4e-05
