Measured thermophysical data. Volumetric Properties of Binary Mixtures Containing Ionic Liquids and Some Aprotic Solvents
Source: J. Chem. Eng. Data, 2010, 10.1021/je100315g
Compound 1: tetrahydrofuran, C4H8O, InChI=1S/C4H8O/c1-2-4-5-3-1/h1-4H2
Compound 2: acetonitrile, C2H3N, InChI=1S/C2H3N/c1-2-3/h1H3
Compound 3: dimethyl sulfoxide, C2H6OS, InChI=1S/C2H6OS/c1-4(2)3/h1-2H3
Compound 4: 1-ethyl-3-methylimidazolium bis((trifluoromethyl)sulfonyl)imide, C8H11F6N3O4S2, InChI=1S/C6H11N2.C2F6NO4S2/c1-3-8-5-4-7(2)6-8;3-1(4,5)14(10,11)9-15(12,13)2(6,7)8/h4-6H,3H2,1-2H3;/q+1;-1
Compound 5: 1-butyl-3-methylimidazolium bis(trifluoromethylsulfonyl)imide, C10H15F6N3O4S2, InChI=1S/C8H15N2.C2F6NO4S2/c1-3-4-5-10-7-6-9(2)8-10;3-1(4,5)14(10,11)9-15(12,13)2(6,7)8/h6-8H,3-5H2,1-2H3;/q+1;-1

System: tetrahydrofuran; phases: Liquid
Fixed: Pressure, kPa = 101
Property: Mass density, kg/m3 (Liquid); method: VIBTUB::UFactor:4
Temperature, K	Mass density, kg/m3	uncertainty
293.15	887.41	0.46
298.15	881.98	0.46
303.13	876.47	0.47
308.15	870.96	0.48

System: acetonitrile; phases: Liquid
Fixed: Pressure, kPa = 101
Property: Mass density, kg/m3 (Liquid); method: VIBTUB::UFactor:4
Temperature, K	Mass density, kg/m3	uncertainty
293.15	781.89	0.59
298.15	776.52	0.59
303.13	771.12	0.6
308.15	765.68	0.61
313.15	760.2	0.62

System: dimethyl sulfoxide; phases: Liquid
Fixed: Pressure, kPa = 101
Property: Mass density, kg/m3 (Liquid); method: VIBTUB:UFactor:4
Temperature, K	Mass density, kg/m3	uncertainty
293.15	1100.31	0.29
298.15	1095.3	0.28
303.13	1090.31	0.27
308.15	1085.27	0.26
313.15	1080.27	0.26

System: 1-ethyl-3-methylimidazolium bis((trifluoromethyl)sulfonyl)imide; phases: Liquid
Fixed: Pressure, kPa = 101
Property: Mass density, kg/m3 (Liquid); method: VIBTUB:UFactor:4
Temperature, K	Mass density, kg/m3	uncertainty
293.15	1522.08	0.95
298.15	1516.96	0.94
303.13	1511.85	0.93
308.15	1506.8	0.92
313.15	1501.74	0.91

System: 1-butyl-3-methylimidazolium bis(trifluoromethylsulfonyl)imide; phases: Liquid
Fixed: Pressure, kPa = 101
Property: Mass density, kg/m3 (Liquid); method: VIBTUB:UFactor:4
Temperature, K	Mass density, kg/m3	uncertainty
293.15	1441.63	0.82
298.15	1436.83	0.81
303.13	1431.98	0.81
308.15	1427.16	0.8
313.15	1422.36	0.79

System: tetrahydrofuran + 1-ethyl-3-methylimidazolium bis((trifluoromethyl)sulfonyl)imide; phases: Liquid
Fixed: Pressure, kPa = 101
Property: Mass density, kg/m3 (Liquid); method: VIBTUB:UFactor:4
Temperature, K	Mole fraction of 1-ethyl-3-methylimidazolium bis((trifluoromethyl)sulfonyl)imide	Mass density, kg/m3	uncertainty
293.15	0	887.41	0.46
293.15	0.1037	1065.02	0.46
293.15	0.2024	1178.77	0.62
293.15	0.3255	1278.55	0.76
293.15	0.3841	1315.59	0.8
293.15	0.4425	1347.51	0.83
293.15	0.5469	1395.4	0.86
293.15	0.6863	1444.8	0.89
293.15	0.7697	1469.16	0.9
293.15	0.9177	1505.22	0.93
293.15	1	1522.08	0.95
298.15	0	881.98	0.46
298.15	0.1037	1061.32	0.43
298.15	0.2024	1173.6	0.61
298.15	0.3255	1274.14	0.76
298.15	0.3841	1310.96	0.79
298.15	0.4425	1342.57	0.82
298.15	0.5469	1390.69	0.85
298.15	0.6863	1440.1	0.88
298.15	0.7697	1464.51	0.89
298.15	0.9177	1500.21	0.92
298.15	1	1516.96	0.94
303.13	0	876.47	0.47
303.13	0.1037	1056.14	0.42
303.13	0.2024	1168.46	0.6
303.13	0.3255	1269.66	0.75
303.13	0.3841	1306.48	0.78
303.13	0.4425	1337.7	0.81
303.13	0.5469	1385.78	0.84
303.13	0.6863	1435.45	0.87
303.13	0.7697	1459.45	0.89
303.13	0.9177	1495.17	0.91
303.13	1	1511.85	0.93
308.15	0	870.96	0.48
308.15	0.1037	1051.2	0.47
308.15	0.2024	1163.55	0.61
308.15	0.3255	1264.42	0.74
308.15	0.3841	1301.8	0.77
308.15	0.4425	1332.56	0.8
308.15	0.5469	1381.31	0.84
308.15	0.6863	1430.62	0.86
308.15	0.7697	1454.67	0.88
308.15	0.9177	1490.13	0.91
308.15	1	1506.8	0.92

System: acetonitrile + 1-ethyl-3-methylimidazolium bis((trifluoromethyl)sulfonyl)imide; phases: Liquid
Fixed: Pressure, kPa = 101
Property: Mass density, kg/m3 (Liquid); method: VIBTUB:UFactor:4
Temperature, K	Mole fraction of 1-ethyl-3-methylimidazolium bis((trifluoromethyl)sulfonyl)imide	Mass density, kg/m3	uncertainty
293.15	0	781.89	0.59
293.15	0.0533	946.96	0.45
293.15	0.1886	1183.76	0.72
293.15	0.337	1316.94	0.83
293.15	0.4724	1390.06	0.88
293.15	0.652	1452.53	0.91
293.15	0.8245	1492.64	0.92
293.15	0.924	1510.36	0.94
293.15	1	1522.08	0.95
298.15	0	776.52	0.59
298.15	0.0533	941.54	0.39
298.15	0.1886	1178.5	0.64
298.15	0.337	1311.68	0.82
298.15	0.4724	1384.82	0.87
298.15	0.652	1447.4	0.9
298.15	0.8245	1487.58	0.92
298.15	0.924	1505.26	0.93
298.15	1	1516.96	0.94
303.13	0	771.12	0.6
303.13	0.0533	936.1	0.4
303.13	0.1886	1173.4	0.63
303.13	0.337	1306.48	0.81
303.13	0.4724	1379.62	0.87
303.13	0.652	1442.24	0.89
303.13	0.8245	1482.39	0.91
303.13	0.924	1500.2	0.92
303.13	1	1511.85	0.93
308.15	0	765.68	0.61
308.15	0.0533	930.61	0.41
308.15	0.1886	1168.18	0.62
308.15	0.337	1301.14	0.8
308.15	0.4724	1374.57	0.86
308.15	0.652	1437.1	0.88
308.15	0.8245	1477.35	0.9
308.15	0.924	1495.13	0.91
308.15	1	1506.8	0.92
313.15	0	760.2	0.62
313.15	0.0533	925.26	0.54
313.15	0.1886	1162.68	0.74
313.15	0.337	1296.39	0.81
313.15	0.4724	1369.51	0.86
313.15	0.652	1432.02	0.88
313.15	0.8245	1472.28	0.89
313.15	0.924	1490.11	0.9
313.15	1	1501.74	0.91

System: dimethyl sulfoxide + 1-ethyl-3-methylimidazolium bis((trifluoromethyl)sulfonyl)imide; phases: Liquid
Fixed: Pressure, kPa = 101
Property: Mass density, kg/m3 (Liquid); method: VIBTUB:UFactor:4
Temperature, K	Mole fraction of 1-ethyl-3-methylimidazolium bis((trifluoromethyl)sulfonyl)imide	Mass density, kg/m3	uncertainty
293.15	0	1100.31	0.29
293.15	0.0593	1173.7	0.4
293.15	0.1959	1289.73	0.6
293.15	0.3595	1375.56	0.73
293.15	0.5086	1427.76	0.81
293.15	0.6325	1459.88	0.85
293.15	0.7778	1489.12	0.89
293.15	0.9378	1513.61	0.93
293.15	1	1522.08	0.95
298.15	0	1095.3	0.28
298.15	0.0593	1168.67	0.4
298.15	0.1959	1284.68	0.59
298.15	0.3595	1370.44	0.73
298.15	0.5086	1422.61	0.81
298.15	0.6325	1454.75	0.85
298.15	0.7778	1484.04	0.89
298.15	0.9378	1508.51	0.93
298.15	1	1516.96	0.94
303.13	0	1090.31	0.27
303.13	0.0593	1163.66	0.39
303.13	0.1959	1279.59	0.58
303.13	0.3595	1365.31	0.72
303.13	0.5086	1417.47	0.8
303.13	0.6325	1449.64	0.84
303.13	0.7778	1478.96	0.88
303.13	0.9378	1503.42	0.92
303.13	1	1511.85	0.93
308.15	0	1085.27	0.26
308.15	0.0593	1158.66	0.38
308.15	0.1959	1274.53	0.57
308.15	0.3595	1360.26	0.71
308.15	0.5086	1412.42	0.79
308.15	0.6325	1444.59	0.83
308.15	0.7778	1473.89	0.87
308.15	0.9378	1498.38	0.91
308.15	1	1506.8	0.92
313.15	0	1080.27	0.26
313.15	0.0593	1153.63	0.4
313.15	0.1959	1269.48	0.6
313.15	0.3595	1355.2	0.71
313.15	0.5086	1407.36	0.78
313.15	0.6325	1439.52	0.82
313.15	0.7778	1468.84	0.87
313.15	0.9378	1493.29	0.9
313.15	1	1501.74	0.91

System: tetrahydrofuran + 1-butyl-3-methylimidazolium bis(trifluoromethylsulfonyl)imide; phases: Liquid
Fixed: Pressure, kPa = 101
Property: Mass density, kg/m3 (Liquid); method: VIBTUB:UFactor:4
Temperature, K	Mole fraction of 1-butyl-3-methylimidazolium bis(trifluoromethylsulfonyl)imide	Mass density, kg/m3	uncertainty
293.15	0	887.41	0.46
293.15	0.0488	978.17	0.34
293.15	0.1139	1069.71	0.44
293.15	0.1771	1136.61	0.54
293.15	0.2815	1218.29	0.66
293.15	0.4048	1286.31	0.73
293.15	0.4897	1321.41	0.75
293.15	0.6329	1367.37	0.77
293.15	0.7468	1395.56	0.79
293.15	0.9071	1426.74	0.81
293.15	1	1441.63	0.82
298.15	0	881.98	0.46
298.15	0.0488	973.69	0.35
298.15	0.1139	1065.22	0.43
298.15	0.1771	1132.17	0.53
298.15	0.2815	1213.74	0.65
298.15	0.4048	1281.83	0.73
298.15	0.4897	1317.1	0.75
298.15	0.6329	1362.88	0.77
298.15	0.7468	1391.06	0.78
298.15	0.9071	1421.92	0.8
298.15	1	1436.83	0.81
303.13	0	876.47	0.47
303.13	0.0488	970.01	0.35
303.13	0.1139	1060.65	0.42
303.13	0.1771	1128.01	0.53
303.13	0.2815	1209.23	0.64
303.13	0.4048	1277.24	0.72
303.13	0.4897	1312.14	0.74
303.13	0.6329	1358.73	0.76
303.13	0.7468	1386.29	0.77
303.13	0.9071	1417.19	0.79
303.13	1	1431.98	0.81
308.15	0	870.96	0.48
308.15	0.0488	964.12	0.38
308.15	0.1139	1055.92	0.43
308.15	0.1771	1122.34	0.53
308.15	0.2815	1204.63	0.64
308.15	0.4048	1272.69	0.71
308.15	0.4897	1307.42	0.73
308.15	0.6329	1353.21	0.75
308.15	0.7468	1381.45	0.77
308.15	0.9071	1412.45	0.78
308.15	1	1427.16	0.8

System: acetonitrile + 1-butyl-3-methylimidazolium bis(trifluoromethylsulfonyl)imide; phases: Liquid
Fixed: Pressure, kPa = 101
Property: Mass density, kg/m3 (Liquid); method: VIBTUB:UFactor:4
Temperature, K	Mole fraction of 1-butyl-3-methylimidazolium bis(trifluoromethylsulfonyl)imide	Mass density, kg/m3	uncertainty
293.15	0	781.89	0.59
293.15	0.0971	1034.65	0.52
293.15	0.2033	1175.45	0.63
293.15	0.2989	1252.06	0.71
293.15	0.471	1335.15	0.79
293.15	0.6261	1380.43	0.8
293.15	0.7423	1404.79	0.8
293.15	0.8983	1429.03	0.81
293.15	1	1441.63	0.82
298.15	0	776.52	0.59
298.15	0.0971	1029.33	0.39
298.15	0.2033	1170.35	0.61
298.15	0.2989	1247.09	0.7
298.15	0.471	1330.18	0.78
298.15	0.6261	1375.57	0.79
298.15	0.7423	1400.01	0.79
298.15	0.8983	1424.12	0.8
298.15	1	1436.83	0.81
303.13	0	771.12	0.6
303.13	0.0971	1024.05	0.38
303.13	0.2033	1165.12	0.6
303.13	0.2989	1242.32	0.69
303.13	0.471	1325.41	0.77
303.13	0.6261	1370.72	0.78
303.13	0.7423	1395.36	0.79
303.13	0.8983	1419.28	0.8
303.13	1	1431.98	0.81
308.15	0	765.68	0.61
308.15	0.0971	1019.47	0.38
308.15	0.2033	1160.25	0.6
308.15	0.2989	1237.21	0.68
308.15	0.471	1320.49	0.76
308.15	0.6261	1365.88	0.77
308.15	0.7423	1390.45	0.78
308.15	0.8983	1414.54	0.79
308.15	1	1427.16	0.8
313.15	0	760.2	0.62
313.15	0.0971	1014.26	0.58
313.15	0.2033	1155.05	0.62
313.15	0.2989	1232.4	0.69
313.15	0.471	1315.67	0.77
313.15	0.6261	1361.14	0.77
313.15	0.7423	1385.64	0.77
313.15	0.8983	1409.73	0.78
313.15	1	1422.36	0.79

System: dimethyl sulfoxide + 1-butyl-3-methylimidazolium bis(trifluoromethylsulfonyl)imide; phases: Liquid
Fixed: Pressure, kPa = 101
Property: Mass density, kg/m3 (Liquid); method: VIBTUB:UFactor:4
Temperature, K	Mole fraction of 1-butyl-3-methylimidazolium bis(trifluoromethylsulfonyl)imide	Mass density, kg/m3	uncertainty
293.15	0	1100.31	0.29
293.15	0.1025	1202.34	0.45
293.15	0.196	1263.15	0.55
293.15	0.2358	1283.38	0.58
293.15	0.3241	1319.45	0.64
293.15	0.4205	1349.72	0.69
293.15	0.4785	1364.67	0.71
293.15	0.5179	1373.61	0.72
293.15	0.5911	1388.28	0.74
293.15	0.6581	1400.07	0.76
293.15	0.8232	1423.06	0.79
293.15	1	1441.63	0.82
298.15	0	1095.3	0.28
298.15	0.1025	1197.39	0.45
298.15	0.196	1258.21	0.55
298.15	0.2358	1278.4	0.57
298.15	0.3241	1314.52	0.63
298.15	0.4205	1344.81	0.68
298.15	0.4785	1359.72	0.7
298.15	0.5179	1368.67	0.71
298.15	0.5911	1383.33	0.73
298.15	0.6581	1395.16	0.75
298.15	0.8232	1418.22	0.78
298.15	1	1436.83	0.81
303.13	0	1090.31	0.27
303.13	0.1025	1192.43	0.44
303.13	0.196	1253.26	0.54
303.13	0.2358	1273.45	0.57
303.13	0.3241	1309.58	0.62
303.13	0.4205	1339.88	0.67
303.13	0.4785	1354.8	0.69
303.13	0.5179	1363.77	0.71
303.13	0.5911	1378.5	0.73
303.13	0.6581	1390.25	0.74
303.13	0.8232	1413.34	0.78
303.13	1	1431.98	0.81
308.15	0	1085.27	0.26
308.15	0.1025	1187.49	0.43
308.15	0.196	1248.31	0.53
308.15	0.2358	1268.49	0.56
308.15	0.3241	1304.64	0.62
308.15	0.4205	1334.99	0.66
308.15	0.4785	1349.87	0.69
308.15	0.5179	1358.86	0.7
308.15	0.5911	1373.59	0.72
308.15	0.6581	1385.42	0.73
308.15	0.8232	1408.48	0.77
308.15	1	1427.16	0.8
313.15	0	1080.27	0.26
313.15	0.1025	1182.55	0.45
313.15	0.196	1243.37	0.53
313.15	0.2358	1263.51	0.55
313.15	0.3241	1299.72	0.61
313.15	0.4205	1330.05	0.66
313.15	0.4785	1344.87	0.68
313.15	0.5179	1353.93	0.69
313.15	0.5911	1368.72	0.71
313.15	0.6581	1380.54	0.73
313.15	0.8232	1403.6	0.76
313.15	1	1422.36	0.79
