Measured thermophysical data. Activity Coefficients at Infinite Dilution in Methylimidazolium Nitrate Ionic Liquids
Source: J. Chem. Eng. Data, 2011, 10.1021/je100998r
Compound 1: 1-butyl-3-methylimidazolium nitrate, C8H15N3O3, InChI=1S/C8H15N2.NO3/c1-3-4-5-10-7-6-9(2)8-10;2-1(3)4/h6-8H,3-5H2,1-2H3;/q+1;-1, purity 98%
Compound 2: 3-(1,1-dihydroxypropyl)-1-methyl-1H-imidazolium nitrate, C7H13N3O5, InChI=1S/C7H13N2O2.NO3/c1-3-7(10,11)9-5-4-8(2)6-9;2-1(3)4/h4-6,10-11H,3H2,1-2H3;/q+1;-1, purity 98%
Compound 3: decane, C10H22, InChI=1S/C10H22/c1-3-5-7-9-10-8-6-4-2/h3-10H2,1-2H3, purity 98%
Compound 4: dodecane, C12H26, InChI=1S/C12H26/c1-3-5-7-9-11-12-10-8-6-4-2/h3-12H2,1-2H3, purity 98%
Compound 5: benzene, C6H6, InChI=1S/C6H6/c1-2-4-6-5-3-1/h1-6H, purity 98%
Compound 6: toluene, C7H8, InChI=1S/C7H8/c1-7-5-3-2-4-6-7/h2-6H,1H3, purity 98%
Compound 7: methanol, CH4O, InChI=1S/CH4O/c1-2/h2H,1H3, purity 98%
Compound 8: ethanol, C2H6O, InChI=1S/C2H6O/c1-2-3/h3H,2H2,1H3, purity 98%
Compound 9: propan-1-ol, C3H8O, InChI=1S/C3H8O/c1-2-3-4/h4H,2-3H2,1H3, purity 98%
Compound 10: propan-2-ol, C3H8O, InChI=1S/C3H8O/c1-3(2)4/h3-4H,1-2H3, purity 98%
Compound 11: trichloromethane, CHCl3, InChI=1S/CHCl3/c2-1(3)4/h1H, purity 98%
Compound 12: 1,2-dichloroethane, C2H4Cl2, InChI=1S/C2H4Cl2/c3-1-2-4/h1-2H2, purity 98%
Compound 13: ethyl acetate, C4H8O2, InChI=1S/C4H8O2/c1-3-6-4(2)5/h3H2,1-2H3, purity 98%
Compound 14: butanone, C4H8O, InChI=1S/C4H8O/c1-3-4(2)5/h3H2,1-2H3, purity 98%
Compound 15: ethylbenzene, C8H10, InChI=1S/C8H10/c1-2-8-6-4-3-5-7-8/h3-7H,2H2,1H3, purity 98%
Compound 16: acetone, C3H6O, InChI=1S/C3H6O/c1-3(2)4/h1-2H3, purity 98%
Compound 17: hexane, C6H14, InChI=1S/C6H14/c1-3-5-6-4-2/h3-6H2,1-2H3, purity 98%
Compound 18: heptane, C7H16, InChI=1S/C7H16/c1-3-5-7-6-4-2/h3-7H2,1-2H3, purity 98%
Compound 19: cyclohexane, C6H12, InChI=1S/C6H12/c1-2-4-6-5-3-1/h1-6H2, purity 98%
Compound 20: 2,2,4-trimethylpentane, C8H18, InChI=1S/C8H18/c1-7(2)6-8(3,4)5/h7H,6H2,1-5H3, purity 98%
Compound 21: hex-1-ene, C6H12, InChI=1S/C6H12/c1-3-5-6-4-2/h3H,1,4-6H2,2H3, purity 98%
Compound 22: trichloroethene, C2HCl3, InChI=1S/C2HCl3/c3-1-2(4)5/h1H, purity 98%
Compound 23: tetrachloromethane, CCl4, InChI=1S/CCl4/c2-1(3,4)5, purity 98%
Compound 24: water, H2O, InChI=1S/H2O/h1H2, purity 98%

System: hexane + 1-butyl-3-methylimidazolium nitrate; phases: Liquid
Fixed: Pressure, kPa = 101
Fixed: Mole fraction of hexane = 0
Property: Activity coefficient of hexane (Liquid); method: Chromatography
Temperature, K	Activity coefficient of hexane	uncertainty
323.15	122.92	7.38
363.15	62.52	3.75

System: heptane + 1-butyl-3-methylimidazolium nitrate; phases: Liquid
Fixed: Pressure, kPa = 101
Fixed: Mole fraction of heptane = 0
Property: Activity coefficient of heptane (Liquid); method: Chromatography
Temperature, K	Activity coefficient of heptane	uncertainty
323.15	179.22	10.77
343.15	110.81	6.65
363.15	92.03	5.52

System: cyclohexane + 1-butyl-3-methylimidazolium nitrate; phases: Liquid
Fixed: Pressure, kPa = 101
Fixed: Mole fraction of cyclohexane = 0
Property: Activity coefficient of cyclohexane (Liquid); method: Chromatography
Temperature, K	Activity coefficient of cyclohexane	uncertainty
323.15	53.78	3.22
363.15	42.57	2.55

System: 2,2,4-trimethylpentane + 1-butyl-3-methylimidazolium nitrate; phases: Liquid
Fixed: Pressure, kPa = 101
Fixed: Mole fraction of 2,2,4-trimethylpentane = 0
Property: Activity coefficient of 2,2,4-trimethylpentane (Liquid); method: Chromatography
Temperature, K	Activity coefficient of 2,2,4-trimethylpentane	uncertainty
323.15	205.48	12.36
343.15	132.51	7.96
363.15	115.93	6.96

System: benzene + 1-butyl-3-methylimidazolium nitrate; phases: Liquid
Fixed: Pressure, kPa = 101
Fixed: Mole fraction of benzene = 0
Property: Activity coefficient of benzene (Liquid); method: Chromatography
Temperature, K	Activity coefficient of benzene	uncertainty
323.15	3.52	0.21
363.15	2.99	0.18

System: toluene + 1-butyl-3-methylimidazolium nitrate; phases: Liquid
Fixed: Pressure, kPa = 101
Fixed: Mole fraction of toluene = 0
Property: Activity coefficient of toluene (Liquid); method: Chromatography
Temperature, K	Activity coefficient of toluene	uncertainty
323.15	5.18	0.31
363.15	4.82	0.29

System: hex-1-ene + 1-butyl-3-methylimidazolium nitrate; phases: Liquid
Fixed: Pressure, kPa = 101
Fixed: Mole fraction of hex-1-ene = 0
Property: Activity coefficient of hex-1-ene (Liquid); method: Chromatography
Temperature, K	Activity coefficient of hex-1-ene	uncertainty
323.15	51.45	3.08
363.15	44.22	2.65

System: methanol + 1-butyl-3-methylimidazolium nitrate; phases: Liquid
Fixed: Pressure, kPa = 101
Fixed: Mole fraction of methanol = 0
Property: Activity coefficient of methanol (Liquid); method: Chromatography
Temperature, K	Activity coefficient of methanol	uncertainty
323.15	0.47	0.03
363.15	0.46	0.03

System: ethanol + 1-butyl-3-methylimidazolium nitrate; phases: Liquid
Fixed: Pressure, kPa = 101
Fixed: Mole fraction of ethanol = 0
Property: Activity coefficient of ethanol (Liquid); method: Chromatography
Temperature, K	Activity coefficient of ethanol	uncertainty
323.15	0.78	0.04
363.15	0.72	0.04

System: propan-1-ol + 1-butyl-3-methylimidazolium nitrate; phases: Liquid
Fixed: Pressure, kPa = 101
Fixed: Mole fraction of propan-1-ol = 0
Property: Activity coefficient of propan-1-ol (Liquid); method: Chromatography
Temperature, K	Activity coefficient of propan-1-ol	uncertainty
323.15	0.96	0.05
343.15	0.9	0.05
363.15	0.9	0.05

System: propan-2-ol + 1-butyl-3-methylimidazolium nitrate; phases: Liquid
Fixed: Pressure, kPa = 101
Fixed: Mole fraction of propan-2-ol = 0
Property: Activity coefficient of propan-2-ol (Liquid); method: Chromatography
Temperature, K	Activity coefficient of propan-2-ol	uncertainty
323.15	1.06	0.06
363.15	1.06	0.06

System: trichloromethane + 1-butyl-3-methylimidazolium nitrate; phases: Liquid
Fixed: Pressure, kPa = 101
Fixed: Mole fraction of trichloromethane = 0
Property: Activity coefficient of trichloromethane (Liquid); method: Chromatography
Temperature, K	Activity coefficient of trichloromethane	uncertainty
323.15	0.52	0.03
343.15	0.63	0.04
363.15	0.76	0.04

System: 1,2-dichloroethane + 1-butyl-3-methylimidazolium nitrate; phases: Liquid
Fixed: Pressure, kPa = 101
Fixed: Mole fraction of 1,2-dichloroethane = 0
Property: Activity coefficient of 1,2-dichloroethane (Liquid); method: Chromatography
Temperature, K	Activity coefficient of 1,2-dichloroethane	uncertainty
323.15	1.38	0.08
343.15	1.45	0.08
363.15	1.59	0.09

System: trichloroethene + 1-butyl-3-methylimidazolium nitrate; phases: Liquid
Fixed: Pressure, kPa = 101
Fixed: Mole fraction of trichloroethene = 0
Property: Activity coefficient of trichloroethene (Liquid); method: Chromatography
Temperature, K	Activity coefficient of trichloroethene	uncertainty
323.15	2.76	0.16
343.15	3.01	0.18
363.15	3.33	0.2

System: ethyl acetate + 1-butyl-3-methylimidazolium nitrate; phases: Liquid
Fixed: Pressure, kPa = 101
Fixed: Mole fraction of ethyl acetate = 0
Property: Activity coefficient of ethyl acetate (Liquid); method: Chromatography
Temperature, K	Activity coefficient of ethyl acetate	uncertainty
323.15	4.54	0.27
343.15	4.58	0.27
363.15	5.05	0.3

System: butanone + 1-butyl-3-methylimidazolium nitrate; phases: Liquid
Fixed: Pressure, kPa = 101
Fixed: Mole fraction of butanone = 0
Property: Activity coefficient of butanone (Liquid); method: Chromatography
Temperature, K	Activity coefficient of butanone	uncertainty
323.15	2.58	0.15
343.15	2.57	0.15
363.15	2.66	0.16

System: ethylbenzene + 1-butyl-3-methylimidazolium nitrate; phases: Liquid
Fixed: Pressure, kPa = 101
Fixed: Mole fraction of ethylbenzene = 0
Property: Activity coefficient of ethylbenzene (Liquid); method: Chromatography
Temperature, K	Activity coefficient of ethylbenzene	uncertainty
323.15	8.19	0.49
343.15	7.78	0.46
363.15	7.19	0.43

System: acetone + 1-butyl-3-methylimidazolium nitrate; phases: Liquid
Fixed: Pressure, kPa = 101
Fixed: Mole fraction of acetone = 0
Property: Activity coefficient of acetone (Liquid); method: Chromatography
Temperature, K	Activity coefficient of acetone	uncertainty
323.15	2.14	0.13
363.15	1.93	0.11

System: tetrachloromethane + 1-butyl-3-methylimidazolium nitrate; phases: Liquid
Fixed: Pressure, kPa = 101
Fixed: Mole fraction of tetrachloromethane = 0
Property: Activity coefficient of tetrachloromethane (Liquid); method: Chromatography
Temperature, K	Activity coefficient of tetrachloromethane	uncertainty
323.15	3.6	0.21
343.15	4	0.24
363.15	4.59	0.27

System: decane + water + 3-(1,1-dihydroxypropyl)-1-methyl-1H-imidazolium nitrate; phases: Liquid
Fixed: Pressure, kPa = 101
Fixed: Solvent: Mass fraction of water = 0.011123
Fixed: Mole fraction of decane = 0
Property: Activity coefficient of decane (Liquid); method: Chromatography
Temperature, K	Activity coefficient of decane	uncertainty
323.15	828.53	50.03
343.15	871.88	52.65
363.15	878.38	53.05

System: dodecane + water + 3-(1,1-dihydroxypropyl)-1-methyl-1H-imidazolium nitrate; phases: Liquid
Fixed: Pressure, kPa = 101
Fixed: Solvent: Mass fraction of water = 0.011123
Fixed: Mole fraction of dodecane = 0
Property: Activity coefficient of dodecane (Liquid); method: Chromatography
Temperature, K	Activity coefficient of dodecane	uncertainty
323.15	1208.81	73.07
343.15	1199.08	72.48
363.15	1144.84	69.2

System: benzene + water + 3-(1,1-dihydroxypropyl)-1-methyl-1H-imidazolium nitrate; phases: Liquid
Fixed: Pressure, kPa = 101
Fixed: Solvent: Mass fraction of water = 0.011123
Fixed: Mole fraction of benzene = 0
Property: Activity coefficient of benzene (Liquid); method: Chromatography
Temperature, K	Activity coefficient of benzene	uncertainty
323.15	6.57	0.39
343.15	6.72	0.4
363.15	6.86	0.41

System: benzene + water + 3-(1,1-dihydroxypropyl)-1-methyl-1H-imidazolium nitrate; phases: Liquid
Fixed: Pressure, kPa = 101
Fixed: Solvent: Mass fraction of water = 0.00248
Fixed: Mole fraction of benzene = 0
Property: Activity coefficient of benzene (Liquid); method: Chromatography
Temperature, K	Activity coefficient of benzene	uncertainty
323.15	6.46	0.38
343.15	6.67	0.4

System: toluene + water + 3-(1,1-dihydroxypropyl)-1-methyl-1H-imidazolium nitrate; phases: Liquid
Fixed: Pressure, kPa = 101
Fixed: Solvent: Mass fraction of water = 0.011123
Fixed: Mole fraction of toluene = 0
Property: Activity coefficient of toluene (Liquid); method: Chromatography
Temperature, K	Activity coefficient of toluene	uncertainty
323.15	12.65	0.75
343.15	12.79	0.76
363.15	13.07	0.78

System: toluene + water + 3-(1,1-dihydroxypropyl)-1-methyl-1H-imidazolium nitrate; phases: Liquid
Fixed: Pressure, kPa = 101
Fixed: Solvent: Mass fraction of water = 0.00248
Fixed: Mole fraction of toluene = 0
Property: Activity coefficient of toluene (Liquid); method: Chromatography
Temperature, K	Activity coefficient of toluene	uncertainty
323.15	12.1	0.7
343.15	11.48	0.68
363.15	12.64	0.75

System: methanol + water + 3-(1,1-dihydroxypropyl)-1-methyl-1H-imidazolium nitrate; phases: Liquid
Fixed: Pressure, kPa = 101
Fixed: Solvent: Mass fraction of water = 0.011123
Fixed: Mole fraction of methanol = 0
Property: Activity coefficient of methanol (Liquid); method: Chromatography
Temperature, K	Activity coefficient of methanol	uncertainty
323.15	0.69	0.04
343.15	0.68	0.04
363.15	0.68	0.04

System: methanol + water + 3-(1,1-dihydroxypropyl)-1-methyl-1H-imidazolium nitrate; phases: Liquid
Fixed: Pressure, kPa = 101
Fixed: Solvent: Mass fraction of water = 0.00248
Fixed: Mole fraction of methanol = 0
Property: Activity coefficient of methanol (Liquid); method: Chromatography
Temperature, K	Activity coefficient of methanol	uncertainty
323.15	0.62	0.04
343.15	0.65	0.04
363.15	0.66	0.04

System: ethanol + water + 3-(1,1-dihydroxypropyl)-1-methyl-1H-imidazolium nitrate; phases: Liquid
Fixed: Pressure, kPa = 101
Fixed: Solvent: Mass fraction of water = 0.011123
Fixed: Mole fraction of ethanol = 0
Property: Activity coefficient of ethanol (Liquid); method: Chromatography
Temperature, K	Activity coefficient of ethanol	uncertainty
323.15	1.41	0.08
343.15	1.33	0.07
363.15	1.28	0.07

System: ethanol + water + 3-(1,1-dihydroxypropyl)-1-methyl-1H-imidazolium nitrate; phases: Liquid
Fixed: Pressure, kPa = 101
Fixed: Solvent: Mass fraction of water = 0.00248
Fixed: Mole fraction of ethanol = 0
Property: Activity coefficient of ethanol (Liquid); method: Chromatography
Temperature, K	Activity coefficient of ethanol	uncertainty
323.15	1.27	0.07
343.15	1.26	0.07
363.15	1.25	0.07

System: propan-1-ol + water + 3-(1,1-dihydroxypropyl)-1-methyl-1H-imidazolium nitrate; phases: Liquid
Fixed: Pressure, kPa = 101
Fixed: Solvent: Mass fraction of water = 0.011123
Fixed: Mole fraction of propan-1-ol = 0
Property: Activity coefficient of propan-1-ol (Liquid); method: Chromatography
Temperature, K	Activity coefficient of propan-1-ol	uncertainty
323.15	2.3	0.1
343.15	2.16	0.13
363.15	2.08	0.12

System: propan-2-ol + water + 3-(1,1-dihydroxypropyl)-1-methyl-1H-imidazolium nitrate; phases: Liquid
Fixed: Pressure, kPa = 101
Fixed: Solvent: Mass fraction of water = 0.011123
Fixed: Mole fraction of propan-2-ol = 0
Property: Activity coefficient of propan-2-ol (Liquid); method: Chromatography
Temperature, K	Activity coefficient of propan-2-ol	uncertainty
323.15	2.36	0.14
343.15	2.29	0.14
363.15	2.21	0.13

System: trichloromethane + water + 3-(1,1-dihydroxypropyl)-1-methyl-1H-imidazolium nitrate; phases: Liquid
Fixed: Pressure, kPa = 101
Fixed: Solvent: Mass fraction of water = 0.011123
Fixed: Mole fraction of trichloromethane = 0
Property: Activity coefficient of trichloromethane (Liquid); method: Chromatography
Temperature, K	Activity coefficient of trichloromethane	uncertainty
323.15	1.54	0.09
343.15	1.85	0.11
363.15	2.16	0.13

System: 1,2-dichloroethane + water + 3-(1,1-dihydroxypropyl)-1-methyl-1H-imidazolium nitrate; phases: Liquid
Fixed: Pressure, kPa = 101
Fixed: Solvent: Mass fraction of water = 0.011123
Fixed: Mole fraction of 1,2-dichloroethane = 0
Property: Activity coefficient of 1,2-dichloroethane (Liquid); method: Chromatography
Temperature, K	Activity coefficient of 1,2-dichloroethane	uncertainty
323.15	3.03	0.18
343.15	3.18	0.19
363.15	3.5	0.2

System: 1,2-dichloroethane + water + 3-(1,1-dihydroxypropyl)-1-methyl-1H-imidazolium nitrate; phases: Liquid
Fixed: Pressure, kPa = 101
Fixed: Solvent: Mass fraction of water = 0.00248
Fixed: Mole fraction of 1,2-dichloroethane = 0
Property: Activity coefficient of 1,2-dichloroethane (Liquid); method: Chromatography
Temperature, K	Activity coefficient of 1,2-dichloroethane	uncertainty
323.15	2.97	0.18
343.15	3.15	0.19
363.15	3.43	0.2

System: trichloroethene + water + 3-(1,1-dihydroxypropyl)-1-methyl-1H-imidazolium nitrate; phases: Liquid
Fixed: Pressure, kPa = 101
Fixed: Solvent: Mass fraction of water = 0.011123
Fixed: Mole fraction of trichloroethene = 0
Property: Activity coefficient of trichloroethene (Liquid); method: Chromatography
Temperature, K	Activity coefficient of trichloroethene	uncertainty
323.15	9.13	0.54
343.15	9.67	0.58
363.15	10.47	0.62

System: trichloroethene + water + 3-(1,1-dihydroxypropyl)-1-methyl-1H-imidazolium nitrate; phases: Liquid
Fixed: Pressure, kPa = 101
Fixed: Solvent: Mass fraction of water = 0.00248
Fixed: Mole fraction of trichloroethene = 0
Property: Activity coefficient of trichloroethene (Liquid); method: Chromatography
Temperature, K	Activity coefficient of trichloroethene	uncertainty
343.15	9.63	0.57
363.15	10.24	0.61

System: ethyl acetate + water + 3-(1,1-dihydroxypropyl)-1-methyl-1H-imidazolium nitrate; phases: Liquid
Fixed: Pressure, kPa = 101
Fixed: Solvent: Mass fraction of water = 0.011123
Fixed: Mole fraction of ethyl acetate = 0
Property: Activity coefficient of ethyl acetate (Liquid); method: Chromatography
Temperature, K	Activity coefficient of ethyl acetate	uncertainty
323.15	9.52	0.57
343.15	10.04	0.6
363.15	10.15	0.61

System: ethyl acetate + water + 3-(1,1-dihydroxypropyl)-1-methyl-1H-imidazolium nitrate; phases: Liquid
Fixed: Pressure, kPa = 101
Fixed: Solvent: Mass fraction of water = 0.00248
Fixed: Mole fraction of ethyl acetate = 0
Property: Activity coefficient of ethyl acetate (Liquid); method: Chromatography
Temperature, K	Activity coefficient of ethyl acetate	uncertainty
323.15	9.23	0.55
343.15	9.61	0.57
363.15	9.95	0.59

System: butanone + water + 3-(1,1-dihydroxypropyl)-1-methyl-1H-imidazolium nitrate; phases: Liquid
Fixed: Pressure, kPa = 101
Fixed: Solvent: Mass fraction of water = 0.011123
Fixed: Mole fraction of butanone = 0
Property: Activity coefficient of butanone (Liquid); method: Chromatography
Temperature, K	Activity coefficient of butanone	uncertainty
323.15	4.76	0.28
343.15	5.15	0.31
363.15	5.1	0.3

System: ethylbenzene + water + 3-(1,1-dihydroxypropyl)-1-methyl-1H-imidazolium nitrate; phases: Liquid
Fixed: Pressure, kPa = 101
Fixed: Solvent: Mass fraction of water = 0.011123
Fixed: Mole fraction of ethylbenzene = 0
Property: Activity coefficient of ethylbenzene (Liquid); method: Chromatography
Temperature, K	Activity coefficient of ethylbenzene	uncertainty
323.15	26.31	1.57
343.15	25.89	1.55
363.15	24.97	1.49

System: ethylbenzene + water + 3-(1,1-dihydroxypropyl)-1-methyl-1H-imidazolium nitrate; phases: Liquid
Fixed: Pressure, kPa = 101
Fixed: Solvent: Mass fraction of water = 0.00248
Fixed: Mole fraction of ethylbenzene = 0
Property: Activity coefficient of ethylbenzene (Liquid); method: Chromatography
Temperature, K	Activity coefficient of ethylbenzene	uncertainty
323.15	25.52	1.53
343.15	24.62	1.47
363.15	24.59	1.47

System: acetone + water + 3-(1,1-dihydroxypropyl)-1-methyl-1H-imidazolium nitrate; phases: Liquid
Fixed: Pressure, kPa = 101
Fixed: Solvent: Mass fraction of water = 0.011123
Fixed: Mole fraction of acetone = 0
Property: Activity coefficient of acetone (Liquid); method: Chromatography
Temperature, K	Activity coefficient of acetone	uncertainty
323.15	2.72	0.16
343.15	2.84	0.17
363.15	2.85	0.17

System: acetone + water + 3-(1,1-dihydroxypropyl)-1-methyl-1H-imidazolium nitrate; phases: Liquid
Fixed: Pressure, kPa = 101
Fixed: Solvent: Mass fraction of water = 0.00248
Fixed: Mole fraction of acetone = 0
Property: Activity coefficient of acetone (Liquid); method: Chromatography
Temperature, K	Activity coefficient of acetone	uncertainty
323.15	2.58	0.15
343.15	2.79	0.17
363.15	2.78	0.17
