Measured thermophysical data. New P-p-T Data for Nitrogen at Temperatures from (265 to 400) K at Pressures up to 150 MPa
Source: J. Chem. Eng. Data, 2010, 10.1021/je100381g
Compound 1: nitrogen, N2, InChI=1S/N2/c1-2, purity 99.9995%

System: nitrogen; phases: Fluid (supercritical or subcritical phases)
Property: Mass density, kg/m3 (Fluid (supercritical or subcritical phases)); method: MSONE:UFactor:0.25
Temperature, K	Pressure, kPa	Mass density, kg/m3	uncertainty
265	967	12.355	0.001
265	1937	24.865	0.002
265	3929	50.84	0.002
265	5996	77.972	0.003
265	7985	104.063	0.004
265	9835	128.039	0.004
265	15014	192.346	0.006
265	20022	248.359	0.008
265	25019	297.183	0.009
265	30006	339.165	0.011
265	35119	376.198	0.012
265	50041	459.104	0.014
265	74887	549.76	0.017
265	100559	613.291	0.019
293	965	11.119	0.001
293	1933	22.306	0.002
293	3923	45.361	0.002
293	5988	69.244	0.003
293	7971	91.982	0.003
293	9822	112.91	0.004
293	14872	167.663	0.006
293	19976	218.428	0.007
293	24948	262.722	0.008
293	29965	302.337	0.01
293	34993	337.389	0.011
293	39916	367.801	0.011
293	50130	421	0.013
293	74957	513.932	0.016
293	99903	578.472	0.018
293	125585	628.863	0.019
293	150976	668.88	0.02
298.15	10005	112.564	0.004
298.15	30026	296.94	0.009
298.15	49844	413.221	0.013
298.15	74988	507.852	0.016
298.15	100175	573.318	0.018
298.15	124825	622.069	0.019
298.15	151239	664.101	0.02
350	2974	28.486	0.002
350	4917	46.878	0.002
350	5971	56.772	0.002
350	7481	70.762	0.003
350	9976	93.531	0.003
350	13786	127.029	0.004
350	17230	155.891	0.005
350	20677	183.287	0.006
350	24132	209.197	0.007
350	27582	233.51	0.008
350	29848	248.687	0.008
350	34691	279.018	0.009
350	49978	358.872	0.011
350	74999	452.98	0.014
350	99994	520.331	0.016
350	124395	571.157	0.018
350	150364	614.997	0.019
400	1004	8.432	0.001
400	1999	16.747	0.002
400	2999	25.04	0.002
400	4000	33.281	0.002
400	5001	41.463	0.002
400	7000	57.573	0.002
400	8004	65.564	0.003
400	10000	81.202	0.003
400	14997	118.841	0.004
400	19991	154.143	0.005
400	24998	187.116	0.006
400	29991	217.621	0.007
400	35015	246.029	0.008
400	40004	272.126	0.009
400	49964	318.659	0.01
400	59948	358.969	0.011
400	69931	394.143	0.012
400	79958	425.322	0.013
400	89963	453.061	0.014
400	99951	477.982	0.015
400	110031	500.804	0.015
400	120573	522.585	0.016
