Measured thermophysical data. Temperature-Dependent Vapor Pressure of Selected Cyclic and Linear Polydimethylsiloxane Oligomers
Source: J. Chem. Eng. Data, 2010, 10.1021/je100835n
Compound 1: octamethylcyclotetrasiloxane, C8H24O4Si4, InChI=1S/C8H24O4Si4/c1-13(2)9-14(3,4)11-16(7,8)12-15(5,6)10-13/h1-8H3
Compound 2: decamethylcyclopentasiloxane, C10H30O5Si5, InChI=1S/C10H30O5Si5/c1-16(2)11-17(3,4)13-19(7,8)15-20(9,10)14-18(5,6)12-16/h1-10H3
Compound 3: dodecamethylcyclohexasiloxane, C12H36O6Si6, InChI=1S/C12H36O6Si6/c1-19(2)13-20(3,4)15-22(7,8)17-24(11,12)18-23(9,10)16-21(5,6)14-19/h1-12H3
Compound 4: tetradecamethylcycloheptasiloxane, C14H42O7Si7, InChI=1S/C14H42O7Si7/c1-22(2)15-23(3,4)17-25(7,8)19-27(11,12)21-28(13,14)20-26(9,10)18-24(5,6)16-22/h1-14H3
Compound 5: hexadecamethylcyclooctasiloxane, C16H48O8Si8, InChI=1S/C16H48O8Si8/c1-25(2)17-26(3,4)19-28(7,8)21-30(11,12)23-32(15,16)24-31(13,14)22-29(9,10)20-27(5,6)18-25/h1-16H3
Compound 6: octadecamethylcyclononasiloxane, C18H54O9Si9, InChI=1S/C18H54O9Si9/c1-28(2)19-29(3,4)21-31(7,8)23-33(11,12)25-35(15,16)27-36(17,18)26-34(13,14)24-32(9,10)22-30(5,6)20-28/h1-18H3
Compound 7: icosamethylcyclodecasiloxane, C20H60O10Si10, InChI=1S/C20H60O10Si10/c1-31(2)21-32(3,4)23-34(7,8)25-36(11,12)27-38(15,16)29-40(19,20)30-39(17,18)28-37(13,14)26-35(9,10)24-33(5,6)22-31/h1-20H3
Compound 8: dodecamethylpentasiloxane, C12H36O4Si5, InChI=1S/C12H36O4Si5/c1-17(2,3)13-19(7,8)15-21(11,12)16-20(9,10)14-18(4,5)6/h1-12H3
Compound 9: tetradecamethylhexasiloxane, C14H42O5Si6, InChI=1S/C14H42O5Si6/c1-20(2,3)15-22(7,8)17-24(11,12)19-25(13,14)18-23(9,10)16-21(4,5)6/h1-14H3
Compound 10: hexadecamethylheptasiloxane, C16H48O6Si7, InChI=1S/C16H48O6Si7/c1-23(2,3)17-25(7,8)19-27(11,12)21-29(15,16)22-28(13,14)20-26(9,10)18-24(4,5)6/h1-16H3
Compound 11: octadecamethyloctasiloxane, C18H54O7Si8, InChI=1S/C18H54O7Si8/c1-26(2,3)19-28(7,8)21-30(11,12)23-32(15,16)25-33(17,18)24-31(13,14)22-29(9,10)20-27(4,5)6/h1-18H3
Compound 12: eicosamethylnonasiloxane, C20H60O8Si9, InChI=1S/C20H60O8Si9/c1-29(2,3)21-31(7,8)23-33(11,12)25-35(15,16)27-37(19,20)28-36(17,18)26-34(13,14)24-32(9,10)22-30(4,5)6/h1-20H3
Compound 13: docosamethyldecasiloxane, C22H66O9Si10, InChI=1S/C22H66O9Si10/c1-32(2,3)23-34(7,8)25-36(11,12)27-38(15,16)29-40(19,20)31-41(21,22)30-39(17,18)28-37(13,14)26-35(9,10)24-33(4,5)6/h1-22H3
Compound 14: tetracosamethylundecasiloxane, C24H72O10Si11, InChI=1S/C24H72O10Si11/c1-35(2,3)25-37(7,8)27-39(11,12)29-41(15,16)31-43(19,20)33-45(23,24)34-44(21,22)32-42(17,18)30-40(13,14)28-38(9,10)26-36(4,5)6/h1-24H3
Compound 15: hexacosamethyldodecasiloxane, C26H78O11Si12, InChI=1S/C26H78O11Si12/c1-38(2,3)27-40(7,8)29-42(11,12)31-44(15,16)33-46(19,20)35-48(23,24)37-49(25,26)36-47(21,22)34-45(17,18)32-43(13,14)30-41(9,10)28-39(4,5)6/h1-26H3
Compound 16: octacosamethyltridecasiloxane, C28H84O12Si13, InChI=1S/C28H84O12Si13/c1-41(2,3)29-43(7,8)31-45(11,12)33-47(15,16)35-49(19,20)37-51(23,24)39-53(27,28)40-52(25,26)38-50(21,22)36-48(17,18)34-46(13,14)32-44(9,10)30-42(4,5)6/h1-28H3

System: octamethylcyclotetrasiloxane; phases: Liquid, Gas
Property: Vapor or sublimation pressure, kPa (Liquid); method: Gas chromatography
Temperature, K	Vapor or sublimation pressure, kPa	uncertainty
308.15	0.23588129	0.050053336
318.15	0.42692235	0.090590494
328.15	0.74524793	0.15813706
338.15	1.2587583	0.26710037
348.15	2.0630354	0.43776215
358.15	3.2891919	0.69794342
368.15	5.1128883	1.0849148

System: decamethylcyclopentasiloxane; phases: Liquid, Gas
Property: Vapor or sublimation pressure, kPa (Liquid); method: Gas chromatography
Temperature, K	Vapor or sublimation pressure, kPa	uncertainty
308.15	0.044575833	0.0094590851
318.15	0.092930799	0.019719579
328.15	0.18525668	0.039310665
338.15	0.35454169	0.075231999
348.15	0.65368262	0.13870791
358.15	1.1647406	0.24715116
368.15	2.0112371	0.42676967

System: dodecamethylcyclohexasiloxane; phases: Liquid, Gas
Property: Vapor or sublimation pressure, kPa (Liquid); method: Gas chromatography
Temperature, K	Vapor or sublimation pressure, kPa	uncertainty
338.15	0.049480708	0.01049977
348.15	0.09583872	0.020336523
358.15	0.17890127	0.037961912
368.15	0.32281943	0.06850045
378.15	0.56460924	0.11980667
388.15	0.95945868	0.20359102
398.15	1.5875856	0.33687512
408.15	2.5628953	0.54382873
418.15	4.0436753	0.85803643

System: tetradecamethylcycloheptasiloxane; phases: Liquid, Gas
Property: Vapor or sublimation pressure, kPa (Liquid); method: Gas chromatography
Temperature, K	Vapor or sublimation pressure, kPa	uncertainty
338.15	0.010003712	0.0021228198
348.15	0.021304106	0.0045206649
358.15	0.043494287	0.0092293193
368.15	0.085420452	0.018125836
378.15	0.16187812	0.034349725
388.15	0.29683106	0.062985931
398.15	0.52796276	0.11203062
408.15	0.91294001	0.19372024
418.15	1.5378197	0.32631382

System: hexadecamethylcyclooctasiloxane; phases: Liquid, Gas
Property: Vapor or sublimation pressure, kPa (Liquid); method: Gas chromatography
Temperature, K	Vapor or sublimation pressure, kPa	uncertainty
338.15	0.0021013667	0.00044592878
348.15	0.0049117532	0.0010422695
358.15	0.010949143	0.0023233848
368.15	0.023367412	0.0049584936
378.15	0.047910246	0.010166373
388.15	0.094662793	0.02008703
398.15	0.18074819	0.038353883
408.15	0.33435232	0.070947781
418.15	0.60056212	0.12743496

System: octadecamethylcyclononasiloxane; phases: Liquid, Gas
Property: Vapor or sublimation pressure, kPa (Liquid); method: Gas chromatography
Temperature, K	Vapor or sublimation pressure, kPa	uncertainty
338.15	0.00047340827	0.00010046582
348.15	0.0012001115	0.00025466661
358.15	0.0028883364	0.00061290524
368.15	0.0066275454	0.0014063559
378.15	0.014553931	0.0030883085
388.15	0.030690575	0.00651244
398.15	0.062338053	0.01322789
408.15	0.12229854	0.025951204
418.15	0.23232242	0.049297208

System: icosamethylcyclodecasiloxane; phases: Liquid, Gas
Property: Vapor or sublimation pressure, kPa (Liquid); method: Gas chromatography
Temperature, K	Vapor or sublimation pressure, kPa	uncertainty
358.15	0.00082008472	0.00017403299
368.15	0.0020028078	0.00042499745
378.15	0.0046656321	0.00099004292
388.15	0.010405369	0.0022079979
398.15	0.022289804	0.0047298309
408.15	0.045998415	0.0097606965
418.15	0.091691801	0.019456387

System: dodecamethylpentasiloxane; phases: Liquid, Gas
Property: Vapor or sublimation pressure, kPa (Liquid); method: Gas chromatography
Temperature, K	Vapor or sublimation pressure, kPa	uncertainty
338.15	0.094983999	0.020155335
348.15	0.17193548	0.036483738
358.15	0.30108498	0.063888414
368.15	0.51143915	0.10852412
378.15	0.84475119	0.17925057
388.15	1.3596723	0.28851305
398.15	2.1367631	0.45340588
408.15	3.2844179	0.69692754

System: tetradecamethylhexasiloxane; phases: Liquid, Gas
Property: Vapor or sublimation pressure, kPa (Liquid); method: Gas chromatography
Temperature, K	Vapor or sublimation pressure, kPa	uncertainty
338.15	0.018449036	0.0039149097
348.15	0.037671526	0.0079937517
358.15	0.073916153	0.015684674
368.15	0.13981796	0.029668665
378.15	0.25570876	0.054259993
388.15	0.45333464	0.096194946
398.15	0.78090963	0.16570417
408.15	1.3098132	0.27793385
418.15	2.1432606	0.45478543
428.15	3.4272862	0.72724625
438.15	5.3643804	1.1382796

System: hexadecamethylheptasiloxane; phases: Liquid, Gas
Property: Vapor or sublimation pressure, kPa (Liquid); method: Gas chromatography
Temperature, K	Vapor or sublimation pressure, kPa	uncertainty
338.15	0.0035856712	0.00076090607
348.15	0.0082317174	0.0017467581
358.15	0.018040799	0.0038282115
368.15	0.037888618	0.0080398368
378.15	0.076509982	0.016235109
388.15	0.14900508	0.031618191
398.15	0.28063553	0.059549432
408.15	0.512403	0.1087291
418.15	0.90902259	0.19288927
428.15	1.5700301	0.3331507
438.15	2.6448914	0.56122615

System: octadecamethyloctasiloxane; phases: Liquid, Gas
Property: Vapor or sublimation pressure, kPa (Liquid); method: Gas chromatography
Temperature, K	Vapor or sublimation pressure, kPa	uncertainty
338.15	0.00072707247	0.00015429679
348.15	0.001846048	0.00039173473
358.15	0.0044494954	0.00094418219
368.15	0.010224038	0.0021695256
378.15	0.022481468	0.0047705119
388.15	0.04746729	0.010072404
398.15	0.096529555	0.020483194
408.15	0.18959228	0.040230636
418.15	0.36054479	0.076505824
428.15	0.66536279	0.14118643
438.15	1.1940192	0.25336227

System: eicosamethylnonasiloxane; phases: Liquid, Gas
Property: Vapor or sublimation pressure, kPa (Liquid); method: Gas chromatography
Temperature, K	Vapor or sublimation pressure, kPa	uncertainty
348.15	0.00041562092	8.8203916e-05
358.15	0.0010980549	0.00023301138
368.15	0.0027518783	0.00058395167
378.15	0.0065694862	0.0013940416
388.15	0.014995523	0.0031820251
398.15	0.032838782	0.0069683056
408.15	0.069203981	0.014684857
418.15	0.14073125	0.029862621
428.15	0.27685373	0.058747136
438.15	0.52807616	0.11205411

System: docosamethyldecasiloxane; phases: Liquid, Gas
Property: Vapor or sublimation pressure, kPa (Liquid); method: Gas chromatography
Temperature, K	Vapor or sublimation pressure, kPa	uncertainty
368.15	0.00071522914	0.00015178481
378.15	0.0018611066	0.00039493155
388.15	0.0046099586	0.00097823571
398.15	0.010910257	0.0023151478
408.15	0.02475367	0.0052526839
418.15	0.054004029	0.011459513
428.15	0.1136023	0.024106033
438.15	0.23099686	0.049016008

System: tetracosamethylundecasiloxane; phases: Liquid, Gas
Property: Vapor or sublimation pressure, kPa (Liquid); method: Gas chromatography
Temperature, K	Vapor or sublimation pressure, kPa	uncertainty
378.15	0.00053911064	0.00011441113
388.15	0.001445697	0.00030678236
398.15	0.0036894122	0.00078289862
408.15	0.0089928904	0.0019082909
418.15	0.021005552	0.0044573537
428.15	0.047158321	0.010006899
438.15	0.1020353	0.021651247

System: hexacosamethyldodecasiloxane; phases: Liquid, Gas
Property: Vapor or sublimation pressure, kPa (Liquid); method: Gas chromatography
Temperature, K	Vapor or sublimation pressure, kPa	uncertainty
388.15	0.00045928982	9.7472532e-05
398.15	0.0012561909	0.00026656952
408.15	0.0032704859	0.00069400394
418.15	0.00813379	0.0017259942
428.15	0.019386096	0.0041137165
438.15	0.044408903	0.0094233026

System: octacosamethyltridecasiloxane; phases: Liquid, Gas
Property: Vapor or sublimation pressure, kPa (Liquid); method: Gas chromatography
Temperature, K	Vapor or sublimation pressure, kPa	uncertainty
398.15	0.0004325516	9.1798878e-05
408.15	0.001204549	0.00025561166
418.15	0.0031940151	0.00067777845
428.15	0.0080921905	0.0017171708
438.15	0.019650175	0.0041696558
