Measured thermophysical data. Density and Viscosity of the Binary Mixtures of Hexan-1-ol with Isomeric Xylenes at T = (308.15 and 318.15) K and Atmospheric Pressure
Source: J. Chem. Eng. Data, 2010, 10.1021/je100823t
Compound 1: hexan-1-ol, C6H14O, InChI=1S/C6H14O/c1-2-3-4-5-6-7/h7H,2-6H2,1H3, purity 98%
Compound 2: 1,2-dimethylbenzene, C8H10, InChI=1S/C8H10/c1-7-5-3-4-6-8(7)2/h3-6H,1-2H3, purity 98%
Compound 3: 1,3-dimethylbenzene, C8H10, InChI=1S/C8H10/c1-7-4-3-5-8(2)6-7/h3-6H,1-2H3, purity 98%
Compound 4: 1,4-dimethylbenzene, C8H10, InChI=1S/C8H10/c1-7-3-5-8(2)6-4-7/h3-6H,1-2H3, purity 98%

System: hexan-1-ol; phases: Liquid
Fixed: Pressure, kPa = 101
Property: Viscosity, Pa*s (Liquid); method: Capillary tube (Ostwald; Ubbelohde) method
Temperature, K	Viscosity, Pa*s	uncertainty
308.15	0.003318	3.9e-05
318.15	0.002518	3.1e-05

System: hexan-1-ol; phases: Liquid
Fixed: Pressure, kPa = 101
Property: Mass density, kg/m3 (Liquid); method: Pycnometric method
Temperature, K	Mass density, kg/m3	uncertainty
308.15	808.5	1.1
318.15	801.2	1

System: 1,2-dimethylbenzene; phases: Liquid
Fixed: Pressure, kPa = 101
Property: Viscosity, Pa*s (Liquid); method: Capillary tube (Ostwald; Ubbelohde) method
Temperature, K	Viscosity, Pa*s	uncertainty
308.15	0.000666	1.3e-05
318.15	0.000591	1.2e-05

System: 1,2-dimethylbenzene; phases: Liquid
Fixed: Pressure, kPa = 101
Property: Mass density, kg/m3 (Liquid); method: Pycnometric method
Temperature, K	Mass density, kg/m3	uncertainty
308.15	866.7	1.1
318.15	858.4	1.1

System: 1,3-dimethylbenzene; phases: Liquid
Fixed: Pressure, kPa = 101
Property: Viscosity, Pa*s (Liquid); method: Capillary tube (Ostwald; Ubbelohde) method
Temperature, K	Viscosity, Pa*s	uncertainty
308.15	0.000521	1.2e-05
318.15	0.00047	1.1e-05

System: 1,3-dimethylbenzene; phases: Liquid
Fixed: Pressure, kPa = 101
Property: Mass density, kg/m3 (Liquid); method: Pycnometric method
Temperature, K	Mass density, kg/m3	uncertainty
308.15	851.3	1.1
318.15	842.7	1.1

System: 1,4-dimethylbenzene; phases: Liquid
Fixed: Pressure, kPa = 101
Property: Viscosity, Pa*s (Liquid); method: Capillary tube (Ostwald; Ubbelohde) method
Temperature, K	Viscosity, Pa*s	uncertainty
308.15	0.000541	1.2e-05
318.15	0.000486	1.2e-05

System: 1,4-dimethylbenzene; phases: Liquid
Fixed: Pressure, kPa = 101
Property: Mass density, kg/m3 (Liquid); method: Pycnometric method
Temperature, K	Mass density, kg/m3	uncertainty
308.15	848.2	1.1
318.15	839.5	1.1

System: 1,2-dimethylbenzene + hexan-1-ol; phases: Liquid
Fixed: Pressure, kPa = 101
Property: Viscosity, Pa*s (Liquid); method: Capillary tube (Ostwald; Ubbelohde) method
Temperature, K	Mole fraction of hexan-1-ol	Viscosity, Pa*s	uncertainty
308.15	0	0.000666	1.3e-05
308.15	0.0999	0.000709	1.3e-05
308.15	0.1999	0.000789	1.4e-05
308.15	0.2999	0.000899	1.4e-05
308.15	0.4001	0.001043	1.6e-05
308.15	0.4997	0.00123	1.7e-05
308.15	0.6	0.001475	2e-05
308.15	0.7	0.001799	2.3e-05
308.15	0.8	0.002217	2.7e-05
308.15	0.8999	0.002738	3.3e-05
308.15	1	0.003318	3.9e-05
318.15	0	0.000591	1.2e-05
318.15	0.0999	0.000621	1.2e-05
318.15	0.1999	0.000683	1.3e-05
318.15	0.2999	0.000768	1.3e-05
318.15	0.4001	0.000879	1.4e-05
318.15	0.4997	0.00102	1.6e-05
318.15	0.6	0.001199	1.7e-05
318.15	0.7	0.001431	1.9e-05
318.15	0.8	0.00173	2.2e-05
318.15	0.8999	0.002104	2.7e-05
318.15	1	0.002518	3.1e-05

System: 1,2-dimethylbenzene + hexan-1-ol; phases: Liquid
Fixed: Pressure, kPa = 101
Property: Mass density, kg/m3 (Liquid); method: Pycnometric method
Temperature, K	Mole fraction of hexan-1-ol	Mass density, kg/m3	uncertainty
308.15	0	866.7	1.1
308.15	0.0999	860.1	1.1
308.15	0.1999	853.9	1.1
308.15	0.2999	847.9	1.1
308.15	0.4001	842.1	1.1
308.15	0.4997	836.4	1.1
308.15	0.6	830.7	1.1
308.15	0.7	825.1	1.1
308.15	0.8	819.5	1.1
308.15	0.8999	814	1.1
308.15	1	808.5	1.1
318.15	0	858.4	1.1
318.15	0.0999	851.7	1.1
318.15	0.1999	845.6	1.1
318.15	0.2999	839.7	1.1
318.15	0.4001	833.9	1.1
318.15	0.4997	828.3	1.1
318.15	0.6	822.7	1.1
318.15	0.7	817.2	1.1
318.15	0.8	811.8	1.1
318.15	0.8999	806.4	1
318.15	1	801.2	1

System: 1,3-dimethylbenzene + hexan-1-ol; phases: Liquid
Fixed: Pressure, kPa = 101
Property: Viscosity, Pa*s (Liquid); method: Capillary tube (Ostwald; Ubbelohde) method
Temperature, K	Mole fraction of hexan-1-ol	Viscosity, Pa*s	uncertainty
308.15	0	0.000521	1.2e-05
308.15	0.1002	0.000562	1.2e-05
308.15	0.2002	0.000638	1.3e-05
308.15	0.3007	0.000742	1.3e-05
308.15	0.4001	0.000875	1.4e-05
308.15	0.5	0.001057	1.6e-05
308.15	0.5999	0.001298	1.8e-05
308.15	0.6999	0.001629	2.1e-05
308.15	0.7999	0.002072	2.6e-05
308.15	0.8999	0.002643	3.2e-05
308.15	1	0.003318	3.9e-05
318.15	0	0.00047	1.1e-05
318.15	0.1002	0.000502	1.2e-05
318.15	0.2002	0.000561	1.2e-05
318.15	0.3007	0.000643	1.3e-05
318.15	0.4001	0.000747	1.3e-05
318.15	0.5	0.000885	1.4e-05
318.15	0.5999	0.001066	1.6e-05
318.15	0.6999	0.001306	1.8e-05
318.15	0.7999	0.001623	2.1e-05
318.15	0.8999	0.002031	2.6e-05
318.15	1	0.002518	3.1e-05

System: 1,3-dimethylbenzene + hexan-1-ol; phases: Liquid
Fixed: Pressure, kPa = 101
Property: Mass density, kg/m3 (Liquid); method: Pycnometric method
Temperature, K	Mole fraction of hexan-1-ol	Mass density, kg/m3	uncertainty
308.15	0	851.3	1.1
308.15	0.1002	846.4	1.1
308.15	0.2002	841.7	1.1
308.15	0.3007	837.2	1.1
308.15	0.4001	833	1.1
308.15	0.5	828.8	1.1
308.15	0.5999	824.7	1.1
308.15	0.6999	820.6	1.1
308.15	0.7999	816.6	1.1
308.15	0.8999	812.6	1.1
308.15	1	808.5	1.1
318.15	0	842.7	1.1
318.15	0.1002	837.6	1.1
318.15	0.2002	833	1.1
318.15	0.3007	828.7	1.1
318.15	0.4001	824.6	1.1
318.15	0.5	820.6	1.1
318.15	0.5999	816.6	1.1
318.15	0.6999	812.7	1.1
318.15	0.7999	808.8	1.1
318.15	0.8999	805	1.1
318.15	1	801.2	1.1

System: 1,4-dimethylbenzene + hexan-1-ol; phases: Liquid
Fixed: Pressure, kPa = 101
Property: Viscosity, Pa*s (Liquid); method: Capillary tube (Ostwald; Ubbelohde) method
Temperature, K	Mole fraction of hexan-1-ol	Viscosity, Pa*s	uncertainty
308.15	0	0.000541	1.2e-05
308.15	0.1001	0.000578	1.2e-05
308.15	0.2001	0.000647	1.3e-05
308.15	0.2999	0.000742	1.3e-05
308.15	0.4001	0.00087	1.4e-05
308.15	0.5009	0.001046	1.6e-05
308.15	0.5999	0.001279	1.8e-05
308.15	0.6999	0.001602	2.1e-05
308.15	0.8	0.002042	2.6e-05
308.15	0.9	0.002618	3.2e-05
308.15	1	0.003318	3.9e-05
318.15	0	0.000486	1.2e-05
318.15	0.1001	0.000513	1.2e-05
318.15	0.2001	0.000567	1.2e-05
318.15	0.2999	0.000643	1.3e-05
318.15	0.4001	0.000743	1.3e-05
318.15	0.5009	0.000877	1.4e-05
318.15	0.5999	0.001051	1.6e-05
318.15	0.6999	0.001287	1.8e-05
318.15	0.8	0.001604	2.1e-05
318.15	0.9	0.002017	2.6e-05
318.15	1	0.002518	3.1e-05

System: 1,4-dimethylbenzene + hexan-1-ol; phases: Liquid
Fixed: Pressure, kPa = 101
Property: Mass density, kg/m3 (Liquid); method: Pycnometric method
Temperature, K	Mole fraction of hexan-1-ol	Mass density, kg/m3	uncertainty
308.15	0	848.2	1.1
308.15	0.1001	843.6	1.1
308.15	0.2001	839.4	1.1
308.15	0.2999	835.4	1.1
308.15	0.4001	831.4	1.1
308.15	0.5009	827.5	1.1
308.15	0.5999	823.7	1.1
308.15	0.6999	819.9	1.1
308.15	0.8	816.1	1.1
308.15	0.9	812.3	1.1
308.15	1	808.5	1.1
318.15	0	839.5	1.1
318.15	0.1001	834.9	1.1
318.15	0.2001	830.8	1.1
318.15	0.2999	826.9	1.1
318.15	0.4001	823.1	1.1
318.15	0.5009	819.3	1.1
318.15	0.5999	815.6	1.1
318.15	0.6999	811.9	1.1
318.15	0.8	808.3	1.1
318.15	0.9	804.7	1.1
318.15	1	801.2	1.1
