Measured thermophysical data. Influence of Compressed Carbon Dioxide on the Capillarity of the Gas-Crude Oil-Reservoir Water System
Source: J. Chem. Eng. Data, 2010, 10.1021/je100825b
Compound 1: nitrogen, N2, InChI=1S/N2/c1-2, purity 99.995%
Compound 2: methane, CH4, InChI=1S/CH4/h1H4, purity 99.995%
Compound 3: carbon dioxide, CO2, InChI=1S/CO2/c2-1-3, purity 99.995%
Compound 4: heptane, C7H16, InChI=1S/C7H16/c1-3-5-7-6-4-2/h3-7H2,1-2H3, purity 99%

System: nitrogen + heptane; phases: Liquid, Fluid (supercritical or subcritical phases)
Fixed: Temperature, K = 323.2
Property: Interfacial tension, N/m (Liquid); method: Drop weight
Pressure, kPa	Interfacial tension, N/m	uncertainty
100	0.0176	0.0002
3400	0.016	0.0002
6900	0.0137	0.0002
10400	0.012	0.0001

System: methane + heptane; phases: Liquid, Fluid (supercritical or subcritical phases)
Fixed: Temperature, K = 298.2
Property: Interfacial tension, N/m (Liquid); method: Drop weight
Pressure, kPa	Interfacial tension, N/m	uncertainty
100	0.0198	0.0002
1000	0.018	0.0002
2000	0.0165	0.0002
3000	0.015	0.0002
4000	0.0134	0.0002
6000	0.0101	0.0002
8000	0.0079	0.0002
1000	0.0058	0.0001
15000	0.0023	0.0001

System: carbon dioxide + heptane; phases: Liquid, Fluid (supercritical or subcritical phases)
Property: Interfacial tension, N/m (Liquid); method: Drop weight
Temperature, K	Pressure, kPa	Interfacial tension, N/m	uncertainty
323	100	0.0168	0.0002
323	3100	0.0101	0.0002
323	4500	0.0078	0.0002
323	5500	0.0057	0.0001
323	7900	0.0015	8e-05
323	9300	0.00011	3e-05
353	100	0.0136	0.0002
353	2100	0.0106	0.0002
353	4000	0.0078	0.0002
353	5600	0.0061	0.0002
353	6900	0.0047	0.0001
353	8500	0.0029	0.0001
353	10300	0.0008	5e-05
353	11200	0.0002	2e-05
