Measured thermophysical data. Solubilities of 2,4-Dinitro-l-phenylalanine in Monosolvents at (273.15 to 368.15) K
Source: J. Chem. Eng. Data, 2010, 10.1021/je100352r
Compound 1: 2,4-dinitrophenyl-L-alanine, C9H9N3O6, InChI=1S/C9H9N3O6/c1-5(9(13)14)10-7-3-2-6(11(15)16)4-8(7)12(17)18/h2-5,10H,1H3,(H,13,14)/t5-/m0/s1
Compound 2: water, H2O, InChI=1S/H2O/h1H2
Compound 3: ethanol, C2H6O, InChI=1S/C2H6O/c1-2-3/h3H,2H2,1H3, purity 99.8%
Compound 4: methanol, CH4O, InChI=1S/CH4O/c1-2/h2H,1H3, purity 99.8%
Compound 5: acetone, C3H6O, InChI=1S/C3H6O/c1-3(2)4/h1-2H3, purity 99.8%
Compound 6: ethyl acetate, C4H8O2, InChI=1S/C4H8O2/c1-3-6-4(2)5/h3H2,1-2H3, purity 99.8%
Compound 7: 1,2-dichloroethane, C2H4Cl2, InChI=1S/C2H4Cl2/c3-1-2-4/h1-2H2, purity 99.8%
Compound 8: propan-2-ol, C3H8O, InChI=1S/C3H8O/c1-3(2)4/h3-4H,1-2H3, purity 99.8%
Compound 9: propan-1-ol, C3H8O, InChI=1S/C3H8O/c1-2-3-4/h4H,2-3H2,1H3, purity 99.8%
Compound 10: butan-2-ol, C4H10O, InChI=1S/C4H10O/c1-3-4(2)5/h4-5H,3H2,1-2H3, purity 99.8%
Compound 11: butan-1-ol, C4H10O, InChI=1S/C4H10O/c1-2-3-4-5/h5H,2-4H2,1H3, purity 99.8%

System: 2,4-dinitrophenyl-L-alanine + water; phases: Liquid, Crystal
Fixed: Pressure, kPa = 101
Property: Mole fraction of 2,4-dinitrophenyl-L-alanine (Liquid); method: Laser Beam
Temperature, K	Mole fraction of 2,4-dinitrophenyl-L-alanine	uncertainty
273.15	8.5e-08	1.1e-08
283.15	1.121e-06	7.9e-08
293.15	9.262e-06	5.92e-07
303.15	5.1241e-05	3.1e-06
313.15	0.000189249	1.121e-05
323.15	0.000523158	3.061e-05
333.15	0.001067769	6.209e-05
343.15	0.001659861	9.623e-05
353.15	0.001927642	0.0001117
363.15	0.001982571	0.0001148
368.15	0.002005582	0.0001162

System: ethanol + 2,4-dinitrophenyl-L-alanine; phases: Liquid, Crystal
Fixed: Pressure, kPa = 101
Property: Mole fraction of 2,4-dinitrophenyl-L-alanine (Liquid); method: Laser Beam
Temperature, K	Mole fraction of 2,4-dinitrophenyl-L-alanine	uncertainty
273.15	3.4351e-05	1.078e-06
283.15	9.2032e-05	2.57e-06
293.15	0.000195271	5.338e-06
303.15	0.000350133	9.42e-06
313.15	0.000510082	1.363e-05
323.15	0.000671011	1.785e-05
333.15	0.000771862	2.049e-05
343.15	0.000790182	2.096e-05
348.15	0.000791294	2.099e-05

System: methanol + 2,4-dinitrophenyl-L-alanine; phases: Liquid, Crystal
Fixed: Pressure, kPa = 101
Property: Mole fraction of 2,4-dinitrophenyl-L-alanine (Liquid); method: Laser Beam
Temperature, K	Mole fraction of 2,4-dinitrophenyl-L-alanine	uncertainty
273.15	1.4971e-05	8.43e-07
278.15	4.1232e-05	1.97e-06
283.15	9.1031e-05	4.286e-06
288.15	0.000191789	8.888e-06
293.15	0.000364833	1.654e-05
298.15	0.000578021	2.606e-05
303.15	0.000909292	4.062e-05
308.15	0.001233281	5.476e-05
313.15	0.001549377	6.857e-05
318.15	0.001814242	8.011e-05
323.15	0.001954533	8.621e-05
328.15	0.001968432	8.681e-05
333.15	0.001974562	8.708e-05

System: acetone + 2,4-dinitrophenyl-L-alanine; phases: Liquid, Crystal
Fixed: Pressure, kPa = 101
Property: Mole fraction of 2,4-dinitrophenyl-L-alanine (Liquid); method: Laser Beam
Temperature, K	Mole fraction of 2,4-dinitrophenyl-L-alanine	uncertainty
273.15	1.582e-06	4.7e-08
278.15	1.645e-06	4.8e-08
283.15	1.723e-06	5.1e-08
288.15	1.911e-06	5.6e-08
293.15	2.148e-06	6.4e-08
298.15	2.564e-06	7.6e-08
303.15	3.063e-06	9.1e-08
308.15	3.989e-06	1.19e-07
313.15	5.257e-06	1.58e-07
318.15	7.138e-06	2.15e-07
323.15	1.0096e-05	3.06e-07
328.15	1.4524e-05	4.36e-07

System: ethyl acetate + 2,4-dinitrophenyl-L-alanine; phases: Liquid, Crystal
Fixed: Pressure, kPa = 101
Property: Mole fraction of 2,4-dinitrophenyl-L-alanine (Liquid); method: Laser Beam
Temperature, K	Mole fraction of 2,4-dinitrophenyl-L-alanine	uncertainty
303.15	9.1e-09	1.8e-09
313.15	1.88e-07	1.1e-08
323.15	1.878e-06	8.5e-08
333.15	1.1232e-05	4.24e-07
343.15	3.5782e-05	1.271e-06
348.15	5.4371e-05	1.92e-06

System: 1,2-dichloroethane + 2,4-dinitrophenyl-L-alanine; phases: Liquid, Crystal
Fixed: Pressure, kPa = 101
Property: Mole fraction of 2,4-dinitrophenyl-L-alanine (Liquid); method: Laser Beam
Temperature, K	Mole fraction of 2,4-dinitrophenyl-L-alanine	uncertainty
273.15	2.2e-09	1e-10
283.15	8.6e-09	2e-10
293.15	3.08e-08	6e-10
303.15	1.051e-07	2.1e-09
313.15	3.267e-07	6.3e-09
323.15	9.771e-07	1.79e-08
333.15	2.691e-06	4.1e-08

System: propan-2-ol + 2,4-dinitrophenyl-L-alanine; phases: Liquid, Gas
Fixed: Pressure, kPa = 101
Property: Mole fraction of 2,4-dinitrophenyl-L-alanine (Liquid); method: Laser Beam
Temperature, K	Mole fraction of 2,4-dinitrophenyl-L-alanine	uncertainty
273.15	1.511e-06	3.3e-08
278.15	2.962e-06	4.9e-08
283.15	5.454e-06	8.5e-08
288.15	9.491e-06	1.39e-07
293.15	1.5562e-05	2.14e-07
298.15	2.4222e-05	3.15e-07
303.15	3.5731e-05	4.43e-07
308.15	5.0341e-05	5.97e-07
313.15	6.7784e-05	7.73e-07
318.15	8.7509e-05	9.66e-07
323.15	0.00010859	1.165e-06
328.15	0.000129644	1.36e-06
333.15	0.000149812	1.545e-06
338.15	0.000167219	1.708e-06

System: propan-1-ol + 2,4-dinitrophenyl-L-alanine; phases: Liquid, Crystal
Fixed: Pressure, kPa = 101
Property: Mole fraction of 2,4-dinitrophenyl-L-alanine (Liquid); method: Laser Beam
Temperature, K	Mole fraction of 2,4-dinitrophenyl-L-alanine	uncertainty
273.15	2.581e-06	1.3e-07
283.15	3.544e-06	1.79e-07
293.15	5.642e-06	2.85e-07
303.15	1.0063e-05	5.11e-07
313.15	2.0372e-05	1.039e-06
323.15	4.5461e-05	2.33e-06
333.15	0.000113	5.811e-06
343.15	0.000294301	1.519e-05
353.15	0.00081234	4.216e-05
363.15	0.002413401	0.0001232
368.15	0.004235002	0.0002159

System: butan-2-ol + 2,4-dinitrophenyl-L-alanine; phases: Liquid, Crystal
Fixed: Pressure, kPa = 101
Property: Mole fraction of 2,4-dinitrophenyl-L-alanine (Liquid); method: Laser Beam
Temperature, K	Mole fraction of 2,4-dinitrophenyl-L-alanine	uncertainty
273.15	6.49e-07	3.3e-08
283.15	6.79e-07	3.5e-08
293.15	6.92e-07	3.6e-08
303.15	7.79e-07	4e-08
313.15	9.45e-07	4.9e-08
323.15	1.233e-06	6.3e-08
333.15	1.711e-06	8.8e-08
343.15	2.492e-06	1.29e-07
353.15	3.871e-06	2e-07
363.15	6.114e-06	3.15e-07

System: butan-1-ol + 2,4-dinitrophenyl-L-alanine; phases: Liquid, Crystal
Fixed: Pressure, kPa = 101
Property: Mole fraction of 2,4-dinitrophenyl-L-alanine (Liquid); method: Laser Beam
Temperature, K	Mole fraction of 2,4-dinitrophenyl-L-alanine	uncertainty
273.15	3.841e-06	1.27e-07
283.15	3.909e-06	1.29e-07
293.15	3.994e-06	1.32e-07
303.15	4.281e-06	1.41e-07
313.15	5.013e-06	1.66e-07
323.15	6.292e-06	2.08e-07
333.15	8.344e-06	2.77e-07
343.15	1.1513e-05	3.82e-07
353.15	1.6872e-05	5.61e-07
363.15	2.5954e-05	8.61e-07
