Measured thermophysical data. Effect of the Ionic Liquid Triethylmethylammonium Dimethylphosphate on the Vapor Pressure of Water, Methanol, Ethanol, and Their Binary Mixtures
Source: J. Chem. Eng. Data, 2011, 10.1021/je100948e
Compound 1: water, H2O, InChI=1S/H2O/h1H2
Compound 2: ethanol, C2H6O, InChI=1S/C2H6O/c1-2-3/h3H,2H2,1H3
Compound 3: methanol, CH4O, InChI=1S/CH4O/c1-2/h2H,1H3, purity 99.7%
Compound 4: N,N-diethyl-N-methylethanaminium dimethyl phosphate, C9H24NO4P, InChI=1S/C7H18N.C2H7O4P/c1-5-8(4,6-2)7-3;1-5-7(3,4)6-2/h5-7H2,1-4H3;1-2H3,(H,3,4)/q+1;/p-1

System: N,N-diethyl-N-methylethanaminium dimethyl phosphate + water; phases: Liquid, Gas
Property: Vapor or sublimation pressure, kPa (Liquid); method: Ebulliometric method (Recirculating still)
Temperature, K	Mole fraction of water	Vapor or sublimation pressure, kPa	uncertainty
309.47	0.9544	13.78	0.17
312.94	0.9244	15.59	0.17
316.01	0.8397	14.16	0.17
316.43	0.9792	20.56	0.18
317.48	0.9544	20.89	0.18
320.88	0.9244	23.31	0.19
322.06	0.9792	27.21	0.2
323.36	0.8397	20.63	0.18
324.83	0.9544	29.94	0.21
327.63	0.9244	32.2	0.21
328.61	0.9792	37.1	0.23
331	0.9544	39.92	0.24
332.05	0.8397	30.9	0.21
333.69	0.9792	46.74	0.26
333.73	0.9244	42.54	0.25
338.61	0.8397	41.64	0.25
338.7	0.9792	58.24	0.3
338.98	0.9544	56.8	0.29
340.02	0.9244	56.01	0.29
343.54	0.9792	71.56	0.34
344.28	0.9544	71.12	0.34
345.4	0.9244	70.23	0.34
345.54	0.8397	56.04	0.29
348.5	0.9792	87.66	0.4
349.29	0.9544	87.18	0.4
350.44	0.9244	86.14	0.4
351.23	0.8397	71	0.34
352.31	0.9792	101.96	0.46
353.17	0.9544	101.31	0.46
354.57	0.9244	101.23	0.46
356.32	0.8397	85.9	0.4
360.7	0.8397	101.22	0.46

System: methanol + N,N-diethyl-N-methylethanaminium dimethyl phosphate; phases: Liquid, Gas
Property: Vapor or sublimation pressure, kPa (Liquid); method: Ebulliometric method (Recirculating still)
Temperature, K	Mole fraction of methanol	Vapor or sublimation pressure, kPa	uncertainty
309.47	0.9544	13.78	0.17
312.94	0.9244	15.59	0.17
316.01	0.8397	14.16	0.17
316.43	0.9792	20.56	0.18
317.48	0.9544	20.89	0.18
320.88	0.9244	23.31	0.19
322.06	0.9792	27.21	0.2
323.36	0.8397	20.63	0.18
324.83	0.9544	29.94	0.21
327.63	0.9244	32.2	0.22
328.61	0.9792	37.1	0.23
331	0.9544	39.92	0.24
332.05	0.8397	30.9	0.21
333.69	0.9792	46.74	0.26
333.73	0.9244	42.54	0.25
338.61	0.8397	41.64	0.25
338.7	0.9792	58.24	0.3
338.98	0.9544	56.8	0.29
340.02	0.9244	56.01	0.29
343.54	0.9792	71.56	0.35
344.28	0.9544	71.12	0.35
345.4	0.9244	70.23	0.34
345.54	0.8397	56.04	0.3
348.5	0.9792	87.66	0.41
349.29	0.9544	87.18	0.41
350.44	0.9244	86.14	0.41
351.23	0.8397	71	0.35
352.31	0.9792	101.96	0.47
353.17	0.9544	101.31	0.46
354.57	0.9244	101.23	0.46
356.32	0.8397	85.9	0.41
360.7	0.8397	101.22	0.47

System: ethanol + N,N-diethyl-N-methylethanaminium dimethyl phosphate; phases: Liquid, Gas
Property: Vapor or sublimation pressure, kPa (Liquid); method: Ebulliometric method (Recirculating still)
Temperature, K	Mole fraction of ethanol	Vapor or sublimation pressure, kPa	uncertainty
297.98	0.9462	15.02	0.17
299.2	0.9855	17.43	0.18
300.08	0.9679	17.51	0.18
304.55	0.9462	20.98	0.18
304.65	0.9855	22.98	0.19
305.48	0.8828	17.73	0.18
305.71	0.9679	23.2	0.19
311.42	0.9855	31.88	0.22
311.51	0.9462	29.34	0.21
312.22	0.9679	31.73	0.21
312.48	0.8828	24.88	0.19
317.64	0.9462	38.96	0.24
317.81	0.9679	41.03	0.24
318.87	0.9855	44.85	0.26
319.42	0.8828	34.25	0.22
323.02	0.9679	51.67	0.28
324.12	0.9462	51.79	0.28
324.75	0.9855	58.04	0.3
324.8	0.8828	43.44	0.25
329.23	0.9679	67.34	0.33
329.53	0.9855	71.04	0.35
330.17	0.8828	54.58	0.29
330.66	0.9462	68.4	0.34
334.72	0.9855	87.84	0.41
335.28	0.9679	86.17	0.4
335.72	0.8828	68.56	0.34
336.17	0.9462	85.49	0.4
338.25	0.9855	100.81	0.46
339.27	0.9679	100.93	0.46
340.33	0.9462	100.75	0.46
341.24	0.8828	85.29	0.4
345.52	0.8828	100.41	0.47

System: methanol + N,N-diethyl-N-methylethanaminium dimethyl phosphate + water; phases: Liquid, Gas
Property: Vapor or sublimation pressure, kPa (Liquid); method: Ebulliometric method (Recirculating still)
Temperature, K	Mole fraction of water	Mole fraction of methanol	Vapor or sublimation pressure, kPa	uncertainty
303.35	0.4135	0.5424	14.41	0.17
305.86	0.6149	0.3457	13.52	0.17
307.46	0.1567	0.7931	21.37	0.19
311.55	0.4135	0.5424	21.78	0.18
313.66	0.7772	0.1873	15.25	0.17
314.05	0.6149	0.3457	20.49	0.18
314.25	0.1567	0.7931	29.59	0.21
317.92	0.9107	0.0569	12.38	0.16
318.52	0.4135	0.5424	30.26	0.21
320.59	0.1567	0.7931	39.47	0.24
320.87	0.7772	0.1873	21.82	0.19
321.93	0.6149	0.3457	29.41	0.2
324.52	0.9107	0.0569	17.08	0.17
324.68	0.4135	0.5424	40	0.24
325.34	0.1567	0.7931	48.6	0.27
327.76	0.6149	0.3457	38.18	0.23
328.59	0.7772	0.1873	31.01	0.21
329.74	0.4135	0.5424	49.93	0.27
329.84	0.1567	0.7931	58.9	0.3
332.03	0.9107	0.0569	24.3	0.19
333.55	0.6149	0.3457	49.3	0.27
334.27	0.1567	0.7931	70.76	0.34
336.05	0.4135	0.5424	64.92	0.32
336.07	0.7772	0.1873	43.01	0.25
338.39	0.1567	0.7931	83.41	0.39
338.62	0.9107	0.0569	32.57	0.21
339.24	0.6149	0.3457	62.37	0.31
341.29	0.4135	0.5424	80	0.37
341.71	0.7772	0.1873	54.27	0.28
342.84	0.1567	0.7931	99.05	0.45
345.09	0.9107	0.0569	43.01	0.25
345.65	0.6149	0.3457	80.65	0.37
346.95	0.4135	0.5424	99.54	0.45
347.48	0.7772	0.1873	68.32	0.33
351.07	0.6149	0.3457	98.86	0.45
352.19	0.9107	0.0569	57.15	0.29
352.21	0.7772	0.1873	82.05	0.38
357.25	0.7772	0.1873	99.01	0.45
359.89	0.9107	0.0569	76.7	0.36
366.88	0.9107	0.0569	99.02	0.44

System: ethanol + N,N-diethyl-N-methylethanaminium dimethyl phosphate + water; phases: Liquid, Gas
Property: Vapor or sublimation pressure, kPa (Liquid); method: Ebulliometric method (Recirculating still)
Temperature, K	Mole fraction of water	Mole fraction of ethanol	Vapor or sublimation pressure, kPa	uncertainty
313.45	0.4953	0.4519	15.86	0.17
314.01	0.8242	0.1381	13.58	0.17
315.91	0.6873	0.2687	16.84	0.17
318.21	0.2066	0.7272	20.47	0.18
318.7	0.4953	0.4519	20.72	0.18
321.18	0.8242	0.1381	19.51	0.18
322.52	0.6873	0.2687	23.33	0.19
323.22	0.2066	0.7272	26.22	0.2
323.96	0.9268	0.0403	15.95	0.17
325.95	0.4953	0.4519	29.28	0.21
328.19	0.8242	0.1381	27.27	0.2
329	0.2066	0.7272	34.47	0.22
329.67	0.6873	0.2687	32.73	0.21
331.37	0.9268	0.0403	22.76	0.19
333.55	0.4953	0.4519	41.57	0.24
333.57	0.2066	0.7272	42.44	0.25
335.13	0.6873	0.2687	41.81	0.24
335.72	0.8242	0.1381	38.28	0.23
337.81	0.9268	0.0403	30.58	0.21
338.85	0.2066	0.7272	53.51	0.28
339.3	0.4953	0.4519	53.4	0.28
340.43	0.6873	0.2687	52.69	0.28
340.64	0.8242	0.1381	47.45	0.26
343.89	0.9268	0.0403	39.87	0.24
344.36	0.2066	0.7272	67.61	0.33
344.88	0.4953	0.4519	67.51	0.33
346.35	0.6873	0.2687	67.44	0.33
347.13	0.8242	0.1381	62.15	0.31
349.45	0.2066	0.7272	83.14	0.39
350.04	0.9268	0.0403	51.51	0.27
350.08	0.4953	0.4519	83.26	0.39
352.37	0.6873	0.2687	85.7	0.39
353.87	0.8242	0.1381	81.14	0.38
354.16	0.2066	0.7272	100.6	0.46
354.76	0.4953	0.4519	100.56	0.46
356.13	0.9268	0.0403	65.53	0.32
356.36	0.6873	0.2687	99.85	0.45
359.22	0.8242	0.1381	99.28	0.45
362.18	0.9268	0.0403	82.56	0.38
367.16	0.9268	0.0403	98.95	0.45

System: ethanol + methanol + N,N-diethyl-N-methylethanaminium dimethyl phosphate; phases: Liquid, Gas
Property: Vapor or sublimation pressure, kPa (Liquid); method: Ebulliometric method (Recirculating still)
Temperature, K	Mole fraction of methanol	Mole fraction of ethanol	Vapor or sublimation pressure, kPa	uncertainty
300.11	0.7254	0.2158	14.01	0.17
301.01	0.8766	0.068	16.44	0.17
302.98	0.5549	0.3825	14.36	0.17
306.4	0.3555	0.577	14.96	0.17
306.58	0.7254	0.2158	19.54	0.18
308.1	0.8766	0.068	23.41	0.19
309.09	0.1281	0.7993	14.2	0.17
310.22	0.5549	0.3825	20.66	0.18
312.74	0.3555	0.577	20.43	0.18
313.03	0.7254	0.2158	26.61	0.2
315.05	0.8766	0.068	32.37	0.22
316.17	0.1281	0.7993	20.39	0.18
318.12	0.5549	0.3825	30.17	0.21
319.59	0.7254	0.2158	36.1	0.23
320.42	0.3555	0.577	29.55	0.21
321.17	0.8766	0.068	42.75	0.25
321.82	0.1281	0.7993	26.56	0.2
325.19	0.5549	0.3825	41.62	0.24
325.73	0.7254	0.2158	47.42	0.26
326.55	0.8766	0.068	53.92	0.28
326.92	0.3555	0.577	39.43	0.24
328.48	0.1281	0.7993	36.23	0.23
331	0.8766	0.068	64.96	0.32
331.14	0.5549	0.3825	53.83	0.28
331.54	0.7254	0.2158	60.73	0.31
333.2	0.3555	0.577	51.86	0.28
334	0.1281	0.7993	46.38	0.26
336.21	0.5549	0.3825	66.53	0.33
336.51	0.8766	0.068	81.17	0.38
337.83	0.7254	0.2158	78.43	0.37
338.95	0.3555	0.577	66.01	0.33
341.07	0.1281	0.7993	62.72	0.32
341.62	0.8766	0.068	99.08	0.45
341.83	0.5549	0.3825	83.4	0.39
343.72	0.7254	0.2158	98.74	0.45
344.43	0.3555	0.577	82.26	0.39
346.31	0.5549	0.3825	99.27	0.45
347.32	0.1281	0.7993	80.84	0.38
349.27	0.3555	0.577	99.2	0.45
352.54	0.1281	0.7993	99.14	0.45
