Measured thermophysical data. Liquid-Liquid Phase Behavior of Solutions of 1-Dodecyl-3-methylimidazolium  Bis(trifluoromethylsulphonyl)imide (C12mimNTf2) in n- Alkyl Alcohols
Source: J. Chem. Eng. Data, 2010, 10.1021/je100359x
Compound 1: decan-1-ol, C10H22O, InChI=1S/C10H22O/c1-2-3-4-5-6-7-8-9-10-11/h11H,2-10H2,1H3
Compound 2: 1-undecanol, C11H24O, InChI=1S/C11H24O/c1-2-3-4-5-6-7-8-9-10-11-12/h12H,2-11H2,1H3
Compound 3: dodecan-1-ol, C12H26O, InChI=1S/C12H26O/c1-2-3-4-5-6-7-8-9-10-11-12-13/h13H,2-12H2,1H3
Compound 4: 1-tetradecanol, C14H30O, InChI=1S/C14H30O/c1-2-3-4-5-6-7-8-9-10-11-12-13-14-15/h15H,2-14H2,1H3
Compound 5: 1-hexadecanol, C16H34O, InChI=1S/C16H34O/c1-2-3-4-5-6-7-8-9-10-11-12-13-14-15-16-17/h17H,2-16H2,1H3
Compound 6: 1-octadecanol, C18H38O, InChI=1S/C18H38O/c1-2-3-4-5-6-7-8-9-10-11-12-13-14-15-16-17-18-19/h19H,2-18H2,1H3
Compound 7: 1-eicosanol, C20H42O, InChI=1S/C20H42O/c1-2-3-4-5-6-7-8-9-10-11-12-13-14-15-16-17-18-19-20-21/h21H,2-20H2,1H3
Compound 8: 1-dodecyl-3-methyl-1H-imidazolium bis(trifluoromethylsulfonyl)amide, C18H31F6N3O4S2, InChI=1S/C16H31N2.C2F6NO4S2/c1-3-4-5-6-7-8-9-10-11-12-13-18-15-14-17(2)16-18;3-1(4,5)14(10,11)9-15(12,13)2(6,7)8/h14-16H,3-13H2,1-2H3;/q+1;-1

System: decan-1-ol + 1-dodecyl-3-methyl-1H-imidazolium bis(trifluoromethylsulfonyl)amide; phases: Liquid mixture 1, Liquid mixture 2
Fixed: Pressure, kPa = 101
Property: Liquid-liquid equilibrium temperature, K (Liquid mixture 1); method: VISOBS:UFactor:4
Mole fraction of 1-dodecyl-3-methyl-1H-imidazolium bis(trifluoromethylsulfonyl)amide	Liquid-liquid equilibrium temperature, K	uncertainty
0.063	282.65	0.8
0.083	287.66	0.65
0.116	287.96	0.62
0.158	287.05	0.62
0.196	287.05	0.62
0.211	287.01	0.62
0.295	280.85	0.99

System: 1-undecanol + 1-dodecyl-3-methyl-1H-imidazolium bis(trifluoromethylsulfonyl)amide; phases: Liquid mixture 1, Liquid mixture 2
Fixed: Pressure, kPa = 101
Property: Liquid-liquid equilibrium temperature, K (Liquid mixture 1); method: VISOBS:UFactor:4
Mole fraction of 1-dodecyl-3-methyl-1H-imidazolium bis(trifluoromethylsulfonyl)amide	Liquid-liquid equilibrium temperature, K	uncertainty
0.021	283.85	1.9
0.026	288.35	1.9
0.046	290.12	0.65
0.056	291.18	0.63
0.088	292.25	0.62
0.12	293	0.62
0.122	292.9	0.62
0.154	293.2	0.62
0.179	293.28	0.62
0.181	293.2	0.62
0.226	292.6	0.62
0.252	292.94	0.62
0.289	291.2	0.63
0.333	288.85	0.63
0.371	286.35	0.63

System: dodecan-1-ol + 1-dodecyl-3-methyl-1H-imidazolium bis(trifluoromethylsulfonyl)amide; phases: Liquid mixture 1, Liquid mixture 2
Fixed: Pressure, kPa = 101
Property: Liquid-liquid equilibrium temperature, K (Liquid mixture 1); method: VISOBS:UFactor:4
Mole fraction of 1-dodecyl-3-methyl-1H-imidazolium bis(trifluoromethylsulfonyl)amide	Liquid-liquid equilibrium temperature, K	uncertainty
0.018	296.36	1.07
0.024	298.97	1.07
0.053	304.35	0.68
0.074	305.57	0.62
0.092	305.79	0.63
0.095	305.59	0.63
0.117	305.83	0.62
0.12	305.94	0.62
0.124	305.81	0.62
0.127	305.8	0.62
0.14	305.81	0.62
0.149	305.84	0.62
0.158	305.87	0.62
0.173	305.67	0.62
0.199	305.54	0.62
0.199	305.54	0.62
0.211	305.12	0.62
0.233	304.66	0.62
0.261	303.67	0.63
0.288	302.1	0.63
0.302	301.85	0.63
0.335	299.81	0.63
0.356	298.26	0.64

System: 1-tetradecanol + 1-dodecyl-3-methyl-1H-imidazolium bis(trifluoromethylsulfonyl)amide; phases: Liquid mixture 1, Liquid mixture 2
Fixed: Pressure, kPa = 101
Property: Liquid-liquid equilibrium temperature, K (Liquid mixture 1); method: VISOBS:UFactor:4
Mole fraction of 1-dodecyl-3-methyl-1H-imidazolium bis(trifluoromethylsulfonyl)amide	Liquid-liquid equilibrium temperature, K	uncertainty
0.023	311.54	1.35
0.032	316.35	1.47
0.037	317.85	0.88
0.062	319.03	0.63
0.087	320.45	0.63
0.101	320.74	0.62
0.143	320.81	0.62
0.147	320.83	0.62
0.192	320.6	0.62
0.24	319.9	0.62
0.288	318.44	0.62
0.33	316.44	0.63
0.355	314.65	0.63
0.387	313.55	0.62

System: 1-hexadecanol + 1-dodecyl-3-methyl-1H-imidazolium bis(trifluoromethylsulfonyl)amide; phases: Liquid mixture 1, Liquid mixture 2
Fixed: Pressure, kPa = 101
Property: Liquid-liquid equilibrium temperature, K (Liquid mixture 1); method: VISOBS:UFactor:4
Mole fraction of 1-dodecyl-3-methyl-1H-imidazolium bis(trifluoromethylsulfonyl)amide	Liquid-liquid equilibrium temperature, K	uncertainty
0.02	322.75	1.55
0.027	327.74	1.55
0.056	330.75	0.64
0.082	332.25	0.62
0.124	333.14	0.62
0.169	333	0.62
0.221	332.55	0.62
0.231	332.33	0.62
0.298	330.45	0.62
0.334	330.12	0.63
0.392	325.98	0.64

System: 1-octadecanol + 1-dodecyl-3-methyl-1H-imidazolium bis(trifluoromethylsulfonyl)amide; phases: Liquid mixture 1, Liquid mixture 2
Fixed: Pressure, kPa = 101
Property: Liquid-liquid equilibrium temperature, K (Liquid mixture 1); method: VISOBS:UFactor:4
Mole fraction of 1-dodecyl-3-methyl-1H-imidazolium bis(trifluoromethylsulfonyl)amide	Liquid-liquid equilibrium temperature, K	uncertainty
0.029	334.65	1.23
0.055	340.25	1.17
0.1	342.35	1.15
0.152	342.75	0.82
0.199	342.65	0.69
0.257	341.85	0.83
0.278	341.15	0.83
0.347	338.85	0.83
0.382	336.85	0.83
0.452	332.15	0.99

System: 1-eicosanol + 1-dodecyl-3-methyl-1H-imidazolium bis(trifluoromethylsulfonyl)amide; phases: Liquid mixture 1, Liquid mixture 2
Fixed: Pressure, kPa = 101
Property: Liquid-liquid equilibrium temperature, K (Liquid mixture 1); method: VISOBS:UFactor:4
Mole fraction of 1-dodecyl-3-methyl-1H-imidazolium bis(trifluoromethylsulfonyl)amide	Liquid-liquid equilibrium temperature, K	uncertainty
0.033	343.85	1.94
0.054	348.65	0.85
0.096	350.85	0.83
0.151	351.65	0.69
0.187	351.55	0.69
0.255	350.95	0.69
0.292	350.35	0.7
0.339	348.45	0.63
0.415	344.45	1.15
0.457	341.75	1.33
