Measured thermophysical data. Phase Equilibria of (Pyrrole + Benzene, Cyclohexane, and Hexane) and Density of (Pyrrole + Benzene and Cyclohexane) Binary Systems
Source: J. Chem. Eng. Data, 2010, 10.1021/je100526j
Compound 1: pyrrole, C4H5N, InChI=1S/C4H5N/c1-2-4-5-3-1/h1-5H
Compound 2: benzene, C6H6, InChI=1S/C6H6/c1-2-4-6-5-3-1/h1-6H, purity 99.5%
Compound 3: cyclohexane, C6H12, InChI=1S/C6H12/c1-2-4-6-5-3-1/h1-6H2, purity 99.5%
Compound 4: hexane, C6H14, InChI=1S/C6H14/c1-3-5-6-4-2/h3-6H2,1-2H3, purity 99%

System: pyrrole; phases: Crystal, Liquid, Air at 1 atmosphere
Property: Normal melting temperature, K (Crystal); method: VISOBS
Normal melting temperature, K	uncertainty
249.6	0.3

System: pyrrole; phases: Crystal, Liquid, Air at 1 atmosphere
Property: Normal melting temperature, K (Crystal); method: VISOBS
Normal melting temperature, K	uncertainty
249.7	0.3

System: pyrrole; phases: Liquid
Property: Mass density, kg/m3 (Liquid); method: Vibrating tube method
Temperature, K	Pressure, kPa	Mass density, kg/m3	uncertainty
298.15	100	965.54	0.29
298.15	101	965.54	0.39
298.15	500	965.71	0.29
298.15	1000	966	0.29
298.15	1500	966.3	0.29
298.15	2000	966.59	0.3
298.15	2500	966.9	0.3
298.15	3000	967.19	0.3
298.15	4000	967.77	0.3
298.15	5000	968.35	0.3
308.15	101	956.83	0.4
318.15	101	948.03	0.4
328.15	101	939.14	0.41
338.15	101	930.13	0.42

System: benzene; phases: Crystal, Liquid, Air at 1 atmosphere
Property: Normal melting temperature, K (Crystal); method: VISOBS
Normal melting temperature, K	uncertainty
278.6	0.3

System: benzene; phases: Liquid
Fixed: Pressure, kPa = 101
Property: Mass density, kg/m3 (Liquid); method: VIBTUB::UFactor:4
Temperature, K	Mass density, kg/m3	uncertainty
298.15	873.63	0.39
308.15	862.91	0.4
318.15	852.12	0.41
328.15	841.24	0.43
338.15	830.26	0.44

System: cyclohexane; phases: Crystal, Liquid, Air at 1 atmosphere
Property: Normal melting temperature, K (Crystal); method: VISOBS
Normal melting temperature, K	uncertainty
280	1.5

System: cyclohexane; phases: Liquid
Fixed: Pressure, kPa = 101
Property: Mass density, kg/m3 (Liquid); method: VIBTUB::UFactor:4
Temperature, K	Mass density, kg/m3	uncertainty
298.15	773.87	0.51
308.15	764.38	0.52
318.15	754.77	0.54
328.15	745.04	0.55
338.15	735.18	0.57

System: benzene + pyrrole; phases: Liquid, Crystal
Fixed: Pressure, kPa = 101
Property: Solid-liquid equilibrium temperature, K (Liquid); method: VISOBS
Mole fraction of pyrrole	Solid-liquid equilibrium temperature, K	uncertainty
0.7899	238.1	0.3
0.8166	238.6	0.3
0.8247	240.1	0.3
0.8474	241.5	0.3
0.8881	243.5	0.3
0.9431	246.1	0.3
0.9635	247.2	0.3
1	249.6	0.3

System: benzene + pyrrole; phases: Liquid, Crystal
Fixed: Pressure, kPa = 101
Property: Solid-liquid equilibrium temperature, K (Liquid); method: VISOBS
Mole fraction of pyrrole	Solid-liquid equilibrium temperature, K	uncertainty
0	278.6	0.3
0.1704	272	0.3
0.2286	269.8	0.3
0.2673	268.3	0.3
0.3212	266.3	0.3
0.3806	263.9	0.3
0.432	261.4	0.3
0.4461	260.9	0.3
0.5386	256.2	0.3
0.6047	251.8	0.3
0.6196	251	0.3
0.6714	247.3	0.3
0.6886	245.5	0.3
0.7086	243.9	0.3
0.7343	241.3	0.3
0.758	238.2	0.3

System: benzene + pyrrole; phases: Liquid
Fixed: Pressure, kPa = 101
Property: Mass density, kg/m3 (Liquid); method: VIBTUB:UFactor:4
Temperature, K	Mole fraction of pyrrole	Mass density, kg/m3	uncertainty
298.15	0	873.63	0.39
298.15	0.0447	878.11	0.4
298.15	0.1287	886.6	0.39
298.15	0.2144	894.89	0.39
298.15	0.3142	904.35	0.39
298.15	0.3916	911.83	0.38
298.15	0.503	922.04	0.38
298.15	0.5973	930.57	0.38
298.15	0.6693	936.98	0.38
298.15	0.7371	942.99	0.39
298.15	0.8207	950.33	0.39
298.15	0.8732	954.72	0.39
298.15	0.9214	958.96	0.39
298.15	0.979	963.65	0.4
298.15	1	965.54	0.39
308.15	0	862.91	0.4
308.15	0.0447	867.49	0.41
308.15	0.1287	876.17	0.4
308.15	0.2144	884.68	0.4
308.15	0.3142	894.36	0.4
308.15	0.3916	902.01	0.39
308.15	0.503	912.44	0.39
308.15	0.5973	921.15	0.39
308.15	0.6693	927.73	0.39
308.15	0.7371	933.85	0.4
308.15	0.8207	941.34	0.4
308.15	0.8732	945.81	0.4
308.15	0.9214	950.13	0.4
308.15	0.979	954.92	0.4
308.15	1	956.83	0.4
318.15	0	852.12	0.41
318.15	0.0447	856.79	0.42
318.15	0.1287	865.66	0.42
318.15	0.2144	874.36	0.41
318.15	0.3142	884.28	0.41
318.15	0.3916	892.11	0.41
318.15	0.503	902.77	0.4
318.15	0.5973	911.66	0.4
318.15	0.6693	918.38	0.4
318.15	0.7371	924.62	0.4
318.15	0.8207	932.26	0.41
318.15	0.8732	936.8	0.41
318.15	0.9214	941.21	0.41
318.15	0.979	946.08	0.41
318.15	1	948.03	0.4
328.15	0	841.24	0.43
328.15	0.0447	846	0.44
328.15	0.1287	855.06	0.43
328.15	0.2144	863.95	0.42
328.15	0.3142	874.1	0.42
328.15	0.3916	882.08	0.42
328.15	0.503	892.98	0.41
328.15	0.5973	902.07	0.41
328.15	0.6693	908.92	0.41
328.15	0.7371	915.29	0.41
328.15	0.8207	923.07	0.42
328.15	0.8732	927.7	0.42
328.15	0.9214	932.19	0.42
328.15	0.979	937.17	0.42
328.15	1	939.14	0.41
338.15	0	830.26	0.44
338.15	0.0447	835.1	0.45
338.15	0.1287	844.34	0.44
338.15	0.2144	853.41	0.44
338.15	0.3142	863.91	0.43
338.15	0.3916	871.95	0.43
338.15	0.503	883.08	0.43
338.15	0.5973	892.35	0.42
338.15	0.6693	899.34	0.42
338.15	0.7371	905.82	0.42
338.15	0.8207	913.74	0.43
338.15	0.8732	918.46	0.43
338.15	0.9214	923.04	0.43
338.15	0.979	928.12	0.43
338.15	1	930.13	0.42

System: pyrrole + cyclohexane; phases: Crystal, Liquid mixture 2, Liquid mixture 1, Air at 1 atmosphere
Property: Quadruple (quintuple) point temperature, K (Crystal); method: OTHER::sMethod:Visual Observation
Quadruple (quintuple) point temperature, K	uncertainty
270	0.5

System: pyrrole + cyclohexane; phases: Liquid, Crystal
Fixed: Pressure, kPa = 101
Property: Solid-liquid equilibrium temperature, K (Liquid); method: VISOBS
Mole fraction of pyrrole	Solid-liquid equilibrium temperature, K	uncertainty
0.9304	246.7	0.3
0.949	247.8	0.3
0.9647	248.2	0.3
0.966	247.9	0.3
0.9903	249.3	0.3
1	249.7	0.3

System: pyrrole + cyclohexane; phases: Liquid, Crystal
Fixed: Pressure, kPa = 101
Property: Solid-liquid equilibrium temperature, K (Liquid); method: VISOBS
Mole fraction of pyrrole	Solid-liquid equilibrium temperature, K	uncertainty
0	280	1.5
0.0202	276.6	1.5
0.034	274.6	1.5
0.042	271.3	1.5
0.8304	269.4	1.5
0.8338	269.2	1.5
0.8505	268.2	1.5
0.8573	265.9	1.5
0.869	265.2	1.5
0.8807	261	1.5
0.8911	258.9	1.5
0.9056	256	1.5
0.9084	251.5	1.5
0.9272	247	1.5

System: pyrrole + cyclohexane; phases: Liquid mixture 1, Liquid mixture 2
Fixed: Pressure, kPa = 101
Property: Liquid-liquid equilibrium temperature, K (Liquid mixture 1); method: VISOBS
Mole fraction of pyrrole	Liquid-liquid equilibrium temperature, K	uncertainty
0.0606	279.5	0.3
0.0784	282.1	0.3
0.1125	284.2	0.3
0.1384	284.8	0.3
0.1622	285.1	0.3
0.1818	285.4	0.3
0.2007	285.9	0.3
0.2247	286.3	0.3
0.2551	286.4	0.3
0.2916	286.7	0.3
0.3237	286.9	0.3
0.3392	286.9	0.3
0.3654	287	0.3
0.3923	287.1	0.3
0.4235	287	0.3
0.4514	286.9	0.3
0.4835	286.8	0.3
0.5153	286.5	0.3
0.5457	286.4	0.3
0.5828	286.1	0.3
0.6165	285.2	0.3
0.6696	284.1	0.3
0.7163	281.7	0.3
0.7234	280.6	0.3
0.7428	279.1	0.3
0.7633	277.4	0.3
0.7742	275.7	0.3
0.7944	273.8	0.3

System: pyrrole + cyclohexane; phases: Liquid
Fixed: Pressure, kPa = 101
Property: Mass density, kg/m3 (Liquid); method: VIBTUB:UFactor:4
Temperature, K	Mole fraction of pyrrole	Mass density, kg/m3	uncertainty
298.15	0	773.87	0.51
298.15	0.0749	786.03	0.52
298.15	0.1409	797.78	0.51
298.15	0.1864	805.48	0.51
298.15	0.2637	819.91	0.5
298.15	0.3549	837.14	0.49
298.15	0.4446	854.23	0.48
298.15	0.5058	866.13	0.47
298.15	0.6032	884.76	0.46
298.15	0.6712	898.56	0.46
298.15	0.7183	908.28	0.46
298.15	0.761	916.78	0.45
298.15	0.8376	932.14	0.45
298.15	0.8824	941.41	0.45
298.15	0.9424	953.79	0.44
298.15	1	965.54	0.39
308.15	0	764.38	0.52
308.15	0.0749	776.43	0.54
308.15	0.1409	788.17	0.53
308.15	0.1864	795.87	0.52
308.15	0.2637	810.32	0.51
308.15	0.3549	827.63	0.5
308.15	0.4446	844.82	0.49
308.15	0.5058	856.8	0.48
308.15	0.6032	875.58	0.47
308.15	0.6712	889.48	0.47
308.15	0.7183	899.28	0.47
308.15	0.761	907.83	0.46
308.15	0.8376	923.29	0.46
308.15	0.8824	932.59	0.45
308.15	0.9424	945.05	0.45
308.15	1	956.83	0.4
318.15	0	754.77	0.54
318.15	0.0749	766.72	0.55
318.15	0.1409	778.44	0.54
318.15	0.1864	786.14	0.54
318.15	0.2637	800.64	0.52
318.15	0.3549	818.03	0.51
318.15	0.4446	835.34	0.5
318.15	0.5058	847.4	0.49
318.15	0.6032	866.33	0.48
318.15	0.6712	880.32	0.48
318.15	0.7183	890.2	0.47
318.15	0.761	898.79	0.47
318.15	0.8376	914.35	0.46
318.15	0.8824	923.7	0.46
318.15	0.9424	936.21	0.46
318.15	1	948.03	0.4
328.15	0	745.04	0.55
328.15	0.0749	756.88	0.56
328.15	0.1409	768.58	0.55
328.15	0.1864	776.3	0.55
328.15	0.2637	790.86	0.54
328.15	0.3549	808.35	0.52
328.15	0.4446	825.81	0.51
328.15	0.5058	837.91	0.5
328.15	0.6032	856.97	0.49
328.15	0.6712	870.17	0.49
328.15	0.7183	881.03	0.49
328.15	0.761	889.65	0.48
328.15	0.8376	905.29	0.47
328.15	0.8824	914.69	0.47
328.15	0.9424	927.25	0.47
328.15	1	939.14	0.41
338.15	0	735.18	0.57
338.15	0.0749	746.91	0.58
338.15	0.1409	758.6	0.57
338.15	0.1864	766.32	0.56
338.15	0.2637	780.96	0.55
338.15	0.3549	798.62	0.54
338.15	0.4446	816.3	0.52
338.15	0.5058	828.38	0.51
338.15	0.6032	847.56	0.5
338.15	0.6712	861.68	0.5
338.15	0.7183	871.79	0.49
338.15	0.761	880.41	0.49
338.15	0.8376	896.1	0.48
338.15	0.8824	905.55	0.48
338.15	0.9424	918.18	0.47
338.15	1	930.13	0.42

System: pyrrole + hexane; phases: Liquid mixture 1, Liquid mixture 2
Fixed: Pressure, kPa = 101
Property: Liquid-liquid equilibrium temperature, K (Liquid mixture 1); method: VISOBS
Mole fraction of pyrrole	Liquid-liquid equilibrium temperature, K	uncertainty
0.0351	252.7	0.3
0.0627	269	0.3
0.0869	282.8	0.3
0.107	286.9	0.3
0.1373	294.2	0.3
0.1702	299.4	0.3
0.2122	304.4	0.3
0.2549	308.2	0.3
0.2972	310.8	0.3
0.3363	312.3	0.3
0.3657	313.1	0.3
0.3935	313.6	0.3
0.4234	313.9	0.3
0.4234	313.9	0.3
0.4261	313.9	0.3
0.4678	314.2	0.3
0.5008	314.2	0.3
0.539	314.2	0.3
0.5857	314.2	0.3
0.6408	314	0.3
0.695	311.6	0.3
0.7393	308.5	0.3
0.7682	306.6	0.3
0.7948	303	0.3
0.824	298	0.3
0.8605	289.1	0.3
0.8925	279.4	0.3
0.907	274.1	0.3
