Measured thermophysical data. Solubility and Solution Thermodynamics of Betaine in Different Pure Solvents and Binary Mixtures
Source: J. Chem. Eng. Data, 2012, 10.1021/je2011659
Compound 1: (trimethylammonio)acetate, C5H11NO2, InChI=1S/C5H11NO2/c1-6(2,3)4-5(7)8/h4H2,1-3H3, purity 95%
Compound 2: water, H2O, InChI=1S/H2O/h1H2, purity 99.9%
Compound 3: ethanol, C2H6O, InChI=1S/C2H6O/c1-2-3/h3H,2H2,1H3, purity 99.5%
Compound 4: methanol, CH4O, InChI=1S/CH4O/c1-2/h2H,1H3, purity 99.5%
Compound 5: propan-2-ol, C3H8O, InChI=1S/C3H8O/c1-3(2)4/h3-4H,1-2H3, purity 99.5%
Compound 6: propan-1-ol, C3H8O, InChI=1S/C3H8O/c1-2-3-4/h4H,2-3H2,1H3, purity 99.5%
Compound 7: butan-1-ol, C4H10O, InChI=1S/C4H10O/c1-2-3-4-5/h5H,2-4H2,1H3, purity 99.5%

System: (trimethylammonio)acetate + water; phases: Liquid, Crystal
Fixed: Pressure, kPa = 101.3
Property: Mole fraction of (trimethylammonio)acetate (Liquid); method: Index of refraction calibration data
Temperature, K	Mole fraction of (trimethylammonio)acetate	uncertainty
283.15	0.1845	0.008
288.25	0.1894	0.0082
293.2	0.1943	0.0085
298.35	0.1999	0.0087
303.25	0.2056	0.009
308.1	0.2112	0.0092
313.05	0.2175	0.0095
318.55	0.2248	0.0098
322.95	0.2323	0.0102
328.75	0.2398	0.0105

System: ethanol + (trimethylammonio)acetate; phases: Liquid, Crystal
Fixed: Pressure, kPa = 101.3
Property: Mole fraction of (trimethylammonio)acetate (Liquid); method: Index of refraction calibration data
Temperature, K	Mole fraction of (trimethylammonio)acetate	uncertainty
282.95	0.02638	0.00107
288.15	0.02984	0.00121
293.65	0.03361	0.00136
298.45	0.03722	0.00151
303.05	0.04101	0.00166
307.85	0.04533	0.00183
312.75	0.04983	0.00202
317.85	0.0545	0.0022
323.55	0.05958	0.00241
328.05	0.0647	0.00262

System: methanol + (trimethylammonio)acetate; phases: Liquid, Crystal
Fixed: Pressure, kPa = 101.3
Property: Mole fraction of (trimethylammonio)acetate (Liquid); method: Index of refraction calibration data
Temperature, K	Mole fraction of (trimethylammonio)acetate	uncertainty
283.15	0.1171	0.0048
288.15	0.1215	0.005
293.55	0.1261	0.0052
298.25	0.1308	0.0054
303.2	0.1355	0.0056
307.95	0.1402	0.0057
312.9	0.1445	0.0059
318.3	0.1487	0.0061
322.8	0.1528	0.0063
327.75	0.1565	0.0064

System: propan-2-ol + (trimethylammonio)acetate; phases: Liquid, Crystal
Fixed: Pressure, kPa = 101.3
Property: Mole fraction of (trimethylammonio)acetate (Liquid); method: Index of refraction calibration data
Temperature, K	Mole fraction of (trimethylammonio)acetate	uncertainty
283.45	0.004584	0.000185
288.65	0.005396	0.000218
293.15	0.00622	0.00025
298.45	0.007103	0.000286
303.35	0.008235	0.000332
307.85	0.009466	0.000382
313.15	0.01072	0.00043
317.75	0.01221	0.00049
323	0.01386	0.00056
328.15	0.01538	0.00062

System: propan-1-ol + (trimethylammonio)acetate; phases: Liquid, Crystal
Fixed: Pressure, kPa = 101.3
Property: Mole fraction of (trimethylammonio)acetate (Liquid); method: Index of refraction calibration data
Temperature, K	Mole fraction of (trimethylammonio)acetate	uncertainty
282.85	0.01344	0.00054
288.15	0.01544	0.00062
293.55	0.0177	0.0007
298.23	0.02001	0.00081
303.45	0.02254	0.00091
307.95	0.02518	0.00101
312.75	0.02804	0.00113
317.85	0.0311	0.0013
322.85	0.03492	0.00141
327.85	0.03834	0.00154

System: butan-1-ol + (trimethylammonio)acetate; phases: Liquid, Crystal
Fixed: Pressure, kPa = 101.3
Property: Mole fraction of (trimethylammonio)acetate (Liquid); method: Index of refraction calibration data
Temperature, K	Mole fraction of (trimethylammonio)acetate	uncertainty
283.45	0.008122	0.000327
288.7	0.00964	0.000388
293.05	0.01091	0.00044
298.35	0.01251	0.0005
302.9	0.01418	0.00057
307.9	0.01587	0.00064
313.25	0.01786	0.00072
317.75	0.02011	0.00081
323	0.02245	0.0009
328.1	0.02477	0.001

System: ethanol + (trimethylammonio)acetate + water; phases: Liquid, Crystal
Fixed: Pressure, kPa = 101.3
Property: Mole fraction of (trimethylammonio)acetate (Liquid); method: Index of refraction calibration data
Temperature, K	Solvent: Mole fraction of water	Mole fraction of (trimethylammonio)acetate	uncertainty
282.85	0.5251	0.09827	0.00403
282.95	0	0.02638	0.00107
283	0.8547	0.1621	0.0068
283.1	0.9053	0.1694	0.0072
283.15	0.2209	0.04273	0.00173
283.15	0.6424	0.1183	0.0049
283.15	0.7051	0.1344	0.0056
283.15	1	0.1845	0.008
283.2	0.787	0.1519	0.0064
283.35	0.3974	0.07344	0.00299
287.65	0.5251	0.104	0.0043
287.75	0.3974	0.07981	0.00325
287.75	0.7051	0.1404	0.0058
287.85	0.8547	0.1676	0.0071
288.05	0.6424	0.1237	0.0051
288.05	0.9053	0.175	0.0075
288.15	0	0.02984	0.00121
288.15	0.2209	0.0481	0.00195
288.2	0.787	0.1578	0.0066
288.25	1	0.1894	0.0082
292.75	0.8547	0.1735	0.0073
292.85	0.3974	0.08623	0.00352
293.2	1	0.1943	0.0085
293.25	0.2209	0.05476	0.00222
293.25	0.6424	0.1311	0.0054
293.5	0.5251	0.1119	0.0046
293.5	0.7051	0.1482	0.0062
293.65	0	0.03361	0.00136
293.65	0.9053	0.1816	0.0077
293.7	0.787	0.1662	0.007
297.85	0.3974	0.09373	0.00382
297.9	0.8547	0.1796	0.0076
298.35	0.2209	0.06242	0.00254
298.35	1	0.1999	0.0087
298.45	0	0.03722	0.00151
298.65	0.6424	0.1388	0.0057
298.65	0.787	0.1728	0.0072
298.65	0.9053	0.1877	0.008
299.05	0.7051	0.1564	0.0065
299.15	0.5251	0.1205	0.0049
302.95	0.3974	0.1013	0.0041
302.95	0.8547	0.1861	0.0079
303.05	0	0.04101	0.00166
303.15	0.7051	0.163	0.0068
303.2	0.2209	0.07049	0.00286
303.25	1	0.2056	0.009
303.5	0.787	0.1799	0.0075
303.55	0.6424	0.1462	0.006
303.55	0.9053	0.1941	0.0083
304	0.5251	0.1284	0.0053
307.55	0.5251	0.1339	0.0055
307.55	0.7051	0.1693	0.007
307.85	0	0.04533	0.00183
307.85	0.3974	0.1092	0.0045
308.05	0.8547	0.1932	0.0082
308.1	1	0.2112	0.0092
308.13	0.2209	0.07951	0.00323
308.63	0.6424	0.1543	0.0064
308.65	0.787	0.1876	0.0079
308.75	0.9053	0.2012	0.0086
312.75	0	0.04983	0.00202
312.95	0.3974	0.1183	0.0048
312.95	0.8547	0.2005	0.0085
313.05	1	0.2175	0.0095
313.15	0.2209	0.091	0.0037
313.15	0.5251	0.142	0.0058
313.15	0.7051	0.1773	0.0074
313.5	0.6424	0.1626	0.0067
313.55	0.787	0.195	0.0082
313.55	0.9053	0.2082	0.0089
317.75	0.8547	0.2083	0.0088
317.85	0	0.0545	0.0022
317.85	0.3974	0.1284	0.0052
317.95	0.5251	0.1529	0.0063
318.07	0.7051	0.1858	0.0077
318.55	0.2209	0.1041	0.0042
318.55	1	0.2248	0.0098
318.65	0.787	0.2033	0.0086
318.75	0.6424	0.1716	0.0071
318.75	0.9053	0.2158	0.0092
322.9	0.3974	0.1414	0.0058
322.95	1	0.2323	0.0102
323.25	0.5251	0.1639	0.0067
323.55	0	0.05958	0.00241
323.55	0.2209	0.1185	0.0048
323.55	0.7051	0.1953	0.0081
323.55	0.8547	0.2173	0.0092
323.65	0.6424	0.1812	0.0075
323.7	0.787	0.212	0.0089
323.75	0.9053	0.2241	0.0096
328.05	0	0.0647	0.00262
328.35	0.5251	0.1762	0.0073
328.55	0.7051	0.2054	0.0086
328.75	0.2209	0.135	0.0055
328.75	0.3974	0.1539	0.0063
328.75	0.8547	0.2268	0.0097
328.75	1	0.2398	0.0105
329.2	0.787	0.2215	0.0093
329.25	0.6424	0.1914	0.0079
329.25	0.9053	0.233	0.01

System: ethanol + methanol + (trimethylammonio)acetate; phases: Liquid, Crystal
Fixed: Pressure, kPa = 101.3
Property: Mole fraction of (trimethylammonio)acetate (Liquid); method: Laser Method
Solvent: Mole fraction of methanol	Temperature, K	Mole fraction of (trimethylammonio)acetate	uncertainty
0	282.95	0.02638	0.00107
0	288.15	0.02984	0.00121
0	293.65	0.03361	0.00136
0	298.45	0.03722	0.00151
0	303.05	0.04101	0.00166
0	307.85	0.04533	0.00183
0	312.75	0.04983	0.00202
0	317.85	0.0545	0.0022
0	323.55	0.05958	0.00241
0	328.05	0.0647	0.00262
0.1522	282.77	0.03655	0.00148
0.1522	288.05	0.04079	0.00165
0.1522	293.45	0.04526	0.00183
0.1522	298.25	0.04982	0.00202
0.1522	303.13	0.05426	0.0022
0.1522	307.97	0.05908	0.00239
0.1522	312.96	0.06436	0.00261
0.1522	317.97	0.06989	0.00283
0.1522	323.55	0.07549	0.00306
0.1522	327.6	0.08061	0.00326
0.269	283.27	0.04474	0.00181
0.269	288.55	0.04902	0.00199
0.269	293.2	0.05309	0.00215
0.269	298.03	0.05746	0.00233
0.269	303.33	0.06217	0.00252
0.269	307.97	0.06704	0.00272
0.269	312.96	0.07202	0.00292
0.269	317.97	0.0777	0.00315
0.269	323.55	0.08329	0.00338
0.269	327.6	0.08845	0.00359
0.3836	283.15	0.05466	0.00222
0.3836	288.65	0.05961	0.00242
0.3836	293.4	0.06399	0.0026
0.3836	298.15	0.06876	0.00279
0.3836	303.25	0.07373	0.00299
0.3836	307.85	0.07882	0.0032
0.3836	312.35	0.08371	0.0034
0.3836	317.75	0.08945	0.00363
0.3836	323.55	0.09554	0.00388
0.3836	327.6	0.101	0.0041
0.4894	284.7	0.06672	0.00271
0.4894	288.49	0.07009	0.00285
0.4894	292.85	0.07398	0.003
0.4894	297.9	0.07912	0.00321
0.4894	303.25	0.08432	0.00342
0.4894	307.85	0.08902	0.00362
0.4894	312.65	0.09406	0.00382
0.4894	317.65	0.09919	0.00403
0.4894	323.55	0.1047	0.0043
0.4894	328.6	0.1093	0.0044
0.591	283.6	0.07825	0.00318
0.591	288.5	0.08234	0.00335
0.591	292.85	0.08654	0.00352
0.591	297.9	0.09133	0.00371
0.591	303.3	0.09584	0.0039
0.591	307.9	0.09998	0.00407
0.591	312.75	0.1045	0.0043
0.591	317.7	0.1093	0.0044
0.591	323.5	0.1143	0.0047
0.591	328.6	0.1187	0.0048
0.6827	283.3	0.08717	0.00355
0.6827	288.3	0.09128	0.00372
0.6827	293.27	0.0959	0.0039
0.6827	298.25	0.1013	0.0041
0.6827	303.42	0.1066	0.0043
0.6827	308.22	0.1111	0.0045
0.6827	313.3	0.1156	0.0047
0.6827	318.1	0.1202	0.0049
0.6827	323.2	0.1253	0.0051
0.6827	327.5	0.1299	0.0053
0.7653	283.35	0.09581	0.00391
0.7653	288.25	0.1003	0.0041
0.7653	293.24	0.1052	0.0043
0.7653	298.25	0.1098	0.0045
0.7653	303.42	0.1149	0.0047
0.7653	308.17	0.1192	0.0049
0.7653	313.3	0.1239	0.0051
0.7653	318.1	0.1284	0.0052
0.7653	323.2	0.1331	0.0054
0.7653	327.5	0.1378	0.0056
0.8545	282.97	0.09968	0.00407
0.8545	288.85	0.105	0.0043
0.8545	293.95	0.11	0.0045
0.8545	298.98	0.1143	0.0047
0.8545	303.23	0.1181	0.0048
0.8545	307.77	0.1227	0.005
0.8545	313.16	0.1283	0.0052
0.8545	317.97	0.1326	0.0054
0.8545	322.95	0.1383	0.0057
0.8545	328.25	0.1422	0.0058
0.918	282.97	0.1056	0.0043
0.918	289.05	0.1115	0.0046
0.918	294.05	0.1167	0.0048
0.918	299.03	0.1209	0.0049
0.918	303.23	0.1251	0.0051
0.918	307.87	0.1302	0.0053
0.918	313.06	0.1361	0.0056
0.918	317.87	0.1405	0.0058
0.918	322.75	0.1449	0.0059
0.918	328.15	0.1481	0.0061
1	283.15	0.1171	0.0048
1	288.15	0.1215	0.005
1	293.55	0.1261	0.0052
1	298.25	0.1308	0.0054
1	303.2	0.1355	0.0056
1	307.95	0.1402	0.0057
1	312.9	0.1445	0.0059
1	318.3	0.1487	0.0061
1	322.8	0.1528	0.0063
1	327.75	0.1565	0.0064
