Measured thermophysical data. Experimental Studies of Solubility of Elemental Sulfur in Methane at 363.15 K for Pressure Ranging from (4 to 25) MPa
Source: J. Chem. Eng. Data, 2012, 10.1021/je201091g
Compound 1: sulfur, S, InChI=1S/S, purity 99%
Compound 2: methane, CH4, InChI=1S/CH4/h1H4, purity 99%

System: methane + sulfur; phases: Gas, Crystal
Fixed: Temperature, K = 363.2
Property: Mass fraction of sulfur (Gas); method: Chromatography
Pressure, kPa	Mass fraction of sulfur	uncertainty
4000	2.97e-06	3e-07
6000	3.6e-06	3.6e-07
8000	4.21e-06	4.2e-07
10000	9.75e-06	9.8e-07
15000	2.3e-05	2.3e-06
20000	3.71e-05	3.7e-06
25000	5.68e-05	5.7e-06
