Measured thermophysical data. Density of Water (1) + Monoethanolamine (2) + CO2 (3) from (298.15 to 413.15) K and Surface Tension of Water (1) + Monoethanolamine (2) from (303.15 to 333.15) K
Source: J. Chem. Eng. Data, 2012, 10.1021/je2010038
Compound 1: 2-aminoethan-1-ol, C2H7NO, InChI=1S/C2H7NO/c3-1-2-4/h4H,1-3H2, purity 99.5%
Compound 2: water, H2O, InChI=1S/H2O/h1H2, purity 99.5%
Compound 3: carbon dioxide, CO2, InChI=1S/CO2/c2-1-3, purity 99.5%

System: 2-aminoethan-1-ol; phases: Liquid, Air at 1 atmosphere
Property: Surface tension liquid-gas, N/m (Liquid); method: Pendant drop shape
Temperature, K	Surface tension liquid-gas, N/m	uncertainty
303.15	0.04813	0.00063
313.15	0.04666	0.00063
323.15	0.04558	0.00062
333.15	0.04463	0.00062

System: 2-aminoethan-1-ol; phases: Liquid
Property: Mass density, kg/m3 (Liquid); method: Vibrating tube method
Temperature, K	Pressure, kPa	Mass density, kg/m3	uncertainty
298.15	101	1011.9	0.7
303.15	101	1008	0.7
308.15	101	1004	0.7
313.15	101	1000	0.7
318.15	101	996	0.7
323.15	101	992	0.7
328.15	101	988	0.7
333.15	101	983.9	0.7
338.15	101	979.8	0.7
343.15	101	975.8	0.7
348.15	101	971.6	0.7
353.15	101	967.5	0.7
358.15	101	963.4	0.7
363.15	101	959.2	0.7
373.1	700	950.9	0.7
383.15	700	942.3	0.7
393.15	700	933.5	0.7
403.15	700	924.7	0.7
413.15	700	915.7	0.7
423.15	700	906.4	0.7

System: 2-aminoethan-1-ol + water; phases: Liquid, Air at 1 atmosphere
Property: Surface tension liquid-gas, N/m (Liquid); method: Pendant drop shape
Temperature, K	Mole fraction of 2-aminoethan-1-ol	Surface tension liquid-gas, N/m	uncertainty
303.15	0	0.0713	0.00076
303.15	0.032	0.06675	0.00074
303.15	0.069	0.06474	0.00072
303.15	0.112	0.06358	0.00072
303.15	0.164	0.06174	0.00071
303.15	0.228	0.05927	0.00069
303.15	0.307	0.05742	0.00068
303.15	0.407	0.05578	0.00067
303.15	0.541	0.05343	0.00066
303.15	0.726	0.05059	0.00065
303.15	1	0.04813	0.00063
313.15	0	0.06955	0.00075
313.15	0.032	0.06551	0.00073
313.15	0.069	0.06329	0.00072
313.15	0.112	0.06255	0.00071
313.15	0.164	0.06027	0.0007
313.15	0.228	0.05819	0.00069
313.15	0.307	0.05635	0.00068
313.15	0.407	0.05482	0.00067
313.15	0.541	0.05241	0.00066
313.15	0.726	0.04963	0.00064
313.15	1	0.04666	0.00063
323.15	0	0.06798	0.00074
323.15	0.032	0.06431	0.00072
323.15	0.069	0.06172	0.00071
323.15	0.112	0.06116	0.0007
323.15	0.164	0.05882	0.00069
323.15	0.228	0.05685	0.00068
323.15	0.307	0.05515	0.00067
323.15	0.407	0.0534	0.00066
323.15	0.541	0.05114	0.00065
323.15	0.726	0.04842	0.00064
323.15	1	0.04558	0.00062
333.15	0	0.06616	0.00073
333.15	0.032	0.06246	0.00071
333.15	0.069	0.06007	0.0007
333.15	0.112	0.05939	0.00069
333.15	0.164	0.05729	0.00068
333.15	0.228	0.05539	0.00067
333.15	0.307	0.05361	0.00066
333.15	0.407	0.05177	0.00065
333.15	0.541	0.04962	0.00064
333.15	0.726	0.047	0.00063
333.15	1	0.04463	0.00062

System: 2-aminoethan-1-ol + water; phases: Liquid
Fixed: Pressure, kPa = 101
Property: Mass density, kg/m3 (Liquid); method: Vibrating tube method
Temperature, K	Mole fraction of 2-aminoethan-1-ol	Mass density, kg/m3	uncertainty
298.15	0	997	0.7
298.15	0.1122	1010.9	0.7
298.15	0.1643	1016.3	0.7
298.15	0.2278	1021.3	0.7
298.15	0.3067	1024.8	0.7
298.15	0.4077	1026.3	0.7
298.15	0.5412	1024.7	0.7
298.15	0.7264	1020	0.7
298.15	1	1011.9	0.7
303.15	0	995.6	0.7
303.15	0.1122	1008.4	0.7
303.15	0.1643	1013.8	0.7
303.15	0.2278	1018.2	0.7
303.15	0.3067	1021.4	0.7
303.15	0.4077	1022.8	0.7
303.15	0.5412	1021	0.7
303.15	0.7264	1016.2	0.7
303.15	1	1008	0.7
308.15	0	994	0.7
308.15	0.1122	1006.2	0.7
308.15	0.1643	1011	0.7
308.15	0.2278	1015.2	0.7
308.15	0.3067	1018.2	0.7
308.15	0.4077	1019.3	0.7
308.15	0.5412	1017.3	0.7
308.15	0.7264	1012.3	0.7
308.15	1	1004	0.7
313.15	0	992.2	0.7
313.15	0.1122	1003.5	0.7
313.15	0.1643	1008.3	0.7
313.15	0.2278	1012.1	0.7
313.15	0.3067	1014.7	0.7
313.15	0.4077	1015.7	0.7
313.15	0.5412	1013.5	0.7
313.15	0.7264	1008.5	0.7
313.15	1	1000	0.7
318.15	0	990.2	0.7
318.15	0.1122	1001.1	0.7
318.15	0.1643	1005.3	0.7
318.15	0.2278	1009	0.7
318.15	0.3067	1011.4	0.7
318.15	0.4077	1012	0.7
318.15	0.5412	1009.7	0.7
318.15	0.7264	1004.5	0.7
318.15	1	996	0.7
323.15	0	988	0.7
323.15	0.1122	998.1	0.7
323.15	0.1643	1002.3	0.7
323.15	0.2278	1005.6	0.7
323.15	0.3067	1007.8	0.7
323.15	0.4077	1008.3	0.7
323.15	0.5412	1005.9	0.7
323.15	0.7264	1000.6	0.7
323.15	1	992	0.7
328.15	0	985.7	0.7
328.15	0.1122	995.5	0.7
328.15	0.1643	999.2	0.7
328.15	0.2278	1002.4	0.7
328.15	0.3067	1004.4	0.7
328.15	0.4077	1004.6	0.7
328.15	0.5412	1002	0.7
328.15	0.7264	996.7	0.7
328.15	1	988	0.7
333.15	0	983.2	0.7
333.15	0.1122	992.3	0.7
333.15	0.1643	996.1	0.7
333.15	0.2278	999	0.7
333.15	0.3067	1000.7	0.7
333.15	0.4077	1000.8	0.7
333.15	0.5412	998.2	0.7
333.15	0.7264	992.7	0.7
333.15	1	983.9	0.7
338.15	0	980.5	0.7
338.15	0.1122	989.5	0.7
338.15	0.1643	992.7	0.7
338.15	0.2278	995.4	0.7
338.15	0.3067	997.1	0.7
338.15	0.4077	997	0.7
338.15	0.5412	994.2	0.7
338.15	0.7264	988.7	0.7
338.15	1	979.8	0.7
343.15	0	977.7	0.7
343.15	0.1122	986.1	0.7
343.15	0.1643	989.4	0.7
343.15	0.2278	991.9	0.7
343.15	0.3067	993.2	0.7
343.15	0.4077	993.1	0.7
343.15	0.5412	990.2	0.7
343.15	0.7264	984.6	0.7
343.15	1	975.8	0.7
348.15	0	974.8	0.7
348.15	0.1122	983	0.7
348.15	0.1643	985.9	0.7
348.15	0.2278	988.3	0.7
348.15	0.3067	989.5	0.7
348.15	0.4077	989.2	0.7
348.15	0.5412	986.2	0.7
348.15	0.7264	980.6	0.7
348.15	1	971.6	0.7
353.15	0	971.8	0.7
353.15	0.1122	979.4	0.7
353.15	0.1643	982.4	0.7
353.15	0.2278	984.5	0.7
353.15	0.3067	985.6	0.7
353.15	0.4077	985.2	0.7
353.15	0.5412	982.1	0.7
353.15	0.7264	976.5	0.7
353.15	1	967.5	0.7
358.15	0	968.6	0.7
358.15	0.1122	976.1	0.7
358.15	0.1643	978.7	0.7
358.15	0.2278	980.8	0.7
358.15	0.3067	981.8	0.7
358.15	0.4077	981.2	0.7
358.15	0.5412	978	0.7
358.15	0.7264	972.3	0.7
358.15	1	963.4	0.7
363.15	0	965.3	0.7
363.15	0.1122	972.5	0.7
363.15	0.1643	975	0.7
363.15	0.2278	976.9	0.7
363.15	0.3067	977.7	0.7
363.15	0.4077	977.1	0.7
363.15	0.5412	973.9	0.7
363.15	0.7264	968.1	0.7
363.15	1	959.2	0.7

System: 2-aminoethan-1-ol + water; phases: Liquid
Fixed: Pressure, kPa = 700
Property: Mass density, kg/m3 (Liquid); method: Vibrating tube method
Temperature, K	Mole fraction of 2-aminoethan-1-ol	Mass density, kg/m3	uncertainty
373.1	0	958.6	0.7
373.1	0.1122	965.3	0.7
373.1	0.1643	967.2	0.7
373.1	0.2278	969	0.7
373.1	0.3067	969.4	0.7
373.1	0.4077	968.5	0.7
373.1	0.5412	965.3	0.7
373.1	0.7264	959.3	0.7
373.1	1	950.9	0.7
383.15	0	951.2	0.7
383.15	0.1122	957.4	0.7
383.15	0.1643	959.1	0.7
383.15	0.2278	960.6	0.7
383.15	0.3067	960.8	0.7
383.15	0.4077	959.8	0.7
383.15	0.5412	956.5	0.7
383.15	0.7264	950.6	0.7
383.15	1	942.3	0.7
393.15	0	943.4	0.7
393.15	0.1122	949.1	0.7
393.15	0.1643	950.7	0.7
393.15	0.2278	952	0.7
393.15	0.3067	952.1	0.7
393.15	0.4077	950.9	0.7
393.15	0.5412	947.6	0.7
393.15	0.7264	941.7	0.7
393.15	1	933.5	0.7
403.15	0	935.1	0.7
403.15	0.1122	940.6	0.7
403.15	0.1643	941.9	0.7
403.15	0.2278	943.1	0.7
403.15	0.3067	943.1	0.7
403.15	0.4077	941.9	0.7
403.15	0.5412	938.6	0.7
403.15	0.7264	932.7	0.7
403.15	1	924.7	0.7
413.15	0	926.3	0.7
413.15	0.1122	931.7	0.7
413.15	0.1643	932.9	0.7
413.15	0.2278	934	0.7
413.15	0.3067	933.8	0.7
413.15	0.4077	932.6	0.7
413.15	0.5412	929.3	0.7
413.15	0.7264	923.6	0.7
413.15	1	915.7	0.7
423.15	0	917.1	0.7
423.15	0.1122	922.3	0.7
423.15	0.1643	923.3	0.7
423.15	0.2278	924.3	0.7
423.15	0.3067	924.1	0.7
423.15	0.4077	922.8	0.7
423.15	0.5412	919.5	0.7
423.15	0.7264	914.1	0.7
423.15	1	906.4	0.7

System: carbon dioxide + 2-aminoethan-1-ol + water; phases: Liquid
Fixed: Pressure, kPa = 101
Property: Mass density, kg/m3 (Liquid); method: Vibrating tube method
Temperature, K	Mole fraction of carbon dioxide	Mole fraction of 2-aminoethan-1-ol	Mass density, kg/m3	uncertainty
298.15	0.0091	0.1112	1037.6	2.6
298.15	0.0111	0.111	1033.3	2.6
298.15	0.0113	0.1109	1054.4	2.6
298.15	0.0135	0.1107	1065.3	2.6
298.15	0.0188	0.1101	1062.7	2.6
298.15	0.023	0.1096	1053.4	2.6
298.15	0.0245	0.1095	1090.5	2.6
298.15	0.0293	0.1089	1094.5	2.6
298.15	0.0347	0.1083	1075.6	2.6
298.15	0.0374	0.108	1130.8	2.6
298.15	0.0395	0.1078	1129.6	2.6
298.15	0.0445	0.1072	1153.6	2.6
298.15	0.0471	0.1069	1096.4	2.6
298.15	0.051	0.1065	1166.8	2.6
298.15	0.0591	0.1056	1114.2	2.6
298.15	0.0617	0.1053	1200.2	2.6
298.15	0.0293	0.1089	1099.3	2.6
313.15	0.0091	0.1112	1029.5	2.6
313.15	0.0111	0.111	1025.3	2.6
313.15	0.0113	0.1109	1044.8	2.6
313.15	0.0135	0.1107	1055.4	2.6
313.15	0.0188	0.1101	1054.7	2.6
313.15	0.023	0.1096	1046.4	2.6
313.15	0.0245	0.1095	1081.7	2.6
313.15	0.0293	0.1089	1086.7	2.6
313.15	0.0347	0.1083	1066.9	2.6
313.15	0.0374	0.108	1122.5	2.6
313.15	0.0395	0.1078	1119.9	2.6
313.15	0.0445	0.1072	1145	2.6
313.15	0.0471	0.1069	1089.1	2.6
313.15	0.051	0.1065	1158.5	2.6
313.15	0.0591	0.1056	1106.8	2.6
313.15	0.0617	0.1053	1191.6	2.6
313.15	0.0293	0.1089	1088.9	2.6
323.15	0.0091	0.1112	1023.7	2.6
323.15	0.0111	0.111	1019.6	2.6
323.15	0.0113	0.1109	1038.4	2.6
323.15	0.0135	0.1107	1048.9	2.6
323.15	0.0188	0.1101	1049	2.6
323.15	0.023	0.1096	1041.2	2.6
323.15	0.0245	0.1095	1075.7	2.6
323.15	0.0293	0.1089	1081.1	2.6
323.15	0.0347	0.1083	1061.3	2.6
323.15	0.0374	0.108	1116.8	2.6
323.15	0.0395	0.1078	1113.8	2.6
323.15	0.0445	0.1072	1139.1	2.6
323.15	0.0471	0.1069	1083.8	2.6
323.15	0.051	0.1065	1152.8	2.6
323.15	0.0591	0.1056	1101.4	2.6
323.15	0.0617	0.1053	1185.8	2.6
323.15	0.0293	0.1089	1081.7	2.6
333.15	0.0091	0.1112	1017.8	2.6
333.15	0.0111	0.111	1013.8	2.6
333.15	0.0113	0.1109	1032	2.6
333.15	0.0135	0.1107	1042.1	2.6
333.15	0.0188	0.1101	1043	2.6
333.15	0.023	0.1096	1035.6	2.6
333.15	0.0245	0.1095	1069.7	2.6
333.15	0.0293	0.1089	1074.4	2.6
333.15	0.0347	0.1083	1055.6	2.6
333.15	0.0374	0.108	1110.8	2.6
333.15	0.0395	0.1078	1108.7	2.6
333.15	0.0445	0.1072	1133.1	2.6
333.15	0.0471	0.1069	1078.2	2.6
333.15	0.051	0.1065	1146.9	2.6
333.15	0.0591	0.1056	1095.7	2.6
333.15	0.0617	0.1053	1179.8	2.6
333.15	0.0293	0.1089	1075.2	2.6
343.15	0.0091	0.1112	1011	2.6
343.15	0.0111	0.111	1007.6	2.6
343.15	0.0113	0.1109	1025.2	2.6
343.15	0.0135	0.1107	1035.1	2.6
343.15	0.0188	0.1101	1036.7	2.6
343.15	0.023	0.1096	1029.7	2.6
343.15	0.0245	0.1095	1063.2	2.6
343.15	0.0293	0.1089	1066.6	2.6
343.15	0.0347	0.1083	1049.6	2.6
343.15	0.0374	0.108	1104.8	2.6
343.15	0.0395	0.1078	1103.2	2.6
343.15	0.0445	0.1072	1127	2.6
343.15	0.0471	0.1069	1072.3	2.6
343.15	0.051	0.1065	1140.8	2.6
343.15	0.0591	0.1056	1088.7	2.6
343.15	0.0617	0.1053	1173.7	2.6
343.15	0.0293	0.1089	1068.6	2.6
353.15	0.0091	0.1112	1004.8	2.6
353.15	0.0111	0.111	1000.2	2.6
353.15	0.0113	0.1109	1018.3	2.6
353.15	0.0135	0.1107	1028	2.6
353.15	0.0188	0.1101	1029.2	2.6
353.15	0.023	0.1096	1023.4	2.6
353.15	0.0245	0.1095	1056.7	2.6
353.15	0.0293	0.1089	1062.6	2.6
353.15	0.0347	0.1083	1043.4	2.6
353.15	0.0374	0.108	1098.5	2.6
353.15	0.0395	0.1078	1096.3	2.6
353.15	0.0445	0.1072	1120.7	2.6
353.15	0.0471	0.1069	1066	2.6
353.15	0.051	0.1065	1134.5	2.6
353.15	0.0591	0.1056	1081.2	2.6
353.15	0.0617	0.1053	1167.8	2.6
353.15	0.0293	0.1089	1058	2.6
363.15	0.0091	0.1112	997	2.6
363.15	0.0111	0.111	993.6	2.6
363.15	0.0113	0.1109	1011	2.6
363.15	0.0135	0.1107	1020.6	2.6
363.15	0.0188	0.1101	1023.2	2.6
363.15	0.023	0.1096	1016.7	2.6
363.15	0.0245	0.1095	1049.9	2.6
363.15	0.0293	0.1089	1049.4	2.6
363.15	0.0347	0.1083	1036.7	2.6
363.15	0.0374	0.108	1092	2.6
363.15	0.0395	0.1078	1088.8	2.6
363.15	0.0445	0.1072	1114.3	2.6
363.15	0.0471	0.1069	1059.5	2.6
363.15	0.051	0.1065	1127.3	2.6
363.15	0.0591	0.1056	1074.9	2.6
363.15	0.0617	0.1053	1160.6	2.6
363.15	0.0293	0.1089	1055.7	2.6

System: carbon dioxide + 2-aminoethan-1-ol + water; phases: Liquid
Fixed: Pressure, kPa = 700
Property: Mass density, kg/m3 (Liquid); method: Vibrating tube method
Temperature, K	Mole fraction of carbon dioxide	Mole fraction of 2-aminoethan-1-ol	Mass density, kg/m3	uncertainty
373.1	0.0091	0.1112	990.5	2.6
373.1	0.0111	0.111	986.5	2.6
373.1	0.0113	0.1109	1004.5	2.6
373.1	0.0135	0.1107	1014.5	2.6
373.1	0.0188	0.1101	1016.2	2.6
373.1	0.023	0.1096	1009.2	2.6
373.1	0.0245	0.1095	1043	2.6
373.1	0.0293	0.1089	1049.4	2.6
373.1	0.0347	0.1083	1030.6	2.6
373.1	0.0374	0.108	1085.4	2.6
373.1	0.0395	0.1078	1082.4	2.6
373.1	0.0445	0.1072	1107	2.6
373.1	0.0471	0.1069	1054.5	2.6
373.1	0.051	0.1065	1119.6	2.6
373.1	0.0591	0.1056	1069.1	2.6
373.1	0.0617	0.1053	1153.7	2.6
373.1	0.0293	0.1089	1042.3	2.6
383.15	0.0091	0.1112	983.1	2.6
383.15	0.0111	0.111	980.1	2.6
383.15	0.0113	0.1109	997.5	2.6
383.15	0.0135	0.1107	1007.3	2.6
383.15	0.0188	0.1101	1009.2	2.6
383.15	0.023	0.1096	1002.3	2.6
383.15	0.0245	0.1095	1036.9	2.6
383.15	0.0293	0.1089	1043.9	2.6
383.15	0.0347	0.1083	1024.2	2.6
383.15	0.0374	0.108	1079.7	2.6
383.15	0.0395	0.1078	1076.6	2.6
383.15	0.0445	0.1072	1098.3	2.6
383.15	0.0471	0.1069	1048.2	2.6
383.15	0.051	0.1065	1112.5	2.6
383.15	0.0591	0.1056	1063.3	2.6
383.15	0.0617	0.1053	1147.8	2.6
383.15	0.0293	0.1089	1035.3	2.6
393.15	0.0091	0.1112	975.7	2.6
393.15	0.0111	0.111	973.7	2.6
393.15	0.0113	0.1109	990.8	2.6
393.15	0.0135	0.1107	1000.7	2.6
393.15	0.0188	0.1101	1002.3	2.6
393.15	0.023	0.1096	995.7	2.6
393.15	0.0245	0.1095	1028.8	2.6
393.15	0.0293	0.1089	1036.7	2.6
393.15	0.0347	0.1083	1018.3	2.6
393.15	0.0374	0.108	1073.9	2.6
393.15	0.0395	0.1078	1069.9	2.6
393.15	0.0445	0.1072	1092.2	2.6
393.15	0.0471	0.1069	1041.7	2.6
393.15	0.051	0.1065	1104.8	2.6
393.15	0.0591	0.1056	1057.6	2.6
393.15	0.0617	0.1053	1141.3	2.6
393.15	0.0293	0.1089	1028.9	2.6
403.15	0.0091	0.1112	967.8	2.6
403.15	0.0111	0.111	967.4	2.6
403.15	0.0113	0.1109	983.3	2.6
403.15	0.0135	0.1107	994.9	2.6
403.15	0.0188	0.1101	994.6	2.6
403.15	0.023	0.1096	988.9	2.6
403.15	0.0245	0.1095	1021	2.6
403.15	0.0293	0.1089	1029.8	2.6
403.15	0.0347	0.1083	1012.9	2.6
403.15	0.0374	0.108	1067.9	2.6
403.15	0.0395	0.1078	1063.1	2.6
403.15	0.0445	0.1072	1085.7	2.6
403.15	0.0471	0.1069	1036.1	2.6
403.15	0.051	0.1065	1098.4	2.6
403.15	0.0591	0.1056	1051.9	2.6
403.15	0.0617	0.1053	1136.3	2.6
403.15	0.0293	0.1089	1022.3	2.6
413.15	0.0091	0.1112	960.5	2.6
413.15	0.0111	0.111	960.5	2.6
413.15	0.0113	0.1109	976.8	2.6
413.15	0.0135	0.1107	989.6	2.6
413.15	0.0188	0.1101	987.6	2.6
413.15	0.023	0.1096	982.6	2.6
413.15	0.0245	0.1095	1012.8	2.6
413.15	0.0293	0.1089	1023.3	2.6
413.15	0.0347	0.1083	1007.9	2.6
413.15	0.0374	0.108	1061.2	2.6
413.15	0.0395	0.1078	1057.5	2.6
413.15	0.0445	0.1072	1079.5	2.6
413.15	0.0471	0.1069	1029.5	2.6
413.15	0.051	0.1065	1092.6	2.6
413.15	0.0591	0.1056	1045.6	2.6
413.15	0.0617	0.1053	1130.4	2.6
413.15	0.0293	0.1089	1017.1	2.6
