Measured thermophysical data. Experimental Determination of the Solubilities of CO2 and CH4 in Diethyl Methylphosphonate
Source: J. Chem. Eng. Data, 2011, 10.1021/je200237u
Compound 1: O,O-diethyl methylphosphonate, C5H13O3P, InChI=1S/C5H13O3P/c1-4-7-9(3,6)8-5-2/h4-5H2,1-3H3
Compound 2: carbon dioxide, CO2, InChI=1S/CO2/c2-1-3
Compound 3: methane, CH4, InChI=1S/CH4/h1H4

System: carbon dioxide + O,O-diethyl methylphosphonate; phases: Liquid, Gas
Property: Vapor or sublimation pressure, kPa (Liquid); method: Closed cell (Static) method
Mole fraction of carbon dioxide	Temperature, K	Vapor or sublimation pressure, kPa	uncertainty
0.154	283.4	475	20
0.154	288.39	535	22
0.154	293.48	583	25
0.154	298.24	645	27
0.154	303.45	703	30
0.154	308.19	775	33
0.154	313.5	843	36
0.154	313.53	849	36
0.154	318.2	920	38
0.154	323.51	1019	42
0.154	328.46	1065	45
0.154	333.51	1154	49
0.154	338.17	1240	49
0.154	343.51	1330	56
0.154	353.5	1501	63
0.4	283.43	1427	24
0.4	288.43	1599	27
0.4	293.38	1775	30
0.4	298.19	1945	33
0.4	303.42	2145	36
0.4	308.16	2340	40
0.4	313.49	2566	44
0.4	318.18	2775	48
0.4	323.49	3025	52
0.4	328.16	3245	57
0.4	333.49	3512	61
0.4	343.53	4028	70
0.4	348.5	4288	21
0.4	353.47	4558	80
0.67	283.47	2794	30
0.67	288.46	3120	33
0.67	293.4	3470	37
0.67	298.22	3845	40
0.67	303.37	4259	45
0.67	308.17	4686	50
0.67	313.41	5140	55
0.67	318.66	5617	60
0.67	323.41	6161	66
0.67	328.47	6638	72
0.67	333.5	7162	78
0.67	343.55	8262	88
0.67	353.49	9415	96
0.864	283.37	3988	34
0.864	288.38	4453	38
0.864	293.42	4968	42
0.864	298.19	5483	46
0.864	303.4	6099	52
0.864	308.21	6699	56
0.864	313.44	7390	63
0.864	318.18	8055	70
0.864	323.46	8826	74
0.864	328.19	9537	82
0.864	333.53	10378	89
0.864	338.46	11151	90

System: methane + O,O-diethyl methylphosphonate; phases: Liquid, Gas
Property: Vapor or sublimation pressure, kPa (Liquid); method: Closed cell (Static) method
Mole fraction of methane	Temperature, K	Vapor or sublimation pressure, kPa	uncertainty
0.051	283.4	2810	278
0.051	288.33	2840	281
0.051	293.43	2875	283
0.051	298.46	2901	285
0.051	303.36	2926	287
0.051	308.47	2951	289
0.051	313.44	2976	290
0.051	318.44	2992	291
0.051	323.44	3007	292
0.051	328.5	3026	294
0.051	333.43	3036	294
0.051	338.46	3046	295
0.051	343.51	3062	295
0.051	348.52	3061	296
0.051	353.5	3062	297
0.051	358.52	3067	297
0.051	283.4	2810	278
0.051	288.33	2840	281
0.1	283.39	5529	310
0.1	288.42	5589	307
0.1	293.36	5639	308
0.1	298.38	5687	310
0.1	303.43	5732	311
0.1	308.41	5774	312
0.1	313.5	5810	312
0.1	318.44	5839	313
0.1	323.41	5868	314
0.1	328.45	5893	314
0.1	333.49	5913	314
0.1	338.47	5929	314
0.1	343.52	5945	314
0.1	348.48	5955	314
0.1	353.49	5966	313
0.1	358.47	5971	315
0.1	283.39	5529	310
0.1	288.42	5589	307
0.121	283.23	7212	408
0.121	288.21	7262	406
0.121	293.4	7302	403
0.121	298.4	7352	402
0.121	303.42	7383	400
0.121	308.45	7423	399
0.121	313.39	7448	397
0.121	318.47	7478	396
0.121	323.48	7498	395
0.121	328.25	7508	393
0.121	333.48	7518	392
0.121	338.49	7523	391
0.121	343.48	7528	390
0.121	348.48	7523	389
0.121	353.48	7513	388
0.121	358.47	7498	387
0.121	283.23	7212	408
0.121	288.21	7262	406
0.153	283.38	9830	413
0.153	288.37	9860	410
0.153	293.4	9885	408
0.153	298.44	9915	405
0.153	303.39	9945	404
0.153	308.43	9970	402
0.153	313.39	9991	401
0.153	318.46	10005	399
0.153	323.41	10021	398
0.153	328.49	10026	398
0.153	333.43	10031	397
0.153	338.45	10036	397
0.153	343.51	10036	397
0.153	348.5	10036	397
0.153	353.48	10036	398
0.153	358.47	10031	400
0.153	283.38	9830	413
0.153	288.37	9860	410
