Measured thermophysical data. Solubility of Bisphenol A in Supercritical Carbon Dioxide
Source: J. Chem. Eng. Data, 2011, 10.1021/je200640q
Compound 1: carbon dioxide, CO2, InChI=1S/CO2/c2-1-3
Compound 2: 2,2-(4',4''-dihydroxy)diphenylpropane, C15H16O2, InChI=1S/C15H16O2/c1-15(2,11-3-7-13(16)8-4-11)12-5-9-14(17)10-6-12/h3-10,16-17H,1-2H3

System: 2,2-(4',4''-dihydroxy)diphenylpropane; phases: Crystal, Liquid, Air at 1 atmosphere
Property: Molar enthalpy of transition or fusion, kJ/mol (Crystal); method: DSC
Molar enthalpy of transition or fusion, kJ/mol	uncertainty
30.7	0.9

System: 2,2-(4',4''-dihydroxy)diphenylpropane; phases: Crystal, Liquid, Air at 1 atmosphere
Property: Normal melting temperature, K (Crystal); method: DTA
Normal melting temperature, K	uncertainty
429.65	0.5

System: 2,2-(4',4''-dihydroxy)diphenylpropane + carbon dioxide; phases: Fluid (supercritical or subcritical phases), Crystal
Property: Vapor or sublimation pressure, kPa (Fluid (supercritical or subcritical phases)); method: visually
Temperature, K	Mole fraction of 2,2-(4',4''-dihydroxy)diphenylpropane	Vapor or sublimation pressure, kPa	uncertainty
313	1.8e-05	16400	1300
313	2.5e-05	16300	1700
313	2.8e-05	17200	1400
313	3.3e-05	17600	1200
313	3.8e-05	18100	1400
313	3.9e-05	17800	1400
313	4.5e-05	18000	1100
313	4.9e-05	19100	1700
333	2e-05	14300	1000
333	3.4e-05	14500	1100
333	3.7e-05	15000	1100
333	3.9e-05	14700	1100
333	4.5e-05	15400	1400
333	5e-05	15200	1400
333	5.2e-05	15500	1500
333	4.5e-05	15400	1400
353	4e-05	13000	1200
353	4.6e-05	13100	1100
353	5e-05	13700	1100
353	7.7e-05	14600	1100
353	4.6e-05	13500	1100
