Measured thermophysical data. Enthalpy of Solution of Carbon Dioxide in Aqueous Solutions of Monoethanolamine at Temperatures of 322.5 K and 372.9 K and Pressures up to 5 MPa
Source: J. Chem. Eng. Data, 2011, 10.1021/je2002946
Compound 1: 2-aminoethan-1-ol, C2H7NO, InChI=1S/C2H7NO/c3-1-2-4/h4H,1-3H2
Compound 2: water, H2O, InChI=1S/H2O/h1H2
Compound 3: carbon dioxide, CO2, InChI=1S/CO2/c2-1-3

System: 2-aminoethan-1-ol + water; phases: Liquid
Property: Mass density, kg/m3 (Liquid); method: Vibrating tube method
Mass fraction of 2-aminoethan-1-ol	Temperature, K	Pressure, kPa	Mass density, kg/m3	uncertainty
0.15	298.34	209	1002.9	0.3
0.15	298.34	505	1003	0.3
0.15	298.34	1014	1003.2	0.3
0.15	298.34	2000	1003.6	0.3
0.15	298.34	5004	1004.9	0.3
0.3	298.31	207	1010.2	0.3
0.3	298.31	507	1010.3	0.3
0.3	298.31	1011	1010.5	0.3
0.3	298.31	2006	1010.9	0.3
0.3	298.32	5002	1012	0.3

System: carbon dioxide + 2-aminoethan-1-ol + water; phases: Liquid
Fixed: Temperature, K = 322.5
Fixed: Solvent: Mass fraction of 2-aminoethan-1-ol = 0.15
Property: Molar enthalpy of solution, kJ/mol (Liquid); method: Flow calorimetry
Pressure, kPa	Mole fraction of carbon dioxide	Molar enthalpy of solution, kJ/mol	uncertainty
530	0.0067	-89.9	6
530	0.0089	-93.4	6
530	0.0105	-96.7	2.7
530	0.0128	-92.6	2.1
530	0.0158	-88.9	4.1
530	0.017	-87.5	1.5
530	0.0192	-85	2.1
530	0.0202	-85.5	1.5
530	0.0212	-82.8	1.9
530	0.0235	-79.2	1.6
530	0.0253	-76.1	2.1
530	0.0268	-72.4	3.9
530	0.0294	-68.5	1.5
530	0.0322	-64.7	1.4
530	0.0366	-56.9	1.6
530	0.0438	-47.1	1.3
530	0.0695	-28	1
1040	0.0068	-87.7	3.7
1040	0.009	-85.6	4.2
1040	0.0111	-90.3	4.1
1040	0.0134	-91.2	2.7
1040	0.0154	-89.3	3.9
1040	0.0177	-90.5	2.1
1040	0.0196	-86.6	1.9
1040	0.0219	-85.6	2.1
1040	0.0247	-83.7	1.5
1040	0.0266	-83.4	1.3
1040	0.028	-83.8	1.5
1040	0.0312	-79.3	1.6
1040	0.0355	-73.9	1.2
1040	0.0398	-69.2	1.4
1040	0.0432	-65	1.1
1040	0.0436	-65.2	1.3
1040	0.044	-64.9	1.7
1040	0.0469	-60.8	1.4
1040	0.0478	-60.5	2.6
1040	0.0515	-56.1	1.6
1040	0.0551	-52	1.5
1040	0.0591	-48.6	1.3
1040	0.0631	-45.1	1.5
1040	0.067	-42.1	1.2
5150	0.0199	-87.2	2.9
5150	0.0205	-87.6	1.4
5150	0.0219	-87.6	1.2
5150	0.0233	-83.5	4.3
5150	0.0235	-86.7	4.1
5150	0.0253	-86.1	1.5
5150	0.0275	-83.2	2
5150	0.0285	-76.7	1.2
5150	0.0299	-80.4	1.2
5150	0.0321	-77.6	2.3
5150	0.0329	-77.3	1.7
5150	0.0348	-72.3	1.3
5150	0.0359	-72	1.1
5150	0.0364	-73.5	2.7
5150	0.0381	-70.8	1.2
5150	0.0405	-69.9	0.9
5150	0.0407	-69.9	1.5
5150	0.0411	-69.3	1.4
5150	0.0449	-64.3	0.9
5150	0.0467	-64.3	1.1
5150	0.0479	-60.2	1.3
5150	0.0509	-57.7	1.5
5150	0.0526	-56.1	2
5150	0.0529	-56.5	2.3
5150	0.0548	-53.8	2.5
5150	0.0564	-52.3	1.5
5150	0.0605	-46.4	3.3
5150	0.0612	-47.3	2.2
5150	0.0648	-45.5	1.8
5150	0.0656	-44.1	3.2
5150	0.0658	-43.2	3
5150	0.0728	-38.9	1.7
5150	0.0904	-30.2	1.9
5150	0.0449	-65	2.3

System: carbon dioxide + 2-aminoethan-1-ol + water; phases: Liquid
Fixed: Temperature, K = 372.9
Fixed: Mass fraction of 2-aminoethan-1-ol = 0.15
Property: Molar enthalpy of solution, kJ/mol (Liquid); method: Flow calorimetry
Pressure, kPa	Mole fraction of carbon dioxide	Molar enthalpy of solution, kJ/mol	uncertainty
550	0.00286	-88.1	7.8
550	0.00443	-86.3	7.2
550	0.00673	-85.1	7
550	0.00897	-87.9	8
550	0.0112	-90.8	11.2
550	0.01284	-90.9	4.4
550	0.01506	-90.2	16.2
550	0.01774	-90.8	2.1
550	0.01778	-95.4	2.3
550	0.02031	-90.8	2.7
550	0.02216	-94.8	6.6
550	0.0224	-88	7.9
550	0.0248	-84.9	2
550	0.0254	-79.2	2.1
550	0.0269	-83.8	3.9
550	0.027	-85.1	4.1
550	0.0286	-81.6	2.2
550	0.0295	-79.8	2.2
550	0.0313	-74.3	3
550	0.0336	-68.7	2
550	0.0376	-60.8	2.5
550	0.0434	-50.6	1.9
550	0.0515	-40.7	1.3
550	0.0617	-32.7	1.1
550	0.01506	-86.7	3.1
550	0.0376	-60.8	1.6
1050	0.0065	-91	5.8
1050	0.0088	-85.3	13.4
1050	0.0108	-89.9	2
1050	0.0109	-91.1	8.1
1050	0.013	-89.5	3.5
1050	0.0154	-87.7	2.1
1050	0.0172	-86.6	3.9
1050	0.0174	-85	3.5
1050	0.0197	-85.2	2.1
1050	0.0214	-85.3	3.5
1050	0.0255	-78.7	5
1050	0.0259	-78.2	2.1
1050	0.026	-80.6	2.1
1050	0.0285	-77.6	1.5
1050	0.0298	-76.5	1.6
1050	0.032	-71.6	4.3
1050	0.0338	-69.1	1.3
1050	0.0383	-60.3	1.3
1050	0.042	-52.9	3.1
1050	0.0498	-44.4	2.1
1050	0.0577	-37.6	1.3
1050	0.0666	-31.8	0.9
1050	0.0109	-89.4	2.2
1050	0.0214	-84.2	1.5
1050	0.0259	-80.9	20
3080	0.0078	-80.8	2.5
3080	0.0095	-79.5	1.9
3080	0.0142	-80.8	1.4
3080	0.0152	-80.2	1.7
3080	0.0156	-77.5	2
3080	0.0177	-79.4	4
3080	0.0179	-80.4	4
3080	0.0212	-81	1.4
3080	0.022	-79	2.2
3080	0.0255	-79.6	1.2
3080	0.0279	-80.9	3.6
3080	0.0284	-81.4	4.1
3080	0.0288	-79.6	6.4
3080	0.0319	-79.1	2.9
3080	0.0354	-75.4	8.2
3080	0.0357	-76.3	8.2
3080	0.0377	-73.3	1.2
3080	0.0403	-70.8	1.6
3080	0.0415	-68.5	1.2
3080	0.0447	-63.4	1
3080	0.0507	-56	0.9
3080	0.0567	-49.4	1
3080	0.0625	-44.4	0.9
3080	0.0681	-40.4	0.6
3080	0.0732	-37.1	0.8
3080	0.0095	-81.2	3.4
5190	0.0181	-60.8	12.4
5190	0.0212	-58.5	9.8
5190	0.0244	-60.1	4
5190	0.0294	-62.2	3.3
5190	0.0295	-62.8	2
5190	0.0329	-61.2	1.9
5190	0.0377	-60.7	2.8
5190	0.0401	-59.7	1.9
5190	0.0416	-58.2	8
5190	0.0421	-60.1	1.8
5190	0.0445	-55.4	1
5190	0.0464	-55.7	1
5190	0.0468	-56.3	2
5190	0.0488	-54.2	1.3
5190	0.0495	-54.9	5.8
5190	0.0498	-54.6	0.9
5190	0.054	-48.6	1.7
5190	0.0585	-46.5	1.1
5190	0.0616	-43.8	0.8
5190	0.0678	-39.6	0.8

System: carbon dioxide + 2-aminoethan-1-ol + water; phases: Liquid
Fixed: Mass fraction of 2-aminoethan-1-ol = 0.3
Property: Molar enthalpy of solution, kJ/mol (Liquid); method: Flow calorimetry
Pressure, kPa	Mole fraction of carbon dioxide	Temperature, K	Molar enthalpy of solution, kJ/mol	uncertainty
540	0.0265	372.9	-96.3	2.6
540	0.0295	372.9	-87.8	2.7
540	0.0314	372.9	-95.6	2.7
540	0.035	372.9	-90.3	2.5
540	0.0364	372.9	-88.4	2.5
540	0.0384	372.9	-86.2	6.8
540	0.0407	372.9	-87.6	16.8
540	0.0415	372.9	-87.3	4.6
540	0.0424	372.9	-92.8	2.3
540	0.0439	372.9	-90.3	3.5
540	0.0476	372.9	-89.5	9
540	0.0477	372.9	-94.6	5.6
540	0.0494	372.9	-85.3	4
540	0.0495	372.9	-90.1	2
540	0.0521	372.9	-83.7	13
540	0.0545	372.9	-83.8	3.5
540	0.0567	372.9	-80.7	5.4
540	0.0578	372.9	-84.3	2.4
540	0.0644	372.9	-77	8.8
540	0.0648	372.9	-72.4	10
540	0.0697	372.9	-68	5.1
540	0.071	372.9	-62.6	7.1
540	0.0756	372.9	-60.2	1.5
540	0.0784	372.9	-59.4	6.5
540	0.0812	372.9	-51.1	6.3
540	0.0856	372.9	-51.3	1.3
540	0.0928	372.9	-46.5	1.1
540	0.094	372.9	-46.7	1.1
540	0.1094	372.9	-37	1.2
540	0.1254	372.9	-30.5	1
540	0.1413	372.9	-24.8	0.8
540	0.0384	372.9	-87.5	3.9
540	0.0495	372.9	-91.3	3.1
540	0.0521	372.9	-85.7	8.2
540	0.0578	372.9	-80.5	6.6
540	0.0495	372.9	-91.9	2.1
1030	0.0099	372.9	-86.5	4.6
1030	0.0196	372.9	-85.6	2.1
1030	0.0279	372.9	-87.2	17.4
1030	0.0369	372.9	-85.3	1.9
1030	0.0475	372.9	-88.1	1.5
1030	0.0506	372.9	-86.1	1.9
1030	0.0564	372.9	-84.1	2.1
1030	0.0592	372.9	-81.3	4.1
1030	0.0638	372.9	-76.1	8.2
1030	0.0723	372.9	-67	2.7
1030	0.0799	372.9	-59.5	1.3
1030	0.0881	372.9	-53.2	1.2
1030	0.0949	372.9	-48.6	1.1
1030	0.1033	372.9	-43.2	2.3
1030	0.1138	372.9	-39.2	1
1030	0.1175	372.9	-36.9	2.9
1030	0.1311	372.9	-30.2	3.6
1030	0.1312	372.9	-32.6	0.7
1030	0.1448	372.9	-29.3	0.7
1030	0.1551	372.9	-26.5	0.7
1030	0.167	372.9	-23.9	1.3
3070	0.0245	372.9	-85.7	3.1
3070	0.0325	372.9	-86.7	1.4
3070	0.0401	372.9	-84.5	1.5
3070	0.0475	372.9	-83.7	1.9
3070	0.0538	372.9	-83.1	1.5
3070	0.061	372.9	-79.1	1.4
3070	0.0672	372.9	-75.5	1.2
3070	0.0736	372.9	-71.4	2.1
3070	0.0822	372.9	-64.1	1.1
3070	0.092	372.9	-56.3	0.9
3070	0.1047	372.9	-48.6	0.9
3070	0.1175	372.9	-42.5	0.8
3070	0.1288	372.9	-38.2	0.7
3070	0.1396	372.9	-34.8	0.7
5130	0.0213	372.9	-68.3	3
5130	0.0271	372.9	-67.6	7.2
5130	0.0312	372.9	-68.4	3
5130	0.0333	372.9	-67.6	13
5130	0.0384	372.9	-67.6	0.8
5130	0.0416	372.9	-69.7	2.3
5130	0.0435	372.9	-69.9	8.9
5130	0.0439	372.9	-67.8	2.6
5130	0.051	372.9	-67.6	1.7
5130	0.0521	372.9	-67.1	2.9
5130	0.0624	372.9	-69.6	10.8
5130	0.0643	372.9	-68.7	4.3
5130	0.0645	372.9	-69.6	3.7
5130	0.0655	372.9	-71.7	9.1
5130	0.0714	372.9	-68.3	1.1
5130	0.0762	372.9	-69.3	1.2
5130	0.0802	372.9	-62.1	1.9
5130	0.0828	372.9	-62.1	5
5130	0.0877	372.9	-61.5	0.9
5130	0.0963	372.9	-55.6	1.1
5130	0.1073	372.9	-49.4	0.8
5130	0.1184	372.9	-44	0.7
5130	0.1286	372.9	-40	0.8
5130	0.1401	372.9	-36.2	0.8
5130	0.1417	372.9	-35.5	0.8
5130	0.165	372.9	-29.6	0.5
5130	0.1897	372.9	-24.9	0.5
5130	0.0384	372.9	-68.5	2.1
5130	0.0643	372.9	-69.6	2
5130	0.0643	372.9	-70.4	1
510	0.0097	322.5	-94.4	1.4
510	0.0144	322.5	-96.9	3.3
510	0.0199	322.5	-92.6	1.2
510	0.0252	322.5	-92.5	1.4
510	0.0306	322.5	-94.4	1.9
510	0.0336	322.5	-94.2	3.5
510	0.042	322.5	-94.4	3.3
510	0.0479	322.5	-92	1.7
510	0.0546	322.5	-88.1	2.1
510	0.0573	322.5	-85.7	1.8
510	0.0607	322.5	-84.1	2.1
510	0.0662	322.5	-80.4	1.6
510	0.0682	322.5	-80.4	1.7
510	0.0763	322.5	-70.9	1.5
510	0.0766	322.5	-70.8	1.5
510	0.085	322.5	-63.5	1.8
510	0.0967	322.5	-54.6	1.5
510	0.085	322.5	-63.5	1.6
1030	0.0201	322.5	-85.9	1.9
1030	0.0248	322.5	-85.6	2.1
1030	0.0291	322.5	-86.8	1.2
1030	0.0344	322.5	-88.6	4.2
1030	0.0384	322.5	-88.4	2.1
1030	0.0435	322.5	-85.5	2.3
1030	0.0486	322.5	-83	1.9
1030	0.0526	322.5	-85.3	1.5
1030	0.0575	322.5	-86.1	1.4
1030	0.0611	322.5	-83.2	1.4
1030	0.0665	322.5	-80.1	1.4
1030	0.0691	322.5	-78.9	1.5
1030	0.0723	322.5	-78.2	1.4
1030	0.0807	322.5	-72.5	1.6
1030	0.0875	322.5	-66.3	1.3
1030	0.0883	322.5	-66.4	4
1030	0.0925	322.5	-62.7	1.5
1030	0.1	322.5	-57.3	1.3
1030	0.1073	322.5	-52.6	1.2
1030	0.1259	322.5	-44.7	1.2
1030	0.1403	322.5	-39.5	1
5160	0.0308	322.5	-84.4	5.2
5160	0.0336	322.5	-84.7	5.2
5160	0.0369	322.5	-85.3	2.9
5160	0.0414	322.5	-84.6	2.3
5160	0.0423	322.5	-85.3	2.9
5160	0.0464	322.5	-85.7	3.4
5160	0.0474	322.5	-83.3	1.9
5160	0.0538	322.5	-84	1.5
5160	0.0549	322.5	-84.1	1.9
5160	0.0624	322.5	-82	3.5
5160	0.0631	322.5	-78.3	1
5160	0.0632	322.5	-80.3	1.2
5160	0.0657	322.5	-80.1	2.3
5160	0.0674	322.5	-79.2	1.7
5160	0.0685	322.5	-76.4	5.5
5160	0.0732	322.5	-76.5	9.2
5160	0.0742	322.5	-73.1	1.5
5160	0.0756	322.5	-73.3	1.3
5160	0.0798	322.5	-72.4	2.3
5160	0.0852	322.5	-68.5	1.6
5160	0.0859	322.5	-69.4	2.2
5160	0.0923	322.5	-65.4	1.1
5160	0.0951	322.5	-61.8	1.1
5160	0.0986	322.5	-60.1	1
5160	0.1037	322.5	-57.3	1.2
5160	0.108	322.5	-54.7	1.1
5160	0.1109	322.5	-52.7	0.8
5160	0.1161	322.5	-50.2	1.1
5160	0.122	322.5	-47.1	0.8
5160	0.1258	322.5	-46	1.2
5160	0.1266	322.5	-45.5	0.9
5160	0.1421	322.5	-39.5	0.8
5160	0.1467	322.5	-38.3	0.6
5160	0.1589	322.5	-35.1	0.6
5160	0.1705	322.5	-32.4	0.6
5160	0.0538	322.5	-83.1	1.6
5160	0.0859	322.5	-70.1	2.7
5160	0.0538	322.5	-83.7	1.4
