Measured thermophysical data. Density and Viscosity in Ternary d-Xylose + Ionic Liquid (1-Alkyl-3-methylimidazolium Bromide) + Water Solutions at 298.15 K
Source: J. Chem. Eng. Data, 2012, 10.1021/je2013022
Compound 1: D-xylose, C5H10O5, InChI=1S/C5H10O5/c6-1-3(8)5(10)4(9)2-7/h1,3-5,7-10H,2H2/t3-,4+,5+/m0/s1, purity 99%
Compound 2: water, H2O, InChI=1S/H2O/h1H2, purity 99.9%
Compound 3: 3-hexyl-1-methyl-1H-imidazolium bromide, C10H19BrN2, InChI=1S/C10H19N2.BrH/c1-3-4-5-6-7-12-9-8-11(2)10-12;/h8-10H,3-7H2,1-2H3;1H/q+1;/p-1, purity 98%
Compound 4: 1-methyl-3-octylimidazolium bromide, C12H23BrN2, InChI=1S/C12H23N2.BrH/c1-3-4-5-6-7-8-9-14-11-10-13(2)12-14;/h10-12H,3-9H2,1-2H3;1H/q+1;/p-1, purity 98%
Compound 5: 1-decyl-3-methylimidazolium bromide, C14H27BrN2, InChI=1S/C14H27N2.BrH/c1-3-4-5-6-7-8-9-10-11-16-13-12-15(2)14-16;/h12-14H,3-11H2,1-2H3;1H/q+1;/p-1, purity 98%

System: water + 3-hexyl-1-methyl-1H-imidazolium bromide; phases: Liquid
Fixed: Temperature, K = 298.15
Fixed: Pressure, kPa = 101
Property: Viscosity, Pa*s (Liquid); method: Capillary tube (Ostwald; Ubbelohde) method
Molality, mol/kg of 3-hexyl-1-methyl-1H-imidazolium bromide	Viscosity, Pa*s	uncertainty
0.1025	0.0009483	1.34e-05
0.2035	0.0010051	1.36e-05
0.3027	0.0010527	1.38e-05
0.3998	0.0011006	1.4e-05

System: water + 1-methyl-3-octylimidazolium bromide; phases: Liquid
Fixed: Temperature, K = 298.15
Fixed: Pressure, kPa = 101
Property: Viscosity, Pa*s (Liquid); method: Capillary tube (Ostwald; Ubbelohde) method
Molality, mol/kg of 1-methyl-3-octylimidazolium bromide	Viscosity, Pa*s	uncertainty
0.1018	0.0009647	1.35e-05
0.2004	0.0010246	1.37e-05
0.3037	0.001103	1.4e-05
0.3986	0.0011724	1.42e-05

System: water + 1-decyl-3-methylimidazolium bromide; phases: Liquid
Fixed: Temperature, K = 298.15
Fixed: Pressure, kPa = 101
Property: Viscosity, Pa*s (Liquid); method: Capillary tube (Ostwald; Ubbelohde) method
Molality, mol/kg of 1-decyl-3-methylimidazolium bromide	Viscosity, Pa*s	uncertainty
0.1008	0.0009916	1.36e-05
0.199	0.0011078	1.4e-05
0.303	0.0012429	1.45e-05
0.3985	0.0013863	1.51e-05

System: D-xylose + water; phases: Liquid
Fixed: Temperature, K = 298.15
Fixed: Pressure, kPa = 101
Property: Viscosity, Pa*s (Liquid); method: Capillary tube (Ostwald; Ubbelohde) method
Molality, mol/kg of D-xylose	Viscosity, Pa*s	uncertainty
0	0.0008949	1.33e-05
0.0104	0.0009117	1.33e-05
0.0211	0.0009143	1.33e-05
0.0303	0.0009164	1.33e-05
0.0406	0.00092	1.34e-05
0.05	0.0009244	1.34e-05
0.0604	0.0009273	1.34e-05
0.0691	0.0009306	1.34e-05

System: D-xylose + water; phases: Liquid
Fixed: Temperature, K = 298.15
Fixed: Pressure, kPa = 101
Property: Mass density, kg/m3 (Liquid); method: Vibrating tube method
Molality, mol/kg of D-xylose	Mass density, kg/m3	uncertainty
0.0104	997.61	0.09
0.0211	998.19	0.09
0.0303	998.69	0.09
0.0406	999.25	0.09
0.05	999.76	0.09
0.0604	1000.32	0.09
0.0691	1000.79	0.09

System: D-xylose + water + 3-hexyl-1-methyl-1H-imidazolium bromide; phases: Liquid
Fixed: Temperature, K = 298.15
Fixed: Pressure, kPa = 101
Property: Viscosity, Pa*s (Liquid); method: Capillary tube (Ostwald; Ubbelohde) method
Molality, mol/kg of D-xylose	Solvent: Molality, mol/kg of 3-hexyl-1-methyl-1H-imidazolium bromide	Viscosity, Pa*s	uncertainty
0	0.1025	0.0009483	1.43e-05
0	0.2035	0.0010051	1.45e-05
0	0.3027	0.0010527	1.48e-05
0	0.3998	0.0011006	1.5e-05
0.0105	0.2035	0.0010075	1.46e-05
0.0107	0.1025	0.0009571	1.43e-05
0.0108	0.3998	0.0011064	1.5e-05
0.0109	0.3027	0.0010541	1.48e-05
0.0202	0.2035	0.0010112	1.46e-05
0.0204	0.3027	0.0010589	1.48e-05
0.0204	0.3998	0.0011123	1.51e-05
0.0205	0.1025	0.0009609	1.43e-05
0.0301	0.1025	0.0009649	1.44e-05
0.0304	0.3998	0.0011187	1.51e-05
0.031	0.3027	0.0010638	1.48e-05
0.0312	0.2035	0.001016	1.46e-05
0.04	0.3998	0.001124	1.51e-05
0.0401	0.1025	0.0009699	1.44e-05
0.0403	0.2035	0.0010199	1.46e-05
0.0411	0.3027	0.001069	1.49e-05
0.0501	0.3027	0.0010744	1.49e-05
0.0504	0.2035	0.0010251	1.46e-05
0.0506	0.1025	0.000974	1.44e-05
0.0507	0.3998	0.00113	1.52e-05
0.0596	0.3027	0.0010787	1.49e-05
0.0603	0.3998	0.0011343	1.52e-05
0.0606	0.1025	0.0009791	1.44e-05
0.0612	0.2035	0.0010294	1.47e-05
0.0692	0.3998	0.001138	1.52e-05
0.0703	0.3027	0.0010832	1.49e-05
0.0704	0.2035	0.0010338	1.47e-05
0.0706	0.1025	0.0009818	1.44e-05
0.0795	0.2035	0.0010388	1.47e-05
0.0801	0.1025	0.0009858	1.45e-05
0.0807	0.3027	0.0010893	1.5e-05
0.0809	0.3998	0.001143	1.52e-05
0.0882	0.3998	0.0011481	1.52e-05
0.0888	0.3027	0.0010904	1.5e-05
0.0893	0.2035	0.0010422	1.47e-05
0.09	0.1025	0.0009896	1.45e-05

System: D-xylose + water + 3-hexyl-1-methyl-1H-imidazolium bromide; phases: Liquid
Fixed: Temperature, K = 298.15
Fixed: Pressure, kPa = 101
Property: Mass density, kg/m3 (Liquid); method: Vibrating tube method
Molality, mol/kg of D-xylose	Solvent: Molality, mol/kg of 3-hexyl-1-methyl-1H-imidazolium bromide	Mass density, kg/m3	uncertainty
0.0105	0.2035	1005.9	0.26
0.0107	0.1025	1001.82	0.26
0.0108	0.3998	1013.48	0.26
0.0109	0.3027	1009.8	0.26
0.0202	0.2035	1006.42	0.26
0.0204	0.3027	1010.31	0.26
0.0204	0.3998	1013.98	0.26
0.0205	0.1025	1002.35	0.26
0.0301	0.1025	1002.87	0.26
0.0304	0.3998	1014.51	0.27
0.031	0.3027	1010.87	0.26
0.0312	0.2035	1007.01	0.26
0.04	0.3998	1015.02	0.27
0.0401	0.1025	1003.41	0.26
0.0403	0.2035	1007.5	0.26
0.0411	0.3027	1011.41	0.26
0.0501	0.3027	1011.9	0.26
0.0504	0.2035	1008.05	0.26
0.0506	0.1025	1003.98	0.26
0.0507	0.3998	1015.6	0.27
0.0596	0.3027	1012.41	0.26
0.0603	0.3998	1016.11	0.27
0.0606	0.1025	1004.53	0.26
0.0612	0.2035	1008.63	0.26
0.0692	0.3998	1016.6	0.27
0.0703	0.3027	1013	0.26
0.0704	0.2035	1009.13	0.26
0.0706	0.1025	1005.07	0.26
0.0795	0.2035	1009.63	0.26
0.0801	0.1025	1005.59	0.26
0.0807	0.3027	1013.56	0.26
0.0809	0.3998	1017.24	0.27
0.0882	0.3998	1017.65	0.27
0.0888	0.3027	1014.01	0.26
0.0893	0.2035	1010.16	0.26
0.09	0.1025	1006.14	0.26

System: D-xylose + water + 1-methyl-3-octylimidazolium bromide; phases: Liquid
Fixed: Temperature, K = 298.15
Fixed: Pressure, kPa = 101
Property: Viscosity, Pa*s (Liquid); method: Capillary tube (Ostwald; Ubbelohde) method
Molality, mol/kg of D-xylose	Solvent: Molality, mol/kg of 1-methyl-3-octylimidazolium bromide	Viscosity, Pa*s	uncertainty
0	0.1018	0.0009647	1.44e-05
0	0.2004	0.0010246	1.46e-05
0	0.3037	0.001103	1.5e-05
0	0.3986	0.0011724	1.54e-05
0.0102	0.2004	0.0010273	1.47e-05
0.0103	0.3986	0.0011776	1.54e-05
0.0104	0.1018	0.0009662	1.44e-05
0.011	0.3037	0.0011044	1.5e-05
0.02	0.1018	0.0009699	1.44e-05
0.0202	0.2004	0.0010303	1.47e-05
0.0214	0.3037	0.0011095	1.51e-05
0.0303	0.1018	0.0009755	1.44e-05
0.0305	0.3037	0.0011147	1.51e-05
0.0305	0.3986	0.0011886	1.55e-05
0.0308	0.2004	0.0010348	1.47e-05
0.0404	0.1018	0.0009806	1.44e-05
0.0407	0.2004	0.0010405	1.47e-05
0.0408	0.3037	0.0011206	1.51e-05
0.0411	0.3986	0.0011951	1.55e-05
0.0497	0.2004	0.0010441	1.47e-05
0.05	0.3037	0.0011266	1.51e-05
0.0502	0.3986	0.0012024	1.55e-05
0.0514	0.1018	0.0009849	1.45e-05
0.0593	0.3037	0.0011303	1.52e-05
0.0602	0.1018	0.0009892	1.45e-05
0.0605	0.2004	0.0010506	1.48e-05
0.0613	0.3986	0.0012072	1.56e-05
0.0691	0.3037	0.0011348	1.52e-05
0.0698	0.1018	0.0009932	1.45e-05
0.0704	0.2004	0.0010542	1.48e-05
0.0711	0.3986	0.0012131	1.56e-05
0.0789	0.3037	0.0011397	1.52e-05
0.079	0.1018	0.0009959	1.45e-05
0.0798	0.2004	0.0010593	1.48e-05
0.0808	0.3986	0.0012186	1.56e-05
0.0892	0.1018	0.0010002	1.45e-05
0.0898	0.3037	0.0011466	1.52e-05
0.0903	0.2004	0.0010651	1.48e-05
0.0915	0.3986	0.0012238	1.56e-05

System: D-xylose + water + 1-methyl-3-octylimidazolium bromide; phases: Liquid
Fixed: Temperature, K = 298.15
Fixed: Pressure, kPa = 101
Property: Mass density, kg/m3 (Liquid); method: Vibrating tube method
Molality, mol/kg of D-xylose	Solvent: Molality, mol/kg of 1-methyl-3-octylimidazolium bromide	Mass density, kg/m3	uncertainty
0.0102	0.2004	1005.68	0.26
0.0103	0.3986	1012.34	0.26
0.0104	0.1018	1001.81	0.26
0.011	0.3037	1009.3	0.26
0.02	0.1018	1002.32	0.26
0.0202	0.2004	1006.21	0.26
0.0214	0.3037	1009.85	0.26
0.0303	0.1018	1002.87	0.26
0.0305	0.3037	1010.33	0.26
0.0305	0.3986	1013.38	0.26
0.0308	0.2004	1006.77	0.26
0.0404	0.1018	1003.42	0.26
0.0407	0.2004	1007.3	0.26
0.0408	0.3037	1010.89	0.26
0.0411	0.3986	1013.94	0.26
0.0497	0.2004	1007.79	0.26
0.05	0.3037	1011.37	0.26
0.0502	0.3986	1014.42	0.27
0.0514	0.1018	1004.01	0.26
0.0593	0.3037	1011.88	0.26
0.0602	0.1018	1004.49	0.26
0.0605	0.2004	1008.37	0.26
0.0613	0.3986	1015.02	0.27
0.0691	0.3037	1012.41	0.26
0.0698	0.1018	1005.01	0.26
0.0704	0.2004	1008.91	0.26
0.0711	0.3986	1015.53	0.27
0.0789	0.3037	1012.92	0.26
0.079	0.1018	1005.51	0.26
0.0798	0.2004	1009.41	0.26
0.0808	0.3986	1016.06	0.27
0.0892	0.1018	1006.07	0.26
0.0898	0.3037	1013.53	0.26
0.0903	0.2004	1009.99	0.26
0.0915	0.3986	1016.65	0.27

System: D-xylose + water + 1-decyl-3-methylimidazolium bromide; phases: Liquid
Fixed: Temperature, K = 298.15
Fixed: Pressure, kPa = 101
Property: Viscosity, Pa*s (Liquid); method: Capillary tube (Ostwald; Ubbelohde) method
Molality, mol/kg of D-xylose	Solvent: Molality, mol/kg of 1-decyl-3-methylimidazolium bromide	Viscosity, Pa*s	uncertainty
0	0.1008	0.0009916	1.45e-05
0	0.199	0.0011078	1.5e-05
0	0.303	0.0012429	1.58e-05
0	0.3985	0.0013863	1.66e-05
0.0103	0.1008	0.0009976	1.45e-05
0.0105	0.199	0.0011116	1.51e-05
0.0109	0.303	0.0012473	1.58e-05
0.0114	0.3985	0.001391	1.66e-05
0.0199	0.303	0.0012544	1.58e-05
0.0207	0.1008	0.0010013	1.45e-05
0.0209	0.199	0.0011164	1.51e-05
0.0218	0.3985	0.0013982	1.66e-05
0.03	0.303	0.0012615	1.59e-05
0.0306	0.3985	0.0014045	1.67e-05
0.0307	0.1008	0.001005	1.46e-05
0.0308	0.199	0.0011232	1.51e-05
0.0399	0.199	0.0011286	1.52e-05
0.0401	0.303	0.0012688	1.59e-05
0.0407	0.1008	0.0010122	1.46e-05
0.0408	0.3985	0.0014089	1.67e-05
0.0494	0.3985	0.0014181	1.68e-05
0.0502	0.199	0.0011333	1.52e-05
0.0508	0.1008	0.001018	1.46e-05
0.0511	0.303	0.0012762	1.59e-05
0.0586	0.199	0.0011363	1.52e-05
0.0598	0.3985	0.0014265	1.68e-05
0.0603	0.1008	0.0010212	1.46e-05
0.0604	0.303	0.0012805	1.6e-05
0.0695	0.199	0.0011425	1.52e-05
0.0701	0.303	0.0012856	1.6e-05
0.0702	0.3985	0.0014333	1.69e-05
0.0713	0.1008	0.0010231	1.46e-05
0.0798	0.303	0.0012922	1.6e-05
0.0802	0.199	0.0011486	1.53e-05
0.0805	0.1008	0.0010301	1.47e-05
0.081	0.3985	0.001441	1.69e-05
0.0905	0.303	0.0012999	1.61e-05
0.0905	0.3985	0.0014494	1.7e-05
0.0907	0.1008	0.0010373	1.47e-05
0.0909	0.199	0.001158	1.53e-05

System: D-xylose + water + 1-decyl-3-methylimidazolium bromide; phases: Liquid
Fixed: Temperature, K = 298.15
Fixed: Pressure, kPa = 101
Property: Mass density, kg/m3 (Liquid); method: Vibrating tube method
Molality, mol/kg of D-xylose	Solvent: Molality, mol/kg of 1-decyl-3-methylimidazolium bromide	Mass density, kg/m3	uncertainty
0.0103	0.1008	1000.96	0.25
0.0105	0.199	1003.91	0.26
0.0109	0.303	1006.87	0.26
0.0114	0.3985	1009.46	0.26
0.0199	0.303	1007.35	0.26
0.0207	0.1008	1001.51	0.26
0.0209	0.199	1004.46	0.26
0.0218	0.3985	1010	0.26
0.03	0.303	1007.88	0.26
0.0306	0.3985	1010.46	0.26
0.0307	0.1008	1002.05	0.26
0.0308	0.199	1004.99	0.26
0.0399	0.199	1005.48	0.26
0.0401	0.303	1008.42	0.26
0.0407	0.1008	1002.58	0.26
0.0408	0.3985	1011	0.26
0.0494	0.3985	1011.44	0.26
0.0502	0.199	1006.03	0.26
0.0508	0.1008	1003.12	0.26
0.0511	0.303	1009.01	0.26
0.0586	0.199	1006.48	0.26
0.0598	0.3985	1012	0.26
0.0603	0.1008	1003.64	0.26
0.0604	0.303	1009.51	0.26
0.0695	0.199	1007.07	0.26
0.0701	0.303	1010.04	0.26
0.0702	0.3985	1012.56	0.26
0.0713	0.1008	1004.24	0.26
0.0798	0.303	1010.57	0.26
0.0802	0.199	1007.65	0.26
0.0805	0.1008	1004.74	0.26
0.081	0.3985	1013.15	0.26
0.0905	0.303	1011.14	0.26
0.0905	0.3985	1013.65	0.26
0.0907	0.1008	1005.3	0.26
0.0909	0.199	1008.24	0.26
