Measured thermophysical data. Temperature Dependence of Physical Properties of Amino Acid Ionic  Liquid Surfactants
Source: J. Chem. Eng. Data, 2012, 10.1021/je200788z
Compound 1: L-alanine, 1-methylethyl ester, dodecyl sulfate (1:1), C18H39NO6S, InChI=1S/C12H26O4S.C6H13NO2/c1-2-3-4-5-6-7-8-9-10-11-12-16-17(13,14)15;1-4(2)9-6(8)5(3)7/h2-12H2,1H3,(H,13,14,15);4-5H,7H2,1-3H3/t;5-/m.0/s1
Compound 2: 2-isopropoxy-2-oxoethan-1-aminium dodecyl sulfate, C17H37NO6S, InChI=1S/C12H26O4S.C5H11NO2/c1-2-3-4-5-6-7-8-9-10-11-12-16-17(13,14)15;1-4(2)8-5(7)3-6/h2-12H2,1H3,(H,13,14,15);4H,3,6H2,1-2H3
Compound 3: (S)-1,5-diisopropoxy-1,5-dioxopentan-2-aminium dodecyl sulfate, C23H47NO8S, InChI=1S/C12H26O4S.C11H21NO4/c1-2-3-4-5-6-7-8-9-10-11-12-16-17(13,14)15;1-7(2)15-10(13)6-5-9(12)11(14)16-8(3)4/h2-12H2,1H3,(H,13,14,15);7-9H,5-6,12H2,1-4H3/t;9-/m.0/s1
Compound 4: (S)-1-isopropoxy-3-methyl-1-oxobutan-2-aminium dodecyl sulfate, C20H43NO6S, InChI=1S/C12H26O4S.C8H17NO2/c1-2-3-4-5-6-7-8-9-10-11-12-16-17(13,14)15;1-5(2)7(9)8(10)11-6(3)4/h2-12H2,1H3,(H,13,14,15);5-7H,9H2,1-4H3/t;7-/m.0/s1
Compound 5: (S)-2-(isopropoxycarbonyl)pyrrolidin-1-ium dodecyl sulfate, C20H41NO6S, InChI=1S/C12H26O4S.C8H15NO2/c1-2-3-4-5-6-7-8-9-10-11-12-16-17(13,14)15;1-6(2)11-8(10)7-4-3-5-9-7/h2-12H2,1H3,(H,13,14,15);6-7,9H,3-5H2,1-2H3/t;7-/m.0/s1
Compound 6: (S)-1-isobutoxy-1-oxopropan-2-aminium dodecyl sulfate, C19H41NO6S, InChI=1S/C12H26O4S.C7H15NO2/c1-2-3-4-5-6-7-8-9-10-11-12-16-17(13,14)15;1-5(2)4-10-7(9)6(3)8/h2-12H2,1H3,(H,13,14,15);5-6H,4,8H2,1-3H3/t;6-/m.0/s1
Compound 7: 2-isobutoxy-2-oxoethan-1-aminium dodecyl sulfate, C18H39NO6S, InChI=1S/C12H26O4S.C6H13NO2/c1-2-3-4-5-6-7-8-9-10-11-12-16-17(13,14)15;1-5(2)4-9-6(8)3-7/h2-12H2,1H3,(H,13,14,15);5H,3-4,7H2,1-2H3
Compound 8: (S)-1,5-diisobutoxy-1,5-dioxopentan-2-aminium dodecyl sulfate, C25H51NO8S, InChI=1S/C13H25NO4.C12H26O4S/c1-9(2)7-17-12(15)6-5-11(14)13(16)18-8-10(3)4;1-2-3-4-5-6-7-8-9-10-11-12-16-17(13,14)15/h9-11H,5-8,14H2,1-4H3;2-12H2,1H3,(H,13,14,15)/t11-;/m0./s1
Compound 9: isobutyl L-valinate dodecyl sulfate, C21H45NO6S, InChI=1S/C12H26O4S.C9H19NO2/c1-2-3-4-5-6-7-8-9-10-11-12-16-17(13,14)15;1-6(2)5-12-9(11)8(10)7(3)4/h2-12H2,1H3,(H,13,14,15);6-8H,5,10H2,1-4H3/t;8-/m.0/s1
Compound 10: (S)-2-(isobutoxycarbonyl)pyrrolidinium dodecyl sulfate, C21H43NO6S, InChI=1S/C12H26O4S.C9H17NO2/c1-2-3-4-5-6-7-8-9-10-11-12-16-17(13,14)15;1-7(2)6-12-9(11)8-4-3-5-10-8/h2-12H2,1H3,(H,13,14,15);7-8,10H,3-6H2,1-2H3/t;8-/m.0/s1

System: L-alanine, 1-methylethyl ester, dodecyl sulfate (1:1); phases: Liquid
Fixed: Pressure, kPa = 101.325
Property: Refractive index (Na D-line) (Liquid); method: Standard Abbe refractometry
Temperature, K	Refractive index (Na D-line)	uncertainty
288.15	1.4542	0.0011
293.15	1.4525	0.0011
298.15	1.4512	0.0011
303.15	1.4498	0.0011
308.15	1.448	0.0011
313.15	1.4466	0.0011
318.15	1.4449	0.0011
323.15	1.4434	0.0011
328.15	1.4418	0.0011
333.15	1.4404	0.0011
338.15	1.4387	0.0011
343.15	1.4371	0.0011

System: L-alanine, 1-methylethyl ester, dodecyl sulfate (1:1); phases: Liquid
Fixed: Pressure, kPa = 101.325
Property: Speed of sound, m/s (Liquid); method: Sing-around technique in a fixed-path interferometer
Temperature, K	Speed of sound, m/s	uncertainty
288.15	1432.3	5.1
293.15	1416.7	5
298.15	1401.4	5
303.15	1386.3	5
308.15	1371.3	5
313.15	1356.3	5
318.15	1341.3	5
323.15	1325.9	5
328.15	1310.4	5
333.15	1295.2	5
338.15	1280.2	5
343.15	1266.3	5

System: L-alanine, 1-methylethyl ester, dodecyl sulfate (1:1); phases: Liquid
Fixed: Pressure, kPa = 101.325
Property: Mass density, kg/m3 (Liquid); method: Vibrating tube method
Temperature, K	Mass density, kg/m3	uncertainty
288.15	1055.22	6.03
293.15	1050.89	5.98
298.15	1046.87	5.93
303.15	1043.07	5.88
308.15	1039.22	5.84
313.15	1035.31	5.79
318.15	1031.47	5.75
323.15	1027.82	5.71
328.15	1024.17	5.67
333.15	1020.52	5.63
338.15	1016.89	5.58
343.15	1013.23	5.54

System: 2-isopropoxy-2-oxoethan-1-aminium dodecyl sulfate; phases: Liquid
Fixed: Pressure, kPa = 101.325
Property: Refractive index (Na D-line) (Liquid); method: Standard Abbe refractometry
Temperature, K	Refractive index (Na D-line)	uncertainty
303.15	1.463	0.0011
308.15	1.4603	0.0011
313.15	1.4576	0.0011
318.15	1.4549	0.0011
323.15	1.4529	0.0011
328.15	1.4497	0.0011
333.15	1.4465	0.0011
338.15	1.4441	0.0011
343.15	1.4414	0.0011

System: 2-isopropoxy-2-oxoethan-1-aminium dodecyl sulfate; phases: Liquid
Fixed: Pressure, kPa = 101.325
Property: Speed of sound, m/s (Liquid); method: Sing-around technique in a fixed-path interferometer
Temperature, K	Speed of sound, m/s	uncertainty
303.15	1373.4	5
308.15	1355.1	5
313.15	1337.6	5
318.15	1320.9	5
323.15	1305	5
328.15	1289.6	5
333.15	1274.6	5
338.15	1259.9	5
343.15	1245.8	5

System: 2-isopropoxy-2-oxoethan-1-aminium dodecyl sulfate; phases: Liquid
Fixed: Pressure, kPa = 101.325
Property: Mass density, kg/m3 (Liquid); method: Vibrating tube method
Temperature, K	Mass density, kg/m3	uncertainty
303.15	1025.14	5.68
308.15	1021.37	5.64
313.15	1017.68	5.59
318.15	1014.16	5.55
323.15	1010.65	5.51
328.15	1007.14	5.47
333.15	1003.63	5.44
338.15	1000.12	5.4
343.15	996.58	5.36

System: (S)-1,5-diisopropoxy-1,5-dioxopentan-2-aminium dodecyl sulfate; phases: Liquid
Fixed: Pressure, kPa = 101.325
Property: Refractive index (Na D-line) (Liquid); method: Standard Abbe refractometry
Temperature, K	Refractive index (Na D-line)	uncertainty
288.15	1.4575	0.0011
293.15	1.4559	0.0011
298.15	1.4542	0.0011
303.15	1.4528	0.0011
308.15	1.4509	0.0011
313.15	1.4493	0.0011
318.15	1.4476	0.0011
323.15	1.4461	0.0011
328.15	1.4442	0.0011
333.15	1.4429	0.0011
338.15	1.441	0.0011
343.15	1.4392	0.00106

System: (S)-1,5-diisopropoxy-1,5-dioxopentan-2-aminium dodecyl sulfate; phases: Liquid
Fixed: Pressure, kPa = 101.325
Property: Speed of sound, m/s (Liquid); method: Sing-around technique in a fixed-path interferometer
Temperature, K	Speed of sound, m/s	uncertainty
288.15	1439.7	5.1
293.15	1412.8	5.1
298.15	1389	5
303.15	1367.6	5
308.15	1347.9	5
313.15	1329.5	5
318.15	1312	5
323.15	1295.3	5
328.15	1279.2	5
333.15	1263.5	5
338.15	1248.3	5
343.15	1233.6	5

System: (S)-1,5-diisopropoxy-1,5-dioxopentan-2-aminium dodecyl sulfate; phases: Liquid
Fixed: Pressure, kPa = 101.325
Property: Mass density, kg/m3 (Liquid); method: Vibrating tube method
Temperature, K	Mass density, kg/m3	uncertainty
288.15	1057.9	6.1
293.15	1054.11	6.01
298.15	1050.31	5.97
303.15	1046.47	5.92
308.15	1042.57	5.88
313.15	1038.6	5.83
318.15	1034.81	5.79
323.15	1031.13	5.75
328.15	1027.46	5.7
333.15	1023.79	5.66
338.15	1021.2	5.6
343.15	1016.44	5.58

System: (S)-1-isopropoxy-3-methyl-1-oxobutan-2-aminium dodecyl sulfate; phases: Liquid
Fixed: Pressure, kPa = 101.325
Property: Refractive index (Na D-line) (Liquid); method: Standard Abbe refractometry
Temperature, K	Refractive index (Na D-line)	uncertainty
288.15	1.4555	0.0011
293.15	1.4541	0.0011
298.15	1.4527	0.0011
303.15	1.4514	0.0011
308.15	1.4495	0.0011
313.15	1.4483	0.0011
318.15	1.4465	0.0011
323.15	1.445	0.0011
328.15	1.4434	0.0011
333.15	1.4419	0.0011
338.15	1.4403	0.0011
343.15	1.4388	0.0011

System: (S)-1-isopropoxy-3-methyl-1-oxobutan-2-aminium dodecyl sulfate; phases: Liquid
Fixed: Pressure, kPa = 101.325
Property: Speed of sound, m/s (Liquid); method: Sing-around technique in a fixed-path interferometer
Temperature, K	Speed of sound, m/s	uncertainty
288.15	1438.4	5.1
293.15	1418.5	5.1
298.15	1400.5	5
303.15	1382.9	5
308.15	1365.9	5
313.15	1349.4	5
318.15	1333.2	5
323.15	1317.4	5
328.15	1301.9	5
333.15	1286.6	5
338.15	1270.4	5
343.15	1254.9	5

System: (S)-1-isopropoxy-3-methyl-1-oxobutan-2-aminium dodecyl sulfate; phases: Liquid
Fixed: Pressure, kPa = 101.325
Property: Mass density, kg/m3 (Liquid); method: Vibrating tube method
Temperature, K	Mass density, kg/m3	uncertainty
288.15	1033.35	5.77
293.15	1029.74	5.73
298.15	1026.11	5.69
303.15	1022.44	5.65
308.15	1018.71	5.61
313.15	1014.93	5.56
318.15	1011.36	5.52
323.15	1007.86	5.48
328.15	1004.37	5.44
333.15	1000.88	5.41
338.15	997.39	5.37
343.15	993.9	5.3

System: (S)-2-(isopropoxycarbonyl)pyrrolidin-1-ium dodecyl sulfate; phases: Liquid
Fixed: Pressure, kPa = 101.325
Property: Refractive index (Na D-line) (Liquid); method: Standard Abbe refractometry
Temperature, K	Refractive index (Na D-line)	uncertainty
288.15	1.4575	0.0011
293.15	1.4559	0.0011
298.15	1.4542	0.0011
303.15	1.4525	0.0011
308.15	1.451	0.0011
313.15	1.4492	0.0011
318.15	1.4478	0.0011
323.15	1.4461	0.0011
328.15	1.4446	0.0011
333.15	1.4432	0.0011
338.15	1.4414	0.0011
343.15	1.4398	0.0011

System: (S)-2-(isopropoxycarbonyl)pyrrolidin-1-ium dodecyl sulfate; phases: Liquid
Fixed: Pressure, kPa = 101.325
Property: Speed of sound, m/s (Liquid); method: Sing-around technique in a fixed-path interferometer
Temperature, K	Speed of sound, m/s	uncertainty
288.15	1455.5	5.1
293.15	1436.8	5.1
298.15	1419.2	5.1
303.15	1402.4	5
308.15	1386.3	5
313.15	1370.7	5
318.15	1355.5	5
323.15	1340.6	5
328.15	1326	5
333.15	1311.7	5
338.15	1297.6	5
343.15	1284	5

System: (S)-2-(isopropoxycarbonyl)pyrrolidin-1-ium dodecyl sulfate; phases: Liquid
Fixed: Pressure, kPa = 101.325
Property: Mass density, kg/m3 (Liquid); method: Vibrating tube method
Temperature, K	Mass density, kg/m3	uncertainty
288.15	1054.33	6.02
293.15	1050.45	5.97
298.15	1046.8	5.93
303.15	1043.15	5.89
308.15	1039.52	5.84
313.15	1035.89	5.8
318.15	1032.27	5.76
323.15	1028.73	5.72
328.15	1025.22	5.68
333.15	1021.7	5.64
338.15	1018.2	5.6
343.15	1014.69	5.56

System: (S)-1-isobutoxy-1-oxopropan-2-aminium dodecyl sulfate; phases: Liquid
Fixed: Pressure, kPa = 101.325
Property: Refractive index (Na D-line) (Liquid); method: Standard Abbe refractometry
Temperature, K	Refractive index (Na D-line)	uncertainty
288.15	1.456	0.0011
293.15	1.454	0.0011
298.15	1.452	0.0011
303.15	1.45	0.0011
308.15	1.4479	0.0011
313.15	1.4458	0.0011
318.15	1.4437	0.0011
323.15	1.4418	0.0011
328.15	1.4397	0.0011
333.15	1.4377	0.0011
338.15	1.4354	0.0011
343.15	1.4336	0.0011

System: (S)-1-isobutoxy-1-oxopropan-2-aminium dodecyl sulfate; phases: Liquid
Fixed: Pressure, kPa = 101.325
Property: Speed of sound, m/s (Liquid); method: Sing-around technique in a fixed-path interferometer
Temperature, K	Speed of sound, m/s	uncertainty
288.15	1447.6	5.1
293.15	1423.6	5.1
298.15	1401.9	5
303.15	1381.6	5
308.15	1362.5	5
313.15	1343.9	5
318.15	1325.8	5
323.15	1308.1	5
328.15	1291.2	5
333.15	1275.8	5
338.15	1261	5
343.15	1246.6	5

System: (S)-1-isobutoxy-1-oxopropan-2-aminium dodecyl sulfate; phases: Liquid
Fixed: Pressure, kPa = 101.325
Property: Mass density, kg/m3 (Liquid); method: Vibrating tube method
Temperature, K	Mass density, kg/m3	uncertainty
288.15	1049.18	5.96
293.15	1045.48	5.91
298.15	1041.75	5.87
303.15	1038.02	5.83
308.15	1034.13	5.78
313.15	1030.13	5.74
318.15	1026.31	5.69
323.15	1022.6	5.65
328.15	1019.08	5.61
333.15	1015.6	5.57
338.15	1012.14	5.53
343.15	1008.75	5.49

System: 2-isobutoxy-2-oxoethan-1-aminium dodecyl sulfate; phases: Liquid
Fixed: Pressure, kPa = 101.325
Property: Refractive index (Na D-line) (Liquid); method: Standard Abbe refractometry
Temperature, K	Refractive index (Na D-line)	uncertainty
303.15	1.4624	0.0011
308.15	1.4592	0.0011
313.15	1.456	0.0011
318.15	1.4527	0.0011
323.15	1.4494	0.0011
328.15	1.4462	0.0011
333.15	1.443	0.0011
338.15	1.4397	0.0011
343.15	1.4365	0.0011

System: 2-isobutoxy-2-oxoethan-1-aminium dodecyl sulfate; phases: Liquid
Fixed: Pressure, kPa = 101.325
Property: Speed of sound, m/s (Liquid); method: Sing-around technique in a fixed-path interferometer
Temperature, K	Speed of sound, m/s	uncertainty
303.15	1372.1	5
308.15	1355.2	5
313.15	1339	5
318.15	1323	5
323.15	1307.6	5
328.15	1292.5	5
333.15	1277.6	5
338.15	1263	5
343.15	1248.7	5

System: 2-isobutoxy-2-oxoethan-1-aminium dodecyl sulfate; phases: Liquid
Fixed: Pressure, kPa = 101.325
Property: Mass density, kg/m3 (Liquid); method: Vibrating tube method
Temperature, K	Mass density, kg/m3	uncertainty
303.15	1013.62	5.55
308.15	1009.88	5.51
313.15	1006.14	5.46
318.15	1002.38	5.42
323.15	998.71	5.38
328.15	995.15	5.35
333.15	991.89	5.31
338.15	988.22	5.27
343.15	984.53	5.24

System: (S)-1,5-diisobutoxy-1,5-dioxopentan-2-aminium dodecyl sulfate; phases: Liquid
Fixed: Pressure, kPa = 101.325
Property: Refractive index (Na D-line) (Liquid); method: Standard Abbe refractometry
Temperature, K	Refractive index (Na D-line)	uncertainty
323.15	1.4472	0.0011
328.15	1.4453	0.0011
333.15	1.4432	0.0011
338.15	1.4414	0.0011
343.15	1.4393	0.0011

System: (S)-1,5-diisobutoxy-1,5-dioxopentan-2-aminium dodecyl sulfate; phases: Liquid
Fixed: Pressure, kPa = 101.325
Property: Speed of sound, m/s (Liquid); method: Sing-around technique in a fixed-path interferometer
Temperature, K	Speed of sound, m/s	uncertainty
323.15	1330.6	5
328.15	1314.4	5
333.15	1299.9	5
338.15	1284.2	5
343.15	1270.5	5

System: (S)-1,5-diisobutoxy-1,5-dioxopentan-2-aminium dodecyl sulfate; phases: Liquid
Fixed: Pressure, kPa = 101.325
Property: Mass density, kg/m3 (Liquid); method: Vibrating tube method
Temperature, K	Mass density, kg/m3	uncertainty
323.15	1014.45	5.56
328.15	1010.78	5.52
333.15	1007.13	5.47
338.15	1003.54	5.43
343.15	1000	5.4

System: isobutyl L-valinate dodecyl sulfate; phases: Liquid
Fixed: Pressure, kPa = 101.325
Property: Refractive index (Na D-line) (Liquid); method: Standard Abbe refractometry
Temperature, K	Refractive index (Na D-line)	uncertainty
288.15	1.4568	0.0011
293.15	1.4555	0.0011
298.15	1.4538	0.0011
303.15	1.4519	0.0011
308.15	1.4505	0.0011
313.15	1.4488	0.0011
318.15	1.4471	0.0011
323.15	1.4455	0.0011
328.15	1.4438	0.0011
333.15	1.4422	0.0011
338.15	1.4406	0.0011
343.15	1.439	0.0011

System: isobutyl L-valinate dodecyl sulfate; phases: Liquid
Fixed: Pressure, kPa = 101.325
Property: Speed of sound, m/s (Liquid); method: Sing-around technique in a fixed-path interferometer
Temperature, K	Speed of sound, m/s	uncertainty
288.15	1434.4	5.1
293.15	1421.3	5.1
298.15	1408.6	5
303.15	1394.6	5
308.15	1379.9	5
313.15	1365.5	5
318.15	1350.9	5
323.15	1335.5	5
328.15	1318.1	5
333.15	1299.9	5
338.15	1275	5
343.15	1249.5	5

System: isobutyl L-valinate dodecyl sulfate; phases: Liquid
Fixed: Pressure, kPa = 101.325
Property: Speed of sound, m/s (Liquid); method: Sing-around technique in a fixed-path interferometer
Temperature, K	Speed of sound, m/s	uncertainty
288.15	1.01682	0.00558
293.15	1.01298	0.00554
298.15	1.00929	0.0055
303.15	1.00572	0.00546
308.15	1.00215	0.00542
313.15	0.99857	0.00538
318.15	0.99499	0.00534
323.15	0.99195	0.00531
328.15	0.98781	0.00527
333.15	0.98423	0.00523
338.15	0.9808	0.0052
343.15	0.97808	0.00517

System: (S)-2-(isobutoxycarbonyl)pyrrolidinium dodecyl sulfate; phases: Liquid
Fixed: Pressure, kPa = 101.325
Property: Refractive index (Na D-line) (Liquid); method: Standard Abbe refractometry
Temperature, K	Refractive index (Na D-line)	uncertainty
288.15	1.4648	0.0011
293.15	1.4623	0.0011
298.15	1.4598	0.0011
303.15	1.4574	0.0011
308.15	1.4549	0.0011
313.15	1.4524	0.0011
318.15	1.45	0.0011
323.15	1.4477	0.0011
328.15	1.4452	0.0011
333.15	1.4427	0.0011
338.15	1.4401	0.0011
343.15	1.4378	0.0011

System: (S)-2-(isobutoxycarbonyl)pyrrolidinium dodecyl sulfate; phases: Liquid
Fixed: Pressure, kPa = 101.325
Property: Speed of sound, m/s (Liquid); method: Sing-around technique in a fixed-path interferometer
Temperature, K	Speed of sound, m/s	uncertainty
288.15	1460.2	5.1
293.15	1445.2	5.1
298.15	1429.2	5.1
303.15	1413	5
308.15	1397.2	5
313.15	1381.5	5
318.15	1366.1	5
323.15	1349.1	5
328.15	1332.9	5
333.15	1316.8	5
338.15	1301.5	5
343.15	1286.2	5

System: (S)-2-(isobutoxycarbonyl)pyrrolidinium dodecyl sulfate; phases: Liquid
Fixed: Pressure, kPa = 101.325
Property: Mass density, kg/m3 (Liquid); method: Vibrating tube method
Temperature, K	Mass density, kg/m3	uncertainty
288.15	1043.22	5.89
293.15	1039.54	5.84
298.15	1035.88	5.8
303.15	1032.22	5.76
308.15	1028.57	5.72
313.15	1024.92	5.68
318.15	1021.27	5.63
323.15	1017.72	5.59
328.15	1014.21	5.55
333.15	1010.85	5.52
338.15	1007.61	5.48
343.15	1004.98	5.45
