Measured thermophysical data. Experimental Liquid Densities of n-Pentane, n-Octane, and n-Nonane and Their Binary Mixtures from (273.15 to 363.15) K at 0.1 MPa
Source: J. Chem. Eng. Data, 2011, 10.1021/je200373q
Compound 1: pentane, C5H12, InChI=1S/C5H12/c1-3-5-4-2/h3-5H2,1-2H3, purity 99%
Compound 2: octane, C8H18, InChI=1S/C8H18/c1-3-5-7-8-6-4-2/h3-8H2,1-2H3, purity 99%
Compound 3: nonane, C9H20, InChI=1S/C9H20/c1-3-5-7-9-8-6-4-2/h3-9H2,1-2H3, purity 99%

System: octane; phases: Liquid
Fixed: Pressure, kPa = 101.325
Property: Mass density, kg/m3 (Liquid); method: Vibrating tube method
Temperature, K	Mass density, kg/m3	uncertainty
273.15	718.25	0.25
278.15	714.31	0.25
283.15	710.34	0.25
288.15	706.35	0.25
293.15	702.35	0.25
298.15	698.34	0.25
303.15	694.3	0.25
308.15	690.24	0.25
313.15	686.17	0.25
318.15	682.06	0.25
323.15	677.94	0.25
328.15	673.79	0.25
333.15	669.61	0.26
338.15	665.4	0.26
343.15	661.16	0.26
348.15	656.88	0.26
353.15	652.57	0.26
358.15	648.23	0.26
363.15	643.83	0.26

System: nonane; phases: Liquid
Fixed: Pressure, kPa = 101.325
Property: Mass density, kg/m3 (Liquid); method: Vibrating tube method
Temperature, K	Mass density, kg/m3	uncertainty
273.15	732.83	0.25
278.15	729.01	0.25
283.15	725.16	0.25
288.15	721.32	0.25
293.15	717.45	0.25
298.15	713.58	0.25
303.15	709.69	0.25
308.15	705.78	0.25
313.15	701.86	0.25
318.15	697.91	0.25
323.15	693.95	0.25
328.15	689.97	0.25
333.15	685.97	0.25
338.15	681.94	0.25
343.15	677.88	0.25
348.15	673.91	0.25
353.15	669.71	0.26
358.15	665.58	0.26
363.15	661.14	0.26

System: pentane + octane; phases: Liquid
Fixed: Pressure, kPa = 101
Property: Mass density, kg/m3 (Liquid); method: Vibrating tube method
Mole fraction of pentane	Temperature, K	Mass density, kg/m3	uncertainty
0.1002	278.15	709.35	0.31
0.1002	283.15	705.34	0.31
0.1002	288.15	701.31	0.32
0.1002	293.15	697.26	0.32
0.1002	298.15	693.19	0.32
0.1002	303.15	689.09	0.32
0.1002	308.15	684.97	0.32
0.1002	313.15	680.83	0.32
0.1002	318.16	676.64	0.33
0.1002	323.16	672.43	0.33
0.1002	328.16	668.2	0.33
0.1002	333.15	663.94	0.33
0.1002	338.15	659.63	0.34
0.1002	343.15	655.28	0.34
0.1002	348.15	650.9	0.34
0.1002	353.15	646.47	0.34
0.1002	358.15	642	0.35
0.1002	363.15	637.48	0.35
0.2008	278.15	704.52	0.33
0.2008	283.15	700.46	0.33
0.2008	288.15	696.38	0.34
0.2008	293.15	692.29	0.34
0.2008	298.15	688.16	0.34
0.2008	303.15	684.01	0.34
0.2008	308.15	679.84	0.34
0.2008	313.15	675.63	0.35
0.2008	318.16	671.38	0.35
0.2008	323.16	667.11	0.35
0.2008	328.16	662.81	0.36
0.2008	333.15	658.48	0.36
0.2008	338.15	654.1	0.36
0.2008	343.15	649.68	0.36
0.2008	348.15	645.21	0.37
0.2008	353.15	640.7	0.37
0.2008	358.15	636.15	0.37
0.2008	363.15	631.54	0.38
0.3023	278.15	698.24	0.35
0.3023	283.15	694.11	0.36
0.3023	288.15	689.94	0.36
0.3023	293.15	685.74	0.36
0.3023	298.15	681.52	0.36
0.3023	303.15	677.28	0.37
0.3023	308.15	673	0.37
0.3023	313.15	668.7	0.37
0.3023	318.16	664.36	0.38
0.3023	323.16	659.99	0.38
0.3023	328.16	655.59	0.38
0.3023	333.15	651.16	0.4
0.3023	338.15	646.68	0.39
0.3023	343.15	642.13	0.39
0.3023	348.15	637.57	0.4
0.3023	353.15	632.94	0.4
0.3023	358.15	628.27	0.41
0.3023	363.15	623.54	0.41
0.4019	278.15	691.87	0.36
0.4019	283.15	687.66	0.37
0.4019	288.15	683.43	0.37
0.4019	293.15	679.16	0.37
0.4019	298.15	674.87	0.37
0.4019	303.15	670.54	0.38
0.4019	308.15	666.19	0.38
0.4019	313.15	661.8	0.38
0.4019	318.16	657.38	0.38
0.4019	323.16	652.92	0.39
0.4019	328.16	648.42	0.39
0.5001	278.15	685.19	0.38
0.5001	283.15	680.91	0.38
0.5001	288.15	676.6	0.38
0.5001	293.15	672.26	0.39
0.5001	298.15	667.88	0.39
0.5001	303.15	663.47	0.39
0.5001	308.15	659.03	0.39
0.5001	313.15	654.59	0.4
0.5001	318.16	650.06	0.4
0.5001	323.16	645.5	0.41
0.5001	328.16	640.9	0.41
0.5982	278.15	678	0.4
0.5982	283.15	673.65	0.4
0.5982	288.15	669.26	0.4
0.5982	293.15	664.83	0.41
0.5982	298.15	660.37	0.41
0.5982	303.15	655.87	0.41
0.5982	308.15	651.33	0.42
0.5982	313.15	646.75	0.42
0.5982	318.16	642.12	0.43
0.5982	323.16	637.45	0.43
0.5982	328.16	632.73	0.42
0.7022	278.15	669.63	0.42
0.7022	283.15	665.18	0.42
0.7022	288.15	660.68	0.43
0.7022	293.15	656.15	0.43
0.7022	298.15	651.58	0.44
0.7022	303.15	646.96	0.44
0.7022	308.15	642.31	0.44
0.7022	313.15	637.61	0.45
0.7022	318.16	632.85	0.45
0.7022	323.16	628.04	0.44
0.8003	278.15	660.99	0.45
0.8003	283.15	656.45	0.45
0.8003	288.15	651.85	0.46
0.8003	293.15	647.21	0.46
0.8003	298.15	642.52	0.46
0.8003	303.15	637.79	0.47
0.8003	308.15	633	0.47
0.8003	313.15	628.16	0.48
0.8003	318.16	623.27	0.47
0.8991	278.15	651.39	0.46
0.8991	283.15	646.73	0.47
0.8991	288.15	642.04	0.47
0.8991	293.15	637.29	0.48
0.8991	298.15	632.49	0.48
0.8991	303.15	627.64	0.49
0.8991	308.15	622.72	0.49
0.8991	313.15	617.96	0.49

System: pentane + nonane; phases: Liquid
Fixed: Pressure, kPa = 101
Property: Mass density, kg/m3 (Liquid); method: Vibrating tube method
Mole fraction of pentane	Temperature, K	Mass density, kg/m3	uncertainty
0.1034	273.15	727.17	0.34
0.1034	278.15	723.31	0.34
0.1034	283.15	719.43	0.34
0.1034	288.15	715.53	0.35
0.1034	293.15	711.62	0.35
0.1034	298.15	707.69	0.35
0.1034	303.15	703.75	0.35
0.1034	308.15	699.78	0.35
0.1034	313.15	695.79	0.36
0.1034	318.15	691.78	0.36
0.1034	323.15	687.74	0.36
0.1034	328.15	683.68	0.36
0.1034	333.15	679.6	0.37
0.1034	338.15	675.48	0.37
0.1034	343.15	671.34	0.37
0.1034	348.15	667.16	0.38
0.1034	353.15	662.95	0.38
0.1034	358.15	658.7	0.38
0.1034	363.15	654.42	0.39
0.205	273.15	721.15	0.35
0.205	278.15	717.24	0.35
0.205	283.15	713.31	0.35
0.205	288.15	709.35	0.35
0.205	293.15	705.38	0.36
0.205	298.15	701.39	0.36
0.205	303.15	697.38	0.36
0.205	308.15	693.35	0.36
0.205	313.15	689.3	0.37
0.205	318.15	685.21	0.37
0.205	323.15	681.1	0.37
0.205	328.15	676.97	0.37
0.205	333.15	672.8	0.38
0.205	338.15	668.6	0.38
0.205	343.15	664.37	0.38
0.205	348.15	660.1	0.39
0.205	353.15	655.79	0.39
0.205	358.15	651.45	0.39
0.205	363.15	647.07	0.4
0.3028	273.15	714.81	0.42
0.3028	278.15	710.84	0.37
0.3028	283.15	706.84	0.37
0.3028	288.15	702.82	0.37
0.3028	293.15	698.79	0.38
0.3028	298.15	694.73	0.38
0.3028	303.15	690.65	0.38
0.3028	308.15	686.54	0.38
0.3028	313.15	682.41	0.39
0.3028	318.15	678.25	0.39
0.3028	323.15	674.06	0.39
0.3028	328.15	669.83	0.4
0.3028	333.15	665.58	0.4
0.3028	338.15	661.28	0.4
0.3028	343.15	656.96	0.41
0.3028	348.15	652.59	0.41
0.3028	353.15	648.19	0.42
0.3028	358.15	643.74	0.41
0.3028	363.15	639.25	0.41
0.4006	273.15	707.86	0.39
0.4006	278.15	703.82	0.39
0.4006	283.15	699.75	0.39
0.4006	288.15	695.66	0.39
0.4006	293.15	691.54	0.4
0.4006	298.15	687.41	0.4
0.4006	303.15	683.24	0.4
0.4006	308.15	679.05	0.41
0.4006	313.15	674.83	0.41
0.4006	318.15	670.58	0.41
0.4006	323.15	666.29	0.42
0.4006	328.15	661.97	0.42
0.4006	333.15	657.61	0.43
0.4006	338.15	653.21	0.43
0.4006	343.15	648.78	0.42
0.4006	348.15	644.3	0.43
0.4006	353.15	639.79	0.43
0.5016	273.15	700	0.41
0.5016	278.15	695.88	0.41
0.5016	283.15	691.73	0.41
0.5016	288.15	687.56	0.42
0.5016	293.15	683.36	0.42
0.5016	298.15	679.13	0.42
0.5016	303.15	674.87	0.43
0.5016	308.15	670.58	0.43
0.5016	313.15	666.26	0.43
0.5016	318.15	661.9	0.44
0.5016	323.15	657.51	0.44
0.5016	328.15	653.07	0.45
0.5016	333.15	648.6	0.45
0.5016	338.15	644.08	0.46
0.5988	273.15	691.84	0.44
0.5988	278.15	687.64	0.44
0.5988	283.15	683.4	0.44
0.5988	288.15	679.14	0.45
0.5988	293.15	674.84	0.45
0.5988	298.15	670.52	0.46
0.5988	303.15	666.16	0.46
0.5988	308.15	661.76	0.46
0.5988	313.15	657.33	0.47
0.5988	318.15	652.86	0.47
0.5988	323.15	648.34	0.48
0.5988	328.15	643.78	0.48
0.5988	333.15	639.17	0.49
0.5988	338.15	634.51	0.47
0.6992	273.15	682.27	0.46
0.6992	278.15	677.96	0.47
0.6992	283.15	673.62	0.47
0.6992	288.15	669.25	0.47
0.6992	293.15	664.84	0.48
0.6992	298.15	660.39	0.48
0.6992	303.15	655.91	0.49
0.6992	308.15	651.39	0.49
0.6992	313.15	646.82	0.5
0.6992	318.15	642.21	0.5
0.6992	323.15	637.54	0.51
0.6992	328.15	632.82	0.52
0.6992	333.15	628.05	0.52
0.7993	273.15	672.39	0.52
0.7993	278.15	667.97	0.53
0.7993	283.15	663.51	0.53
0.7993	288.15	659.01	0.54
0.7993	293.15	654.47	0.55
0.7993	298.15	649.88	0.55
0.7993	303.15	645.26	0.56
0.7993	308.15	640.58	0.56
0.7993	313.15	635.85	0.57
0.7993	318.15	631.07	0.58
0.7993	323.15	626.24	0.52
0.7993	328.15	621.34	0.53
0.7993	333.15	616.38	0.53
0.8993	273.15	659.26	0.58
0.8993	278.15	654.69	0.59
0.8993	283.15	650.07	0.6
0.8993	288.15	645.41	0.6
0.8993	293.15	640.71	0.61
0.8993	298.15	635.96	0.61
0.8993	303.15	631.15	0.62
0.8993	308.15	626.28	0.63
0.8993	313.15	621.36	0.64
0.8993	318.15	616.37	0.64

System: octane + nonane; phases: Liquid
Fixed: Pressure, kPa = 101
Property: Mass density, kg/m3 (Liquid); method: Vibrating tube method
Mole fraction of octane	Temperature, K	Mass density, kg/m3	uncertainty
0.1017	273.15	731.51	0.25
0.1017	278.15	727.69	0.25
0.1017	283.15	723.84	0.25
0.1017	288.15	719.99	0.25
0.1017	293.15	716.12	0.25
0.1017	298.15	712.24	0.25
0.1017	303.15	708.34	0.25
0.1017	308.15	704.41	0.25
0.1017	313.15	700.48	0.26
0.1017	318.15	696.52	0.26
0.1017	323.15	692.53	0.26
0.1017	328.15	688.53	0.26
0.1017	333.15	684.5	0.26
0.1017	338.15	680.44	0.26
0.1017	343.15	676.36	0.26
0.1017	348.15	672.25	0.26
0.1017	353.15	668.11	0.26
0.1017	358.15	663.93	0.26
0.1017	363.15	659.72	0.26
0.2023	273.15	730.03	0.25
0.2023	278.15	726.2	0.25
0.2023	283.15	722.35	0.25
0.2023	288.15	718.48	0.25
0.2023	293.15	714.6	0.25
0.2023	298.15	710.7	0.25
0.2023	303.15	706.79	0.25
0.2023	308.15	702.86	0.25
0.2023	313.15	698.9	0.25
0.2023	318.15	694.93	0.26
0.2023	323.15	690.93	0.26
0.2023	328.15	686.91	0.26
0.2023	333.15	682.86	0.26
0.2023	338.15	678.78	0.26
0.2023	343.15	674.68	0.26
0.2023	348.15	670.55	0.26
0.2023	353.15	666.39	0.26
0.2023	358.15	662.18	0.26
0.2023	363.15	657.95	0.26
0.3016	273.15	728.78	0.25
0.3016	278.15	724.94	0.25
0.3016	283.15	721.07	0.25
0.3016	288.15	717.19	0.25
0.3016	293.15	713.29	0.25
0.3016	298.15	709.38	0.25
0.3016	303.15	705.46	0.25
0.3016	308.15	701.51	0.25
0.3016	313.15	697.54	0.25
0.3016	318.15	693.55	0.26
0.3016	323.15	689.53	0.26
0.3016	328.15	685.49	0.26
0.3016	333.15	681.43	0.26
0.3016	338.15	677.34	0.26
0.3016	343.15	673.22	0.26
0.3016	348.15	669.07	0.26
0.3016	353.15	664.88	0.26
0.3016	358.15	660.67	0.26
0.3016	363.15	656.41	0.26
0.4	273.15	727.43	0.25
0.4	278.15	723.57	0.25
0.4	283.15	719.7	0.25
0.4	288.15	715.8	0.25
0.4	293.15	711.9	0.25
0.4	298.15	707.97	0.25
0.4	303.15	704.03	0.26
0.4	308.15	700.07	0.26
0.4	313.15	696.08	0.26
0.4	318.15	692.08	0.26
0.4	323.15	688.05	0.26
0.4	328.15	683.99	0.26
0.4	333.15	679.91	0.26
0.4	338.15	675.8	0.26
0.4	343.15	671.66	0.26
0.4	348.15	667.5	0.26
0.4	353.15	663.29	0.26
0.4	358.15	659.05	0.26
0.4	363.15	654.78	0.27
0.4987	273.15	725.78	0.25
0.4987	278.15	721.91	0.25
0.4987	283.15	718.01	0.25
0.4987	288.15	714.11	0.25
0.4987	293.15	710.18	0.25
0.4987	298.15	706.24	0.25
0.4987	303.15	702.28	0.25
0.4987	308.15	698.3	0.26
0.4987	313.15	694.3	0.26
0.4987	318.15	690.27	0.26
0.4987	323.15	686.22	0.26
0.4987	328.15	682.15	0.26
0.4987	333.15	678.05	0.26
0.4987	338.15	673.91	0.26
0.4987	343.15	669.75	0.26
0.4987	348.15	665.56	0.26
0.4987	353.15	661.33	0.26
0.4987	358.15	657.07	0.26
0.4987	363.15	652.77	0.26
0.6006	273.15	724.52	0.25
0.6006	278.15	720.65	0.25
0.6006	283.15	716.75	0.25
0.6006	288.15	712.83	0.25
0.6006	293.15	708.9	0.25
0.6006	298.15	704.95	0.25
0.6006	303.15	700.97	0.25
0.6006	308.15	696.98	0.26
0.6006	313.15	692.97	0.26
0.6006	318.15	688.92	0.26
0.6006	323.15	684.87	0.26
0.6006	328.15	680.78	0.26
0.6006	333.15	676.66	0.26
0.6006	338.15	672.5	0.26
0.6006	343.15	668.33	0.26
0.6006	348.15	664.12	0.26
0.6006	353.15	659.87	0.26
0.6006	358.15	655.6	0.26
0.6006	363.15	651.27	0.26
0.7002	273.15	722.97	0.25
0.7002	278.15	719.08	0.25
0.7002	283.15	715.16	0.25
0.7002	288.15	711.22	0.25
0.7002	293.15	707.27	0.25
0.7002	298.15	703.31	0.26
0.7002	303.15	699.32	0.26
0.7002	308.15	695.31	0.26
0.7002	313.15	691.28	0.26
0.7002	318.15	687.22	0.26
0.7002	323.15	683.14	0.26
0.7002	328.15	679.03	0.26
0.7002	333.15	674.89	0.26
0.7002	338.15	670.73	0.26
0.7002	343.15	666.53	0.26
0.7002	348.15	662.3	0.26
0.7002	353.15	658.02	0.26
0.7002	358.15	653.72	0.27
0.7002	363.15	649.36	0.27
0.7986	273.15	721.5	0.25
0.7986	278.15	717.59	0.25
0.7986	283.15	713.66	0.25
0.7986	288.15	709.71	0.25
0.7986	293.15	705.75	0.25
0.7986	298.15	701.76	0.26
0.7986	303.15	697.75	0.26
0.7986	308.15	693.73	0.26
0.7986	313.15	689.68	0.26
0.7986	318.15	685.6	0.26
0.7986	323.15	681.5	0.26
0.7986	328.15	677.37	0.26
0.7986	333.15	673.22	0.26
0.7986	338.15	669.03	0.26
0.7986	343.15	664.81	0.26
0.7986	348.15	660.56	0.26
0.7986	353.15	656.27	0.26
0.7986	358.15	651.94	0.27
0.7986	363.15	647.56	0.27
0.8989	273.15	719.99	0.25
0.8989	278.15	716.07	0.25
0.8989	283.15	712.12	0.25
0.8989	288.15	708.16	0.25
0.8989	293.15	704.18	0.26
0.8989	298.15	700.18	0.26
0.8989	303.15	696.15	0.26
0.8989	308.15	692.11	0.26
0.8989	313.15	688.04	0.26
0.8989	318.15	683.95	0.26
0.8989	323.15	679.83	0.26
0.8989	328.15	675.69	0.26
0.8989	333.15	671.51	0.26
0.8989	338.15	667.3	0.26
0.8989	343.15	663.06	0.26
0.8989	348.15	658.78	0.26
0.8989	353.15	654.47	0.27
0.8989	358.15	650.1	0.27
0.8989	363.15	645.72	0.27
