Measured thermophysical data. Measurements and Modeling of High-Pressure Phase Behavior of the Carbon Dioxide + Pentan-1-ol Binary System
Source: J. Chem. Eng. Data, 2011, 10.1021/je200867n
Compound 1: carbon dioxide, CO2, InChI=1S/CO2/c2-1-3, purity 99.7%
Compound 2: pentan-1-ol, C5H12O, InChI=1S/C5H12O/c1-2-3-4-5-6/h6H,2-5H2,1H3, purity 99%

System: pentan-1-ol + carbon dioxide; phases: Liquid mixture 1, Liquid mixture 2, Gas
Property: Vapor or sublimation pressure, kPa (Liquid mixture 1); method: Closed cell (Static) method
Temperature, K	Vapor or sublimation pressure, kPa	uncertainty
315.95	8740	90
316	8750	90
316.05	8760	90
316.15	8780	90
316.2	8790	90
316.25	8800	90
316.3	8810	90
316.35	8820	90
316.4	8830	90
316.45	8840	90
316.5	8850	90

System: pentan-1-ol + carbon dioxide; phases: Liquid, Gas
Property: Vapor or sublimation pressure, kPa (Liquid); method: CCELL:UFactor:8
Mole fraction of carbon dioxide	Temperature, K	Vapor or sublimation pressure, kPa	uncertainty
0.0278	316.15	510	40
0.0358	293.15	520	30
0.0383	333.15	590	50
0.0394	303.15	600	40
0.0668	303.15	1000	40
0.0725	333.15	1410	60
0.0738	293.15	980	40
0.0782	316.15	1250	50
0.1301	316.15	2290	70
0.1388	333.15	2650	80
0.1504	303.15	2030	60
0.1572	293.15	1970	50
0.182	333.15	3380	90
0.2008	316.15	3230	90
0.2293	303.15	3000	80
0.2365	333.15	4550	120
0.2486	293.15	2920	80
0.2654	316.15	4300	110
0.299	303.15	4090	110
0.3144	333.15	5880	150
0.3328	316.15	5310	140
0.3668	303.15	4700	120
0.3832	293.15	4200	110
0.3927	333.15	7340	190
0.4089	316.15	6280	160
0.4583	293.15	4740	120
0.4638	333.15	8480	210
0.4823	316.15	7320	180
0.4843	303.15	5780	150
0.5507	333.15	9750	240
0.5509	303.15	6270	160
0.596	293.15	5230	130
0.6208	333.15	10670	270
0.7457	293.15	5420	140
0.7641	293.15	5450	140
0.8463	303.15	6740	170
0.8471	303.15	6750	170

System: pentan-1-ol + carbon dioxide; phases: Gas, Liquid
Property: Mole fraction of carbon dioxide (Gas); method: gravimetric method
Mole fraction of carbon dioxide	Temperature, K	Mole fraction of carbon dioxide	uncertainty
0.0278	316.15	0.9883	0.002
0.0358	293.15	0.9924	0.002
0.0383	333.15	0.9889	0.002
0.0394	303.15	0.9928	0.002
0.0668	303.15	0.9962	0.002
0.0725	333.15	0.9905	0.002
0.0738	293.15	0.996	0.002
0.0782	316.15	0.9937	0.002
0.1301	316.15	0.9969	0.002
0.1388	333.15	0.9926	0.002
0.1504	303.15	0.998	0.002
0.1572	293.15	0.9986	0.0014
0.182	333.15	0.9935	0.002
0.2008	316.15	0.9975	0.002
0.2293	303.15	0.9986	0.0014
0.2365	333.15	0.9931	0.002
0.2486	293.15	0.9989	0.0011
0.2654	316.15	0.9975	0.002
0.299	303.15	0.9988	0.0012
0.3144	333.15	0.9932	0.002
0.3328	316.15	0.9975	0.002
0.3668	303.15	0.9986	0.0014
0.3832	293.15	0.9988	0.0012
0.3927	333.15	0.9919	0.002
0.4089	316.15	0.9969	0.002
0.4583	293.15	0.9988	0.0012
0.4638	333.15	0.9903	0.002
0.4823	316.15	0.9959	0.002
0.4843	303.15	0.9982	0.0018
0.5507	333.15	0.9875	0.002
0.5509	303.15	0.9968	0.002
0.596	293.15	0.9986	0.0014
0.6208	333.15	0.9836	0.002
0.7457	293.15	0.998	0.002
0.7641	293.15	0.998	0.002
0.8463	303.15	0.9945	0.002
0.8471	303.15	0.9946	0.002
