Measured thermophysical data. Determination and Correlation of Vapor Liquid Equilibrium Data for the Ethyl Acetate + Hexamethyl Disiloxane System at 101.3 kPa
Source: J. Chem. Eng. Data, 2011, 10.1021/je2008445
Compound 1: hexamethyldisiloxane, C6H18OSi2, InChI=1S/C6H18OSi2/c1-8(2,3)7-9(4,5)6/h1-6H3, purity 99%
Compound 2: ethyl acetate, C4H8O2, InChI=1S/C4H8O2/c1-3-6-4(2)5/h3H2,1-2H3, purity 99%

System: hexamethyldisiloxane; phases: Liquid
Property: Refractive index (Na D-line) (Liquid); method: Standard Abbe refractometry
Temperature, K	Pressure, kPa	Refractive index (Na D-line)	uncertainty
298.15	101.325	1.3737	0.0005

System: hexamethyldisiloxane; phases: Liquid, Gas
Property: Vapor or sublimation pressure, kPa (Liquid); method: Ebulliometric method (Recirculating still)
Temperature, K	Vapor or sublimation pressure, kPa	uncertainty
372.73	101.325	1.5705375

System: ethyl acetate; phases: Liquid
Property: Refractive index (Na D-line) (Liquid); method: Standard Abbe refractometry
Temperature, K	Pressure, kPa	Refractive index (Na D-line)	uncertainty
298.15	101.325	1.3712	0.0005

System: ethyl acetate; phases: Liquid, Gas
Property: Vapor or sublimation pressure, kPa (Liquid); method: Ebulliometric method (Recirculating still)
Temperature, K	Vapor or sublimation pressure, kPa	uncertainty
350.23	101.325	1.5705375

System: hexamethyldisiloxane + ethyl acetate; phases: Liquid, Gas
Fixed: Pressure, kPa = 101.325
Property: Boiling temperature at pressure P, K (Liquid); method: Ebulliometric method (Recirculating still)
Mole fraction of hexamethyldisiloxane	Boiling temperature at pressure P, K	uncertainty
0	350.23	0.31
0.0241	350.27	0.32
0.0566	350.3	0.32
0.0844	350.49	0.32
0.1028	350.57	0.33
0.1605	350.77	0.32
0.2013	350.94	0.34
0.2378	351.13	0.33
0.2816	351.5	0.34
0.3178	351.74	0.37
0.3428	351.84	0.38
0.424	353.02	0.44
0.4537	353.69	0.44
0.5317	354.7	0.44
0.588	355.83	0.62
0.6332	357.46	0.62
0.7142	359.27	0.63
0.7878	361.67	0.82
0.8502	364.43	1.08
0.9206	368.52	1.15
1	372.73	0.31

System: hexamethyldisiloxane + ethyl acetate; phases: Gas, Liquid
Fixed: Pressure, kPa = 101.325
Property: Mole fraction of hexamethyldisiloxane (Gas); method: Chromatography
Mole fraction of hexamethyldisiloxane	Mole fraction of hexamethyldisiloxane	uncertainty
0	0	
0.0241	0.0251	0.0251
0.0566	0.0584	0.0276
0.0844	0.0801	0.0249
0.1028	0.0975	0.0238
0.1605	0.1264	0.0229
0.2013	0.1526	0.0242
0.2378	0.1707	0.0241
0.2816	0.2084	0.0246
0.3178	0.2294	0.0231
0.3428	0.2457	0.0223
0.424	0.2769	0.0213
0.4537	0.2888	0.0213
0.5317	0.3104	0.0222
0.588	0.3525	0.0261
0.6332	0.3943	0.0249
0.7142	0.4445	0.0269
0.7878	0.5287	0.0316
0.8502	0.6068	0.0436
0.9206	0.7821	0.0563
1	1	
