Measured thermophysical data. Solubility Measurement of Diclofenac Acid in the Supercritical CO2
Source: J. Chem. Eng. Data, 2012, 10.1021/je200012x
Compound 1: 4-hydroxy-2-methyl-N-2-pyridinyl-2H-1,2-benzothiazine-3-carboxamide 1,1-dioxide, C15H13N3O4S, InChI=1S/C15H13N3O4S/c1-18-13(15(20)17-12-8-4-5-9-16-12)14(19)10-6-2-3-7-11(10)23(18,21)22/h2-9,19H,1H3,(H,16,17,20)
Compound 2: (2-((2,6-dichlorophenyl)amino)phenyl)acetic acid, C14H11Cl2NO2, InChI=1S/C14H11Cl2NO2/c15-10-5-3-6-11(16)14(10)17-12-7-2-1-4-9(12)8-13(18)19/h1-7,17H,8H2,(H,18,19)
Compound 3: carbon dioxide, CO2, InChI=1S/CO2/c2-1-3, purity 99.8%

System: carbon dioxide + 4-hydroxy-2-methyl-N-2-pyridinyl-2H-1,2-benzothiazine-3-carboxamide 1,1-dioxide; phases: Fluid (supercritical or subcritical phases), Crystal
Fixed: Temperature, K = 312.15
Property: Amount ratio of solute to solvent (Fluid (supercritical or subcritical phases)); method: gravimetric
Pressure, kPa	Amount ratio of solute to solvent	uncertainty
10000	1.21e-05	1.7e-06
13000	1.92e-05	2.6e-06
16000	2.92e-05	4e-06
19000	4.23e-05	5.8e-06

System: carbon dioxide + (2-((2,6-dichlorophenyl)amino)phenyl)acetic acid; phases: Fluid (supercritical or subcritical phases), Crystal
Property: Amount ratio of solute to solvent (Fluid (supercritical or subcritical phases)); method: gravimetric
Temperature, K	Pressure, kPa	Amount ratio of solute to solvent	uncertainty
308.15	12000	4.01e-05	6.1e-06
308.15	16000	7.45e-05	1.61e-05
308.15	20000	0.000101	2.3e-05
308.15	24000	0.000123	2.8e-05
308.15	28000	0.000163	4.1e-05
308.15	32000	0.000168	4.6e-05
308.15	36000	0.000198	5.5e-05
308.15	40000	0.000223	6.7e-05
318.15	12000	5.23e-05	7.9e-06
318.15	16000	0.000134	2e-05
318.15	20000	0.000192	3.2e-05
318.15	24000	0.000238	4.7e-05
318.15	28000	0.000323	6.1e-05
318.15	32000	0.000378	7.6e-05
318.15	36000	0.000436	9.2e-05
318.15	40000	0.000521	0.000107
328.15	12000	2.34e-05	5.6e-06
328.15	16000	0.000153	2.2e-05
328.15	20000	0.000287	4.4e-05
328.15	24000	0.000464	7.6e-05
328.15	28000	0.000587	0.000101
328.15	32000	0.000721	0.000136
328.15	36000	0.000898	0.000171
328.15	40000	0.00101	0.0002
338.15	12000	2.35e-05	5.1e-06
338.15	16000	0.000156	2.4e-05
338.15	20000	0.000387	5.9e-05
338.15	24000	0.000654	9.9e-05
338.15	28000	0.000934	0.00015
338.15	32000	0.00131	0.00021
338.15	36000	0.00162	0.00027
338.15	40000	0.00198	0.00033
