Measured thermophysical data. Densities, Refractive Indices, Speeds of Sound, and Surface Tensions for Dilute Aqueous Solutions of 2-Methyl-1-propanol, Cyclopentanone, Cyclohexanone, Cyclohexanol, and Ethyl Acetoacetate at 298.15 K
Source: J. Chem. Eng. Data, 2011, 10.1021/je200468r
Compound 1: 2-methyl-1-propanol, C4H10O, InChI=1S/C4H10O/c1-4(2)3-5/h4-5H,3H2,1-2H3, purity 99.5%
Compound 2: cyclopentanone, C5H8O, InChI=1S/C5H8O/c6-5-3-1-2-4-5/h1-4H2, purity 99.5%
Compound 3: cyclohexanone, C6H10O, InChI=1S/C6H10O/c7-6-4-2-1-3-5-6/h1-5H2, purity 99.5%
Compound 4: cyclohexanol, C6H12O, InChI=1S/C6H12O/c7-6-4-2-1-3-5-6/h6-7H,1-5H2, purity 99%
Compound 5: water, H2O, InChI=1S/H2O/h1H2, purity 99.99%
Compound 6: ethyl 3-oxobutanoate, C6H10O3, InChI=1S/C6H10O3/c1-3-9-6(8)4-5(2)7/h3-4H2,1-2H3, purity 99%

System: 2-methyl-1-propanol; phases: Liquid
Property: Refractive index (Na D-line) (Liquid); method: Standard Abbe refractometry
Temperature, K	Pressure, kPa	Refractive index (Na D-line)	uncertainty
298.15	101.325	1.39373	0.00068

System: 2-methyl-1-propanol; phases: Liquid
Property: Mass density, kg/m3 (Liquid); method: Vibrating tube method
Temperature, K	Pressure, kPa	Mass density, kg/m3	uncertainty
298.15	101.325	797.851	0.149

System: 2-methyl-1-propanol; phases: Liquid
Property: Speed of sound, m/s (Liquid); method: Sing-around technique in a fixed-path interferometer
Temperature, K	Pressure, kPa	Speed of sound, m/s	uncertainty
298.15	101.325	1188.11	0.94

System: cyclopentanone; phases: Liquid
Property: Refractive index (Na D-line) (Liquid); method: Standard Abbe refractometry
Temperature, K	Pressure, kPa	Refractive index (Na D-line)	uncertainty
298.15	101.325	1.43476	0.00068

System: cyclopentanone; phases: Liquid
Property: Mass density, kg/m3 (Liquid); method: Vibrating tube method
Temperature, K	Pressure, kPa	Mass density, kg/m3	uncertainty
298.15	101.325	944.107	0.109

System: cyclopentanone; phases: Liquid
Property: Speed of sound, m/s (Liquid); method: Sing-around technique in a fixed-path interferometer
Temperature, K	Pressure, kPa	Speed of sound, m/s	uncertainty
298.15	101.325	1394.1	0.99

System: cyclohexanone; phases: Liquid
Property: Refractive index (Na D-line) (Liquid); method: Standard Abbe refractometry
Temperature, K	Pressure, kPa	Refractive index (Na D-line)	uncertainty
298.15	101.325	1.44837	0.00068

System: cyclohexanone; phases: Liquid
Property: Mass density, kg/m3 (Liquid); method: Vibrating tube method
Temperature, K	Pressure, kPa	Mass density, kg/m3	uncertainty
298.15	101.325	942.039	0.11

System: cyclohexanone; phases: Liquid
Property: Speed of sound, m/s (Liquid); method: Sing-around technique in a fixed-path interferometer
Temperature, K	Pressure, kPa	Speed of sound, m/s	uncertainty
298.15	101.325	1408	1

System: cyclohexanol; phases: Liquid
Property: Refractive index (Na D-line) (Liquid); method: Standard Abbe refractometry
Temperature, K	Pressure, kPa	Refractive index (Na D-line)	uncertainty
298.15	101.325	1.46449	0.0007

System: cyclohexanol; phases: Liquid
Property: Mass density, kg/m3 (Liquid); method: Vibrating tube method
Temperature, K	Pressure, kPa	Mass density, kg/m3	uncertainty
298.15	101.325	945.077	0.235

System: cyclohexanol; phases: Liquid
Property: Speed of sound, m/s (Liquid); method: Sing-around technique in a fixed-path interferometer
Temperature, K	Pressure, kPa	Speed of sound, m/s	uncertainty
298.15	101.325	1465.27	1.33

System: ethyl 3-oxobutanoate; phases: Liquid
Property: Refractive index (Na D-line) (Liquid); method: Standard Abbe refractometry
Temperature, K	Pressure, kPa	Refractive index (Na D-line)	uncertainty
298.15	101.325	1.4169	0.0007

System: ethyl 3-oxobutanoate; phases: Liquid
Property: Mass density, kg/m3 (Liquid); method: Vibrating tube method
Temperature, K	Pressure, kPa	Mass density, kg/m3	uncertainty
298.15	101.325	1023.479	0.253

System: ethyl 3-oxobutanoate; phases: Liquid
Property: Speed of sound, m/s (Liquid); method: Sing-around technique in a fixed-path interferometer
Temperature, K	Pressure, kPa	Speed of sound, m/s	uncertainty
298.15	101.325	1332.91	1.3

System: 2-methyl-1-propanol + water; phases: Liquid, Air at 1 atmosphere
Fixed: Temperature, K = 298.15
Property: Surface tension liquid-gas, N/m (Liquid); method: Drop volume
Mole fraction of 2-methyl-1-propanol	Surface tension liquid-gas, N/m	uncertainty
0.0002	0.06911	0.0029
0.0005	0.06478	0.00242
0.0008	0.06189	0.00177
0.0014	0.05685	0.00159
0.0017	0.05491	0.00131
0.0032	0.04838	0.00076
0.0046	0.04428	0.00053
0.0067	0.03961	0.00047
0.0077	0.03767	0.00036
0.0099	0.03459	0.00032
0.0124	0.0314	0.00028
0.014	0.03013	0.00023

System: 2-methyl-1-propanol + water; phases: Liquid
Fixed: Pressure, kPa = 101
Fixed: Temperature, K = 298.15
Property: Refractive index (Na D-line) (Liquid); method: Standard Abbe refractometry
Mole fraction of 2-methyl-1-propanol	Refractive index (Na D-line)	uncertainty
0.0002	1.33255	0.00068
0.0005	1.3327	0.00068
0.0008	1.33282	0.00068
0.0014	1.33308	0.00068
0.0017	1.33321	0.00068
0.0032	1.33378	0.00068
0.0046	1.33437	0.00068
0.0067	1.33521	0.00068
0.0077	1.33564	0.00068
0.0099	1.33655	0.00068
0.0124	1.33754	0.00068
0.014	1.33823	0.00068

System: 2-methyl-1-propanol + water; phases: Liquid, Liquid mixture 2
Property: Refractive index (Na D-line) (Liquid); method: Standard Abbe refractometry
Temperature, K	Pressure, kPa	Refractive index (Na D-line)	uncertainty
298.15	101	1.34105	0.00068

System: 2-methyl-1-propanol + water; phases: Liquid
Fixed: Pressure, kPa = 101
Fixed: Temperature, K = 298.15
Property: Speed of sound, m/s (Liquid); method: Sing-around technique in a fixed-path interferometer
Mole fraction of 2-methyl-1-propanol	Speed of sound, m/s	uncertainty
0.0002	1497.41	1.26
0.0005	1498.75	1.19
0.0008	1499.77	1.15
0.0014	1502.03	1.17
0.0017	1503.16	1.17
0.0032	1508.42	1.14
0.0046	1513.45	1.12
0.0067	1520.37	1.12
0.0077	1524.02	1.12
0.0099	1531.07	1.11
0.0124	1539.11	1.09
0.014	1543.53	1.06

System: 2-methyl-1-propanol + water; phases: Liquid
Fixed: Pressure, kPa = 101
Fixed: Temperature, K = 298.15
Property: Mass density, kg/m3 (Liquid); method: Vibrating tube method
Mole fraction of 2-methyl-1-propanol	Mass density, kg/m3	uncertainty
0.0002	996.913	0.168
0.0005	996.679	0.155
0.0008	996.486	0.15
0.0014	996.069	0.151
0.0017	995.867	0.148
0.0032	994.931	0.141
0.0046	994.035	0.136
0.0067	992.809	0.135
0.0077	992.181	0.131
0.0099	990.95	0.13
0.0124	989.513	0.127
0.014	988.7	0.12

System: 2-methyl-1-propanol + water; phases: Liquid, Liquid mixture 2
Property: Mole fraction of 2-methyl-1-propanol (Liquid); method: Index of refraction calibration data
Temperature, K	Pressure, kPa	Mole fraction of 2-methyl-1-propanol	uncertainty
298.15	101	0.0209	0.0002

System: cyclopentanone + water; phases: Liquid, Air at 1 atmosphere
Fixed: Temperature, K = 298.15
Property: Surface tension liquid-gas, N/m (Liquid); method: Drop volume
Mole fraction of cyclopentanone	Surface tension liquid-gas, N/m	uncertainty
0.0009	0.06812	0.00073
0.0017	0.06538	0.00055
0.0033	0.06209	0.00042
0.0062	0.05771	0.00031
0.0142	0.05093	0.00024
0.0302	0.04376	0.00021
0.0537	0.03849	0.00019
0.068	0.03657	0.00018

System: cyclopentanone + water; phases: Liquid
Fixed: Pressure, kPa = 101
Fixed: Temperature, K = 298.15
Property: Refractive index (Na D-line) (Liquid); method: Standard Abbe refractometry
Mole fraction of cyclopentanone	Refractive index (Na D-line)	uncertainty
0.0005	1.33279	0.00068
0.0012	1.33314	0.00068
0.0022	1.33368	0.00069
0.0027	1.33401	0.00068
0.0038	1.33456	0.00069
0.0044	1.33524	0.00069
0.0059	1.33587	0.00068
0.0079	1.33686	0.00068
0.0092	1.33744	0.00068
0.0144	1.34015	0.00068
0.0182	1.34216	0.00068
0.0232	1.34478	0.00068
0.0305	1.34803	0.00068
0.0394	1.35161	0.00068
0.0501	1.35641	0.00068
0.0564	1.35922	0.00068
0.0683	1.36333	0.00068

System: cyclopentanone + water; phases: Liquid, Liquid mixture 2
Property: Refractive index (Na D-line) (Liquid); method: Standard Abbe refractometry
Temperature, K	Pressure, kPa	Refractive index (Na D-line)	uncertainty
298.15	101	1.36406	0.00068

System: cyclopentanone + water; phases: Liquid
Fixed: Pressure, kPa = 101
Fixed: Temperature, K = 298.15
Property: Speed of sound, m/s (Liquid); method: Sing-around technique in a fixed-path interferometer
Mole fraction of cyclopentanone	Speed of sound, m/s	uncertainty
0.0005	1498.45	1.07
0.0012	1500.53	1.06
0.0022	1503.31	1.07
0.0027	1505.02	1.07
0.0038	1508.03	1.06
0.0044	1509.9	1.12
0.0059	1515.06	1.04
0.0079	1519.31	1
0.0092	1522.42	1.02
0.0144	1534.77	1.01
0.0182	1543.1	0.98
0.0232	1552.01	0.96
0.0305	1563.11	0.94
0.0394	1572.44	0.93
0.0501	1578.66	0.92
0.0564	1579.92	0.92
0.0683	1578.3	0.92

System: cyclopentanone + water; phases: Liquid
Fixed: Pressure, kPa = 101
Fixed: Temperature, K = 298.15
Property: Mass density, kg/m3 (Liquid); method: Vibrating tube method
Mole fraction of cyclopentanone	Mass density, kg/m3	uncertainty
0.0005	997.025	0.062
0.0012	997	0.062
0.0022	996.984	0.062
0.0027	996.974	0.062
0.0038	996.959	0.062
0.0044	996.949	0.062
0.0059	996.936	0.062
0.0079	996.929	0.062
0.0092	996.932	0.062
0.0144	996.953	0.062
0.0182	996.988	0.062
0.0232	997.022	0.062
0.0305	997.028	0.062
0.0394	996.922	0.062
0.0501	996.56	0.063
0.0564	996.241	0.064
0.0683	995.391	0.064

System: cyclopentanone + water; phases: Liquid, Liquid mixture 2
Property: Mole fraction of cyclopentanone (Liquid); method: Index of refraction calibration data
Temperature, K	Pressure, kPa	Mole fraction of cyclopentanone	uncertainty
298.15	101	0.0703	0.0002

System: cyclohexanone + water; phases: Liquid, Air at 1 atmosphere
Fixed: Temperature, K = 298.15
Property: Surface tension liquid-gas, N/m (Liquid); method: Drop volume
Mole fraction of cyclohexanone	Surface tension liquid-gas, N/m	uncertainty
0.0004	0.06822	0.0018
0.0007	0.06555	0.00137
0.0008	0.06498	0.0014
0.0011	0.06344	0.00098
0.0016	0.06118	0.00084
0.0022	0.05902	0.00078
0.0024	0.05819	0.00076
0.0028	0.05682	0.00065
0.0031	0.05607	0.00057
0.0039	0.05397	0.00052
0.0046	0.05259	0.00041
0.0068	0.04896	0.00037
0.0082	0.04723	0.0003
0.0082	0.04728	0.00031
0.0104	0.04489	0.00029

System: cyclohexanone + water; phases: Liquid
Fixed: Pressure, kPa = 101
Fixed: Temperature, K = 298.15
Property: Refractive index (Na D-line) (Liquid); method: Standard Abbe refractometry
Mole fraction of cyclohexanone	Refractive index (Na D-line)	uncertainty
0.0004	1.33276	0.0007
0.0007	1.33302	0.00069
0.0008	1.33308	0.00069
0.0011	1.33329	0.00069
0.0016	1.33363	0.00069
0.0022	1.33407	0.00069
0.0024	1.33421	0.00069
0.0028	1.33453	0.00069
0.0031	1.33472	0.00069
0.0039	1.33536	0.00069
0.0046	1.33575	0.00069
0.0068	1.33735	0.00069
0.0082	1.33835	0.00069
0.0104	1.33985	0.00069

System: cyclohexanone + water; phases: Liquid, Liquid mixture 2
Property: Refractive index (Na D-line) (Liquid); method: Standard Abbe refractometry
Temperature, K	Pressure, kPa	Refractive index (Na D-line)	uncertainty
298.15	101	1.34429	0.00068

System: cyclohexanone + water; phases: Liquid
Fixed: Pressure, kPa = 101
Fixed: Temperature, K = 298.15
Property: Speed of sound, m/s (Liquid); method: Sing-around technique in a fixed-path interferometer
Mole fraction of cyclohexanone	Speed of sound, m/s	uncertainty
0.0004	1498.19	1.25
0.0007	1499.51	1.18
0.0008	1499.83	1.18
0.0011	1500.9	1.13
0.0016	1502.61	1.13
0.0022	1504.72	1.14
0.0024	1505.49	1.17
0.0028	1507.01	1.14
0.0031	1507.96	1.15
0.0039	1510.95	1.12
0.0046	1512.97	1.11
0.0068	1520.32	1.1
0.0082	1524.47	1.07
0.0082	1524.39	1.07
0.0104	1530.72	1.06

System: cyclohexanone + water; phases: Liquid
Fixed: Pressure, kPa = 101
Fixed: Temperature, K = 298.15
Property: Mass density, kg/m3 (Liquid); method: Vibrating tube method
Mole fraction of cyclohexanone	Mass density, kg/m3	uncertainty
0.0004	997.006	0.064
0.0007	996.984	0.063
0.0008	996.979	0.063
0.0011	996.963	0.063
0.0016	996.94	0.063
0.0022	996.915	0.063
0.0024	996.903	0.063
0.0028	996.881	0.063
0.0031	996.874	0.062
0.0039	996.842	0.062
0.0046	996.817	0.062
0.0068	996.753	0.062
0.0082	996.72	0.062
0.0082	996.722	0.062
0.0104	996.669	0.062

System: cyclohexanone + water; phases: Liquid, Liquid mixture 2
Property: Mole fraction of cyclohexanone (Liquid); method: Index of refraction calibration data
Temperature, K	Pressure, kPa	Mole fraction of cyclohexanone	uncertainty
298.15	101	0.0166	0.0002

System: cyclohexanol + water; phases: Liquid, Air at 1 atmosphere
Fixed: Temperature, K = 298.15
Property: Surface tension liquid-gas, N/m (Liquid); method: Drop volume
Mole fraction of cyclohexanol	Surface tension liquid-gas, N/m	uncertainty
0.00013	0.06881	0.00208
0.00013	0.0696	0.00259
0.00026	0.06667	0.00478
0.00026	0.06707	0.00511
0.00031	0.06607	0.00343
0.00031	0.06581	0.00334
0.00033	0.06563	0.00335
0.0005	0.06094	0.00326
0.0009	0.05598	0.00193
0.0015	0.05124	0.00132
0.0022	0.04745	0.00097
0.0032	0.04315	0.00076
0.0042	0.04014	0.00056
0.0055	0.03701	0.00047
0.0064	0.03545	0.00039

System: cyclohexanol + water; phases: Liquid
Fixed: Pressure, kPa = 101
Fixed: Temperature, K = 298.15
Property: Refractive index (Na D-line) (Liquid); method: Standard Abbe refractometry
Mole fraction of cyclohexanol	Refractive index (Na D-line)	uncertainty
0.00013	1.33259	0.00068
0.00013	1.3326	0.00068
0.00026	1.33269	0.0007
0.00026	1.33269	0.0007
0.00031	1.33272	0.0007
0.00031	1.33272	0.0007
0.00033	1.33275	0.0007
0.0005	1.33292	0.0007
0.0009	1.33323	0.00069
0.0015	1.33368	0.00069
0.0022	1.33419	0.00069
0.0032	1.33497	0.00069
0.0042	1.33572	0.00069
0.0055	1.33679	0.00069
0.0064	1.33736	0.00069

System: cyclohexanol + water; phases: Liquid, Liquid mixture 2
Property: Refractive index (Na D-line) (Liquid); method: Standard Abbe refractometry
Temperature, K	Pressure, kPa	Refractive index (Na D-line)	uncertainty
298.15	101	1.3378	0.00068

System: cyclohexanol + water; phases: Liquid
Fixed: Pressure, kPa = 101
Fixed: Temperature, K = 298.15
Property: Speed of sound, m/s (Liquid); method: Sing-around technique in a fixed-path interferometer
Mole fraction of cyclohexanol	Speed of sound, m/s	uncertainty
0.00013	1497.4	1.07
0.00013	1497.43	1.06
0.00026	1497.98	1.47
0.00026	1498	1.45
0.00031	1498.24	1.35
0.00031	1498.24	1.35
0.00033	1498.32	1.34
0.0005	1499.38	1.34
0.0009	1501.22	1.27
0.0015	1503.94	1.24
0.0022	1506.87	1.25
0.0032	1511.38	1.24
0.0042	1515.53	1.24
0.0055	1521.3	1.22
0.0064	1524.57	1.15

System: cyclohexanol + water; phases: Liquid
Fixed: Pressure, kPa = 101
Fixed: Temperature, K = 298.15
Property: Mass density, kg/m3 (Liquid); method: Vibrating tube method
Mole fraction of cyclohexanol	Mass density, kg/m3	uncertainty
0.00013	997.006	0.066
0.00013	997.001	0.065
0.00026	996.986	0.075
0.00026	996.982	0.073
0.00031	996.974	0.071
0.00031	996.974	0.071
0.00033	996.971	0.071
0.0005	996.935	0.071
0.0009	996.872	0.069
0.0015	996.784	0.068
0.0022	996.692	0.067
0.0032	996.566	0.066
0.0042	996.457	0.066
0.0055	996.321	0.065
0.0064	996.243	0.064

System: cyclohexanol + water; phases: Liquid, Liquid mixture 2
Property: Mole fraction of cyclohexanol (Liquid); method: Index of refraction calibration data
Temperature, K	Pressure, kPa	Mole fraction of cyclohexanol	uncertainty
298.15	101	0.0069	0.0002

System: ethyl 3-oxobutanoate + water; phases: Liquid, Air at 1 atmosphere
Fixed: Temperature, K = 298.15
Property: Surface tension liquid-gas, N/m (Liquid); method: Drop volume
Mole fraction of ethyl 3-oxobutanoate	Surface tension liquid-gas, N/m	uncertainty
0.0004	0.06763	0.00177
0.0007	0.06501	0.00118
0.0015	0.06108	0.00092
0.0021	0.05881	0.00068
0.0033	0.05527	0.00056
0.0042	0.05347	0.00047
0.0053	0.05118	0.00042
0.0069	0.04858	0.00036
0.0082	0.04697	0.00032
0.0102	0.04462	0.00028
0.0136	0.04146	0.00026
0.0169	0.03881	0.00025

System: ethyl 3-oxobutanoate + water; phases: Liquid
Fixed: Pressure, kPa = 101
Fixed: Temperature, K = 298.15
Property: Refractive index (Na D-line) (Liquid); method: Standard Abbe refractometry
Mole fraction of ethyl 3-oxobutanoate	Refractive index (Na D-line)	uncertainty
0.0004	1.33275	0.0007
0.0007	1.33302	0.00069
0.0015	1.33355	0.00069
0.0021	1.33397	0.00069
0.0033	1.33485	0.00069
0.0042	1.33543	0.00069
0.0053	1.33623	0.00069
0.0069	1.33725	0.00069
0.0082	1.33815	0.00069
0.0102	1.33943	0.00069
0.0136	1.34157	0.00069
0.0169	1.34351	0.00069

System: ethyl 3-oxobutanoate + water; phases: Liquid, Liquid mixture 2
Property: Refractive index (Na D-line) (Liquid); method: Standard Abbe refractometry
Temperature, K	Pressure, kPa	Refractive index (Na D-line)	uncertainty
298.15	101	1.34511	0.00068

System: ethyl 3-oxobutanoate + water; phases: Liquid
Fixed: Pressure, kPa = 101
Fixed: Temperature, K = 298.15
Property: Speed of sound, m/s (Liquid); method: Sing-around technique in a fixed-path interferometer
Mole fraction of ethyl 3-oxobutanoate	Speed of sound, m/s	uncertainty
0.0004	1498.11	1.23
0.0007	1499.38	1.13
0.0015	1501.97	1.1
0.0021	1503.89	1.11
0.0033	1507.96	1.1
0.0042	1510.54	1.08
0.0053	1513.94	1.06
0.0069	1518.23	1.04
0.0082	1521.66	1.03
0.0102	1526.54	1
0.0136	1533.5	0.97
0.0169	1538.83	0.96

System: ethyl 3-oxobutanoate + water; phases: Liquid
Fixed: Pressure, kPa = 101
Fixed: Temperature, K = 298.15
Property: Mass density, kg/m3 (Liquid); method: Vibrating tube method
Mole fraction of ethyl 3-oxobutanoate	Mass density, kg/m3	uncertainty
0.0004	997.26	0.162
0.0007	997.485	0.14
0.0015	997.958	0.133
0.0021	998.313	0.14
0.0033	999.086	0.136
0.0042	999.587	0.133
0.0053	1000.266	0.132
0.0069	1001.165	0.129
0.0082	1001.912	0.129
0.0102	1003.029	0.123
0.0136	1004.795	0.118
0.0169	1006.385	0.115

System: ethyl 3-oxobutanoate + water; phases: Liquid, Liquid mixture 2
Property: Mole fraction of ethyl 3-oxobutanoate (Liquid); method: Index of refraction calibration data
Temperature, K	Pressure, kPa	Mole fraction of ethyl 3-oxobutanoate	uncertainty
298.15	101	0.019	0.0002
