Measured thermophysical data. Liquid-Liquid Equilibria of Water + 3-Hydroxy-2-butanone + 1-Butanol
Source: J. Chem. Eng. Data, 2011, 10.1021/je2000759
Compound 1: butan-1-ol, C4H10O, InChI=1S/C4H10O/c1-2-3-4-5/h5H,2-4H2,1H3, purity 99.5%
Compound 2: water, H2O, InChI=1S/H2O/h1H2
Compound 3: 2,3-butanolone, C4H8O2, InChI=1S/C4H8O2/c1-3(5)4(2)6/h3,5H,1-2H3, purity 98%

System: butan-1-ol; phases: Liquid
Property: Refractive index (Na D-line) (Liquid); method: Standard Abbe refractometry
Temperature, K	Pressure, kPa	Refractive index (Na D-line)	uncertainty
293.15	101.325	1.3993	0.0007

System: 2,3-butanolone; phases: Liquid
Property: Refractive index (Na D-line) (Liquid); method: Standard Abbe refractometry
Temperature, K	Pressure, kPa	Refractive index (Na D-line)	uncertainty
293.15	101.325	1.4198	0.0008

System: butan-1-ol + 2,3-butanolone + water; phases: Liquid mixture 1, Liquid mixture 2
Fixed: Pressure, kPa = 101
Property: Mass fraction of 2,3-butanolone (Liquid mixture 1); method: Titration method
Temperature, K	Mass fraction of water	Mass fraction of 2,3-butanolone	uncertainty
298.15	0.2006	0	
298.15	0.2165	0.0232	0.0034
298.15	0.2252	0.0325	0.0033
298.15	0.2337	0.0437	0.0037
298.15	0.2463	0.0618	0.0037
298.15	0.2606	0.0773	0.0037
298.15	0.2763	0.0936	0.004
298.15	0.283	0.1016	0.0038
298.15	0.2916	0.1046	0.0037
298.15	0.3031	0.1117	0.0039
298.15	0.3185	0.1191	0.0041
298.15	0.3252	0.1233	0.0041
298.15	0.3311	0.1252	0.0042
298.15	0.346	0.1343	0.0044
298.15	0.3642	0.1402	0.0045
298.15	0.3732	0.1423	0.0046
298.15	0.3816	0.1462	0.0046
298.15	0.3938	0.1474	0.0047
298.15	0.4051	0.154	0.0049
298.15	0.4178	0.1579	0.0049
298.15	0.4277	0.1592	0.0049
298.15	0.4607	0.1638	0.0051
298.15	0.4769	0.1668	0.0052
298.15	0.4956	0.1673	0.0052
298.15	0.5177	0.1679	0.0052
298.15	0.5355	0.166	0.0051
298.15	0.5472	0.1678	0.0052
298.15	0.6433	0.1583	0.0049
298.15	0.6733	0.1558	0.0049
298.15	0.6981	0.1513	0.0048
298.15	0.7257	0.1449	0.0046
298.15	0.7453	0.1343	0.0044
298.15	0.8064	0.1015	0.0037
298.15	0.8753	0.057	0.0029
298.15	0.8969	0.0368	0.0029
298.15	0.903	0.0329	0.0028
298.15	0.9198	0.0182	0.0027
298.15	0.9213	0.0182	0.0027
298.15	0.94	0	
308.15	0.2191	0	
308.15	0.2482	0.0228	0.0031
308.15	0.2679	0.0571	0.0042
308.15	0.2829	0.0818	0.0036
308.15	0.2995	0.0952	0.0037
308.15	0.3201	0.1093	0.0038
308.15	0.3428	0.1179	0.004
308.15	0.3659	0.1286	0.0042
308.15	0.3815	0.1362	0.0044
308.15	0.3978	0.1403	0.0045
308.15	0.4136	0.1436	0.0045
308.15	0.4301	0.1449	0.0046
308.15	0.4494	0.1471	0.0046
308.15	0.5211	0.1564	0.0049
308.15	0.5391	0.1571	0.0049
308.15	0.5521	0.1567	0.0049
308.15	0.5655	0.1564	0.0049
308.15	0.6439	0.1394	0.0044
308.15	0.6792	0.1347	0.0043
308.15	0.712	0.1267	0.0041
308.15	0.7391	0.1211	0.0043
308.15	0.7443	0.1126	0.0041
308.15	0.7772	0.1018	0.0036
308.15	0.8045	0.0804	0.0033
308.15	0.8733	0.0442	0.0026
308.15	0.8964	0.0296	0.0028
308.15	0.9265	0	
318.15	0.2105	0	
318.15	0.2311	0.0198	0.0029
318.15	0.2416	0.0324	0.0032
318.15	0.2588	0.0516	0.0035
318.15	0.2706	0.0695	0.0034
318.15	0.2995	0.0917	0.0035
318.15	0.3237	0.1046	0.0038
318.15	0.3516	0.1219	0.0041
318.15	0.3899	0.1343	0.0044
318.15	0.4122	0.1439	0.0046
318.15	0.4629	0.1518	0.0047
318.15	0.4826	0.1495	0.0047
318.15	0.5139	0.1507	0.0047
318.15	0.5379	0.1532	0.0048
318.15	0.5733	0.1546	0.0048
318.15	0.6035	0.1493	0.0047
318.15	0.6401	0.1459	0.0046
318.15	0.6822	0.1387	0.0044
318.15	0.7107	0.1308	0.0042
318.15	0.7398	0.1243	0.0041
318.15	0.7895	0.1014	0.0037
318.15	0.8224	0.0798	0.0033
318.15	0.8722	0.0513	0.0029
318.15	0.9312	0	

System: butan-1-ol + 2,3-butanolone + water; phases: Liquid mixture 1, Liquid mixture 2
Fixed: Pressure, kPa = 101.3
Property: Mass fraction of 2,3-butanolone (Liquid mixture 1); method: Titration method
Property: Mass fraction of 2,3-butanolone (Liquid mixture 2); method: Titration method
Property: Mass fraction of water (Liquid mixture 2); method: Titration method
Temperature, K	Mass fraction of water	Mass fraction of 2,3-butanolone	uncertainty	Mass fraction of 2,3-butanolone	uncertainty	Mass fraction of water	uncertainty
298.15	0.2603	0.0826	0.0035	0.155	0.0049	0.6798	
298.15	0.2249	0.0234	0.0055	0.0763	0.0031	0.8479	
298.15	0.2363	0.0522	0.0056	0.1108	0.0039	0.7817	
298.15	0.239	0.0605	0.0042	0.1185	0.0043	0.7727	
298.15	0.2385	0.0467	0.0055	0.1058	0.0037	0.7917	
298.15	0.2479	0.0726	0.0035	0.1397	0.0045	0.7199	
308.15	0.2641	0.0487	0.0031	0.105	0.0036	0.7805	
308.15	0.2804	0.0752	0.0073	0.1205	0.0041	0.7331	
308.15	0.2496	0.0355	0.0025	0.0956	0.0035	0.8053	
308.15	0.2436	0.029	0.003	0.0818	0.0034	0.8255	
308.15	0.2309	0.0209	0.0024	0.0653	0.003	0.8492	
308.15	0.2766	0.0624	0.004	0.1112	0.0038	0.7541	
318.15	0.2577	0.0523	0.0071	0.1076	0.0039	0.7759	
318.15	0.2552	0.044	0.0041	0.0995	0.0036	0.7871	
318.15	0.2482	0.035	0.0038	0.0854	0.0034	0.8136	
318.15	0.2953	0.0886	0.0036	0.143	0.0045	0.6358	
318.15	0.2409	0.0219	0.0042	0.0623	0.003	0.8452	
318.15	0.2793	0.0752	0.0035	0.1305	0.0042	0.7031	
