Measured thermophysical data. Vapor Liquid Equilibrium Measurements of Difluoromethane + [Emim]OTf, Difluoromethane + [Bmim]OTf, Difluoroethane + [Emim]OTf, and Difluoroethane + [Bmim]OTf Systems
Source: J. Chem. Eng. Data, 2011, 10.1021/je2005566
Compound 1: difluoromethane, CH2F2, InChI=1S/CH2F2/c2-1-3/h1H2
Compound 2: 1,1-difluoroethane, C2H4F2, InChI=1S/C2H4F2/c1-2(3)4/h2H,1H3
Compound 3: 1-ethyl-3-methylimidazolium trifluoromethanesulfonate, C7H11F3N2O3S, InChI=1S/C6H11N2.CHF3O3S/c1-3-8-5-4-7(2)6-8;2-1(3,4)8(5,6)7/h4-6H,3H2,1-2H3;(H,5,6,7)/q+1;/p-1
Compound 4: 1-butyl-3-methylimidazolium trifluoromethanesulfonate, C9H15F3N2O3S, InChI=1S/C8H15N2.CHF3O3S/c1-3-4-5-10-7-6-9(2)8-10;2-1(3,4)8(5,6)7/h6-8H,3-5H2,1-2H3;(H,5,6,7)/q+1;/p-1
Compound 5: carbon dioxide, CO2, InChI=1S/CO2/c2-1-3
Compound 6: ethanol, C2H6O, InChI=1S/C2H6O/c1-2-3/h3H,2H2,1H3

System: ethanol + carbon dioxide; phases: Liquid, Gas
Fixed: Temperature, K = 313.15
Property: Mole fraction of carbon dioxide (Liquid); method: Pressure drop
Pressure, kPa	Mole fraction of carbon dioxide	uncertainty
514	0.027	0.014
1155	0.063	0.014
1600	0.088	0.014
2061	0.113	0.014
2120	0.117	0.014
3020	0.167	0.014
3270	0.181	0.014
3810	0.212	0.014

System: difluoromethane + 1-ethyl-3-methylimidazolium trifluoromethanesulfonate; phases: Liquid, Gas
Property: Mole fraction of difluoromethane (Liquid); method: Pressure drop
Temperature, K	Pressure, kPa	Mole fraction of difluoromethane	uncertainty
273.14	195	0.204	0.014
273.15	297	0.285	0.014
273.16	399	0.369	0.015
273.16	494	0.446	0.018
273.16	692	0.63	0.026
273.19	590	0.531	0.022
273.21	101	0.123	0.014
298.11	857	0.432	0.017
298.12	505	0.274	0.014
298.14	204	0.116	0.014
298.14	305	0.174	0.014
298.15	397	0.224	0.014
298.15	698	0.363	0.015
298.16	102	0.061	0.014
298.16	603	0.321	0.014
298.16	799	0.407	0.016
323.13	97	0.039	0.014
323.13	701	0.225	0.014
323.14	501	0.171	0.014
323.15	983	0.303	0.014
323.16	399	0.135	0.014
323.17	598	0.197	0.014
323.17	799	0.254	0.014
323.19	908	0.283	0.014
323.2	195	0.073	0.014
323.2	303	0.109	0.014
348.14	107	0.029	0.014
348.14	914	0.197	0.014
348.14	1006	0.213	0.014
348.15	408	0.096	0.014
348.15	510	0.114	0.014
348.15	608	0.133	0.014
348.15	807	0.176	0.014
348.15	1036	0.22	0.014
348.16	209	0.052	0.014
348.16	311	0.075	0.014
348.16	706	0.156	0.014

System: difluoromethane + 1-butyl-3-methylimidazolium trifluoromethanesulfonate; phases: Liquid, Gas
Property: Mole fraction of difluoromethane (Liquid); method: Pressure drop
Temperature, K	Pressure, kPa	Mole fraction of difluoromethane	uncertainty
273.13	412	0.465	0.019
273.14	636	0.683	0.028
273.15	195	0.243	0.015
273.17	500	0.547	0.022
273.17	593	0.639	0.026
273.19	104	0.14	0.015
273.19	303	0.358	0.015
298.12	98	0.069	0.014
298.12	301	0.2	0.014
298.13	902	0.521	0.021
298.14	400	0.264	0.014
298.15	723	0.434	0.018
298.16	200	0.139	0.014
298.16	530	0.333	0.014
298.17	830	0.484	0.02
298.19	623	0.384	0.016
323.12	400	0.15	0.014
323.13	299	0.117	0.014
323.15	507	0.191	0.014
323.16	205	0.083	0.014
323.16	697	0.254	0.014
323.18	801	0.285	0.014
323.2	900	0.313	0.014
323.21	1000	0.341	0.014
323.22	101	0.047	0.014
323.22	602	0.223	0.014
323.22	1100	0.368	0.015
348.12	103	0.033	0.014
348.14	609	0.159	0.014
348.15	500	0.137	0.014
348.15	703	0.181	0.014
348.17	802	0.202	0.014
348.18	901	0.222	0.014
348.19	1003	0.242	0.014
348.2	201	0.065	0.014
348.23	299	0.09	0.014
348.24	403	0.114	0.014

System: 1,1-difluoroethane + 1-ethyl-3-methylimidazolium trifluoromethanesulfonate; phases: Liquid, Gas
Property: Mole fraction of 1,1-difluoroethane (Liquid); method: Pressure drop
Temperature, K	Pressure, kPa	Mole fraction of 1,1-difluoroethane	uncertainty
273.16	198	0.376	0.018
273.22	40	0.049	0.016
273.24	74	0.108	0.016
273.25	157	0.269	0.016
298.14	386	0.369	0.015
298.15	96	0.066	0.014
298.15	173	0.135	0.015
298.15	279	0.255	0.015
298.15	454	0.452	0.019
323.13	240	0.143	0.014
323.14	116	0.061	0.014
323.14	368	0.226	0.014
323.14	756	0.473	0.019
323.15	314	0.194	0.014
323.16	447	0.282	0.014
323.2	528	0.332	0.014
348.14	204	0.088	0.014
348.15	111	0.048	0.014
348.16	519	0.259	0.014
348.16	645	0.325	0.014
348.16	741	0.371	0.015
348.16	848	0.429	0.017
348.17	308	0.14	0.014
348.17	423	0.202	0.014

System: 1,1-difluoroethane + 1-butyl-3-methylimidazolium trifluoromethanesulfonate; phases: Liquid, Gas
Property: Mole fraction of 1,1-difluoroethane (Liquid); method: Pressure drop
Temperature, K	Pressure, kPa	Mole fraction of 1,1-difluoroethane	uncertainty
273.22	56	0.095	0.017
273.23	97	0.184	0.017
273.24	144	0.302	0.017
273.24	191	0.409	0.019
298.13	218	0.222	0.015
298.14	117	0.121	0.014
298.16	371	0.386	0.016
298.16	460	0.496	0.021
298.18	290	0.306	0.015
323.15	105	0.078	0.014
323.15	248	0.182	0.014
323.15	421	0.305	0.014
323.15	500	0.35	0.014
323.15	734	0.494	0.02
323.16	619	0.426	0.017
323.16	813	0.536	0.022
348.12	641	0.352	0.014
348.13	107	0.06	0.014
348.13	743	0.399	0.016
348.13	879	0.47	0.019
348.15	223	0.123	0.014
348.15	313	0.178	0.014
348.15	414	0.23	0.014
348.18	513	0.291	0.014
