Measured thermophysical data. Thermophysical Properties of VX and RVX
Source: J. Chem. Eng. Data, 2012, 10.1021/je200891j
Compound 1: A 4, C11H26NO2PS, InChI=1S/C11H26NO2PS/c1-7-14-15(6,13)16-9-8-12(10(2)3)11(4)5/h10-11H,7-9H2,1-6H3
Compound 2: O-(2-methylpropyl) S-[2-(diethylamino)ethyl] methylphosphonothiolate, C11H26NO2PS, InChI=1S/C11H26NO2PS/c1-6-12(7-2)8-9-16-15(5,13)14-10-11(3)4/h11H,6-10H2,1-5H3

System: A 4; phases: Liquid, Air at 1 atmosphere
Property: Surface tension liquid-gas, N/m (Liquid); method: Ring tensiometer
Temperature, K	Surface tension liquid-gas, N/m	uncertainty
273.15	0.0323	0.0011
283.15	0.0316	0.0011
298.15	0.0302	0.001
308.15	0.029	0.001
323.15	0.0283	0.001

System: A 4; phases: Liquid, Gas
Property: Vapor or sublimation pressure, kPa (Liquid); method: Transpiration method
Temperature, K	Vapor or sublimation pressure, kPa	uncertainty
260.15	8.6e-07	1.14e-07
268.15	2.9e-06	2.5e-07
278.15	1.12e-05	8e-07
288.15	3.7e-05	2.6e-06
293.15	6.58e-05	4.7e-06

System: O-(2-methylpropyl) S-[2-(diethylamino)ethyl] methylphosphonothiolate; phases: Liquid, Air at 1 atmosphere
Property: Surface tension liquid-gas, N/m (Liquid); method: Ring tensiometer
Temperature, K	Surface tension liquid-gas, N/m	uncertainty
273.15	0.0295	0.001
283.15	0.0278	0.001
298.15	0.0272	0.0009
308.15	0.0254	0.0009
323.15	0.0244	0.0008

System: O-(2-methylpropyl) S-[2-(diethylamino)ethyl] methylphosphonothiolate; phases: Liquid
Fixed: Pressure, kPa = 101.325
Property: Viscosity, Pa*s (Liquid); method: CAPTUB:UFactor:4
Temperature, K	Viscosity, Pa*s	uncertainty
238.15	0.88	0.173
243.15	0.4397	0.0662
253.15	0.1401	0.0118
263.15	0.05796	0.003
273.15	0.02865	0.00148
283.15	0.0164	0.00083
298.15	0.009128	0.000466
308.15	0.006349	0.000325
323.15	0.003619	0.000189

System: O-(2-methylpropyl) S-[2-(diethylamino)ethyl] methylphosphonothiolate; phases: Liquid, Gas
Property: Vapor or sublimation pressure, kPa (Liquid); method: Transpiration method
Temperature, K	Vapor or sublimation pressure, kPa	uncertainty
263.15	9.54e-07	1.2e-07
270.65	2.81e-06	2.4e-07
278.15	7.46e-06	5.6e-07
284.95	1.76e-05	1.3e-06
287.15	2.38e-05	1.7e-06
289.15	3.1e-05	2.2e-06
291.25	3.91e-05	2.8e-06

System: O-(2-methylpropyl) S-[2-(diethylamino)ethyl] methylphosphonothiolate; phases: Liquid, Gas
Property: Vapor or sublimation pressure, kPa (Liquid); method: Differential Thermal Analysis
Temperature, K	Vapor or sublimation pressure, kPa	uncertainty
418.75	0.56	0.208
427.35	0.76	0.283
429.15	0.853	0.305
431.75	1.04	0.362
435.45	1.33	0.436
439.95	1.75	0.529
442.25	0.907	0.9
448.05	2.25	0.612
454.15	2.89	0.671
460.85	3.75	0.669
471.55	5.57	0.504
482.15	7.96	0.705
495.05	12.6	1.066
505.15	14.6	1.206

System: O-(2-methylpropyl) S-[2-(diethylamino)ethyl] methylphosphonothiolate; phases: Liquid
Fixed: Pressure, kPa = 101.325
Property: Mass density, kg/m3 (Liquid); method: Vibrating tube method
Temperature, K	Mass density, kg/m3	uncertainty
298.15	1006.44	5.47
308.15	998.55	5.38
323.15	986.14	5.25
