Measured thermophysical data. Liquid Liquid Equilibria of Methanol, Ethanol, and Propan-2-ol with Water and Dodecane
Source: J. Chem. Eng. Data, 2011, 10.1021/je200646r
Compound 1: water, H2O, InChI=1S/H2O/h1H2, purity 99.9%
Compound 2: dodecane, C12H26, InChI=1S/C12H26/c1-3-5-7-9-11-12-10-8-6-4-2/h3-12H2,1-2H3, purity 99%
Compound 3: methanol, CH4O, InChI=1S/CH4O/c1-2/h2H,1H3, purity 99.9%
Compound 4: ethanol, C2H6O, InChI=1S/C2H6O/c1-2-3/h3H,2H2,1H3, purity 99.9%
Compound 5: propan-2-ol, C3H8O, InChI=1S/C3H8O/c1-3(2)4/h3-4H,1-2H3, purity 99.9%

System: dodecane; phases: Liquid
Property: Refractive index (Na D-line) (Liquid); method: Standard Abbe refractometry
Temperature, K	Pressure, kPa	Refractive index (Na D-line)	uncertainty
293.15	101.325	1.42155	0.00045

System: dodecane; phases: Liquid
Property: Mass density, kg/m3 (Liquid); method: Vibrating tube method
Temperature, K	Pressure, kPa	Mass density, kg/m3	uncertainty
293.15	101.325	749.6	0.31

System: methanol; phases: Liquid
Property: Refractive index (Na D-line) (Liquid); method: Standard Abbe refractometry
Temperature, K	Pressure, kPa	Refractive index (Na D-line)	uncertainty
293.15	101.325	1.32862	0.0004

System: methanol; phases: Liquid
Property: Mass density, kg/m3 (Liquid); method: Vibrating tube method
Temperature, K	Pressure, kPa	Mass density, kg/m3	uncertainty
293.15	101.325	791.46	0.15

System: ethanol; phases: Liquid
Property: Refractive index (Na D-line) (Liquid); method: Standard Abbe refractometry
Temperature, K	Pressure, kPa	Refractive index (Na D-line)	uncertainty
293.15	101.325	1.36162	0.0004

System: ethanol; phases: Liquid
Property: Mass density, kg/m3 (Liquid); method: Vibrating tube method
Temperature, K	Pressure, kPa	Mass density, kg/m3	uncertainty
293.15	101.325	792.05	0.15

System: propan-2-ol; phases: Liquid
Property: Refractive index (Na D-line) (Liquid); method: Standard Abbe refractometry
Temperature, K	Pressure, kPa	Refractive index (Na D-line)	uncertainty
293.15	101.325	1.37709	0.0004

System: propan-2-ol; phases: Liquid
Property: Mass density, kg/m3 (Liquid); method: Vibrating tube method
Temperature, K	Pressure, kPa	Mass density, kg/m3	uncertainty
293.15	101.325	785.46	0.15

System: methanol + dodecane + water; phases: Liquid mixture 2, Liquid mixture 1
Fixed: Pressure, kPa = 101
Property: Mole fraction of dodecane (Liquid mixture 2); method: Chromatography
Property: Mole fraction of dodecane (Liquid mixture 1); method: Chromatography
Property: Mole fraction of methanol (Liquid mixture 1); method: Chromatography
Temperature, K	Mole fraction of methanol	Mole fraction of dodecane	uncertainty	Mole fraction of dodecane	uncertainty	Mole fraction of methanol	uncertainty
298.14	0.3053	0		0.9976	0.0024	0.0024	
298.14	0.1717	0		0.9969	0.0031	0.0031	
298.14	0.0736	0		0.9967	0.0033	0.0033	
298.14	0.3293	0		0.9945	0.0055	0.0055	
298.14	0.4904	0		0.9937	0.0063	0.0063	
298.14	0.4206	0		0.9934	0.0066	0.0066	
298.14	0.7477	0.006	0.006	0.9932	0.0068	0.0068	
298.14	0.7901	0.0031	0.0031	0.9569	0.0198	0.0431	
298.14	0.987	0.013	0.013	0.8867	0.0198	0.1133	
313.14	0	0		1		0	
313.14	0.1787	0.0007	0.0007	1		0	
313.14	0.2435	0.0009	0.0009	1		0	
313.14	0.3146	0.0012	0.0012	0.9891	0.0109	0.0109	
313.14	0.4525	0.0018	0.0018	0.9808	0.0192	0.0192	
313.14	0.6069	0.0024	0.0024	0.9646	0.0198	0.0354	
313.14	0.7727	0.003	0.003	0.9362	0.0198	0.0638	
313.14	0.8719	0.0044	0.0044	0.9354	0.0198	0.0646	
313.14	0.7857	0.0053	0.0053	0.9314	0.0198	0.0686	
313.14	0.9955	0.0045	0.0045	0.8239	0.0198	0.1761	

System: ethanol + dodecane + water; phases: Liquid mixture 2, Liquid mixture 1
Fixed: Pressure, kPa = 101
Property: Mole fraction of dodecane (Liquid mixture 2); method: Chromatography
Property: Mole fraction of dodecane (Liquid mixture 1); method: Chromatography
Property: Mole fraction of ethanol (Liquid mixture 1); method: Chromatography
Temperature, K	Mole fraction of ethanol	Mole fraction of dodecane	uncertainty	Mole fraction of dodecane	uncertainty	Mole fraction of ethanol	uncertainty
298.14	0.0066	0		1		0	
298.14	0.1111	0		1		0	
298.14	0.2439	0		0.9973	0.0027	0.0027	
298.14	0.3735	0		0.981	0.019	0.019	
298.14	0.4776	0		0.975	0.0198	0.025	
298.14	0.5551	0.0104	0.0104	0.9645	0.0198	0.0355	
298.14	0.6166	0.0145	0.0141	0.9453	0.0198	0.0547	
298.14	0.7325	0.0258	0.0141	0.9068	0.0198	0.0932	
298.14	0.7727	0.0286	0.0145	0.8809	0.0198	0.1191	
298.14	0.8252	0.0491	0.015	0.8167	0.0198	0.1833	
298.14	0.8325	0.1232	0.0262	0.6627	0.0199	0.3373	
313.14	0	0		1		0	
313.14	0.196	0		0.986	0.014	0.014	
313.14	0.2335	0		0.9841	0.0159	0.0159	
313.14	0.2982	0		0.9792	0.019	0.0208	
313.14	0.3729	0		0.9743	0.0191	0.0257	
313.14	0.4343	0		0.9703	0.0209	0.0297	
313.14	0.498	0		0.9613	0.0227	0.0387	
313.14	0.5625	0.0128	0.0128	0.9482	0.0196	0.0518	
313.14	0.7212	0.026	0.0145	0.8762	0.0197	0.1238	
313.14	0.8102	0.0845	0.0168	0.7422	0.0199	0.2578	
323.15	0	0.0004	0.0004	0.996	0.004	0	
323.15	0.0108	0.0012	0.0012	0.921	0.0212	0.0708	
323.15	0.0339	0.0021	0.0021	0.9844	0.015	0.0047	
323.15	0.1619	0.0061	0.0061	0.9323	0.0206	0.0569	
323.15	0.2551	0.0029	0.0029	0.934	0.0193	0.0538	
323.15	0.3869	0.0029	0.0029	0.8671	0.02	0.1139	
323.15	0.671	0.021	0.014	0.826	0.0183	0.1628	
333.15	0	0.0022	0.0022	0.9918	0.0082	0	
333.15	0.013	0.0022	0.0022	0.9817	0.0142	0.0025	
333.15	0.0366	0.003	0.003	0.9832	0.0141	0.0014	
333.15	0.1433	0.0076	0.0076	0.9323	0.0196	0.0569	
333.15	0.2522	0.0043	0.0043	0.934	0.0196	0.0538	
333.15	0.3719	0.0038	0.0038	0.8671	0.02	0.1196	
333.15	0.6569	0.024	0.014	0.826	0.0197	0.1612	

System: propan-2-ol + dodecane + water; phases: Liquid mixture 2, Liquid mixture 1
Fixed: Pressure, kPa = 101
Property: Mole fraction of dodecane (Liquid mixture 2); method: Chromatography
Property: Mole fraction of dodecane (Liquid mixture 1); method: Chromatography
Property: Mole fraction of propan-2-ol (Liquid mixture 1); method: Chromatography
Temperature, K	Mole fraction of propan-2-ol	Mole fraction of dodecane	uncertainty	Mole fraction of dodecane	uncertainty	Mole fraction of propan-2-ol	uncertainty
328.15	0	0.0009	0.0009	0.9933	0.0067	0	
328.15	0.0345	0.0068	0.0068	0.9932	0.0068	0.006	
328.15	0.0729	0.0062	0.0062	0.9871	0.0129	0.0122	
328.15	0.1521	0.0076	0.0076	0.9638	0.014	0.0359	
328.15	0.231	0.0257	0.014	0.9707	0.014	0.0286	
328.15	0.2912	0.0138	0.0138	0.9622	0.014	0.0373	
328.15	0.3972	0.0563	0.0154	0.9488	0.014	0.0488	
328.15	0.425	0.078	0.0178	0.9422	0.014	0.0558	
333.15	0	0.0005	0.0005	0.9933	0.0067	0	
333.15	0.0166	0.0045	0.0045	0.9904	0.0096	0.009	
333.15	0.0719	0.0041	0.0041	0.9777	0.014	0.0198	
333.15	0.1537	0.0155	0.014	0.9762	0.014	0.0236	
333.15	0.2055	0.0121	0.0121	0.975	0.014	0.0244	
333.15	0.413	0.0935	0.0147	0.9295	0.014	0.0672	
333.15	0.2594	0.0456	0.015	0.9632	0.014	0.0366	
