Measured thermophysical data. Building Blocks for Ionic Liquids: A Study of Alkyl Chain Length Dependence of Vaporization Enthalpies of 1-(n-Alkyl)-2-methylimidazoles
Source: J. Chem. Eng. Data, 2011, 10.1021/je200336c
Compound 1: 2-methyl-1-propyl-1H-imidazole, C7H12N2, InChI=1S/C7H12N2/c1-3-5-9-6-4-8-7(9)2/h4,6H,3,5H2,1-2H3
Compound 2: 1-butyl-2-methyl-1H-imidazole, C8H14N2, InChI=1S/C8H14N2/c1-3-4-6-10-7-5-9-8(10)2/h5,7H,3-4,6H2,1-2H3
Compound 3: 2-methyl-1-pentyl-1H-imidazole, C9H16N2, InChI=1S/C9H16N2/c1-3-4-5-7-11-8-6-10-9(11)2/h6,8H,3-5,7H2,1-2H3
Compound 4: 1-hexyl-2-methyl-1H-imidazole, C10H18N2, InChI=1S/C10H18N2/c1-3-4-5-6-8-12-9-7-11-10(12)2/h7,9H,3-6,8H2,1-2H3
Compound 5: 1-heptyl-2-methyl-1H-imidazole, C11H20N2, InChI=1S/C11H20N2/c1-3-4-5-6-7-9-13-10-8-12-11(13)2/h8,10H,3-7,9H2,1-2H3
Compound 6: 1-ethyl-2-methyl-1H-imidazole, C6H10N2, InChI=1S/C6H10N2/c1-3-8-5-4-7-6(8)2/h4-5H,3H2,1-2H3
Compound 7: 2-methyl-1-octyl-1H-imidazole, C12H22N2, InChI=1S/C12H22N2/c1-3-4-5-6-7-8-10-14-11-9-13-12(14)2/h9,11H,3-8,10H2,1-2H3
Compound 8: 2-methyl-1-nonyl-1H-imidazole, C13H24N2, InChI=1S/C13H24N2/c1-3-4-5-6-7-8-9-11-15-12-10-14-13(15)2/h10,12H,3-9,11H2,1-2H3
Compound 9: 1-decyl-2-methyl-1H-imidazole, C14H26N2, InChI=1S/C14H26N2/c1-3-4-5-6-7-8-9-10-12-16-13-11-15-14(16)2/h11,13H,3-10,12H2,1-2H3

System: 2-methyl-1-propyl-1H-imidazole; phases: Liquid, Gas
Property: Vapor or sublimation pressure, kPa (Liquid); method: Transpiration method
Temperature, K	Vapor or sublimation pressure, kPa	uncertainty
288.6	0.004	0.00028
288.6	0.00405	0.00028
289.6	0.00434	0.0003
289.6	0.00438	0.00031
291.5	0.00538	0.00037
294.7	0.00692	0.00048
294.7	0.0072	0.0005
295.4	0.00738	0.00051
295.4	0.00748	0.00052
297.3	0.00872	0.00061
298.4	0.01002	0.0007
298.4	0.00997	0.00069
298.4	0.01002	0.0007
300.3	0.01133	0.00079
300.3	0.01146	0.0008
300.8	0.01204	0.00084
301.1	0.01197	0.00083
303.3	0.0149	0.00104
303.7	0.01494	0.00104
305.7	0.0176	0.00123
305.9	0.01724	0.0012
306.6	0.01867	0.0013
308.5	0.02217	0.00155
308.6	0.02254	0.00157
309.5	0.02506	0.00175
310.6	0.02598	0.00181
311.2	0.02742	0.00191
313.4	0.03181	0.00222
314	0.03505	0.00244
316	0.04035	0.00281
316.5	0.0411	0.00286
318.3	0.04671	0.00325
318.5	0.04674	0.00326
320.3	0.0538	0.00375
320.6	0.05514	0.00384
321.4	0.05684	0.00396
322.5	0.06443	0.00449
323.3	0.06917	0.00482
324	0.07343	0.00512
325.4	0.08008	0.00561
325.5	0.07727	0.00541
327.1	0.08865	0.00618
327.5	0.09201	0.00641
328.3	0.09593	0.00668
330.5	0.11178	0.00779
331	0.114	0.00794
331.5	0.11802	0.00822
333.3	0.1372	0.00956
334	0.13989	0.00974
335.4	0.15777	0.01099
335.8	0.16448	0.01146
337.7	0.17226	0.012
338.2	0.18857	0.01314
338.8	0.1934	0.01347
343.2	0.25718	0.01791

System: 1-butyl-2-methyl-1H-imidazole; phases: Liquid, Gas
Property: Vapor or sublimation pressure, kPa (Liquid); method: Transpiration method
Temperature, K	Vapor or sublimation pressure, kPa	uncertainty
293.6	0.00235	0.00016
296.2	0.00292	0.0002
298.2	0.00344	0.00024
300.1	0.0043	0.0003
303.1	0.00547	0.00038
305.1	0.00651	0.00045
307.2	0.00772	0.00054
310.2	0.01	0.0007
311.1	0.01102	0.00077
313.2	0.01298	0.0009
313.2	0.01301	0.00091
314.1	0.01405	0.00098
316.1	0.01624	0.00113
317.1	0.01787	0.00124
319.1	0.02034	0.00142
322.1	0.0265	0.00185
325.1	0.03351	0.00233
328.1	0.04049	0.00282
330.1	0.04612	0.00321
331.1	0.05086	0.00354
334	0.0629	0.00438
337	0.0757	0.00527
337	0.07653	0.00533
340	0.09351	0.00651
342	0.10736	0.00748
343	0.11461	0.00798

System: 2-methyl-1-pentyl-1H-imidazole; phases: Liquid, Gas
Property: Vapor or sublimation pressure, kPa (Liquid); method: Transpiration method
Temperature, K	Vapor or sublimation pressure, kPa	uncertainty
303.3	0.00266	0.00019
305.3	0.00315	0.00022
307.4	0.00381	0.00027
310.4	0.00494	0.00034
314.2	0.007	0.00049
317.2	0.00929	0.00065
321.2	0.01266	0.00088
324.3	0.01658	0.00115
326.1	0.0185	0.00129
327.2	0.02045	0.00142
328.2	0.02248	0.00157
331.3	0.02719	0.00189
332.2	0.02822	0.00197
334.2	0.03296	0.0023
335.3	0.03708	0.00258
339.1	0.0474	0.00331
339.2	0.04845	0.00338
343.2	0.06253	0.00436
346.2	0.07466	0.0052
348.2	0.09219	0.00642
349.1	0.09214	0.00642
350.1	0.10493	0.00731
351.1	0.10977	0.00765
352.1	0.12092	0.00842
353.2	0.12498	0.0087
354.2	0.13122	0.00914

System: 1-hexyl-2-methyl-1H-imidazole; phases: Liquid, Gas
Property: Vapor or sublimation pressure, kPa (Liquid); method: Transpiration method
Temperature, K	Vapor or sublimation pressure, kPa	uncertainty
313	0.00216	0.00015
314.2	0.00243	0.00017
317	0.00304	0.00021
320.1	0.00404	0.00028
321.1	0.00445	0.00031
324.1	0.00535	0.00037
327.1	0.00719	0.0005
328.1	0.00782	0.00054
331.1	0.00972	0.00068
335.1	0.01267	0.00088
339	0.01804	0.00126
342	0.02157	0.0015
345	0.02786	0.00194
349	0.03676	0.00256
353	0.04875	0.0034
358	0.06877	0.00479
360.9	0.07937	0.00553
362.9	0.08819	0.00614

System: 1-heptyl-2-methyl-1H-imidazole; phases: Liquid, Gas
Property: Vapor or sublimation pressure, kPa (Liquid); method: Transpiration method
Temperature, K	Vapor or sublimation pressure, kPa	uncertainty
312.2	0.00094	7e-05
312.3	0.00096	7e-05
313.2	0.00105	7e-05
314.3	0.00116	8e-05
314.3	0.00113	8e-05
316.2	0.00134	9e-05
319.3	0.00173	0.00012
322.2	0.00234	0.00016
323.2	0.00259	0.00018
323.5	0.0027	0.00019
326.2	0.00334	0.00023
328.5	0.00409	0.00028
329.3	0.00421	0.00029
332.1	0.00542	0.00038
333.3	0.00576	0.0004
333.5	0.00592	0.00041
336.1	0.00761	0.00053
338.5	0.00887	0.00062
339.2	0.00942	0.00066
342.2	0.01176	0.00082
343.2	0.01284	0.00089
343.4	0.01315	0.00092
345.2	0.01527	0.00106
348.4	0.01887	0.00131
349.1	0.02034	0.00142
353.2	0.02726	0.0019
353.4	0.02703	0.00188
356.3	0.03372	0.00235
358.4	0.03823	0.00266
359	0.04223	0.00294
361.2	0.04957	0.00345
363.3	0.05595	0.0039
363.3	0.05576	0.00388
368.4	0.07769	0.00541

System: 1-ethyl-2-methyl-1H-imidazole; phases: Liquid, Gas
Property: Vapor or sublimation pressure, kPa (Liquid); method: Transpiration method
Temperature, K	Vapor or sublimation pressure, kPa	uncertainty
293.5	0.0127	0.0009
294.3	0.0142	0.001
295.8	0.0155	0.0011
297.4	0.0179	0.0012
298.4	0.0198	0.0014
300.8	0.0229	0.0016
301.4	0.0239	0.0017
303.3	0.0269	0.0019
304.2	0.0306	0.0021
307.2	0.0377	0.0026
308.3	0.0409	0.0029
310.3	0.0494	0.0034
313.2	0.0631	0.0045
313.3	0.059	0.0042
317.2	0.0806	0.0056
318.2	0.0874	0.0061
321.2	0.1103	0.0077
323.2	0.1155	0.008
324.3	0.1298	0.009
328.2	0.1707	0.0119
329.2	0.1889	0.0132
333.2	0.234	0.0164
333.3	0.2441	0.0171
335.5	0.26	0.0181
338.1	0.3038	0.0215
338.2	0.3234	0.0229
340.6	0.3764	0.0262
343.1	0.4296	0.0299
343.3	0.4274	0.0298
348.1	0.5674	0.0395
353.1	0.7252	0.0505
363	1.2294	0.0856

System: 2-methyl-1-octyl-1H-imidazole; phases: Liquid, Gas
Property: Vapor or sublimation pressure, kPa (Liquid); method: Transpiration method
Temperature, K	Vapor or sublimation pressure, kPa	uncertainty
323.1	0.00099	7e-05
325.1	0.00117	8e-05
325.1	0.00119	8e-05
327	0.00137	0.0001
330.1	0.00187	0.00013
330.1	0.00182	0.00013
333	0.00244	0.00017
335	0.00284	0.0002
337	0.0033	0.00023
341	0.00448	0.00031
344	0.00588	0.00041
347	0.00738	0.00051
348.9	0.00887	0.00062
351.9	0.01064	0.00074
353.9	0.01248	0.00087
356.9	0.01552	0.00108
360.9	0.02112	0.00147
363.9	0.02585	0.0018
366.8	0.03159	0.0022
369.8	0.03919	0.00273
372.8	0.04752	0.00331

System: 2-methyl-1-nonyl-1H-imidazole; phases: Liquid, Gas
Property: Vapor or sublimation pressure, kPa (Liquid); method: Transpiration method
Temperature, K	Vapor or sublimation pressure, kPa	uncertainty
328.2	0.00059	4e-05
328.2	0.00061	4e-05
328.2	0.00058	4e-05
330.2	0.00069	5e-05
330.6	0.00075	5e-05
333.2	0.00088	6e-05
333.2	0.00092	6e-05
333.2	0.00093	7e-05
335.6	0.00116	8e-05
337.2	0.00134	9e-05
338.2	0.00147	0.0001
338.2	0.00144	0.0001
340.7	0.00173	0.00012
341.1	0.0018	0.00013
343.2	0.00217	0.00015
344.2	0.00236	0.00016
345.6	0.00274	0.00019
347.2	0.00293	0.0002
348.2	0.0034	0.00024
348.2	0.00345	0.00024
350.2	0.00369	0.00026
350.6	0.00414	0.00029
352.1	0.00457	0.00032
353.1	0.00478	0.00034
353.2	0.005	0.00035
355.6	0.00581	0.0004
356.2	0.00608	0.00042
357.3	0.00681	0.00047
359.3	0.00769	0.00054
360.6	0.00837	0.00058
362.1	0.00968	0.00067
362.2	0.00994	0.00069
362.3	0.00986	0.00069
365.2	0.012	0.0008
365.6	0.01201	0.00084
367.2	0.01372	0.00096
367.3	0.01382	0.00096
368.2	0.01535	0.00107
368.2	0.01506	0.00105
370.2	0.01638	0.00114
370.6	0.01767	0.00123
372.2	0.02022	0.00141
372.2	0.01978	0.00138
372.2	0.01892	0.00132
373.2	0.01992	0.00139
374.1	0.02283	0.00159

System: 1-decyl-2-methyl-1H-imidazole; phases: Liquid, Gas
Property: Vapor or sublimation pressure, kPa (Liquid); method: Transpiration method
Temperature, K	Vapor or sublimation pressure, kPa	uncertainty
343	0.00092	6e-05
344	0.00102	7e-05
346	0.0012	8e-05
349	0.0016	0.00011
351.9	0.00196	0.00014
354.9	0.00252	0.00018
356.9	0.00302	0.00021
359.9	0.0038	0.00026
363.9	0.00522	0.00036
367.8	0.00709	0.00049
369.8	0.00779	0.00054
372.8	0.01014	0.00071
375.8	0.01197	0.00083
378.7	0.015	0.00104
380.7	0.01641	0.00114
382.7	0.01886	0.00131
