Measured thermophysical data. Isobaric Vapor-Liquid Equilibria for Ethanol + Water + Ethylene  Glycol and Its Constituent Three Binary Systems
Source: J. Chem. Eng. Data, 2012, 10.1021/je2008704
Compound 1: ethanol, C2H6O, InChI=1S/C2H6O/c1-2-3/h3H,2H2,1H3
Compound 2: 1,2-ethanediol, C2H6O2, InChI=1S/C2H6O2/c3-1-2-4/h3-4H,1-2H2
Compound 3: water, H2O, InChI=1S/H2O/h1H2

System: ethanol; phases: Liquid, Gas
Property: Vapor or sublimation pressure, kPa (Liquid); method: Ebulliometric method (Recirculating still)
Temperature, K	Vapor or sublimation pressure, kPa	uncertainty
329.67	40	0.08
336.06	53.33	0.08
341.23	66.66	0.09
345.59	79.99	0.1
349.38	93.32	0.1
351.03	99.74	0.11

System: 1,2-ethanediol; phases: Liquid, Gas
Property: Vapor or sublimation pressure, kPa (Liquid); method: Ebulliometric method (Recirculating still)
Temperature, K	Vapor or sublimation pressure, kPa	uncertainty
412.81	13.33	0.06
422.78	20	0.06
430.26	26.66	0.06
436.37	33.33	0.07
441.5	40	0.07
445.96	46.66	0.07
449.93	53.33	0.07
453.52	60	0.07
456.78	66.66	0.07
459.79	73.33	0.08
462.58	79.99	0.08
465.18	86.66	0.08
467.62	93.32	0.08
469.48	98.66	0.09
470.02	100.4	0.1

System: water; phases: Liquid, Gas
Property: Vapor or sublimation pressure, kPa (Liquid); method: Ebulliometric method (Recirculating still)
Temperature, K	Vapor or sublimation pressure, kPa	uncertainty
349.09	40	0.07
356.17	53.33	0.07
361.87	66.66	0.08
366.69	79.99	0.09
370.88	93.32	0.09
372.76	100	0.1

System: ethanol + water; phases: Liquid, Gas
Fixed: Pressure, kPa = 101.3
Property: Boiling temperature at pressure P, K (Liquid); method: Ebulliometric method (Recirculating still)
Mole fraction of ethanol	Boiling temperature at pressure P, K	uncertainty
0.018	368.18	1.76
0.079	360.5	1.18
0.09	359.7	1.21
0.147	357.27	0.39
0.244	355.38	0.25
0.311	354.55	0.19
0.353	354.11	0.16
0.425	353.45	0.15
0.488	352.96	0.13
0.57	352.39	0.13
0.616	352.11	0.12
0.67	351.82	0.11
0.711	351.64	0.1
0.802	351.37	0.09
0.835	351.3	0.09
0.869	351.27	0.09
0.901	351.26	0.09
0.914	351.26	0.09
0.922	351.27	0.09
0.94	351.29	0.09
0.972	351.35	0.09

System: ethanol + water; phases: Gas, Liquid
Fixed: Pressure, kPa = 101.3
Property: Mole fraction of ethanol (Gas); method: Chromatography
Mole fraction of ethanol	Mole fraction of ethanol	uncertainty
0.018	0.18	0.056
0.079	0.418	0.038
0.09	0.441	0.039
0.147	0.51	0.018
0.244	0.567	0.016
0.311	0.589	0.015
0.353	0.604	0.015
0.425	0.627	0.015
0.488	0.652	0.016
0.57	0.688	0.016
0.616	0.713	0.016
0.67	0.736	0.016
0.711	0.76	0.017
0.802	0.819	0.017
0.835	0.844	0.018
0.869	0.873	0.018
0.901	0.9	0.019
0.914	0.912	0.019
0.922	0.92	0.019
0.94	0.937	0.02
0.972	0.969	0.02

System: 1,2-ethanediol + water; phases: Liquid, Gas
Fixed: Pressure, kPa = 101.3
Property: Boiling temperature at pressure P, K (Liquid); method: Ebulliometric method (Recirculating still)
Mole fraction of water	Boiling temperature at pressure P, K	uncertainty
0.02	462.57	4.49
0.063	448.77	3.99
0.104	438.69	3.29
0.128	433.6	2.65
0.167	426.7	2.36
0.197	422.03	1.91
0.25	415.27	1.73
0.279	411.98	1.52
0.317	408	1.4
0.346	405.33	1.19
0.409	400.18	1.15
0.444	397.27	1.01
0.501	393.53	0.88
0.557	390.22	0.73
0.674	384.51	0.65
0.747	381.51	0.58
0.797	379.47	0.52
0.861	377.3	0.47
0.9	376.05	0.46

System: 1,2-ethanediol + water; phases: Gas, Liquid
Fixed: Pressure, kPa = 101.3
Property: Mole fraction of water (Gas); method: Chromatography
Mole fraction of water	Mole fraction of water	uncertainty
0.02	0.227	0.099
0.063	0.527	0.077
0.104	0.681	0.049
0.128	0.742	0.032
0.167	0.81	0.026
0.197	0.848	0.02
0.25	0.892	0.018
0.279	0.91	0.016
0.317	0.928	0.015
0.346	0.939	0.015
0.409	0.956	0.014
0.444	0.964	0.014
0.501	0.973	0.014
0.557	0.98	0.014
0.674	0.989	0.011
0.747	0.993	0.007
0.797	0.995	0.005
0.861	0.997	0.003
0.9	0.998	0.002

System: ethanol + 1,2-ethanediol; phases: Liquid, Gas
Fixed: Pressure, kPa = 101.3
Property: Boiling temperature at pressure P, K (Liquid); method: Ebulliometric method (Recirculating still)
Mole fraction of ethanol	Boiling temperature at pressure P, K	uncertainty
0.177	389.79	1.9
0.219	384.1	1.5
0.293	377.16	1.2
0.341	373.78	0.94
0.376	371.65	0.81
0.398	370.51	0.66
0.427	369.25	0.65
0.451	368.05	0.67
0.482	366.65	0.56
0.558	363.8	0.51
0.611	361.99	0.47
0.664	360.28	0.41
0.734	358.41	0.39
0.81	356.32	0.38
0.901	354	0.37

System: ethanol + 1,2-ethanediol; phases: Gas, Liquid
Fixed: Pressure, kPa = 101.3
Property: Mole fraction of ethanol (Gas); method: Chromatography
Mole fraction of ethanol	Mole fraction of ethanol	uncertainty
0.177	0.961	0.014
0.219	0.972	0.014
0.293	0.982	0.014
0.341	0.986	0.014
0.376	0.988	0.012
0.398	0.989	0.011
0.427	0.99	0.01
0.451	0.991	0.009
0.482	0.992	0.008
0.558	0.994	0.006
0.611	0.995	0.005
0.664	0.996	0.004
0.734	0.997	0.003
0.81	0.998	0.002
0.901	0.999	0.001

System: ethanol + 1,2-ethanediol + water; phases: Liquid, Gas
Fixed: Pressure, kPa = 101.3
Property: Mole fraction of water (Liquid); method: Chromatography
Property: Mole fraction of water (Gas); method: Chromatography
Property: Mole fraction of ethanol (Gas); method: Chromatography
Temperature, K	Mole fraction of ethanol	Mole fraction of water	uncertainty	Mole fraction of water	uncertainty	Mole fraction of ethanol	uncertainty
365.94	0.078	0.753	0.014	0.598	0.014	0.401	
366.41	0.103	0.664	0.014	0.548	0.015	0.451	
362.64	0.159	0.633	0.014	0.474	0.015	0.525	
368.94	0.172	0.426	0.014	0.4	0.014	0.594	
371.77	0.181	0.333	0.014	0.344	0.014	0.648	
364.51	0.187	0.516	0.014	0.422	0.014	0.576	
367.63	0.192	0.421	0.014	0.377	0.014	0.618	
365.43	0.193	0.483	0.014	0.406	0.014	0.591	
368.76	0.21	0.355	0.014	0.338	0.014	0.657	
361.77	0.23	0.528	0.014	0.401	0.014	0.598	
366.5	0.231	0.374	0.014	0.334	0.014	0.661	
363.6	0.235	0.458	0.014	0.37	0.014	0.627	
361.83	0.255	0.478	0.014	0.369	0.014	0.629	
364.4	0.255	0.395	0.014	0.334	0.014	0.663	
367.79	0.268	0.278	0.014	0.262	0.014	0.734	
362.54	0.279	0.416	0.014	0.336	0.014	0.662	
365.48	0.296	0.296	0.014	0.264	0.014	0.731	
368.45	0.34	0.144	0.014	0.142	0.014	0.852	
362.39	0.393	0.24	0.014	0.21	0.014	0.787	
368.91	0.403	0.039	0.014	0.041	0.014	0.95	
363.98	0.416	0.165	0.014	0.152	0.014	0.844	
360.58	0.429	0.255	0.014	0.214	0.014	0.784	
367.81	0.441	0.019	0.014	0.02	0.014	0.974	
358.86	0.467	0.27	0.014	0.223	0.014	0.776	
360.55	0.491	0.19	0.014	0.162	0.014	0.836	
362.39	0.508	0.099	0.014	0.089	0.014	0.907	
359.93	0.571	0.11	0.014	0.098	0.014	0.899	
357.14	0.581	0.215	0.014	0.18	0.014	0.819	
359.74	0.607	0.075	0.014	0.071	0.014	0.927	
359.79	0.613	0.069	0.014	0.066	0.014	0.931	
358.43	0.664	0.053	0.014	0.05	0.014	0.948	
356.24	0.678	0.123	0.014	0.11	0.014	0.889	
353.77	0.91	0.002	0.002	0.003	0.003	0.996	
