Measured thermophysical data. Comprehensive Refractive Index Property for Room-Temperature Ionic Liquids
Source: J. Chem. Eng. Data, 2012, 10.1021/je201289w
Compound 1: 1-ethyl-3-methyl-1H-imidazolium bis(fluorosulfonyl)amide, C6H11F2N3O4S2, InChI=1S/C6H11N2.F2NO4S2/c1-3-8-5-4-7(2)6-8;1-8(4,5)3-9(2,6)7/h4-6H,3H2,1-2H3;/q+1;-1, purity 98%
Compound 2: 1-ethyl-3-methylimidazolium tetrafluoroborate, C6H11BF4N2, InChI=1S/C6H11N2.BF4/c1-3-8-5-4-7(2)6-8;2-1(3,4)5/h4-6H,3H2,1-2H3;/q+1;-1, purity 98%
Compound 3: 1-ethyl-3-methylimidazolium dicyanamide, C8H11N5, InChI=1S/C6H11N2.C2N3/c1-3-8-5-4-7(2)6-8;3-1-5-2-4/h4-6H,3H2,1-2H3;/q+1;-1, purity 98%
Compound 4: 1-ethyl-3-methylimidazolium tris(pentafluoroethyl)trifluorophosphate, C12H11F18N2P, InChI=1S/C6F18P.C6H11N2/c7-1(8,9)4(16,17)25(22,23,24,5(18,19)2(10,11)12)6(20,21)3(13,14)15;1-3-8-5-4-7(2)6-8/h;4-6H,3H2,1-2H3/q-1;+1, purity 98%
Compound 5: 1-ethyl-3-methylimidazolium tetracyanoborate, C10H11BN6, InChI=1S/C6H11N2.C4BN4/c1-3-8-5-4-7(2)6-8;6-1-5(2-7,3-8)4-9/h4-6H,3H2,1-2H3;/q+1;-1, purity 98%
Compound 6: 1-ethyl-3-methylimidazolium thiocyanate, C7H11N3S, InChI=1S/C6H11N2.CHNS/c1-3-8-5-4-7(2)6-8;2-1-3/h4-6H,3H2,1-2H3;3H/q+1;/p-1, purity 98%
Compound 7: 1-ethyl-3-methylimidazolium hydrogen sulfate, C6H12N2O4S, InChI=1S/C6H11N2.H2O4S/c1-3-8-5-4-7(2)6-8;1-5(2,3)4/h4-6H,3H2,1-2H3;(H2,1,2,3,4)/q+1;/p-1, purity 98%
Compound 8: 1-ethyl-3-methylimidazolium methanesulfonate, C7H14N2O3S, InChI=1S/C6H11N2.CH4O3S/c1-3-8-5-4-7(2)6-8;1-5(2,3)4/h4-6H,3H2,1-2H3;1H3,(H,2,3,4)/q+1;/p-1, purity 98%
Compound 9: 1-ethyl-3-methylimidazolium ethyl sulfate, C8H16N2O4S, InChI=1S/C6H11N2.C2H6O4S/c1-3-8-5-4-7(2)6-8;1-2-6-7(3,4)5/h4-6H,3H2,1-2H3;2H2,1H3,(H,3,4,5)/q+1;/p-1, purity 98%
Compound 10: 1-methyl-1-propylpyrrolidinium bis[(trifluoromethyl)sulfonyl]imide, C10H18F6N2O4S2, InChI=1S/C8H18N.C2F6NO4S2/c1-3-6-9(2)7-4-5-8-9;3-1(4,5)14(10,11)9-15(12,13)2(6,7)8/h3-8H2,1-2H3;/q+1;-1, purity 98%
Compound 11: 1-methyl-1-propylpyrrolidinium bis(fluorosulfonyl)amide, C8H18F2N2O4S2, InChI=1S/C8H18N.F2NO4S2/c1-3-6-9(2)7-4-5-8-9;1-8(4,5)3-9(2,6)7/h3-8H2,1-2H3;/q+1;-1, purity 98%
Compound 12: 1-ethylpyridinium bis(fluorosulfonyl)amide, C7H10F2N2O4S2, InChI=1S/C7H10N.F2NO4S2/c1-2-8-6-4-3-5-7-8;1-8(4,5)3-9(2,6)7/h3-7H,2H2,1H3;/q+1;-1, purity 98%
Compound 13: 1-butylpyridinium bis(fluorosulfonyl)amide, C9H14F2N2O4S2, InChI=1S/C9H14N.F2NO4S2/c1-2-3-7-10-8-5-4-6-9-10;1-8(4,5)3-9(2,6)7/h4-6,8-9H,2-3,7H2,1H3;/q+1;-1, purity 98%
Compound 14: 1-hexylpyridinium bis(fluorosulfonyl)amide, C11H18F2N2O4S2, InChI=1S/C11H18N.F2NO4S2/c1-2-3-4-6-9-12-10-7-5-8-11-12;1-8(4,5)3-9(2,6)7/h5,7-8,10-11H,2-4,6,9H2,1H3;/q+1;-1, purity 98%
Compound 15: 1-ethyl-3-methylpyridinium bis(fluorosulfonyl)amide, C8H12F2N2O4S2, InChI=1S/C8H12N.F2NO4S2/c1-3-9-6-4-5-8(2)7-9;1-8(4,5)3-9(2,6)7/h4-7H,3H2,1-2H3;/q+1;-1, purity 98%
Compound 16: 1-butyl-3-methyl-1H-imidazolium bis(perfluorobutylsulfonyl)amide, C16H15F18N3O4S2, InChI=1S/C8F18NO4S2.C8H15N2/c9-1(10,5(17,18)19)3(13,14)7(23,24)32(28,29)27-33(30,31)8(25,26)4(15,16)2(11,12)6(20,21)22;1-3-4-5-10-7-6-9(2)8-10/h;6-8H,3-5H2,1-2H3/q-1;+1, purity 98%
Compound 17: 1-ethyl-3-methylimidazolium bis((trifluoromethyl)sulfonyl)imide, C8H11F6N3O4S2, InChI=1S/C6H11N2.C2F6NO4S2/c1-3-8-5-4-7(2)6-8;3-1(4,5)14(10,11)9-15(12,13)2(6,7)8/h4-6H,3H2,1-2H3;/q+1;-1, purity 98%

System: 1-ethyl-3-methyl-1H-imidazolium bis(fluorosulfonyl)amide; phases: Liquid
Fixed: Pressure, kPa = 101.325
Property: Refractive index (Na D-line) (Liquid); method: Standard Abbe refractometry
Temperature, K	Refractive index (Na D-line)	uncertainty
283.15	1.45179	0.00063
288.15	1.45035	0.00063
293.15	1.44891	0.00063
298.15	1.44747	0.00063
303.15	1.44605	0.00063
308.15	1.44462	0.00063
313.15	1.4432	0.00063
318.15	1.44179	0.00063
323.15	1.44039	0.00063
328.15	1.43899	0.00063
333.15	1.43758	0.00063
338.15	1.43619	0.00063
343.15	1.43481	0.00063
348.15	1.43342	0.00063
353.15	1.43207	0.00063

System: 1-ethyl-3-methyl-1H-imidazolium bis(fluorosulfonyl)amide; phases: Liquid
Fixed: Pressure, kPa = 101.325
Property: Mass density, kg/m3 (Liquid); method: Vibrating tube method
Temperature, K	Mass density, kg/m3	uncertainty
353.15	1391.9	2.3
348.15	1396.3	2.3
343.15	1400.7	2.3
338.15	1405.1	2.3
333.15	1409.5	2.3
328.15	1413.9	2.3
323.15	1418.4	2.4
318.15	1422.9	2.4
313.15	1427.5	2.4
308.15	1432.1	2.4
303.15	1436.7	2.4
298.15	1441.4	2.4
293.15	1446.2	2.4
288.15	1450.9	2.5
283.15	1455.6	2.5

System: 1-ethyl-3-methylimidazolium tetrafluoroborate; phases: Liquid
Fixed: Pressure, kPa = 101.325
Property: Refractive index (Na D-line) (Liquid); method: Standard Abbe refractometry
Temperature, K	Refractive index (Na D-line)	uncertainty
283.15	1.41546	0.00062
288.15	1.41423	0.00062
293.15	1.413	0.00062
298.15	1.41177	0.00062
303.15	1.41055	0.00062
308.15	1.40934	0.00062
313.15	1.4081	0.00062
318.15	1.4069	0.00061
323.15	1.4057	0.00061
328.15	1.40452	0.00062
333.15	1.40327	0.00061
338.15	1.40211	0.00061
343.15	1.40093	0.00061
348.15	1.39975	0.00061
353.15	1.39858	0.00061

System: 1-ethyl-3-methylimidazolium tetrafluoroborate; phases: Liquid
Fixed: Pressure, kPa = 101.325
Property: Mass density, kg/m3 (Liquid); method: Vibrating tube method
Temperature, K	Mass density, kg/m3	uncertainty
353.15	1239.2	1.8
348.15	1242.8	1.8
343.15	1246.5	1.8
338.15	1250.2	1.8
333.15	1254	1.8
328.15	1257.8	1.8
323.15	1261.6	1.8
318.15	1265.3	1.8
313.15	1269.1	1.9
308.15	1272.9	1.9
303.15	1276.7	1.9
298.15	1280.5	1.9
293.15	1284.3	1.9
288.15	1288.2	1.9
283.15	1292	1.9

System: 1-ethyl-3-methylimidazolium dicyanamide; phases: Liquid
Fixed: Pressure, kPa = 101.325
Property: Refractive index (Na D-line) (Liquid); method: Standard Abbe refractometry
Temperature, K	Refractive index (Na D-line)	uncertainty
283.15	1.51774	0.00066
288.15	1.51605	0.00066
293.15	1.51441	0.00065
298.15	1.51278	0.00065
303.15	1.51121	0.00065
308.15	1.50963	0.00065
313.15	1.50808	0.00064
318.15	1.50655	0.00064
323.15	1.50502	0.00064
328.15	1.50351	0.00065
333.15	1.50191	0.00065
338.15	1.5003	0.00065
343.15	1.49865	0.00065
348.15	1.49708	0.00064
353.15	1.49557	0.00064

System: 1-ethyl-3-methylimidazolium dicyanamide; phases: Liquid
Fixed: Pressure, kPa = 101.325
Property: Mass density, kg/m3 (Liquid); method: Vibrating tube method
Temperature, K	Mass density, kg/m3	uncertainty
353.15	1065.8	1.3
348.15	1068.9	1.3
343.15	1072	1.3
338.15	1075.2	1.3
333.15	1078.3	1.3
328.15	1081.5	1.3
323.15	1084.8	1.3
318.15	1088	1.3
313.15	1091.3	1.3
308.15	1094.6	1.3
303.15	1097.9	1.3
298.15	1101.2	1.4
293.15	1104.6	1.4
288.15	1107.9	1.4
283.15	1111.4	1.4

System: 1-ethyl-3-methylimidazolium tris(pentafluoroethyl)trifluorophosphate; phases: Liquid
Fixed: Pressure, kPa = 101.325
Property: Refractive index (Na D-line) (Liquid); method: Standard Abbe refractometry
Temperature, K	Refractive index (Na D-line)	uncertainty
283.15	1.37305	0.00062
288.15	1.37176	0.00062
293.15	1.37043	0.00062
298.15	1.36916	0.00062
303.15	1.36783	0.00062
308.15	1.36656	0.00062
313.15	1.36525	0.00062
318.15	1.36399	0.00062
323.15	1.36267	0.00062
328.15	1.36141	0.00062
333.15	1.36011	0.00062
338.15	1.35887	0.00062
343.15	1.35756	0.00062
348.15	1.35635	0.00062
353.15	1.35509	0.00062

System: 1-ethyl-3-methylimidazolium tris(pentafluoroethyl)trifluorophosphate; phases: Liquid
Fixed: Pressure, kPa = 101.325
Property: Mass density, kg/m3 (Liquid); method: Vibrating tube method
Temperature, K	Mass density, kg/m3	uncertainty
353.15	1643.5	3.2
348.15	1649.3	3.2
343.15	1655.1	3.2
338.15	1660.9	3.3
333.15	1666.7	3.3
328.15	1672.6	3.3
323.15	1678.4	3.3
318.15	1684.3	3.3
313.15	1690.2	3.4
308.15	1696.1	3.4
303.15	1702	3.4
298.15	1707.9	3.4
293.15	1713.9	3.5
288.15	1719.8	3.5
283.15	1725.8	3.5

System: 1-ethyl-3-methylimidazolium tetracyanoborate; phases: Liquid
Fixed: Pressure, kPa = 101.325
Property: Refractive index (Na D-line) (Liquid); method: Standard Abbe refractometry
Temperature, K	Refractive index (Na D-line)	uncertainty
283.15	1.45284	0.00067
288.15	1.45108	0.00066
293.15	1.44936	0.00066
298.15	1.44763	0.00066
303.15	1.44592	0.00066
308.15	1.44421	0.00066
313.15	1.44252	0.00066
318.15	1.44081	0.00066
323.15	1.43913	0.00066
328.15	1.43745	0.00066
333.15	1.43578	0.00066
338.15	1.43412	0.00065
343.15	1.43248	0.00065
348.15	1.43085	0.00065
353.15	1.42922	0.00065

System: 1-ethyl-3-methylimidazolium tetracyanoborate; phases: Liquid
Fixed: Pressure, kPa = 101.325
Property: Mass density, kg/m3 (Liquid); method: Vibrating tube method
Temperature, K	Mass density, kg/m3	uncertainty
353.15	986	1.1
348.15	989.8	1.1
343.15	993.6	1.1
338.15	997.4	1.1
333.15	1001.3	1.1
328.15	1005.2	1.1
323.15	1009.1	1.1
318.15	1013	1.1
313.15	1016.9	1.1
308.15	1020.9	1.1
303.15	1024.9	1.1
298.15	1028.9	1.2
293.15	1032.9	1.2
288.15	1037	1.2
283.15	1041	1.2

System: 1-ethyl-3-methylimidazolium thiocyanate; phases: Liquid
Fixed: Pressure, kPa = 101.325
Property: Refractive index (Na D-line) (Liquid); method: Standard Abbe refractometry
Temperature, K	Refractive index (Na D-line)	uncertainty
283.15	1.556	0.00064
288.15	1.5545	0.00064
293.15	1.55299	0.00064
298.15	1.55149	0.00064
303.15	1.54999	0.00064
308.15	1.5485	0.00064
313.15	1.54702	0.00064
318.15	1.54557	0.00064
323.15	1.54409	0.00064
328.15	1.54263	0.00064
333.15	1.54119	0.00064
338.15	1.53973	0.00063
343.15	1.53831	0.00063
348.15	1.53687	0.00063
353.15	1.53545	0.00063

System: 1-ethyl-3-methylimidazolium thiocyanate; phases: Liquid
Fixed: Pressure, kPa = 101.325
Property: Mass density, kg/m3 (Liquid); method: Vibrating tube method
Temperature, K	Mass density, kg/m3	uncertainty
353.15	1082.6	1.3
348.15	1085.5	1.3
343.15	1088.4	1.3
338.15	1091.4	1.3
333.15	1094.4	1.3
328.15	1097.3	1.3
323.15	1100.3	1.4
318.15	1103.3	1.4
313.15	1106.3	1.4
308.15	1109.4	1.4
303.15	1112.4	1.4
298.15	1115.5	1.4
293.15	1118.6	1.4
288.15	1121.7	1.4
283.15	1124.7	1.4

System: 1-ethyl-3-methylimidazolium hydrogen sulfate; phases: Liquid
Fixed: Pressure, kPa = 101.325
Property: Refractive index (Na D-line) (Liquid); method: Standard Abbe refractometry
Temperature, K	Refractive index (Na D-line)	uncertainty
283.15	1.50042	0.00061
288.15	1.49931	0.00061
293.15	1.4982	0.00061
298.15	1.4971	0.00061
303.15	1.49601	0.00061
308.15	1.49489	0.00061
313.15	1.49379	0.00061
318.15	1.49269	0.00061
323.15	1.49161	0.00061
328.15	1.49052	0.00061
333.15	1.48944	0.00061
338.15	1.48836	0.00061
343.15	1.48727	0.0006
348.15	1.48623	0.00061
353.15	1.48512	0.00061

System: 1-ethyl-3-methylimidazolium hydrogen sulfate; phases: Liquid
Fixed: Pressure, kPa = 101.325
Property: Mass density, kg/m3 (Liquid); method: Vibrating tube method
Temperature, K	Mass density, kg/m3	uncertainty
353.15	1333.4	2.1
348.15	1336.4	2.1
343.15	1339.4	2.1
338.15	1342.4	2.1
333.15	1345.4	2.1
328.15	1348.5	2.1
323.15	1351.5	2.1
318.15	1354.6	2.1
313.15	1357.8	2.1
308.15	1361.1	2.2
303.15	1364.3	2.2
298.15	1367.4	2.2
293.15	1370.5	2.2
288.15	1373.6	2.2
283.15	1376.7	2.2

System: 1-ethyl-3-methylimidazolium methanesulfonate; phases: Liquid
Fixed: Pressure, kPa = 101.325
Property: Refractive index (Na D-line) (Liquid); method: Standard Abbe refractometry
Temperature, K	Refractive index (Na D-line)	uncertainty
283.15	1.49994	0.00063
288.15	1.49855	0.00063
293.15	1.49718	0.00063
298.15	1.49582	0.00063
303.15	1.49444	0.00063
308.15	1.49308	0.00063
313.15	1.49172	0.00063
318.15	1.49039	0.00063
323.15	1.48905	0.00063
328.15	1.48768	0.00063
333.15	1.48638	0.00063
338.15	1.48498	0.00063
343.15	1.48367	0.00063
348.15	1.4823	0.00063
353.15	1.48095	0.00063

System: 1-ethyl-3-methylimidazolium methanesulfonate; phases: Liquid
Fixed: Pressure, kPa = 101.325
Property: Mass density, kg/m3 (Liquid); method: Vibrating tube method
Temperature, K	Mass density, kg/m3	uncertainty
353.15	1204.8	1.7
348.15	1208.1	1.7
343.15	1211.5	1.7
338.15	1214.8	1.7
333.15	1218.1	1.7
328.15	1221.5	1.7
323.15	1224.8	1.7
318.15	1228.2	1.7
313.15	1231.5	1.7
308.15	1234.9	1.8
303.15	1238.2	1.8
298.15	1241.6	1.8
293.15	1245	1.8
288.15	1248.4	1.8
283.15	1252	1.8

System: 1-ethyl-3-methylimidazolium ethyl sulfate; phases: Liquid
Fixed: Pressure, kPa = 101.325
Property: Refractive index (Na D-line) (Liquid); method: Standard Abbe refractometry
Temperature, K	Refractive index (Na D-line)	uncertainty
283.15	1.48317	0.00062
288.15	1.48185	0.00062
293.15	1.48053	0.00062
298.15	1.47921	0.00062
303.15	1.47789	0.00062
308.15	1.47657	0.00062
313.15	1.47528	0.00062
318.15	1.47395	0.00063
323.15	1.47262	0.00062
328.15	1.4713	0.00063
333.15	1.46994	0.00063
338.15	1.4685	0.00063
343.15	1.46723	0.00062
348.15	1.46596	0.00062
353.15	1.46468	0.00062

System: 1-ethyl-3-methylimidazolium ethyl sulfate; phases: Liquid
Fixed: Pressure, kPa = 101.325
Property: Mass density, kg/m3 (Liquid); method: Vibrating tube method
Temperature, K	Mass density, kg/m3	uncertainty
353.15	1200.9	1.6
348.15	1204.2	1.7
343.15	1207.6	1.7
338.15	1210.9	1.7
333.15	1214.2	1.7
328.15	1217.6	1.7
323.15	1220.9	1.7
318.15	1224.3	1.7
313.15	1227.6	1.7
308.15	1231	1.7
303.15	1234.3	1.7
298.15	1237.6	1.8
293.15	1241	1.8
288.15	1244.3	1.8
283.15	1247.7	1.8

System: 1-methyl-1-propylpyrrolidinium bis[(trifluoromethyl)sulfonyl]imide; phases: Liquid
Fixed: Pressure, kPa = 101.325
Property: Refractive index (Na D-line) (Liquid); method: Standard Abbe refractometry
Temperature, K	Refractive index (Na D-line)	uncertainty
283.15	1.42474	0.00063
288.15	1.42336	0.00063
293.15	1.42201	0.00063
298.15	1.42064	0.00063
303.15	1.41925	0.00063
308.15	1.41792	0.00063
313.15	1.41656	0.00063
318.15	1.41519	0.00063
323.15	1.41389	0.00063
328.15	1.41252	0.00063
333.15	1.41119	0.00063
338.15	1.40986	0.00063
343.15	1.40853	0.00063
348.15	1.40718	0.00062
353.15	1.40589	0.00062

System: 1-methyl-1-propylpyrrolidinium bis[(trifluoromethyl)sulfonyl]imide; phases: Liquid
Fixed: Pressure, kPa = 101.325
Property: Mass density, kg/m3 (Liquid); method: Vibrating tube method
Temperature, K	Mass density, kg/m3	uncertainty
353.15	1378.6	2.2
348.15	1382.9	2.2
343.15	1387.2	2.2
338.15	1391.6	2.3
333.15	1396	2.3
328.15	1400.4	2.3
323.15	1404.8	2.3
318.15	1409.3	2.3
313.15	1413.8	2.3
308.15	1418.3	2.4
303.15	1422.8	2.4
298.15	1427.4	2.4
293.15	1431.9	2.4
288.15	1436.4	2.4
283.15	1441	2.4

System: 1-methyl-1-propylpyrrolidinium bis(fluorosulfonyl)amide; phases: Liquid
Fixed: Pressure, kPa = 101.325
Property: Refractive index (Na D-line) (Liquid); method: Standard Abbe refractometry
Temperature, K	Refractive index (Na D-line)	uncertainty
283.15	1.44659	0.00063
288.15	1.44522	0.00063
293.15	1.44385	0.00063
298.15	1.4425	0.00063
303.15	1.44114	0.00063
308.15	1.43977	0.00063
313.15	1.43846	0.00063
318.15	1.4371	0.00063
323.15	1.43577	0.00062
328.15	1.43446	0.00062
333.15	1.43312	0.00062
338.15	1.43182	0.00062
343.15	1.43052	0.00062
348.15	1.42919	0.00062
353.15	1.42792	0.00062

System: 1-methyl-1-propylpyrrolidinium bis(fluorosulfonyl)amide; phases: Liquid
Fixed: Pressure, kPa = 101.325
Property: Mass density, kg/m3 (Liquid); method: Vibrating tube method
Temperature, K	Mass density, kg/m3	uncertainty
353.15	1295.1	1.9
348.15	1298.9	2
343.15	1302.7	2
338.15	1306.6	2
333.15	1310.4	2
328.15	1314.3	2
323.15	1318.2	2
318.15	1322.2	2
313.15	1326.1	2
308.15	1330.1	2.1
303.15	1334.1	2.1
298.15	1338.1	2.1
293.15	1342.1	2.1
288.15	1346.2	2.1
283.15	1350.3	2.1

System: 1-ethylpyridinium bis(fluorosulfonyl)amide; phases: Liquid
Fixed: Pressure, kPa = 101.325
Property: Refractive index (Na D-line) (Liquid); method: Standard Abbe refractometry
Temperature, K	Refractive index (Na D-line)	uncertainty
283.15	1.47477	0.00064
288.15	1.47331	0.00064
293.15	1.47185	0.00064
298.15	1.47038	0.00064
303.15	1.4689	0.00064
308.15	1.46745	0.00063
313.15	1.46602	0.00063
318.15	1.46458	0.00063
323.15	1.46315	0.00063
328.15	1.46174	0.00063
333.15	1.46032	0.00063
338.15	1.45895	0.00063
343.15	1.45754	0.00063
348.15	1.4561	0.00063
353.15	1.45476	0.00063

System: 1-ethylpyridinium bis(fluorosulfonyl)amide; phases: Liquid
Fixed: Pressure, kPa = 101.325
Property: Mass density, kg/m3 (Liquid); method: Vibrating tube method
Temperature, K	Mass density, kg/m3	uncertainty
353.15	1410.8	2.3
348.15	1415.1	2.3
343.15	1419.4	2.4
338.15	1423.7	2.4
333.15	1428.1	2.4
328.15	1432.4	2.4
323.15	1436.7	2.4
318.15	1441.1	2.4
313.15	1445.5	2.4
308.15	1449.9	2.5
303.15	1454.3	2.5
298.15	1458.7	2.5
293.15	1463.1	2.5
288.15	1467.5	2.5
283.15	1471.9	2.5

System: 1-butylpyridinium bis(fluorosulfonyl)amide; phases: Liquid
Fixed: Pressure, kPa = 101.325
Property: Refractive index (Na D-line) (Liquid); method: Standard Abbe refractometry
Temperature, K	Refractive index (Na D-line)	uncertainty
283.15	1.47569	0.00064
288.15	1.4742	0.00064
293.15	1.47271	0.00064
298.15	1.47123	0.00064
303.15	1.46975	0.00064
308.15	1.46828	0.00064
313.15	1.46683	0.00064
318.15	1.46537	0.00064
323.15	1.4639	0.00064
328.15	1.46247	0.00063
333.15	1.46103	0.00063
338.15	1.45963	0.00063
343.15	1.45823	0.00063
348.15	1.45677	0.00063
353.15	1.45536	0.00063

System: 1-butylpyridinium bis(fluorosulfonyl)amide; phases: Liquid
Fixed: Pressure, kPa = 101.325
Property: Mass density, kg/m3 (Liquid); method: Vibrating tube method
Temperature, K	Mass density, kg/m3	uncertainty
353.15	1324	2
348.15	1328.1	2
343.15	1332.2	2.1
338.15	1336.3	2.1
333.15	1340.4	2.1
328.15	1344.5	2.1
323.15	1348.6	2.1
318.15	1352.8	2.1
313.15	1356.9	2.1
308.15	1361.1	2.2
303.15	1365.2	2.2
298.15	1369.4	2.2
293.15	1373.6	2.2
288.15	1377.7	2.2
283.15	1381.9	2.2

System: 1-hexylpyridinium bis(fluorosulfonyl)amide; phases: Liquid
Fixed: Pressure, kPa = 101.325
Property: Refractive index (Na D-line) (Liquid); method: Standard Abbe refractometry
Temperature, K	Refractive index (Na D-line)	uncertainty
283.15	1.47548	0.00064
288.15	1.47398	0.00064
293.15	1.47248	0.00064
298.15	1.47098	0.00064
303.15	1.46948	0.00064
308.15	1.46798	0.00064
313.15	1.46651	0.00064
318.15	1.46502	0.00064
323.15	1.46355	0.00064
328.15	1.4621	0.00064
333.15	1.46063	0.00064
338.15	1.4592	0.00063
343.15	1.45776	0.00064
348.15	1.45628	0.00063
353.15	1.45489	0.00063

System: 1-hexylpyridinium bis(fluorosulfonyl)amide; phases: Liquid
Fixed: Pressure, kPa = 101.325
Property: Mass density, kg/m3 (Liquid); method: Vibrating tube method
Temperature, K	Mass density, kg/m3	uncertainty
353.15	1258.6	1.8
348.15	1262.5	1.8
343.15	1266.4	1.8
338.15	1270.3	1.9
333.15	1274.2	1.9
328.15	1278.2	1.9
323.15	1282.1	1.9
318.15	1286.1	1.9
313.15	1290	1.9
308.15	1294	1.9
303.15	1297.9	1.9
298.15	1301.9	2
293.15	1305.8	2
288.15	1309.8	2
283.15	1313.7	2

System: 1-ethyl-3-methylpyridinium bis(fluorosulfonyl)amide; phases: Liquid
Fixed: Pressure, kPa = 101.325
Property: Refractive index (Na D-line) (Liquid); method: Standard Abbe refractometry
Temperature, K	Refractive index (Na D-line)	uncertainty
283.15	1.47636	0.00064
288.15	1.47489	0.00064
293.15	1.47341	0.00064
298.15	1.47194	0.00064
303.15	1.47048	0.00064
308.15	1.46897	0.00064
313.15	1.46754	0.00063
318.15	1.46611	0.00063
323.15	1.46466	0.00064
328.15	1.46322	0.00063
333.15	1.4618	0.00063
338.15	1.46036	0.00063
343.15	1.45899	0.00063
348.15	1.45757	0.00063
353.15	1.45612	0.00064

System: 1-ethyl-3-methylpyridinium bis(fluorosulfonyl)amide; phases: Liquid
Fixed: Pressure, kPa = 101.325
Property: Mass density, kg/m3 (Liquid); method: Vibrating tube method
Temperature, K	Mass density, kg/m3	uncertainty
353.15	1360.5	2.2
348.15	1364.7	2.2
343.15	1368.9	2.2
338.15	1373.1	2.2
333.15	1377.4	2.2
328.15	1381.6	2.2
323.15	1385.8	2.2
318.15	1390.1	2.3
313.15	1394.3	2.3
308.15	1398.6	2.3
303.15	1402.9	2.3
298.15	1407.1	2.3
293.15	1411.4	2.3
288.15	1415.7	2.3
283.15	1420	2.4

System: 1-butyl-3-methyl-1H-imidazolium bis(perfluorobutylsulfonyl)amide; phases: Liquid
Fixed: Pressure, kPa = 101.325
Property: Refractive index (Na D-line) (Liquid); method: Standard Abbe refractometry
Temperature, K	Refractive index (Na D-line)	uncertainty
283.15	1.39249	0.00064
288.15	1.39104	0.00064
293.15	1.38955	0.00064
298.15	1.38807	0.00064
303.15	1.38662	0.00064
308.15	1.38516	0.00064
313.15	1.38367	0.00064
318.15	1.38222	0.00064
323.15	1.38078	0.00064
328.15	1.3793	0.00064
333.15	1.37783	0.00064
338.15	1.37638	0.00063
343.15	1.37496	0.00063
348.15	1.3735	0.00064
353.15	1.37206	0.00063

System: 1-butyl-3-methyl-1H-imidazolium bis(perfluorobutylsulfonyl)amide; phases: Liquid
Fixed: Pressure, kPa = 101.325
Property: Mass density, kg/m3 (Liquid); method: Vibrating tube method
Temperature, K	Mass density, kg/m3	uncertainty
353.15	1546.8	2.8
348.15	1552.6	2.8
343.15	1558.4	2.9
338.15	1564.2	2.9
333.15	1570	2.9
328.15	1575.8	2.9
323.15	1581.6	2.9
318.15	1587.4	3
313.15	1593.2	3
308.15	1599.1	3
303.15	1605	3
298.15	1611.1	3.1
293.15	1617.3	3.1
288.15	1623.4	3.1
283.15	1629.5	3.1

System: 1-ethyl-3-methylimidazolium bis((trifluoromethyl)sulfonyl)imide; phases: Liquid
Fixed: Pressure, kPa = 101.325
Property: Refractive index (Na D-line) (Liquid); method: Standard Abbe refractometry
Temperature, K	Refractive index (Na D-line)	uncertainty
283.15	1.42738	0.00063
288.15	1.42594	0.00063
293.15	1.42451	0.00063
298.15	1.42309	0.00063
303.15	1.42166	0.00063
308.15	1.42022	0.00063
313.15	1.41881	0.00063
318.15	1.4174	0.00063
323.15	1.41597	0.00063
328.15	1.41458	0.00063
333.15	1.41319	0.00063
338.15	1.41177	0.00063
343.15	1.41037	0.00063
348.15	1.40902	0.00063
353.15	1.4076	0.00063

System: 1-ethyl-3-methylimidazolium bis((trifluoromethyl)sulfonyl)imide; phases: Liquid
Fixed: Pressure, kPa = 101.325
Property: Mass density, kg/m3 (Liquid); method: Vibrating tube method
Temperature, K	Mass density, kg/m3	uncertainty
353.15	1463.9	2.5
348.15	1468.7	2.5
343.15	1473.6	2.5
338.15	1478.5	2.6
333.15	1483.4	2.6
328.15	1488.4	2.6
323.15	1493.3	2.6
318.15	1498.3	2.6
313.15	1503.3	2.7
308.15	1508.4	2.7
303.15	1513.4	2.7
298.15	1518.5	2.7
293.15	1523.6	2.7
288.15	1528.7	2.7
283.15	1533.8	2.8
