Measured thermophysical data. Densities and Viscosities of Binary Mixtures of Propanoic Acid with  N,N-Dimethylaniline and N,N-Diethylaniline at T = (303.15, 313.15,  and 323.15) K
Source: J. Chem. Eng. Data, 2012, 10.1021/je200862b
Compound 1: propanoic acid, C3H6O2, InChI=1S/C3H6O2/c1-2-3(4)5/h2H2,1H3,(H,4,5), purity 99%
Compound 2: N,N-dimethylaniline, C8H11N, InChI=1S/C8H11N/c1-9(2)8-6-4-3-5-7-8/h3-7H,1-2H3, purity 99%
Compound 3: N,N-diethylaniline, C10H15N, InChI=1S/C10H15N/c1-3-11(4-2)10-8-6-5-7-9-10/h5-9H,3-4H2,1-2H3, purity 99%

System: propanoic acid; phases: Liquid
Fixed: Pressure, kPa = 101
Property: Viscosity, Pa*s (Liquid); method: Capillary tube (Ostwald; Ubbelohde) method
Temperature, K	Viscosity, Pa*s	uncertainty
303.15	0.0009496	3.85e-05
313.15	0.0008476	3.95e-05
323.15	0.0007062	3.54e-05

System: propanoic acid; phases: Liquid
Fixed: Pressure, kPa = 101
Property: Mass density, kg/m3 (Liquid); method: Pycnometric method
Temperature, K	Mass density, kg/m3	uncertainty
303.15	982.09	2.09
313.15	973.4	2.35
323.15	961.39	2.05

System: N,N-dimethylaniline; phases: Liquid
Fixed: Pressure, kPa = 101
Property: Viscosity, Pa*s (Liquid); method: Capillary tube (Ostwald; Ubbelohde) method
Temperature, K	Viscosity, Pa*s	uncertainty
303.15	0.0011743	3.88e-05
313.15	0.0009823	3.97e-05
323.15	0.0008259	3.56e-05

System: N,N-dimethylaniline; phases: Liquid
Fixed: Pressure, kPa = 101
Property: Mass density, kg/m3 (Liquid); method: Pycnometric method
Temperature, K	Mass density, kg/m3	uncertainty
303.15	948.02	2.09
313.15	938.5	2.35
323.15	930.72	2.04

System: N,N-diethylaniline; phases: Liquid
Fixed: Pressure, kPa = 101
Property: Viscosity, Pa*s (Liquid); method: Capillary tube (Ostwald; Ubbelohde) method
Temperature, K	Viscosity, Pa*s	uncertainty
303.15	0.001703	0.0003095
313.15	0.001402	0.0001967
323.15	0.0010487	0.0001302

System: N,N-diethylaniline; phases: Liquid
Fixed: Pressure, kPa = 101
Property: Mass density, kg/m3 (Liquid); method: Vibrating tube method
Temperature, K	Mass density, kg/m3	uncertainty
303.15	925.98	2.69
313.15	917.72	2.98
323.15	912.8	2.35

System: propanoic acid + N,N-dimethylaniline; phases: Liquid
Fixed: Pressure, kPa = 101
Property: Viscosity, Pa*s (Liquid); method: Capillary tube (Ostwald; Ubbelohde) method
Temperature, K	Mole fraction of propanoic acid	Viscosity, Pa*s	uncertainty
303.15	0	0.0011743	3.88e-05
303.15	0.102	0.00127	3.9e-05
303.15	0.2054	0.001329	3.91e-05
303.15	0.3071	0.0013859	3.92e-05
303.15	0.4092	0.001446	3.93e-05
303.15	0.5107	0.0014939	3.94e-05
303.15	0.6178	0.001545	3.95e-05
303.15	0.7083	0.0015336	3.94e-05
303.15	0.8023	0.001457	3.93e-05
303.15	0.8987	0.0012254	3.89e-05
303.15	1	0.0009496	3.85e-05
313.15	0	0.0009823	3.97e-05
313.15	0.102	0.0010187	3.97e-05
313.15	0.2054	0.001058	3.98e-05
313.15	0.3071	0.0010929	3.99e-05
313.15	0.4092	0.001124	3.99e-05
313.15	0.5107	0.0011491	3.99e-05
313.15	0.6178	0.0011511	3.99e-05
313.15	0.7083	0.0011191	3.99e-05
313.15	0.8023	0.0010601	3.98e-05
313.15	0.8987	0.0009646	3.97e-05
313.15	1	0.0008476	3.95e-05
323.15	0	0.0008259	3.56e-05
323.15	0.102	0.0008432	3.56e-05
323.15	0.2054	0.0008693	3.56e-05
323.15	0.3071	0.0008949	3.57e-05
323.15	0.4092	0.0009196	3.57e-05
323.15	0.5107	0.0009397	3.57e-05
323.15	0.6178	0.0009442	3.57e-05
323.15	0.7083	0.0009121	3.57e-05
323.15	0.8023	0.000864	3.56e-05
323.15	0.8987	0.0007783	3.55e-05
323.15	1	0.0007062	3.54e-05

System: propanoic acid + N,N-dimethylaniline; phases: Liquid
Fixed: Pressure, kPa = 101
Property: Mass density, kg/m3 (Liquid); method: Pycnometric method
Temperature, K	Mole fraction of propanoic acid	Mass density, kg/m3	uncertainty
303.15	0	948.02	2.09
303.15	0.102	954.36	2.09
303.15	0.2054	959.8	2.09
303.15	0.3071	964.49	2.09
303.15	0.4092	969.31	2.09
303.15	0.5107	974.03	2.09
303.15	0.6178	978.56	2.09
303.15	0.7083	982.24	2.09
303.15	0.8023	985.32	2.09
303.15	0.8987	986.44	2.09
303.15	1	982.09	2.09
313.15	0	938.5	2.35
313.15	0.102	943.74	2.35
313.15	0.2054	949.09	2.35
313.15	0.3071	954.21	2.35
313.15	0.4092	959.17	2.35
313.15	0.5107	963.99	2.35
313.15	0.6178	968.62	2.35
313.15	0.7083	972.2	2.35
313.15	0.8023	975.35	2.35
313.15	0.8987	975.69	2.35
313.15	1	973.4	2.35
323.15	0	930.72	2.04
323.15	0.102	934.82	2.04
323.15	0.2054	939.72	2.05
323.15	0.3071	944.52	2.05
323.15	0.5107	953.51	2.05
323.15	0.6178	958	2.05
323.15	0.7083	961.05	2.05
323.15	0.8023	963.47	2.05
323.15	0.8987	963.54	2.05
323.15	1	961.39	2.05
323.15	1	961.39	2.05

System: propanoic acid + N,N-diethylaniline; phases: Liquid
Fixed: Pressure, kPa = 101
Property: Viscosity, Pa*s (Liquid); method: Capillary tube (Ostwald; Ubbelohde) method
Temperature, K	Mole fraction of propanoic acid	Viscosity, Pa*s	uncertainty
303.15	0	0.001703	0.0003095
303.15	0.1047	0.0018011	0.0003095
303.15	0.2096	0.00204	0.0003096
303.15	0.3142	0.0024041	0.0003097
303.15	0.4164	0.00291	0.0003099
303.15	0.5177	0.0036634	0.0003103
303.15	0.6097	0.00404	0.0003105
303.15	0.7077	0.003968	0.0003105
303.15	0.8123	0.00326	0.0003101
303.15	0.9156	0.0015317	0.0003094
303.15	1	0.0009496	0.0003093
313.15	0	0.001402	0.0001967
313.15	0.1047	0.00145	0.0001967
313.15	0.2096	0.00159	0.0001967
313.15	0.3142	0.0017652	0.0001968
313.15	0.4164	0.0021181	0.000197
313.15	0.5177	0.0025274	0.0001972
313.15	0.6097	0.00288	0.0001975
313.15	0.7077	0.0027375	0.0001974
313.15	0.8123	0.0020864	0.000197
313.15	0.9156	0.0012471	0.0001966
313.15	1	0.0008476	0.0001965
323.15	0	0.0010487	0.0001302
323.15	0.1047	0.0010678	0.0001302
323.15	0.2096	0.0011731	0.0001303
323.15	0.3142	0.0013147	0.0001304
323.15	0.4164	0.0015546	0.0001305
323.15	0.5177	0.0018654	0.0001307
323.15	0.6097	0.0021	0.0001309
323.15	0.7077	0.0019493	0.0001308
323.15	0.8123	0.00151	0.0001305
323.15	0.9156	0.0009723	0.0001302
323.15	1	0.0007062	0.0001301

System: propanoic acid + N,N-diethylaniline; phases: Liquid
Fixed: Pressure, kPa = 101
Property: Mass density, kg/m3 (Liquid); method: Vibrating tube method
Temperature, K	Mole fraction of propanoic acid	Mass density, kg/m3	uncertainty
303.15	0	925.98	2.69
303.15	0.1047	933.41	2.69
303.15	0.2096	942.07	2.69
303.15	0.3142	952.1	2.69
303.15	0.4164	963.82	2.69
303.15	0.5177	977.88	2.69
303.15	0.6097	989.1	2.69
303.15	0.7077	996.15	2.69
303.15	0.8123	995	2.69
303.15	0.9156	990.93	2.69
303.15	1	982.09	2.69
313.15	0	917.72	2.98
313.15	0.1047	924.61	2.98
313.15	0.2096	932.8	2.98
313.15	0.3142	942.21	2.98
313.15	0.4164	953.72	2.98
313.15	0.5177	967.27	2.98
313.15	0.6097	977.5	2.98
313.15	0.7077	983.95	2.98
313.15	0.8123	982.7	2.98
313.15	0.9156	980.07	2.98
313.15	1	973.4	2.98
323.15	0	912.8	2.35
323.15	0.1047	919.51	2.35
323.15	0.2096	926.38	2.35
323.15	0.3142	934.92	2.35
323.15	0.4164	944.35	2.35
323.15	0.5177	955.31	2.35
323.15	0.6097	965.34	2.35
323.15	0.7077	971.29	2.35
323.15	0.8123	974.71	2.35
323.15	0.9156	974.19	2.35
323.15	1	961.39	2.35
