Measured thermophysical data. Solubilities of Betulinic Acid in Thirteen Organic Solvents at Different Temperatures
Source: J. Chem. Eng. Data, 2011, 10.1021/je200531k
Compound 1: betulinic acid, C30H48O3, InChI=1S/C30H48O3/c1-18(2)19-10-15-30(25(32)33)17-16-28(6)20(24(19)30)8-9-22-27(5)13-12-23(31)26(3,4)21(27)11-14-29(22,28)7/h19-24,31H,1,8-17H2,2-7H3,(H,32,33)/t19-,20+,21-,22+,23-,24+,27-,28+,29+,30-/m0/s1, purity 98%
Compound 2: methanol, CH4O, InChI=1S/CH4O/c1-2/h2H,1H3
Compound 3: ethanol, C2H6O, InChI=1S/C2H6O/c1-2-3/h3H,2H2,1H3
Compound 4: propan-1-ol, C3H8O, InChI=1S/C3H8O/c1-2-3-4/h4H,2-3H2,1H3
Compound 5: propan-2-ol, C3H8O, InChI=1S/C3H8O/c1-3(2)4/h3-4H,1-2H3
Compound 6: butan-1-ol, C4H10O, InChI=1S/C4H10O/c1-2-3-4-5/h5H,2-4H2,1H3
Compound 7: butan-2-ol, C4H10O, InChI=1S/C4H10O/c1-3-4(2)5/h4-5H,3H2,1-2H3
Compound 8: pentan-1-ol, C5H12O, InChI=1S/C5H12O/c1-2-3-4-5-6/h6H,2-5H2,1H3
Compound 9: hexan-1-ol, C6H14O, InChI=1S/C6H14O/c1-2-3-4-5-6-7/h7H,2-6H2,1H3
Compound 10: ethyl methanoate, C3H6O2, InChI=1S/C3H6O2/c1-2-5-3-4/h3H,2H2,1H3
Compound 11: ethyl acetate, C4H8O2, InChI=1S/C4H8O2/c1-3-6-4(2)5/h3H2,1-2H3
Compound 12: butyl ethanoate, C6H12O2, InChI=1S/C6H12O2/c1-3-4-5-8-6(2)7/h3-5H2,1-2H3
Compound 13: acetone, C3H6O, InChI=1S/C3H6O/c1-3(2)4/h1-2H3
Compound 14: tetrahydrofuran, C4H8O, InChI=1S/C4H8O/c1-2-4-5-3-1/h1-4H2

System: betulinic acid; phases: Crystal, Liquid, Air at 1 atmosphere
Property: Normal melting temperature, K (Crystal); method: DTA
Normal melting temperature, K	uncertainty
588.45	0.5

System: methanol + betulinic acid; phases: Liquid, Crystal
Fixed: Pressure, kPa = 101
Property: Mole fraction of betulinic acid (Liquid); method: Chromatography
Temperature, K	Mole fraction of betulinic acid	uncertainty
278.2	0.00019	1.5e-05
288.2	0.000248	1.8e-05
298.2	0.000339	1.9e-05
308.2	0.000461	4.1e-05
318.2	0.000734	0.000112

System: ethanol + betulinic acid; phases: Liquid, Crystal
Fixed: Pressure, kPa = 101
Property: Mole fraction of betulinic acid (Liquid); method: Chromatography
Temperature, K	Mole fraction of betulinic acid	uncertainty
278.2	0.000651	3.3e-05
288.2	0.000819	4.1e-05
298.2	0.001069	6.2e-05
308.2	0.001351	6.8e-05
318.2	0.001712	8.8e-05

System: propan-1-ol + betulinic acid; phases: Liquid, Crystal
Fixed: Pressure, kPa = 101
Property: Mole fraction of betulinic acid (Liquid); method: Chromatography
Temperature, K	Mole fraction of betulinic acid	uncertainty
278.2	0.001031	5e-05
288.2	0.001371	0.000158
298.2	0.001778	8.6e-05
308.2	0.00221	0.000178
318.2	0.002799	0.000136

System: propan-2-ol + betulinic acid; phases: Liquid, Crystal
Fixed: Pressure, kPa = 101
Property: Mole fraction of betulinic acid (Liquid); method: Chromatography
Temperature, K	Mole fraction of betulinic acid	uncertainty
278.2	0.000765	4.8e-05
288.2	0.00092	4.5e-05
298.2	0.001197	5.8e-05
308.2	0.001488	7.2e-05
318.2	0.001963	9.5e-05

System: butan-1-ol + betulinic acid; phases: Liquid, Crystal
Fixed: Pressure, kPa = 101
Property: Mole fraction of betulinic acid (Liquid); method: Chromatography
Temperature, K	Mole fraction of betulinic acid	uncertainty
278.2	0.001177	5.6e-05
288.2	0.001487	7.1e-05
298.2	0.00192	0.000123
308.2	0.002345	0.000146
318.2	0.002997	0.000143

System: butan-2-ol + betulinic acid; phases: Liquid, Crystal
Fixed: Pressure, kPa = 101
Property: Mole fraction of betulinic acid (Liquid); method: Chromatography
Temperature, K	Mole fraction of betulinic acid	uncertainty
278.2	0.000821	6.5e-05
288.2	0.001128	8e-05
298.2	0.001492	7.3e-05
308.2	0.00189	9e-05
318.2	0.002447	0.000127

System: pentan-1-ol + betulinic acid; phases: Liquid, Crystal
Fixed: Pressure, kPa = 101
Property: Mole fraction of betulinic acid (Liquid); method: Chromatography
Temperature, K	Mole fraction of betulinic acid	uncertainty
278.2	0.001993	0.00012
288.2	0.002277	0.000107
298.2	0.002665	0.000125
308.2	0.003094	0.000166
318.2	0.00363	0.000171

System: hexan-1-ol + betulinic acid; phases: Liquid, Crystal
Fixed: Pressure, kPa = 101
Property: Mole fraction of betulinic acid (Liquid); method: Chromatography
Temperature, K	Mole fraction of betulinic acid	uncertainty
278.2	0.002262	0.000144
288.2	0.002833	0.000186
298.2	0.003243	0.000151
308.2	0.003782	0.000177
318.2	0.004542	0.000212

System: ethyl methanoate + betulinic acid; phases: Liquid, Crystal
Fixed: Pressure, kPa = 101
Property: Mole fraction of betulinic acid (Liquid); method: Chromatography
Temperature, K	Mole fraction of betulinic acid	uncertainty
278.2	0.0002	2e-05
288.2	0.000272	1.7e-05
298.2	0.000428	3.7e-05
308.2	0.000548	6.8e-05
318.2	0.000786	9.1e-05

System: ethyl acetate + betulinic acid; phases: Liquid, Crystal
Fixed: Pressure, kPa = 101
Property: Mole fraction of betulinic acid (Liquid); method: Chromatography
Temperature, K	Mole fraction of betulinic acid	uncertainty
278.2	0.00045	3.2e-05
288.2	0.000515	5.2e-05
298.2	0.000733	3.5e-05
308.2	0.000956	4.5e-05
318.2	0.001244	8.3e-05

System: butyl ethanoate + betulinic acid; phases: Liquid, Crystal
Fixed: Pressure, kPa = 101
Property: Mole fraction of betulinic acid (Liquid); method: Chromatography
Temperature, K	Mole fraction of betulinic acid	uncertainty
278.2	0.000824	3.9e-05
288.2	0.001001	0.000118
298.2	0.001198	0.000135
308.2	0.001591	7.4e-05
318.2	0.001928	9e-05

System: acetone + betulinic acid; phases: Liquid, Crystal
Fixed: Pressure, kPa = 101
Property: Mole fraction of betulinic acid (Liquid); method: Chromatography
Temperature, K	Mole fraction of betulinic acid	uncertainty
278.2	0.000398	2.9e-05
288.2	0.000502	0.000172
298.2	0.000598	2.9e-05
308.2	0.000829	4e-05
318.2	0.001032	7e-05

System: tetrahydrofuran + betulinic acid; phases: Liquid, Crystal
Fixed: Pressure, kPa = 101
Property: Mole fraction of betulinic acid (Liquid); method: Chromatography
Temperature, K	Mole fraction of betulinic acid	uncertainty
278.2	0.00975	0.00047
288.2	0.01356	0.000654
298.2	0.020561	0.000989
308.2	0.027573	0.001326
318.2	0.038754	0.001862
