Measured thermophysical data. Viscosity Measurements of the Ionic Liquid Trihexyl(tetradecyl)phosphonium Dicyanamide [P6,6,6,14][dca] Using the Vibrating Wire Technique
Source: J. Chem. Eng. Data, 2012, 10.1021/je200830j
Compound 1: tetradecyl(trihexyl)phosphonium dicyanamide, C34H68N3P, InChI=1S/C32H68P.C2N3/c1-5-9-13-17-18-19-20-21-22-23-24-28-32-33(29-25-14-10-6-2,30-26-15-11-7-3)31-27-16-12-8-4;3-1-5-2-4/h5-32H2,1-4H3;/q+1;-1
Compound 2: water, H2O, InChI=1S/H2O/h1H2

System: tetradecyl(trihexyl)phosphonium dicyanamide; phases: Liquid
Fixed: Pressure, kPa = 101.325
Property: Viscosity, Pa*s (Liquid); method: Vibrating wire viscometry
Temperature, K	Viscosity, Pa*s	uncertainty
293.14	0.5059	0.0277
298.2	0.378	0.0197
303.18	0.288	0.0143
308.2	0.2199	0.0104
313.18	0.1711	0.0078
318.19	0.1344	0.006

System: tetradecyl(trihexyl)phosphonium dicyanamide; phases: Liquid
Fixed: Pressure, kPa = 101.325
Property: Mass density, kg/m3 (Liquid); method: Vibrating tube method
Temperature, K	Mass density, kg/m3	uncertainty
290.66	902.3	1.9
290.66	902.3	1.9
293.15	900.9	1.9
293.16	900.9	1.9
295.65	899.5	1.9
295.66	899.5	1.9
298.15	898	1.9
298.16	898	1.9
300.65	896.6	1.9
300.66	896.6	1.9
303.15	895.1	1.9
303.16	895.1	1.9
305.65	893.7	1.9
305.65	893.7	1.9
308.15	892.3	1.9
308.16	892.3	1.9
310.65	890.9	1.9
310.66	890.9	1.9
313.15	889.5	1.9
313.16	889.5	1.9
315.65	888.1	1.9
315.65	888.1	1.9
318.15	886.7	1.9
318.15	886.7	1.9
320.65	885.3	1.9
320.65	885.3	1.9

System: water + tetradecyl(trihexyl)phosphonium dicyanamide; phases: Liquid
Fixed: Pressure, kPa = 101
Property: Viscosity, Pa*s (Liquid); method: Capillary tube (Ostwald; Ubbelohde) method
Temperature, K	Mole fraction of water	Viscosity, Pa*s	uncertainty
298.17	0.275	0.3728	0.01916
298.17	0.4	0.3627	0.02098
303.11	0.198	0.28453	0.01394
303.13	0.275	0.28244	0.01384
308.09	0.275	0.21715	0.01021
317.92	0.198	0.13523	0.00599
