Measured thermophysical data. Densities and Viscosities of 1-Ethyl-3-methylimidazolium n-Alkyl Sulfates
Source: J. Chem. Eng. Data, 2011, 10.1021/je200434a
Compound 1: 1-ethyl-3-methylimidazolium methylsulfate, C7H14N2O4S, InChI=1S/C6H11N2.CH4O4S/c1-3-8-5-4-7(2)6-8;1-5-6(2,3)4/h4-6H,3H2,1-2H3;1H3,(H,2,3,4)/q+1;/p-1
Compound 2: 3-ethyl-1-methylimidazolium butyl sulfate, C10H20N2O4S, InChI=1S/C6H11N2.C4H10O4S/c1-3-8-5-4-7(2)6-8;1-2-3-4-8-9(5,6)7/h4-6H,3H2,1-2H3;2-4H2,1H3,(H,5,6,7)/q+1;/p-1
Compound 3: 3-ethyl-1-methyl-1H-imidazolium hexyl sulfate, C12H24N2O4S, InChI=1S/C6H11N2.C6H14O4S/c1-3-8-5-4-7(2)6-8;1-2-3-4-5-6-10-11(7,8)9/h4-6H,3H2,1-2H3;2-6H2,1H3,(H,7,8,9)/q+1;/p-1
Compound 4: 1-ethyl-3-methylimidazolium hydrogen sulfate, C6H12N2O4S, InChI=1S/C6H11N2.H2O4S/c1-3-8-5-4-7(2)6-8;1-5(2,3)4/h4-6H,3H2,1-2H3;(H2,1,2,3,4)/q+1;/p-1
Compound 5: 1-ethyl-3-methylimidazolium octyl sulfate, C14H28N2O4S, InChI=1S/C8H18O4S.C6H11N2/c1-2-3-4-5-6-7-8-12-13(9,10)11;1-3-8-5-4-7(2)6-8/h2-8H2,1H3,(H,9,10,11);4-6H,3H2,1-2H3/q;+1/p-1

System: 1-ethyl-3-methylimidazolium methylsulfate; phases: Liquid
Fixed: Pressure, kPa = 101.325
Property: Viscosity, Pa*s (Liquid); method: Concentric cylinders viscometry
Temperature, K	Viscosity, Pa*s	uncertainty
283.15	0.1695	0.0073
288.15	0.1286	0.0054
293.15	0.0997	0.0041
298.15	0.0788	0.0032
303.15	0.0634	0.0026
308.15	0.0518	0.0021
313.15	0.0429	0.0017
318.15	0.0359	0.0015
323.15	0.0305	0.0012
328.15	0.0261	0.0011
333.15	0.0226	0.0009
338.15	0.0197	0.0008
343.15	0.0173	0.0007
348.15	0.0153	0.0006
353.15	0.0136	0.0006
358.15	0.0122	0.0005
363.15	0.011	0.0004
368.15	0.0099	0.0004
373.15	0.009	0.0004

System: 1-ethyl-3-methylimidazolium methylsulfate; phases: Liquid
Fixed: Pressure, kPa = 101.325
Property: Mass density, kg/m3 (Liquid); method: Vibrating tube method
Temperature, K	Mass density, kg/m3	uncertainty
293.15	1289.48	0.53
294.15	1288.8	0.53
295.15	1288.1	0.53
296.15	1287.41	0.53
297.15	1286.71	0.53
298.15	1286.02	0.53
299.15	1285.33	0.53
300.15	1284.64	0.52
301.15	1283.95	0.52
302.15	1283.26	0.52
303.15	1282.57	0.52
304.15	1281.89	0.52
305.15	1281.2	0.52
306.15	1280.52	0.52
307.15	1279.84	0.52
308.15	1279.15	0.52
309.15	1278.48	0.52
310.15	1277.8	0.52
311.15	1277.12	0.52
312.15	1276.44	0.52
313.15	1275.76	0.52
314.15	1275.09	0.52
315.15	1274.41	0.52
316.15	1273.74	0.52
317.15	1273.07	0.52
318.15	1272.4	0.52
319.15	1271.72	0.52
320.15	1271.05	0.52
321.15	1270.38	0.52
322.15	1269.71	0.52
323.15	1269.04	0.51
324.15	1268.37	0.51
325.15	1267.71	0.51
326.15	1267.04	0.51
327.15	1266.38	0.51
328.15	1265.71	0.51
329.15	1265.05	0.51
330.15	1264.39	0.51
331.15	1263.72	0.51
332.15	1263.06	0.51
333.15	1262.4	0.51
334.15	1261.74	0.51
335.15	1261.08	0.51
336.15	1260.42	0.51
337.15	1259.76	0.51
338.15	1259.1	0.51
339.15	1258.44	0.51
340.15	1257.78	0.51
341.15	1257.13	0.51
342.15	1256.47	0.51
343.15	1255.81	0.51
344.15	1255.15	0.51
345.15	1254.5	0.51
346.15	1253.84	0.5
347.15	1253.19	0.5
348.15	1252.54	0.5
349.15	1251.88	0.5
350.15	1251.23	0.5
351.15	1250.58	0.5
352.15	1249.93	0.5
353.15	1249.28	0.5
354.15	1248.63	0.5
355.15	1247.98	0.5
356.15	1247.33	0.5
357.15	1246.68	0.5
358.15	1246.03	0.5
359.15	1245.38	0.5
360.15	1244.74	0.5
361.15	1244.09	0.5
362.15	1243.44	0.5
363.15	1242.8	0.5

System: 3-ethyl-1-methylimidazolium butyl sulfate; phases: Liquid
Fixed: Pressure, kPa = 101.325
Property: Viscosity, Pa*s (Liquid); method: Concentric cylinders viscometry
Temperature, K	Viscosity, Pa*s	uncertainty
283.15	0.4684	0.0233
288.15	0.3325	0.0158
293.15	0.2423	0.0111
298.15	0.1808	0.008
303.15	0.1379	0.006
308.15	0.1072	0.0045
313.15	0.0848	0.0035
318.15	0.0681	0.0028
323.15	0.0556	0.0023
328.15	0.0459	0.0019
333.15	0.0384	0.0016
338.15	0.0324	0.0013
343.15	0.0277	0.0011
348.15	0.0238	0.001
353.15	0.0207	0.0009
358.15	0.0181	0.0008
363.15	0.016	0.0007
368.15	0.0142	0.0006
373.15	0.0126	0.0005

System: 3-ethyl-1-methylimidazolium butyl sulfate; phases: Liquid
Fixed: Pressure, kPa = 101.325
Property: Mass density, kg/m3 (Liquid); method: Vibrating tube method
Temperature, K	Mass density, kg/m3	uncertainty
293.15	1179.68	1.23
294.15	1178.99	1.22
295.15	1178.3	1.22
296.15	1177.62	1.22
297.15	1176.93	1.22
298.15	1176.24	1.22
299.15	1175.55	1.22
300.15	1174.87	1.21
301.15	1174.19	1.21
302.15	1173.5	1.21
303.15	1172.82	1.21
304.15	1172.14	1.21
305.15	1171.46	1.21
306.15	1170.78	1.21
307.15	1170.11	1.2
308.15	1169.43	1.2
309.15	1168.75	1.2
310.15	1168.08	1.2
311.15	1167.41	1.2
312.15	1166.73	1.2
313.15	1166.06	1.19
314.15	1165.39	1.19
315.15	1164.73	1.19
316.15	1164.06	1.19
317.15	1163.39	1.19
318.15	1162.73	1.19
319.15	1162.06	1.19
320.15	1161.4	1.18
321.15	1160.74	1.18
322.15	1160.07	1.18
323.15	1159.41	1.18
324.15	1158.76	1.18
325.15	1158.1	1.18
326.15	1157.43	1.17
327.15	1156.78	1.17
328.15	1156.12	1.17
329.15	1155.47	1.17
330.15	1154.81	1.17
331.15	1154.16	1.17
332.15	1153.51	1.17
333.15	1152.85	1.16
334.15	1152.2	1.16
335.15	1151.55	1.16
336.15	1150.9	1.16
337.15	1150.25	1.16
338.15	1149.6	1.16
339.15	1148.95	1.16
340.15	1148.3	1.15
341.15	1147.65	1.15
342.15	1147.01	1.15
343.15	1146.37	1.15
344.15	1145.72	1.15
345.15	1145.07	1.15
346.15	1144.43	1.15
347.15	1143.78	1.14
348.15	1143.14	1.14
349.15	1142.5	1.14
350.15	1141.85	1.14
351.15	1141.21	1.14
352.15	1140.57	1.14
353.15	1139.93	1.14
354.15	1139.29	1.13
355.15	1138.65	1.13
356.15	1138.01	1.13
357.15	1137.37	1.13
358.15	1136.73	1.13
359.15	1136.09	1.13
360.15	1135.45	1.13
361.15	1134.82	1.12
362.15	1134.18	1.12
363.15	1133.54	1.12

System: 3-ethyl-1-methyl-1H-imidazolium hexyl sulfate; phases: Liquid
Fixed: Pressure, kPa = 101.325
Property: Viscosity, Pa*s (Liquid); method: Concentric cylinders viscometry
Temperature, K	Viscosity, Pa*s	uncertainty
283.15	0.875	0.0475
288.15	0.604	0.0311
293.15	0.4283	0.021
298.15	0.3114	0.0147
303.15	0.2315	0.0105
308.15	0.1757	0.0078
313.15	0.1359	0.0059
318.15	0.1069	0.0045
323.15	0.0854	0.0036
328.15	0.0692	0.0029
333.15	0.0568	0.0023
338.15	0.0472	0.002
343.15	0.0396	0.0016
348.15	0.0336	0.0014
353.15	0.0288	0.0012
358.15	0.0248	0.001
363.15	0.0216	0.0009
368.15	0.0189	0.0008
373.15	0.0167	0.0007

System: 3-ethyl-1-methyl-1H-imidazolium hexyl sulfate; phases: Liquid
Fixed: Pressure, kPa = 101.325
Property: Mass density, kg/m3 (Liquid); method: Vibrating tube method
Temperature, K	Mass density, kg/m3	uncertainty
293.15	1133.8	1.12
294.15	1133.12	1.12
295.15	1132.45	1.12
296.15	1131.77	1.12
297.15	1131.09	1.12
298.15	1130.42	1.11
299.15	1129.74	1.11
300.15	1129.07	1.11
301.15	1128.4	1.11
302.15	1127.72	1.11
303.15	1127.05	1.11
304.15	1126.38	1.11
305.15	1125.71	1.1
306.15	1125.04	1.1
307.15	1124.37	1.1
308.15	1123.7	1.1
309.15	1123.03	1.1
310.15	1122.36	1.1
311.15	1121.7	1.09
312.15	1121.03	1.09
313.15	1120.37	1.09
314.15	1119.7	1.09
315.15	1119.04	1.09
316.15	1118.38	1.09
317.15	1117.72	1.09
318.15	1117.06	1.08
319.15	1116.4	1.08
320.15	1115.74	1.08
321.15	1115.08	1.08
322.15	1114.42	1.08
323.15	1113.77	1.08
324.15	1113.12	1.08
325.15	1112.46	1.07
326.15	1111.81	1.07
327.15	1111.16	1.07
328.15	1110.51	1.07
329.15	1109.86	1.07
330.15	1109.21	1.07
331.15	1108.56	1.07
332.15	1107.92	1.06
333.15	1107.27	1.06
334.15	1106.63	1.06
335.15	1105.98	1.06
336.15	1105.33	1.06
337.15	1104.69	1.06
338.15	1104.05	1.06
339.15	1103.41	1.05
340.15	1102.77	1.05
341.15	1102.13	1.05
342.15	1101.49	1.05
343.15	1100.85	1.05
344.15	1100.21	1.05
345.15	1099.57	1.05
346.15	1098.93	1.05
347.15	1098.3	1.04
348.15	1097.66	1.04
349.15	1097.02	1.04
350.15	1096.39	1.04
351.15	1095.75	1.04
352.15	1095.12	1.04
353.15	1094.49	1.04
354.15	1093.85	1.03
355.15	1093.22	1.03
356.15	1092.59	1.03
357.15	1091.95	1.03
358.15	1091.32	1.03
359.15	1090.69	1.03
360.15	1090.06	1.03
361.15	1089.43	1.02
362.15	1088.8	1.02
363.15	1088.17	1.02

System: 1-ethyl-3-methylimidazolium hydrogen sulfate; phases: Liquid
Fixed: Pressure, kPa = 101.325
Property: Viscosity, Pa*s (Liquid); method: Concentric cylinders viscometry
Temperature, K	Viscosity, Pa*s	uncertainty
283.15	5.7567	0.4084
288.15	3.635	0.2415
293.15	2.3899	0.1492
298.15	1.6284	0.0959
303.15	1.1448	0.0639
308.15	0.8271	0.0439
313.15	0.6122	0.0311
318.15	0.463	0.0226
323.15	0.3568	0.0168
328.15	0.2797	0.0128
333.15	0.2226	0.0099
338.15	0.1796	0.0078
343.15	0.1467	0.0062
348.15	0.1212	0.0051
353.15	0.1012	0.0042
358.15	0.0852	0.0035
363.15	0.0724	0.0029
368.15	0.0619	0.0025
373.15	0.0534	0.0022

System: 1-ethyl-3-methylimidazolium hydrogen sulfate; phases: Liquid
Fixed: Pressure, kPa = 101.325
Property: Mass density, kg/m3 (Liquid); method: Vibrating tube method
Temperature, K	Mass density, kg/m3	uncertainty
293.15	1368.86	0.58
294.15	1368.25	0.58
295.15	1367.63	0.58
296.15	1367	0.58
297.15	1366.38	0.58
298.15	1365.77	0.58
299.15	1365.14	0.58
300.15	1364.53	0.58
301.15	1363.91	0.58
302.15	1363.29	0.58
303.15	1362.67	0.58
304.15	1362.05	0.58
305.15	1361.44	0.58
306.15	1360.82	0.58
307.15	1360.21	0.58
308.15	1359.59	0.58
309.15	1358.98	0.58
310.15	1358.76	0.58
311.15	1358.14	0.58
312.15	1357.52	0.58
313.15	1356.9	0.58
314.15	1356.28	0.58
315.15	1355.67	0.57
316.15	1355.05	0.57
317.15	1354.43	0.57
318.15	1353.81	0.57
319.15	1353.19	0.57
320.15	1352.57	0.57
321.15	1351.96	0.57
322.15	1351.34	0.57
323.15	1350.72	0.57
324.15	1350.11	0.57
325.15	1349.49	0.57
326.15	1348.88	0.57
327.15	1348.27	0.57
328.15	1347.65	0.57
329.15	1347.04	0.57
330.15	1346.43	0.57
331.15	1345.82	0.57
332.15	1345.2	0.57
333.15	1344.6	0.57
334.15	1343.99	0.57
335.15	1343.38	0.57
336.15	1342.77	0.57
337.15	1342.16	0.57
338.15	1341.56	0.56
339.15	1340.95	0.56
340.15	1340.35	0.56
341.15	1339.75	0.56
342.15	1339.14	0.56
343.15	1338.54	0.56
344.15	1337.94	0.56
345.15	1337.34	0.56
346.15	1336.74	0.56
347.15	1336.14	0.56
348.15	1335.54	0.56
349.15	1334.94	0.56
350.15	1334.35	0.56
351.15	1333.75	0.56
352.15	1333.16	0.56
353.15	1332.57	0.56
354.15	1331.97	0.56
355.15	1331.38	0.56
356.15	1330.79	0.56
357.15	1330.2	0.56
358.15	1329.61	0.56
359.15	1329.02	0.56
360.15	1328.44	0.56
361.15	1327.85	0.56
362.15	1327.26	0.56
363.15	1326.68	0.55

System: 1-ethyl-3-methylimidazolium octyl sulfate; phases: Liquid
Fixed: Pressure, kPa = 101.325
Property: Viscosity, Pa*s (Liquid); method: Concentric cylinders viscometry
Temperature, K	Viscosity, Pa*s	uncertainty
283.15	1.879	0.1142
288.15	1.2521	0.0717
293.15	0.856	0.0463
298.15	0.6016	0.0309
303.15	0.4336	0.0213
308.15	0.3196	0.0151
313.15	0.2405	0.011
318.15	0.1844	0.0082
323.15	0.1438	0.0062
328.15	0.1139	0.0048
333.15	0.0916	0.0038
338.15	0.0745	0.0031
343.15	0.0614	0.0025
348.15	0.0511	0.0021
353.15	0.043	0.0018
358.15	0.0365	0.0015
363.15	0.0313	0.0013
368.15	0.027	0.0011
373.15	0.0235	0.001

System: 1-ethyl-3-methylimidazolium octyl sulfate; phases: Liquid
Fixed: Pressure, kPa = 101.325
Property: Mass density, kg/m3 (Liquid); method: Vibrating tube method
Temperature, K	Mass density, kg/m3	uncertainty
293.15	1098.76	1.04
294.15	1098.1	1.04
295.15	1097.43	1.04
296.15	1096.77	1.04
297.15	1096.31	1.04
298.15	1095.65	1.04
299.15	1094.99	1.04
300.15	1094.32	1.03
301.15	1093.65	1.03
302.15	1092.99	1.03
303.15	1092.32	1.03
304.15	1091.66	1.03
305.15	1090.99	1.03
306.15	1090.33	1.03
307.15	1089.66	1.02
308.15	1089	1.02
309.15	1088.33	1.02
310.15	1087.67	1.02
311.15	1087	1.02
312.15	1086.34	1.02
313.15	1085.68	1.02
314.15	1085.02	1.01
315.15	1084.36	1.01
316.15	1083.7	1.01
317.15	1083.04	1.01
318.15	1082.38	1.01
319.15	1081.72	1.01
320.15	1081.06	1.01
321.15	1080.4	1.01
322.15	1079.75	1
323.15	1079.09	1
324.15	1078.44	1
325.15	1077.78	1
326.15	1077.13	1
327.15	1076.48	1
328.15	1075.83	1
329.15	1075.17	0.99
330.15	1074.52	0.99
331.15	1073.87	0.99
332.15	1073.23	0.99
333.15	1072.58	0.99
334.15	1071.93	0.99
335.15	1071.29	0.99
336.15	1070.64	0.98
337.15	1070	0.98
338.15	1069.35	0.98
339.15	1068.71	0.98
340.15	1068.07	0.98
341.15	1067.43	0.98
342.15	1066.79	0.98
343.15	1066.15	0.97
344.15	1065.51	0.97
345.15	1064.87	0.97
346.15	1064.23	0.97
347.15	1063.6	0.97
348.15	1062.96	0.97
349.15	1062.32	0.97
350.15	1061.69	0.97
351.15	1061.05	0.96
352.15	1060.42	0.96
353.15	1059.79	0.96
354.15	1059.16	0.96
355.15	1058.53	0.96
356.15	1057.89	0.96
357.15	1057.26	0.96
358.15	1056.63	0.96
359.15	1056	0.95
360.15	1055.37	0.95
361.15	1054.75	0.95
362.15	1054.12	0.95
363.15	1053.49	0.95
