Measured thermophysical data. PVTx Measurements of the Carbon Dioxide + 2,3,3,3-  Tetrafluoroprop-1-ene Binary System
Source: J. Chem. Eng. Data, 2012, 10.1021/je201051q
Compound 1: carbon dioxide, CO2, InChI=1S/CO2/c2-1-3, purity 99.99%
Compound 2: 2,3,3,3-tetrafluoro-1-propene, C3H2F4, InChI=1S/C3H2F4/c1-2(4)3(5,6)7/h1H2, purity 99.95%

System: carbon dioxide + 2,3,3,3-tetrafluoro-1-propene; phases: Fluid (supercritical or subcritical phases)
Property: Molar volume, m3/mol (Fluid (supercritical or subcritical phases)); method: ISOCHOR
Temperature, K	Pressure, kPa	Mole fraction of carbon dioxide	Molar volume, m3/mol	uncertainty
224.91	61.7	0.051	0.002894	1e-05
233.25	86.7	0.051	0.002895	1e-05
243.07	124.7	0.051	0.002896	1e-05
252.97	179	0.051	0.002897	1e-05
263.06	253.3	0.051	0.002899	1e-05
272.93	348.1	0.051	0.0029	1e-05
282.56	466.4	0.051	0.002901	1e-05
292.7	623	0.051	0.002902	1e-05
223.28	95.7	0.16	0.002938	1e-05
233	129.7	0.16	0.002939	1e-05
242.68	174.3	0.16	0.00294	1e-05
252.82	234.8	0.16	0.002942	1e-05
262.8	313	0.16	0.002943	1e-05
272.75	412.9	0.16	0.002944	1e-05
282.57	537.9	0.16	0.002945	1e-05
223.62	147.7	0.266	0.002569	1e-05
233.09	190.8	0.266	0.00257	1e-05
243.03	246	0.266	0.002571	1e-05
252.95	315.1	0.266	0.002572	1e-05
262.95	401.7	0.266	0.002573	1e-05
272.93	509.9	0.266	0.002574	1e-05
282.75	641.4	0.266	0.002575	1e-05
292.75	804.6	0.266	0.002577	1e-05
223.08	197.6	0.365	0.002253	1e-05
232.97	252.9	0.365	0.002254	1e-05
242.99	322.1	0.365	0.002255	1e-05
252.69	399.3	0.365	0.002256	1e-05
262.58	492.3	0.365	0.002257	1e-05
272.66	609	0.365	0.002258	1e-05
282.69	751.6	0.365	0.002259	1e-05
225.14	271.4	0.48	0.002063	1e-05
232.92	331.8	0.48	0.002063	1e-05
242.84	412.5	0.48	0.002064	1e-05
252.82	504.1	0.48	0.002065	1e-05
262.86	610.6	0.48	0.002066	1e-05
272.84	734.4	0.48	0.002067	1e-05
282.62	884.2	0.48	0.002068	1e-05
223.63	312	0.574	0.002153	1e-05
233.01	387.5	0.574	0.002154	1e-05
243.08	479.4	0.574	0.002155	1e-05
253.03	574.3	0.574	0.002156	1e-05
262.96	686	0.574	0.002157	1e-05
272.82	813.7	0.574	0.002158	1e-05
223.07	420.2	0.662	0.001227	1e-05
232.97	559	0.662	0.001227	1e-05
242.95	711.4	0.662	0.001228	1e-05
252.9	876.2	0.662	0.001228	1e-05
262.94	1044	0.662	0.001229	1e-05
272.83	1223.1	0.662	0.001229	1e-05
282.64	1417.7	0.662	0.00123	1e-05
224.2	460.3	0.754	0.001747	1e-05
233.06	576	0.754	0.001747	1e-05
243.04	710.6	0.754	0.001748	1e-05
253.04	842.3	0.754	0.001749	1e-05
263.01	980.1	0.754	0.00175	1e-05

System: carbon dioxide + 2,3,3,3-tetrafluoro-1-propene; phases: Gas
Property: Molar volume, m3/mol (Gas); method: ISOCHOR
Temperature, K	Pressure, kPa	Mole fraction of carbon dioxide	Molar volume, m3/mol	uncertainty
302.81	736.5	0.051	0.002904	1e-05
303.05	738	0.051	0.002904	1e-05
312.94	773.7	0.051	0.002905	1e-05
322.75	808.1	0.051	0.002906	1e-05
333.09	843.3	0.051	0.002907	1e-05
343.06	877.3	0.051	0.002909	1e-05
353.02	910.7	0.051	0.00291	1e-05
362.92	943.3	0.051	0.002911	1e-05
372.92	975.7	0.051	0.002912	1e-05
292.47	673.8	0.16	0.002947	1e-05
302.61	742.4	0.16	0.002948	1e-05
307.54	758.8	0.16	0.002949	1e-05
313.12	778.4	0.16	0.002949	1e-05
323.09	811.8	0.16	0.002951	1e-05
333.08	844.9	0.16	0.002952	1e-05
343.05	877.5	0.16	0.002953	1e-05
352.99	909.5	0.16	0.002954	1e-05
362.96	941.6	0.16	0.002956	1e-05
372.89	973.3	0.16	0.002957	1e-05
302.88	856.1	0.266	0.002578	1e-05
312.82	895.4	0.266	0.002579	1e-05
323.1	934.8	0.266	0.00258	1e-05
333.08	972.6	0.266	0.002581	1e-05
343.04	1010.2	0.266	0.002582	1e-05
353	1046.2	0.266	0.002583	1e-05
362.92	1082.5	0.266	0.002584	1e-05
372.89	1119	0.266	0.002586	1e-05
292.85	906.8	0.365	0.00226	1e-05
302.96	976.1	0.365	0.002261	1e-05
312.92	1020.4	0.365	0.002262	1e-05
322.6	1062.1	0.365	0.002263	1e-05
333.07	1106.6	0.365	0.002264	1e-05
343.03	1149.4	0.365	0.002265	1e-05
352.99	1191.4	0.365	0.002266	1e-05
362.92	1232.6	0.365	0.002267	1e-05
292.6	1003.3	0.48	0.002069	1e-05
302.61	1055.6	0.48	0.00207	1e-05
313.12	1111.4	0.48	0.002071	1e-05
323.11	1157.2	0.48	0.002071	1e-05
333.08	1202.8	0.48	0.002072	1e-05
343.1	1248	0.48	0.002073	1e-05
352.97	1292.5	0.48	0.002074	1e-05
362.96	1337.1	0.48	0.002075	1e-05
372.92	1381.3	0.48	0.002076	1e-05
282.88	940.5	0.574	0.002159	1e-05
292.91	1004.6	0.574	0.00216	1e-05
302.86	1049.3	0.574	0.002161	1e-05
312.79	1094.3	0.574	0.002162	1e-05
323.1	1139.4	0.574	0.002163	1e-05
333.06	1183.4	0.574	0.002164	1e-05
343.04	1227	0.574	0.002165	1e-05
352.99	1269.8	0.574	0.002166	1e-05
362.94	1311.6	0.574	0.002167	1e-05
372.92	1354.3	0.574	0.002167	1e-05
292.69	1614	0.662	0.001231	1e-05
302.89	1732.2	0.662	0.001231	1e-05
312.84	1814.8	0.662	0.001232	1e-05
323.1	1898.7	0.662	0.001232	1e-05
333.08	1979.1	0.662	0.001233	1e-05
343.05	2058.6	0.662	0.001233	1e-05
352.99	2136.6	0.662	0.001234	1e-05
362.97	2214.8	0.662	0.001234	1e-05
372.93	2291.9	0.662	0.001235	1e-05
272.98	1122.7	0.754	0.00175	1e-05
282.63	1179.9	0.754	0.001751	1e-05
292.67	1237.7	0.754	0.001752	1e-05
302.67	1296	0.754	0.001753	1e-05
312.7	1352.4	0.754	0.001753	1e-05
323.1	1407.6	0.754	0.001754	1e-05
333.08	1460.2	0.754	0.001755	1e-05
343.07	1512.6	0.754	0.001756	1e-05
353.02	1564.1	0.754	0.001756	1e-05
362.96	1615.2	0.754	0.001757	1e-05
