Measured thermophysical data. Densities, Speeds of Sound, and Viscosities of (L-Proline +  Aqueous Glucose), and (L-Proline + Aqueous Sucrose)  Solutions in the Temperature Range (298.15 to 323.15) K
Source: J. Chem. Eng. Data, 2011, 10.1021/je2000205
Compound 1: L-proline, C5H9NO2, InChI=1S/C5H9NO2/c7-5(8)4-2-1-3-6-4/h4,6H,1-3H2,(H,7,8)/t4-/m0/s1
Compound 2: D-glucose, C6H12O6, InChI=1S/C6H12O6/c7-1-3(9)5(11)6(12)4(10)2-8/h1,3-6,8-12H,2H2/t3-,4+,5+,6+/m0/s1, purity 99%
Compound 3: D-sucrose, C12H22O11, InChI=1S/C12H22O11/c13-1-4-6(16)8(18)9(19)11(21-4)23-12(3-15)10(20)7(17)5(2-14)22-12/h4-11,13-20H,1-3H2/t4-,5-,6-,7-,8+,9-,10+,11-,12+/m1/s1, purity 99%
Compound 4: water, H2O, InChI=1S/H2O/h1H2, purity 99.8%

System: D-glucose + L-proline + water; phases: Liquid
Fixed: Pressure, kPa = 100
Fixed: Solvent: Molality, mol/kg of D-glucose = 1.13
Property: Mass density, kg/m3 (Liquid); method: Vibrating tube method
Temperature, K	Molality, mol/kg of L-proline	Mass density, kg/m3	uncertainty
298.15	0	1065.068	0.23
298.15	0.1912	1069.914	0.233
298.15	0.3893	1074.682	0.237
298.15	0.5947	1079.392	0.241
298.15	0.8079	1084.234	0.244
298.15	1.0296	1088.891	0.248
298.15	1.2601	1093.633	0.252
298.15	1.5002	1098.472	0.256
303.15	0	1063.297	0.228
303.15	0.1912	1068.091	0.232
303.15	0.3893	1072.853	0.236
303.15	0.5947	1077.613	0.239
303.15	0.8079	1082.324	0.243
303.15	1.0296	1087.082	0.247
303.15	1.2601	1091.614	0.25
303.15	1.5002	1096.324	0.254
308.15	0	1061.359	0.227
308.15	0.1912	1066.123	0.231
308.15	0.3893	1070.831	0.234
308.15	0.5947	1075.582	0.238
308.15	0.8079	1080.242	0.241
308.15	1.0296	1084.851	0.245
308.15	1.2601	1089.381	0.249
308.15	1.5002	1094.124	0.252
313.15	0	1059.245	0.225
313.15	0.1912	1063.981	0.229
313.15	0.3893	1068.662	0.233
313.15	0.5947	1073.41	0.236
313.15	0.8079	1078.042	0.24
313.15	1.0296	1082.614	0.243
313.15	1.2601	1087.144	0.247
313.15	1.5002	1091.763	0.251
318.15	0	1056.983	0.224
318.15	0.1912	1061.671	0.227
318.15	0.3893	1066.343	0.231
318.15	0.5947	1070.982	0.235
318.15	0.8079	1075.553	0.238
318.15	1.0296	1080.163	0.242
318.15	1.2601	1084.652	0.245
318.15	1.5002	1089.353	0.249
323.15	0	1054.253	0.222
323.15	0.1912	1058.923	0.226
323.15	0.3893	1063.582	0.229
323.15	0.5947	1068.224	0.233
323.15	0.8079	1072.892	0.236
323.15	1.0296	1077.534	0.24
323.15	1.2601	1082.052	0.243
323.15	1.5002	1086.691	0.247

System: D-glucose + L-proline + water; phases: Liquid
Fixed: Pressure, kPa = 100
Fixed: Solvent: Molality, mol/kg of D-glucose = 1.13
Property: Speed of sound, m/s (Liquid); method: Sing-around technique in a fixed-path interferometer
Temperature, K	Molality, mol/kg of L-proline	Speed of sound, m/s	uncertainty
298.15	0	1564.8	1.43
298.15	0.1912	1577.84	1.43
298.15	0.3893	1590.99	1.44
298.15	0.5947	1604.19	1.44
298.15	0.8079	1615.98	1.44
298.15	1.0296	1627.62	1.44
298.15	1.2601	1639.14	1.44
298.15	1.5002	1650.44	1.44
303.15	0	1574.3	1.43
303.15	0.1912	1586.7	1.43
303.15	0.3893	1599.25	1.44
303.15	0.5947	1611.87	1.44
303.15	0.8079	1623.13	1.44
303.15	1.0296	1634.16	1.44
303.15	1.2601	1645.08	1.44
303.15	1.5002	1655.85	1.44
308.15	0	1582.38	1.43
308.15	0.1912	1594.19	1.43
308.15	0.3893	1606.2	1.43
308.15	0.5947	1618.3	1.44
308.15	0.8079	1628.95	1.44
308.15	1.0296	1639.51	1.44
308.15	1.2601	1649.9	1.44
308.15	1.5002	1660.16	1.44
313.15	0	1589.06	1.43
313.15	0.1912	1600.35	1.43
313.15	0.3893	1611.86	1.43
313.15	0.5947	1623.47	1.43
313.15	0.8079	1633.61	1.44
313.15	1.0296	1643.68	1.44
313.15	1.2601	1653.59	1.44
313.15	1.5002	1663.38	1.44
318.15	0	1594.42	1.43
318.15	0.1912	1605.25	1.43
318.15	0.3893	1616.29	1.43
318.15	0.5947	1627.45	1.43
318.15	0.8079	1637.11	1.44
318.15	1.0296	1646.74	1.44
318.15	1.2601	1656.19	1.44
318.15	1.5002	1665.55	1.44
323.15	0	1598.53	1.43
323.15	0.1912	1608.94	1.43
323.15	0.3893	1619.55	1.43
323.15	0.5947	1630.3	1.43
323.15	0.8079	1639.51	1.44
323.15	1.0296	1648.72	1.44
323.15	1.2601	1657.76	1.44
323.15	1.5002	1667.71	1.44

System: D-glucose + L-proline + water; phases: Liquid
Fixed: Pressure, kPa = 100
Fixed: Solvent: Molality, mol/kg of D-glucose = 1.13
Property: Viscosity, Pa*s (Liquid); method: Capillary tube (Ostwald; Ubbelohde) method
Temperature, K	Molality, mol/kg of L-proline	Viscosity, Pa*s	uncertainty
298.15	0	0.001489	0.0001495
298.15	0.1912	0.0015016	0.0001508
298.15	0.3893	0.0016078	0.0001614
298.15	0.5947	0.0017569	0.0001763
298.15	0.8079	0.0019141	0.0001921
298.15	1.0296	0.002091	0.0002098
298.15	1.2601	0.0022604	0.0002268
298.15	1.5002	0.0024225	0.000243
303.15	0	0.0012777	0.0001282
303.15	0.1912	0.0012844	0.0001289
303.15	0.3893	0.0014036	0.0001408
303.15	0.5947	0.0015295	0.0001535
303.15	0.8079	0.0016662	0.0001672
303.15	1.0296	0.0018046	0.0001811
303.15	1.2601	0.0019493	0.0001956
303.15	1.5002	0.0021246	0.0002132
308.15	0	0.0011472	0.0001151
308.15	0.1912	0.0011595	0.0001163
308.15	0.3893	0.001262	0.0001266
308.15	0.5947	0.0013806	0.0001385
308.15	0.8079	0.001493	0.0001498
308.15	1.0296	0.0016068	0.0001612
308.15	1.2601	0.0017469	0.0001753
308.15	1.5002	0.0018942	0.0001901
313.15	0	0.0009944	9.98e-05
313.15	0.1912	0.0010215	0.0001025
313.15	0.3893	0.0010949	0.0001099
313.15	0.5947	0.0011825	0.0001186
313.15	0.8079	0.0013048	0.0001309
313.15	1.0296	0.0013938	0.0001399
313.15	1.2601	0.0015088	0.0001514
313.15	1.5002	0.0016246	0.000163
318.15	0	0.0009095	9.12e-05
318.15	0.1912	0.0009329	9.36e-05
318.15	0.3893	0.0010005	0.0001004
318.15	0.5947	0.0010963	0.0001099
318.15	0.8079	0.0011688	0.0001172
318.15	1.0296	0.0012563	0.000126
318.15	1.2601	0.0013801	0.0001384
318.15	1.5002	0.0014548	0.0001459
323.15	0	0.0008291	8.32e-05
323.15	0.1912	0.0008372	8.4e-05
323.15	0.3893	0.0009013	9.04e-05
323.15	0.5947	0.0009803	9.84e-05
323.15	0.8079	0.0010539	0.0001057
323.15	1.0296	0.0011295	0.0001133
323.15	1.2601	0.0012288	0.0001233
323.15	1.5002	0.0013136	0.0001318

System: D-sucrose + L-proline + water; phases: Liquid
Fixed: Pressure, kPa = 100
Fixed: Solvent: Molality, mol/kg of D-sucrose = 1.27
Property: Mass density, kg/m3 (Liquid); method: Vibrating tube method
Temperature, K	Molality, mol/kg of L-proline	Mass density, kg/m3	uncertainty
298.15	0	1127.374	0.279
298.15	0.1805	1130.924	0.282
298.15	0.3676	1134.381	0.285
298.15	0.5615	1137.872	0.287
298.15	0.7625	1141.343	0.29
298.15	0.9716	1144.89	0.293
298.15	1.1888	1148.242	0.296
298.15	1.4153	1151.714	0.299
303.15	0	1125.373	0.277
303.15	0.1805	1128.832	0.28
303.15	0.3676	1132.272	0.283
303.15	0.5615	1135.614	0.286
303.15	0.7625	1139.08	0.288
303.15	0.9716	1142.391	0.291
303.15	1.1888	1145.673	0.294
303.15	1.4153	1148.972	0.297
308.15	0	1123.197	0.276
308.15	0.1805	1126.63	0.279
308.15	0.3676	1129.954	0.281
308.15	0.5615	1133.282	0.284
308.15	0.7625	1136.683	0.287
308.15	0.9716	1139.9	0.289
308.15	1.1888	1143.334	0.292
308.15	1.4153	1146.52	0.295
313.15	0	1120.735	0.274
313.15	0.1805	1124.123	0.277
313.15	0.3676	1127.432	0.279
313.15	0.5615	1130.791	0.282
313.15	0.7625	1134.062	0.285
313.15	0.9716	1137.314	0.287
313.15	1.1888	1140.473	0.29
313.15	1.4153	1143.824	0.293
318.15	0	1118.184	0.272
318.15	0.1805	1121.551	0.275
318.15	0.3676	1124.872	0.277
318.15	0.5615	1128.163	0.28
318.15	0.7625	1131.504	0.283
318.15	0.9716	1134.632	0.285
318.15	1.1888	1137.814	0.288
318.15	1.4153	1140.823	0.29
323.15	0	1115.445	0.27
323.15	0.1805	1118.823	0.273
323.15	0.3676	1122.171	0.275
323.15	0.5615	1125.424	0.278
323.15	0.7625	1128.783	0.281
323.15	0.9716	1131.962	0.283
323.15	1.1888	1135.233	0.286
323.15	1.4153	1138.324	0.288

System: D-sucrose + L-proline + water; phases: Liquid
Fixed: Pressure, kPa = 100
Fixed: Solvent: Molality, mol/kg of D-sucrose = 1.13
Property: Speed of sound, m/s (Liquid); method: Sing-around technique in a fixed-path interferometer
Temperature, K	Molality, mol/kg of L-proline	Speed of sound, m/s	uncertainty
298.15	0	1607.89	1.44
298.15	0.1805	1621.95	1.44
298.15	0.3676	1635.24	1.44
298.15	0.5615	1648.01	1.44
298.15	0.7625	1660.27	1.44
298.15	0.9716	1671.9	1.44
298.15	1.1888	1683.8	1.45
298.15	1.4153	1694.21	1.45
303.15	0	1615.56	1.44
303.15	0.1805	1628.92	1.44
303.15	0.3676	1641.62	1.44
303.15	0.5615	1653.79	1.44
303.15	0.7625	1665.43	1.44
303.15	0.9716	1676.53	1.44
303.15	1.1888	1687.87	1.44
303.15	1.4153	1697.78	1.45
308.15	0	1621.92	1.44
308.15	0.1805	1634.68	1.44
308.15	0.3676	1646.79	1.44
308.15	0.5615	1658.4	1.44
308.15	0.7625	1669.47	1.44
308.15	0.9716	1680.07	1.44
308.15	1.1888	1690.9	1.44
308.15	1.4153	1700.35	1.45
313.15	0	1627	1.44
313.15	0.1805	1639.2	1.44
313.15	0.3676	1650.89	1.44
313.15	0.5615	1661.7	1.44
313.15	0.7625	1672.42	1.44
313.15	0.9716	1682.56	1.44
313.15	1.1888	1692.92	1.44
313.15	1.4153	1701.93	1.45
318.15	0	1630.84	1.43
318.15	0.1805	1642.54	1.44
318.15	0.3676	1653.63	1.44
318.15	0.5615	1664.06	1.44
318.15	0.7625	1674.3	1.44
318.15	0.9716	1684.02	1.44
318.15	1.1888	1693.96	1.44
318.15	1.4153	1702.55	1.45
323.15	0	1633.3	1.43
323.15	0.1805	1644.75	1.44
323.15	0.3676	1655.4	1.44
323.15	0.5615	1665.36	1.44
323.15	0.7625	1675.17	1.44
323.15	0.9716	1684.52	1.44
323.15	1.1888	1694.08	1.44
323.15	1.4153	1702.96	1.45

System: D-sucrose + L-proline + water; phases: Liquid
Fixed: Pressure, kPa = 100
Fixed: Solvent: Molality, mol/kg of D-sucrose = 1.13
Property: Viscosity, Pa*s (Liquid); method: Capillary tube (Ostwald; Ubbelohde) method
Temperature, K	Molality, mol/kg of L-proline	Viscosity, Pa*s	uncertainty
298.15	0	0.0027164	0.0002725
298.15	0.1805	0.0027919	0.0002802
298.15	0.3676	0.0031547	0.0003164
298.15	0.5615	0.0034361	0.0003447
298.15	0.7625	0.0037024	0.0003715
298.15	0.9716	0.0040552	0.0004069
298.15	1.1888	0.0043327	0.0004347
298.15	1.4153	0.0046589	0.0004673
303.15	0	0.0023757	0.0002384
303.15	0.1805	0.0025038	0.0002512
303.15	0.3676	0.002793	0.0002802
303.15	0.5615	0.0030031	0.0003013
303.15	0.7625	0.0032367	0.0003247
303.15	0.9716	0.0034839	0.0003496
303.15	1.1888	0.0037873	0.0003801
303.15	1.4153	0.0040894	0.0004103
308.15	0	0.0020748	0.0002082
308.15	0.1805	0.0021944	0.0002202
308.15	0.3676	0.0024123	0.0002421
308.15	0.5615	0.0026373	0.0002647
308.15	0.7625	0.0028842	0.0002894
308.15	0.9716	0.0030849	0.0003096
308.15	1.1888	0.0032733	0.0003286
308.15	1.4153	0.0035865	0.0003599
313.15	0	0.0017948	0.0001801
313.15	0.1805	0.0019157	0.0001922
313.15	0.3676	0.0020979	0.0002105
313.15	0.5615	0.0022509	0.0002259
313.15	0.7625	0.0024739	0.0002483
313.15	0.9716	0.0026259	0.0002636
313.15	1.1888	0.0027987	0.0002809
313.15	1.4153	0.003074	0.0003085
318.15	0	0.001587	0.0001592
318.15	0.1805	0.0017022	0.0001708
318.15	0.3676	0.0018695	0.0001875
318.15	0.5615	0.0019686	0.0001975
318.15	0.7625	0.0021375	0.0002145
318.15	0.9716	0.0023068	0.0002314
318.15	1.1888	0.0024205	0.0002429
318.15	1.4153	0.002717	0.0002726
323.15	0	0.001394	0.0001399
323.15	0.1805	0.0015042	0.0001509
323.15	0.3676	0.0016652	0.0001671
323.15	0.5615	0.0017418	0.0001747
323.15	0.7625	0.0019294	0.0001936
323.15	0.9716	0.0020493	0.0002056
323.15	1.1888	0.0021583	0.0002165
323.15	1.4153	0.0023373	0.0002347

System: D-glucose + water; phases: Liquid
Fixed: Pressure, kPa = 100
Fixed: Molality, mol/kg of D-glucose = 1.13
Property: Mass density, kg/m3 (Liquid); method: Vibrating tube method
Temperature, K	Mass density, kg/m3	uncertainty
298.15	1065.068	0.12
303.15	1063.297	0.106
308.15	1061.359	0.105
313.15	1059.245	0.104
318.15	1056.983	0.104
323.15	1054.253	0.116

System: D-glucose + water; phases: Liquid
Fixed: Pressure, kPa = 100
Fixed: Molality, mol/kg of D-glucose = 1.13
Property: Speed of sound, m/s (Liquid); method: Sing-around technique in a fixed-path interferometer
Temperature, K	Speed of sound, m/s	uncertainty
298.15	1564.8	1.36
303.15	1574.3	1.28
308.15	1582.38	1.27
313.15	1589.06	1.27
318.15	1594.42	1.27
323.15	1598.53	1.36

System: D-glucose + water; phases: Liquid
Fixed: Pressure, kPa = 100
Fixed: Molality, mol/kg of D-glucose = 1.13
Property: Viscosity, Pa*s (Liquid); method: Capillary tube (Ostwald; Ubbelohde) method
Temperature, K	Viscosity, Pa*s	uncertainty
298.15	0.001489	0.0001492
303.15	0.0012777	0.0001282
308.15	0.0011472	0.0001151
313.15	0.0009944	9.97e-05
318.15	0.0009095	9.12e-05
323.15	0.0008291	8.31e-05

System: D-sucrose + water; phases: Liquid
Fixed: Pressure, kPa = 100
Fixed: Molality, mol/kg of D-sucrose = 1.27
Property: Mass density, kg/m3 (Liquid); method: Vibrating tube method
Temperature, K	Mass density, kg/m3	uncertainty
298.15	1127.374	0.178
303.15	1125.373	0.167
308.15	1123.197	0.166
313.15	1120.735	0.165
318.15	1118.184	0.164
323.15	1115.445	0.172

System: D-sucrose + water; phases: Liquid
Fixed: Pressure, kPa = 100
Fixed: Molality, mol/kg of D-sucrose = 1.13
Property: Speed of sound, m/s (Liquid); method: Sing-around technique in a fixed-path interferometer
Temperature, K	Speed of sound, m/s	uncertainty
298.15	1607.89	1.39
303.15	1615.56	1.31
308.15	1621.92	1.31
313.15	1627	1.3
318.15	1630.84	1.3
323.15	1633.3	1.39

System: D-sucrose + water; phases: Liquid
Fixed: Pressure, kPa = 100
Fixed: Molality, mol/kg of D-sucrose = 1.13
Property: Viscosity, Pa*s (Liquid); method: Capillary tube (Ostwald; Ubbelohde) method
Temperature, K	Viscosity, Pa*s	uncertainty
298.15	0.0027164	0.0002724
303.15	0.0023757	0.0002383
308.15	0.0020748	0.0002081
313.15	0.0017948	0.00018
318.15	0.001587	0.0001592
323.15	0.001394	0.0001397
