Measured thermophysical data. Experimental Measurement and Modeling of the Viscosity of Dimethyl Ether
Source: J. Chem. Eng. Data, 2012, 10.1021/je201297j
Compound 1: dimethyl ether, C2H6O, InChI=1S/C2H6O/c1-3-2/h1-2H3, purity 99.9%

System: dimethyl ether; phases: Liquid, Gas
Property: Viscosity, Pa*s (Liquid); method: Vibrating wire viscometry
Temperature, K	Viscosity, Pa*s	uncertainty
243.15	0.00022169	6.19e-06
248.155	0.00020967	5.99e-06
253.147	0.00019885	5.81e-06
258.143	0.00018894	5.65e-06
263.151	0.00017961	5.51e-06
268.138	0.00017092	5.37e-06
273.142	0.00016275	5.24e-06
278.134	0.00015524	5.13e-06
283.136	0.00014792	5.02e-06
288.142	0.00014143	4.93e-06
293.139	0.00013506	4.84e-06
298.14	0.00012897	4.75e-06
303.138	0.00012399	4.68e-06
308.141	0.00011808	4.61e-06
313.142	0.00011291	4.54e-06
318.12	0.00010803	4.47e-06
323.125	0.00010314	4.41e-06
328.124	9.861e-05	4.36e-06
333.126	9.419e-05	4.3e-06
338.127	8.983e-05	4.25e-06
343.129	8.575e-05	4.21e-06
348.126	8.166e-05	4.19e-06
353.124	7.777e-05	4.17e-06
358.13	7.388e-05	4.16e-06
363.132	7.014e-05	4.14e-06
368.135	6.636e-05	4.13e-06
373.129	6.256e-05	4.12e-06

System: dimethyl ether; phases: Liquid
Property: Viscosity, Pa*s (Liquid); method: Vibrating wire viscometry
Temperature, K	Pressure, kPa	Viscosity, Pa*s	uncertainty
253.146	5000	0.00020444	5.92e-06
253.146	10000	0.00021247	6.05e-06
253.146	15000	0.00021987	6.18e-06
253.146	20000	0.00023143	6.38e-06
253.146	25000	0.00024212	6.57e-06
253.146	30000	0.00025406	6.77e-06
263.151	5000	0.00018364	5.58e-06
263.151	10000	0.00019112	5.7e-06
263.151	15000	0.00019887	5.83e-06
263.151	20000	0.00020679	5.96e-06
263.151	25000	0.00021556	6.11e-06
263.151	30000	0.00022516	6.28e-06
273.141	5000	0.0001669	5.32e-06
273.141	10000	0.00017416	5.43e-06
273.141	15000	0.0001816	5.55e-06
273.141	20000	0.00018896	5.67e-06
273.141	25000	0.00019596	5.78e-06
273.141	30000	0.00020347	5.91e-06
283.14	5000	0.00015205	5.09e-06
283.14	10000	0.00015903	5.2e-06
283.14	15000	0.00016575	5.3e-06
283.14	20000	0.00017238	5.4e-06
283.14	25000	0.00017908	5.51e-06
283.14	30000	0.00018575	5.62e-06
293.141	5000	0.00013949	4.91e-06
293.141	10000	0.00014555	5e-06
293.141	15000	0.00015267	5.1e-06
293.141	20000	0.0001586	5.19e-06
293.141	25000	0.00016516	5.29e-06
293.141	30000	0.00017089	5.38e-06
303.138	5000	0.00012762	4.75e-06
303.138	10000	0.00013402	4.83e-06
303.138	15000	0.00014015	4.92e-06
303.138	20000	0.00014635	5.01e-06
303.138	25000	0.00015209	5.09e-06
303.138	30000	0.00015842	5.19e-06
313.138	5000	0.00011652	4.6e-06
313.138	10000	0.00012352	4.69e-06
313.138	15000	0.0001294	4.77e-06
313.138	20000	0.00013548	4.85e-06
313.138	25000	0.00014153	4.94e-06
313.138	30000	0.00014734	5.02e-06
323.123	5000	0.00010696	4.47e-06
323.123	10000	0.00011385	4.56e-06
323.123	15000	0.00011986	4.64e-06
323.123	20000	0.00012623	4.73e-06
323.123	25000	0.00013157	4.8e-06
323.123	30000	0.00013703	4.88e-06
333.123	5000	9.797e-05	4.36e-06
333.123	10000	0.00010494	4.45e-06
333.123	15000	0.00011113	4.52e-06
333.123	20000	0.000117	4.6e-06
333.123	25000	0.00012312	4.68e-06
333.123	30000	0.00012839	4.75e-06
343.126	5000	8.951e-05	4.26e-06
343.126	10000	9.664e-05	4.35e-06
343.126	15000	0.00010364	4.43e-06
343.126	20000	0.00010961	4.5e-06
343.126	25000	0.00011514	4.57e-06
343.126	30000	0.00012043	4.64e-06
353.121	5000	8.119e-05	4.21e-06
353.121	10000	8.899e-05	4.26e-06
353.121	15000	9.59e-05	4.34e-06
353.121	20000	0.00010169	4.4e-06
353.121	25000	0.00010753	4.48e-06
353.121	30000	0.00011274	4.54e-06
363.134	10000	8.181e-05	4.21e-06
363.134	15000	8.877e-05	4.25e-06
363.134	20000	9.499e-05	4.32e-06
363.134	25000	0.00010097	4.4e-06
363.134	30000	0.00010655	4.46e-06
373.132	5000	6.522e-05	4.16e-06
373.132	10000	7.506e-05	4.19e-06
373.132	15000	8.237e-05	4.21e-06
373.132	20000	8.883e-05	4.25e-06
373.132	25000	9.475e-05	4.32e-06
373.132	30000	9.991e-05	4.38e-06
