Measured thermophysical data. P-p-T Measurements for 1-Ethyl and 1-Butyl-3-methylimidazolium Dicyanamides from Their Melting Temperature to 353 K and up to 60 MPa in Pressure
Source: J. Chem. Eng. Data, 2012, 10.1021/je201283n
Compound 1: 1-ethyl-3-methylimidazolium dicyanamide, C8H11N5, InChI=1S/C6H11N2.C2N3/c1-3-8-5-4-7(2)6-8;3-1-5-2-4/h4-6H,3H2,1-2H3;/q+1;-1, purity 98%
Compound 2: 1-butyl-3-methylimidazolium dicyanamide, C10H15N5, InChI=1S/C8H15N2.C2N3/c1-3-4-5-10-7-6-9(2)8-10;3-1-5-2-4/h6-8H,3-5H2,1-2H3;/q+1;-1, purity 98%

System: 1-ethyl-3-methylimidazolium dicyanamide; phases: Liquid
Property: Mass density, kg/m3 (Liquid); method: ISOCHOR
Temperature, K	Pressure, kPa	Mass density, kg/m3	uncertainty
256.825	20357	1142.71	1.66
256.923	29975	1145.41	1.67
256.974	10611	1139.49	1.65
257.123	1250.8	1136.35	1.65
261.968	9950.2	1135.94	1.65
262.109	19886	1139.04	1.65
262.332	39980	1144.93	1.66
262.456	619.6	1132.49	1.64
267.671	20023	1135.45	1.64
267.671	39943	1141.75	1.66
267.697	29879	1138.56	1.65
267.701	49706	1144.45	1.66
267.704	9753.2	1132.18	1.64
267.704	9894	1132.04	1.64
267.705	29968	1138.56	1.65
267.706	49662	1144.45	1.66
267.708	20196	1135.44	1.64
267.711	40066	1141.75	1.66
268.056	649.7	1128.69	1.63
273.249	29805	1134.96	1.64
273.343	49967	1141.26	1.66
273.4	39951	1138.06	1.65
273.491	19943	1131.55	1.64
273.51	10041	1128.22	1.63
273.552	60051	1143.95	1.66
274.207	775.7	1124.56	1.62
278.57	59071	1140.8	1.66
279.197	40050	1134.45	1.64
279.22	50024	1137.55	1.65
279.413	30010	1131.04	1.64
279.594	10349	1124.23	1.62
279.65	9960.6	1124.1	1.62
279.661	20569	1127.7	1.63
280.013	1016.8	1120.72	1.61
280.04	1077.6	1120.72	1.61
285.078	50002	1133.94	1.64
285.128	60064	1137.04	1.65
285.391	9816.5	1120.27	1.61
285.415	40116	1130.53	1.63
285.434	19560	1123.61	1.62
285.437	19459	1123.61	1.62
285.452	9814.9	1120.27	1.61
285.503	20153	1123.73	1.62
285.507	30235	1127.2	1.63
286.615	2009	1116.68	1.61
291.086	59995	1133.42	1.64
291.453	50059	1130.01	1.63
291.467	9754	1116.28	1.61
291.47	50178	1130.13	1.63
291.509	40153	1126.69	1.63
291.613	19904	1119.75	1.61
291.792	29944	1123.08	1.62
297.625	60101	1129.48	1.63
297.754	50232	1126.16	1.63
297.911	20011	1115.75	1.6
297.976	30141	1119.22	1.61
298.078	1020.2	1108.78	1.59
298.157	103.4	1108.35	1.59
298.157	40265	1122.54	1.62
303.935	60074	1125.65	1.62
304.201	39942	1118.71	1.61
304.225	49724	1122.03	1.62
304.281	29918	1115.22	1.6
304.344	10634	1108.27	1.59
310.522	20049	1107.77	1.59
310.573	59616	1121.51	1.62
310.652	49941	1118.17	1.61
310.805	40003	1114.68	1.6
311.244	1092	1100.23	1.57
317.167	9765	1099.76	1.57
317.186	29905	1107.23	1.59
317.225	59899	1117.62	1.61
317.445	50073	1114.13	1.6
324.195	60082	1113.57	1.6
324.282	20103	1099.19	1.57
325.017	1127.1	1091.44	1.56
331.281	30008	1098.63	1.57
331.293	9862.4	1090.95	1.55
337.917	60055	1105.54	1.58
338.387	40023	1098.06	1.57
338.742	20149	1090.36	1.55
339.672	1074	1082.2	1.54
345.693	50073	1097.48	1.57
346.215	30275	1089.77	1.55
346.223	9873.1	1081.75	1.54

System: 1-butyl-3-methylimidazolium dicyanamide; phases: Liquid
Property: Mass density, kg/m3 (Liquid); method: ISOCHOR
Temperature, K	Pressure, kPa	Mass density, kg/m3	uncertainty
237.204	1327.9	1099.45	1.57
242.136	9986.9	1099.05	1.57
247.769	20189	1098.57	1.57
248.088	1170.5	1092.06	1.56
253.328	10197	1091.63	1.56
253.334	29961	1098.11	1.57
259.122	20009	1091.16	1.56
259.172	39931	1097.63	1.57
259.682	1030	1084.28	1.54
265.123	50114	1097.14	1.57
265.239	10141	1083.84	1.54
265.249	30347	1090.66	1.55
270.553	18709	1083.42	1.54
271.066	59859	1096.65	1.57
271.134	39925	1090.18	1.55
273.279	2767.5	1075.98	1.52
277.415	50079	1089.67	1.55
277.917	9955.1	1075.61	1.52
277.964	30503	1082.82	1.54
277.981	10008	1075.61	1.52
283.668	59955	1089.17	1.55
284.145	40138	1082.33	1.54
284.154	1038.8	1068.31	1.51
284.23	1148.3	1068.31	1.51
284.466	20074	1075.1	1.52
291.052	29671	1074.21	1.52
291.052	30032	1074.57	1.52
291.056	11299	1067.78	1.51
291.445	51356	1081.75	1.54
296.97	19796	1067.32	1.51
297.265	60158	1081.29	1.54
298.179	40270	1073.65	1.52
298.184	40659	1074.02	1.52
299.21	3719.1	1059.78	1.49
303.971	30176	1066.78	1.51
303.972	10315	1059.42	1.49
304.811	50325	1073.5	1.52
310.98	40117	1066.24	1.51
311.013	20033	1058.89	1.49
311.344	59700	1072.99	1.52
311.367	676.6	1050.98	1.48
317.984	49917	1065.7	1.5
318.267	9911	1050.46	1.47
318.275	30183	1058.34	1.49
325.32	60007	1065.14	1.5
325.555	39796	1057.8	1.49
326.005	19921	1049.89	1.47
326.531	876.3	1041.71	1.46
333.119	50157	1057.22	1.49
333.667	9918.1	1041.19	1.46
333.67	30169	1049.32	1.47
340.796	60149	1056.64	1.49
341.31	39980	1048.75	1.47
341.769	20126	1040.59	1.46
342.411	781.5	1031.94	1.44
349.322	50089	1048.15	1.47
349.802	9629.2	1031.41	1.44
349.804	30031	1040.31	1.46
