Measured thermophysical data. Density, Speed of Sound, Viscosity, Refractive Index, and Excess Volume of N-Methyl-2-pyrrolidone (NMP) + Water + Ethanol from T = (293.15 to 323.15) K
Source: J. Chem. Eng. Data, 2012, 10.1021/je201152j
Compound 1: N-methylpyrrolidone, C5H9NO, InChI=1S/C5H9NO/c1-6-4-2-3-5(6)7/h2-4H2,1H3, purity 99%
Compound 2: ethanol, C2H6O, InChI=1S/C2H6O/c1-2-3/h3H,2H2,1H3, purity 99.5%
Compound 3: water, H2O, InChI=1S/H2O/h1H2, purity 99%

System: N-methylpyrrolidone; phases: Liquid
Property: Refractive index (Na D-line) (Liquid); method: Standard Abbe refractometry
Temperature, K	Pressure, kPa	Refractive index (Na D-line)	uncertainty
298.15	101.325	1.468	0.0004

System: N-methylpyrrolidone; phases: Liquid
Property: Mass density, kg/m3 (Liquid); method: Vibrating tube method
Temperature, K	Pressure, kPa	Mass density, kg/m3	uncertainty
298.15	101.325	1028.3	0.5

System: N-methylpyrrolidone; phases: Liquid
Property: Viscosity, Pa*s (Liquid); method: Capillary tube (Ostwald; Ubbelohde) method
Temperature, K	Pressure, kPa	Viscosity, Pa*s	uncertainty
298.15	101.325	0.001681	1.3e-05

System: N-methylpyrrolidone; phases: Liquid
Property: Speed of sound, m/s (Liquid); method: Sing-around technique in a fixed-path interferometer
Temperature, K	Pressure, kPa	Speed of sound, m/s	uncertainty
298.15	101.325	1545.2	1.9

System: ethanol; phases: Liquid
Property: Refractive index (Na D-line) (Liquid); method: Standard Abbe refractometry
Temperature, K	Pressure, kPa	Refractive index (Na D-line)	uncertainty
298.15	101.325	1.3595	0.0004

System: ethanol; phases: Liquid
Property: Mass density, kg/m3 (Liquid); method: Vibrating tube method
Temperature, K	Pressure, kPa	Mass density, kg/m3	uncertainty
298.15	101.325	785.21	0.42

System: ethanol; phases: Liquid
Property: Viscosity, Pa*s (Liquid); method: Capillary tube (Ostwald; Ubbelohde) method
Temperature, K	Pressure, kPa	Viscosity, Pa*s	uncertainty
298.15	101.325	0.001091	8e-06

System: ethanol; phases: Liquid
Property: Speed of sound, m/s (Liquid); method: Sing-around technique in a fixed-path interferometer
Temperature, K	Pressure, kPa	Speed of sound, m/s	uncertainty
298.15	101.325	1144.2	1.6

System: ethanol + N-methylpyrrolidone + water; phases: Liquid
Fixed: Pressure, kPa = 100
Property: Viscosity, Pa*s (Liquid); method: Capillary tube (Ostwald; Ubbelohde) method
Temperature, K	Mole fraction of N-methylpyrrolidone	Mole fraction of water	Viscosity, Pa*s	uncertainty
293.15	0.0994	0.2038	0.002038	1.5e-05
293.15	0.0995	0.301	0.002572	1.8e-05
293.15	0.0996	0.1038	0.001756	1.3e-05
293.15	0.0996	0.4013	0.002715	1.9e-05
293.15	0.0999	0.8008	0.003888	3.2e-05
293.15	0.1003	0.4993	0.003076	2.2e-05
293.15	0.1005	0.6137	0.003463	2.7e-05
293.15	0.1008	0.6993	0.003807	3.1e-05
293.15	0.1993	0.301	0.002484	1.8e-05
293.15	0.1993	0.5013	0.003422	2.6e-05
293.15	0.1995	0.4003	0.002925	2.1e-05
293.15	0.1997	0.1019	0.001735	1.3e-05
293.15	0.2001	0.1986	0.002057	1.5e-05
293.15	0.2004	0.5987	0.004155	3.3e-05
293.15	0.2004	0.6997	0.004781	3.8e-05
293.15	0.2978	0.3042	0.002584	1.9e-05
293.15	0.2981	0.1063	0.001723	1.3e-05
293.15	0.2994	0.601	0.004765	3.8e-05
293.15	0.2997	0.202	0.002094	1.6e-05
293.15	0.2997	0.5007	0.003801	3e-05
293.15	0.2999	0.4008	0.003136	2.4e-05
293.15	0.3963	0.2058	0.002619	1.9e-05
293.15	0.3989	0.1002	0.002115	1.8e-05
293.15	0.3992	0.5016	0.003955	3.1e-05
293.15	0.3997	0.3017	0.002704	2e-05
293.15	0.401	0.3992	0.003198	2.5e-05
293.15	0.4997	0.4023	0.003343	2.6e-05
293.15	0.4998	0.1006	0.001781	1.4e-05
293.15	0.5004	0.2986	0.002668	2.1e-05
293.15	0.5011	0.1987	0.002144	1.7e-05
293.15	0.5971	0.202	0.002231	1.7e-05
293.15	0.5991	0.3013	0.002686	2.1e-05
293.15	0.5995	0.099	0.001837	1.5e-05
293.15	0.694	0.1084	0.001939	1.5e-05
293.15	0.6959	0.2032	0.002292	1.8e-05
293.15	0.8043	0.0949	0.001903	1.5e-05
303.15	0.0994	0.2038	0.001676	1.2e-05
303.15	0.0995	0.301	0.002005	1.4e-05
303.15	0.0996	0.1038	0.001457	1.1e-05
303.15	0.0996	0.4013	0.002109	1.5e-05
303.15	0.0999	0.8008	0.002726	2.3e-05
303.15	0.1003	0.4993	0.002357	1.7e-05
303.15	0.1005	0.6137	0.002546	1.9e-05
303.15	0.1008	0.6993	0.002726	2.2e-05
303.15	0.1993	0.301	0.001964	1.4e-05
303.15	0.1993	0.5013	0.002629	2e-05
303.15	0.1995	0.4003	0.002278	1.7e-05
303.15	0.1997	0.1019	0.001442	1.1e-05
303.15	0.2001	0.1986	0.001676	1.2e-05
303.15	0.2004	0.5987	0.002959	2.3e-05
303.15	0.2004	0.6997	0.003465	2.9e-05
303.15	0.2978	0.3042	0.002028	1.5e-05
303.15	0.2981	0.1063	0.00146	1.1e-05
303.15	0.2994	0.601	0.003416	2.8e-05
303.15	0.2997	0.202	0.001707	1.3e-05
303.15	0.2997	0.5007	0.002841	2.2e-05
303.15	0.2999	0.4008	0.002405	1.8e-05
303.15	0.3963	0.2058	0.002066	1.5e-05
303.15	0.3989	0.1002	0.001743	1.4e-05
303.15	0.3992	0.5016	0.003036	2.4e-05
303.15	0.3997	0.3017	0.002089	1.5e-05
303.15	0.401	0.3992	0.00249	1.9e-05
303.15	0.4997	0.4023	0.002538	2e-05
303.15	0.4998	0.1006	0.001539	1.2e-05
303.15	0.5004	0.2986	0.002169	1.7e-05
303.15	0.5011	0.1987	0.001756	1.4e-05
303.15	0.5971	0.202	0.001836	1.4e-05
303.15	0.5991	0.3013	0.002147	1.7e-05
303.15	0.5995	0.099	0.001541	1.2e-05
303.15	0.694	0.1084	0.001611	1.3e-05
303.15	0.6959	0.2032	0.001866	1.5e-05
303.15	0.8043	0.0949	0.001604	1.3e-05
313.15	0.0994	0.2038	0.001351	1e-05
313.15	0.0995	0.301	0.001586	1.2e-05
313.15	0.0996	0.1038	0.001209	9e-06
313.15	0.0996	0.4013	0.001644	1.2e-05
313.15	0.0999	0.8008	0.002005	1.7e-05
313.15	0.1003	0.4993	0.001788	1.3e-05
313.15	0.1005	0.6137	0.001933	1.5e-05
313.15	0.1008	0.6993	0.002023	1.6e-05
313.15	0.1993	0.301	0.001567	1.2e-05
313.15	0.1993	0.5013	0.001984	1.5e-05
313.15	0.1995	0.4003	0.001768	1.3e-05
313.15	0.1997	0.1019	0.001203	1e-05
313.15	0.2001	0.1986	0.001376	1.1e-05
313.15	0.2004	0.5987	0.002216	1.7e-05
313.15	0.2004	0.6997	0.002484	2.1e-05
313.15	0.2978	0.3042	0.001625	1.3e-05
313.15	0.2981	0.1063	0.001218	1e-05
313.15	0.2994	0.601	0.002489	2e-05
313.15	0.2997	0.202	0.001402	1.1e-05
313.15	0.2997	0.5007	0.002158	1.7e-05
313.15	0.2999	0.4008	0.001876	1.4e-05
313.15	0.3963	0.2058	0.00167	1.2e-05
313.15	0.3989	0.1002	0.001447	1.1e-05
313.15	0.3992	0.5016	0.002287	1.8e-05
313.15	0.3997	0.3017	0.001716	1.3e-05
313.15	0.401	0.3992	0.001965	1.5e-05
313.15	0.4997	0.4023	0.002012	1.6e-05
313.15	0.4998	0.1006	0.001286	1e-05
313.15	0.5004	0.2986	0.001732	1.4e-05
313.15	0.5011	0.1987	0.001467	1.2e-05
313.15	0.5971	0.202	0.001541	1.2e-05
313.15	0.5991	0.3013	0.001743	1.4e-05
313.15	0.5995	0.099	0.001329	1.1e-05
313.15	0.694	0.1084	0.001384	1.1e-05
313.15	0.6959	0.2032	0.001561	1.3e-05
313.15	0.8043	0.0949	0.001373	1.2e-05
323.15	0.0994	0.2038	0.001138	9e-06
323.15	0.0995	0.301	0.00128	1e-05
323.15	0.0996	0.1038	0.001022	9e-06
323.15	0.0996	0.4013	0.001326	1e-05
323.15	0.0999	0.8008	0.001527	1.3e-05
323.15	0.1003	0.4993	0.001416	1.1e-05
323.15	0.1005	0.6137	0.001534	1.2e-05
323.15	0.1008	0.6993	0.001569	1.3e-05
323.15	0.1993	0.301	0.001289	1e-05
323.15	0.1993	0.5013	0.001579	1.2e-05
323.15	0.1995	0.4003	0.001424	1.1e-05
323.15	0.1997	0.1019	0.001033	9e-06
323.15	0.2001	0.1986	0.001143	9e-06
323.15	0.2004	0.5987	0.001706	1.4e-05
323.15	0.2004	0.6997	0.001865	1.5e-05
323.15	0.2978	0.3042	0.001342	1.1e-05
323.15	0.2981	0.1063	0.00105	9e-06
323.15	0.2994	0.601	0.001945	1.6e-05
323.15	0.2997	0.202	0.001181	1e-05
323.15	0.2997	0.5007	0.001708	1.3e-05
323.15	0.2999	0.4008	0.001528	1.2e-05
323.15	0.3963	0.2058	0.001375	1.1e-05
323.15	0.3989	0.1002	0.001225	1e-05
323.15	0.3992	0.5016	0.001808	1.4e-05
323.15	0.3997	0.3017	0.001431	1.1e-05
323.15	0.401	0.3992	0.001574	1.3e-05
323.15	0.4997	0.4023	0.001634	1.3e-05
323.15	0.4998	0.1006	0.001114	9e-06
323.15	0.5004	0.2986	0.001433	1.2e-05
323.15	0.5011	0.1987	0.00126	1e-05
323.15	0.5971	0.202	0.001312	1.1e-05
323.15	0.5991	0.3013	0.001452	1.2e-05
323.15	0.5995	0.099	0.001153	1e-05
323.15	0.694	0.1084	0.001192	1e-05
323.15	0.6959	0.2032	0.001331	1.1e-05
323.15	0.8043	0.0949	0.001194	1e-05

System: ethanol + N-methylpyrrolidone + water; phases: Liquid
Fixed: Pressure, kPa = 100
Property: Refractive index (Na D-line) (Liquid); method: Standard Abbe refractometry
Temperature, K	Mole fraction of N-methylpyrrolidone	Mole fraction of water	Refractive index (Na D-line)	uncertainty
293.15	0.0994	0.2038	1.3848	0.0005
293.15	0.0995	0.301	1.387	0.0005
293.15	0.0996	0.1038	1.3824	0.0005
293.15	0.0996	0.4013	1.3891	0.0005
293.15	0.0999	0.8008	1.394	0.0006
293.15	0.1003	0.4993	1.3913	0.0005
293.15	0.1005	0.6137	1.3928	0.0005
293.15	0.1008	0.6993	1.3944	0.0006
293.15	0.1993	0.301	1.4055	0.0005
293.15	0.1993	0.5013	1.4126	0.0005
293.15	0.1995	0.4003	1.4095	0.0005
293.15	0.1997	0.1019	1.3989	0.0005
293.15	0.2001	0.1986	1.4021	0.0005
293.15	0.2004	0.5987	1.4164	0.0005
293.15	0.2004	0.6997	1.4198	0.0006
293.15	0.2978	0.3042	1.4215	0.0005
293.15	0.2981	0.1063	1.4135	0.0005
293.15	0.2994	0.601	1.4352	0.0005
293.15	0.2997	0.202	1.4177	0.0005
293.15	0.2997	0.5007	1.4305	0.0005
293.15	0.2999	0.4008	1.4258	0.0005
293.15	0.3963	0.2058	1.4298	0.0005
293.15	0.3989	0.1002	1.4255	0.0005
293.15	0.3992	0.5016	1.4449	0.0005
293.15	0.3997	0.3017	1.4347	0.0005
293.15	0.401	0.3992	1.4397	0.0005
293.15	0.4997	0.4023	1.4516	0.0005
293.15	0.4998	0.1006	1.4364	0.0005
293.15	0.5004	0.2986	1.446	0.0005
293.15	0.5011	0.1987	1.4411	0.0005
293.15	0.5971	0.202	1.4507	0.0005
293.15	0.5991	0.3013	1.4561	0.0005
293.15	0.5995	0.099	1.4459	0.0005
293.15	0.694	0.1084	1.4543	0.0005
293.15	0.6959	0.2032	1.4592	0.0005
293.15	0.8043	0.0949	1.4621	0.0005
303.15	0.0994	0.2038	1.381	0.0005
303.15	0.0995	0.301	1.3833	0.0005
303.15	0.0996	0.1038	1.3785	0.0005
303.15	0.0996	0.4013	1.3855	0.0005
303.15	0.0999	0.8008	1.3915	0.0006
303.15	0.1003	0.4993	1.3877	0.0005
303.15	0.1005	0.6137	1.3895	0.0005
303.15	0.1008	0.6993	1.3912	0.0006
303.15	0.1993	0.301	1.4018	0.0005
303.15	0.1993	0.5013	1.4089	0.0005
303.15	0.1995	0.4003	1.4054	0.0005
303.15	0.1997	0.1019	1.3951	0.0005
303.15	0.2001	0.1986	1.3984	0.0005
303.15	0.2004	0.5987	1.413	0.0005
303.15	0.2004	0.6997	1.4164	0.0006
303.15	0.2978	0.3042	1.4174	0.0005
303.15	0.2981	0.1063	1.4092	0.0005
303.15	0.2994	0.601	1.4316	0.0005
303.15	0.2997	0.202	1.4136	0.0005
303.15	0.2997	0.5007	1.4267	0.0005
303.15	0.2999	0.4008	1.422	0.0005
303.15	0.3963	0.2058	1.4259	0.0005
303.15	0.3989	0.1002	1.4214	0.0005
303.15	0.3992	0.5016	1.4411	0.0005
303.15	0.3997	0.3017	1.4307	0.0005
303.15	0.401	0.3992	1.4358	0.0005
303.15	0.4997	0.4023	1.4478	0.0005
303.15	0.4998	0.1006	1.4322	0.0005
303.15	0.5004	0.2986	1.4426	0.0005
303.15	0.5011	0.1987	1.437	0.0005
303.15	0.5971	0.202	1.4466	0.0005
303.15	0.5991	0.3013	1.4522	0.0005
303.15	0.5995	0.099	1.4418	0.0005
303.15	0.694	0.1084	1.4502	0.0005
303.15	0.6959	0.2032	1.4552	0.0005
303.15	0.8043	0.0949	1.458	0.0005
313.15	0.0994	0.2038	1.3773	0.0005
313.15	0.0995	0.301	1.38	0.0005
313.15	0.0996	0.1038	1.3747	0.0005
313.15	0.0996	0.4013	1.3822	0.0005
313.15	0.0999	0.8008	1.3887	0.0006
313.15	0.1003	0.4993	1.3846	0.0005
313.15	0.1005	0.6137	1.3869	0.0005
313.15	0.1008	0.6993	1.3888	0.0006
313.15	0.1993	0.301	1.3985	0.0005
313.15	0.1993	0.5013	1.4059	0.0005
313.15	0.1995	0.4003	1.402	0.0005
313.15	0.1997	0.1019	1.3919	0.0005
313.15	0.2001	0.1986	1.3948	0.0005
313.15	0.2004	0.5987	1.4096	0.0005
313.15	0.2004	0.6997	1.4135	0.0006
313.15	0.2978	0.3042	1.4137	0.0005
313.15	0.2981	0.1063	1.4056	0.0005
313.15	0.2994	0.601	1.4283	0.0005
313.15	0.2997	0.202	1.4099	0.0005
313.15	0.2997	0.5007	1.4233	0.0005
313.15	0.2999	0.4008	1.4187	0.0005
313.15	0.3963	0.2058	1.4221	0.0005
313.15	0.3989	0.1002	1.4182	0.0005
313.15	0.3992	0.5016	1.4375	0.0005
313.15	0.3997	0.3017	1.4266	0.0005
313.15	0.401	0.3992	1.4321	0.0005
313.15	0.4997	0.4023	1.4438	0.0005
313.15	0.4998	0.1006	1.4285	0.0005
313.15	0.5004	0.2986	1.4385	0.0005
313.15	0.5011	0.1987	1.433	0.0005
313.15	0.5971	0.202	1.4425	0.0005
313.15	0.5991	0.3013	1.448	0.0005
313.15	0.5995	0.099	1.4377	0.0005
313.15	0.694	0.1084	1.4463	0.0005
313.15	0.6959	0.2032	1.4513	0.0005
313.15	0.8043	0.0949	1.4539	0.0005
323.15	0.0994	0.2038	1.3747	0.0005
323.15	0.0995	0.301	1.3772	0.0005
323.15	0.0996	0.1038	1.3719	0.0005
323.15	0.0996	0.4013	1.3799	0.0005
323.15	0.0999	0.8008	1.3878	0.0005
323.15	0.1003	0.4993	1.3819	0.0005
323.15	0.1005	0.6137	1.3857	0.0005
323.15	0.1008	0.6993	1.3867	0.0005
323.15	0.1993	0.301	1.3957	0.0005
323.15	0.1993	0.5013	1.4038	0.0005
323.15	0.1995	0.4003	1.3999	0.0005
323.15	0.1997	0.1019	1.389	0.0005
323.15	0.2001	0.1986	1.3923	0.0005
323.15	0.2004	0.5987	1.407	0.0005
323.15	0.2004	0.6997	1.4097	0.0006
323.15	0.2978	0.3042	1.4094	0.0005
323.15	0.2981	0.1063	1.4026	0.0005
323.15	0.2994	0.601	1.4247	0.0005
323.15	0.2997	0.202	1.4057	0.0005
323.15	0.2997	0.5007	1.4199	0.0005
323.15	0.2999	0.4008	1.4155	0.0005
323.15	0.3963	0.2058	1.4194	0.0005
323.15	0.3989	0.1002	1.4159	0.0005
323.15	0.3992	0.5016	1.4335	0.0005
323.15	0.3997	0.3017	1.4227	0.0005
323.15	0.401	0.3992	1.4281	0.0005
323.15	0.4997	0.4023	1.4398	0.0005
323.15	0.4998	0.1006	1.4242	0.0005
323.15	0.5004	0.2986	1.4341	0.0005
323.15	0.5011	0.1987	1.4292	0.0005
323.15	0.5971	0.202	1.4388	0.0005
323.15	0.5991	0.3013	1.4438	0.0005
323.15	0.5995	0.099	1.4338	0.0005
323.15	0.694	0.1084	1.4422	0.0005
323.15	0.6959	0.2032	1.4471	0.0005
323.15	0.8043	0.0949	1.4497	0.0005

System: ethanol + N-methylpyrrolidone + water; phases: Liquid
Fixed: Pressure, kPa = 100
Property: Speed of sound, m/s (Liquid); method: Sing-around technique in a fixed-path interferometer
Temperature, K	Mole fraction of N-methylpyrrolidone	Mole fraction of water	Speed of sound, m/s	uncertainty
293.15	0.0994	0.2038	1303.5	1.9
293.15	0.0995	0.301	1333.7	2
293.15	0.0996	0.1038	1263.9	1.9
293.15	0.0996	0.4013	1394.2	2.1
293.15	0.0999	0.8008	1680.4	2.5
293.15	0.1003	0.4993	1448.2	2.2
293.15	0.1005	0.6137	1515.7	2.3
293.15	0.1008	0.6993	1593.1	2.5
293.15	0.1993	0.301	1407.7	2.1
293.15	0.1993	0.5013	1523	2.2
293.15	0.1995	0.4003	1461	2.1
293.15	0.1997	0.1019	1320.9	1.9
293.15	0.2001	0.1986	1360.8	2
293.15	0.2004	0.5987	1595	2.4
293.15	0.2004	0.6997	1683.4	2.6
293.15	0.2978	0.3042	1464.1	2
293.15	0.2981	0.1063	1372.4	2
293.15	0.2994	0.601	1663.9	2.3
293.15	0.2997	0.202	1414.6	2.1
293.15	0.2997	0.5007	1585.9	2.2
293.15	0.2999	0.4008	1519.8	2.1
293.15	0.3963	0.2058	1511.8	1.9
293.15	0.3989	0.1002	1461.6	2.1
293.15	0.3992	0.5016	1640.5	2.2
293.15	0.3997	0.3017	1512.6	1.9
293.15	0.401	0.3992	1570	2.1
293.15	0.4997	0.4023	1615.4	2.1
293.15	0.4998	0.1006	1455.5	1.8
293.15	0.5004	0.2986	1553	2
293.15	0.5011	0.1987	1500.8	1.9
293.15	0.5971	0.202	1537.9	1.9
293.15	0.5991	0.3013	1591.3	2
293.15	0.5995	0.099	1491.8	2
293.15	0.694	0.1084	1571.6	1.9
293.15	0.6959	0.2032	1491.8	2.3
293.15	0.8043	0.0949	1552.9	2.2
303.15	0.0994	0.2038	1269	1.9
303.15	0.0995	0.301	1299.4	2
303.15	0.0996	0.1038	1229.7	1.9
303.15	0.0996	0.4013	1360.1	2.1
303.15	0.0999	0.8008	1649.7	2.5
303.15	0.1003	0.4993	1415	2.2
303.15	0.1005	0.6137	1482.9	2.3
303.15	0.1008	0.6993	1561.2	2.5
303.15	0.1993	0.301	1372.8	2.1
303.15	0.1993	0.5013	1487.7	2.2
303.15	0.1995	0.4003	1425.9	2.1
303.15	0.1997	0.1019	1285.8	1.9
303.15	0.2001	0.1986	1325.7	1.9
303.15	0.2004	0.5987	1559.6	2.4
303.15	0.2004	0.6997	1648.5	2.5
303.15	0.2978	0.3042	1428.1	2
303.15	0.2981	0.1063	1336.5	2
303.15	0.2994	0.601	1626.1	2.3
303.15	0.2997	0.202	1378.8	2.1
303.15	0.2997	0.5007	1549.2	2.2
303.15	0.2999	0.4008	1483.7	2.1
303.15	0.3963	0.2058	1475	1.9
303.15	0.3989	0.1002	1425	2
303.15	0.3992	0.5016	1602.2	2.2
303.15	0.3997	0.3017	1475.7	1.9
303.15	0.401	0.3992	1532.6	2.1
303.15	0.4997	0.4023	1577.1	2.1
303.15	0.4998	0.1006	1418.7	1.8
303.15	0.5004	0.2986	1515.4	2
303.15	0.5011	0.1987	1463.7	1.9
303.15	0.5971	0.202	1500.1	1.9
303.15	0.5991	0.3013	1553.2	2
303.15	0.5995	0.099	1454.4	1.9
303.15	0.694	0.1084	1488.3	1.9
303.15	0.6959	0.2032	1454.4	2
303.15	0.8043	0.0949	1514.6	1.9
313.15	0.0994	0.2038	1234.4	1.9
313.15	0.0995	0.301	1264.8	2
313.15	0.0996	0.1038	1195.2	1.9
313.15	0.0996	0.4013	1326	2.1
313.15	0.0999	0.8008	1618.7	2.5
313.15	0.1003	0.4993	1381	2.1
313.15	0.1005	0.6137	1450	2.3
313.15	0.1008	0.6993	1529	2.5
313.15	0.1993	0.301	1337.2	2
313.15	0.1993	0.5013	1451.9	2.2
313.15	0.1995	0.4003	1390.1	2.1
313.15	0.1997	0.1019	1250.4	1.9
313.15	0.2001	0.1986	1290.3	1.9
313.15	0.2004	0.5987	1523.1	2.4
313.15	0.2004	0.6997	1611.5	2.5
313.15	0.2978	0.3042	1392	2
313.15	0.2981	0.1063	1300.5	2
313.15	0.2994	0.601	1587.5	2.3
313.15	0.2997	0.202	1342.8	2.1
313.15	0.2997	0.5007	1511.4	2.2
313.15	0.2999	0.4008	1447.1	2.1
313.15	0.3963	0.2058	1437.6	1.9
313.15	0.3989	0.1002	1388.4	2
313.15	0.3992	0.5016	1563.3	2.2
313.15	0.3997	0.3017	1439.7	1.9
313.15	0.401	0.3992	1494.4	2.1
313.15	0.4997	0.4023	1538.7	2.1
313.15	0.4998	0.1006	1381.8	1.8
313.15	0.5004	0.2986	1477.5	2
313.15	0.5011	0.1987	1426.5	1.9
313.15	0.5971	0.202	1462.5	1.9
313.15	0.5991	0.3013	1514.9	2
313.15	0.5995	0.099	1417.1	1.9
313.15	0.694	0.1084	1450.9	1.9
313.15	0.6959	0.2032	1417.1	2
313.15	0.8043	0.0949	1477.3	1.9
323.15	0.0994	0.2038	1199.9	1.9
323.15	0.0995	0.301	1230.2	2
323.15	0.0996	0.1038	1160.9	1.9
323.15	0.0996	0.4013	1291.6	2.1
323.15	0.0999	0.8008	1587.3	2.5
323.15	0.1003	0.4993	1346.8	2.1
323.15	0.1005	0.6137	1416.3	2.3
323.15	0.1008	0.6993	1495.7	2.5
323.15	0.1993	0.301	1301.7	2
323.15	0.1993	0.5013	1415.7	2.2
323.15	0.1995	0.4003	1354.5	2.1
323.15	0.1997	0.1019	1215.6	1.9
323.15	0.2001	0.1986	1255.1	1.9
323.15	0.2004	0.5987	1486.9	2.3
323.15	0.2004	0.6997	1574.9	2.5
323.15	0.2978	0.3042	1355.5	2
323.15	0.2981	0.1063	1265	2
323.15	0.2994	0.601	1549.4	2.3
323.15	0.2997	0.202	1307	2.1
323.15	0.2997	0.5007	1473.8	2.2
323.15	0.2999	0.4008	1410	2.1
323.15	0.3963	0.2058	1400.6	1.9
323.15	0.3989	0.1002	1352.1	2.1
323.15	0.3992	0.5016	1524.7	2.2
323.15	0.3997	0.3017	1404.1	1.9
323.15	0.401	0.3992	1456.9	2.1
323.15	0.4997	0.4023	1499.6	2.1
323.15	0.4998	0.1006	1345.2	1.8
323.15	0.5004	0.2986	1439.7	2
323.15	0.5011	0.1987	1389.2	1.9
323.15	0.5971	0.202	1425	1.9
323.15	0.5991	0.3013	1476.7	2
323.15	0.5995	0.099	1379.6	1.9
323.15	0.694	0.1084	1413.4	1.9
323.15	0.6959	0.2032	1379.6	2
323.15	0.8043	0.0949	1440.5	1.9

System: ethanol + N-methylpyrrolidone + water; phases: Liquid
Fixed: Pressure, kPa = 100
Property: Mass density, kg/m3 (Liquid); method: Vibrating tube method
Temperature, K	Mole fraction of N-methylpyrrolidone	Mole fraction of water	Mass density, kg/m3	uncertainty
293.15	0.0994	0.2038	860.13	0.7
293.15	0.0995	0.301	872.62	0.74
293.15	0.0996	0.1038	844.83	0.69
293.15	0.0996	0.4013	895.91	0.78
293.15	0.0999	0.8008	998.84	0.87
293.15	0.1003	0.4993	916.66	0.79
293.15	0.1005	0.6137	941.24	0.84
293.15	0.1008	0.6993	969.42	0.89
293.15	0.1993	0.301	915.04	0.73
293.15	0.1993	0.5013	958.79	0.77
293.15	0.1995	0.4003	935.61	0.74
293.15	0.1997	0.1019	880.34	0.68
293.15	0.2001	0.1986	896.51	0.69
293.15	0.2004	0.5987	984.8	0.83
293.15	0.2004	0.6997	1014.46	0.88
293.15	0.2978	0.3042	948.3	0.67
293.15	0.2981	0.1063	911.57	0.71
293.15	0.2994	0.601	1021.34	0.78
293.15	0.2997	0.202	928.91	0.75
293.15	0.2997	0.5007	993.98	0.73
293.15	0.2999	0.4008	969.84	0.69
293.15	0.3963	0.2058	976.56	0.57
293.15	0.3989	0.1002	956.67	0.72
293.15	0.3992	0.5016	1023.6	0.7
293.15	0.3997	0.3017	976.91	0.59
293.15	0.401	0.3992	998.56	0.66
293.15	0.4997	0.4023	1023.78	0.65
293.15	0.4998	0.1006	962.07	0.5
293.15	0.5004	0.2986	1000.65	0.62
293.15	0.5011	0.1987	980.47	0.54
293.15	0.5971	0.202	1001.62	0.59
293.15	0.5991	0.3013	1022.28	0.61
293.15	0.5995	0.099	983.32	0.58
293.15	0.694	0.1084	1002.95	0.57
293.15	0.6959	0.2032	1020.97	0.59
293.15	0.8043	0.0949	1019.41	0.57
303.15	0.0994	0.2038	851.27	0.7
303.15	0.0995	0.301	863.71	0.75
303.15	0.0996	0.1038	836.02	0.69
303.15	0.0996	0.4013	887	0.77
303.15	0.0999	0.8008	990.85	0.87
303.15	0.1003	0.4993	907.77	0.79
303.15	0.1005	0.6137	932.53	0.85
303.15	0.1008	0.6993	960.91	0.88
303.15	0.1993	0.301	906.03	0.73
303.15	0.1993	0.5013	949.73	0.77
303.15	0.1995	0.4003	926.55	0.74
303.15	0.1997	0.1019	871.45	0.67
303.15	0.2001	0.1986	887.57	0.69
303.15	0.2004	0.5987	975.71	0.82
303.15	0.2004	0.6997	1004.76	0.86
303.15	0.2978	0.3042	939.23	0.67
303.15	0.2981	0.1063	902.62	0.71
303.15	0.2994	0.601	1012.06	0.77
303.15	0.2997	0.202	919.91	0.75
303.15	0.2997	0.5007	984.76	0.72
303.15	0.2999	0.4008	960.7	0.69
303.15	0.3963	0.2058	967.45	0.57
303.15	0.3989	0.1002	947.64	0.67
303.15	0.3992	0.5016	1014.3	0.7
303.15	0.3997	0.3017	967.81	0.59
303.15	0.401	0.3992	989.37	0.66
303.15	0.4997	0.4023	1014.57	0.65
303.15	0.4998	0.1006	953.08	0.51
303.15	0.5004	0.2986	991.54	0.62
303.15	0.5011	0.1987	971.44	0.54
303.15	0.5971	0.202	992.58	0.59
303.15	0.5991	0.3013	1013.16	0.61
303.15	0.5995	0.099	974.33	0.58
303.15	0.694	0.1084	993.97	0.57
303.15	0.6959	0.2032	1011.93	0.58
303.15	0.8043	0.0949	1010.44	0.57
313.15	0.0994	0.2038	842.24	0.7
313.15	0.0995	0.301	854.63	0.75
313.15	0.0996	0.1038	827.07	0.69
313.15	0.0996	0.4013	877.91	0.77
313.15	0.0999	0.8008	982.61	0.87
313.15	0.1003	0.4993	898.69	0.78
313.15	0.1005	0.6137	923.53	0.84
313.15	0.1008	0.6993	952.18	0.88
313.15	0.1993	0.301	896.87	0.73
313.15	0.1993	0.5013	940.47	0.77
313.15	0.1995	0.4003	917.33	0.74
313.15	0.1997	0.1019	862.43	0.67
313.15	0.2001	0.1986	878.48	0.69
313.15	0.2004	0.5987	966.46	0.82
313.15	0.2004	0.6997	996.06	0.86
313.15	0.2978	0.3042	930.02	0.67
313.15	0.2981	0.1063	893.56	0.71
313.15	0.2994	0.601	1002.63	0.77
313.15	0.2997	0.202	910.79	0.75
313.15	0.2997	0.5007	975.4	0.72
313.15	0.2999	0.4008	951.41	0.69
313.15	0.3963	0.2058	958.23	0.57
313.15	0.3989	0.1002	938.51	0.67
313.15	0.3992	0.5016	1004.89	0.7
313.15	0.3997	0.3017	958.59	0.59
313.15	0.401	0.3992	980.05	0.66
313.15	0.4997	0.4023	1005.25	0.64
313.15	0.4998	0.1006	944.02	0.51
313.15	0.5004	0.2986	982.33	0.62
313.15	0.5011	0.1987	962.31	0.54
313.15	0.5971	0.202	983.47	0.59
313.15	0.5991	0.3013	1003.97	0.61
313.15	0.5995	0.099	965.28	0.58
313.15	0.694	0.1084	984.93	0.57
313.15	0.6959	0.2032	1002.84	0.58
313.15	0.8043	0.0949	1001.44	0.57
323.15	0.0994	0.2038	833.01	0.7
323.15	0.0995	0.301	845.35	0.74
323.15	0.0996	0.1038	817.93	0.69
323.15	0.0996	0.4013	868.6	0.77
323.15	0.0999	0.8008	974.13	0.87
323.15	0.1003	0.4993	889.39	0.78
323.15	0.1005	0.6137	914.38	0.83
323.15	0.1008	0.6993	943.27	0.88
323.15	0.1993	0.301	887.53	0.73
323.15	0.1993	0.5013	931.04	0.77
323.15	0.1995	0.4003	907.93	0.74
323.15	0.1997	0.1019	853.26	0.68
323.15	0.2001	0.1986	869.23	0.69
323.15	0.2004	0.5987	957.02	0.82
323.15	0.2004	0.6997	986.77	0.86
323.15	0.2978	0.3042	920.67	0.67
323.15	0.2981	0.1063	884.38	0.7
323.15	0.2994	0.601	993.07	0.77
323.15	0.2997	0.202	901.53	0.75
323.15	0.2997	0.5007	965.88	0.72
323.15	0.2999	0.4008	941.97	0.69
323.15	0.3963	0.2058	948.89	0.58
323.15	0.3989	0.1002	929.26	0.71
323.15	0.3992	0.5016	995.34	0.7
323.15	0.3997	0.3017	949.24	0.59
323.15	0.401	0.3992	970.61	0.66
323.15	0.4997	0.4023	995.83	0.64
323.15	0.4998	0.1006	934.88	0.5
323.15	0.5004	0.2986	973.02	0.62
323.15	0.5011	0.1987	953.1	0.54
323.15	0.5971	0.202	974.28	0.59
323.15	0.5991	0.3013	994.68	0.6
323.15	0.5995	0.099	956.18	0.58
323.15	0.694	0.1084	975.85	0.57
323.15	0.6959	0.2032	993.69	0.58
323.15	0.8043	0.0949	992.4	0.57
