Measured thermophysical data. Thermodynamics of Ionic Liquid Precursors. 1-Bromobutane and Its Isomers
Source: J. Chem. Eng. Data, 2011, 10.1021/je200814m
Compound 1: 1-bromobutane, C4H9Br, InChI=1S/C4H9Br/c1-2-3-4-5/h2-4H2,1H3, purity 99.7%

System: 1-bromobutane; phases: Crystal, Liquid, Gas
Property: Molar enthalpy of transition or fusion, kJ/mol (Crystal); method: Adiabatic calorimetry
Molar enthalpy of transition or fusion, kJ/mol	uncertainty
9.12	0.02

System: 1-bromobutane; phases: Crystal, Liquid, Gas
Property: Triple point temperature, K (Crystal); method: Adiabatic calorimetry
Triple point temperature, K	uncertainty
160.86	0.04

System: 1-bromobutane; phases: Crystal, Gas
Property: Molar heat capacity at saturation pressure, J/K/mol (Crystal); method: Small (less than 1 g) adiabatic calorimetry
Temperature, K	Molar heat capacity at saturation pressure, J/K/mol	uncertainty
5	0.549	0.027
10	4.21	0.07
15	10.16	0.14
20	16.26	0.2
25	22.01	0.25
30	27.4	0.28
35	32.41	0.32
40	37.01	0.36
45	41.44	0.4
50	45.64	0.43
60	53.02	0.5
70	59.23	0.55
80	64.86	0.6
90	69.82	0.65
100	74.5	0.69
110	78.95	0.73
120	83.18	0.76
130	87.39	0.8
140	92.14	0.84
150	97.45	0.88
160	103.3	0.9
160.86	103.8	0.9

System: 1-bromobutane; phases: Liquid, Gas
Property: Molar heat capacity at saturation pressure, J/K/mol (Liquid); method: Small (less than 1 g) adiabatic calorimetry
Temperature, K	Molar heat capacity at saturation pressure, J/K/mol	uncertainty
160.86	146.7	1.3
170	146.8	1.3
180	147	1.3
190	147.4	1.3
200	148	1.3
210	148.7	1.3
220	149.6	1.3
230	150.7	1.3
240	151.9	1.3
250	153.3	1.4
260	154.9	1.4
270	156.6	1.4
280	158.5	1.4
290	160.4	1.4
298.15	162.1	1.4
300	162.5	1.4
310	164.7	1.5
320	166.9	1.5
330	169.2	1.5
340	171.6	1.5
350	173.9	1.5
360	176.2	1.5
370	178.5	1.6

System: 1-bromobutane; phases: Crystal, Gas
Property: Molar heat capacity at saturation pressure, J/K/mol (Crystal); method: Small (less than 1 g) adiabatic calorimetry
Temperature, K	Molar heat capacity at saturation pressure, J/K/mol	uncertainty
5.14	0.5937	0.025
5.38	0.6842	0.0263
5.65	0.7953	0.0279
5.93	0.9249	0.0296
6.24	1.085	0.032
6.58	1.281	0.035
6.93	1.5	0.038
7.29	1.745	0.041
7.65	2.013	0.045
8.01	2.302	0.048
8.38	2.616	0.053
8.75	2.951	0.057
9.12	3.312	0.062
9.5	3.688	0.067
9.88	4.088	0.072
10.37	4.614	0.079
10.97	5.282	0.087
11.58	5.982	0.095
12.19	6.695	0.104
12.8	7.429	0.112
13.41	8.175	0.121
14.03	8.937	0.129
14.66	9.73	0.138
15.29	10.53	0.15
16.03	11.47	0.16
16.89	12.55	0.17
17.75	13.59	0.18
18.61	14.62	0.19
19.48	15.63	0.2
20.35	16.68	0.21
21.56	18.09	0.22
23.13	19.88	0.23
24.7	21.69	0.24
26.27	23.42	0.25
27.77	25.05	0.26
29.29	26.65	0.27
31.04	28.49	0.29
32.95	30.42	0.3
34.86	32.27	0.32
36.77	34.07	0.33
38.68	35.82	0.35
40.59	37.54	0.36
42.6	39.32	0.38
44.7	41.17	0.39
46.81	42.99	0.41
48.92	44.75	0.43
51.03	46.49	0.44
53.14	48.13	0.45
55.26	49.74	0.47
57.38	51.23	0.48
59.51	52.66	0.49
61.64	54.05	0.51
63.77	55.39	0.52
65.9	56.73	0.53
68.03	58.03	0.54
70.17	59.32	0.55
72.41	60.66	0.56
74.76	61.99	0.57
77.11	63.29	0.59
79.46	64.6	0.6
80.36	65.13	0.6
81.82	65.85	0.61
82.48	66.22	0.61
84.18	67.04	0.62
84.62	67.14	0.62
86.78	68.21	0.63
88.96	69.3	0.64
91.15	70.38	0.66
93.34	71.43	0.67
95.55	72.47	0.68
97.78	73.49	0.68
100.02	74.5	0.69
102.26	75.53	0.7
104.51	76.56	0.71
106.77	77.59	0.72
109.04	78.56	0.73
111.32	79.54	0.73
113.61	80.46	0.74
117.55	82.12	0.76
119.93	83.12	0.76
122.23	84.07	0.77
124.55	85.07	0.78
126.87	86.05	0.79
129.19	87.06	0.8
131.51	88.09	0.81
133.84	89.16	0.81
136.17	90.28	0.82
138.5	91.39	0.83
140.84	92.49	0.84
143.17	93.69	0.85
145.5	94.97	0.86
147.83	96.35	0.88

System: 1-bromobutane; phases: Liquid, Gas
Property: Molar heat capacity at saturation pressure, J/K/mol (Liquid); method: Small (less than 1 g) adiabatic calorimetry
Temperature, K	Molar heat capacity at saturation pressure, J/K/mol	uncertainty
163.75	146.7	1.3
165.7	146.8	1.3
167.67	146.8	1.3
169.63	146.8	1.3
171.61	146.7	1.3
173.58	146.8	1.3
175.57	146.9	1.3
179.58	147	1.3
181.61	147	1.3
183.62	147.1	1.3
185.63	147.2	1.3
187.64	147.3	1.3
189.66	147.3	1.3
191.69	147.4	1.3
193.72	147.6	1.3
195.75	147.8	1.3
197.78	147.9	1.3
199.82	148	1.3
201.87	148.2	1.3
203.91	148.3	1.3
205.96	148.5	1.3
208.01	148.7	1.3
210.07	148.8	1.3
212.14	148.9	1.3
214.2	149.2	1.3
216.27	149.3	1.3
218.34	149.5	1.3
220.41	149.8	1.3
222.49	149.9	1.3
224.57	150.1	1.3
226.65	150.3	1.3
228.74	150.5	1.3
230.82	150.7	1.3
232.91	151	1.3
235	151.4	1.3
237.09	151.4	1.3
239.19	151.7	1.3
241.28	152	1.3
243.38	152.2	1.3
245.47	152.5	1.3
247.57	152.9	1.4
249.67	153.2	1.4
251.77	153.5	1.4
253.87	153.8	1.4
255.96	154.1	1.4
258.06	154.5	1.4
260.16	154.9	1.4
262.26	155.3	1.4
264.36	155.6	1.4
266.45	156	1.4
268.55	156.4	1.4
270.65	156.7	1.4
272.75	157.1	1.4
274.85	157.5	1.4
276.94	157.9	1.4
279.04	158.3	1.4
281.14	158.7	1.4
283.24	159.1	1.4
285.34	159.5	1.4
287.43	160	1.4
289.53	160.4	1.4
291.62	160.9	1.4
293.71	161.2	1.4
295.8	161.6	1.4
297.89	162.1	1.4
299.98	162.5	1.4
302.07	163	1.4
304.16	163.4	1.4
306.25	163.9	1.4
308.34	164.4	1.4
310.42	164.9	1.5
312.51	165.3	1.5
314.6	165.7	1.5
316.68	166.2	1.5
318.76	166.7	1.5
320.84	167.1	1.5
322.92	167.6	1.5
325	168.1	1.5
327.08	168.4	1.5
329.15	168.9	1.5
331.23	169.4	1.5
333.3	169.9	1.5
335.37	170.4	1.5
337.44	170.9	1.5
339.51	171.4	1.5
341.58	171.9	1.5
343.65	172.4	1.5
345.73	172.9	1.5
347.8	173.4	1.5
349.87	173.9	1.5
351.93	174.3	1.5
353.99	174.8	1.5
356.05	175.3	1.5
358.11	175.9	1.5
360.17	176.3	1.5
362.22	176.7	1.6
364.28	177.3	1.6
366.33	177.8	1.6
368.38	178.2	1.6

System: 1-bromobutane; phases: Crystal, Gas
Property: Molar enthalpy function {Hm(T)-Hm(0)}/T, J/K/mol (Crystal); method: Small (less than 1 g) adiabatic calorimetry
Temperature, K	Molar enthalpy function {Hm(T)-Hm(0)}/T, J/K/mol	uncertainty
5	0.137	0.023
10	1.1	0.04
15	3.1	0.06
20	5.64	0.09
25	8.35	0.1
30	11.08	0.16
35	13.77	0.17
40	16.39	0.18
45	18.93	0.19
50	21.4	0.21
60	26.07	0.23
70	30.37	0.25
80	34.34	0.27
90	38.01	0.35
100	41.43	0.37
110	44.64	0.38
120	47.68	0.39
130	50.57	0.4
140	53.36	0.41
150	56.12	0.42
160	58.88	0.44
160.86	59.12	0.44

System: 1-bromobutane; phases: Liquid, Gas
Property: Molar enthalpy function {Hm(T)-Hm(0)}/T, J/K/mol (Liquid); method: Small (less than 1 g) adiabatic calorimetry
Temperature, K	Molar enthalpy function {Hm(T)-Hm(0)}/T, J/K/mol	uncertainty
160.86	115.8	0.7
170	117.5	0.7
180	119.1	0.7
190	120.6	0.7
200	121.9	0.7
210	123.2	0.7
220	124.4	0.7
230	125.5	0.7
240	126.6	0.7
250	127.6	0.7
260	128.6	0.7
270	129.6	0.7
280	130.6	0.7
290	131.6	0.7
298.15	132.4	0.7
300	132.6	0.7
310	133.6	0.7
320	134.6	0.7
330	135.6	0.7
340	136.7	0.7
350	137.7	0.8
360	138.7	0.8
370	139.8	0.8

System: 1-bromobutane; phases: Crystal, Gas
Property: Molar entropy, J/K/mol (Crystal); method: Small (less than 1 g) adiabatic calorimetry
Temperature, K	Molar entropy, J/K/mol	uncertainty
5	0.183	0.035
10	1.47	0.07
15	4.27	0.12
20	8.04	0.18
25	12.29	0.22
30	16.79	0.28
35	21.4	0.31
40	26.03	0.35
45	30.64	0.38
50	35.23	0.41
60	44.23	0.48
70	52.87	0.55
80	61.16	0.61
90	69.09	0.71
100	76.69	0.76
110	84	0.8
120	91.05	0.85
130	97.87	0.89
140	104.5	0.9
150	111.1	1
160	117.5	1
160.86	118.1	1

System: 1-bromobutane; phases: Liquid, Gas
Property: Molar entropy, J/K/mol (Liquid); method: Small (less than 1 g) adiabatic calorimetry
Temperature, K	Molar entropy, J/K/mol	uncertainty
160.86	174.8	1.4
170	182.9	1.4
180	191.3	1.4
190	199.2	1.5
200	206.8	1.5
210	214.1	1.6
220	221	1.6
230	227.7	1.7
240	234.1	1.7
250	240.3	1.7
260	246.4	1.8
270	252.3	1.8
280	258	1.8
290	263.6	1.9
298.15	268	1.9
300	269.1	1.9
310	274.4	1.9
320	279.7	2
330	284.9	2
340	289.9	2
350	294.9	2.1
360	299.9	2.1
370	304.7	2.1
