Measured thermophysical data. Liquid Liquid Equilibria for the Ternary System Water + Tetradecane + Propylene Glycol n-Propyl Ether
Source: J. Chem. Eng. Data, 2011, 10.1021/je200320z
Compound 1: tetradecane, C14H30, InChI=1S/C14H30/c1-3-5-7-9-11-13-14-12-10-8-6-4-2/h3-14H2,1-2H3
Compound 2: 1-propoxy-2-propanol, C6H14O2, InChI=1S/C6H14O2/c1-3-4-8-5-6(2)7/h6-7H,3-5H2,1-2H3
Compound 3: water, H2O, InChI=1S/H2O/h1H2

System: tetradecane + 1-propoxy-2-propanol + water; phases: Liquid mixture 3, Liquid mixture 2, Liquid mixture 1
Fixed: Pressure, kPa = 101.3
Property: Mass fraction of 1-propoxy-2-propanol (Liquid mixture 3); method: Chromatography
Property: Mass fraction of 1-propoxy-2-propanol (Liquid mixture 2); method: Chromatography
Property: Mass fraction of 1-propoxy-2-propanol (Liquid mixture 1); method: Chromatography
Property: Mass fraction of water (Liquid mixture 3); method: Chromatography
Property: Mass fraction of water (Liquid mixture 2); method: Chromatography
Property: Mass fraction of water (Liquid mixture 1); method: Chromatography
Temperature, K	Mass fraction of 1-propoxy-2-propanol	uncertainty	Mass fraction of 1-propoxy-2-propanol	uncertainty	Mass fraction of 1-propoxy-2-propanol	uncertainty	Mass fraction of water	uncertainty	Mass fraction of water	uncertainty	Mass fraction of water	uncertainty
298.15	0.2586	0.0026	0.6678	0.003	0.1782	0.0022	0.7407	0.0026	0.297	0.0028	0.0046	0.0018
308.15	0.1854	0.0022	0.718	0.0027	0.2514	0.0025	0.814	0.0022	0.1962	0.0023	0.0088	0.0018
318.15	0.1322	0.002	0.6808	0.0029	0.4026	0.0034	0.8673	0.002	0.1204	0.002	0.0268	0.0018

System: tetradecane + 1-propoxy-2-propanol + water; phases: Liquid mixture 2, Liquid mixture 1
Fixed: Pressure, kPa = 101
Property: Mass fraction of 1-propoxy-2-propanol (Liquid mixture 2); method: Chromatography
Property: Mass fraction of water (Liquid mixture 1); method: Chromatography
Property: Mass fraction of 1-propoxy-2-propanol (Liquid mixture 1); method: Chromatography
Temperature, K	Mass fraction of water	Mass fraction of 1-propoxy-2-propanol	uncertainty	Mass fraction of water	uncertainty	Mass fraction of 1-propoxy-2-propanol	uncertainty
298.15	0.2738	0.6834	0.003	0.0041	0.0018	0.1767	
298.15	0.1797	0.7358	0.0027	0.0061	0.0018	0.2059	
298.15	0.1255	0.7327	0.0027	0.0094	0.0018	0.2555	
298.15	0.0987	0.7051	0.0033	0.0142	0.0018	0.3074	
308.15	0.1827	0.7229	0.0027	0.0094	0.0018	0.2581	
308.15	0.1108	0.703	0.0031	0.0182	0.0018	0.3416	
308.15	0.0793	0.6273	0.0054	0.0315	0.0018	0.4315	
318.15	0.0977	0.6492	0.0053	0.0424	0.0018	0.4732	

System: tetradecane + 1-propoxy-2-propanol + water; phases: Liquid mixture 3, Liquid mixture 1
Fixed: Pressure, kPa = 101
Property: Mass fraction of 1-propoxy-2-propanol (Liquid mixture 3); method: Chromatography
Property: Mass fraction of water (Liquid mixture 1); method: Chromatography
Property: Mass fraction of 1-propoxy-2-propanol (Liquid mixture 1); method: Chromatography
Temperature, K	Mass fraction of water	Mass fraction of 1-propoxy-2-propanol	uncertainty	Mass fraction of water	uncertainty	Mass fraction of 1-propoxy-2-propanol	uncertainty
298.15	0.7706	0.2282	0.003	0.0034	0.0018	0.1639	
298.15	0.8231	0.1744	0.0029	0.0016	0.0016	0.1183	
298.15	0.8681	0.1285	0.0027	0.0005	0.0005	0.0659	
298.15	0.9277	0.069	0.0026	0.0001	0.0001	0.0272	
308.15	0.8452	0.1511	0.0027	0.0031	0.0018	0.1635	
308.15	0.8685	0.1289	0.0027	0.0012	0.0012	0.1087	
308.15	0.9028	0.0949	0.0026	0.0004	0.0004	0.0633	
308.15	0.9467	0.051	0.0026	0.0001	0.0001	0.0271	
318.15	0.8671	0.1318	0.0028	0.0163	0.0018	0.3327	
318.15	0.8688	0.1292	0.0027	0.0082	0.0018	0.2564	
318.15	0.8783	0.1196	0.0027	0.0036	0.0018	0.1777	
318.15	0.907	0.0902	0.0026	0.0011	0.0011	0.1048	
318.15	0.9505	0.0485	0.0025	0.0003	0.0003	0.0438	

System: tetradecane + 1-propoxy-2-propanol + water; phases: Liquid mixture 3, Liquid mixture 2
Fixed: Pressure, kPa = 100
Property: Mass fraction of 1-propoxy-2-propanol (Liquid mixture 3); method: Chromatography
Property: Mass fraction of 1-propoxy-2-propanol (Liquid mixture 2); method: Chromatography
Property: Mass fraction of water (Liquid mixture 2); method: Chromatography
Temperature, K	Mass fraction of water	Mass fraction of 1-propoxy-2-propanol	uncertainty	Mass fraction of 1-propoxy-2-propanol	uncertainty	Mass fraction of water	uncertainty
298.15	0.6937	0.3053	0.0033	0.6106	0.0036	0.3769	
308.15	0.7993	0.2004	0.0031	0.7216	0.0027	0.2017	
308.15	0.7969	0.2031	0.0031	0.7141	0.0029	0.251	
308.15	0.749	0.251	0.0031	0.6139	0.0035	0.3861	
318.15	0.8654	0.1341	0.0028	0.7154	0.003	0.147	
318.15	0.8611	0.1386	0.0028	0.7409	0.0026	0.1846	
318.15	0.8345	0.1655	0.0028	0.6993	0.0029	0.3007	
