Measured thermophysical data. Excess Volumes of Ternary Mixtures 2,2,4-Trimethylpentane + Diisopropyl Ether or Methyl tert-Butyl Ether + Methanol, Ethanol, or 1-Propanol at 298.15 K
Source: J. Chem. Eng. Data, 2012, 10.1021/je2011314
Compound 1: methanol, CH4O, InChI=1S/CH4O/c1-2/h2H,1H3, purity 99.8%
Compound 2: 2,2,4-trimethylpentane, C8H18, InChI=1S/C8H18/c1-7(2)6-8(3,4)5/h7H,6H2,1-5H3, purity 99.5%
Compound 3: propan-1-ol, C3H8O, InChI=1S/C3H8O/c1-2-3-4/h4H,2-3H2,1H3, purity 99.5%
Compound 4: 2-methoxy-2-methylpropane, C5H12O, InChI=1S/C5H12O/c1-5(2,3)6-4/h1-4H3, purity 99.5%
Compound 5: ethanol, C2H6O, InChI=1S/C2H6O/c1-2-3/h3H,2H2,1H3, purity 99.5%
Compound 6: diisopropyl ether, C6H14O, InChI=1S/C6H14O/c1-5(2)7-6(3)4/h5-6H,1-4H3, purity 99%

System: methanol; phases: Liquid
Property: Mass density, kg/m3 (Liquid); method: Vibrating tube method
Temperature, K	Pressure, kPa	Mass density, kg/m3	uncertainty
298.15	101.325	786.56	0.61

System: 2,2,4-trimethylpentane; phases: Liquid
Property: Mass density, kg/m3 (Liquid); method: Vibrating tube method
Temperature, K	Pressure, kPa	Mass density, kg/m3	uncertainty
298.15	101.325	687.62	0.62

System: propan-1-ol; phases: Liquid
Property: Mass density, kg/m3 (Liquid); method: Vibrating tube method
Temperature, K	Pressure, kPa	Mass density, kg/m3	uncertainty
298.15	101.325	799.7	0.62

System: 2-methoxy-2-methylpropane; phases: Liquid
Property: Mass density, kg/m3 (Liquid); method: Vibrating tube method
Temperature, K	Pressure, kPa	Mass density, kg/m3	uncertainty
298.15	101.325	735.21	0.62

System: ethanol; phases: Liquid
Property: Mass density, kg/m3 (Liquid); method: Vibrating tube method
Temperature, K	Pressure, kPa	Mass density, kg/m3	uncertainty
298.15	101.325	785.31	0.62

System: diisopropyl ether; phases: Liquid
Property: Mass density, kg/m3 (Liquid); method: Vibrating tube method
Temperature, K	Pressure, kPa	Mass density, kg/m3	uncertainty
298.15	101.325	718.24	0.64

System: diisopropyl ether + 2,2,4-trimethylpentane; phases: Liquid
Fixed: Pressure, kPa = 101
Fixed: Temperature, K = 298.15
Property: Mass density, kg/m3 (Liquid); method: Vibrating tube method
Mole fraction of 2,2,4-trimethylpentane	Mass density, kg/m3	uncertainty
0.3056	706.86	0.22
0.3066	706.7	0.22
0.5009	700.59	0.21
0.5027	700.42	0.21
0.5046	700.41	0.21
0.7004	694.83	0.19
0.7009	694.86	0.19
0.7025	694.86	0.19

System: 2,2,4-trimethylpentane + 2-methoxy-2-methylpropane; phases: Liquid
Fixed: Pressure, kPa = 101
Fixed: Temperature, K = 298.15
Property: Mass density, kg/m3 (Liquid); method: Vibrating tube method
Mole fraction of 2,2,4-trimethylpentane	Mass density, kg/m3	uncertainty
0.2997	716	0.17
0.3004	715.84	0.17
0.3012	715.86	0.17
0.5018	705.83	0.18
0.5019	705.9	0.18
0.5037	705.72	0.18
0.6707	698.67	0.18
0.7056	697.4	0.18
0.7134	697.17	0.18

System: methanol + diisopropyl ether + 2,2,4-trimethylpentane; phases: Liquid
Fixed: Pressure, kPa = 101
Fixed: Temperature, K = 298.15
Property: Mass density, kg/m3 (Liquid); method: Vibrating tube method
Mole fraction of 2,2,4-trimethylpentane	Mole fraction of diisopropyl ether	Mass density, kg/m3	uncertainty
0.015	0.0342	776	0.15
0.0259	0.0259	772.38	0.16
0.0304	0.069	767.16	0.15
0.0354	0.015	770.04	0.15
0.0458	0.1041	759.7	0.15
0.0515	0.0513	761.57	0.15
0.0757	0.0754	753.35	0.16
0.0912	0.2072	743.67	0.16
0.0996	0.0992	746.66	0.16
0.1231	0.2797	735.84	0.16
0.1258	0.1253	740.53	0.15
0.1384	0.3146	732.68	0.17
0.144	0.061	739.77	0.16
0.1522	0.1517	735.27	0.16
0.157	0.3568	729.06	0.17
0.1684	0.3826	727.13	0.18
0.1787	0.0757	733.57	0.16
0.1795	0.1789	730.52	0.16
0.1835	0.4171	724.78	0.18
0.1955	0.4443	722.93	0.18
0.2037	0.203	726.96	0.16
0.2087	0.0884	729.09	0.16
0.2154	0.4894	720.21	0.19
0.2301	0.5229	718.22	0.19
0.2379	0.5407	717.19	0.2
0.2392	0.2384	722.32	0.17
0.2496	0.1057	723.62	0.16
0.2555	0.5807	714.8	0.2
0.258	0.2571	720.16	0.17
0.2745	0.2735	718.41	0.17
0.2805	0.1188	720.18	0.16
0.3016	0.3005	715.75	0.18
0.3056	0.6944	706.86	0.22
0.3161	0.1339	716.72	0.16
0.3216	0.3204	713.94	0.18
0.3524	0.3512	711.35	0.18
0.3568	0.1511	713.26	0.17
0.3761	0.3748	709.43	0.19
0.3931	0.1665	710.56	0.17
0.4063	0.4049	707.23	0.19
0.4176	0.1768	708.88	0.17
0.4203	0.4188	706.25	0.19
0.4502	0.4486	704.16	0.2
0.4613	0.1953	706.12	0.17
0.4712	0.4695	702.68	0.2
0.4917	0.2082	704.46	0.18
0.5009	0.4991	700.59	0.21
0.5244	0.2221	702.7	0.18
0.5645	0.2391	700.8	0.18
0.6031	0.2554	699.09	0.19
0.6272	0.2656	698.02	0.19
0.6649	0.2816	696.44	0.19
0.7025	0.2975	694.86	0.19

System: ethanol + diisopropyl ether + 2,2,4-trimethylpentane; phases: Liquid
Fixed: Pressure, kPa = 101
Fixed: Temperature, K = 298.15
Property: Mass density, kg/m3 (Liquid); method: Vibrating tube method
Mole fraction of 2,2,4-trimethylpentane	Mole fraction of diisopropyl ether	Mass density, kg/m3	uncertainty
0.0154	0.0353	777.29	0.16
0.0249	0.0246	775.93	0.16
0.03	0.0687	770.42	0.17
0.035	0.015	774.11	0.16
0.0455	0.1041	763.86	0.17
0.0505	0.05	767.4	0.17
0.0611	0.1399	758.04	0.17
0.0696	0.0297	764.62	0.17
0.075	0.0742	760.19	0.17
0.0764	0.175	752.84	0.17
0.0908	0.208	748.38	0.18
0.101	0.0999	753.55	0.17
0.1045	0.0446	756.39	0.17
0.1074	0.2461	743.71	0.18
0.1229	0.2816	739.64	0.18
0.1249	0.1235	748.04	0.17
0.1377	0.3155	736.03	0.19
0.1389	0.0593	749.34	0.17
0.151	0.1494	742.42	0.18
0.1531	0.3507	732.57	0.19
0.1658	0.3799	729.9	0.19
0.1734	0.074	743.04	0.17
0.1778	0.1759	737.46	0.18
0.1852	0.4243	725.93	0.2
0.1982	0.454	723.45	0.2
0.2031	0.2009	733.16	0.18
0.217	0.497	720.2	0.2
0.2243	0.2219	729.85	0.18
0.2266	0.519	718.61	0.2
0.2437	0.5582	715.95	0.21
0.2498	0.2471	726.13	0.18
0.2501	0.1067	731.38	0.17
0.2583	0.5917	713.63	0.21
0.2746	0.6289	711.14	0.21
0.2763	0.2733	722.57	0.19
0.2868	0.1224	726.7	0.18
0.289	0.6621	708.96	0.22
0.3044	0.3011	719.15	0.19
0.3198	0.1365	722.94	0.18
0.3293	0.3258	716.31	0.19
0.3516	0.15	719.58	0.18
0.3535	0.3497	713.77	0.19
0.3796	0.3755	711.18	0.2
0.3875	0.1654	716.06	0.18
0.3998	0.3955	709.27	0.2
0.4181	0.1785	713.35	0.18
0.4308	0.4262	706.51	0.2
0.4542	0.4493	704.49	0.2
0.4669	0.1993	709.38	0.18
0.4756	0.4705	702.72	0.2
0.4879	0.2083	707.77	0.19
0.5027	0.4973	700.42	0.21
0.5274	0.2251	704.99	0.19
0.562	0.2399	702.7	0.19
0.6006	0.2563	700.37	0.19
0.6321	0.2698	698.6	0.19
0.6653	0.284	696.76	0.19
0.7009	0.2991	694.86	0.19

System: propan-1-ol + diisopropyl ether + 2,2,4-trimethylpentane; phases: Liquid
Fixed: Pressure, kPa = 101
Fixed: Temperature, K = 298.15
Property: Mass density, kg/m3 (Liquid); method: Vibrating tube method
Mole fraction of 2,2,4-trimethylpentane	Mole fraction of diisopropyl ether	Mass density, kg/m3	uncertainty
0.1652	0.3737	739.51	0.19
0.1846	0.4176	734.42	0.19
0.2016	0.456	730.22	0.2
0.2044	0.2007	745.72	0.18
0.2153	0.4871	726.9	0.2
0.2283	0.5165	723.83	0.2
0.2319	0.2277	740.47	0.18
0.2451	0.1048	746.06	0.17
0.2468	0.5583	719.64	0.21
0.2536	0.2489	736.43	0.18
0.262	0.5928	716.38	0.21
0.2787	0.6304	712.71	0.21
0.2793	0.1195	740.53	0.17
0.2826	0.2775	731.32	0.18
0.291	0.6583	710.11	0.22
0.3005	0.295	728.46	0.19
0.3066	0.6934	706.7	0.22
0.3217	0.1376	734.3	0.18
0.3356	0.3294	723.1	0.19
0.3562	0.1524	729.62	0.18
0.3576	0.351	719.78	0.19
0.3797	0.3728	716.52	0.19
0.3871	0.1656	725.62	0.18
0.4036	0.3962	713.18	0.2
0.4251	0.1819	721.05	0.18
0.4295	0.4216	709.82	0.2
0.4567	0.4483	706.4	0.2
0.4626	0.1979	716.79	0.18
0.4795	0.4707	703.55	0.2
0.4903	0.2097	713.83	0.18
0.5046	0.4954	700.41	0.21
0.5233	0.2238	710.44	0.19
0.5693	0.2435	706.03	0.19
0.5924	0.2534	703.94	0.19
0.6315	0.2701	700.54	0.19
0.6651	0.2845	697.72	0.19
0.7004	0.2996	694.83	0.19

System: methanol + 2,2,4-trimethylpentane + 2-methoxy-2-methylpropane; phases: Liquid
Fixed: Pressure, kPa = 101
Fixed: Temperature, K = 298.15
Property: Mass density, kg/m3 (Liquid); method: Vibrating tube method
Mole fraction of 2,2,4-trimethylpentane	Mole fraction of 2-methoxy-2-methylpropane	Mass density, kg/m3	uncertainty
0.0154	0.0356	776.99	0.15
0.0239	0.0236	774.32	0.15
0.0267	0.0618	770.92	0.15
0.0336	0.014	771.21	0.15
0.0435	0.101	763.55	0.15
0.0485	0.0477	764.32	0.15
0.0597	0.1386	757.51	0.15
0.0697	0.0291	758.83	0.16
0.0737	0.0726	756.08	0.15
0.0738	0.1712	752.98	0.15
0.0892	0.2069	748.33	0.15
0.0976	0.0962	749.63	0.15
0.1048	0.2432	744.4	0.15
0.1063	0.0443	748.95	0.15
0.118	0.2737	741.54	0.15
0.1254	0.1235	743.4	0.15
0.1364	0.3165	737.74	0.15
0.1387	0.0578	742.07	0.15
0.1485	0.3445	735.57	0.15
0.1511	0.1489	738.48	0.15
0.165	0.3829	732.77	0.16
0.1731	0.1706	734.77	0.15
0.1732	0.0722	735.84	0.15
0.1779	0.4128	730.53	0.16
0.1959	0.4545	728.36	0.16
0.1991	0.1961	730.94	0.16
0.2075	0.4815	726.77	0.16
0.2081	0.0868	730.54	0.15
0.2261	0.2227	727.39	0.16
0.2267	0.5261	724.29	0.16
0.2409	0.559	722.47	0.16
0.2475	0.1032	725.55	0.16
0.2531	0.2493	724.3	0.16
0.2566	0.5953	720.88	0.17
0.2729	0.6333	718.98	0.17
0.2752	0.2711	721.97	0.16
0.2786	0.1162	722.06	0.16
0.2876	0.6674	717.19	0.17
0.3009	0.2964	719.63	0.16
0.3012	0.6988	715.86	0.17
0.3148	0.1313	718.52	0.16
0.3285	0.3236	717.46	0.16
0.3487	0.3435	715.86	0.16
0.3541	0.1477	715.18	0.16
0.3727	0.3672	714.08	0.17
0.3869	0.1614	712.71	0.16
0.3965	0.3906	712.41	0.17
0.4233	0.1766	710.34	0.16
0.4242	0.4179	710.58	0.17
0.455	0.4483	708.55	0.17
0.4577	0.1909	708.21	0.17
0.4777	0.4706	707.1	0.17
0.4971	0.2074	706.09	0.17
0.5037	0.4963	705.72	0.18
0.5298	0.221	704.34	0.17
0.5709	0.2382	702.54	0.17
0.5956	0.2485	701.4	0.17
0.6336	0.2643	699.91	0.17
0.6652	0.2775	698.62	0.18
0.7056	0.2944	697.4	0.18

System: ethanol + 2,2,4-trimethylpentane + 2-methoxy-2-methylpropane; phases: Liquid
Fixed: Pressure, kPa = 101
Fixed: Temperature, K = 298.15
Property: Mass density, kg/m3 (Liquid); method: Vibrating tube method
Mole fraction of 2,2,4-trimethylpentane	Mole fraction of 2-methoxy-2-methylpropane	Mass density, kg/m3	uncertainty
0.0139	0.0324	779.33	0.16
0.0242	0.024	776.86	0.16
0.0297	0.0695	772.96	0.16
0.0361	0.0145	774.52	0.16
0.0432	0.1009	768.14	0.16
0.0495	0.0491	769.1	0.16
0.0588	0.1374	762.83	0.16
0.0698	0.028	765.61	0.16
0.0739	0.0733	762.56	0.16
0.074	0.1728	758.16	0.16
0.091	0.2126	753.24	0.16
0.1003	0.0995	756.21	0.16
0.1048	0.245	749.82	0.16
0.1054	0.0423	757.56	0.16
0.1189	0.2779	746.37	0.16
0.1254	0.1245	750.77	0.17
0.1348	0.3151	742.79	0.17
0.1423	0.0572	750.22	0.17
0.1441	0.143	747.04	0.17
0.1517	0.3545	739.26	0.17
0.1665	0.3891	736.34	0.17
0.1723	0.171	741.9	0.17
0.1754	0.0705	744.57	0.17
0.1785	0.4171	734.16	0.17
0.1924	0.4495	731.71	0.17
0.202	0.2005	736.9	0.17
0.21	0.4906	728.76	0.17
0.2196	0.0882	737.63	0.17
0.224	0.5233	726.43	0.17
0.2246	0.2229	733.51	0.17
0.2404	0.5617	723.98	0.17
0.2503	0.1006	733.45	0.17
0.2511	0.5867	722.45	0.17
0.2519	0.25	729.79	0.17
0.2683	0.627	720.06	0.17
0.2788	0.2768	726.41	0.17
0.2867	0.6698	717.55	0.17
0.2878	0.1156	728.77	0.17
0.2997	0.7003	716	0.17
0.3061	0.3038	723.16	0.17
0.3189	0.1281	725.38	0.17
0.3284	0.326	720.76	0.17
0.3526	0.35	718.3	0.17
0.3558	0.143	721.47	0.17
0.3779	0.3751	715.9	0.17
0.3901	0.1567	718.14	0.17
0.406	0.403	713.39	0.17
0.4244	0.4213	711.83	0.17
0.4317	0.1734	714.43	0.17
0.4446	0.4413	710.18	0.17
0.466	0.1872	711.67	0.17
0.478	0.4745	707.52	0.17
0.5009	0.2013	709.13	0.17
0.5019	0.4981	705.9	0.18
0.5316	0.2136	707.05	0.17
0.5705	0.2292	704.58	0.18
0.6067	0.2438	702.5	0.18
0.6531	0.2624	700.01	0.18
0.6757	0.2715	698.86	0.18
0.7134	0.2866	697.17	0.18

System: propan-1-ol + 2,2,4-trimethylpentane + 2-methoxy-2-methylpropane; phases: Liquid
Fixed: Pressure, kPa = 101
Fixed: Temperature, K = 298.15
Property: Mass density, kg/m3 (Liquid); method: Vibrating tube method
Mole fraction of 2,2,4-trimethylpentane	Mole fraction of 2-methoxy-2-methylpropane	Mass density, kg/m3	uncertainty
0.0892	0.2078	767.21	0.16
0.1072	0.2496	761.71	0.16
0.1206	0.2808	757.83	0.16
0.1228	0.1219	766.1	0.16
0.1386	0.3228	752.86	0.16
0.1506	0.1495	759.83	0.16
0.152	0.3539	749.24	0.16
0.1645	0.3832	745.96	0.16
0.1739	0.1726	754.9	0.16
0.1795	0.4182	742.2	0.17
0.198	0.4612	737.65	0.17
0.2	0.1985	749.78	0.16
0.2002	0.0983	754.66	0.16
0.2091	0.4869	735.09	0.17
0.2257	0.5256	731.33	0.17
0.2281	0.2265	744.59	0.17
0.2366	0.1161	748.42	0.17
0.2378	0.5537	728.73	0.17
0.2503	0.2485	740.63	0.17
0.2556	0.5952	724.94	0.17
0.2692	0.1321	743.22	0.17
0.2709	0.631	721.73	0.17
0.2783	0.2763	735.88	0.17
0.3004	0.6996	715.84	0.17
0.3029	0.3007	731.82	0.17
0.3033	0.1489	738.18	0.17
0.3282	0.3259	728.01	0.17
0.342	0.1679	732.57	0.17
0.3487	0.3462	725.03	0.17
0.3716	0.1824	728.68	0.17
0.3776	0.3749	721.02	0.17
0.3989	0.396	718.16	0.17
0.4049	0.1987	724.62	0.17
0.4226	0.4196	715.12	0.17
0.4404	0.2162	720.49	0.17
0.4467	0.4435	712.12	0.17
0.4677	0.2296	717.45	0.17
0.4749	0.4715	708.74	0.18
0.5018	0.4982	705.83	0.18
0.5069	0.2488	713.36	0.17
0.5375	0.2638	710.35	0.17
0.5717	0.2806	707.1	0.18
0.606	0.2975	703.99	0.18
0.6707	0.3293	698.67	0.18
