Measured thermophysical data. Densities and Viscosities for Binary Mixtures of the Ionic Liquid N-Ethyl Piperazinium Propionate with n-Alcohols at Several Temperatures
Source: J. Chem. Eng. Data, 2012, 10.1021/je201116t
Compound 1: N-ethylpiperazinium propionate, C9H20N2O2, InChI=1S/C6H14N2.C3H6O2/c1-2-8-5-3-7-4-6-8;1-2-3(4)5/h7H,2-6H2,1H3;2H2,1H3,(H,4,5)
Compound 2: methanol, CH4O, InChI=1S/CH4O/c1-2/h2H,1H3, purity 99.5%
Compound 3: ethanol, C2H6O, InChI=1S/C2H6O/c1-2-3/h3H,2H2,1H3, purity 99.7%
Compound 4: propan-1-ol, C3H8O, InChI=1S/C3H8O/c1-2-3-4/h4H,2-3H2,1H3, purity 99.7%
Compound 5: butan-1-ol, C4H10O, InChI=1S/C4H10O/c1-2-3-4-5/h5H,2-4H2,1H3, purity 99.5%

System: N-ethylpiperazinium propionate; phases: Liquid
Fixed: Pressure, kPa = 101
Property: Viscosity, Pa*s (Liquid); method: Capillary tube (Ostwald; Ubbelohde) method
Temperature, K	Viscosity, Pa*s	uncertainty
298.15	0.24349	0.00765
303.15	0.16481	0.00464
308.15	0.11344	0.00274
313.15	0.080932	0.001838

System: N-ethylpiperazinium propionate; phases: Liquid
Fixed: Pressure, kPa = 101
Property: Mass density, kg/m3 (Liquid); method: VIBTUB::UFactor:12
Temperature, K	Mass density, kg/m3	uncertainty
298.15	1008.356	1.232
303.15	1004.38	1.207
308.15	1000.325	1.181
313.15	996.237	1.191

System: methanol; phases: Liquid
Fixed: Pressure, kPa = 101
Property: Viscosity, Pa*s (Liquid); method: Capillary tube (Ostwald; Ubbelohde) method
Temperature, K	Viscosity, Pa*s	uncertainty
298.15	0.000558	6.8e-06
303.15	0.0005261	6.5e-06
308.15	0.0004966	6.1e-06
313.15	0.0004702	5.8e-06

System: methanol; phases: Liquid
Fixed: Pressure, kPa = 101
Property: Mass density, kg/m3 (Liquid); method: VIBTUB::UFactor:12
Temperature, K	Mass density, kg/m3	uncertainty
298.15	786.686	1.404
303.15	781.993	1.426
308.15	777.249	1.448
313.15	772.475	1.47

System: ethanol; phases: Liquid
Fixed: Pressure, kPa = 101
Property: Viscosity, Pa*s (Liquid); method: Capillary tube (Ostwald; Ubbelohde) method
Temperature, K	Viscosity, Pa*s	uncertainty
298.15	0.0010911	1.31e-05
303.15	0.0009986	1.21e-05
308.15	0.0009139	1.11e-05
313.15	0.0008387	1.02e-05

System: ethanol; phases: Liquid
Fixed: Pressure, kPa = 101
Property: Mass density, kg/m3 (Liquid); method: VIBTUB::UFactor:12
Temperature, K	Mass density, kg/m3	uncertainty
298.15	785.499	1.39
303.15	781.197	1.41
308.15	776.853	1.431
313.15	772.468	1.451

System: propan-1-ol; phases: Liquid
Fixed: Pressure, kPa = 101
Property: Viscosity, Pa*s (Liquid); method: Capillary tube (Ostwald; Ubbelohde) method
Temperature, K	Viscosity, Pa*s	uncertainty
298.15	0.0019414	2.37e-05
303.15	0.0017282	2.13e-05
308.15	0.0015448	1.9e-05
313.15	0.0013847	1.71e-05

System: propan-1-ol; phases: Liquid
Fixed: Pressure, kPa = 101
Property: Mass density, kg/m3 (Liquid); method: VIBTUB::UFactor:12
Temperature, K	Mass density, kg/m3	uncertainty
298.15	799.557	1.324
303.15	795.543	1.343
308.15	791.479	1.362
313.15	787.371	1.381

System: butan-1-ol; phases: Liquid
Fixed: Pressure, kPa = 101
Property: Viscosity, Pa*s (Liquid); method: Capillary tube (Ostwald; Ubbelohde) method
Temperature, K	Viscosity, Pa*s	uncertainty
298.15	0.0025768	3.21e-05
303.15	0.0022719	2.86e-05
308.15	0.0020104	2.52e-05
313.15	0.0017856	2.26e-05

System: butan-1-ol; phases: Liquid
Fixed: Pressure, kPa = 101
Property: Mass density, kg/m3 (Liquid); method: VIBTUB::UFactor:12
Temperature, K	Mass density, kg/m3	uncertainty
298.15	805.814	1.316
303.15	801.996	1.333
308.15	798.13	1.351
313.15	794.226	1.369

System: methanol + N-ethylpiperazinium propionate; phases: Liquid
Fixed: Pressure, kPa = 101
Property: Viscosity, Pa*s (Liquid); method: Capillary tube (Ostwald; Ubbelohde) method
Temperature, K	Mole fraction of methanol	Viscosity, Pa*s	uncertainty
298.15	0	0.24349	0.00765
298.15	0.107	0.17219	0.00467
298.15	0.21	0.12307	0.00273
298.15	0.297	0.084018	0.001624
298.15	0.402	0.052957	0.000891
298.15	0.5021	0.03254	0.00054
298.15	0.5994	0.01841	0.000307
298.15	0.7015	0.0094163	0.0001578
298.15	0.7998	0.0043311	7.59e-05
298.15	0.8999	0.0017539	3.26e-05
298.15	1	0.000558	6.8e-06
303.15	0	0.16481	0.00464
303.15	0.107	0.12104	0.00291
303.15	0.21	0.089923	0.001838
303.15	0.297	0.063486	0.001115
303.15	0.402	0.040861	0.000674
303.15	0.5021	0.025505	0.0004
303.15	0.5994	0.01503	0.000219
303.15	0.7015	0.0078662	0.0001087
303.15	0.7998	0.0038074	4.96e-05
303.15	0.8999	0.0015919	2e-05
303.15	1	0.0005261	6.5e-06
308.15	0	0.11344	0.00274
308.15	0.107	0.086267	0.001812
308.15	0.21	0.065933	0.001223
308.15	0.297	0.047377	0.000831
308.15	0.402	0.031628	0.000516
308.15	0.5021	0.020362	0.000311
308.15	0.5994	0.012402	0.000177
308.15	0.7015	0.0067297	9.1e-05
308.15	0.7998	0.0033659	4.36e-05
308.15	0.8999	0.001451	1.82e-05
308.15	1	0.0004966	6.1e-06
313.15	0	0.080932	0.001838
313.15	0.107	0.06274	0.001252
313.15	0.21	0.04908	0.000963
313.15	0.297	0.036136	0.000621
313.15	0.402	0.024886	0.000398
313.15	0.5021	0.016496	0.000242
313.15	0.5994	0.010397	0.000139
313.15	0.7015	0.0058041	7.19e-05
313.15	0.7998	0.0029887	3.59e-05
313.15	0.8999	0.0013274	1.69e-05
313.15	1	0.0004702	5.8e-06

System: methanol + N-ethylpiperazinium propionate; phases: Liquid
Fixed: Pressure, kPa = 101
Property: Mass density, kg/m3 (Liquid); method: VIBTUB:UFactor:12
Temperature, K	Mole fraction of methanol	Mass density, kg/m3	uncertainty
298.15	0	1008.356	1.232
298.15	0.107	1004.937	1.082
298.15	0.21	1000.728	0.945
298.15	0.297	996.263	0.869
298.15	0.402	989.36	0.803
298.15	0.5021	980.548	0.761
298.15	0.5994	968.97	0.744
298.15	0.7015	951.447	0.762
298.15	0.7998	925.328	0.834
298.15	0.8999	879.78	1.015
298.15	1	786.686	1.404
303.15	0	1004.38	1.207
303.15	0.107	1000.956	1.058
303.15	0.21	996.739	0.953
303.15	0.297	992.299	0.884
303.15	0.402	985.408	0.819
303.15	0.5021	976.585	0.777
303.15	0.5994	964.991	0.761
303.15	0.7015	947.38	0.78
303.15	0.7998	921.15	0.853
303.15	0.8999	875.414	1.03
303.15	1	781.993	1.426
308.15	0	1000.325	1.181
308.15	0.107	996.919	1.063
308.15	0.21	992.724	0.967
308.15	0.297	988.292	0.899
308.15	0.402	981.411	0.834
308.15	0.5021	972.582	0.794
308.15	0.5994	960.968	0.778
308.15	0.7015	943.3	0.798
308.15	0.7998	916.957	0.872
308.15	0.8999	871.008	1.05
308.15	1	777.249	1.448
313.15	0	996.237	1.191
313.15	0.107	992.856	1.077
313.15	0.21	988.682	0.982
313.15	0.297	984.255	0.915
313.15	0.402	977.382	0.851
313.15	0.5021	968.548	0.811
313.15	0.5994	956.912	0.796
313.15	0.7015	939.188	0.818
313.15	0.7998	912.733	0.895
313.15	0.8999	866.573	1.086
313.15	1	772.475	1.47

System: ethanol + N-ethylpiperazinium propionate; phases: Liquid
Fixed: Pressure, kPa = 101
Property: Viscosity, Pa*s (Liquid); method: Capillary tube (Ostwald; Ubbelohde) method
Temperature, K	Mole fraction of ethanol	Viscosity, Pa*s	uncertainty
298.15	0	0.24349	0.00765
298.15	0.0971	0.17013	0.00458
298.15	0.2017	0.1099	0.00243
298.15	0.3033	0.075846	0.001378
298.15	0.3983	0.048888	0.000858
298.15	0.5001	0.02959	0.000495
298.15	0.6006	0.017183	0.000277
298.15	0.6994	0.0094029	0.0001518
298.15	0.8001	0.0049249	7.75e-05
298.15	0.8998	0.0024374	3.83e-05
298.15	1	0.0010911	1.31e-05
303.15	0	0.16481	0.00464
303.15	0.0971	0.11944	0.00285
303.15	0.2017	0.082603	0.001601
303.15	0.3033	0.055805	0.000976
303.15	0.3983	0.03701	0.000617
303.15	0.5001	0.023343	0.00036
303.15	0.6006	0.014001	0.000201
303.15	0.6994	0.007923	0.000107
303.15	0.8001	0.0042793	5.54e-05
303.15	0.8998	0.0021749	2.71e-05
303.15	1	0.0009986	1.21e-05
308.15	0	0.11344	0.00274
308.15	0.0971	0.085412	0.001794
308.15	0.2017	0.060302	0.001104
308.15	0.3033	0.042026	0.000724
308.15	0.3983	0.028646	0.000462
308.15	0.5001	0.018574	0.000281
308.15	0.6006	0.011543	0.000163
308.15	0.6994	0.0067345	9.03e-05
308.15	0.8001	0.00374	4.81e-05
308.15	0.8998	0.0019474	2.42e-05
308.15	1	0.0009139	1.11e-05
313.15	0	0.080932	0.001838
313.15	0.0971	0.061226	0.001245
313.15	0.2017	0.044791	0.000836
313.15	0.3033	0.0321	0.000554
313.15	0.3983	0.022627	0.000353
313.15	0.5001	0.015062	0.000217
313.15	0.6006	0.0096018	0.0001283
313.15	0.6994	0.0057657	7.11e-05
313.15	0.8001	0.0032865	3.9e-05
313.15	0.8998	0.0017492	2.04e-05
313.15	1	0.0008387	1.02e-05

System: ethanol + N-ethylpiperazinium propionate; phases: Liquid
Fixed: Pressure, kPa = 101
Property: Mass density, kg/m3 (Liquid); method: VIBTUB:UFactor:12
Temperature, K	Mole fraction of ethanol	Mass density, kg/m3	uncertainty
298.15	0	1008.356	1.232
298.15	0.0971	1002.788	1.066
298.15	0.2017	995.311	0.939
298.15	0.3033	986.576	0.863
298.15	0.3983	976.628	0.814
298.15	0.5001	963.41	0.788
298.15	0.6006	946.741	0.793
298.15	0.6994	925.277	0.835
298.15	0.8001	895.282	0.931
298.15	0.8998	852.465	1.102
298.15	1	785.499	1.39
303.15	0	1004.38	1.207
303.15	0.0971	998.809	1.053
303.15	0.2017	991.322	0.954
303.15	0.3033	982.598	0.879
303.15	0.3983	972.658	0.831
303.15	0.5001	959.429	0.805
303.15	0.6006	942.745	0.811
303.15	0.6994	921.231	0.854
303.15	0.8001	891.163	0.95
303.15	0.8998	848.243	1.121
303.15	1	781.197	1.41
308.15	0	1000.325	1.181
308.15	0.0971	994.769	1.067
308.15	0.2017	987.293	0.968
308.15	0.3033	978.579	0.894
308.15	0.3983	968.645	0.847
308.15	0.5001	955.408	0.822
308.15	0.6006	938.702	0.828
308.15	0.6994	917.149	0.872
308.15	0.8001	887.012	0.969
308.15	0.8998	843.982	1.141
308.15	1	776.853	1.431
313.15	0	996.237	1.191
313.15	0.0971	990.695	1.08
313.15	0.2017	983.232	0.983
313.15	0.3033	974.526	0.91
313.15	0.3983	964.592	0.863
313.15	0.5001	951.35	0.839
313.15	0.6006	934.623	0.847
313.15	0.6994	913.029	0.892
313.15	0.8001	882.818	0.99
313.15	0.8998	839.679	1.166
313.15	1	772.468	1.451

System: propan-1-ol + N-ethylpiperazinium propionate; phases: Liquid
Fixed: Pressure, kPa = 101
Property: Viscosity, Pa*s (Liquid); method: Capillary tube (Ostwald; Ubbelohde) method
Temperature, K	Mole fraction of propan-1-ol	Viscosity, Pa*s	uncertainty
298.15	0	0.24349	0.00765
298.15	0.1036	0.16034	0.00426
298.15	0.2026	0.10767	0.0024
298.15	0.3041	0.070217	0.001314
298.15	0.4017	0.047451	0.000798
298.15	0.4993	0.03081	0.0005
298.15	0.5997	0.018935	0.000299
298.15	0.6994	0.011309	0.000173
298.15	0.8009	0.0063892	9.8e-05
298.15	0.8997	0.003609	5.35e-05
298.15	1	0.0019414	2.37e-05
303.15	0	0.16481	0.00464
303.15	0.1036	0.11363	0.00264
303.15	0.2026	0.076593	0.001522
303.15	0.3041	0.052121	0.000896
303.15	0.4017	0.036209	0.000596
303.15	0.4993	0.024262	0.000374
303.15	0.5997	0.015386	0.000222
303.15	0.6994	0.0094439	0.0001295
303.15	0.8009	0.0054541	7.19e-05
303.15	0.8997	0.0031499	4.01e-05
303.15	1	0.0017282	2.13e-05
308.15	0	0.11344	0.00274
308.15	0.1036	0.081459	0.001665
308.15	0.2026	0.056215	0.001009
308.15	0.3041	0.039453	0.000672
308.15	0.4017	0.02819	0.000452
308.15	0.4993	0.019381	0.000292
308.15	0.5997	0.0126	0.00018
308.15	0.6994	0.0078989	0.0001077
308.15	0.8009	0.0046893	6.14e-05
308.15	0.8997	0.0027618	3.49e-05
308.15	1	0.0015448	1.9e-05
313.15	0	0.080932	0.001838
313.15	0.1036	0.059738	0.001173
313.15	0.2026	0.04219	0.000745
313.15	0.3041	0.030418	0.000509
313.15	0.4017	0.02222	0.000354
313.15	0.4993	0.015668	0.000231
313.15	0.5997	0.010415	0.000141
313.15	0.6994	0.0066839	8.53e-05
313.15	0.8009	0.0040587	4.91e-05
313.15	0.8997	0.0024346	2.86e-05
313.15	1	0.0013847	1.71e-05

System: propan-1-ol + N-ethylpiperazinium propionate; phases: Liquid
Fixed: Pressure, kPa = 101
Property: Mass density, kg/m3 (Liquid); method: VIBTUB:UFactor:12
Temperature, K	Mole fraction of propan-1-ol	Mass density, kg/m3	uncertainty
298.15	0	1008.356	1.232
298.15	0.1036	1000.193	1.042
298.15	0.2026	991.259	0.953
298.15	0.3041	980.78	0.885
298.15	0.4017	968.85	0.843
298.15	0.4993	955.014	0.824
298.15	0.5997	937.035	0.835
298.15	0.6994	915.033	0.881
298.15	0.8009	886.568	0.969
298.15	0.8997	850.105	1.11
298.15	1	799.557	1.324
303.15	0	1004.38	1.207
303.15	0.1036	996.232	1.054
303.15	0.2026	987.3	0.967
303.15	0.3041	976.824	0.9
303.15	0.4017	964.943	0.859
303.15	0.4993	951.074	0.84
303.15	0.5997	933.087	0.853
303.15	0.6994	911.053	0.899
303.15	0.8009	882.553	0.988
303.15	0.8997	846.036	1.13
303.15	1	795.543	1.343
308.15	0	1000.325	1.181
308.15	0.1036	992.229	1.067
308.15	0.2026	983.298	0.982
308.15	0.3041	972.831	0.916
308.15	0.4017	960.993	0.875
308.15	0.4993	947.084	0.857
308.15	0.5997	929.086	0.87
308.15	0.6994	907.028	0.917
308.15	0.8009	878.491	1.007
308.15	0.8997	841.932	1.148
308.15	1	791.479	1.362
313.15	0	996.237	1.191
313.15	0.1036	988.196	1.081
313.15	0.2026	979.269	0.996
313.15	0.3041	968.803	0.931
313.15	0.4017	956.993	0.891
313.15	0.4993	943.06	0.875
313.15	0.5997	925.047	0.889
313.15	0.6994	902.965	0.936
313.15	0.8009	874.385	1.027
313.15	0.8997	837.782	1.17
313.15	1	787.371	1.381

System: butan-1-ol + N-ethylpiperazinium propionate; phases: Liquid
Fixed: Pressure, kPa = 101
Property: Viscosity, Pa*s (Liquid); method: Capillary tube (Ostwald; Ubbelohde) method
Temperature, K	Mole fraction of butan-1-ol	Viscosity, Pa*s	uncertainty
298.15	0	0.24349	0.00765
298.15	0.1025	0.17749	0.00492
298.15	0.2018	0.13379	0.00326
298.15	0.2999	0.098716	0.002143
298.15	0.3989	0.073159	0.001422
298.15	0.5016	0.053481	0.000975
298.15	0.6004	0.038823	0.000715
298.15	0.7012	0.027071	0.000499
298.15	0.8008	0.017507	0.00032
298.15	0.8995	0.0096112	0.0001701
298.15	1	0.0025768	3.21e-05
303.15	0	0.16481	0.00464
303.15	0.1025	0.12206	0.00301
303.15	0.2018	0.091021	0.002029
303.15	0.2999	0.067322	0.001365
303.15	0.3989	0.050024	0.000967
303.15	0.5016	0.036421	0.000711
303.15	0.6004	0.026352	0.000511
303.15	0.7012	0.018124	0.000354
303.15	0.8008	0.011838	0.000226
303.15	0.8995	0.0067014	0.000121
303.15	1	0.0022719	2.86e-05
308.15	0	0.11344	0.00274
308.15	0.1025	0.084944	0.001824
308.15	0.2018	0.063822	0.001247
308.15	0.2999	0.047835	0.0009
308.15	0.3989	0.035723	0.000656
308.15	0.5016	0.02602	0.00047
308.15	0.6004	0.018802	0.000335
308.15	0.7012	0.012918	0.000228
308.15	0.8008	0.008502	0.0001466
308.15	0.8995	0.0049657	8.11e-05
308.15	1	0.0020104	2.52e-05
313.15	0	0.080932	0.001838
313.15	0.1025	0.061072	0.001234
313.15	0.2018	0.046534	0.000909
313.15	0.2999	0.035216	0.000661
313.15	0.3989	0.026477	0.000483
313.15	0.5016	0.01937	0.000344
313.15	0.6004	0.014054	0.000245
313.15	0.7012	0.0096749	0.0001627
313.15	0.8008	0.0064342	0.0001059
313.15	0.8995	0.0038703	5.84e-05
313.15	1	0.0017856	2.26e-05

System: butan-1-ol + N-ethylpiperazinium propionate; phases: Liquid
Fixed: Pressure, kPa = 101
Property: Mass density, kg/m3 (Liquid); method: VIBTUB:UFactor:12
Temperature, K	Mole fraction of butan-1-ol	Mass density, kg/m3	uncertainty
298.15	0	1008.356	1.232
298.15	0.1025	998.465	1.063
298.15	0.2018	987.497	0.994
298.15	0.2999	975.365	0.945
298.15	0.3989	961.397	0.916
298.15	0.5016	944.783	0.908
298.15	0.6004	926.29	0.924
298.15	0.7012	903.96	0.969
298.15	0.8008	877.764	1.044
298.15	0.8995	845.961	1.157
298.15	1	805.814	1.316
303.15	0	1004.38	1.207
303.15	0.1025	994.495	1.076
303.15	0.2018	983.536	1.008
303.15	0.2999	971.427	0.96
303.15	0.3989	957.475	0.931
303.15	0.5016	940.876	0.924
303.15	0.6004	922.385	0.941
303.15	0.7012	900.045	0.987
303.15	0.8008	873.84	1.062
303.15	0.8995	842.05	1.175
303.15	1	801.996	1.333
308.15	0	1000.325	1.181
308.15	0.1025	990.478	1.089
308.15	0.2018	979.527	1.023
308.15	0.2999	967.437	0.975
308.15	0.3989	953.503	0.947
308.15	0.5016	936.907	0.941
308.15	0.6004	918.422	0.958
308.15	0.7012	896.078	1.004
308.15	0.8008	869.866	1.08
308.15	0.8995	838.083	1.193
308.15	1	798.13	1.351
313.15	0	996.237	1.191
313.15	0.1025	986.427	1.103
313.15	0.2018	975.484	1.037
313.15	0.2999	963.409	0.99
313.15	0.3989	949.491	0.963
313.15	0.5016	932.906	0.957
313.15	0.6004	914.42	0.976
313.15	0.7012	892.071	1.022
313.15	0.8008	865.851	1.099
313.15	0.8995	834.079	1.212
313.15	1	794.226	1.369
