Measured thermophysical data. Solubilities of 1-Hexyl-3-methylimidazole Nitrate and 1-Octyl-3-methylimidazole Nitrate in Selected Solvents
Source: J. Chem. Eng. Data, 2011, 10.1021/je200151j
Compound 1: 1-hexyl-3-methylimidazolium nitrate, C10H19N3O3, InChI=1S/C10H19N2.NO3/c1-3-4-5-6-7-12-9-8-11(2)10-12;2-1(3)4/h8-10H,3-7H2,1-2H3;/q+1;-1
Compound 2: 1-methyl-3-octylimidazolium nitrate, C12H23N3O3, InChI=1S/C12H23N2.NO3/c1-3-4-5-6-7-8-9-14-11-10-13(2)12-14;2-1(3)4/h10-12H,3-9H2,1-2H3;/q+1;-1
Compound 3: pentane, C5H12, InChI=1S/C5H12/c1-3-5-4-2/h3-5H2,1-2H3
Compound 4: hexane, C6H14, InChI=1S/C6H14/c1-3-5-6-4-2/h3-6H2,1-2H3
Compound 5: cyclohexane, C6H12, InChI=1S/C6H12/c1-2-4-6-5-3-1/h1-6H2
Compound 6: heptane, C7H16, InChI=1S/C7H16/c1-3-5-7-6-4-2/h3-7H2,1-2H3
Compound 7: octane, C8H18, InChI=1S/C8H18/c1-3-5-7-8-6-4-2/h3-8H2,1-2H3
Compound 8: benzene, C6H6, InChI=1S/C6H6/c1-2-4-6-5-3-1/h1-6H
Compound 9: toluene, C7H8, InChI=1S/C7H8/c1-7-5-3-2-4-6-7/h2-6H,1H3
Compound 10: 1,2-dimethylbenzene, C8H10, InChI=1S/C8H10/c1-7-5-3-4-6-8(7)2/h3-6H,1-2H3
Compound 11: 1,3-dimethylbenzene, C8H10, InChI=1S/C8H10/c1-7-4-3-5-8(2)6-7/h3-6H,1-2H3
Compound 12: 1,4-dimethylbenzene, C8H10, InChI=1S/C8H10/c1-7-3-5-8(2)6-4-7/h3-6H,1-2H3

System: pentane + 1-hexyl-3-methylimidazolium nitrate; phases: Liquid mixture 1, Liquid mixture 2
Fixed: Pressure, kPa = 101
Property: Mole fraction of 1-hexyl-3-methylimidazolium nitrate (Liquid mixture 1); method: gravimetric
Temperature, K	Mole fraction of 1-hexyl-3-methylimidazolium nitrate	uncertainty
278.15	0.000359	1.4e-05
283.15	0.000397	1.6e-05
288.15	0.000442	1.8e-05
293.15	0.000484	1.9e-05
298.15	0.000534	2.1e-05
303.15	0.000578	2.3e-05

System: hexane + 1-hexyl-3-methylimidazolium nitrate; phases: Liquid mixture 1, Liquid mixture 2
Fixed: Pressure, kPa = 101
Property: Mole fraction of 1-hexyl-3-methylimidazolium nitrate (Liquid mixture 1); method: gravimetric
Temperature, K	Mole fraction of 1-hexyl-3-methylimidazolium nitrate	uncertainty
288.15	0.000306	1.2e-05
293.15	0.000362	1.5e-05
298.15	0.00042	1.7e-05
303.15	0.000492	2e-05
308.15	0.000575	2.3e-05
313.15	0.000693	2.8e-05
318.15	0.000794	3.2e-05
323.15	0.000895	3.6e-05
328.15	0.000995	4e-05
333.15	0.001129	4.5e-05

System: cyclohexane + 1-hexyl-3-methylimidazolium nitrate; phases: Liquid mixture 1, Liquid mixture 2
Fixed: Pressure, kPa = 101
Property: Mole fraction of 1-hexyl-3-methylimidazolium nitrate (Liquid mixture 1); method: gravimetric
Temperature, K	Mole fraction of 1-hexyl-3-methylimidazolium nitrate	uncertainty
293.15	0.000304	1.2e-05
298.15	0.000357	1.4e-05
303.15	0.0004	1.6e-05
308.15	0.000446	1.8e-05
313.15	0.000516	2.1e-05
318.15	0.000592	2.4e-05
323.15	0.000674	2.7e-05
328.15	0.000751	3e-05
333.15	0.000857	3.5e-05
338.15	0.001045	4.2e-05

System: heptane + 1-hexyl-3-methylimidazolium nitrate; phases: Liquid mixture 1, Liquid mixture 2
Fixed: Pressure, kPa = 101
Property: Mole fraction of 1-hexyl-3-methylimidazolium nitrate (Liquid mixture 1); method: gravimetric
Temperature, K	Mole fraction of 1-hexyl-3-methylimidazolium nitrate	uncertainty
313.15	0.000268	1.1e-05
318.15	0.000358	1.5e-05
323.15	0.00049	2e-05
328.15	0.000629	2.6e-05
333.15	0.000841	3.5e-05
338.15	0.001093	4.5e-05
343.15	0.001419	5.8e-05

System: octane + 1-hexyl-3-methylimidazolium nitrate; phases: Liquid mixture 1, Liquid mixture 2
Fixed: Pressure, kPa = 101
Property: Mole fraction of 1-hexyl-3-methylimidazolium nitrate (Liquid mixture 1); method: gravimetric
Temperature, K	Mole fraction of 1-hexyl-3-methylimidazolium nitrate	uncertainty
293.15	0.000203	8e-06
298.15	0.000234	9e-06
303.15	0.000268	1.1e-05
308.15	0.000299	1.2e-05
313.15	0.000344	1.4e-05
318.15	0.00038	1.5e-05
323.15	0.000421	1.7e-05
328.15	0.000458	1.8e-05
333.15	0.000518	2.1e-05
338.15	0.000568	2.3e-05
343.15	0.000631	2.5e-05

System: benzene + 1-hexyl-3-methylimidazolium nitrate; phases: Liquid mixture 1, Liquid mixture 2
Fixed: Pressure, kPa = 101
Property: Mole fraction of 1-hexyl-3-methylimidazolium nitrate (Liquid mixture 1); method: gravimetric
Temperature, K	Mole fraction of 1-hexyl-3-methylimidazolium nitrate	uncertainty
298.15	0.000219	9e-06
303.15	0.000263	1.1e-05
308.15	0.000308	1.3e-05
313.15	0.000382	1.6e-05
318.15	0.000454	1.8e-05
323.15	0.000536	2.2e-05
328.15	0.00061	2.5e-05
333.15	0.000714	2.9e-05
338.15	0.000832	3.4e-05
343.15	0.000962	3.9e-05

System: toluene + 1-hexyl-3-methylimidazolium nitrate; phases: Liquid mixture 1, Liquid mixture 2
Fixed: Pressure, kPa = 101
Property: Mole fraction of 1-hexyl-3-methylimidazolium nitrate (Liquid mixture 1); method: gravimetric
Temperature, K	Mole fraction of 1-hexyl-3-methylimidazolium nitrate	uncertainty
298.15	0.000278	1.1e-05
303.15	0.000334	1.4e-05
308.15	0.00039	1.6e-05
313.15	0.000482	2e-05
318.15	0.000585	2.4e-05
323.15	0.000686	2.8e-05
328.15	0.000776	3.1e-05
333.15	0.000904	3.7e-05
338.15	0.001061	4.3e-05
343.15	0.001227	5e-05

System: 1,2-dimethylbenzene + 1-hexyl-3-methylimidazolium nitrate; phases: Liquid mixture 1, Liquid mixture 2
Fixed: Pressure, kPa = 101
Property: Mole fraction of 1-hexyl-3-methylimidazolium nitrate (Liquid mixture 1); method: gravimetric
Temperature, K	Mole fraction of 1-hexyl-3-methylimidazolium nitrate	uncertainty
298.15	0.001332	5.3e-05
303.15	0.00145	5.8e-05
308.15	0.001599	6.4e-05
313.15	0.001732	6.9e-05
318.15	0.001866	7.5e-05
323.15	0.001983	8e-05
328.15	0.002133	8.6e-05
333.15	0.002266	9.1e-05
338.15	0.0024	9.6e-05
343.15	0.002533	0.000101

System: 1,3-dimethylbenzene + 1-hexyl-3-methylimidazolium nitrate; phases: Liquid mixture 1, Liquid mixture 2
Fixed: Pressure, kPa = 101
Property: Mole fraction of 1-hexyl-3-methylimidazolium nitrate (Liquid mixture 1); method: gravimetric
Temperature, K	Mole fraction of 1-hexyl-3-methylimidazolium nitrate	uncertainty
298.15	0.002392	9.7e-05
303.15	0.002715	0.000109
308.15	0.003032	0.000122
313.15	0.003368	0.000136
318.15	0.003764	0.000151
323.15	0.004127	0.000166
328.15	0.004578	0.000184
333.15	0.005051	0.000203
338.15	0.005534	0.000222
343.15	0.00607	0.000244

System: 1,4-dimethylbenzene + 1-hexyl-3-methylimidazolium nitrate; phases: Liquid mixture 1, Liquid mixture 2
Fixed: Pressure, kPa = 101
Property: Mole fraction of 1-hexyl-3-methylimidazolium nitrate (Liquid mixture 1); method: gravimetric
Temperature, K	Mole fraction of 1-hexyl-3-methylimidazolium nitrate	uncertainty
298.15	0.000795	3.2e-05
303.15	0.000896	3.6e-05
308.15	0.001024	4.1e-05
313.15	0.00114	4.6e-05
318.15	0.001277	5.1e-05
323.15	0.001409	5.7e-05
328.15	0.00155	6.2e-05
333.15	0.001686	6.8e-05
338.15	0.001823	7.3e-05
343.15	0.001995	8e-05

System: pentane + 1-methyl-3-octylimidazolium nitrate; phases: Liquid mixture 1, Liquid mixture 2
Fixed: Pressure, kPa = 101
Property: Mole fraction of 1-methyl-3-octylimidazolium nitrate (Liquid mixture 1); method: gravimetric
Temperature, K	Mole fraction of 1-methyl-3-octylimidazolium nitrate	uncertainty
278.15	0.000687	2.8e-05
283.15	0.000816	3.3e-05
288.15	0.000955	3.9e-05
293.15	0.001103	4.5e-05
298.15	0.001266	5.1e-05
303.15	0.001493	6e-05

System: hexane + 1-methyl-3-octylimidazolium nitrate; phases: Liquid mixture 1, Liquid mixture 2
Fixed: Pressure, kPa = 101
Property: Mole fraction of 1-methyl-3-octylimidazolium nitrate (Liquid mixture 1); method: gravimetric
Temperature, K	Mole fraction of 1-methyl-3-octylimidazolium nitrate	uncertainty
288.15	0.000683	2.8e-05
293.15	0.00078	3.2e-05
298.15	0.000919	3.7e-05
303.15	0.001129	4.6e-05
308.15	0.001282	5.2e-05
313.15	0.001624	6.6e-05
318.15	0.001844	7.4e-05
323.15	0.002056	8.3e-05
328.15	0.002316	9.4e-05
333.15	0.002706	0.000109

System: cyclohexane + 1-methyl-3-octylimidazolium nitrate; phases: Liquid mixture 1, Liquid mixture 2
Fixed: Pressure, kPa = 101
Property: Mole fraction of 1-methyl-3-octylimidazolium nitrate (Liquid mixture 1); method: gravimetric
Temperature, K	Mole fraction of 1-methyl-3-octylimidazolium nitrate	uncertainty
293.15	0.000775	3.1e-05
298.15	0.000901	3.6e-05
303.15	0.001056	4.3e-05
308.15	0.001244	5e-05
313.15	0.001462	5.9e-05
318.15	0.001685	6.8e-05
323.15	0.001909	7.7e-05
328.15	0.002121	8.6e-05
333.15	0.00244	0.0001
338.15	0.003136	0.000128

System: heptane + 1-methyl-3-octylimidazolium nitrate; phases: Liquid mixture 1, Liquid mixture 2
Fixed: Pressure, kPa = 101
Property: Mole fraction of 1-methyl-3-octylimidazolium nitrate (Liquid mixture 1); method: gravimetric
Temperature, K	Mole fraction of 1-methyl-3-octylimidazolium nitrate	uncertainty
293.15	0.000342	1.4e-05
298.15	0.000407	1.7e-05
303.15	0.000488	2e-05
308.15	0.000586	2.4e-05
313.15	0.000728	3e-05
318.15	0.000856	3.5e-05
323.15	0.00101	4.1e-05
328.15	0.001188	4.8e-05
333.15	0.001427	5.8e-05
338.15	0.001664	6.7e-05
343.15	0.001932	7.8e-05

System: octane + 1-methyl-3-octylimidazolium nitrate; phases: Liquid mixture 1, Liquid mixture 2
Fixed: Pressure, kPa = 101
Property: Mole fraction of 1-methyl-3-octylimidazolium nitrate (Liquid mixture 1); method: gravimetric
Temperature, K	Mole fraction of 1-methyl-3-octylimidazolium nitrate	uncertainty
293.15	0.000142	6e-06
298.15	0.000158	6e-06
303.15	0.000172	7e-06
308.15	0.000189	8e-06
313.15	0.000209	8e-06
318.15	0.000229	9e-06
323.15	0.000246	1e-05
328.15	0.000264	1.1e-05
333.15	0.000288	1.2e-05
338.15	0.000311	1.2e-05
343.15	0.000335	1.3e-05

System: benzene + 1-methyl-3-octylimidazolium nitrate; phases: Liquid mixture 1, Liquid mixture 2
Fixed: Pressure, kPa = 101
Property: Mole fraction of 1-methyl-3-octylimidazolium nitrate (Liquid mixture 1); method: gravimetric
Temperature, K	Mole fraction of 1-methyl-3-octylimidazolium nitrate	uncertainty
298.15	0.000303	1.2e-05
303.15	0.000357	1.4e-05
308.15	0.00041	1.7e-05
313.15	0.00049	2e-05
318.15	0.000572	2.3e-05
323.15	0.000661	2.7e-05
328.15	0.000751	3e-05
333.15	0.00086	3.5e-05
338.15	0.000981	4e-05
343.15	0.001114	4.5e-05

System: toluene + 1-methyl-3-octylimidazolium nitrate; phases: Liquid mixture 1, Liquid mixture 2
Fixed: Pressure, kPa = 101
Property: Mole fraction of 1-methyl-3-octylimidazolium nitrate (Liquid mixture 1); method: gravimetric
Temperature, K	Mole fraction of 1-methyl-3-octylimidazolium nitrate	uncertainty
298.15	0.000371	1.5e-05
303.15	0.00043	1.7e-05
308.15	0.0005	2e-05
313.15	0.000598	2.4e-05
318.15	0.000699	2.8e-05
323.15	0.000806	3.2e-05
328.15	0.000892	3.6e-05
333.15	0.001025	4.1e-05
338.15	0.001173	4.7e-05
343.15	0.001329	5.4e-05

System: 1,2-dimethylbenzene + 1-methyl-3-octylimidazolium nitrate; phases: Liquid mixture 1, Liquid mixture 2
Fixed: Pressure, kPa = 101
Property: Mole fraction of 1-methyl-3-octylimidazolium nitrate (Liquid mixture 1); method: gravimetric
Temperature, K	Mole fraction of 1-methyl-3-octylimidazolium nitrate	uncertainty
298.15	0.004998	0.0002
303.15	0.00529	0.000212
308.15	0.005581	0.000224
313.15	0.005873	0.000235
318.15	0.006164	0.000247
323.15	0.006456	0.000259
328.15	0.006747	0.00027
333.15	0.007039	0.000282
338.15	0.00733	0.000293
343.15	0.007622	0.000305

System: 1,3-dimethylbenzene + 1-methyl-3-octylimidazolium nitrate; phases: Liquid mixture 1, Liquid mixture 2
Fixed: Pressure, kPa = 101
Property: Mole fraction of 1-methyl-3-octylimidazolium nitrate (Liquid mixture 1); method: gravimetric
Temperature, K	Mole fraction of 1-methyl-3-octylimidazolium nitrate	uncertainty
298.15	0.005256	0.000211
303.15	0.005655	0.000227
308.15	0.006054	0.000243
313.15	0.006453	0.000259
318.15	0.006852	0.000275
323.15	0.007251	0.00029
328.15	0.00765	0.000306
333.15	0.008049	0.000322
338.15	0.008448	0.000338
343.15	0.008847	0.000354

System: 1,4-dimethylbenzene + 1-methyl-3-octylimidazolium nitrate; phases: Liquid mixture 1, Liquid mixture 2
Fixed: Pressure, kPa = 101
Property: Mole fraction of 1-methyl-3-octylimidazolium nitrate (Liquid mixture 1); method: gravimetric
Temperature, K	Mole fraction of 1-methyl-3-octylimidazolium nitrate	uncertainty
298.15	0.003076	0.000123
303.15	0.00331	0.000133
308.15	0.003576	0.000143
313.15	0.003826	0.000153
318.15	0.004076	0.000163
323.15	0.004309	0.000173
328.15	0.004576	0.000183
333.15	0.004826	0.000193
338.15	0.005076	0.000203
343.15	0.005326	0.000213
