Measured thermophysical data. Densities, Viscosities, and Refractive Properties of the Binary Mixtures of the Amino Acid Ionic Liquid [bmim][Ala] with Methanol or Benzylalcohol at T = (298.15 to 313.15) K
Source: J. Chem. Eng. Data, 2011, 10.1021/je2000606
Compound 1: 3-butyl-1-methyl-1H-imidazolium L-alaninate, C11H21N3O2, InChI=1S/C8H15N2.C3H7NO2/c1-3-4-5-10-7-6-9(2)8-10;1-2(4)3(5)6/h6-8H,3-5H2,1-2H3;2H,4H2,1H3,(H,5,6)/q+1;/p-1/t;2-/m.0/s1, purity 99%
Compound 2: methanol, CH4O, InChI=1S/CH4O/c1-2/h2H,1H3, purity 99%
Compound 3: benzenemethanol, C7H8O, InChI=1S/C7H8O/c8-6-7-4-2-1-3-5-7/h1-5,8H,6H2, purity 99%

System: 3-butyl-1-methyl-1H-imidazolium L-alaninate; phases: Liquid
Fixed: Pressure, kPa = 101.325
Property: Viscosity, Pa*s (Liquid); method: Falling or rolling sphere viscometry
Temperature, K	Viscosity, Pa*s	uncertainty
298.15	0.078295	0.001448
303.15	0.059772	0.000792
308.15	0.047028	0.00063
313.15	0.037946	0.000529

System: 3-butyl-1-methyl-1H-imidazolium L-alaninate; phases: Liquid
Fixed: Pressure, kPa = 101.325
Property: Refractive index (Na D-line) (Liquid); method: Standard Abbe refractometry
Temperature, K	Refractive index (Na D-line)	uncertainty
298.15	1.5184	0.0004
303.15	1.5168	0.0004
308.15	1.5153	0.0004
313.15	1.5135	0.0004

System: 3-butyl-1-methyl-1H-imidazolium L-alaninate; phases: Liquid
Fixed: Pressure, kPa = 101.325
Property: Mass density, kg/m3 (Liquid); method: Vibrating tube method
Temperature, K	Mass density, kg/m3	uncertainty
298.15	1080.2	1
303.15	1076.5	1
308.15	1074.2	1
313.15	1071.1	1

System: methanol; phases: Liquid
Fixed: Pressure, kPa = 101.325
Property: Viscosity, Pa*s (Liquid); method: Falling or rolling sphere viscometry
Temperature, K	Viscosity, Pa*s	uncertainty
298.15	0.000532	0.0002
303.15	0.000515	0.0002
308.15	0.000465	0.0002
313.15	0.000441	0.0002

System: methanol; phases: Liquid
Fixed: Pressure, kPa = 101.325
Property: Refractive index (Na D-line) (Liquid); method: Standard Abbe refractometry
Temperature, K	Refractive index (Na D-line)	uncertainty
298.15	1.3266	0.0004
303.15	1.3243	0.0004
308.15	1.3224	0.0004
313.15	1.3208	0.0004

System: methanol; phases: Liquid
Fixed: Pressure, kPa = 101.325
Property: Mass density, kg/m3 (Liquid); method: Vibrating tube method
Temperature, K	Mass density, kg/m3	uncertainty
298.15	786.4	1
303.15	782.2	1
308.15	776.7	1
313.15	772.9	1

System: benzenemethanol; phases: Liquid
Fixed: Pressure, kPa = 101.325
Property: Viscosity, Pa*s (Liquid); method: Falling or rolling sphere viscometry
Temperature, K	Viscosity, Pa*s	uncertainty
298.15	0.00555	0.000209
303.15	0.004675	0.000206
308.15	0.00401	0.000204
313.15	0.003522	0.000203

System: benzenemethanol; phases: Liquid
Fixed: Pressure, kPa = 101.325
Property: Refractive index (Na D-line) (Liquid); method: Standard Abbe refractometry
Temperature, K	Refractive index (Na D-line)	uncertainty
298.15	1.5371	0.0004
303.15	1.5349	0.0004
308.15	1.5323	0.0004
313.15	1.5301	0.0004

System: benzenemethanol; phases: Liquid
Fixed: Pressure, kPa = 101.325
Property: Mass density, kg/m3 (Liquid); method: Vibrating tube method
Temperature, K	Mass density, kg/m3	uncertainty
298.15	1041.64	1.03
303.15	1037.42	1.03
308.15	1033.84	1.03
313.15	1030.43	1.03

System: methanol + 3-butyl-1-methyl-1H-imidazolium L-alaninate; phases: Liquid
Fixed: Pressure, kPa = 101
Property: Viscosity, Pa*s (Liquid); method: SPHERE:UFactor:16
Temperature, K	Mole fraction of 3-butyl-1-methyl-1H-imidazolium L-alaninate	Viscosity, Pa*s	uncertainty
298.15	0.0986	0.001824	0.000288
298.15	0.2015	0.002979	0.000394
298.15	0.2837	0.004892	0.000611
298.15	0.3985	0.008963	0.001121
298.15	0.5105	0.015196	0.001897
298.15	0.6035	0.022228	0.002771
298.15	0.7011	0.031135	0.003882
298.15	0.8152	0.04503	0.005612
298.15	0.9139	0.060328	0.006136
303.15	0.0986	0.001753	0.000283
303.15	0.2015	0.00276	0.000372
303.15	0.2837	0.003714	0.000468
303.15	0.3985	0.006403	0.000798
303.15	0.5105	0.010727	0.001337
303.15	0.6035	0.016008	0.001995
303.15	0.7011	0.022635	0.002821
303.15	0.8152	0.032906	0.0041
303.15	0.9139	0.045018	0.005608
308.15	0.0986	0.001829	0.000289
308.15	0.2015	0.002349	0.000334
308.15	0.2837	0.003429	0.000438
308.15	0.3985	0.005513	0.000685
308.15	0.5105	0.009168	0.001139
308.15	0.6035	0.013402	0.001666
308.15	0.7011	0.018285	0.002273
308.15	0.8152	0.026268	0.003267
308.15	0.9139	0.035298	0.004391
313.15	0.0986	0.00134	0.000253
313.15	0.2015	0.002113	0.000313
313.15	0.2837	0.002792	0.000375
313.15	0.3985	0.005197	0.000646
313.15	0.5105	0.0083	0.001031
313.15	0.6035	0.011913	0.00148
313.15	0.7011	0.01587	0.001971
313.15	0.8152	0.021918	0.002724
313.15	0.9139	0.029177	0.003629

System: methanol + 3-butyl-1-methyl-1H-imidazolium L-alaninate; phases: Liquid
Fixed: Pressure, kPa = 101
Property: Refractive index (Na D-line) (Liquid); method: ABBE:UFactor:2
Temperature, K	Mole fraction of 3-butyl-1-methyl-1H-imidazolium L-alaninate	Refractive index (Na D-line)	uncertainty
298.15	0.0986	1.3952	0.0007
298.15	0.2015	1.438	0.0007
298.15	0.2837	1.4595	0.0007
298.15	0.3985	1.4787	0.0007
298.15	0.5105	1.4914	0.0007
298.15	0.6035	1.4994	0.0007
298.15	0.7011	1.5058	0.0007
298.15	0.8152	1.5111	0.0007
298.15	0.9139	1.5147	0.0007
303.15	0.0986	1.3926	0.0007
303.15	0.2015	1.435	0.0007
303.15	0.2837	1.4564	0.0007
303.15	0.3985	1.4755	0.0007
303.15	0.5105	1.4883	0.0007
303.15	0.6035	1.4964	0.0007
303.15	0.7011	1.5029	0.0007
303.15	0.8152	1.5087	0.0007
303.15	0.9139	1.5126	0.0007
308.15	0.0986	1.3901	0.0007
308.15	0.2015	1.4323	0.0007
308.15	0.2837	1.4533	0.0007
308.15	0.3985	1.4723	0.0007
308.15	0.5105	1.485	0.0007
308.15	0.6035	1.493	0.0007
308.15	0.7011	1.5	0.0007
308.15	0.8152	1.5059	0.0007
308.15	0.9139	1.5105	0.0007
313.15	0.0986	1.3881	0.0007
313.15	0.2015	1.4297	0.0007
313.15	0.2837	1.4502	0.0007
313.15	0.3985	1.4692	0.0007
313.15	0.5105	1.4817	0.0007
313.15	0.6035	1.4898	0.0007
313.15	0.7011	1.497	0.0007
313.15	0.8152	1.5034	0.0007
313.15	0.9139	1.5082	0.0007

System: methanol + 3-butyl-1-methyl-1H-imidazolium L-alaninate; phases: Liquid
Fixed: Pressure, kPa = 101
Property: Mass density, kg/m3 (Liquid); method: VIBTUB:UFactor:6
Temperature, K	Mole fraction of 3-butyl-1-methyl-1H-imidazolium L-alaninate	Mass density, kg/m3	uncertainty
298.15	0.0986	906.31	1.13
298.15	0.2015	968.55	1.08
298.15	0.2837	998.11	1.06
298.15	0.3985	1024.98	1.08
298.15	0.5105	1042.62	1.1
298.15	0.6035	1053.47	1.11
298.15	0.7011	1062.38	1.12
298.15	0.8152	1070.44	1.13
298.15	0.9139	1076	1.14
303.15	0.0986	901.65	1.14
303.15	0.2015	963.93	1.09
303.15	0.2837	993.59	1.06
303.15	0.3985	1020.56	1.08
303.15	0.5105	1038.31	1.1
303.15	0.6035	1049.27	1.11
303.15	0.7011	1058.3	1.12
303.15	0.8152	1066.5	1.13
303.15	0.9139	1072.2	1.13
308.15	0.0986	896.59	1.14
308.15	0.2015	959.34	1.09
308.15	0.2837	989.32	1.07
308.15	0.3985	1016.81	1.08
308.15	0.5105	1034.85	1.09
308.15	0.6035	1046.07	1.1
308.15	0.7011	1055.34	1.11
308.15	0.8152	1063.85	1.12
308.15	0.9139	1069.71	1.13
313.15	0.0986	892.46	1.14
313.15	0.2015	955.28	1.09
313.15	0.2837	985.35	1.07
313.15	0.3985	1012.89	1.07
313.15	0.5105	1031.1	1.09
313.15	0.6035	1042.42	1.1
313.15	0.7011	1051.82	1.11
313.15	0.8152	1060.49	1.12
313.15	0.9139	1066.51	1.13

System: benzenemethanol + 3-butyl-1-methyl-1H-imidazolium L-alaninate; phases: Liquid
Fixed: Pressure, kPa = 101
Property: Viscosity, Pa*s (Liquid); method: SPHERE:UFactor:8
Temperature, K	Mole fraction of 3-butyl-1-methyl-1H-imidazolium L-alaninate	Viscosity, Pa*s	uncertainty
298.15	0.1012	0.006989	0.000448
298.15	0.1939	0.008647	0.000546
298.15	0.3103	0.011904	0.000749
298.15	0.3971	0.014699	0.000926
298.15	0.4864	0.018754	0.001182
298.15	0.6015	0.02624	0.001653
298.15	0.6945	0.034416	0.002168
298.15	0.8015	0.046723	0.002944
298.15	0.9026	0.061327	0.003433
303.15	0.1012	0.005691	0.000383
303.15	0.1939	0.006738	0.000436
303.15	0.3103	0.009274	0.000583
303.15	0.3971	0.011463	0.00072
303.15	0.4864	0.014625	0.000918
303.15	0.6015	0.020505	0.001288
303.15	0.6945	0.026616	0.001674
303.15	0.8015	0.035941	0.002263
303.15	0.9026	0.046957	0.002961
308.15	0.1012	0.004951	0.000347
308.15	0.1939	0.005953	0.000394
308.15	0.3103	0.007695	0.000483
308.15	0.3971	0.009977	0.000623
308.15	0.4864	0.012613	0.000788
308.15	0.6015	0.017359	0.001085
308.15	0.6945	0.022129	0.001386
308.15	0.8015	0.029006	0.001818
308.15	0.9026	0.036886	0.002317
313.15	0.1012	0.00428	0.000316
313.15	0.1939	0.005515	0.000372
313.15	0.3103	0.007175	0.000455
313.15	0.3971	0.008904	0.000556
313.15	0.4864	0.011023	0.000688
313.15	0.6015	0.015009	0.000938
313.15	0.6945	0.018654	0.001166
313.15	0.8015	0.024471	0.001532
313.15	0.9026	0.030691	0.001925

System: benzenemethanol + 3-butyl-1-methyl-1H-imidazolium L-alaninate; phases: Liquid
Fixed: Pressure, kPa = 101
Property: Refractive index (Na D-line) (Liquid); method: ABBE:UFactor:2
Temperature, K	Mole fraction of 3-butyl-1-methyl-1H-imidazolium L-alaninate	Refractive index (Na D-line)	uncertainty
298.15	0.1012	1.5355	0.0007
298.15	0.1939	1.534	0.0007
298.15	0.3103	1.532	0.0007
298.15	0.3971	1.5304	0.0007
298.15	0.4864	1.5287	0.0007
298.15	0.6015	1.5264	0.0007
298.15	0.6945	1.5245	0.0007
298.15	0.8015	1.5223	0.0007
298.15	0.9026	1.5203	0.0007
303.15	0.1012	1.5333	0.0007
303.15	0.1939	1.5319	0.0007
303.15	0.3103	1.53	0.0007
303.15	0.3971	1.5285	0.0007
303.15	0.4864	1.5268	0.0007
303.15	0.6015	1.5246	0.0007
303.15	0.6945	1.5227	0.0007
303.15	0.8015	1.5206	0.0007
303.15	0.9026	1.5186	0.0007
308.15	0.1012	1.5308	0.0007
308.15	0.1939	1.5295	0.0007
308.15	0.3103	1.5277	0.0007
308.15	0.3971	1.5263	0.0007
308.15	0.4864	1.5247	0.0007
308.15	0.6015	1.5226	0.0007
308.15	0.6945	1.5209	0.0007
308.15	0.8015	1.5189	0.0007
308.15	0.9026	1.517	0.0007
313.15	0.1012	1.5286	0.0007
313.15	0.1939	1.5273	0.0007
313.15	0.3103	1.5256	0.0007
313.15	0.3971	1.5242	0.0007
313.15	0.4864	1.5227	0.0007
313.15	0.6015	1.5206	0.0007
313.15	0.6945	1.5189	0.0007
313.15	0.8015	1.517	0.0007
313.15	0.9026	1.5152	0.0007

System: benzenemethanol + 3-butyl-1-methyl-1H-imidazolium L-alaninate; phases: Liquid
Fixed: Pressure, kPa = 101
Property: Mass density, kg/m3 (Liquid); method: VIBTUB:UFactor:6
Temperature, K	Mole fraction of 3-butyl-1-methyl-1H-imidazolium L-alaninate	Mass density, kg/m3	uncertainty
298.15	0.1012	1052.86	1.11
298.15	0.1939	1059.8	1.12
298.15	0.3103	1066.02	1.13
298.15	0.3971	1069.57	1.13
298.15	0.4864	1072.4	1.13
298.15	0.6015	1075.14	1.14
298.15	0.6945	1076.58	1.14
298.15	0.8015	1077.73	1.14
298.15	0.9026	1078.72	1.14
303.15	0.1012	1048.56	1.11
303.15	0.1939	1055.61	1.11
303.15	0.3103	1061.88	1.12
303.15	0.3971	1065.49	1.12
303.15	0.4864	1068.42	1.13
303.15	0.6015	1071.16	1.13
303.15	0.6945	1072.71	1.13
303.15	0.8015	1073.95	1.13
303.15	0.9026	1074.98	1.14
308.15	0.1012	1045.09	1.1
308.15	0.1939	1052.25	1.11
308.15	0.3103	1058.75	1.12
308.15	0.3971	1062.51	1.12
308.15	0.4864	1065.53	1.12
308.15	0.6015	1068.43	1.13
308.15	0.6945	1070.11	1.13
308.15	0.8015	1071.46	1.13
308.15	0.9026	1072.58	1.13
313.15	0.1012	1041.62	1.1
313.15	0.1939	1048.77	1.11
313.15	0.3103	1055.35	1.11
313.15	0.3971	1059.07	1.12
313.15	0.4864	1062.18	1.12
313.15	0.6015	1065.2	1.12
313.15	0.6945	1066.87	1.13
313.15	0.8015	1068.31	1.13
313.15	0.9026	1069.52	1.13
