Measured thermophysical data. Isobaric Vapor Liquid Equilibria of 1-Propanol + Water + Trifluoromethanesulfonate-Based Ionic Liquid Ternary Systems at 100 kPa
Source: J. Chem. Eng. Data, 2011, 10.1021/je2003447
Compound 1: propan-1-ol, C3H8O, InChI=1S/C3H8O/c1-2-3-4/h4H,2-3H2,1H3, purity 99.5%
Compound 2: water, H2O, InChI=1S/H2O/h1H2, purity 99.9%
Compound 3: 3-butyl-1-ethyl-1H-imidazolium trifluoromethanesulfonate (1:1), C10H17F3N2O3S, InChI=1S/C9H17N2.CHF3O3S/c1-3-5-6-11-8-7-10(4-2)9-11;2-1(3,4)8(5,6)7/h7-9H,3-6H2,1-2H3;(H,5,6,7)/q+1;/p-1
Compound 4: 1-butyl-1-methylpyrrolidinium trifluoromethanesulfonate, C10H20F3NO3S, InChI=1S/C9H20N.CHF3O3S/c1-3-4-7-10(2)8-5-6-9-10;2-1(3,4)8(5,6)7/h3-9H2,1-2H3;(H,5,6,7)/q+1;/p-1

System: propan-1-ol + 3-butyl-1-ethyl-1H-imidazolium trifluoromethanesulfonate (1:1); phases: Liquid, Gas
Fixed: Pressure, kPa = 100
Property: Boiling temperature at pressure P, K (Liquid); method: Ebulliometric method (Recirculating still)
Mole fraction of 3-butyl-1-ethyl-1H-imidazolium trifluoromethanesulfonate (1:1)	Boiling temperature at pressure P, K	uncertainty
0	369.81	0.22
0.0115	370.06	0.22
0.0215	370.24	0.22
0.0338	370.46	0.22
0.0494	370.72	0.22
0.0635	370.97	0.22
0.0809	371.31	0.22
0.0974	371.66	0.22
0.112	372.02	0.22
0.1258	372.28	0.22
0.1392	372.72	0.22
0.1559	373.21	0.22
0.1678	373.52	0.22
0.1792	373.88	0.22
0.192	374.31	0.22
0.2046	374.66	0.22
0.2196	375.15	0.22
0.2428	376.08	0.22
0.2593	376.73	0.22
0.2743	377.07	0.22
0.2859	377.92	0.22
0.3057	378.49	0.22
0.3138	378.94	0.22
0.3242	379.7	0.22
0.3333	380.29	0.22
0.3466	380.82	0.22
0.3582	381.45	0.22
0.3734	382.34	0.22
0.3881	383.03	0.22
0.3961	383.82	0.22
0.4024	383.93	0.22
0.4096	384.56	0.22
0.4156	384.95	0.22

System: water + 3-butyl-1-ethyl-1H-imidazolium trifluoromethanesulfonate (1:1); phases: Liquid, Gas
Fixed: Pressure, kPa = 100
Property: Boiling temperature at pressure P, K (Liquid); method: Ebulliometric method (Recirculating still)
Mole fraction of 3-butyl-1-ethyl-1H-imidazolium trifluoromethanesulfonate (1:1)	Boiling temperature at pressure P, K	uncertainty
0	372.84	0.22
0.0033	373	0.22
0.0067	373.12	0.22
0.0141	373.25	0.22
0.0269	373.38	0.22
0.0414	373.45	0.22
0.0563	373.53	0.22
0.0715	373.64	0.22
0.0869	373.75	0.22
0.1039	373.93	0.22
0.1177	374.12	0.22
0.1509	374.71	0.22
0.1649	375.02	0.22
0.1798	375.41	0.22
0.1916	375.71	0.22
0.2037	376.06	0.22
0.2144	376.48	0.22
0.231	377.06	0.22
0.2388	377.5	0.22
0.2522	377.99	0.22
0.2641	378.52	0.22
0.2814	379.31	0.22

System: propan-1-ol + 1-butyl-1-methylpyrrolidinium trifluoromethanesulfonate; phases: Liquid, Gas
Fixed: Pressure, kPa = 100
Property: Boiling temperature at pressure P, K (Liquid); method: Ebulliometric method (Recirculating still)
Mole fraction of 1-butyl-1-methylpyrrolidinium trifluoromethanesulfonate	Boiling temperature at pressure P, K	uncertainty
0	369.81	0.22
0.015	370.14	0.22
0.027	370.29	0.22
0.04	370.46	0.22
0.056	370.7	0.22
0.074	370.98	0.22
0.093	371.33	0.22
0.112	371.68	0.22
0.129	371.96	0.22
0.146	372.33	0.22
0.162	372.72	0.22
0.176	373.04	0.22
0.19	373.38	0.22
0.208	373.94	0.22
0.221	374.25	0.22
0.234	374.53	0.22
0.247	375.02	0.22
0.261	375.64	0.22
0.273	376	0.22
0.289	376.56	0.22
0.303	377.3	0.22
0.32	378.03	0.22
0.328	378.14	0.22
0.339	378.75	0.22
0.35	379.17	0.22
0.363	379.8	0.22
0.374	380.25	0.22
0.386	381.09	0.22
0.399	381.8	0.22
0.413	382.65	0.22
0.419	383.13	0.22
0.427	383.69	0.22
0.442	384.84	0.22

System: water + 1-butyl-1-methylpyrrolidinium trifluoromethanesulfonate; phases: Liquid, Gas
Fixed: Pressure, kPa = 100
Property: Boiling temperature at pressure P, K (Liquid); method: Ebulliometric method (Recirculating still)
Mole fraction of 1-butyl-1-methylpyrrolidinium trifluoromethanesulfonate	Boiling temperature at pressure P, K	uncertainty
0	372.84	0.22
0.003	372.96	0.22
0.007	373.1	0.22
0.012	373.21	0.22
0.023	373.4	0.22
0.037	373.58	0.22
0.053	373.69	0.22
0.071	373.89	0.22
0.104	374.32	0.22
0.12	374.66	0.22
0.136	374.95	0.22
0.153	375.29	0.22
0.171	375.82	0.22
0.186	376.22	0.22
0.204	376.81	0.22
0.221	377.35	0.22
0.237	377.96	0.22
0.253	378.75	0.22
0.277	379.5	0.22
0.288	380.15	0.22
0.302	380.87	0.22
0.314	381.58	0.22
0.334	382.31	0.22
0.355	383.6	0.22
0.374	384.94	0.22
0.402	386.82	0.22
0.433	388.81	0.22
0.466	391.57	0.22
0.512	394.81	0.22

System: propan-1-ol + water + 3-butyl-1-ethyl-1H-imidazolium trifluoromethanesulfonate (1:1); phases: Liquid, Gas
Fixed: Pressure, kPa = 100
Property: Boiling temperature at pressure P, K (Liquid); method: Ebulliometric method (Recirculating still)
Mole fraction of 3-butyl-1-ethyl-1H-imidazolium trifluoromethanesulfonate (1:1)	Solvent: Mole fraction of propan-1-ol	Boiling temperature at pressure P, K	uncertainty
0.0425	0.191	363.21	0.23
0.0429	0.33	362.19	0.23
0.0522	0.142	364.35	0.24
0.0523	0.281	362.5	0.23
0.0524	0.087	366.07	0.25
0.0526	0.034	369.44	0.27
0.0531	0.443	362.11	0.23
0.0532	0.01	371.99	0.33
0.0534	0.512	362.26	0.23
0.0536	0.577	362.53	0.23
0.0537	0	373.5	0.24
0.0542	0.64	363.03	0.23
0.0553	0.773	364.67	0.23
0.0556	0.704	363.62	0.23
0.0561	0.841	366.04	0.23
0.0565	1	371.15	0.22
0.0567	0.894	367.49	0.23
0.0569	0.937	368.76	0.24
0.1816	0.383	366.88	0.23
0.1823	0.468	366.98	0.23
0.1824	0.316	367.09	0.23
0.1825	0.746	368.94	0.23
0.1827	0.678	368.18	0.23
0.1828	0.613	367.5	0.23
0.1831	0.544	367.18	0.24
0.1835	0.192	368.93	0.24
0.1837	0.252	367.86	0.24
0.1854	0.822	370.08	0.23
0.1856	1	374.1	0.23
0.1861	0.046	373.35	0.26
0.1865	0.878	371.23	0.24
0.1865	0.926	372.4	0.23
0.1873	0.137	370.32	0.24
0.191	0.088	371.79	0.25
0.1912	0.022	374.56	0.24
0.1983	0	375.92	0.23
0.2903	0.757	374.06	0.24
0.2934	0.82	375.16	0.24
0.2937	0.928	376.57	0.24
0.2941	0.693	373.4	0.24
0.2956	0.885	376.08	0.24
0.2958	1	378.21	0.23
0.2977	0.622	373.15	0.24
0.2991	0.382	372.27	0.24
0.3012	0.537	373.13	0.24
0.3014	0.459	372.57	0.24
0.3016	0.315	372.88	0.24
0.3034	0.25	373.89	0.24
0.3086	0.188	375.58	0.25
0.3166	0.131	377.05	0.25
0.321	0.077	378.49	0.24
0.3223	0.016	380.47	0.26
0.3239	0.038	379.43	0.26
0.3446	0	382.28	0.25

System: propan-1-ol + water + 3-butyl-1-ethyl-1H-imidazolium trifluoromethanesulfonate (1:1); phases: Gas, Liquid
Fixed: Pressure, kPa = 100
Property: Mole fraction of propan-1-ol (Gas); method: Phase equilibration
Mole fraction of 3-butyl-1-ethyl-1H-imidazolium trifluoromethanesulfonate (1:1)	Solvent: Mole fraction of propan-1-ol	Mole fraction of propan-1-ol	uncertainty
0.0425	0.191	0.353	0.02
0.0429	0.33	0.41	0.02
0.0522	0.142	0.317	0.02
0.0523	0.281	0.38	0.02
0.0524	0.087	0.258	0.02
0.0526	0.034	0.147	0.021
0.0531	0.443	0.441	0.02
0.0532	0.01	0.055	0.022
0.0534	0.512	0.473	0.02
0.0536	0.577	0.507	0.02
0.0537	0	0	
0.0542	0.64	0.543	0.02
0.0553	0.773	0.65	0.02
0.0556	0.704	0.587	0.02
0.0561	0.841	0.735	0.02
0.0565	1	1	
0.0567	0.894	0.796	0.02
0.0569	0.937	0.871	0.02
0.1816	0.383	0.412	0.02
0.1823	0.468	0.468	0.02
0.1824	0.316	0.369	0.02
0.1825	0.746	0.68	0.02
0.1827	0.678	0.619	0.02
0.1828	0.613	0.563	0.02
0.1831	0.544	0.519	0.02
0.1835	0.192	0.28	0.02
0.1837	0.252	0.329	0.02
0.1854	0.822	0.749	0.02
0.1856	1	1	
0.1861	0.046	0.095	0.02
0.1865	0.878	0.815	0.02
0.1865	0.926	0.887	0.02
0.1873	0.137	0.226	0.02
0.191	0.088	0.168	0.02
0.1912	0.022	0.051	0.02
0.1983	0	0	
0.2903	0.757	0.715	0.02
0.2934	0.82	0.784	0.02
0.2937	0.928	0.901	0.02
0.2941	0.693	0.657	0.02
0.2956	0.885	0.845	0.02
0.2958	1	1	
0.2977	0.622	0.592	0.02
0.2991	0.382	0.413	0.02
0.3012	0.537	0.528	0.02
0.3014	0.459	0.469	0.02
0.3016	0.315	0.358	0.02
0.3034	0.25	0.303	0.02
0.3086	0.188	0.242	0.02
0.3166	0.131	0.184	0.02
0.321	0.077	0.115	0.02
0.3223	0.016	0.027	0.02
0.3239	0.038	0.061	0.02
0.3446	0	0	

System: propan-1-ol + water + 1-butyl-1-methylpyrrolidinium trifluoromethanesulfonate; phases: Liquid, Gas
Fixed: Pressure, kPa = 100
Property: Boiling temperature at pressure P, K (Liquid); method: Ebulliometric method (Recirculating still)
Mole fraction of 1-butyl-1-methylpyrrolidinium trifluoromethanesulfonate	Solvent: Mole fraction of propan-1-ol	Boiling temperature at pressure P, K	uncertainty
0.0527	0.281	362.39	0.23
0.0528	0.141	364	0.24
0.0529	0.086	365.74	0.25
0.0529	0.212	362.97	0.23
0.0531	0.032	369.2	0.28
0.0533	0.372	362.07	0.23
0.0534	0.452	362.02	0.23
0.0535	0.773	364.66	0.23
0.0536	0.525	362.11	0.23
0.0537	0.59	362.56	0.23
0.0537	0.707	363.63	0.23
0.0538	0.01	372.03	0.36
0.0538	0.652	363.05	0.23
0.0546	0	373.73	0.24
0.0553	0.848	366.1	0.23
0.056	0.898	367.43	0.23
0.0565	1	371.13	0.22
0.0567	0.937	368.7	0.24
0.1863	0.319	367.14	0.23
0.1871	0.258	367.61	0.24
0.1875	0.753	368.69	0.23
0.1877	0.688	367.98	0.23
0.188	0.391	366.9	0.23
0.1881	0.481	366.83	0.23
0.1882	0.625	367.52	0.23
0.1884	0.558	367.17	0.23
0.1896	0.136	370.18	0.24
0.1898	0.084	371.79	0.25
0.19	1	373.44	0.22
0.1903	0.195	368.76	0.24
0.1903	0.926	372.01	0.23
0.191	0.045	373.53	0.26
0.1913	0.881	370.92	0.23
0.1918	0.827	369.94	0.23
0.1941	0.022	374.99	0.24
0.1963	0	376.39	0.22
0.2953	0.768	373.6	0.24
0.2958	1	376.97	0.23
0.2965	0.832	374.52	0.24
0.2965	0.936	376.11	0.23
0.2986	0.895	375.41	0.24
0.2988	0.704	373.02	0.24
0.3014	0.626	372.59	0.24
0.3026	0.542	372.47	0.24
0.3066	0.461	372.44	0.24
0.3072	0.387	372.01	0.24
0.3096	0.312	372.85	0.24
0.3131	0.18	375.37	0.24
0.3133	0.246	374.16	0.24
0.3145	0.07	378.42	0.25
0.3175	0.123	376.71	0.25
0.3196	0.035	379.9	0.25
0.3274	0.015	381.09	0.29
0.3402	0	382.74	0.3

System: propan-1-ol + water + 1-butyl-1-methylpyrrolidinium trifluoromethanesulfonate; phases: Gas, Liquid
Fixed: Pressure, kPa = 100
Property: Mole fraction of propan-1-ol (Gas); method: Phase equilibration
Mole fraction of 1-butyl-1-methylpyrrolidinium trifluoromethanesulfonate	Solvent: Mole fraction of propan-1-ol	Mole fraction of propan-1-ol	uncertainty
0.0527	0.281	0.391	0.02
0.0528	0.141	0.329	0.02
0.0529	0.086	0.267	0.02
0.0529	0.212	0.363	0.02
0.0531	0.032	0.165	0.021
0.0533	0.372	0.422	0.02
0.0534	0.452	0.453	0.02
0.0535	0.773	0.658	0.02
0.0536	0.525	0.482	0.02
0.0537	0.59	0.518	0.02
0.0537	0.707	0.597	0.02
0.0538	0.01	0.061	0.022
0.0538	0.652	0.556	0.02
0.0546	0	0	
0.0553	0.848	0.746	0.02
0.056	0.898	0.81	0.02
0.0565	1	1	
0.0567	0.937	0.87	0.02
0.1863	0.319	0.4	0.02
0.1871	0.258	0.358	0.02
0.1875	0.753	0.692	0.02
0.1877	0.688	0.642	0.02
0.188	0.391	0.442	0.02
0.1881	0.481	0.495	0.02
0.1882	0.625	0.592	0.02
0.1884	0.558	0.547	0.02
0.1896	0.136	0.247	0.02
0.1898	0.084	0.185	0.02
0.19	1	1	
0.1903	0.195	0.307	0.02
0.1903	0.926	0.873	0.02
0.191	0.045	0.108	0.02
0.1913	0.881	0.817	0.02
0.1918	0.827	0.76	0.02
0.1941	0.022	0.057	0.02
0.1963	0	0	
0.2953	0.768	0.734	0.02
0.2958	1	1	
0.2965	0.832	0.796	0.02
0.2965	0.936	0.914	0.02
0.2986	0.895	0.863	0.02
0.2988	0.704	0.679	0.02
0.3014	0.626	0.62	0.02
0.3026	0.542	0.554	0.02
0.3066	0.461	0.497	0.02
0.3072	0.387	0.444	0.02
0.3096	0.312	0.39	0.02
0.3131	0.18	0.27	0.02
0.3133	0.246	0.333	0.02
0.3145	0.07	0.124	0.02
0.3175	0.123	0.202	0.02
0.3196	0.035	0.066	0.02
0.3274	0.015	0.03	0.02
0.3402	0	0	
