Measured thermophysical data. Compressed Liquid Viscosity of 1,1,1,3,3-Pentafluoropropane (R245fa) and 1,1,1,3,3,3-Hexafluoropropane (R236fa)
Source: J. Chem. Eng. Data, 2011, 10.1021/je200854k
Compound 1: 1,1,1,2-tetrafluoroethane, C2H2F4, InChI=1S/C2H2F4/c3-1-2(4,5)6/h1H2, purity 99.9%
Compound 2: 1,1,1,3,3-pentafluoropropane, C3H3F5, InChI=1S/C3H3F5/c4-2(5)1-3(6,7)8/h2H,1H2, purity 99.9%
Compound 3: 1,1,1,3,3,3-hexafluoropropane, C3H2F6, InChI=1S/C3H2F6/c4-2(5,6)1-3(7,8)9/h1H2, purity 99.7%
Compound 4: toluene, C7H8, InChI=1S/C7H8/c1-7-5-3-2-4-6-7/h2-6H,1H3, purity 99.5%

System: 1,1,1,2-tetrafluoroethane; phases: Liquid
Property: Viscosity, Pa*s (Liquid); method: Capillary tube (Ostwald; Ubbelohde) method
Temperature, K	Pressure, kPa	Viscosity, Pa*s	uncertainty
258.15	1000	0.0003251	7e-06
258.15	5000	0.0003468	7.4e-06
258.15	10000	0.0003675	7.8e-06
258.15	15000	0.0003885	8.3e-06
258.15	20000	0.0004094	8.7e-06
258.15	25000	0.0004309	9.1e-06
258.15	30000	0.0004502	9.5e-06
258.15	35000	0.0004712	1e-05
258.15	40000	0.0004996	1.06e-05
278.14	1000	0.0002536	5.5e-06
278.14	5000	0.0002678	5.8e-06
278.14	10000	0.0002859	6.2e-06
278.14	15000	0.0003033	6.5e-06
278.14	20000	0.0003209	6.9e-06
278.14	25000	0.0003381	7.2e-06
278.14	30000	0.0003543	7.6e-06
278.14	35000	0.0003712	7.9e-06
278.14	40000	0.0003885	8.4e-06
298.14	1000	0.0001962	4.3e-06
298.14	5000	0.0002108	4.7e-06
298.14	10000	0.0002273	5e-06
298.14	15000	0.0002421	5.3e-06
298.14	20000	0.0002567	5.6e-06
298.14	25000	0.0002716	5.9e-06
298.14	30000	0.0002876	6.2e-06
298.14	35000	0.0003017	6.5e-06
298.14	40000	0.0003169	6.8e-06
318.13	2000	0.0001549	3.5e-06
318.13	5000	0.0001656	3.8e-06
318.13	10000	0.0001828	4.1e-06
318.13	15000	0.000197	4.3e-06
318.13	20000	0.0002111	4.6e-06
318.13	25000	0.0002254	4.9e-06
318.13	30000	0.0002393	5.2e-06
318.13	35000	0.0002511	5.4e-06
318.13	40000	0.0002647	5.7e-06
338.13	2000	0.0001152	2.9e-06
338.13	5000	0.0001288	3.1e-06
338.13	10000	0.0001466	3.4e-06
338.13	15000	0.0001618	3.6e-06
338.13	20000	0.0001754	3.9e-06
338.13	25000	0.0001893	4.2e-06
338.13	30000	0.0002007	4.4e-06

System: 1,1,1,3,3-pentafluoropropane; phases: Liquid
Property: Viscosity, Pa*s (Liquid); method: Capillary tube (Ostwald; Ubbelohde) method
Temperature, K	Pressure, kPa	Viscosity, Pa*s	uncertainty
263.15	1000	0.000679	1.43e-05
263.15	5000	0.0007113	1.5e-05
263.15	10000	0.0007526	1.58e-05
263.15	15000	0.0007951	1.67e-05
263.15	20000	0.0008369	1.76e-05
263.15	25000	0.0008778	1.84e-05
263.15	30000	0.0009236	1.94e-05
263.15	35000	0.0009686	2.03e-05
263.15	40000	0.0010153	2.12e-05
273.14	1000	0.0005811	1.22e-05
273.14	5000	0.0006083	1.29e-05
273.14	10000	0.0006456	1.36e-05
273.14	15000	0.0006801	1.43e-05
273.14	20000	0.000717	1.51e-05
273.14	25000	0.0007534	1.58e-05
273.14	30000	0.0007902	1.66e-05
273.14	35000	0.0008293	1.74e-05
273.14	40000	0.0008685	1.83e-05
283.14	1000	0.0004999	1.06e-05
283.14	5000	0.0005252	1.11e-05
283.14	10000	0.0005564	1.18e-05
283.14	15000	0.0005887	1.24e-05
283.14	20000	0.0006204	1.31e-05
283.14	25000	0.0006519	1.37e-05
283.14	30000	0.0006847	1.44e-05
283.14	35000	0.0007184	1.51e-05
283.14	40000	0.0007497	1.58e-05
293.14	1000	0.0004344	9.2e-06
293.14	5000	0.0004571	9.7e-06
293.14	10000	0.0004859	1.03e-05
293.14	15000	0.0005143	1.09e-05
293.14	20000	0.0005433	1.15e-05
293.14	25000	0.0005704	1.2e-05
293.14	30000	0.0005998	1.26e-05
293.14	35000	0.0006291	1.32e-05
293.14	40000	0.0006589	1.39e-05
303.14	1000	0.0003799	8.1e-06
303.14	5000	0.0004011	8.6e-06
303.14	10000	0.0004282	9.1e-06
303.14	15000	0.0004534	9.6e-06
303.14	20000	0.0004796	1.02e-05
303.14	25000	0.0005048	1.07e-05
303.14	30000	0.0005306	1.12e-05
303.14	35000	0.0005573	1.18e-05
303.14	40000	0.0005829	1.23e-05
313.14	1000	0.0003343	7.2e-06
313.14	5000	0.0003538	7.6e-06
313.14	10000	0.000379	8.1e-06
313.14	15000	0.0004035	8.6e-06
313.14	20000	0.000427	9.1e-06
313.14	25000	0.0004502	9.6e-06
313.14	30000	0.0004745	1e-05
313.14	35000	0.0004975	1.05e-05
313.14	40000	0.0005211	1.1e-05
323.13	1000	0.0002952	6.4e-06
323.13	5000	0.0003139	6.8e-06
323.13	10000	0.0003372	7.2e-06
323.13	15000	0.0003595	7.7e-06
323.13	20000	0.0003816	8.1e-06
323.13	25000	0.0004029	8.6e-06
323.13	30000	0.000425	9e-06
323.13	35000	0.0004464	9.5e-06
323.13	40000	0.0004694	1e-05
333.13	1000	0.0002601	5.7e-06
333.13	5000	0.0002788	6.1e-06
333.13	10000	0.0003009	6.5e-06
333.13	15000	0.0003232	7e-06
333.13	20000	0.0003433	7.4e-06
333.13	25000	0.0003637	7.8e-06
333.13	30000	0.0003837	8.2e-06
333.13	35000	0.0004048	8.6e-06
333.13	40000	0.0004241	9e-06
343.13	1000	0.0002301	5.1e-06
343.13	5000	0.0002484	5.5e-06
343.13	10000	0.0002698	5.9e-06
343.13	15000	0.00029	6.3e-06
343.13	20000	0.00031	6.7e-06
343.13	25000	0.0003304	7.1e-06
343.13	30000	0.0003488	7.5e-06
343.13	35000	0.0003686	7.9e-06
343.13	40000	0.0003872	8.2e-06
353.13	1000	0.0002053	4.6e-06
353.13	5000	0.0002226	4.9e-06
353.13	10000	0.0002428	5.3e-06
353.13	15000	0.0002627	5.7e-06
353.13	20000	0.0002819	6.1e-06
353.13	25000	0.0002999	6.5e-06
353.13	30000	0.0003186	6.8e-06
353.13	35000	0.0003361	7.2e-06
353.13	40000	0.0003537	7.6e-06
363.14	2000	0.0001838	4.2e-06
363.14	5000	0.0001972	4.4e-06
363.14	10000	0.000219	4.9e-06
363.14	15000	0.0002389	5.2e-06
363.14	20000	0.0002561	5.6e-06
363.14	25000	0.0002746	5.9e-06
363.14	30000	0.0002918	6.3e-06
363.14	35000	0.0003084	6.6e-06
363.14	40000	0.000325	7e-06
373.14	2000	0.0001612	3.8e-06
373.14	5000	0.0001758	4e-06
373.14	10000	0.0001977	4.4e-06
373.14	15000	0.0002165	4.8e-06
373.14	20000	0.0002346	5.1e-06
373.14	25000	0.0002518	5.5e-06
373.14	30000	0.0002679	5.8e-06
373.14	35000	0.0002839	6.1e-06

System: 1,1,1,3,3,3-hexafluoropropane; phases: Liquid
Property: Viscosity, Pa*s (Liquid); method: Capillary tube (Ostwald; Ubbelohde) method
Temperature, K	Pressure, kPa	Viscosity, Pa*s	uncertainty
253.15	1000	0.0005347	1.14e-05
253.15	5000	0.0005621	1.19e-05
253.15	10000	0.0005982	1.27e-05
253.15	15000	0.0006363	1.35e-05
253.15	20000	0.000671	1.42e-05
253.15	25000	0.0007092	1.5e-05
253.15	30000	0.000751	1.58e-05
253.15	35000	0.0007898	1.66e-05
253.15	40000	0.0008347	1.76e-05
263.16	1000	0.0004612	9.8e-06
263.16	5000	0.0004857	1.04e-05
263.16	10000	0.0005184	1.1e-05
263.16	15000	0.0005511	1.17e-05
263.16	20000	0.000583	1.23e-05
263.16	25000	0.0006154	1.3e-05
263.16	30000	0.0006508	1.37e-05
263.16	35000	0.0006835	1.44e-05
263.16	40000	0.0007189	1.52e-05
273.14	1000	0.0003999	8.6e-06
273.14	5000	0.0004237	9.1e-06
273.14	10000	0.000452	9.7e-06
273.14	15000	0.0004821	1.03e-05
273.14	20000	0.0005127	1.09e-05
273.14	25000	0.0005412	1.15e-05
273.14	30000	0.0005699	1.21e-05
273.14	35000	0.0006012	1.27e-05
273.14	40000	0.0006317	1.34e-05
283.14	1000	0.00035	7.5e-06
283.14	5000	0.0003722	8e-06
283.14	10000	0.0003989	8.6e-06
283.14	15000	0.0004259	9.1e-06
283.14	20000	0.0004534	9.7e-06
283.14	25000	0.0004798	1.02e-05
283.14	30000	0.0005054	1.07e-05
283.14	35000	0.0005325	1.13e-05
283.14	40000	0.0005603	1.19e-05
293.14	1000	0.0003074	6.7e-06
293.14	5000	0.0003281	7.1e-06
293.14	10000	0.0003534	7.6e-06
293.14	15000	0.0003789	8.1e-06
293.14	20000	0.0004034	8.6e-06
293.14	25000	0.0004271	9.1e-06
293.14	30000	0.000452	9.6e-06
293.14	35000	0.0004757	1.01e-05
293.14	40000	0.0005014	1.07e-05
303.14	1000	0.0002708	5.9e-06
303.14	5000	0.0002906	6.3e-06
303.14	10000	0.0003141	6.8e-06
303.14	15000	0.0003383	7.3e-06
303.14	20000	0.000362	7.8e-06
303.14	25000	0.0003838	8.2e-06
303.14	30000	0.0004053	8.6e-06
303.14	35000	0.000429	9.1e-06
303.14	40000	0.0004513	9.6e-06
313.14	1000	0.0002385	5.3e-06
313.14	5000	0.0002585	5.7e-06
313.14	10000	0.0002817	6.1e-06
313.14	15000	0.0003041	6.6e-06
313.14	20000	0.0003268	7e-06
313.14	25000	0.0003467	7.4e-06
313.14	30000	0.0003678	7.9e-06
313.14	35000	0.0003897	8.3e-06
313.14	40000	0.00041	8.7e-06
323.13	1000	0.00021	4.7e-06
323.13	5000	0.0002306	5.1e-06
323.13	10000	0.000253	5.6e-06
323.13	15000	0.0002742	6e-06
323.13	20000	0.000295	6.4e-06
323.13	25000	0.0003155	6.8e-06
323.13	30000	0.0003353	7.2e-06
323.13	35000	0.0003544	7.6e-06
323.13	40000	0.0003744	8e-06
333.13	1000	0.0001844	4.2e-06
333.13	5000	0.0002046	4.6e-06
333.13	10000	0.0002274	5e-06
333.13	15000	0.0002481	5.4e-06
333.13	20000	0.0002683	5.8e-06
333.13	25000	0.0002868	6.2e-06
333.13	30000	0.0003059	6.6e-06
333.13	35000	0.0003248	7e-06
333.13	40000	0.0003434	7.4e-06
343.13	2000	0.0001669	3.9e-06
343.13	5000	0.0001825	4.2e-06
343.13	10000	0.0002044	4.6e-06
343.13	15000	0.0002255	5e-06
343.13	20000	0.0002447	5.4e-06
343.13	25000	0.0002631	5.7e-06
343.13	30000	0.0002805	6.1e-06
343.13	35000	0.0002994	6.5e-06
343.13	40000	0.0003154	6.8e-06
353.13	2000	0.0001456	3.5e-06
353.13	5000	0.0001618	3.8e-06
353.13	10000	0.0001858	4.2e-06
353.13	15000	0.0002064	4.6e-06
353.13	20000	0.0002239	4.9e-06
353.13	25000	0.0002427	5.3e-06
353.13	30000	0.0002591	5.6e-06
353.13	35000	0.0002761	6e-06
353.13	40000	0.0002925	6.3e-06
363.14	2000	0.0001248	3.2e-06
363.14	5000	0.0001432	3.5e-06
363.14	10000	0.0001663	3.8e-06
363.14	15000	0.0001863	4.2e-06
363.14	20000	0.0002051	4.6e-06
363.14	25000	0.0002226	4.9e-06
363.14	30000	0.0002395	5.2e-06
363.14	35000	0.0002555	5.6e-06
363.14	40000	0.0002713	5.9e-06
373.14	2000	0.0001074	3.1e-06
373.14	5000	0.0001287	3.3e-06
373.14	10000	0.0001531	3.6e-06
373.14	15000	0.0001718	3.9e-06
373.14	20000	0.0001886	4.2e-06
373.14	25000	0.0002056	4.6e-06
373.14	30000	0.0002222	4.9e-06
373.14	35000	0.0002366	5.2e-06
373.14	40000	0.0002495	5.4e-06

System: toluene; phases: Liquid
Property: Viscosity, Pa*s (Liquid); method: Capillary tube (Ostwald; Ubbelohde) method
Temperature, K	Pressure, kPa	Viscosity, Pa*s	uncertainty
248.16	1000	0.0011901	2.5e-05
248.16	10000	0.0012846	2.7e-05
248.16	20000	0.0013969	2.93e-05
248.16	30000	0.0015211	3.19e-05
273.15	1000	0.0007764	1.63e-05
273.15	10000	0.0008352	1.76e-05
273.15	20000	0.0009052	1.91e-05
273.15	30000	0.0009742	2.05e-05
273.15	40000	0.0010453	2.19e-05
298.14	1000	0.0005581	1.18e-05
298.14	10000	0.0006005	1.27e-05
298.14	20000	0.000644	1.36e-05
298.14	30000	0.0006909	1.46e-05
298.14	40000	0.0007419	1.58e-05
323.13	1000	0.0004252	9e-06
323.13	10000	0.0004563	9.7e-06
323.13	20000	0.0004908	1.04e-05
323.13	30000	0.0005267	1.12e-05
323.13	40000	0.0005662	1.2e-05
348.13	1000	0.0003356	7.2e-06
348.13	10000	0.0003616	7.7e-06
348.13	20000	0.0003907	8.3e-06
348.13	30000	0.0004198	8.9e-06
348.13	40000	0.0004497	9.6e-06
