Measured thermophysical data. Article  Physical and Excess Properties of Eight Binary Mixtures Containing Water and Ionic Liquids
Source: J. Chem. Eng. Data, 2012, 10.1021/je201334p
Compound 1: water, H2O, InChI=1S/H2O/h1H2, purity 99.9%
Compound 2: 1-butyl-3-methylimidazolium trifluoromethanesulfonate, C9H15F3N2O3S, InChI=1S/C8H15N2.CHF3O3S/c1-3-4-5-10-7-6-9(2)8-10;2-1(3,4)8(5,6)7/h6-8H,3-5H2,1-2H3;(H,5,6,7)/q+1;/p-1, purity 99%
Compound 3: 1-butyl-1-methylpyrrolidinium trifluoromethanesulfonate, C10H20F3NO3S, InChI=1S/C9H20N.CHF3O3S/c1-3-4-7-10(2)8-5-6-9-10;2-1(3,4)8(5,6)7/h3-9H2,1-2H3;(H,5,6,7)/q+1;/p-1, purity 99%
Compound 4: 1-butyl-3-methylpyridinium trifluoromethanesulfonate, C11H16F3NO3S, InChI=1S/C10H16N.CHF3O3S/c1-3-4-7-11-8-5-6-10(2)9-11;2-1(3,4)8(5,6)7/h5-6,8-9H,3-4,7H2,1-2H3;(H,5,6,7)/q+1;/p-1, purity 99%
Compound 5: 1-butyl-3-methylimidazolium dicyanamide, C10H15N5, InChI=1S/C8H15N2.C2N3/c1-3-4-5-10-7-6-9(2)8-10;3-1-5-2-4/h6-8H,3-5H2,1-2H3;/q+1;-1, purity 98%
Compound 6: 1-hexyl-3-methylimidazolium dicyanamide, C12H19N5, InChI=1S/C10H19N2.C2N3/c1-3-4-5-6-7-12-9-8-11(2)10-12;3-1-5-2-4/h8-10H,3-7H2,1-2H3;/q+1;-1, purity 97%
Compound 7: 1-butyl-1-methylpyrrolidinium dicyanamide, C11H20N4, InChI=1S/C9H20N.C2N3/c1-3-4-7-10(2)8-5-6-9-10;3-1-5-2-4/h3-9H2,1-2H3;/q+1;-1, purity 98%
Compound 8: 1-methylpyridinium methylsulfate, C7H11NO4S, InChI=1S/C6H8N.CH4O4S/c1-7-5-3-2-4-6-7;1-5-6(2,3)4/h2-6H,1H3;1H3,(H,2,3,4)/q+1;/p-1, purity 99%
Compound 9: 1,2-diethylpyridinium ethylsulfate, C11H19NO4S, InChI=1S/C9H14N.C2H6O4S/c1-3-9-7-5-6-8-10(9)4-2;1-2-6-7(3,4)5/h5-8H,3-4H2,1-2H3;2H2,1H3,(H,3,4,5)/q+1;/p-1, purity 99%

System: 1-butyl-3-methylimidazolium trifluoromethanesulfonate; phases: Liquid
Property: Refractive index (Na D-line) (Liquid); method: Standard Abbe refractometry
Temperature, K	Pressure, kPa	Refractive index (Na D-line)	uncertainty
288.15	101.325	1.44032	0.00053
298.15	101.325	1.43755	0.00053
308.15	101.325	1.43475	0.00053
288.15	101	1.44032	0.00053
298.15	101	1.43755	0.00053
308.15	101	1.43475	0.00053

System: 1-butyl-3-methylimidazolium trifluoromethanesulfonate; phases: Liquid
Fixed: Pressure, kPa = 101
Property: Speed of sound, m/s (Liquid); method: Sing-around technique in a fixed-path interferometer
Temperature, K	Speed of sound, m/s	uncertainty
288.15	1414.3	1.4
298.15	1391.4	1.4
308.15	1369.1	1.4

System: 1-butyl-3-methylimidazolium trifluoromethanesulfonate; phases: Liquid
Fixed: Pressure, kPa = 101
Property: Mass density, kg/m3 (Liquid); method: Vibrating tube method
Temperature, K	Mass density, kg/m3	uncertainty
288.15	1307.5	0.63
298.15	1299.55	0.62
308.15	1291.62	0.61

System: 1-butyl-1-methylpyrrolidinium trifluoromethanesulfonate; phases: Liquid
Fixed: Pressure, kPa = 101.325
Property: Molar heat capacity at constant pressure, J/K/mol (Liquid); method: Small sample (50 mg) DSC
Temperature, K	Molar heat capacity at constant pressure, J/K/mol	uncertainty
288.15	424	8
298.15	435	9
308.15	441	9

System: 1-butyl-1-methylpyrrolidinium trifluoromethanesulfonate; phases: Liquid
Fixed: Pressure, kPa = 101
Property: Speed of sound, m/s (Liquid); method: Sing-around technique in a fixed-path interferometer
Temperature, K	Speed of sound, m/s	uncertainty
288.15	1484.6	1.4
298.15	1460.1	1.4
308.15	1436.7	1.4

System: 1-butyl-1-methylpyrrolidinium trifluoromethanesulfonate; phases: Liquid
Fixed: Pressure, kPa = 101
Property: Mass density, kg/m3 (Liquid); method: Vibrating tube method
Temperature, K	Mass density, kg/m3	uncertainty
288.15	1260.33	0.58
298.15	1252.98	0.57
308.15	1245.78	0.56

System: 1-butyl-1-methylpyrrolidinium trifluoromethanesulfonate; phases: Liquid
Fixed: Pressure, kPa = 101
Property: Refractive index (Na D-line) (Liquid); method: Standard Abbe refractometry
Temperature, K	Refractive index (Na D-line)	uncertainty
288.15	1.43557	0.00052
298.15	1.43289	0.00052
308.15	1.43018	0.00052

System: 1-butyl-3-methylpyridinium trifluoromethanesulfonate; phases: Liquid
Fixed: Pressure, kPa = 101.325
Property: Molar heat capacity at constant pressure, J/K/mol (Liquid); method: Small sample (50 mg) DSC
Temperature, K	Molar heat capacity at constant pressure, J/K/mol	uncertainty
288.15	496	10
298.15	520	10
308.15	535	11

System: 1-butyl-3-methylpyridinium trifluoromethanesulfonate; phases: Liquid
Property: Refractive index (Na D-line) (Liquid); method: Standard Abbe refractometry
Temperature, K	Pressure, kPa	Refractive index (Na D-line)	uncertainty
288.15	101.325	1.46446	0.00053
298.15	101.325	1.46155	0.00053
308.15	101.325	1.45868	0.00053
288.15	101	1.46446	0.00053
298.15	101	1.46155	0.00053
308.15	101	1.45868	0.00053

System: 1-butyl-3-methylpyridinium trifluoromethanesulfonate; phases: Liquid
Fixed: Pressure, kPa = 101
Property: Speed of sound, m/s (Liquid); method: Sing-around technique in a fixed-path interferometer
Temperature, K	Speed of sound, m/s	uncertainty
288.15	1436.1	1.4
298.15	1412.3	1.4
308.15	1389.6	1.4

System: 1-butyl-3-methylpyridinium trifluoromethanesulfonate; phases: Liquid
Fixed: Pressure, kPa = 101
Property: Mass density, kg/m3 (Liquid); method: Vibrating tube method
Temperature, K	Mass density, kg/m3	uncertainty
288.15	1287.07	0.61
298.15	1279.41	0.6
308.15	1271.8	0.59

System: 1-butyl-3-methylimidazolium dicyanamide; phases: Liquid
Fixed: Pressure, kPa = 101.325
Property: Molar heat capacity at constant pressure, J/K/mol (Liquid); method: Small sample (50 mg) DSC
Temperature, K	Molar heat capacity at constant pressure, J/K/mol	uncertainty
288.15	367	7
298.15	376	8
308.15	381	8

System: 1-butyl-3-methylimidazolium dicyanamide; phases: Liquid
Property: Refractive index (Na D-line) (Liquid); method: Standard Abbe refractometry
Temperature, K	Pressure, kPa	Refractive index (Na D-line)	uncertainty
288.15	101.325	1.51213	0.00065
298.15	101.325	1.50893	0.00065
308.15	101.325	1.50578	0.00065
288.15	101	1.51213	0.00065
298.15	101	1.50893	0.00065
308.15	101	1.50578	0.00065

System: 1-butyl-3-methylimidazolium dicyanamide; phases: Liquid
Fixed: Pressure, kPa = 101
Property: Speed of sound, m/s (Liquid); method: Sing-around technique in a fixed-path interferometer
Temperature, K	Speed of sound, m/s	uncertainty
288.15	1764.3	2.3
298.15	1738.1	2.3
308.15	1713.1	2.3

System: 1-butyl-3-methylimidazolium dicyanamide; phases: Liquid
Fixed: Pressure, kPa = 101
Property: Mass density, kg/m3 (Liquid); method: Vibrating tube method
Temperature, K	Mass density, kg/m3	uncertainty
288.15	1066.58	1.26
298.15	1060.17	1.24
308.15	1053.83	1.22

System: 1-hexyl-3-methylimidazolium dicyanamide; phases: Liquid
Fixed: Pressure, kPa = 101.325
Property: Molar heat capacity at constant pressure, J/K/mol (Liquid); method: Small sample (50 mg) DSC
Temperature, K	Molar heat capacity at constant pressure, J/K/mol	uncertainty
288.15	510	10
298.15	534	11
308.15	548	11

System: 1-hexyl-3-methylimidazolium dicyanamide; phases: Liquid
Property: Refractive index (Na D-line) (Liquid); method: Standard Abbe refractometry
Temperature, K	Pressure, kPa	Refractive index (Na D-line)	uncertainty
288.15	101.325	1.50729	0.00079
298.15	101.325	1.50415	0.00079
308.15	101.325	1.501	0.00079
288.15	101	1.50729	0.00079
298.15	101	1.50415	0.00079
308.15	101	1.501	0.00079

System: 1-hexyl-3-methylimidazolium dicyanamide; phases: Liquid
Fixed: Pressure, kPa = 101
Property: Speed of sound, m/s (Liquid); method: Sing-around technique in a fixed-path interferometer
Temperature, K	Speed of sound, m/s	uncertainty
288.15	1713.4	3.2
298.15	1687.7	3.2
308.15	1662.7	3.2

System: 1-hexyl-3-methylimidazolium dicyanamide; phases: Liquid
Fixed: Pressure, kPa = 101
Property: Mass density, kg/m3 (Liquid); method: Vibrating tube method
Temperature, K	Mass density, kg/m3	uncertainty
288.15	1034.76	2.62
298.15	1028.56	2.58
308.15	1022.4	2.55

System: 1-butyl-1-methylpyrrolidinium dicyanamide; phases: Liquid
Fixed: Pressure, kPa = 101.325
Property: Molar heat capacity at constant pressure, J/K/mol (Liquid); method: Small sample (50 mg) DSC
Temperature, K	Molar heat capacity at constant pressure, J/K/mol	uncertainty
288.15	473	9
298.15	502	10
308.15	521	10

System: 1-butyl-1-methylpyrrolidinium dicyanamide; phases: Liquid
Property: Refractive index (Na D-line) (Liquid); method: Standard Abbe refractometry
Temperature, K	Pressure, kPa	Refractive index (Na D-line)	uncertainty
288.15	101.325	1.49968	0.00063
298.15	101.325	1.49681	0.00063
308.15	101.325	1.49392	0.00064
288.15	101	1.49968	0.00063
298.15	101	1.49681	0.00063
308.15	101	1.49392	0.00064

System: 1-butyl-1-methylpyrrolidinium dicyanamide; phases: Liquid
Fixed: Pressure, kPa = 101
Property: Speed of sound, m/s (Liquid); method: Sing-around technique in a fixed-path interferometer
Temperature, K	Speed of sound, m/s	uncertainty
288.15	1836.9	2.3
298.15	1811.1	2.3
308.15	1781.9	2.3

System: 1-butyl-1-methylpyrrolidinium dicyanamide; phases: Liquid
Fixed: Pressure, kPa = 101
Property: Mass density, kg/m3 (Liquid); method: Vibrating tube method
Temperature, K	Mass density, kg/m3	uncertainty
288.15	1019.17	1.13
298.15	1013.53	1.12
308.15	1007.93	1.1

System: 1-methylpyridinium methylsulfate; phases: Liquid
Fixed: Pressure, kPa = 101.325
Property: Molar heat capacity at constant pressure, J/K/mol (Liquid); method: Small sample (50 mg) DSC
Temperature, K	Molar heat capacity at constant pressure, J/K/mol	uncertainty
288.15	288	6
298.15	299	6
308.15	305	6

System: 1-methylpyridinium methylsulfate; phases: Liquid
Property: Refractive index (Na D-line) (Liquid); method: Standard Abbe refractometry
Temperature, K	Pressure, kPa	Refractive index (Na D-line)	uncertainty
288.15	101.325	1.51603	0.00052
298.15	101.325	1.5134	0.00052
308.15	101.325	1.51077	0.00052
288.15	101	1.51603	0.00052
298.15	101	1.5134	0.00052
308.15	101	1.51077	0.00052

System: 1-methylpyridinium methylsulfate; phases: Liquid
Fixed: Pressure, kPa = 101
Property: Speed of sound, m/s (Liquid); method: Sing-around technique in a fixed-path interferometer
Temperature, K	Speed of sound, m/s	uncertainty
288.15	1901.1	1.5
298.15	1875.8	1.5
308.15	1852.4	1.5

System: 1-methylpyridinium methylsulfate; phases: Liquid
Fixed: Pressure, kPa = 101
Property: Mass density, kg/m3 (Liquid); method: Vibrating tube method
Temperature, K	Mass density, kg/m3	uncertainty
288.15	1352.86	0.69
298.15	1346.12	0.68
308.15	1339.37	0.67

System: 1,2-diethylpyridinium ethylsulfate; phases: Liquid
Fixed: Pressure, kPa = 101.325
Property: Molar heat capacity at constant pressure, J/K/mol (Liquid); method: Small sample (50 mg) DSC
Temperature, K	Molar heat capacity at constant pressure, J/K/mol	uncertainty
288.15	399	8
298.15	412	8
308.15	420	8

System: 1,2-diethylpyridinium ethylsulfate; phases: Liquid
Property: Refractive index (Na D-line) (Liquid); method: Standard Abbe refractometry
Temperature, K	Pressure, kPa	Refractive index (Na D-line)	uncertainty
288.15	101.325	1.51631	0.00053
298.15	101.325	1.5135	0.00053
308.15	101.325	1.51067	0.00053
288.15	101	1.51631	0.00053
298.15	101	1.5135	0.00053
308.15	101	1.51067	0.00053

System: 1,2-diethylpyridinium ethylsulfate; phases: Liquid
Fixed: Pressure, kPa = 101
Property: Speed of sound, m/s (Liquid); method: Sing-around technique in a fixed-path interferometer
Temperature, K	Speed of sound, m/s	uncertainty
288.15	1774.5	1.5
298.15	1745.2	1.5
308.15	1718.4	1.5

System: 1,2-diethylpyridinium ethylsulfate; phases: Liquid
Fixed: Pressure, kPa = 101
Property: Mass density, kg/m3 (Liquid); method: Vibrating tube method
Temperature, K	Mass density, kg/m3	uncertainty
288.15	1225.93	0.54
298.15	1219.26	0.53
308.15	1212.65	0.52

System: water + 1-butyl-3-methylimidazolium dicyanamide; phases: Liquid
Fixed: Pressure, kPa = 101
Property: Refractive index (Na D-line) (Liquid); method: Standard Abbe refractometry
Temperature, K	Mole fraction of water	Refractive index (Na D-line)	uncertainty
288.15	0	1.51213	0.00065
288.15	0.1088	1.5099	0.00062
288.15	0.1227	1.50953	0.00062
288.15	0.2017	1.50758	0.00059
288.15	0.2943	1.50476	0.00057
288.15	0.3952	1.50075	0.00055
288.15	0.503	1.49536	0.00051
288.15	0.5985	1.48855	0.00049
288.15	0.7032	1.47799	0.00043
288.15	0.805	1.46004	0.00045
288.15	0.9006	1.42867	0.00056
288.15	0.9503	1.39733	0.00096
288.15	1	1.33349	0.00041
298.15	0	1.50893	0.00065
298.15	0.1088	1.50673	0.00063
298.15	0.1227	1.50631	0.00062
298.15	0.2017	1.50443	0.00061
298.15	0.2943	1.50161	0.00059
298.15	0.3952	1.49756	0.00057
298.15	0.503	1.49223	0.00055
298.15	0.5985	1.48541	0.00054
298.15	0.7032	1.47495	0.00053
298.15	0.805	1.45694	0.00052
298.15	0.9006	1.42613	0.00047
298.15	0.9503	1.3952	0.00045
298.15	1	1.33255	0.00042
308.15	0	1.50578	0.00065
308.15	0.1088	1.50348	0.00063
308.15	0.1227	1.50321	0.00062
308.15	0.2017	1.50114	0.00062
308.15	0.2943	1.49821	0.00061
308.15	0.3952	1.49443	0.00059
308.15	0.503	1.48897	0.0006
308.15	0.5985	1.48225	0.00061
308.15	0.7032	1.47147	0.00073
308.15	0.805	1.45386	0.00088
308.15	0.9006	1.42382	0.00096
308.15	0.9503	1.39322	0.00131
308.15	1	1.33131	0.00042

System: water + 1-butyl-3-methylimidazolium dicyanamide; phases: Liquid
Fixed: Pressure, kPa = 101
Property: Speed of sound, m/s (Liquid); method: Sing-around technique in a fixed-path interferometer
Temperature, K	Mole fraction of water	Speed of sound, m/s	uncertainty
288.15	0	1764.3	2.3
288.15	0.1088	1762	2.1
288.15	0.1227	1761.9	2.1
288.15	0.2017	1760.9	2
288.15	0.2943	1759.9	1.8
288.15	0.3952	1758.3	1.7
288.15	0.503	1756.8	1.5
288.15	0.5985	1755.5	1.4
288.15	0.7032	1751.4	1.3
288.15	0.805	1738.5	1.2
288.15	0.9006	1694.1	1.1
288.15	0.9503	1630.6	1.1
288.15	1	1466.6	1
298.15	0	1738.1	2.3
298.15	0.1088	1736.9	2.1
298.15	0.1227	1736.8	2.1
298.15	0.2017	1735.9	2
298.15	0.2943	1735	1.8
298.15	0.3952	1734	1.7
298.15	0.503	1733	1.5
298.15	0.5985	1732.1	1.4
298.15	0.7032	1729.1	1.3
298.15	0.805	1718.6	1.2
298.15	0.9006	1682.2	1.1
298.15	0.9503	1630.5	1
298.15	1	1497.4	1
308.15	0	1713.1	2.3
308.15	0.1088	1712.4	2.1
308.15	0.1227	1712.2	2.1
308.15	0.2017	1711.6	1.9
308.15	0.2943	1710.7	1.8
308.15	0.3952	1710	1.7
308.15	0.503	1709.4	1.5
308.15	0.5985	1709	1.4
308.15	0.7032	1706.9	1.3
308.15	0.805	1698.2	1.2
308.15	0.9006	1668.8	1.1
308.15	0.9503	1627.4	1.1
308.15	1	1522.3	1

System: water + 1-butyl-3-methylimidazolium dicyanamide; phases: Liquid
Fixed: Pressure, kPa = 101
Property: Mass density, kg/m3 (Liquid); method: Vibrating tube method
Temperature, K	Mole fraction of water	Mass density, kg/m3	uncertainty
288.15	0	1066.58	1.26
288.15	0.1088	1065.59	1.02
288.15	0.1227	1065.44	0.99
288.15	0.2017	1064.62	0.84
288.15	0.2943	1063.46	0.68
288.15	0.3952	1061.88	0.52
288.15	0.503	1059.83	0.38
288.15	0.5985	1057.37	0.28
288.15	0.7032	1053.63	0.19
288.15	0.805	1047.26	0.13
288.15	0.9006	1035.92	0.08
288.15	0.9503	1024.07	0.07
288.15	1	999.1	0.04
298.15	0	1060.17	1.24
298.15	0.1088	1059.16	1.01
298.15	0.1227	1059.01	0.98
298.15	0.2017	1058.16	0.83
298.15	0.2943	1056.98	0.67
298.15	0.3952	1055.35	0.51
298.15	0.503	1053.24	0.38
298.15	0.5985	1050.71	0.28
298.15	0.7032	1046.89	0.19
298.15	0.805	1040.5	0.13
298.15	0.9006	1029.6	0.08
298.15	0.9503	1018.75	0.07
298.15	1	997.04	0.05
308.15	0	1053.83	1.22
308.15	0.1088	1052.79	0.99
308.15	0.1227	1052.64	0.96
308.15	0.2017	1051.77	0.81
308.15	0.2943	1050.55	0.66
308.15	0.3952	1048.88	0.51
308.15	0.503	1046.7	0.37
308.15	0.5985	1044.09	0.27
308.15	0.7032	1040.15	0.19
308.15	0.805	1033.69	0.12
308.15	0.9006	1023.11	0.08
308.15	0.9503	1013.06	0.07
308.15	1	994.02	0.05

System: water + 1-butyl-3-methylimidazolium trifluoromethanesulfonate; phases: Liquid
Fixed: Pressure, kPa = 101
Property: Refractive index (Na D-line) (Liquid); method: Standard Abbe refractometry
Temperature, K	Mole fraction of water	Refractive index (Na D-line)	uncertainty
288.15	0	1.44032	0.00053
288.15	0.1348	1.43903	0.00051
288.15	0.2028	1.43815	0.00051
288.15	0.2056	1.4381	0.00051
288.15	0.3083	1.43654	0.00049
288.15	0.4985	1.43224	0.00047
288.15	0.6062	1.42835	0.00047
288.15	0.7015	1.42301	0.00044
288.15	0.8064	1.41332	0.00041
288.15	0.8998	1.39564	0.0004
288.15	0.9309	1.38516	0.00041
288.15	0.9548	1.37365	0.00045
288.15	1	1.33349	0.00041
298.15	0	1.43755	0.00053
298.15	0.1348	1.43626	0.00052
298.15	0.2028	1.43535	0.00051
298.15	0.2056	1.4353	0.00051
298.15	0.3083	1.43373	0.00051
298.15	0.4985	1.4294	0.0005
298.15	0.6062	1.42546	0.0005
298.15	0.7015	1.42021	0.00049
298.15	0.8064	1.41072	0.00048
298.15	0.8998	1.39323	0.00046
298.15	0.9309	1.3829	0.00045
298.15	0.9548	1.37157	0.00045
298.15	1	1.33255	0.00042
308.15	0	1.43475	0.00053
308.15	0.1348	1.43343	0.00052
308.15	0.2028	1.43259	0.00051
308.15	0.2056	1.43253	0.00051
308.15	0.3083	1.4309	0.00053
308.15	0.4985	1.42655	0.00054
308.15	0.6062	1.42268	0.00053
308.15	0.7015	1.41759	0.00056
308.15	0.8064	1.40803	0.0007
308.15	0.8998	1.39103	0.00059
308.15	0.9309	1.38091	0.00052
308.15	0.9548	1.36969	0.0007
308.15	1	1.33131	0.00042

System: water + 1-butyl-3-methylimidazolium trifluoromethanesulfonate; phases: Liquid
Fixed: Pressure, kPa = 101
Property: Speed of sound, m/s (Liquid); method: Sing-around technique in a fixed-path interferometer
Temperature, K	Mole fraction of water	Speed of sound, m/s	uncertainty
288.15	0	1414.3	1.4
288.15	0.1348	1419.7	1.3
288.15	0.2028	1422.9	1.2
288.15	0.2056	1423.2	1.2
288.15	0.3083	1429.3	1.2
288.15	0.4985	1445	1.1
288.15	0.6062	1458	1.1
288.15	0.7015	1473.8	1
288.15	0.8064	1496.3	1
288.15	0.8998	1523.9	1
288.15	0.9309	1533.1	1
288.15	0.9548	1540	1
288.15	1	1466.6	1
298.15	0	1391.4	1.4
298.15	0.1348	1396.7	1.3
298.15	0.2028	1400.2	1.2
298.15	0.2056	1400.9	1.2
298.15	0.3083	1406.7	1.2
298.15	0.4985	1422.8	1.1
298.15	0.6062	1436.4	1.1
298.15	0.7015	1453.1	1
298.15	0.8064	1478.8	1
298.15	0.8998	1513.4	1
298.15	0.9309	1527.6	1
298.15	0.9548	1540.1	1
298.15	1	1497.4	1
308.15	0	1369.1	1.4
308.15	0.1348	1374.8	1.3
308.15	0.2028	1378.1	1.2
308.15	0.2056	1379.4	1.2
308.15	0.3083	1384.6	1.2
308.15	0.4985	1400.9	1.1
308.15	0.6062	1414.8	1
308.15	0.7015	1432	1
308.15	0.8064	1460	1
308.15	0.8998	1500.5	1
308.15	0.9309	1519.2	1
308.15	0.9548	1536.7	1
308.15	1	1522.3	1

System: water + 1-butyl-3-methylimidazolium trifluoromethanesulfonate; phases: Liquid
Fixed: Pressure, kPa = 101
Property: Mass density, kg/m3 (Liquid); method: Vibrating tube method
Temperature, K	Mole fraction of water	Mass density, kg/m3	uncertainty
288.15	0	1307.5	0.63
288.15	0.1348	1303.64	0.53
288.15	0.2028	1301.3	0.48
288.15	0.2056	1301.2	0.48
288.15	0.3083	1296.7	0.41
288.15	0.4985	1284.57	0.31
288.15	0.6062	1273.42	0.27
288.15	0.7015	1258.59	0.23
288.15	0.8064	1231.3	0.2
288.15	0.8998	1180.1	0.16
288.15	0.9309	1149.84	0.15
288.15	0.9548	1116.26	0.15
288.15	1	999.1	0.04
298.15	0	1299.55	0.62
298.15	0.1348	1295.68	0.52
298.15	0.2028	1293.3	0.47
298.15	0.2056	1293.22	0.47
298.15	0.3083	1288.66	0.41
298.15	0.4985	1276.45	0.31
298.15	0.6062	1265.25	0.26
298.15	0.7015	1250.44	0.23
298.15	0.8064	1223.33	0.2
298.15	0.8998	1172.98	0.16
298.15	0.9309	1143.39	0.15
298.15	0.9548	1110.62	0.15
298.15	1	997.04	0.05
308.15	0	1291.62	0.61
308.15	0.1348	1287.74	0.51
308.15	0.2028	1285.33	0.47
308.15	0.2056	1285.23	0.46
308.15	0.3083	1280.65	0.4
308.15	0.4985	1268.32	0.31
308.15	0.6062	1257.08	0.26
308.15	0.7015	1242.22	0.23
308.15	0.8064	1215.23	0.21
308.15	0.8998	1165.56	0.16
308.15	0.9309	1136.56	0.15
308.15	0.9548	1104.51	0.16
308.15	1	994.02	0.05

System: water + 1-butyl-1-methylpyrrolidinium dicyanamide; phases: Liquid
Fixed: Pressure, kPa = 101
Property: Refractive index (Na D-line) (Liquid); method: Standard Abbe refractometry
Temperature, K	Mole fraction of water	Refractive index (Na D-line)	uncertainty
288.15	0	1.49968	0.00063
288.15	0.096	1.49811	0.00061
288.15	0.1277	1.49752	0.00061
288.15	0.2116	1.4957	0.00058
288.15	0.3077	1.49322	0.00056
288.15	0.3942	1.49044	0.00054
288.15	0.4952	1.48621	0.00054
288.15	0.5023	1.4858	0.00054
288.15	0.6047	1.4797	0.00053
288.15	0.6137	1.47901	0.00052
288.15	0.7061	1.47041	0.00051
288.15	0.7177	1.46905	0.00051
288.15	0.7571	1.46368	0.00046
288.15	0.8208	1.45158	0.00046
288.15	0.8468	1.44481	0.00045
288.15	0.9034	1.42419	0.00043
288.15	0.904	1.42386	0.00043
288.15	0.9492	1.39597	0.00047
288.15	0.9507	1.39472	0.00046
288.15	0.9517	1.3939	0.00046
288.15	1	1.33349	0.00041
298.15	0	1.49681	0.00063
298.15	0.096	1.49519	0.00062
298.15	0.1277	1.49459	0.00061
298.15	0.2116	1.49278	0.00059
298.15	0.3077	1.49032	0.00058
298.15	0.3942	1.48751	0.00056
298.15	0.4952	1.48329	0.00055
298.15	0.5023	1.48284	0.00055
298.15	0.6047	1.47674	0.00054
298.15	0.6137	1.4761	0.00053
298.15	0.7061	1.46748	0.00052
298.15	0.7177	1.46612	0.00052
298.15	0.7571	1.46078	0.00052
298.15	0.8208	1.4487	0.0005
298.15	0.8468	1.44172	0.00051
298.15	0.9034	1.42145	0.00048
298.15	0.904	1.42118	0.00048
298.15	0.9492	1.39362	0.00046
298.15	0.9507	1.39249	0.00045
298.15	0.9517	1.39161	0.00045
298.15	1	1.33255	0.00042
308.15	0	1.49392	0.00064
308.15	0.096	1.49222	0.00062
308.15	0.1277	1.49162	0.00061
308.15	0.2116	1.48982	0.0006
308.15	0.3077	1.4871	0.00059
308.15	0.3942	1.48432	0.00059
308.15	0.4952	1.47987	0.00057
308.15	0.5023	1.47973	0.00055
308.15	0.6047	1.47345	0.00055
308.15	0.6137	1.47289	0.00054
308.15	0.7061	1.46424	0.00053
308.15	0.7177	1.46281	0.00054
308.15	0.7571	1.45746	0.00058
308.15	0.8208	1.44577	0.00057
308.15	0.8468	1.43884	0.00056
308.15	0.9034	1.41909	0.00077
308.15	0.904	1.41891	0.00077
308.15	0.9492	1.39175	0.00045
308.15	0.9507	1.39055	0.00045
308.15	0.9517	1.3897	0.00045
308.15	1	1.33131	0.00042

System: water + 1-butyl-1-methylpyrrolidinium dicyanamide; phases: Liquid
Fixed: Pressure, kPa = 101
Property: Speed of sound, m/s (Liquid); method: Sing-around technique in a fixed-path interferometer
Temperature, K	Mole fraction of water	Speed of sound, m/s	uncertainty
288.15	0	1836.9	2.3
288.15	0.096	1836.1	2.1
288.15	0.1277	1835.8	2.1
288.15	0.2116	1835.3	2
288.15	0.3077	1835.6	1.8
288.15	0.3942	1834.9	1.7
288.15	0.4952	1835.1	1.6
288.15	0.5023	1835.2	1.6
288.15	0.6047	1835.9	1.4
288.15	0.6137	1835.7	1.4
288.15	0.7061	1832.9	1.3
288.15	0.7177	1832	1.3
288.15	0.7571	1827.3	1.3
288.15	0.8208	1810.9	1.2
288.15	0.8468	1798.5	1.2
288.15	0.9034	1750.6	1.1
288.15	0.904	1749.8	1.1
288.15	0.9492	1671.5	1.1
288.15	0.9507	1667.9	1.1
288.15	0.9517	1665.4	1.1
288.15	1	1466.6	1
298.15	0	1811.1	2.3
298.15	0.096	1810.6	2.1
298.15	0.1277	1810.4	2.1
298.15	0.2116	1810.1	2
298.15	0.3077	1810	1.8
298.15	0.3942	1810	1.7
298.15	0.4952	1810.8	1.6
298.15	0.5023	1810.9	1.5
298.15	0.6047	1811.8	1.4
298.15	0.6137	1811.8	1.4
298.15	0.7061	1809.6	1.3
298.15	0.7177	1808.9	1.3
298.15	0.7571	1804.9	1.3
298.15	0.8208	1790.5	1.2
298.15	0.8468	1779.7	1.2
298.15	0.9034	1738.3	1.1
298.15	0.904	1737.2	1.1
298.15	0.9492	1670.7	1.1
298.15	0.9507	1667.7	1.1
298.15	0.9517	1665.5	1.1
298.15	1	1497.4	1
308.15	0	1781.9	2.3
308.15	0.096	1782.4	2.1
308.15	0.1277	1783.1	2.1
308.15	0.2116	1783.8	2
308.15	0.3077	1784.2	1.8
308.15	0.3942	1785.7	1.7
308.15	0.4952	1786.7	1.5
308.15	0.5023	1786.7	1.5
308.15	0.6047	1788	1.4
308.15	0.6137	1788	1.4
308.15	0.7061	1786.1	1.3
308.15	0.7177	1785.6	1.3
308.15	0.7571	1782.1	1.3
308.15	0.8208	1769.4	1.2
308.15	0.8468	1756.5	1.2
308.15	0.9034	1724.2	1.1
308.15	0.904	1723.6	1.1
308.15	0.9492	1666.7	1.1
308.15	0.9507	1664.3	1.1
308.15	0.9517	1662.5	1.1
308.15	1	1522.3	1

System: water + 1-butyl-1-methylpyrrolidinium dicyanamide; phases: Liquid
Fixed: Pressure, kPa = 101
Property: Mass density, kg/m3 (Liquid); method: Vibrating tube method
Temperature, K	Mole fraction of water	Mass density, kg/m3	uncertainty
288.15	0	1019.17	1.13
288.15	0.096	1018.92	0.94
288.15	0.1277	1018.84	0.88
288.15	0.2116	1018.6	0.73
288.15	0.3077	1018.31	0.58
288.15	0.3942	1018.08	0.47
288.15	0.4952	1017.78	0.35
288.15	0.5023	1017.76	0.34
288.15	0.6047	1017.45	0.24
288.15	0.6137	1017.41	0.23
288.15	0.7061	1016.91	0.16
288.15	0.7177	1016.81	0.16
288.15	0.7571	1016.39	0.13
288.15	0.8208	1015.22	0.1
288.15	0.8468	1014.46	0.09
288.15	0.9034	1011.96	0.07
288.15	0.904	1011.92	0.07
288.15	0.9492	1008.27	0.06
288.15	0.9507	1008.1	0.06
288.15	0.9517	1007.98	0.06
288.15	1	999.1	0.04
298.15	0	1013.53	1.12
298.15	0.096	1013.25	0.93
298.15	0.1277	1013.16	0.87
298.15	0.2116	1012.89	0.72
298.15	0.3077	1012.56	0.58
298.15	0.3942	1012.27	0.46
298.15	0.4952	1011.89	0.34
298.15	0.5023	1011.86	0.33
298.15	0.6047	1011.42	0.24
298.15	0.6137	1011.37	0.23
298.15	0.7061	1010.72	0.16
298.15	0.7177	1010.61	0.15
298.15	0.7571	1010.13	0.13
298.15	0.8208	1008.91	0.1
298.15	0.8468	1008.19	0.09
298.15	0.9034	1005.98	0.07
298.15	0.904	1005.93	0.07
298.15	0.9492	1003.12	0.06
298.15	0.9507	1002.99	0.06
298.15	0.9517	1002.91	0.06
298.15	1	997.04	0.05
308.15	0	1007.93	1.1
308.15	0.096	1007.63	0.91
308.15	0.1277	1007.52	0.86
308.15	0.2116	1007.23	0.71
308.15	0.3077	1006.85	0.57
308.15	0.3942	1006.5	0.45
308.15	0.4952	1006.03	0.33
308.15	0.5023	1005.99	0.33
308.15	0.6047	1005.42	0.23
308.15	0.6137	1005.35	0.22
308.15	0.7061	1004.54	0.16
308.15	0.7177	1004.4	0.15
308.15	0.7571	1003.86	0.13
308.15	0.8208	1002.57	0.1
308.15	0.8468	1001.84	0.09
308.15	0.9034	999.84	0.07
308.15	0.904	999.81	0.07
308.15	0.9492	997.62	0.06
308.15	0.9507	997.53	0.06
308.15	0.9517	997.47	0.06
308.15	1	994.02	0.05

System: water + 1-butyl-1-methylpyrrolidinium trifluoromethanesulfonate; phases: Liquid
Fixed: Pressure, kPa = 101
Property: Refractive index (Na D-line) (Liquid); method: Standard Abbe refractometry
Temperature, K	Mole fraction of water	Refractive index (Na D-line)	uncertainty
288.15	0	1.43557	0.00052
288.15	0.0559	1.43506	0.00052
288.15	0.1084	1.43458	0.00051
288.15	0.2076	1.43345	0.00051
288.15	0.2997	1.43221	0.0005
288.15	0.408	1.43031	0.00049
288.15	0.5038	1.42809	0.00048
288.15	0.6003	1.42501	0.00047
288.15	0.7052	1.41987	0.00043
288.15	0.8095	1.41085	0.00041
288.15	0.9018	1.39398	0.00045
288.15	0.9533	1.37399	0.00072
288.15	1	1.33349	0.00041
298.15	0	1.43289	0.00052
298.15	0.0559	1.4324	0.00052
298.15	0.1084	1.43187	0.00052
298.15	0.2076	1.43075	0.00051
298.15	0.2997	1.42951	0.0005
298.15	0.408	1.42762	0.0005
298.15	0.5038	1.42536	0.0005
298.15	0.6003	1.42221	0.0005
298.15	0.7052	1.41708	0.00049
298.15	0.8095	1.40814	0.00048
298.15	0.9018	1.39161	0.00046
298.15	0.9533	1.3721	0.00044
298.15	1	1.33255	0.00042
308.15	0	1.43018	0.00052
308.15	0.0559	1.4297	0.00052
308.15	0.1084	1.42918	0.00052
308.15	0.2076	1.42808	0.00051
308.15	0.2997	1.42683	0.00051
308.15	0.408	1.4249	0.00051
308.15	0.5038	1.42262	0.00051
308.15	0.6003	1.41943	0.00053
308.15	0.7052	1.4143	0.00057
308.15	0.8095	1.40557	0.00069
308.15	0.9018	1.38937	0.00076
308.15	0.9533	1.37023	0.00102
308.15	1	1.33131	0.00042

System: water + 1-butyl-1-methylpyrrolidinium trifluoromethanesulfonate; phases: Liquid
Fixed: Pressure, kPa = 101
Property: Speed of sound, m/s (Liquid); method: Sing-around technique in a fixed-path interferometer
Temperature, K	Mole fraction of water	Speed of sound, m/s	uncertainty
288.15	0	1484.6	1.4
288.15	0.0559	1486.9	1.4
288.15	0.1084	1489.1	1.3
288.15	0.2076	1494.5	1.3
288.15	0.2997	1500.7	1.2
288.15	0.408	1509.8	1.2
288.15	0.5038	1520.1	1.1
288.15	0.6003	1533.3	1.1
288.15	0.7052	1552.3	1.1
288.15	0.8095	1576.2	1
288.15	0.9018	1595.4	1
288.15	0.9533	1592.8	1.1
288.15	1	1466.6	1
298.15	0	1460.1	1.4
298.15	0.0559	1462.7	1.4
298.15	0.1084	1464.9	1.3
298.15	0.2076	1470.5	1.3
298.15	0.2997	1476.9	1.2
298.15	0.408	1486.1	1.2
298.15	0.5038	1496.5	1.1
298.15	0.6003	1510	1.1
298.15	0.7052	1529.6	1.1
298.15	0.8095	1555.8	1
298.15	0.9018	1582.1	1
298.15	0.9533	1589.4	1
298.15	1	1497.4	1
308.15	0	1436.7	1.4
308.15	0.0559	1439.7	1.3
308.15	0.1084	1441.5	1.3
308.15	0.2076	1447.2	1.3
308.15	0.2997	1453.6	1.2
308.15	0.408	1462.8	1.2
308.15	0.5038	1473.2	1.1
308.15	0.6003	1486.7	1.1
308.15	0.7052	1506.6	1
308.15	0.8095	1534.6	1
308.15	0.9018	1566.6	1
308.15	0.9533	1582.8	1.1
308.15	1	1522.3	1

System: water + 1-butyl-1-methylpyrrolidinium trifluoromethanesulfonate; phases: Liquid
Fixed: Pressure, kPa = 101
Property: Mass density, kg/m3 (Liquid); method: Vibrating tube method
Temperature, K	Mole fraction of water	Mass density, kg/m3	uncertainty
288.15	0	1260.33	0.58
288.15	0.0559	1259.04	0.54
288.15	0.1084	1257.8	0.5
288.15	0.2076	1255.12	0.43
288.15	0.2997	1252.05	0.38
288.15	0.408	1247.41	0.32
288.15	0.5038	1241.91	0.28
288.15	0.6003	1234.21	0.24
288.15	0.7052	1221.39	0.21
288.15	0.8095	1198.77	0.18
288.15	0.9018	1155.9	0.15
288.15	0.9533	1104.38	0.14
288.15	1	999.1	0.04
298.15	0	1252.98	0.57
298.15	0.0559	1251.78	0.53
298.15	0.1084	1250.57	0.49
298.15	0.2076	1247.82	0.43
298.15	0.2997	1244.68	0.37
298.15	0.408	1239.95	0.32
298.15	0.5038	1234.36	0.28
298.15	0.6003	1226.56	0.24
298.15	0.7052	1213.67	0.21
298.15	0.8095	1191.13	0.18
298.15	0.9018	1148.95	0.14
298.15	0.9533	1098.73	0.12
298.15	1	997.04	0.05
308.15	0	1245.78	0.56
308.15	0.0559	1244.55	0.52
308.15	0.1084	1243.3	0.48
308.15	0.2076	1240.51	0.42
308.15	0.2997	1237.3	0.37
308.15	0.408	1232.47	0.31
308.15	0.5038	1226.79	0.27
308.15	0.6003	1218.89	0.24
308.15	0.7052	1205.88	0.21
308.15	0.8095	1183.37	0.18
308.15	0.9018	1141.73	0.16
308.15	0.9533	1092.63	0.16
308.15	1	994.02	0.05

System: water + 1-butyl-3-methylpyridinium trifluoromethanesulfonate; phases: Liquid
Fixed: Pressure, kPa = 101
Property: Refractive index (Na D-line) (Liquid); method: Standard Abbe refractometry
Temperature, K	Mole fraction of water	Refractive index (Na D-line)	uncertainty
288.15	0	1.46446	0.00053
288.15	0.0794	1.46358	0.00052
288.15	0.1517	1.46266	0.00052
288.15	0.2502	1.46111	0.00051
288.15	0.3515	1.4591	0.0005
288.15	0.4528	1.45651	0.00049
288.15	0.5628	1.45257	0.00047
288.15	0.6561	1.4477	0.00045
288.15	0.7494	1.44008	0.00042
288.15	0.8383	1.42747	0.00043
288.15	0.9201	1.40357	0.00049
288.15	0.9603	1.37998	0.00069
288.15	1	1.33349	0.00041
298.15	0	1.46155	0.00053
298.15	0.0794	1.46073	0.00053
298.15	0.1517	1.45982	0.00052
298.15	0.2502	1.45822	0.00052
298.15	0.3515	1.45623	0.00051
298.15	0.4528	1.45363	0.00051
298.15	0.5628	1.44968	0.00051
298.15	0.6561	1.44482	0.0005
298.15	0.7494	1.43724	0.0005
298.15	0.8383	1.42474	0.00049
298.15	0.9201	1.40118	0.00047
298.15	0.9603	1.37782	0.00046
298.15	1	1.33255	0.00042
308.15	0	1.45868	0.00053
308.15	0.0794	1.45784	0.00053
308.15	0.1517	1.45694	0.00053
308.15	0.2502	1.45535	0.00052
308.15	0.3515	1.45331	0.00053
308.15	0.4528	1.45069	0.00053
308.15	0.5628	1.44673	0.00054
308.15	0.6561	1.44183	0.00056
308.15	0.7494	1.43429	0.00062
308.15	0.8383	1.42192	0.0008
308.15	0.9201	1.39863	0.00085
308.15	0.9603	1.3757	0.00102
308.15	1	1.33131	0.00042

System: water + 1-butyl-3-methylpyridinium trifluoromethanesulfonate; phases: Liquid
Fixed: Pressure, kPa = 101
Property: Speed of sound, m/s (Liquid); method: Sing-around technique in a fixed-path interferometer
Temperature, K	Mole fraction of water	Speed of sound, m/s	uncertainty
288.15	0	1436.1	1.4
288.15	0.0794	1439.2	1.3
288.15	0.1517	1442.3	1.3
288.15	0.2502	1447.7	1.2
288.15	0.3515	1454.3	1.2
288.15	0.4528	1463	1.1
288.15	0.5628	1475.6	1.1
288.15	0.6561	1489.9	1.1
288.15	0.7494	1508.6	1
288.15	0.8383	1530.4	1
288.15	0.9201	1548.9	1
288.15	0.9603	1553.2	1
288.15	1	1466.6	1
298.15	0	1412.3	1.4
298.15	0.0794	1415.5	1.3
298.15	0.1517	1418.7	1.3
298.15	0.2502	1424.3	1.2
298.15	0.3515	1431.2	1.2
298.15	0.4528	1440	1.1
298.15	0.5628	1452.9	1.1
298.15	0.6561	1467.6	1
298.15	0.7494	1487.4	1
298.15	0.8383	1512.5	1
298.15	0.9201	1540.1	1
298.15	0.9603	1553.5	1
298.15	1	1497.4	1
308.15	0	1389.6	1.4
308.15	0.0794	1392.5	1.3
308.15	0.1517	1395.8	1.3
308.15	0.2502	1401.5	1.2
308.15	0.3515	1408.5	1.2
308.15	0.4528	1417.4	1.1
308.15	0.5628	1430.3	1.1
308.15	0.6561	1445.3	1
308.15	0.7494	1465.8	1
308.15	0.8383	1493.4	1
308.15	0.9201	1528.6	1
308.15	0.9603	1550.4	1
308.15	1	1522.3	1

System: water + 1-butyl-3-methylpyridinium trifluoromethanesulfonate; phases: Liquid
Fixed: Pressure, kPa = 101
Property: Mass density, kg/m3 (Liquid); method: Vibrating tube method
Temperature, K	Mole fraction of water	Mass density, kg/m3	uncertainty
288.15	0	1287.07	0.61
288.15	0.0794	1285.23	0.55
288.15	0.1517	1283.28	0.5
288.15	0.2502	1279.99	0.43
288.15	0.3515	1275.76	0.37
288.15	0.4528	1270.21	0.32
288.15	0.5628	1261.9	0.27
288.15	0.6561	1251.55	0.24
288.15	0.7494	1235.48	0.21
288.15	0.8383	1208.29	0.18
288.15	0.9201	1155.76	0.15
288.15	0.9603	1103.57	0.14
288.15	1	999.1	0.04
298.15	0	1279.41	0.6
298.15	0.0794	1277.62	0.54
298.15	0.1517	1275.63	0.49
298.15	0.2502	1272.28	0.43
298.15	0.3515	1268	0.37
298.15	0.4528	1262.4	0.32
298.15	0.5628	1254.01	0.27
298.15	0.6561	1243.59	0.24
298.15	0.7494	1227.52	0.21
298.15	0.8383	1200.56	0.18
298.15	0.9201	1149.07	0.14
298.15	0.9603	1098.18	0.12
298.15	1	997.04	0.05
308.15	0	1271.8	0.59
308.15	0.0794	1269.98	0.53
308.15	0.1517	1267.96	0.48
308.15	0.2502	1264.58	0.42
308.15	0.3515	1260.24	0.36
308.15	0.4528	1254.58	0.31
308.15	0.5628	1246.08	0.27
308.15	0.6561	1235.57	0.23
308.15	0.7494	1219.46	0.21
308.15	0.8383	1192.69	0.19
308.15	0.9201	1142.04	0.16
308.15	0.9603	1092.3	0.16
308.15	1	994.02	0.05

System: water + 1,2-diethylpyridinium ethylsulfate; phases: Liquid
Fixed: Pressure, kPa = 101
Property: Refractive index (Na D-line) (Liquid); method: Standard Abbe refractometry
Temperature, K	Mole fraction of water	Refractive index (Na D-line)	uncertainty
288.15	0	1.51631	0.00053
288.15	0.0987	1.51478	0.00052
288.15	0.1089	1.51458	0.00052
288.15	0.2048	1.51266	0.00051
288.15	0.3037	1.51023	0.0005
288.15	0.3979	1.50723	0.00049
288.15	0.4922	1.50325	0.00047
288.15	0.6018	1.49668	0.00044
288.15	0.7084	1.48656	0.00041
288.15	0.8029	1.47121	0.00048
288.15	0.8984	1.43938	0.00063
288.15	0.9493	1.4043	0.00105
288.15	1	1.33349	0.00041
298.15	0	1.5135	0.00053
298.15	0.0987	1.51196	0.00052
298.15	0.1089	1.51176	0.00052
298.15	0.2048	1.50984	0.00052
298.15	0.3037	1.50743	0.00051
298.15	0.3979	1.5044	0.00051
298.15	0.4922	1.50042	0.0005
298.15	0.6018	1.49381	0.0005
298.15	0.7084	1.48367	0.0005
298.15	0.8029	1.46831	0.00051
298.15	0.8984	1.43661	0.00049
298.15	0.9493	1.40198	0.00046
298.15	1	1.33255	0.00042
308.15	0	1.51067	0.00053
308.15	0.0987	1.50914	0.00052
308.15	0.1089	1.50896	0.00052
308.15	0.2048	1.50705	0.00052
308.15	0.3037	1.50461	0.00052
308.15	0.3979	1.50156	0.00053
308.15	0.4922	1.49759	0.00054
308.15	0.6018	1.49094	0.00058
308.15	0.7084	1.48071	0.00067
308.15	0.8029	1.46515	0.00093
308.15	0.8984	1.43375	0.00108
308.15	0.9493	1.40013	0.00142
308.15	1	1.33131	0.00042

System: water + 1,2-diethylpyridinium ethylsulfate; phases: Liquid
Fixed: Pressure, kPa = 101
Property: Speed of sound, m/s (Liquid); method: Sing-around technique in a fixed-path interferometer
Temperature, K	Mole fraction of water	Speed of sound, m/s	uncertainty
288.15	0	1774.5	1.5
288.15	0.0987	1778.2	1.5
288.15	0.1089	1778.4	1.4
288.15	0.2048	1781.1	1.4
288.15	0.3037	1787.5	1.3
288.15	0.3979	1794.1	1.3
288.15	0.4922	1803.5	1.3
288.15	0.6018	1817.3	1.2
288.15	0.7084	1836.4	1.2
288.15	0.8029	1854.8	1.2
288.15	0.8984	1846.6	1.1
288.15	0.9493	1759.2	1.2
288.15	1	1466.6	1
298.15	0	1745.2	1.5
298.15	0.0987	1749.1	1.4
298.15	0.1089	1749.5	1.4
298.15	0.2048	1753.9	1.4
298.15	0.3037	1760.5	1.3
298.15	0.3979	1767.4	1.3
298.15	0.4922	1776.8	1.3
298.15	0.6018	1790.5	1.2
298.15	0.7084	1809.2	1.2
298.15	0.8029	1827.2	1.2
298.15	0.8984	1821.6	1.2
298.15	0.9493	1746.2	1.1
298.15	1	1497.4	1
308.15	0	1718.4	1.5
308.15	0.0987	1722.4	1.4
308.15	0.1089	1723	1.4
308.15	0.2048	1727.5	1.4
308.15	0.3037	1734.4	1.3
308.15	0.3979	1741.1	1.3
308.15	0.4922	1750.6	1.2
308.15	0.6018	1763.7	1.2
308.15	0.7084	1782.1	1.2
308.15	0.8029	1799.4	1.2
308.15	0.8984	1795.6	1.2
308.15	0.9493	1731.8	1.3
308.15	1	1522.3	1

System: water + 1,2-diethylpyridinium ethylsulfate; phases: Liquid
Fixed: Pressure, kPa = 101
Property: Mass density, kg/m3 (Liquid); method: Vibrating tube method
Temperature, K	Mole fraction of water	Mass density, kg/m3	uncertainty
288.15	0	1225.93	0.54
288.15	0.0987	1224.31	0.47
288.15	0.1089	1224.06	0.46
288.15	0.2048	1222.4	0.41
288.15	0.3037	1219.81	0.35
288.15	0.3979	1216.82	0.31
288.15	0.4922	1212.76	0.27
288.15	0.6018	1205.78	0.22
288.15	0.7084	1194.96	0.19
288.15	0.8029	1177.39	0.17
288.15	0.8984	1138.4	0.14
288.15	0.9493	1092.23	0.12
288.15	1	999.1	0.04
298.15	0	1219.26	0.53
298.15	0.0987	1217.63	0.46
298.15	0.1089	1217.36	0.46
298.15	0.2048	1215.83	0.4
298.15	0.3037	1213.23	0.35
298.15	0.3979	1210.11	0.3
298.15	0.4922	1206.04	0.26
298.15	0.6018	1198.92	0.22
298.15	0.7084	1187.92	0.19
298.15	0.8029	1170.26	0.17
298.15	0.8984	1131.51	0.13
298.15	0.9493	1086.65	0.12
298.15	1	997.04	0.05
308.15	0	1212.65	0.52
308.15	0.0987	1211.14	0.46
308.15	0.1089	1210.87	0.45
308.15	0.2048	1209.22	0.39
308.15	0.3037	1206.65	0.34
308.15	0.3979	1203.43	0.3
308.15	0.4922	1199.29	0.26
308.15	0.6018	1192.05	0.22
308.15	0.7084	1180.85	0.19
308.15	0.8029	1163.05	0.17
308.15	0.8984	1124.48	0.15
308.15	0.9493	1080.72	0.14
308.15	1	994.02	0.05

System: water + 1-hexyl-3-methylimidazolium dicyanamide; phases: Liquid
Fixed: Pressure, kPa = 101
Property: Refractive index (Na D-line) (Liquid); method: Standard Abbe refractometry
Temperature, K	Mole fraction of water	Refractive index (Na D-line)	uncertainty
288.15	0	1.50729	0.00079
288.15	0.0785	1.50599	0.00075
288.15	0.1191	1.50525	0.00073
288.15	0.2124	1.50333	0.00069
288.15	0.3055	1.50096	0.00065
288.15	0.4019	1.49784	0.00061
288.15	0.5096	1.49312	0.00057
288.15	0.6069	1.48721	0.00051
288.15	0.7123	1.47716	0.00046
288.15	0.8067	1.46233	0.00047
288.15	0.9031	1.43179	0.00056
288.15	0.9499	1.40179	0.00102
288.15	1	1.33349	0.00041
298.15	0	1.50415	0.00079
298.15	0.0785	1.50284	0.00075
298.15	0.1191	1.5021	0.00074
298.15	0.2124	1.50016	0.0007
298.15	0.3055	1.4978	0.00066
298.15	0.4019	1.49467	0.00063
298.15	0.5096	1.48997	0.00059
298.15	0.6069	1.48405	0.00057
298.15	0.7123	1.474	0.00055
298.15	0.8067	1.45924	0.00053
298.15	0.9031	1.42902	0.00049
298.15	0.9499	1.39945	0.00048
298.15	1	1.33255	0.00042
308.15	0	1.501	0.00079
308.15	0.0785	1.49962	0.00076
308.15	0.1191	1.49894	0.00074
308.15	0.2124	1.49698	0.00071
308.15	0.3055	1.49462	0.00068
308.15	0.4019	1.49131	0.00065
308.15	0.5096	1.48679	0.00063
308.15	0.6069	1.48083	0.00064
308.15	0.7123	1.47076	0.00069
308.15	0.8067	1.4559	0.00091
308.15	0.9031	1.42645	0.00101
308.15	0.9499	1.39679	0.00141
308.15	1	1.33131	0.00042

System: water + 1-hexyl-3-methylimidazolium dicyanamide; phases: Liquid
Fixed: Pressure, kPa = 101
Property: Speed of sound, m/s (Liquid); method: Sing-around technique in a fixed-path interferometer
Temperature, K	Mole fraction of water	Speed of sound, m/s	uncertainty
288.15	0	1713.4	3.2
288.15	0.0785	1713.4	3
288.15	0.1191	1713.8	2.9
288.15	0.2124	1714.3	2.6
288.15	0.3055	1715	2.4
288.15	0.4019	1715.8	2.1
288.15	0.5096	1717	1.9
288.15	0.6069	1717.9	1.6
288.15	0.7123	1717.1	1.4
288.15	0.8067	1709.4	1.3
288.15	0.9031	1672	1.1
288.15	0.9499	1618.9	1.1
288.15	1	1466.6	1
298.15	0	1687.7	3.2
298.15	0.0785	1688.1	3
298.15	0.1191	1688.3	2.9
298.15	0.2124	1688.9	2.6
298.15	0.3055	1689.7	2.4
298.15	0.4019	1690.6	2.1
298.15	0.5096	1692.1	1.9
298.15	0.6069	1693.4	1.6
298.15	0.7123	1693.2	1.4
298.15	0.8067	1687.6	1.3
298.15	0.9031	1659.1	1.1
298.15	0.9499	1618.6	1
298.15	1	1497.4	1
308.15	0	1662.7	3.2
308.15	0.0785	1663.1	3
308.15	0.1191	1663.3	2.9
308.15	0.2124	1664	2.6
308.15	0.3055	1664.8	2.4
308.15	0.4019	1665.8	2.1
308.15	0.5096	1667.6	1.9
308.15	0.6069	1668.9	1.6
308.15	0.7123	1669.1	1.4
308.15	0.8067	1665.3	1.3
308.15	0.9031	1644.5	1.1
308.15	0.9499	1614.6	1.1
308.15	1	1522.3	1

System: water + 1-hexyl-3-methylimidazolium dicyanamide; phases: Liquid
Fixed: Pressure, kPa = 101
Property: Mass density, kg/m3 (Liquid); method: Vibrating tube method
Temperature, K	Mole fraction of water	Mass density, kg/m3	uncertainty
288.15	0	1034.76	2.62
288.15	0.0785	1034.48	2.23
288.15	0.1191	1034.31	2.05
288.15	0.2124	1033.88	1.65
288.15	0.3055	1033.38	1.3
288.15	0.4019	1032.76	0.99
288.15	0.5096	1031.9	0.69
288.15	0.6069	1030.86	0.48
288.15	0.7123	1029.08	0.29
288.15	0.8067	1026.34	0.17
288.15	0.9031	1020.46	0.09
288.15	0.9499	1014.51	0.06
288.15	1	999.1	0.04
298.15	0	1028.56	2.58
298.15	0.0785	1028.25	2.2
298.15	0.1191	1028.07	2.02
298.15	0.2124	1027.61	1.63
298.15	0.3055	1027.08	1.28
298.15	0.4019	1026.41	0.97
298.15	0.5096	1025.46	0.68
298.15	0.6069	1024.31	0.47
298.15	0.7123	1022.4	0.29
298.15	0.8067	1019.6	0.17
298.15	0.9031	1014.13	0.09
298.15	0.9499	1009.12	0.07
298.15	1	997.04	0.05
308.15	0	1022.4	2.55
308.15	0.0785	1022.07	2.17
308.15	0.1191	1021.88	1.99
308.15	0.2124	1021.38	1.61
308.15	0.3055	1020.81	1.27
308.15	0.4019	1020.08	0.96
308.15	0.5096	1019.04	0.67
308.15	0.6069	1017.78	0.46
308.15	0.7123	1015.71	0.28
308.15	0.8067	1012.81	0.16
308.15	0.9031	1007.62	0.09
308.15	0.9499	1003.34	0.07
308.15	1	994.02	0.05

System: water + 1-methylpyridinium methylsulfate; phases: Liquid
Fixed: Pressure, kPa = 101
Property: Refractive index (Na D-line) (Liquid); method: Standard Abbe refractometry
Temperature, K	Mole fraction of water	Refractive index (Na D-line)	uncertainty
288.15	0	1.51603	0.00052
288.15	0.0574	1.51462	0.00051
288.15	0.073	1.51423	0.00051
288.15	0.1111	1.51315	0.00051
288.15	0.1927	1.51059	0.00049
288.15	0.2941	1.50679	0.00048
288.15	0.4005	1.50177	0.00047
288.15	0.4996	1.49567	0.00045
288.15	0.6077	1.48632	0.00043
288.15	0.7064	1.47388	0.00041
288.15	0.8058	1.45378	0.0005
288.15	0.901	1.41884	0.00053
288.15	0.9497	1.38778	0.0004
288.15	0.9645	1.37506	0.0004
288.15	1	1.33349	0.00041
298.15	0	1.5134	0.00052
298.15	0.0574	1.51199	0.00051
298.15	0.073	1.51159	0.00051
298.15	0.1111	1.51052	0.00051
298.15	0.1927	1.50803	0.0005
298.15	0.2941	1.50426	0.0005
298.15	0.4005	1.49921	0.00049
298.15	0.4996	1.49314	0.00049
298.15	0.6077	1.48384	0.00048
298.15	0.7064	1.47142	0.00048
298.15	0.8058	1.45141	0.00047
298.15	0.901	1.4167	0.00046
298.15	0.9497	1.38593	0.00045
298.15	0.9645	1.37336	0.00044
298.15	1	1.33255	0.00042
308.15	0	1.51077	0.00052
308.15	0.0574	1.50937	0.00052
308.15	0.073	1.50895	0.00051
308.15	0.1111	1.50794	0.00051
308.15	0.1927	1.50539	0.00052
308.15	0.2941	1.5017	0.00052
308.15	0.4005	1.49665	0.00052
308.15	0.4996	1.49057	0.00054
308.15	0.6077	1.48134	0.00057
308.15	0.7064	1.46886	0.00065
308.15	0.8058	1.44897	0.00087
308.15	0.901	1.41447	0.00087
308.15	0.9497	1.38397	0.00053
308.15	0.9645	1.37158	0.00055
308.15	1	1.33131	0.00042

System: water + 1-methylpyridinium methylsulfate; phases: Liquid
Fixed: Pressure, kPa = 101
Property: Speed of sound, m/s (Liquid); method: Sing-around technique in a fixed-path interferometer
Temperature, K	Mole fraction of water	Speed of sound, m/s	uncertainty
288.15	0	1901.1	1.5
288.15	0.0574	1900.5	1.5
288.15	0.073	1901.4	1.5
288.15	0.1111	1901.9	1.5
288.15	0.1927	1903.2	1.4
288.15	0.2941	1906.5	1.4
288.15	0.4005	1909.5	1.3
288.15	0.4996	1912.2	1.3
288.15	0.6077	1913.2	1.3
288.15	0.7064	1906.8	1.2
288.15	0.8058	1878	1.2
288.15	0.901	1782.3	1.1
288.15	0.9497	1670.4	1.1
288.15	0.9645	1622.5	1
288.15	1	1466.6	1
298.15	0	1875.8	1.5
298.15	0.0574	1876	1.5
298.15	0.073	1876.4	1.5
298.15	0.1111	1877.4	1.5
298.15	0.1927	1879.2	1.4
298.15	0.2941	1882.6	1.4
298.15	0.4005	1886.2	1.3
298.15	0.4996	1889.5	1.3
298.15	0.6077	1891	1.3
298.15	0.7064	1885.4	1.2
298.15	0.8058	1859.2	1.2
298.15	0.901	1772.7	1.1
298.15	0.9497	1673.5	1.1
298.15	0.9645	1633.3	1
298.15	1	1497.4	1
308.15	0	1852.4	1.5
308.15	0.0574	1852.3	1.5
308.15	0.073	1852.7	1.5
308.15	0.1111	1853.7	1.5
308.15	0.1927	1855.8	1.4
308.15	0.2941	1859.2	1.4
308.15	0.4005	1863.4	1.3
308.15	0.4996	1867	1.3
308.15	0.6077	1868.9	1.2
308.15	0.7064	1863.4	1.2
308.15	0.8058	1837.7	1.2
308.15	0.901	1760.4	1.2
308.15	0.9497	1673.4	1.1
308.15	0.9645	1637.2	1
308.15	1	1522.3	1

System: water + 1-methylpyridinium methylsulfate; phases: Liquid
Fixed: Pressure, kPa = 101
Property: Mass density, kg/m3 (Liquid); method: Vibrating tube method
Temperature, K	Mole fraction of water	Mass density, kg/m3	uncertainty
288.15	0	1352.86	0.69
288.15	0.0574	1350.36	0.64
288.15	0.073	1349.61	0.62
288.15	0.1111	1347.74	0.59
288.15	0.1927	1343.32	0.53
288.15	0.2941	1336.61	0.46
288.15	0.4005	1327.54	0.39
288.15	0.4996	1316.5	0.34
288.15	0.6077	1299.41	0.29
288.15	0.7064	1276.09	0.25
288.15	0.8058	1237.51	0.22
288.15	0.901	1168.89	0.16
288.15	0.9497	1107.24	0.12
288.15	0.9645	1081.91	0.12
288.15	1	999.1	0.04
298.15	0	1346.12	0.68
298.15	0.0574	1343.61	0.63
298.15	0.073	1342.85	0.61
298.15	0.1111	1340.98	0.58
298.15	0.1927	1336.56	0.52
298.15	0.2941	1329.85	0.45
298.15	0.4005	1320.8	0.39
298.15	0.4996	1309.79	0.34
298.15	0.6077	1292.74	0.29
298.15	0.7064	1269.51	0.25
298.15	0.8058	1231.17	0.22
298.15	0.901	1163.31	0.16
298.15	0.9497	1102.67	0.12
298.15	0.9645	1077.85	0.12
298.15	1	997.04	0.05
308.15	0	1339.37	0.67
308.15	0.0574	1336.86	0.62
308.15	0.073	1336.11	0.61
308.15	0.1111	1334.23	0.58
308.15	0.1927	1329.82	0.51
308.15	0.2941	1323.12	0.45
308.15	0.4005	1314.09	0.38
308.15	0.4996	1303.09	0.33
308.15	0.6077	1286.07	0.28
308.15	0.7064	1262.91	0.25
308.15	0.8058	1224.76	0.22
308.15	0.901	1157.51	0.17
308.15	0.9497	1097.68	0.12
308.15	0.9645	1073.27	0.12
308.15	1	994.02	0.05
