Measured thermophysical data. Solubility of Forms I and II of Clopidogrel Hydrogen Sulfate in Formic  Acid, N-Methylpyrrolidone, and N,N-Dimethylformamide
Source: J. Chem. Eng. Data, 2012, 10.1021/je201128n
Compound 1: formic acid, CH2O2, InChI=1S/CH2O2/c2-1-3/h1H,(H,2,3), purity 99.5%
Compound 2: (S)-(+)-Clopidogrel hydrogen sulfate, C16H18ClNO6S2, InChI=1S/C16H16ClNO2S.H2O4S/c1-20-16(19)15(12-4-2-3-5-13(12)17)18-8-6-14-11(10-18)7-9-21-14;1-5(2,3)4/h2-5,7,9,15H,6,8,10H2,1H3;(H2,1,2,3,4)/t15-;/m0./s1, purity 99%
Compound 3: N-methylpyrrolidone, C5H9NO, InChI=1S/C5H9NO/c1-6-4-2-3-5(6)7/h2-4H2,1H3, purity 99.5%
Compound 4: dimethylformamide, C3H7NO, InChI=1S/C3H7NO/c1-4(2)3-5/h3H,1-2H3, purity 99.5%
Compound 5: propan-2-ol, C3H8O, InChI=1S/C3H8O/c1-3(2)4/h3-4H,1-2H3, purity 99.5%

System: formic acid + (S)-(+)-Clopidogrel hydrogen sulfate; phases: Liquid, Crystal 2
Fixed: Pressure, kPa = 101
Property: Mass ratio of solute to solvent of (S)-(+)-Clopidogrel hydrogen sulfate (Liquid); method: titration method
Temperature, K	Mass ratio of solute to solvent of (S)-(+)-Clopidogrel hydrogen sulfate	uncertainty
283.15	1.811	0.181
298.15	1.971	0.197
308.15	2.12	0.212
323.15	2.271	0.227
353.15	2.635	0.264

System: formic acid + (S)-(+)-Clopidogrel hydrogen sulfate; phases: Liquid, Crystal 1
Fixed: Pressure, kPa = 101
Property: Mass ratio of solute to solvent of (S)-(+)-Clopidogrel hydrogen sulfate (Liquid); method: titration method
Temperature, K	Mass ratio of solute to solvent of (S)-(+)-Clopidogrel hydrogen sulfate	uncertainty
283.15	1.913	0.191
298.15	2.09	0.209
308.15	2.261	0.226
323.15	2.452	0.245
353.15	2.825	0.283

System: N-methylpyrrolidone + (S)-(+)-Clopidogrel hydrogen sulfate; phases: Liquid, Crystal 2
Fixed: Pressure, kPa = 101
Property: Mass ratio of solute to solvent of (S)-(+)-Clopidogrel hydrogen sulfate (Liquid); method: titration method
Temperature, K	Mass ratio of solute to solvent of (S)-(+)-Clopidogrel hydrogen sulfate	uncertainty
283.15	0.766	0.077
298.15	0.93	0.093
308.15	1.088	0.109
323.15	1.2	0.12
353.15	1.615	0.162

System: N-methylpyrrolidone + (S)-(+)-Clopidogrel hydrogen sulfate; phases: Liquid, Crystal 1
Fixed: Pressure, kPa = 101
Property: Mass ratio of solute to solvent of (S)-(+)-Clopidogrel hydrogen sulfate (Liquid); method: titration method
Temperature, K	Mass ratio of solute to solvent of (S)-(+)-Clopidogrel hydrogen sulfate	uncertainty
283.15	1.133	0.113
298.15	1.287	0.129
308.15	1.396	0.14
323.15	1.543	0.154
353.15	1.792	0.179

System: dimethylformamide + (S)-(+)-Clopidogrel hydrogen sulfate; phases: Liquid, Crystal 1
Fixed: Pressure, kPa = 101
Property: Mass ratio of solute to solvent of (S)-(+)-Clopidogrel hydrogen sulfate (Liquid); method: titration method
Temperature, K	Mass ratio of solute to solvent of (S)-(+)-Clopidogrel hydrogen sulfate	uncertainty
283.15	1.417	0.142
298.15	1.55	0.155
308.15	1.65	0.165
323.15	1.833	0.183
353.15	2.075	0.208
308.15	1.651	0.165

System: dimethylformamide + (S)-(+)-Clopidogrel hydrogen sulfate; phases: Liquid, Crystal 2
Fixed: Pressure, kPa = 101
Property: Mass ratio of solute to solvent of (S)-(+)-Clopidogrel hydrogen sulfate (Liquid); method: titration method
Temperature, K	Mass ratio of solute to solvent of (S)-(+)-Clopidogrel hydrogen sulfate	uncertainty
283.15	1.05	0.105
298.15	1.2	0.12
308.15	1.28	0.128
323.15	1.4	0.14
353.15	1.667	0.167
308.15	1.282	0.128

System: propan-2-ol + (S)-(+)-Clopidogrel hydrogen sulfate; phases: Liquid, Crystal 2
Property: Mass ratio of solute to solvent of (S)-(+)-Clopidogrel hydrogen sulfate (Liquid); method: titration method
Pressure, kPa	Temperature, K	Mass ratio of solute to solvent of (S)-(+)-Clopidogrel hydrogen sulfate	uncertainty
101	308.15	0.016	0.002

System: propan-2-ol + (S)-(+)-Clopidogrel hydrogen sulfate; phases: Liquid, Crystal 1
Property: Mass ratio of solute to solvent of (S)-(+)-Clopidogrel hydrogen sulfate (Liquid); method: titration method
Temperature, K	Pressure, kPa	Mass ratio of solute to solvent of (S)-(+)-Clopidogrel hydrogen sulfate	uncertainty
308.15	101	0.015	0.002

System: formic acid + propan-2-ol + (S)-(+)-Clopidogrel hydrogen sulfate; phases: Liquid, Crystal 2
Fixed: Temperature, K = 308.15
Fixed: Pressure, kPa = 101
Property: Mass ratio of solute to solvent of (S)-(+)-Clopidogrel hydrogen sulfate (Liquid); method: titration method
Solvent: Mass fraction of formic acid	Mass ratio of solute to solvent of (S)-(+)-Clopidogrel hydrogen sulfate	uncertainty
0	0.016	0.002
0.25	0.403	0.04
0.5	0.85	0.085
0.75	1.506	0.151
1	2.12	0.212

System: formic acid + propan-2-ol + (S)-(+)-Clopidogrel hydrogen sulfate; phases: Liquid, Crystal 1
Fixed: Pressure, kPa = 101
Fixed: Temperature, K = 308.15
Property: Mass ratio of solute to solvent of (S)-(+)-Clopidogrel hydrogen sulfate (Liquid); method: titration method
Solvent: Mass fraction of formic acid	Mass ratio of solute to solvent of (S)-(+)-Clopidogrel hydrogen sulfate	uncertainty
0	0.015	0.002
0.25	0.515	0.052
0.5	1.147	0.115
0.75	1.689	0.169
1	2.261	0.226

System: propan-2-ol + N-methylpyrrolidone + (S)-(+)-Clopidogrel hydrogen sulfate; phases: Liquid, Crystal 2
Fixed: Temperature, K = 308.15
Fixed: Pressure, kPa = 101
Property: Mass ratio of solute to solvent of (S)-(+)-Clopidogrel hydrogen sulfate (Liquid); method: titration method
Solvent: Mass fraction of N-methylpyrrolidone	Mass ratio of solute to solvent of (S)-(+)-Clopidogrel hydrogen sulfate	uncertainty
0	0.016	0.002
0.25	0.088	0.009
0.5	0.303	0.03
0.75	0.703	0.07
1	1.088	0.109

System: propan-2-ol + N-methylpyrrolidone + (S)-(+)-Clopidogrel hydrogen sulfate; phases: Liquid, Crystal 1
Fixed: Pressure, kPa = 101
Fixed: Temperature, K = 308.15
Property: Mass ratio of solute to solvent of (S)-(+)-Clopidogrel hydrogen sulfate (Liquid); method: titration method
Solvent: Mass fraction of N-methylpyrrolidone	Mass ratio of solute to solvent of (S)-(+)-Clopidogrel hydrogen sulfate	uncertainty
0	0.015	0.002
0.25	0.122	0.012
0.5	0.307	0.031
0.75	0.8	0.08
1	1.396	0.14

System: propan-2-ol + dimethylformamide + (S)-(+)-Clopidogrel hydrogen sulfate; phases: Liquid, Crystal 2
Fixed: Pressure, kPa = 101
Fixed: Temperature, K = 308.15
Property: Mass ratio of solute to solvent of (S)-(+)-Clopidogrel hydrogen sulfate (Liquid); method: titration method
Solvent: Mass fraction of dimethylformamide	Mass ratio of solute to solvent of (S)-(+)-Clopidogrel hydrogen sulfate	uncertainty
0	0.016	0.002
0.25	0.103	0.01
0.5	0.334	0.033
0.75	0.703	0.07
1	1.282	0.128

System: propan-2-ol + dimethylformamide + (S)-(+)-Clopidogrel hydrogen sulfate; phases: Liquid, Crystal 1
Fixed: Pressure, kPa = 101
Fixed: Temperature, K = 308.15
Property: Mass ratio of solute to solvent of (S)-(+)-Clopidogrel hydrogen sulfate (Liquid); method: titration method
Solvent: Mass fraction of dimethylformamide	Mass ratio of solute to solvent of (S)-(+)-Clopidogrel hydrogen sulfate	uncertainty
0	0.015	0.002
0.25	0.153	0.015
0.5	0.472	0.047
0.75	1.043	0.104
1	1.651	0.165
