Measured thermophysical data. Synthesis and Thermophysical Properties of Low Viscosity Amino Acid-Based Ionic Liquids
Source: J. Chem. Eng. Data, 2011, 10.1021/je2002368
Compound 1: 1-ethyl-3-methylimidazolium L-alaninate, C9H17N3O2, InChI=1S/C6H11N2.C3H7NO2/c1-3-8-5-4-7(2)6-8;1-2(4)3(5)6/h4-6H,3H2,1-2H3;2H,4H2,1H3,(H,5,6)/q+1;/p-1/t;2-/m.0/s1
Compound 2: 3-ethyl-1-methyl-1H-imidazolium L-serinate, C9H17N3O3, InChI=1S/C6H11N2.C3H7NO3/c1-3-8-5-4-7(2)6-8;4-2(1-5)3(6)7/h4-6H,3H2,1-2H3;2,5H,1,4H2,(H,6,7)/q+1;/p-1/t;2-/m.0/s1
Compound 3: 1-ethyl-3-methyl-1H-imidazolium L-prolinate, C11H19N3O2, InChI=1S/C6H11N2.C5H9NO2/c1-3-8-5-4-7(2)6-8;7-5(8)4-2-1-3-6-4/h4-6H,3H2,1-2H3;4,6H,1-3H2,(H,7,8)/q+1;/p-1/t;4-/m.0/s1, purity 97%
Compound 4: 1-ethyl-3-methylimidazolium ammonioacetate, C8H15N3O2, InChI=1S/C6H11N2.C2H5NO2/c1-3-8-5-4-7(2)6-8;3-1-2(4)5/h4-6H,3H2,1-2H3;1,3H2,(H,4,5)/q+1;/p-1

System: 1-ethyl-3-methylimidazolium L-alaninate; phases: Liquid
Fixed: Pressure, kPa = 101.325
Property: Viscosity, Pa*s (Liquid); method: Concentric cylinders viscometry
Temperature, K	Viscosity, Pa*s	uncertainty
293.15	0.23536	0.00607
298.15	0.17119	0.00391
303.15	0.1266	0.0026
308.15	0.09387	0.00176
313.15	0.07202	0.00127
318.15	0.05662	0.00097
323.15	0.04513	0.00078
328.15	0.03656	0.00063
333.15	0.0301	0.00052
338.15	0.02502	0.00043
343.15	0.02121	0.00037
348.15	0.01805	0.00031
353.15	0.01551	0.00027

System: 1-ethyl-3-methylimidazolium L-alaninate; phases: Liquid
Fixed: Pressure, kPa = 101.325
Property: Refractive index (Na D-line) (Liquid); method: Standard Abbe refractometry
Temperature, K	Refractive index (Na D-line)	uncertainty
293.15	1.50586	0.00068
298.15	1.5041	0.00068
303.15	1.50246	0.00068
308.15	1.50072	0.00068
313.15	1.49908	0.00068
318.15	1.49735	0.00068
323.15	1.49568	0.00068
328.15	1.49395	0.00068
333.15	1.49228	0.00068

System: 1-ethyl-3-methylimidazolium L-alaninate; phases: Liquid
Fixed: Pressure, kPa = 101.325
Property: Mass density, kg/m3 (Liquid); method: Vibrating tube method
Temperature, K	Mass density, kg/m3	uncertainty
293.15	1139.2	2.5
298.15	1136.1	2.5
303.15	1133	2.5
308.15	1129.8	2.4
313.15	1126.6	2.4
318.15	1123.5	2.4
323.15	1120.3	2.4
328.15	1117.2	2.4
333.15	1114	2.4
338.15	1110.9	2.4
343.15	1107.8	2.3
348.15	1104.7	2.3
353.15	1101.6	2.3

System: 3-ethyl-1-methyl-1H-imidazolium L-serinate; phases: Liquid
Fixed: Pressure, kPa = 101.325
Property: Viscosity, Pa*s (Liquid); method: Concentric cylinders viscometry
Temperature, K	Viscosity, Pa*s	uncertainty
293.15	0.61187	0.02262
298.15	0.41086	0.01322
303.15	0.27982	0.00776
308.15	0.1967	0.00473
313.15	0.14228	0.00305
318.15	0.1058	0.00205
323.15	0.08049	0.00145
328.15	0.06248	0.00108
333.15	0.04931	0.00085
338.15	0.03963	0.00068
343.15	0.03236	0.00056
348.15	0.02682	0.00046
353.15	0.02247	0.00039

System: 3-ethyl-1-methyl-1H-imidazolium L-serinate; phases: Liquid
Fixed: Pressure, kPa = 101.325
Property: Refractive index (Na D-line) (Liquid); method: Standard Abbe refractometry
Temperature, K	Refractive index (Na D-line)	uncertainty
293.15	1.51205	0.00068
298.15	1.51069	0.00068
303.15	1.50932	0.00068
308.15	1.50791	0.00068
313.15	1.50654	0.00068
318.15	1.50511	0.00068
323.15	1.50372	0.00068
328.15	1.50224	0.00068
333.15	1.50083	0.00068

System: 3-ethyl-1-methyl-1H-imidazolium L-serinate; phases: Liquid
Fixed: Pressure, kPa = 101.325
Property: Mass density, kg/m3 (Liquid); method: Vibrating tube method
Temperature, K	Mass density, kg/m3	uncertainty
293.15	1198.3	2.8
298.15	1195.2	2.8
303.15	1191.9	2.7
308.15	1188.6	2.7
313.15	1185.2	2.7
318.15	1182	3
323.15	1178.9	2.7
328.15	1175.8	2.7
333.15	1172.6	2.6
338.15	1169.5	2.6
343.15	1166.3	2.6
348.15	1162.9	2.6
353.15	1159.8	2.6

System: 1-ethyl-3-methyl-1H-imidazolium L-prolinate; phases: Liquid
Fixed: Pressure, kPa = 101.325
Property: Viscosity, Pa*s (Liquid); method: Concentric cylinders viscometry
Temperature, K	Viscosity, Pa*s	uncertainty
293.15	0.62695	0.02337
298.15	0.42612	0.0139
303.15	0.29517	0.00836
308.15	0.2102	0.0052
313.15	0.15357	0.00338
318.15	0.11427	0.00227
323.15	0.08705	0.0016
328.15	0.06761	0.00118
333.15	0.05404	0.00092
338.15	0.04343	0.00075
343.15	0.03547	0.00061
348.15	0.02936	0.00051
353.15	0.0245	0.00042

System: 1-ethyl-3-methyl-1H-imidazolium L-prolinate; phases: Liquid
Fixed: Pressure, kPa = 101.325
Property: Refractive index (Na D-line) (Liquid); method: Standard Abbe refractometry
Temperature, K	Refractive index (Na D-line)	uncertainty
293.15	1.51523	0.00068
298.15	1.51372	0.00068
303.15	1.51229	0.00068
308.15	1.51073	0.00068
313.15	1.50924	0.00068
318.15	1.50774	0.00068
323.15	1.50621	0.00068
328.15	1.50454	0.00068
333.15	1.5031	0.00068

System: 1-ethyl-3-methyl-1H-imidazolium L-prolinate; phases: Liquid
Fixed: Pressure, kPa = 101.325
Property: Mass density, kg/m3 (Liquid); method: Vibrating tube method
Temperature, K	Mass density, kg/m3	uncertainty
293.15	1158.138	2.579
298.15	1155.077	2.564
303.15	1151.998	2.55
308.15	1148.902	2.535
313.15	1145.778	2.521
318.15	1142.642	2.506
323.15	1139.503	2.492
328.15	1136.362	2.478
333.15	1133.225	2.463
338.15	1130.082	2.449
343.15	1126.935	2.434
348.15	1123.785	2.42
353.15	1120.63	2.41

System: 1-ethyl-3-methylimidazolium ammonioacetate; phases: Liquid
Fixed: Pressure, kPa = 101.325
Property: Viscosity, Pa*s (Liquid); method: Concentric cylinders viscometry
Temperature, K	Viscosity, Pa*s	uncertainty
293.15	0.08037	0.00145
298.15	0.06151	0.00106
303.15	0.04775	0.00082
308.15	0.03779	0.00065
313.15	0.03031	0.00052
318.15	0.02489	0.00043
323.15	0.02064	0.00036
328.15	0.01733	0.0003
333.15	0.01472	0.00025
338.15	0.01264	0.00022
343.15	0.01094	0.00019
348.15	0.00955	0.00017
353.15	0.00838	0.00015

System: 1-ethyl-3-methylimidazolium ammonioacetate; phases: Liquid
Fixed: Pressure, kPa = 101.325
Property: Refractive index (Na D-line) (Liquid); method: Standard Abbe refractometry
Temperature, K	Refractive index (Na D-line)	uncertainty
293.15	1.50628	0.00068
298.15	1.50473	0.00068
303.15	1.50313	0.00068
308.15	1.50154	0.00068
313.15	1.49988	0.00068
318.15	1.49827	0.00068
323.15	1.49657	0.00068
328.15	1.49488	0.00068
333.15	1.49321	0.00068

System: 1-ethyl-3-methylimidazolium ammonioacetate; phases: Liquid
Fixed: Pressure, kPa = 101.325
Property: Mass density, kg/m3 (Liquid); method: Vibrating tube method
Temperature, K	Mass density, kg/m3	uncertainty
293.15	1158	2.6
298.15	1154.7	2.6
303.15	1151.6	2.5
308.15	1148.5	2.5
313.15	1145.3	2.5
318.15	1142.2	2.5
323.15	1139	2.5
328.15	1135.8	2.5
333.15	1132.7	2.5
338.15	1129.5	2.4
343.15	1126.3	2.4
348.15	1123.2	2.4
353.15	1120.1	2.4
