Measured thermophysical data. Saturated Pressure Measurements of 2,3,3,3-Tetrafluoroprop-1-ene (R1234yf) for Reduced Temperatures Ranging from 0.67 to 0.93
Source: J. Chem. Eng. Data, 2011, 10.1021/je2000952
Compound 1: 2,3,3,3-tetrafluoro-1-propene, C3H2F4, InChI=1S/C3H2F4/c1-2(4)3(5,6)7/h1H2, purity 99.5%
Compound 2: 1,1,1,2-tetrafluoroethane, C2H2F4, InChI=1S/C2H2F4/c3-1-2(4,5)6/h1H2, purity 99.5%

System: 2,3,3,3-tetrafluoro-1-propene; phases: Liquid, Gas
Property: Vapor or sublimation pressure, kPa (Liquid); method: Closed cell (Static) method
Temperature, K	Vapor or sublimation pressure, kPa	uncertainty
245.65	110.3	0.4
248.15	122.6	0.4
250.65	136.1	0.4
253.15	150.7	0.5
255.65	166.4	0.5
258.15	183.6	0.6
260.65	201.9	0.6
263.15	221.6	0.6
265.65	242.5	0.7
268.15	265.2	0.7
270.65	289.7	0.8
273.15	315.7	0.8
275.65	343.3	0.9
278.15	372.8	1
280.65	404.1	1
283.15	437.4	1.1
285.65	472.9	1.2
288.15	510.3	1.2
290.65	549.9	1.3
293.16	591.8	1.4
295.65	636	1.5
298.16	682.7	1.6
300.66	731.9	1.7
303.16	783.6	1.8
305.66	838.1	1.9
308.16	895.3	2
310.66	955.5	2.2
313.16	1018.5	2.3
315.66	1084	2.4
318.16	1153.4	2.5
320.66	1225.8	2.7
323.16	1301.6	2.8
325.65	1381	3
328.15	1463.9	3.1
330.66	1550.6	3.3
333.16	1641.1	3.5
335.66	1735.7	3.7
338.16	1833.9	3.8
340.66	1936.6	4
343.15	2043.7	4.2

System: 1,1,1,2-tetrafluoroethane; phases: Liquid, Gas
Property: Vapor or sublimation pressure, kPa (Liquid); method: Closed cell (Static) method
Temperature, K	Vapor or sublimation pressure, kPa	uncertainty
283.13	414.4	1.2
293.14	571.1	1.4
303.12	769.2	1.8
313.11	1014.9	2.3
323.17	1318.5	2.9
333.16	1681.1	3.6
343.16	2117.3	4.3
