Measured thermophysical data. Phase Diagram Data for Ethanol/Propan-1-ol/Propan-2-ol-2,3-Dihydroxybutanedioate Aqueous Two-Phase Systems at 298.15 K and Data Correlation
Source: J. Chem. Eng. Data, 2011, 10.1021/je2000233
Compound 1: dipotassium L-tartrate, C4H4K2O6, InChI=1S/C4H6O6.2K/c5-1(3(7)8)2(6)4(9)10;;/h1-2,5-6H,(H,7,8)(H,9,10);;/q;2*+1/p-2/t1-,2-;;/m1../s1, purity 99%
Compound 2: disodium L-tartrate, C4H4Na2O6, InChI=1S/C4H6O6.2Na/c5-1(3(7)8)2(6)4(9)10;;/h1-2,5-6H,(H,7,8)(H,9,10);;/q;2*+1/p-2/t1-,2-;;/m1../s1, purity 99%
Compound 3: ammonium (2R,3R)-2,3-dihydroxysuccinate, C4H12N2O6, InChI=1S/C4H6O6.2H3N/c5-1(3(7)8)2(6)4(9)10;;/h1-2,5-6H,(H,7,8)(H,9,10);2*1H3/t1-,2-;;/m1../s1, purity 99%
Compound 4: potassium sodium (2R,3R)-2,3-dihydroxybutanedioate (1:1:1), C4H4KNaO6, InChI=1S/C4H6O6.K.Na/c5-1(3(7)8)2(6)4(9)10;;/h1-2,5-6H,(H,7,8)(H,9,10);;/q;2*+1/p-2/t1-,2-;;/m1../s1, purity 99%
Compound 5: ethanol, C2H6O, InChI=1S/C2H6O/c1-2-3/h3H,2H2,1H3, purity 99.7%
Compound 6: propan-1-ol, C3H8O, InChI=1S/C3H8O/c1-2-3-4/h4H,2-3H2,1H3, purity 99%
Compound 7: propan-2-ol, C3H8O, InChI=1S/C3H8O/c1-3(2)4/h3-4H,1-2H3, purity 99.7%
Compound 8: water, H2O, InChI=1S/H2O/h1H2

System: ethanol + dipotassium L-tartrate + water; phases: Liquid mixture 1, Liquid mixture 2
Fixed: Temperature, K = 298.15
Fixed: Pressure, kPa = 101
Property: Mass fraction of dipotassium L-tartrate (Liquid mixture 1); method: Titration method
Mass fraction of ethanol	Mass fraction of dipotassium L-tartrate	uncertainty
0.022	0.5507	0.0587
0.0324	0.4882	0.0418
0.0329	0.4944	0.0423
0.0357	0.4762	0.0428
0.047	0.4466	0.0289
0.0508	0.432	0.0289
0.0627	0.4065	0.0243
0.071	0.387	0.0237
0.0801	0.372	0.022
0.0879	0.3581	0.0207
0.1006	0.3384	0.0205
0.1078	0.326	0.0186
0.1154	0.313	0.0181
0.1305	0.2981	0.016
0.1444	0.2828	0.0169
0.1613	0.2606	0.0162
0.1801	0.2412	0.0146
0.2063	0.2179	0.0141
0.2331	0.1931	0.0139
0.2738	0.1559	0.0132
0.3064	0.1297	0.0124
0.3349	0.1096	0.0115
0.3981	0.0727	0.0109
0.4332	0.0567	0.0103
0.4611	0.0461	0.0101
0.4828	0.039	0.0099
0.5041	0.0329	0.0098
0.5231	0.028	0.0097
0.5427	0.0236	0.0096
0.5602	0.0203	0.0096
0.5746	0.0177	0.0096

System: propan-1-ol + dipotassium L-tartrate + water; phases: Liquid mixture 1, Liquid mixture 2
Fixed: Temperature, K = 298.15
Fixed: Pressure, kPa = 101
Property: Mass fraction of dipotassium L-tartrate (Liquid mixture 1); method: Titration method
Mass fraction of propan-1-ol	Mass fraction of dipotassium L-tartrate	uncertainty
0.0056	0.5317	0.0716
0.008	0.4856	0.0726
0.0113	0.4472	0.0665
0.0152	0.4122	0.0879
0.0199	0.3805	0.0678
0.0249	0.3538	0.0494
0.0301	0.3308	0.035
0.0354	0.3099	0.032
0.0477	0.2822	0.0288
0.0573	0.2488	0.0317
0.0669	0.2221	0.0245
0.0673	0.2222	0.0246
0.0783	0.2	0.0207
0.0895	0.1808	0.0183
0.1013	0.1638	0.0164
0.112	0.1507	0.0138
0.1217	0.144	0.0129
0.1556	0.115	0.0119
0.1887	0.0973	0.0108
0.2213	0.0835	0.0103
0.2617	0.0711	0.01
0.2979	0.0614	0.0099
0.3285	0.0537	0.0098
0.3686	0.0451	0.0097
0.4101	0.0364	0.0096
0.4425	0.0302	0.0096
0.4698	0.0256	0.0096
0.4923	0.0221	0.0095
0.5115	0.0194	0.0095
0.5286	0.0172	0.0095

System: propan-2-ol + dipotassium L-tartrate + water; phases: Liquid mixture 1, Liquid mixture 2
Fixed: Temperature, K = 298.15
Fixed: Pressure, kPa = 101
Property: Mass fraction of dipotassium L-tartrate (Liquid mixture 1); method: Titration method
Mass fraction of propan-2-ol	Mass fraction of dipotassium L-tartrate	uncertainty
0.0061	0.5382	0.0567
0.0099	0.4935	0.0592
0.0144	0.4555	0.051
0.0191	0.4224	0.0626
0.0266	0.3926	0.0431
0.0327	0.3659	0.0326
0.0407	0.3414	0.0311
0.0539	0.3113	0.023
0.0739	0.2736	0.0203
0.0937	0.2428	0.0173
0.1158	0.2163	0.0154
0.1357	0.1954	0.014
0.1595	0.1757	0.0129
0.1832	0.1586	0.0123
0.2038	0.1451	0.0117
0.2263	0.1324	0.0114
0.2446	0.1221	0.0111
0.2832	0.1027	0.011
0.3102	0.088	0.0108
0.3381	0.0751	0.0105
0.3621	0.0649	0.0103
0.3825	0.0571	0.0101
0.4007	0.0507	0.01
0.4161	0.0456	0.0099
0.433	0.0407	0.0098
0.4596	0.0334	0.0098
0.4818	0.0282	0.0097
0.5008	0.0242	0.0096
0.5168	0.0212	0.0096
0.5304	0.0188	0.0095
0.5429	0.0168	0.0095

System: propan-2-ol + ammonium (2R,3R)-2,3-dihydroxysuccinate + water; phases: Liquid mixture 1, Liquid mixture 2
Fixed: Temperature, K = 298.15
Fixed: Pressure, kPa = 101
Property: Mass fraction of ammonium (2R,3R)-2,3-dihydroxysuccinate (Liquid mixture 1); method: Titration method
Mass fraction of propan-2-ol	Mass fraction of ammonium (2R,3R)-2,3-dihydroxysuccinate	uncertainty
0.0711	0.3173	0.0229
0.0892	0.281	0.022
0.1013	0.2587	0.0177
0.1085	0.2507	0.0178
0.1285	0.2252	0.0155
0.135	0.2176	0.0155
0.1514	0.2024	0.0137
0.1733	0.1842	0.0127
0.201	0.1661	0.0122
0.2138	0.1574	0.0119
0.225	0.1515	0.0116
0.2532	0.1354	0.0113
0.2894	0.1181	0.0109
0.308	0.1096	0.0108
0.3209	0.1039	0.0106
0.3492	0.0926	0.0105
0.3629	0.0859	0.0104
0.4029	0.0703	0.0103
0.4226	0.0628	0.0101
0.4351	0.0588	0.01
0.4605	0.0505	0.0099
0.4827	0.0441	0.0098
0.4981	0.04	0.0098
0.5244	0.0335	0.0097
0.5464	0.0287	0.0096
0.5663	0.0248	0.0096
0.583	0.0218	0.0096
0.5951	0.0198	0.0095
0.619	0.0159	0.0095
0.6403	0.0133	0.0095
0.6578	0.0113	0.0095

System: ethanol + potassium sodium (2R,3R)-2,3-dihydroxybutanedioate (1:1:1) + water; phases: Liquid mixture 1, Liquid mixture 2
Fixed: Temperature, K = 298.15
Fixed: Pressure, kPa = 101
Property: Mass fraction of potassium sodium (2R,3R)-2,3-dihydroxybutanedioate (1:1:1) (Liquid mixture 1); method: Titration method
Mass fraction of ethanol	Mass fraction of potassium sodium (2R,3R)-2,3-dihydroxybutanedioate (1:1:1)	uncertainty
0.0739	0.366	0.0203
0.1175	0.2976	0.0181
0.159	0.2481	0.0158
0.1986	0.2059	0.0147
0.222	0.183	0.0141
0.2439	0.1618	0.0136
0.2633	0.1448	0.0131
0.2802	0.1303	0.0128
0.2987	0.1151	0.0121
0.3209	0.1001	0.0115
0.352	0.0815	0.0111
0.3762	0.0686	0.0107
0.3979	0.0587	0.0104
0.4165	0.0514	0.0102
0.4331	0.0453	0.0101

System: propan-2-ol + disodium L-tartrate + water; phases: Liquid mixture 1, Liquid mixture 2
Fixed: Temperature, K = 298.15
Fixed: Pressure, kPa = 101
Property: Mass fraction of disodium L-tartrate (Liquid mixture 1); method: Titration method
Mass fraction of propan-2-ol	Mass fraction of disodium L-tartrate	uncertainty
0.0587	0.2593	0.0194
0.0815	0.2223	0.0181
0.0932	0.2082	0.0155
0.1078	0.1919	0.0142
0.1331	0.1688	0.0132
0.1522	0.1544	0.0126
0.1618	0.147	0.0119
0.1867	0.132	0.0116
0.1958	0.1261	0.0116
0.2079	0.119	0.0112
0.2241	0.1105	0.011
0.2372	0.104	0.011
0.2477	0.0981	0.0109
0.2691	0.0876	0.0107
0.2917	0.0772	0.0105
0.3131	0.0678	0.0104
0.3307	0.0608	0.0102
0.3465	0.0548	0.0101
0.3647	0.0491	0.0099
0.3882	0.0418	0.0099
0.408	0.0362	0.0098
0.425	0.032	0.0097
0.4396	0.0285	0.0096
0.4871	0.0194	0.0096
0.5073	0.0164	0.0095
0.5233	0.0141	0.0095
0.5381	0.0124	0.0095
0.551	0.011	0.0095
