Measured thermophysical data. Liquid liquid equilibrium for the ternary systems of water + methanol  + acrylonitrile
Source: J. Chem. Eng. Data, 2012, 10.1021/je2009208
Compound 1: acrylonitrile, C3H3N, InChI=1S/C3H3N/c1-2-3-4/h2H,1H2, purity 99.9%
Compound 2: methanol, CH4O, InChI=1S/CH4O/c1-2/h2H,1H3, purity 99.5%
Compound 3: water, H2O, InChI=1S/H2O/h1H2

System: acrylonitrile; phases: Liquid
Property: Refractive index (Na D-line) (Liquid); method: Standard Abbe refractometry
Temperature, K	Pressure, kPa	Refractive index (Na D-line)	uncertainty
293.15	101.325	1.3908	0.0008

System: acrylonitrile; phases: Liquid
Property: Mass density, kg/m3 (Liquid); method: Vibrating tube method
Temperature, K	Pressure, kPa	Mass density, kg/m3	uncertainty
298.15	101.325	800.6	0.2

System: methanol; phases: Liquid
Property: Refractive index (Na D-line) (Liquid); method: Standard Abbe refractometry
Temperature, K	Pressure, kPa	Refractive index (Na D-line)	uncertainty
293.15	101.325	1.3286	0.0008

System: methanol; phases: Liquid
Property: Mass density, kg/m3 (Liquid); method: Vibrating tube method
Temperature, K	Pressure, kPa	Mass density, kg/m3	uncertainty
298.15	101.325	791.3	0.2

System: water; phases: Liquid
Property: Refractive index (Na D-line) (Liquid); method: Standard Abbe refractometry
Temperature, K	Pressure, kPa	Refractive index (Na D-line)	uncertainty
293.15	101.325	1.3333	0.0008

System: acrylonitrile + water; phases: Liquid mixture 2, Liquid mixture 1
Fixed: Pressure, kPa = 101.3
Property: Mass fraction of acrylonitrile (Liquid mixture 2); method: Chromatography
Temperature, K	Mass fraction of acrylonitrile	uncertainty
288.15	0.972	0.002
298.15	0.971	0.002
313.15	0.965	0.002

System: acrylonitrile + water; phases: Liquid mixture 1, Liquid mixture 2
Fixed: Pressure, kPa = 101.3
Property: Mass fraction of acrylonitrile (Liquid mixture 1); method: Chromatography
Temperature, K	Mass fraction of acrylonitrile	uncertainty
288.15	0.068	0.002
298.15	0.082	0.002
313.15	0.089	0.002

System: methanol + acrylonitrile + water; phases: Liquid mixture 2, Liquid mixture 1
Fixed: Pressure, kPa = 101.3
Property: Mass fraction of methanol (Liquid mixture 2); method: Chromatography
Property: Mass fraction of acrylonitrile (Liquid mixture 1); method: Chromatography
Property: Mass fraction of methanol (Liquid mixture 1); method: Chromatography
Temperature, K	Mass fraction of acrylonitrile	Mass fraction of methanol	uncertainty	Mass fraction of acrylonitrile	uncertainty	Mass fraction of methanol	uncertainty
288.15	0.972	0		0.068	0.002	0	
288.15	0.954	0.013	0.003	0.079	0.002	0.028	
288.15	0.92	0.038	0.003	0.097	0.002	0.086	
288.15	0.869	0.075	0.003	0.128	0.002	0.164	
288.15	0.834	0.1	0.003	0.156	0.003	0.201	
288.15	0.798	0.123	0.003	0.185	0.003	0.235	
288.15	0.758	0.148	0.003	0.215	0.005	0.264	
288.15	0.717	0.172	0.003	0.255	0.027	0.296	
288.15	0.676	0.192	0.003	0.308	0.027	0.292	
288.15	0.599	0.234	0.003	0.376	0.027	0.297	
298.15	0.971	0		0.082	0.002	0	
298.15	0.926	0.033	0.003	0.102	0.002	0.073	
298.15	0.89	0.058	0.003	0.126	0.002	0.122	
298.15	0.856	0.081	0.003	0.146	0.003	0.17	
298.15	0.819	0.107	0.003	0.172	0.003	0.205	
298.15	0.781	0.13	0.003	0.206	0.004	0.236	
298.15	0.738	0.157	0.003	0.245	0.005	0.258	
298.15	0.69	0.185	0.003	0.288	0.012	0.276	
298.15	0.633	0.213	0.003	0.343	0.028	0.288	
298.15	0.57	0.247	0.003	0.42	0.012	0.285	
313.15	0.965	0		0.089	0.002	0	
313.15	0.947	0.012	0.003	0.093	0.002	0.024	
313.15	0.909	0.041	0.003	0.109	0.002	0.084	
313.15	0.872	0.066	0.003	0.136	0.003	0.127	
313.15	0.833	0.092	0.003	0.165	0.003	0.169	
313.15	0.796	0.115	0.003	0.195	0.003	0.204	
313.15	0.752	0.142	0.003	0.225	0.004	0.237	
313.15	0.705	0.17	0.003	0.271	0.006	0.254	
313.15	0.649	0.198	0.003	0.32	0.009	0.27	
313.15	0.594	0.221	0.003	0.376	0.019	0.276	
