Measured thermophysical data. Liquid Phase Behavior of 1-Butyl-1-methylpyrrolidinium Bis(trifluoromethylsulfonyl)imide with 1-Butanol or Hexan-1-ol: Measurements of Coexistence Curves, Density, and Interfacial Tension
Source: J. Chem. Eng. Data, 2012, 10.1021/je201391j
Compound 1: 1-butyl-1-methylpyrrolidinium bis[(trifluoromethyl)sulfonyl]imide, C11H20F6N2O4S2, InChI=1S/C9H20N.C2F6NO4S2/c1-3-4-7-10(2)8-5-6-9-10;3-1(4,5)14(10,11)9-15(12,13)2(6,7)8/h3-9H2,1-2H3;/q+1;-1, purity 99%
Compound 2: butan-1-ol, C4H10O, InChI=1S/C4H10O/c1-2-3-4-5/h5H,2-4H2,1H3, purity 99.9%
Compound 3: hexan-1-ol, C6H14O, InChI=1S/C6H14O/c1-2-3-4-5-6-7/h7H,2-6H2,1H3, purity 99.9%

System: butan-1-ol + 1-butyl-1-methylpyrrolidinium bis[(trifluoromethyl)sulfonyl]imide; phases: Liquid mixture 1, Liquid mixture 2
Fixed: Pressure, kPa = 101
Property: Interfacial tension, N/m (Liquid mixture 1); method: Pendant Drop method
Temperature, K	Interfacial tension, N/m	uncertainty
293.15	0.000666	0.0002
295.65	0.000576	0.0002
298.15	0.000443	0.0002
300.65	0.000368	0.0002
303.15	0.000276	0.0002
305.65	0.000163	0.0002

System: butan-1-ol + 1-butyl-1-methylpyrrolidinium bis[(trifluoromethyl)sulfonyl]imide; phases: Liquid mixture 1, Liquid mixture 2
Fixed: Pressure, kPa = 101
Property: Liquid-liquid equilibrium temperature, K (Liquid mixture 1); method: VISOBS
Mole fraction of 1-butyl-1-methylpyrrolidinium bis[(trifluoromethyl)sulfonyl]imide	Liquid-liquid equilibrium temperature, K	uncertainty
0.0096	287.8	0.6
0.016	296.6	0.4
0.0318	306.2	0.3
0.052	310.4	0.3
0.0707	311.6	0.3
0.0833	312.2	0.3
0.091	312.2	0.3
0.1097	312.4	0.3
0.128	312.4	0.3
0.1535	312.2	0.3
0.1787	312	0.3
0.218	310.8	0.3
0.2676	308.2	0.3
0.3388	303.4	0.3
0.4427	293.6	0.3
0.5111	285.2	0.3

System: butan-1-ol + 1-butyl-1-methylpyrrolidinium bis[(trifluoromethyl)sulfonyl]imide; phases: Liquid mixture 1, Liquid mixture 2
Fixed: Pressure, kPa = 101
Property: Mass density, kg/m3 (Liquid mixture 1); method: Vibrating tube method
Temperature, K	Mass density, kg/m3	uncertainty
293.15	833.4	0.3
295.65	835.6	0.3
298.15	837.8	0.3
300.65	841.6	0.4
303.15	846.4	0.6
305.65	854.5	1
308.15	870.6	1.5
310.65	890.5	1.6

System: butan-1-ol + 1-butyl-1-methylpyrrolidinium bis[(trifluoromethyl)sulfonyl]imide; phases: Liquid mixture 2, Liquid mixture 1
Fixed: Pressure, kPa = 101
Property: Mass density, kg/m3 (Liquid mixture 2); method: Vibrating tube method
Temperature, K	Mass density, kg/m3	uncertainty
293.15	1238.4	1.1
295.65	1224.7	1.2
298.15	1210.1	1.3
300.65	1192.9	1.5
303.15	1173.4	1.7
305.65	1151.3	2.2
308.15	1117.6	2.8
310.65	1081	2.9

System: hexan-1-ol + 1-butyl-1-methylpyrrolidinium bis[(trifluoromethyl)sulfonyl]imide; phases: Liquid mixture 1, Liquid mixture 2
Fixed: Pressure, kPa = 101
Property: Liquid-liquid equilibrium temperature, K (Liquid mixture 1); method: VISOBS
Mole fraction of 1-butyl-1-methylpyrrolidinium bis[(trifluoromethyl)sulfonyl]imide	Liquid-liquid equilibrium temperature, K	uncertainty
0.0224	335.1	0.3
0.0399	342.3	0.3
0.0721	346.7	0.3
0.105	347.9	0.3
0.137	348	0.3
0.1572	347.9	0.3
0.1776	347.9	0.3
0.2127	347.6	0.3
0.2691	345.9	0.3
0.3117	344	0.3
0.4026	337.8	0.3
0.4849	330.5	0.3
0.5943	317	0.3
