Measured thermophysical data. Volumetric Properties and Refractive Indices of N,N'-Hexamethylenebisacetamide in Aqueous Glucose and Sucrose Solutions
Source: J. Chem. Eng. Data, 2011, 10.1021/je200421s
Compound 1: N,N'-diacetyl-1,6-hexanediamine, C10H20N2O2, InChI=1S/C10H20N2O2/c1-9(13)11-7-5-3-4-6-8-12-10(2)14/h3-8H2,1-2H3,(H,11,13)(H,12,14), purity 98%
Compound 2: water, H2O, InChI=1S/H2O/h1H2
Compound 3: D-glucose, C6H12O6, InChI=1S/C6H12O6/c7-1-3(9)5(11)6(12)4(10)2-8/h1,3-6,8-12H,2H2/t3-,4+,5+,6+/m0/s1, purity 99%
Compound 4: D-sucrose, C12H22O11, InChI=1S/C12H22O11/c13-1-4-6(16)8(18)9(19)11(21-4)23-12(3-15)10(20)7(17)5(2-14)22-12/h4-11,13-20H,1-3H2/t4-,5-,6-,7-,8+,9-,10+,11-,12+/m1/s1, purity 99%

System: N,N'-diacetyl-1,6-hexanediamine + water; phases: Liquid
Fixed: Pressure, kPa = 101
Fixed: Temperature, K = 298.15
Property: Refractive index (Na D-line) (Liquid); method: Standard Abbe refractometry
Molality, mol/kg of N,N'-diacetyl-1,6-hexanediamine	Refractive index (Na D-line)	uncertainty
0	1.332	0.0007
0.0999	1.335	0.0007
0.1498	1.3365	0.0007
0.1998	1.338	0.0007
0.25	1.3396	0.0007
0.3001	1.3409	0.0007
0.3503	1.342	0.0007
0.3984	1.3433	0.0007

System: N,N'-diacetyl-1,6-hexanediamine + water; phases: Liquid
Fixed: Pressure, kPa = 101
Property: Mass density, kg/m3 (Liquid); method: Vibrating tube method
Temperature, K	Molality, mol/kg of N,N'-diacetyl-1,6-hexanediamine	Mass density, kg/m3	uncertainty
288.15	0	999.107	0.501
288.15	0.0999	1000.159	0.501
288.15	0.1498	1000.68	0.501
288.15	0.1998	1001.225	0.501
288.15	0.25	1001.78	0.501
288.15	0.3001	1002.341	0.501
288.15	0.3503	1002.88	0.501
288.15	0.3984	1003.424	0.501
293.15	0	998.207	0.501
293.15	0.0999	999.201	0.501
293.15	0.1498	999.691	0.501
293.15	0.1998	1000.198	0.501
293.15	0.25	1000.721	0.501
293.15	0.3001	1001.247	0.501
293.15	0.3503	1001.754	0.501
293.15	0.3984	1002.262	0.501
298.15	0	997.047	0.501
298.15	0.0999	997.982	0.501
298.15	0.1498	998.441	0.501
298.15	0.1998	998.923	0.501
298.15	0.25	999.415	0.501
298.15	0.3001	999.908	0.501
298.15	0.3503	1000.383	0.501
298.15	0.3984	1000.865	0.501
303.15	0	995.649	0.501
303.15	0.0999	996.53	0.501
303.15	0.1498	996.965	0.501
303.15	0.1998	997.419	0.501
303.15	0.25	997.884	0.501
303.15	0.3001	998.347	0.501
303.15	0.3503	998.795	0.501
303.15	0.3984	999.248	0.501
308.15	0	994.03	0.501
308.15	0.0999	994.869	0.501
308.15	0.1498	995.284	0.501
308.15	0.1998	995.708	0.501
308.15	0.25	996.146	0.501
308.15	0.3001	996.58	0.501
308.15	0.3503	997.002	0.501
308.15	0.3984	997.432	0.501

System: D-glucose + water; phases: Liquid
Fixed: Pressure, kPa = 101
Fixed: Temperature, K = 298.15
Property: Refractive index (Na D-line) (Liquid); method: Standard Abbe refractometry
Molality, mol/kg of D-glucose	Refractive index (Na D-line)	uncertainty
0.05	1.3331	0.0007
0.1	1.3343	0.0007
0.2	1.3368	0.0007
0.3	1.3392	0.0007
0.5	1.3443	0.0007
0.8	1.351	0.0007

System: D-glucose + water; phases: Liquid
Fixed: Pressure, kPa = 101
Property: Mass density, kg/m3 (Liquid); method: Vibrating tube method
Temperature, K	Molality, mol/kg of D-glucose	Mass density, kg/m3	uncertainty
288.15	0.05	1002.576	0.506
288.15	0.1	1005.997	0.505
288.15	0.2	1012.639	0.505
288.15	0.3	1019.211	0.505
288.15	0.5	1031.873	0.505
288.15	0.8	1050.044	0.506
293.15	0.05	1001.646	0.506
293.15	0.1	1005.045	0.505
293.15	0.2	1011.635	0.505
293.15	0.3	1018.155	0.505
293.15	0.5	1030.726	0.505
293.15	0.8	1048.764	0.506
298.15	0.05	1000.463	0.506
298.15	0.1	1003.835	0.505
298.15	0.2	1010.377	0.505
298.15	0.3	1016.853	0.505
298.15	0.5	1029.342	0.505
298.15	0.8	1047.272	0.506
303.15	0.05	999.043	0.506
303.15	0.1	1002.394	0.505
303.15	0.2	1008.897	0.505
303.15	0.3	1015.33	0.505
303.15	0.5	1027.748	0.505
303.15	0.8	1045.576	0.506
308.15	0.05	997.458	0.505
308.15	0.1	1000.746	0.505
308.15	0.2	1007.207	0.505
308.15	0.3	1013.627	0.505
308.15	0.5	1025.959	0.505
308.15	0.8	1043.699	0.506

System: D-sucrose + water; phases: Liquid
Fixed: Pressure, kPa = 101
Fixed: Temperature, K = 298.15
Property: Refractive index (Na D-line) (Liquid); method: Standard Abbe refractometry
Molality, mol/kg of D-sucrose	Refractive index (Na D-line)	uncertainty
0.05	1.3343	0.0007
0.1	1.3368	0.0007
0.2	1.3415	0.0007
0.3	1.3458	0.0007
0.5	1.3542	0.0007
0.8	1.3656	0.0007

System: D-sucrose + water; phases: Liquid
Fixed: Pressure, kPa = 101
Property: Mass density, kg/m3 (Liquid); method: Vibrating tube method
Temperature, K	Molality, mol/kg of D-sucrose	Mass density, kg/m3	uncertainty
288.15	0.05	1005.674	0.518
288.15	0.1	1012.182	0.516
288.15	0.2	1024.442	0.516
288.15	0.3	1036.524	0.515
288.15	0.5	1059.359	0.513
288.15	0.8	1089.543	0.514
293.15	0.05	1004.731	0.518
293.15	0.1	1011.201	0.516
293.15	0.2	1023.385	0.516
293.15	0.3	1035.394	0.515
293.15	0.5	1058.095	0.513
293.15	0.8	1088.099	0.514
298.15	0.05	1003.532	0.518
298.15	0.1	1009.966	0.516
298.15	0.2	1022.084	0.516
298.15	0.3	1034.031	0.515
298.15	0.5	1056.615	0.513
298.15	0.8	1086.461	0.513
303.15	0.05	1002.105	0.517
303.15	0.1	1008.504	0.516
303.15	0.2	1020.565	0.516
303.15	0.3	1032.455	0.515
303.15	0.5	1054.931	0.513
303.15	0.8	1084.645	0.513
308.15	0.05	1000.461	0.517
308.15	0.1	1006.834	0.516
308.15	0.2	1018.841	0.515
308.15	0.3	1030.684	0.515
308.15	0.5	1053.067	0.513
308.15	0.8	1082.653	0.513

System: D-glucose + N,N'-diacetyl-1,6-hexanediamine + water; phases: Liquid
Fixed: Pressure, kPa = 101
Fixed: Temperature, K = 298.15
Property: Refractive index (Na D-line) (Liquid); method: Standard Abbe refractometry
Molality, mol/kg of N,N'-diacetyl-1,6-hexanediamine	Molality, mol/kg of D-glucose	Refractive index (Na D-line)	uncertainty
0	0.05	1.3331	0.0007
0	0.1	1.3343	0.0007
0	0.2	1.3368	0.0007
0	0.3	1.3392	0.0007
0	0.5	1.3443	0.0007
0	0.8	1.351	0.0007
0.0998	0.8	1.3534	0.0007
0.0999	0.1	1.3372	0.0007
0.1	0.05	1.3361	0.0007
0.1	0.2	1.3398	0.0007
0.1	0.3	1.3422	0.0007
0.1	0.5	1.3472	0.0007
0.1472	0.8	1.3549	0.0007
0.15	0.05	1.3377	0.0007
0.15	0.1	1.3389	0.0007
0.15	0.5	1.3486	0.0007
0.1501	0.2	1.3415	0.0007
0.1502	0.3	1.3434	0.0007
0.1998	0.05	1.3391	0.0007
0.1998	0.5	1.35	0.0007
0.1998	0.8	1.3566	0.0007
0.1999	0.2	1.343	0.0007
0.2001	0.1	1.3402	0.0007
0.2001	0.3	1.345	0.0007
0.2492	0.1	1.3419	0.0007
0.2493	0.05	1.3404	0.0007
0.2499	0.3	1.3466	0.0007
0.2501	0.2	1.3444	0.0007
0.2501	0.5	1.3513	0.0007
0.2501	0.8	1.3579	0.0007
0.2913	0.05	1.342	0.0007
0.2999	0.2	1.3459	0.0007
0.2999	0.3	1.348	0.0007
0.3	0.5	1.3528	0.0007
0.3001	0.1	1.3431	0.0007
0.3002	0.8	1.3592	0.0007
0.3497	0.2	1.3474	0.0007
0.3499	0.1	1.3445	0.0007
0.35	0.5	1.3541	0.0007
0.35	0.8	1.3606	0.0007
0.3501	0.05	1.3432	0.0007
0.3501	0.3	1.3493	0.0007
0.3983	0.3	1.351	0.0007
0.3999	0.5	1.3553	0.0007
0.4	0.05	1.3449	0.0007
0.4	0.8	1.3618	0.0007
0.4001	0.1	1.3459	0.0007
0.4001	0.2	1.3488	0.0007

System: D-glucose + N,N'-diacetyl-1,6-hexanediamine + water; phases: Liquid
Fixed: Pressure, kPa = 101
Property: Mass density, kg/m3 (Liquid); method: Vibrating tube method
Temperature, K	Molality, mol/kg of N,N'-diacetyl-1,6-hexanediamine	Molality, mol/kg of D-glucose	Mass density, kg/m3	uncertainty
288.15	0	0.05	1002.576	0.506
288.15	0	0.1	1005.997	0.506
288.15	0	0.2	1012.639	0.506
288.15	0	0.3	1019.211	0.505
288.15	0	0.5	1031.873	0.505
288.15	0	0.8	1050.044	0.506
288.15	0.0998	0.8	1049.899	0.506
288.15	0.0999	0.1	1006.891	0.505
288.15	0.1	0.05	1003.553	0.505
288.15	0.1	0.2	1013.413	0.505
288.15	0.1	0.3	1019.807	0.505
288.15	0.1	0.5	1032.229	0.505
288.15	0.1472	0.8	1049.939	0.506
288.15	0.15	0.05	1004.051	0.505
288.15	0.15	0.1	1007.379	0.505
288.15	0.15	0.5	1032.472	0.505
288.15	0.1501	0.2	1013.832	0.505
288.15	0.1502	0.3	1020.148	0.505
288.15	0.1998	0.05	1004.57	0.505
288.15	0.1998	0.5	1032.732	0.505
288.15	0.1998	0.8	1050.032	0.506
288.15	0.1999	0.2	1014.261	0.505
288.15	0.2001	0.1	1007.861	0.505
288.15	0.2001	0.3	1020.531	0.505
288.15	0.2492	0.1	1008.341	0.505
288.15	0.2493	0.05	1005.079	0.505
288.15	0.2499	0.3	1020.91	0.505
288.15	0.2501	0.2	1014.709	0.505
288.15	0.2501	0.5	1033.034	0.505
288.15	0.2501	0.8	1050.154	0.506
288.15	0.2913	0.05	1005.517	0.505
288.15	0.2999	0.2	1015.165	0.505
288.15	0.2999	0.3	1021.313	0.505
288.15	0.3	0.5	1033.305	0.505
288.15	0.3001	0.1	1008.839	0.505
288.15	0.3002	0.8	1050.279	0.506
288.15	0.3497	0.2	1015.597	0.505
288.15	0.3499	0.1	1009.326	0.505
288.15	0.35	0.5	1033.639	0.505
288.15	0.35	0.8	1050.448	0.506
288.15	0.3501	0.05	1006.151	0.505
288.15	0.3501	0.3	1021.702	0.505
288.15	0.3983	0.3	1022.125	0.505
288.15	0.3999	0.5	1034.065	0.505
288.15	0.4	0.05	1006.696	0.505
288.15	0.4	0.8	1050.675	0.506
288.15	0.4001	0.1	1009.845	0.505
288.15	0.4001	0.2	1016.065	0.505
293.15	0	0.05	1001.646	0.506
293.15	0	0.1	1005.045	0.505
293.15	0	0.2	1011.635	0.505
293.15	0	0.3	1018.155	0.505
293.15	0	0.5	1030.726	0.505
293.15	0	0.8	1048.764	0.506
293.15	0.0998	0.8	1048.574	0.506
293.15	0.0999	0.1	1005.885	0.505
293.15	0.1	0.05	1002.566	0.506
293.15	0.1	0.2	1012.353	0.505
293.15	0.1	0.3	1018.697	0.505
293.15	0.1	0.5	1031.02	0.505
293.15	0.1472	0.8	1048.58	0.506
293.15	0.15	0.05	1003.031	0.506
293.15	0.15	0.1	1006.336	0.505
293.15	0.15	0.5	1031.233	0.505
293.15	0.1501	0.2	1012.739	0.505
293.15	0.1502	0.3	1019.006	0.505
293.15	0.1998	0.05	1003.517	0.506
293.15	0.1998	0.5	1031.464	0.505
293.15	0.1998	0.8	1048.647	0.506
293.15	0.1999	0.2	1013.144	0.505
293.15	0.2001	0.1	1006.793	0.505
293.15	0.2001	0.3	1019.361	0.505
293.15	0.2492	0.1	1007.237	0.505
293.15	0.2493	0.05	1003.994	0.506
293.15	0.2499	0.3	1019.703	0.505
293.15	0.2501	0.2	1013.552	0.505
293.15	0.2501	0.5	1031.735	0.505
293.15	0.2501	0.8	1048.729	0.506
293.15	0.2913	0.05	1004.406	0.505
293.15	0.2999	0.2	1013.972	0.505
293.15	0.2999	0.3	1020.072	0.505
293.15	0.3	0.5	1031.983	0.505
293.15	0.3001	0.1	1007.697	0.505
293.15	0.3002	0.8	1048.823	0.506
293.15	0.3497	0.2	1014.372	0.505
293.15	0.3499	0.1	1008.154	0.505
293.15	0.35	0.5	1032.262	0.505
293.15	0.35	0.8	1048.951	0.506
293.15	0.3501	0.05	1004.997	0.505
293.15	0.3501	0.3	1020.427	0.505
293.15	0.3983	0.3	1020.815	0.505
293.15	0.3999	0.5	1032.67	0.505
293.15	0.4	0.05	1005.507	0.506
293.15	0.4	0.8	1049.16	0.506
293.15	0.4001	0.1	1008.642	0.505
293.15	0.4001	0.2	1014.806	0.505
298.15	0	0.05	1000.463	0.506
298.15	0	0.1	1003.835	0.505
298.15	0	0.2	1010.377	0.505
298.15	0	0.3	1016.853	0.505
298.15	0	0.5	1029.342	0.505
298.15	0	0.8	1047.272	0.506
298.15	0.0998	0.8	1047.023	0.506
298.15	0.0999	0.1	1004.613	0.505
298.15	0.1	0.05	1001.326	0.505
298.15	0.1	0.2	1011.043	0.505
298.15	0.1	0.3	1017.348	0.505
298.15	0.1	0.5	1029.572	0.505
298.15	0.1472	0.8	1047.015	0.506
298.15	0.15	0.05	1001.763	0.506
298.15	0.15	0.1	1005.051	0.505
298.15	0.15	0.5	1029.751	0.505
298.15	0.1501	0.2	1011.404	0.505
298.15	0.1502	0.3	1017.631	0.505
298.15	0.1998	0.05	1002.219	0.505
298.15	0.1998	0.5	1029.962	0.505
298.15	0.1998	0.8	1047.034	0.506
298.15	0.1999	0.2	1011.772	0.505
298.15	0.2001	0.1	1005.465	0.505
298.15	0.2001	0.3	1017.949	0.505
298.15	0.2492	0.1	1005.878	0.505
298.15	0.2493	0.05	1002.667	0.505
298.15	0.2499	0.3	1018.267	0.505
298.15	0.2501	0.2	1012.158	0.505
298.15	0.2501	0.5	1030.211	0.505
298.15	0.2501	0.8	1047.105	0.506
298.15	0.2913	0.05	1003.052	0.505
298.15	0.2999	0.2	1012.539	0.505
298.15	0.2999	0.3	1018.608	0.505
298.15	0.3	0.5	1030.429	0.505
298.15	0.3001	0.1	1006.315	0.505
298.15	0.3002	0.8	1047.169	0.506
298.15	0.3497	0.2	1012.914	0.505
298.15	0.3499	0.1	1006.739	0.505
298.15	0.35	0.5	1030.682	0.505
298.15	0.35	0.8	1047.267	0.506
298.15	0.3501	0.05	1003.608	0.505
298.15	0.3501	0.3	1018.931	0.505
298.15	0.3983	0.3	1019.292	0.505
298.15	0.3999	0.5	1031.062	0.505
298.15	0.4	0.05	1004.085	0.505
298.15	0.4	0.8	1047.467	0.506
298.15	0.4001	0.1	1007.184	0.505
298.15	0.4001	0.2	1013.311	0.505
303.15	0	0.05	999.043	0.506
303.15	0	0.1	1002.394	0.505
303.15	0	0.2	1008.897	0.505
303.15	0	0.3	1015.33	0.505
303.15	0	0.5	1027.748	0.505
303.15	0	0.8	1045.576	0.506
303.15	0.0998	0.8	1045.303	0.506
303.15	0.0999	0.1	1003.129	0.505
303.15	0.1	0.05	999.856	0.505
303.15	0.1	0.2	1009.515	0.505
303.15	0.1	0.3	1015.782	0.505
303.15	0.1	0.5	1027.947	0.505
303.15	0.1472	0.8	1045.259	0.506
303.15	0.15	0.05	1000.267	0.505
303.15	0.15	0.1	1003.525	0.505
303.15	0.15	0.5	1028.101	0.505
303.15	0.1501	0.2	1009.851	0.505
303.15	0.1502	0.3	1016.04	0.505
303.15	0.1998	0.05	1000.695	0.505
303.15	0.1998	0.5	1028.292	0.505
303.15	0.1998	0.8	1045.271	0.506
303.15	0.1999	0.2	1010.195	0.505
303.15	0.2001	0.1	1003.918	0.505
303.15	0.2001	0.3	1016.337	0.505
303.15	0.2492	0.1	1004.311	0.505
303.15	0.2493	0.05	1001.114	0.505
303.15	0.2499	0.3	1016.622	0.505
303.15	0.2501	0.2	1010.545	0.505
303.15	0.2501	0.5	1028.496	0.505
303.15	0.2501	0.8	1045.302	0.506
303.15	0.2913	0.05	1001.477	0.505
303.15	0.2999	0.2	1010.901	0.505
303.15	0.2999	0.3	1016.936	0.505
303.15	0.3	0.5	1028.687	0.505
303.15	0.3001	0.1	1004.717	0.505
303.15	0.3002	0.8	1045.332	0.506
303.15	0.3497	0.2	1011.251	0.505
303.15	0.3499	0.1	1005.116	0.505
303.15	0.35	0.5	1028.915	0.505
303.15	0.35	0.8	1045.401	0.506
303.15	0.3501	0.05	1002	0.505
303.15	0.3501	0.3	1017.232	0.505
303.15	0.3983	0.3	1017.578	0.505
303.15	0.3999	0.5	1029.242	0.505
303.15	0.4	0.05	1002.448	0.505
303.15	0.4	0.8	1045.556	0.506
303.15	0.4001	0.1	1005.531	0.505
303.15	0.4001	0.2	1011.624	0.505
308.15	0	0.05	997.458	0.505
308.15	0	0.1	1000.746	0.505
308.15	0	0.2	1007.207	0.505
308.15	0	0.3	1013.627	0.505
308.15	0	0.5	1025.959	0.505
308.15	0	0.8	1043.699	0.506
308.15	0.0998	0.8	1043.387	0.506
308.15	0.0999	0.1	1001.441	0.505
308.15	0.1	0.05	998.225	0.505
308.15	0.1	0.2	1007.784	0.505
308.15	0.1	0.3	1014.025	0.505
308.15	0.1	0.5	1026.119	0.505
308.15	0.1472	0.8	1043.323	0.505
308.15	0.15	0.05	998.605	0.505
308.15	0.15	0.1	1001.81	0.505
308.15	0.15	0.5	1026.256	0.505
308.15	0.1501	0.2	1008.095	0.505
308.15	0.1502	0.3	1014.255	0.505
308.15	0.1998	0.05	998.989	0.505
308.15	0.1998	0.5	1026.402	0.505
308.15	0.1998	0.8	1043.301	0.505
308.15	0.1999	0.2	1008.411	0.505
308.15	0.2001	0.1	1002.177	0.505
308.15	0.2001	0.3	1014.521	0.505
308.15	0.2492	0.1	1002.539	0.505
308.15	0.2493	0.05	999.379	0.505
308.15	0.2499	0.3	1014.785	0.505
308.15	0.2501	0.2	1008.735	0.505
308.15	0.2501	0.5	1026.608	0.505
308.15	0.2501	0.8	1043.319	0.505
308.15	0.2913	0.05	999.708	0.505
308.15	0.2999	0.2	1009.075	0.505
308.15	0.2999	0.3	1015.062	0.505
308.15	0.3	0.5	1026.76	0.505
308.15	0.3001	0.1	1002.918	0.505
308.15	0.3002	0.8	1043.324	0.505
308.15	0.3497	0.2	1009.391	0.505
308.15	0.3499	0.1	1003.289	0.505
308.15	0.35	0.5	1026.985	0.505
308.15	0.35	0.8	1043.366	0.505
308.15	0.3501	0.05	1000.179	0.505
308.15	0.3501	0.3	1015.339	0.505
308.15	0.3983	0.3	1015.636	0.505
308.15	0.3999	0.5	1027.281	0.505
308.15	0.4	0.05	1000.613	0.505
308.15	0.4	0.8	1043.495	0.506
308.15	0.4001	0.1	1003.676	0.505
308.15	0.4001	0.2	1009.741	0.505

System: D-sucrose + N,N'-diacetyl-1,6-hexanediamine + water; phases: Liquid
Fixed: Pressure, kPa = 101
Fixed: Temperature, K = 298.15
Property: Refractive index (Na D-line) (Liquid); method: Standard Abbe refractometry
Molality, mol/kg of N,N'-diacetyl-1,6-hexanediamine	Molality, mol/kg of D-sucrose	Refractive index (Na D-line)	uncertainty
0	0.05	1.3343	0.0007
0	0.1	1.3368	0.0007
0	0.2	1.3415	0.0007
0	0.3	1.3458	0.0007
0	0.5	1.3542	0.0007
0	0.8	1.3656	0.0007
0.0998	0.05	1.3373	0.0007
0.0999	0.3	1.3487	0.0007
0.1	0.2	1.3445	0.0007
0.1	0.5	1.3571	0.0007
0.1001	0.1	1.3398	0.0007
0.1001	0.8	1.3683	0.0007
0.1497	0.1	1.3411	0.0007
0.1499	0.05	1.3389	0.0007
0.15	0.2	1.346	0.0007
0.15	0.5	1.3582	0.0007
0.1501	0.3	1.3502	0.0007
0.1501	0.8	1.3698	0.0007
0.1996	0.2	1.3474	0.0007
0.1998	0.1	1.3427	0.0007
0.1999	0.05	1.3404	0.0007
0.2	0.8	1.3712	0.0007
0.2001	0.3	1.3517	0.0007
0.2001	0.5	1.3597	0.0007
0.2488	0.2	1.3488	0.0007
0.2498	0.05	1.3419	0.0007
0.2499	0.5	1.3611	0.0007
0.25	0.1	1.344	0.0007
0.25	0.8	1.3723	0.0007
0.2502	0.3	1.353	0.0007
0.2995	0.1	1.3454	0.0007
0.2997	0.05	1.3432	0.0007
0.2997	0.3	1.3542	0.0007
0.2998	0.2	1.3502	0.0007
0.3	0.5	1.3626	0.0007
0.3001	0.8	1.374	0.0007
0.3497	0.5	1.3641	0.0007
0.3497	0.8	1.3748	0.0007
0.3498	0.1	1.3469	0.0007
0.3499	0.3	1.3554	0.0007
0.35	0.05	1.3447	0.0007
0.3501	0.2	1.3516	0.0007
0.3991	0.1	1.3483	0.0007
0.3999	0.2	1.353	0.0007
0.4001	0.05	1.347	0.0007
0.4002	0.3	1.357	0.0007
0.4003	0.5	1.3653	0.0007
0.4003	0.8	1.3759	0.0007

System: D-sucrose + N,N'-diacetyl-1,6-hexanediamine + water; phases: Liquid
Fixed: Pressure, kPa = 101
Property: Mass density, kg/m3 (Liquid); method: Vibrating tube method
Temperature, K	Molality, mol/kg of N,N'-diacetyl-1,6-hexanediamine	Molality, mol/kg of D-sucrose	Mass density, kg/m3	uncertainty
288.15	0	0.05	1005.674	0.518
288.15	0	0.1	1012.182	0.516
288.15	0	0.2	1024.442	0.516
288.15	0	0.3	1036.524	0.515
288.15	0	0.5	1059.359	0.513
288.15	0	0.8	1089.543	0.514
288.15	0.0998	0.05	1006.588	0.517
288.15	0.0999	0.3	1036.789	0.514
288.15	0.1	0.2	1025	0.515
288.15	0.1	0.5	1059.025	0.513
288.15	0.1001	0.1	1012.975	0.516
288.15	0.1001	0.8	1088.479	0.513
288.15	0.1497	0.1	1013.398	0.516
288.15	0.1499	0.05	1007.071	0.517
288.15	0.15	0.2	1025.335	0.515
288.15	0.15	0.5	1058.944	0.513
288.15	0.1501	0.3	1036.991	0.514
288.15	0.1501	0.8	1088.214	0.513
288.15	0.1996	0.2	1025.671	0.515
288.15	0.1998	0.1	1013.846	0.516
288.15	0.1999	0.05	1007.558	0.517
288.15	0.2	0.8	1087.954	0.513
288.15	0.2001	0.3	1037.208	0.514
288.15	0.2001	0.5	1058.931	0.513
288.15	0.2488	0.2	1026.021	0.515
288.15	0.2498	0.05	1008.061	0.517
288.15	0.2499	0.5	1058.971	0.513
288.15	0.25	0.1	1014.305	0.515
288.15	0.25	0.8	1087.976	0.513
288.15	0.2502	0.3	1037.423	0.514
288.15	0.2995	0.1	1014.759	0.515
288.15	0.2997	0.05	1008.568	0.516
288.15	0.2997	0.3	1037.699	0.514
288.15	0.2998	0.2	1026.4	0.515
288.15	0.3	0.5	1059.079	0.512
288.15	0.3001	0.8	1087.496	0.513
288.15	0.3497	0.5	1059.121	0.512
288.15	0.3497	0.8	1087.061	0.513
288.15	0.3498	0.1	1015.213	0.515
288.15	0.3499	0.3	1037.994	0.513
288.15	0.35	0.05	1009.06	0.516
288.15	0.3501	0.2	1026.769	0.515
288.15	0.3991	0.1	1015.684	0.515
288.15	0.3999	0.2	1027.163	0.514
288.15	0.4001	0.05	1009.582	0.516
288.15	0.4002	0.3	1038.253	0.513
288.15	0.4003	0.5	1059.234	0.512
288.15	0.4003	0.8	1086.606	0.512
293.15	0	0.05	1004.731	0.518
293.15	0	0.1	1011.201	0.516
293.15	0	0.2	1023.385	0.516
293.15	0	0.3	1035.394	0.515
293.15	0	0.5	1058.095	0.513
293.15	0	0.8	1088.099	0.514
293.15	0.0998	0.05	1005.587	0.517
293.15	0.0999	0.3	1035.599	0.514
293.15	0.1	0.2	1023.889	0.515
293.15	0.1	0.5	1057.703	0.513
293.15	0.1001	0.1	1011.939	0.516
293.15	0.1001	0.8	1086.969	0.513
293.15	0.1497	0.1	1012.322	0.516
293.15	0.1499	0.05	1006.037	0.517
293.15	0.15	0.2	1024.191	0.515
293.15	0.15	0.5	1057.591	0.513
293.15	0.1501	0.3	1035.769	0.514
293.15	0.1501	0.8	1086.671	0.513
293.15	0.1996	0.2	1024.491	0.515
293.15	0.1998	0.1	1012.736	0.515
293.15	0.1999	0.05	1006.492	0.517
293.15	0.2	0.8	1086.389	0.513
293.15	0.2001	0.3	1035.951	0.514
293.15	0.2001	0.5	1057.55	0.513
293.15	0.2488	0.2	1024.812	0.515
293.15	0.2498	0.05	1006.961	0.517
293.15	0.2499	0.5	1057.552	0.513
293.15	0.25	0.1	1013.155	0.515
293.15	0.25	0.8	1086.381	0.513
293.15	0.2502	0.3	1036.136	0.514
293.15	0.2995	0.1	1013.576	0.515
293.15	0.2997	0.05	1007.432	0.516
293.15	0.2997	0.3	1036.38	0.514
293.15	0.2998	0.2	1025.152	0.515
293.15	0.3	0.5	1057.624	0.512
293.15	0.3001	0.8	1085.87	0.513
293.15	0.3497	0.5	1057.634	0.512
293.15	0.3497	0.8	1085.399	0.512
293.15	0.3498	0.1	1013.994	0.515
293.15	0.3499	0.3	1036.639	0.513
293.15	0.35	0.05	1007.892	0.516
293.15	0.3501	0.2	1025.494	0.514
293.15	0.3991	0.1	1014.435	0.515
293.15	0.3999	0.2	1025.852	0.514
293.15	0.4001	0.05	1008.372	0.516
293.15	0.4002	0.3	1036.854	0.513
293.15	0.4003	0.5	1057.716	0.512
293.15	0.4003	0.8	1084.942	0.512
298.15	0	0.05	1003.532	0.518
298.15	0	0.1	1009.966	0.516
298.15	0	0.2	1022.084	0.516
298.15	0	0.3	1034.031	0.515
298.15	0	0.5	1056.615	0.513
298.15	0	0.8	1086.461	0.514
298.15	0.0998	0.05	1004.328	0.517
298.15	0.0999	0.3	1034.181	0.514
298.15	0.1	0.2	1022.533	0.515
298.15	0.1	0.5	1056.171	0.513
298.15	0.1001	0.1	1010.645	0.516
298.15	0.1001	0.8	1085.279	0.513
298.15	0.1497	0.1	1011.016	0.515
298.15	0.1499	0.05	1004.755	0.517
298.15	0.15	0.2	1022.801	0.515
298.15	0.15	0.5	1056.03	0.513
298.15	0.1501	0.3	1034.321	0.514
298.15	0.1501	0.8	1084.953	0.513
298.15	0.1996	0.2	1023.071	0.515
298.15	0.1998	0.1	1011.391	0.515
298.15	0.1999	0.05	1005.176	0.517
298.15	0.2	0.8	1084.64	0.513
298.15	0.2001	0.3	1034.471	0.514
298.15	0.2001	0.5	1055.958	0.512
298.15	0.2488	0.2	1023.372	0.515
298.15	0.2498	0.05	1005.614	0.516
298.15	0.2499	0.5	1055.926	0.512
298.15	0.25	0.1	1011.778	0.515
298.15	0.25	0.8	1084.599	0.513
298.15	0.2502	0.3	1034.621	0.513
298.15	0.2995	0.1	1012.169	0.515
298.15	0.2997	0.05	1006.056	0.516
298.15	0.2997	0.3	1034.842	0.513
298.15	0.2998	0.2	1023.677	0.514
298.15	0.3	0.5	1055.966	0.512
298.15	0.3001	0.8	1084.059	0.513
298.15	0.3497	0.5	1055.968	0.512
298.15	0.3497	0.8	1083.564	0.512
298.15	0.3498	0.1	1012.565	0.515
298.15	0.3499	0.3	1035.061	0.513
298.15	0.35	0.05	1006.489	0.516
298.15	0.3501	0.2	1023.968	0.514
298.15	0.3991	0.1	1012.957	0.515
298.15	0.3999	0.2	1024.311	0.514
298.15	0.4001	0.05	1006.938	0.516
298.15	0.4002	0.3	1035.259	0.513
298.15	0.4003	0.5	1055.995	0.512
298.15	0.4003	0.8	1083.022	0.512
303.15	0	0.05	1002.105	0.518
303.15	0	0.1	1008.504	0.516
303.15	0	0.2	1020.565	0.516
303.15	0	0.3	1032.455	0.515
303.15	0	0.5	1054.931	0.513
303.15	0	0.8	1084.645	0.513
303.15	0.0998	0.05	1002.852	0.517
303.15	0.0999	0.3	1032.565	0.514
303.15	0.1	0.2	1020.967	0.515
303.15	0.1	0.5	1054.443	0.513
303.15	0.1001	0.1	1009.135	0.515
303.15	0.1001	0.8	1083.41	0.513
303.15	0.1497	0.1	1009.477	0.515
303.15	0.1499	0.05	1003.247	0.517
303.15	0.15	0.2	1021.207	0.515
303.15	0.15	0.5	1054.276	0.512
303.15	0.1501	0.3	1032.669	0.514
303.15	0.1501	0.8	1083.058	0.513
303.15	0.1996	0.2	1021.461	0.515
303.15	0.1998	0.1	1009.825	0.515
303.15	0.1999	0.05	1003.645	0.516
303.15	0.2	0.8	1082.727	0.513
303.15	0.2001	0.3	1032.8	0.514
303.15	0.2001	0.5	1054.178	0.512
303.15	0.2488	0.2	1021.721	0.514
303.15	0.2498	0.05	1004.051	0.516
303.15	0.2499	0.5	1054.113	0.512
303.15	0.25	0.1	1010.183	0.515
303.15	0.25	0.8	1082.651	0.513
303.15	0.2502	0.3	1032.914	0.513
303.15	0.2995	0.1	1010.556	0.515
303.15	0.2997	0.05	1004.467	0.516
303.15	0.2997	0.3	1033.106	0.513
303.15	0.2998	0.2	1021.998	0.514
303.15	0.3	0.5	1054.125	0.512
303.15	0.3001	0.8	1082.083	0.513
303.15	0.3497	0.5	1054.079	0.512
303.15	0.3497	0.8	1081.562	0.512
303.15	0.3498	0.1	1010.909	0.515
303.15	0.3499	0.3	1033.308	0.513
303.15	0.35	0.05	1004.868	0.516
303.15	0.3501	0.2	1022.29	0.514
303.15	0.3991	0.1	1011.292	0.515
303.15	0.3999	0.2	1022.569	0.514
303.15	0.4001	0.05	1005.29	0.516
303.15	0.4002	0.3	1033.467	0.513
303.15	0.4003	0.5	1054.099	0.512
303.15	0.4003	0.8	1081.054	0.512
308.15	0	0.05	1000.461	0.517
308.15	0	0.1	1006.834	0.516
308.15	0	0.2	1018.841	0.515
308.15	0	0.3	1030.684	0.515
308.15	0	0.5	1053.067	0.513
308.15	0	0.8	1082.653	0.513
308.15	0.0998	0.05	1001.169	0.516
308.15	0.0999	0.3	1030.747	0.514
308.15	0.1	0.2	1019.197	0.515
308.15	0.1	0.5	1052.534	0.513
308.15	0.1001	0.1	1007.421	0.515
308.15	0.1001	0.8	1081.377	0.513
308.15	0.1497	0.1	1007.733	0.515
308.15	0.1499	0.05	1001.53	0.516
308.15	0.15	0.2	1019.411	0.515
308.15	0.15	0.5	1052.342	0.513
308.15	0.1501	0.3	1030.823	0.514
308.15	0.1501	0.8	1081.001	0.513
308.15	0.1996	0.2	1019.631	0.515
308.15	0.1998	0.1	1008.064	0.515
308.15	0.1999	0.05	1001.904	0.516
308.15	0.2	0.8	1080.647	0.513
308.15	0.2001	0.3	1030.923	0.513
308.15	0.2001	0.5	1052.218	0.512
308.15	0.2488	0.2	1019.864	0.514
308.15	0.2498	0.05	1002.291	0.516
308.15	0.2499	0.5	1052.126	0.512
308.15	0.25	0.1	1008.397	0.515
308.15	0.25	0.8	1080.544	0.513
308.15	0.2502	0.3	1031.019	0.513
308.15	0.2995	0.1	1008.735	0.515
308.15	0.2997	0.05	1002.676	0.516
308.15	0.2997	0.3	1031.184	0.513
308.15	0.2998	0.2	1020.115	0.514
308.15	0.3	0.5	1052.111	0.512
308.15	0.3001	0.8	1079.951	0.512
308.15	0.3497	0.5	1052.038	0.512
308.15	0.3497	0.8	1079.403	0.512
308.15	0.3498	0.1	1009.065	0.515
308.15	0.3499	0.3	1031.358	0.513
308.15	0.35	0.05	1003.049	0.516
308.15	0.3501	0.2	1020.361	0.514
308.15	0.3991	0.1	1009.405	0.514
308.15	0.3999	0.2	1020.619	0.514
308.15	0.4001	0.05	1003.443	0.516
308.15	0.4002	0.3	1031.479	0.513
308.15	0.4003	0.5	1052.051	0.513
308.15	0.4003	0.8	1078.882	0.512
