Measured thermophysical data. Excess Molar Volumes of 2,4,6,8-Tetramethylcyclotetrasiloxane with Benzene, Toluene, and Xylene at T = (288.15, 298.15, and 308.15) K
Source: J. Chem. Eng. Data, 2012, 10.1021/je2009736
Compound 1: 2,4,6,8-tetramethyl-1,3,5,7,2,4,6,8-tetroxatetrasilocane, C4H16O4Si4, InChI=1S/C4H16O4Si4/c1-9-5-10(2)7-12(4)8-11(3)6-9/h9-12H,1-4H3, purity 99.9%
Compound 2: benzene, C6H6, InChI=1S/C6H6/c1-2-4-6-5-3-1/h1-6H, purity 99.9%
Compound 3: toluene, C7H8, InChI=1S/C7H8/c1-7-5-3-2-4-6-7/h2-6H,1H3, purity 99.9%
Compound 4: 1,2-dimethylbenzene, C8H10, InChI=1S/C8H10/c1-7-5-3-4-6-8(7)2/h3-6H,1-2H3, purity 99.9%
Compound 5: 1,3-dimethylbenzene, C8H10, InChI=1S/C8H10/c1-7-4-3-5-8(2)6-7/h3-6H,1-2H3, purity 99.9%
Compound 6: 1,4-dimethylbenzene, C8H10, InChI=1S/C8H10/c1-7-3-5-8(2)6-4-7/h3-6H,1-2H3, purity 99.9%

System: 2,4,6,8-tetramethyl-1,3,5,7,2,4,6,8-tetroxatetrasilocane; phases: Liquid
Property: Mass density, kg/m3 (Liquid); method: Vibrating tube method
Temperature, K	Pressure, kPa	Mass density, kg/m3	uncertainty
298.15	101.325	992.39	0.11

System: benzene; phases: Liquid
Property: Mass density, kg/m3 (Liquid); method: Vibrating tube method
Temperature, K	Pressure, kPa	Mass density, kg/m3	uncertainty
298.15	101.325	873.57	0.13

System: toluene; phases: Liquid
Property: Mass density, kg/m3 (Liquid); method: Vibrating tube method
Temperature, K	Pressure, kPa	Mass density, kg/m3	uncertainty
298.15	101.325	862.23	0.13

System: 1,2-dimethylbenzene; phases: Liquid
Property: Mass density, kg/m3 (Liquid); method: Vibrating tube method
Temperature, K	Pressure, kPa	Mass density, kg/m3	uncertainty
298.15	101.325	875.72	0.13

System: 1,3-dimethylbenzene; phases: Liquid
Property: Mass density, kg/m3 (Liquid); method: Vibrating tube method
Temperature, K	Pressure, kPa	Mass density, kg/m3	uncertainty
298.15	101.325	859.86	0.13

System: 1,4-dimethylbenzene; phases: Liquid
Property: Mass density, kg/m3 (Liquid); method: Vibrating tube method
Temperature, K	Pressure, kPa	Mass density, kg/m3	uncertainty
298.15	101.325	856.67	0.13

System: benzene + 2,4,6,8-tetramethyl-1,3,5,7,2,4,6,8-tetroxatetrasilocane; phases: Liquid
Fixed: Pressure, kPa = 101
Property: Mass density, kg/m3 (Liquid); method: Vibrating tube method
Temperature, K	Mole fraction of 2,4,6,8-tetramethyl-1,3,5,7,2,4,6,8-tetroxatetrasilocane	Mass density, kg/m3	uncertainty
288.15	0.0497	898.88	0.13
288.15	0.0999	911.74	0.13
288.15	0.1499	922.78	0.12
288.15	0.1997	932.3	0.12
288.15	0.2501	940.72	0.12
288.15	0.3	948.04	0.12
288.15	0.35	954.56	0.12
288.15	0.3999	960.28	0.11
288.15	0.4498	965.46	0.11
288.15	0.4999	970.05	0.11
288.15	0.5498	974.22	0.11
288.15	0.5999	978.03	0.11
288.15	0.6486	981.36	0.11
288.15	0.7001	984.61	0.11
288.15	0.7495	987.43	0.11
288.15	0.8001	990.04	0.11
288.15	0.8499	992.42	0.11
288.15	0.8986	994.56	0.11
298.15	0.0497	888.24	0.13
298.15	0.0999	900.99	0.13
298.15	0.1499	911.91	0.13
298.15	0.1997	921.32	0.12
298.15	0.2501	929.65	0.12
298.15	0.3	936.87	0.12
298.15	0.35	943.15	0.12
298.15	0.3999	948.81	0.12
298.15	0.4498	953.89	0.11
298.15	0.4999	958.4	0.11
298.15	0.5498	962.44	0.11
298.15	0.5999	966.16	0.11
298.15	0.6486	969.41	0.11
298.15	0.7001	972.54	0.11
298.15	0.7495	975.28	0.11
298.15	0.8001	977.8	0.11
298.15	0.8499	980.12	0.11
298.15	0.8986	982.19	0.11
308.15	0.0497	877.55	0.14
308.15	0.0999	890.29	0.13
308.15	0.1499	901.26	0.13
308.15	0.1997	910.69	0.12
308.15	0.2501	918.93	0.12
308.15	0.3	926.1	0.12
308.15	0.35	932.28	0.12
308.15	0.3999	937.73	0.12
308.15	0.4498	942.65	0.12
308.15	0.4999	947.02	0.11
308.15	0.5498	950.92	0.11
308.15	0.5999	954.53	0.11
308.15	0.6486	957.65	0.11
308.15	0.7001	960.64	0.11
308.15	0.7495	963.27	0.11
308.15	0.8001	965.71	0.11
308.15	0.8499	967.91	0.11
308.15	0.8986	969.9	0.11

System: toluene + 2,4,6,8-tetramethyl-1,3,5,7,2,4,6,8-tetroxatetrasilocane; phases: Liquid
Fixed: Pressure, kPa = 101
Property: Mass density, kg/m3 (Liquid); method: Vibrating tube method
Temperature, K	Mole fraction of 2,4,6,8-tetramethyl-1,3,5,7,2,4,6,8-tetroxatetrasilocane	Mass density, kg/m3	uncertainty
288.15	0.0499	886.6	0.13
288.15	0.0999	899.94	0.13
288.15	0.15	911.67	0.13
288.15	0.2	921.98	0.12
288.15	0.25	931.15	0.12
288.15	0.3	939.31	0.12
288.15	0.3502	946.71	0.12
288.15	0.4	953.26	0.12
288.15	0.4501	959.23	0.11
288.15	0.5004	964.63	0.11
288.15	0.5504	969.56	0.11
288.15	0.5998	973.98	0.11
288.15	0.6497	978.02	0.11
288.15	0.6994	981.74	0.11
288.15	0.7497	985.15	0.11
288.15	0.8	988.34	0.11
288.15	0.8494	991.18	0.11
288.15	0.8995	993.85	0.11
298.15	0.0499	877.08	0.14
298.15	0.0999	890.19	0.13
298.15	0.15	901.66	0.13
298.15	0.2	911.75	0.13
298.15	0.25	920.71	0.12
298.15	0.3	928.7	0.12
298.15	0.3502	935.91	0.12
298.15	0.4	942.25	0.12
298.15	0.4501	948.05	0.12
298.15	0.5004	953.32	0.11
298.15	0.5504	958.11	0.11
298.15	0.5998	962.38	0.11
298.15	0.6497	966.26	0.11
298.15	0.6994	969.83	0.11
298.15	0.7497	973.12	0.11
298.15	0.8	976.19	0.11
298.15	0.8494	978.9	0.11
298.15	0.8995	981.45	0.11
308.15	0.0499	867.53	0.14
308.15	0.0999	880.4	0.13
308.15	0.15	891.68	0.13
308.15	0.2	901.57	0.13
308.15	0.25	910.33	0.12
308.15	0.3	918.15	0.12
308.15	0.3502	925.11	0.12
308.15	0.4	931.31	0.12
308.15	0.4501	936.94	0.12
308.15	0.5004	942.01	0.12
308.15	0.5504	946.61	0.12
308.15	0.5998	950.74	0.11
308.15	0.6497	954.47	0.11
308.15	0.6994	957.9	0.11
308.15	0.7497	961.05	0.11
308.15	0.8	963.99	0.11
308.15	0.8494	966.61	0.11
308.15	0.8995	969.04	0.11

System: 1,2-dimethylbenzene + 2,4,6,8-tetramethyl-1,3,5,7,2,4,6,8-tetroxatetrasilocane; phases: Liquid
Fixed: Pressure, kPa = 101
Property: Mass density, kg/m3 (Liquid); method: Vibrating tube method
Temperature, K	Mole fraction of 2,4,6,8-tetramethyl-1,3,5,7,2,4,6,8-tetroxatetrasilocane	Mass density, kg/m3	uncertainty
288.15	0.0499	896.79	0.13
288.15	0.1	908.22	0.13
288.15	0.15	918.4	0.12
288.15	0.2	927.56	0.12
288.15	0.25	935.82	0.12
288.15	0.2998	943.2	0.12
288.15	0.3501	949.98	0.12
288.15	0.3998	956.06	0.11
288.15	0.4496	961.56	0.11
288.15	0.4998	966.65	0.11
288.15	0.5497	971.24	0.11
288.15	0.5997	975.45	0.11
288.15	0.6496	979.25	0.11
288.15	0.7001	982.82	0.11
288.15	0.7502	986.05	0.11
288.15	0.7998	988.96	0.11
288.15	0.848	991.61	0.11
288.15	0.9002	994.23	0.11
298.15	0.0499	888.17	0.13
298.15	0.1	899.3	0.13
298.15	0.15	909.22	0.13
298.15	0.2	918.11	0.12
298.15	0.25	926.11	0.12
298.15	0.2998	933.25	0.12
298.15	0.3501	939.8	0.12
298.15	0.3998	945.66	0.12
298.15	0.4496	950.95	0.11
298.15	0.4998	955.84	0.11
298.15	0.5497	960.22	0.11
298.15	0.5997	964.25	0.11
298.15	0.6496	967.88	0.11
298.15	0.7001	971.27	0.11
298.15	0.7502	974.32	0.11
298.15	0.7998	977.09	0.11
298.15	0.848	979.54	0.11
298.15	0.9002	982.02	0.11
308.15	0.0499	879.45	0.13
308.15	0.1	890.28	0.13
308.15	0.15	899.95	0.13
308.15	0.2	908.59	0.12
308.15	0.25	916.33	0.12
308.15	0.2998	923.21	0.12
308.15	0.3501	929.53	0.12
308.15	0.3998	935.16	0.12
308.15	0.4496	940.25	0.12
308.15	0.4998	944.92	0.12
308.15	0.5497	949.1	0.11
308.15	0.5997	952.96	0.11
308.15	0.6496	956.36	0.11
308.15	0.7001	959.58	0.11
308.15	0.7502	962.44	0.11
308.15	0.7998	965.04	0.11
308.15	0.848	967.33	0.11
308.15	0.9002	969.65	0.11

System: 1,3-dimethylbenzene + 2,4,6,8-tetramethyl-1,3,5,7,2,4,6,8-tetroxatetrasilocane; phases: Liquid
Fixed: Pressure, kPa = 101
Property: Mass density, kg/m3 (Liquid); method: Vibrating tube method
Temperature, K	Mole fraction of 2,4,6,8-tetramethyl-1,3,5,7,2,4,6,8-tetroxatetrasilocane	Mass density, kg/m3	uncertainty
288.15	0.05	882	0.13
288.15	0.1001	894.34	0.13
288.15	0.15	905.42	0.13
288.15	0.1999	915.45	0.12
288.15	0.2498	924.55	0.12
288.15	0.2999	932.94	0.12
288.15	0.35	940.55	0.12
288.15	0.3995	947.41	0.12
288.15	0.4504	953.92	0.12
288.15	0.5	959.71	0.11
288.15	0.55	965.11	0.11
288.15	0.5996	970.04	0.11
288.15	0.65	974.69	0.11
288.15	0.6995	978.87	0.11
288.15	0.7495	982.81	0.11
288.15	0.7996	986.48	0.11
288.15	0.8498	989.84	0.11
288.15	0.8994	992.98	0.11
298.15	0.05	873.13	0.14
298.15	0.1001	885.16	0.13
298.15	0.15	896	0.13
298.15	0.1999	905.8	0.13
298.15	0.2498	914.65	0.12
298.15	0.2999	922.8	0.12
298.15	0.35	930.19	0.12
298.15	0.3995	936.84	0.12
298.15	0.4504	943.11	0.12
298.15	0.5	948.69	0.12
298.15	0.55	953.9	0.11
298.15	0.5996	958.65	0.11
298.15	0.65	963.1	0.11
298.15	0.6995	967.14	0.11
298.15	0.7495	970.92	0.11
298.15	0.7996	974.42	0.11
298.15	0.8498	977.65	0.11
298.15	0.8994	980.64	0.11
308.15	0.05	864.29	0.14
308.15	0.1001	876.06	0.13
308.15	0.15	886.6	0.13
308.15	0.1999	896.12	0.13
308.15	0.2498	904.73	0.12
308.15	0.2999	912.66	0.12
308.15	0.35	919.83	0.12
308.15	0.3995	926.34	0.12
308.15	0.4504	932.41	0.12
308.15	0.5	937.79	0.12
308.15	0.55	942.81	0.12
308.15	0.5996	947.34	0.12
308.15	0.65	951.62	0.11
308.15	0.6995	955.47	0.11
308.15	0.7495	959.07	0.11
308.15	0.7996	962.42	0.11
308.15	0.8498	965.47	0.11
308.15	0.8994	968.32	0.11

System: 1,4-dimethylbenzene + 2,4,6,8-tetramethyl-1,3,5,7,2,4,6,8-tetroxatetrasilocane; phases: Liquid
Fixed: Pressure, kPa = 101
Property: Mass density, kg/m3 (Liquid); method: Vibrating tube method
Temperature, K	Mole fraction of 2,4,6,8-tetramethyl-1,3,5,7,2,4,6,8-tetroxatetrasilocane	Mass density, kg/m3	uncertainty
288.15	0.0499	879.33	0.13
288.15	0.0999	892.03	0.13
288.15	0.1501	903.51	0.13
288.15	0.1999	913.85	0.12
288.15	0.25	923.25	0.12
288.15	0.2999	931.83	0.12
288.15	0.3501	939.62	0.12
288.15	0.4	946.73	0.12
288.15	0.4502	953.29	0.12
288.15	0.4997	959.21	0.11
288.15	0.5493	964.63	0.11
288.15	0.6001	969.79	0.11
288.15	0.6501	974.4	0.11
288.15	0.7002	978.67	0.11
288.15	0.7472	982.39	0.11
288.15	0.7998	986.27	0.11
288.15	0.8492	989.69	0.11
288.15	0.9002	992.92	0.11
298.15	0.0499	870.42	0.14
298.15	0.0999	882.82	0.13
298.15	0.1501	893.96	0.13
298.15	0.1999	904.11	0.13
298.15	0.25	913.34	0.12
298.15	0.2999	921.7	0.12
298.15	0.3501	929.23	0.12
298.15	0.4	936.18	0.12
298.15	0.4502	942.54	0.12
298.15	0.4997	948.26	0.12
298.15	0.5493	953.54	0.11
298.15	0.6001	958.45	0.11
298.15	0.6501	962.93	0.11
298.15	0.7002	967.02	0.11
298.15	0.7472	970.62	0.11
298.15	0.7998	974.32	0.11
298.15	0.8492	977.56	0.11
298.15	0.9002	980.61	0.11
308.15	0.0499	861.48	0.14
308.15	0.0999	873.61	0.13
308.15	0.1501	884.48	0.13
308.15	0.1999	894.33	0.13
308.15	0.25	903.35	0.13
308.15	0.2999	911.4	0.12
308.15	0.3501	918.8	0.12
308.15	0.4	925.53	0.12
308.15	0.4502	931.67	0.12
308.15	0.4997	937.19	0.12
308.15	0.5493	942.24	0.12
308.15	0.6001	947.03	0.12
308.15	0.6501	951.37	0.11
308.15	0.7002	955.31	0.11
308.15	0.7472	958.76	0.11
308.15	0.7998	962.3	0.11
308.15	0.8492	965.38	0.11
308.15	0.9002	968.28	0.11
