Measured thermophysical data. ACSExcess Molar Enthalpies of Mixtures of (+-)-Linalool  with Several Alkanols
Source: J. Chem. Eng. Data, 2011, 10.1021/je200457q
Compound 1: 3,7-dimethyl-1,6-octadien-3-ol, C10H18O, InChI=1S/C10H18O/c1-5-10(4,11)8-6-7-9(2)3/h5,7,11H,1,6,8H2,2-4H3
Compound 2: propan-1-ol, C3H8O, InChI=1S/C3H8O/c1-2-3-4/h4H,2-3H2,1H3
Compound 3: butan-1-ol, C4H10O, InChI=1S/C4H10O/c1-2-3-4-5/h5H,2-4H2,1H3
Compound 4: propan-2-ol, C3H8O, InChI=1S/C3H8O/c1-3(2)4/h3-4H,1-2H3
Compound 5: ethanol, C2H6O, InChI=1S/C2H6O/c1-2-3/h3H,2H2,1H3

System: 3,7-dimethyl-1,6-octadien-3-ol; phases: Liquid
Property: Mass density, kg/m3 (Liquid); method: Vibrating tube method
Temperature, K	Pressure, kPa	Mass density, kg/m3	uncertainty
298.15	101.325	857	0.62

System: propan-1-ol; phases: Liquid
Property: Mass density, kg/m3 (Liquid); method: Vibrating tube method
Temperature, K	Pressure, kPa	Mass density, kg/m3	uncertainty
298.15	101.325	799.56	0.15

System: butan-1-ol; phases: Liquid
Property: Mass density, kg/m3 (Liquid); method: Vibrating tube method
Temperature, K	Pressure, kPa	Mass density, kg/m3	uncertainty
298.15	101.325	805.71	0.15

System: propan-2-ol; phases: Liquid
Property: Mass density, kg/m3 (Liquid); method: Vibrating tube method
Temperature, K	Pressure, kPa	Mass density, kg/m3	uncertainty
298.15	101.325	781.23	0.15

System: ethanol; phases: Liquid
Property: Mass density, kg/m3 (Liquid); method: Vibrating tube method
Temperature, K	Pressure, kPa	Mass density, kg/m3	uncertainty
298.15	101.325	785.46	0.15

System: ethanol + 3,7-dimethyl-1,6-octadien-3-ol; phases: Liquid
Fixed: Pressure, kPa = 101
Property: Excess molar enthalpy (molar enthalpy of mixing), kJ/mol (Liquid); method: Flow calorimetry
Temperature, K	Mole fraction of 3,7-dimethyl-1,6-octadien-3-ol	Excess molar enthalpy (molar enthalpy of mixing), kJ/mol	uncertainty
283.15	0.047	-0.153	0.008
283.15	0.094	-0.31	0.011
283.15	0.19	-0.599	0.018
283.15	0.29	-0.773	0.022
283.15	0.387	-0.801	0.023
283.15	0.481	-0.749	0.021
283.15	0.585	-0.637	0.018
283.15	0.695	-0.46	0.013
283.15	0.78	-0.311	0.009
283.15	0.895	-0.14	0.005
283.15	0.946	-0.069	0.004
298.15	0.047	-0.153	0.009
298.15	0.094	-0.337	0.012
298.15	0.19	-0.634	0.019
298.15	0.29	-0.828	0.023
298.15	0.387	-0.867	0.024
298.15	0.481	-0.796	0.022
298.15	0.585	-0.69	0.02
298.15	0.695	-0.508	0.015
298.15	0.78	-0.386	0.011
298.15	0.895	-0.177	0.006
298.15	0.946	-0.088	0.004
313.15	0.047	-0.175	0.009
313.15	0.094	-0.351	0.012
313.15	0.19	-0.656	0.019
313.15	0.29	-0.847	0.024
313.15	0.387	-0.887	0.025
313.15	0.481	-0.833	0.024
313.15	0.585	-0.711	0.02
313.15	0.695	-0.535	0.015
313.15	0.78	-0.423	0.012
313.15	0.895	-0.198	0.007
313.15	0.946	-0.104	0.005
328.15	0.047	-0.173	0.009
328.15	0.094	-0.334	0.011
328.15	0.19	-0.6	0.017
328.15	0.29	-0.753	0.021
328.15	0.387	-0.791	0.022
328.15	0.481	-0.741	0.021
328.15	0.585	-0.637	0.018
328.15	0.695	-0.477	0.014
328.15	0.78	-0.366	0.011
328.15	0.895	-0.172	0.006
328.15	0.946	-0.097	0.004

System: propan-1-ol + 3,7-dimethyl-1,6-octadien-3-ol; phases: Liquid
Fixed: Pressure, kPa = 101
Property: Excess molar enthalpy (molar enthalpy of mixing), kJ/mol (Liquid); method: Flow calorimetry
Temperature, K	Mole fraction of 3,7-dimethyl-1,6-octadien-3-ol	Excess molar enthalpy (molar enthalpy of mixing), kJ/mol	uncertainty
283.15	0.048	-0.169	0.008
283.15	0.096	-0.323	0.011
283.15	0.188	-0.542	0.016
283.15	0.29	-0.639	0.018
283.15	0.383	-0.646	0.018
283.15	0.491	-0.596	0.017
283.15	0.584	-0.505	0.014
283.15	0.693	-0.37	0.011
283.15	0.794	-0.246	0.008
283.15	0.894	-0.113	0.004
283.15	0.945	-0.058	0.005
298.15	0.048	-0.164	0.008
298.15	0.096	-0.329	0.011
298.15	0.188	-0.57	0.017
298.15	0.29	-0.699	0.02
298.15	0.383	-0.704	0.02
298.15	0.491	-0.62	0.018
298.15	0.584	-0.519	0.015
298.15	0.693	-0.38	0.011
298.15	0.794	-0.257	0.008
298.15	0.894	-0.13	0.005
298.15	0.945	-0.068	0.002
313.15	0.048	-0.179	0.008
313.15	0.096	-0.329	0.011
313.15	0.188	-0.559	0.016
313.15	0.29	-0.676	0.019
313.15	0.383	-0.675	0.019
313.15	0.491	-0.596	0.017
313.15	0.584	-0.513	0.015
313.15	0.693	-0.392	0.011
313.15	0.794	-0.287	0.009
313.15	0.894	-0.149	0.005
313.15	0.945	-0.08	0.004
328.15	0.048	-0.172	0.007
328.15	0.096	-0.292	0.009
328.15	0.188	-0.468	0.014
328.15	0.29	-0.55	0.016
328.15	0.383	-0.553	0.016
328.15	0.491	-0.497	0.014
328.15	0.584	-0.417	0.012
328.15	0.693	-0.325	0.009
328.15	0.794	-0.24	0.007
328.15	0.894	-0.127	0.004
328.15	0.945	-0.069	0.003

System: propan-2-ol + 3,7-dimethyl-1,6-octadien-3-ol; phases: Liquid
Fixed: Pressure, kPa = 101
Property: Excess molar enthalpy (molar enthalpy of mixing), kJ/mol (Liquid); method: Flow calorimetry
Temperature, K	Mole fraction of 3,7-dimethyl-1,6-octadien-3-ol	Excess molar enthalpy (molar enthalpy of mixing), kJ/mol	uncertainty
283.15	0.024	-0.033	0.002
283.15	0.048	-0.046	0.002
283.15	0.097	-0.059	0.002
283.15	0.195	-0.073	0.002
283.15	0.292	-0.078	0.003
283.15	0.392	-0.082	0.003
283.15	0.49	-0.082	0.003
283.15	0.592	-0.073	0.002
283.15	0.693	-0.05	0.002
283.15	0.796	-0.019	0.001
283.15	0.894	0.003	0.001
283.15	0.948	0.002	0.001
298.15	0.024	-0.031	0.002
298.15	0.048	-0.049	0.002
298.15	0.097	-0.062	0.002
298.15	0.195	-0.073	0.002
298.15	0.292	-0.072	0.002
298.15	0.392	-0.068	0.002
298.15	0.49	-0.056	0.002
298.15	0.592	-0.037	0.002
298.15	0.693	-0.012	0.001
298.15	0.796	0.006	0.001
298.15	0.894	0.009	0.001
298.15	0.948	0.003	0.001
313.15	0.024	-0.024	0.002
313.15	0.048	-0.038	0.002
313.15	0.097	-0.048	0.002
313.15	0.195	-0.045	0.002
313.15	0.292	-0.035	0.001
313.15	0.392	-0.023	0.001
313.15	0.49	-0.007	0.001
313.15	0.592	0.008	0.001
313.15	0.693	0.02	0.001
313.15	0.796	0.019	0.001
313.15	0.894	0.007	0.001
313.15	0.948	0.003	0.001
328.15	0.024	-0.008	0.001
328.15	0.048	-0.01	0.001
328.15	0.097	-0.003	0.001
328.15	0.195	0.026	0.001
328.15	0.292	0.055	0.002
328.15	0.392	0.077	0.003
328.15	0.49	0.09	0.003
328.15	0.592	0.092	0.003
328.15	0.693	0.077	0.003
328.15	0.796	0.055	0.002
328.15	0.894	0.024	0.001
328.15	0.948	0.011	0.001

System: butan-1-ol + 3,7-dimethyl-1,6-octadien-3-ol; phases: Liquid
Fixed: Pressure, kPa = 101
Property: Excess molar enthalpy (molar enthalpy of mixing), kJ/mol (Liquid); method: Flow calorimetry
Temperature, K	Mole fraction of 3,7-dimethyl-1,6-octadien-3-ol	Excess molar enthalpy (molar enthalpy of mixing), kJ/mol	uncertainty
283.15	0.042	-0.013	0.001
283.15	0.085	-0.021	0.001
283.15	0.174	-0.022	0.001
283.15	0.265	-0.012	0.001
283.15	0.359	-0.001	0.001
283.15	0.457	0.009	0.001
283.15	0.559	0.024	0.001
283.15	0.661	0.04	0.002
283.15	0.771	0.057	0.002
283.15	0.884	0.059	0.002
283.15	0.943	0.044	0.002
298.15	0.042	-0.03	0.002
298.15	0.085	-0.06	0.002
298.15	0.174	-0.095	0.003
298.15	0.265	-0.101	0.003
298.15	0.359	-0.091	0.003
298.15	0.457	-0.076	0.002
298.15	0.559	-0.057	0.002
298.15	0.661	-0.028	0.001
298.15	0.771	0.003	0.001
298.15	0.884	0.026	0.001
298.15	0.943	0.022	0.001
313.15	0.042	-0.03	0.002
313.15	0.085	-0.066	0.003
313.15	0.174	-0.146	0.005
313.15	0.265	-0.195	0.006
313.15	0.359	-0.215	0.006
313.15	0.457	-0.213	0.006
313.15	0.559	-0.187	0.006
313.15	0.661	-0.147	0.004
313.15	0.771	-0.092	0.003
313.15	0.884	-0.031	0.002
313.15	0.943	-0.008	0.001
328.15	0.042	-0.022	0.003
328.15	0.085	-0.092	0.004
328.15	0.174	-0.22	0.007
328.15	0.265	-0.303	0.009
328.15	0.359	-0.343	0.01
328.15	0.457	-0.35	0.01
328.15	0.559	-0.326	0.009
328.15	0.661	-0.261	0.008
328.15	0.771	-0.184	0.006
328.15	0.884	-0.088	0.003
328.15	0.943	-0.037	0.002
