Measured thermophysical data. Influence of Some Ionic Liquids Containing the Trifluoromethanesulfonate Anion on the Vapor Liquid Equilibria of the Acetone + Methanol System
Source: J. Chem. Eng. Data, 2011, 10.1021/je200305n
Compound 1: 3-butyl-1-ethyl-1H-imidazolium trifluoromethanesulfonate (1:1), C10H17F3N2O3S, InChI=1S/C9H17N2.CHF3O3S/c1-3-5-6-11-8-7-10(4-2)9-11;2-1(3,4)8(5,6)7/h7-9H,3-6H2,1-2H3;(H,5,6,7)/q+1;/p-1, purity 98%
Compound 2: 1-butyl-1-methylpyrrolidinium trifluoromethanesulfonate, C10H20F3NO3S, InChI=1S/C9H20N.CHF3O3S/c1-3-4-7-10(2)8-5-6-9-10;2-1(3,4)8(5,6)7/h3-9H2,1-2H3;(H,5,6,7)/q+1;/p-1, purity 98%
Compound 3: acetone, C3H6O, InChI=1S/C3H6O/c1-3(2)4/h1-2H3, purity 99.5%
Compound 4: methanol, CH4O, InChI=1S/CH4O/c1-2/h2H,1H3, purity 99.8%

System: acetone; phases: Liquid, Gas
Property: Vapor or sublimation pressure, kPa (Liquid); method: EBULLIO:UFactor:3
Temperature, K	Vapor or sublimation pressure, kPa	uncertainty
329	100	1.3

System: methanol; phases: Liquid, Gas
Property: Vapor or sublimation pressure, kPa (Liquid); method: EBULLIO:UFactor:3
Temperature, K	Vapor or sublimation pressure, kPa	uncertainty
337.42	100	1.3

System: acetone + 3-butyl-1-ethyl-1H-imidazolium trifluoromethanesulfonate (1:1); phases: Liquid, Gas
Fixed: Pressure, kPa = 100
Property: Boiling temperature at pressure P, K (Liquid); method: EBULLIO:UFactor:3
Mole fraction of 3-butyl-1-ethyl-1H-imidazolium trifluoromethanesulfonate (1:1)	Boiling temperature at pressure P, K	uncertainty
0	329	0.26
0.0146	329.41	0.26
0.0283	329.77	0.26
0.045	330.21	0.26
0.054	330.4	0.27
0.0606	330.62	0.26
0.0759	331.06	0.26
0.0884	331.38	0.26
0.1036	331.89	0.26
0.1173	332.27	0.26
0.1313	332.77	0.26
0.1447	333.23	0.26
0.1573	333.67	0.26
0.1712	334.23	0.26
0.1842	334.66	0.26
0.1983	335.32	0.26
0.209	335.74	0.26
0.211	336.08	0.27
0.221	336.24	0.26
0.2334	336.76	0.26
0.2467	337.52	0.26
0.2542	337.88	0.26
0.2661	338.42	0.26
0.2775	339.02	0.26
0.2871	339.53	0.26
0.2969	340.12	0.26
0.3071	340.66	0.26
0.3175	341.41	0.26
0.3246	341.84	0.26
0.3336	342.46	0.26
0.3424	343.11	0.26
0.3504	343.66	0.26
0.3587	344.25	0.26
0.3672	344.89	0.26
0.3776	345.41	0.26
0.3871	346.24	0.26
0.3971	346.87	0.26
0.4054	347.46	0.26
0.4146	348.22	0.26
0.4196	348.78	0.26
0.4291	349.54	0.26
0.4439	350.7	0.26
0.4484	350.9	0.26

System: methanol + 3-butyl-1-ethyl-1H-imidazolium trifluoromethanesulfonate (1:1); phases: Liquid, Gas
Fixed: Pressure, kPa = 100
Property: Boiling temperature at pressure P, K (Liquid); method: EBULLIO:UFactor:3
Mole fraction of 3-butyl-1-ethyl-1H-imidazolium trifluoromethanesulfonate (1:1)	Boiling temperature at pressure P, K	uncertainty
0	337.42	0.26
0.0108	337.79	0.26
0.0204	338.07	0.26
0.0327	338.46	0.26
0.0444	338.8	0.26
0.056	339.12	0.26
0.0683	339.45	0.26
0.0807	339.99	0.26
0.092	340.33	0.26
0.1014	340.77	0.26
0.1094	341.02	0.26
0.1201	341.4	0.26
0.1314	341.85	0.26
0.1426	342.29	0.26
0.1531	342.68	0.26
0.1652	343.26	0.26
0.1752	343.62	0.26
0.1863	344.18	0.26
0.1974	344.74	0.26
0.2083	345.24	0.26
0.2185	345.72	0.26
0.2286	346.3	0.26
0.229	346.3	0.27
0.2397	346.93	0.26
0.2522	347.63	0.26
0.2656	348.34	0.26
0.2752	349.03	0.26
0.2841	349.25	0.26
0.292	349.87	0.26
0.2978	350.26	0.26
0.3086	350.65	0.26
0.3191	351.4	0.26
0.3291	352.15	0.26
0.3432	352.94	0.26
0.3563	354.01	0.26
0.3682	354.68	0.26
0.3816	355.9	0.26
0.3952	357.03	0.26
0.4026	357.6	0.26
0.4184	358.88	0.26
0.427	359.58	0.26
0.4365	360.45	0.26
0.4466	361.17	0.26

System: acetone + 1-butyl-1-methylpyrrolidinium trifluoromethanesulfonate; phases: Liquid, Gas
Fixed: Pressure, kPa = 100
Property: Boiling temperature at pressure P, K (Liquid); method: EBULLIO:UFactor:3
Mole fraction of 1-butyl-1-methylpyrrolidinium trifluoromethanesulfonate	Boiling temperature at pressure P, K	uncertainty
0	329	0.26
0.0126	329.31	0.26
0.0258	329.65	0.26
0.0435	330.06	0.26
0.054	330.32	0.27
0.0601	330.46	0.26
0.0766	330.86	0.26
0.0934	331.27	0.26
0.1111	331.73	0.26
0.1318	332.34	0.26
0.1491	332.85	0.26
0.1633	333.28	0.26
0.1745	333.69	0.26
0.1853	334.06	0.26
0.2006	334.61	0.26
0.212	335.13	0.27
0.2144	335.21	0.26
0.2334	335.81	0.26
0.2447	336.33	0.26
0.2585	336.81	0.26
0.2663	337.23	0.26
0.2807	337.77	0.26
0.2867	338.07	0.26
0.2922	338.57	0.26
0.3052	339.12	0.26
0.3125	339.45	0.26
0.321	340.04	0.26
0.332	340.6	0.26
0.3433	341.07	0.26
0.3551	341.67	0.26
0.3648	342.57	0.26
0.3768	343.19	0.26
0.3837	343.9	0.26
0.3953	344.38	0.26
0.407	345.13	0.26
0.4122	345.62	0.26
0.4223	346.27	0.26

System: methanol + 1-butyl-1-methylpyrrolidinium trifluoromethanesulfonate; phases: Liquid, Gas
Fixed: Pressure, kPa = 100
Property: Boiling temperature at pressure P, K (Liquid); method: EBULLIO:UFactor:3
Mole fraction of 1-butyl-1-methylpyrrolidinium trifluoromethanesulfonate	Boiling temperature at pressure P, K	uncertainty
0	337.42	0.26
0.013	337.82	0.26
0.0248	338.11	0.26
0.0402	338.49	0.26
0.055	338.84	0.27
0.0552	338.84	0.26
0.0667	338.96	0.26
0.0787	339.19	0.26
0.0897	339.52	0.26
0.1032	340.19	0.26
0.1153	340.52	0.26
0.1265	340.99	0.26
0.1369	341.29	0.26
0.1481	341.93	0.26
0.1596	342.38	0.26
0.1702	342.71	0.26
0.1818	343.24	0.26
0.1946	343.75	0.26
0.2096	344.42	0.26
0.2228	345.12	0.26
0.235	345.7	0.27
0.2352	345.7	0.26
0.2472	346.18	0.26
0.2579	346.87	0.26
0.2675	347.37	0.26
0.2786	347.92	0.26
0.2898	348.54	0.26
0.301	349.22	0.26
0.3156	349.94	0.26
0.3252	350.47	0.26
0.3374	351.4	0.26
0.3513	352.1	0.26
0.3554	352.63	0.26
0.3623	353.17	0.26
0.3747	353.77	0.26
0.385	354.73	0.26
0.3983	355.69	0.26
0.4101	356.52	0.26
0.4191	357.27	0.26
0.4288	358.2	0.26
0.4376	358.88	0.26
0.4519	360.08	0.26

System: methanol + acetone + 3-butyl-1-ethyl-1H-imidazolium trifluoromethanesulfonate (1:1); phases: Liquid, Gas
Fixed: Pressure, kPa = 100
Property: Boiling temperature at pressure P, K (Liquid); method: EBULLIO:UFactor:3
Mole fraction of 3-butyl-1-ethyl-1H-imidazolium trifluoromethanesulfonate (1:1)	Solvent: Mole fraction of acetone	Boiling temperature at pressure P, K	uncertainty
0.054	0.972	330.25	0.27
0.054	1	330.4	0.27
0.055	0.181	334.68	0.28
0.055	0.25	333.51	0.28
0.055	0.325	332.51	0.28
0.055	0.396	331.71	0.28
0.055	0.519	330.71	0.27
0.055	0.588	330.32	0.27
0.055	0.665	330.05	0.27
0.055	0.742	329.88	0.27
0.055	0.821	329.86	0.27
0.055	0.883	329.97	0.27
0.056	0	339.12	0.27
0.056	0.121	335.88	0.28
0.056	0.459	331.11	0.27
0.056	0.935	330.11	0.27
0.057	0.032	338.18	0.28
0.057	0.072	337.08	0.28
0.211	1	336.08	0.27
0.215	0.979	335.97	0.34
0.218	0.949	336.1	0.27
0.22	0.907	336.28	0.29
0.224	0.906	336.55	0.29
0.227	0.837	336.87	0.27
0.229	0	346.3	0.27
0.229	0.754	337.35	0.27
0.23	0.675	337.76	0.27
0.231	0.593	338.32	0.27
0.232	0.513	338.94	0.28
0.233	0.026	345.4	0.39
0.233	0.175	343	0.28
0.234	0.069	344.74	0.27
0.234	0.43	339.83	0.28
0.235	0.259	341.87	0.28
0.235	0.343	340.86	0.28
0.236	0.118	344.1	0.27

System: methanol + acetone + 3-butyl-1-ethyl-1H-imidazolium trifluoromethanesulfonate (1:1); phases: Gas, Liquid
Fixed: Pressure, kPa = 100
Property: Mole fraction of acetone (Gas); method: Chromatography
Mole fraction of 3-butyl-1-ethyl-1H-imidazolium trifluoromethanesulfonate (1:1)	Solvent: Mole fraction of acetone	Mole fraction of acetone	uncertainty
0.054	0.972	0.972	0.003
0.054	1	1	
0.055	0.181	0.282	0.004
0.055	0.25	0.358	0.005
0.055	0.325	0.428	0.006
0.055	0.396	0.506	0.007
0.055	0.519	0.601	0.005
0.055	0.588	0.652	0.005
0.055	0.665	0.711	0.004
0.055	0.742	0.771	0.004
0.055	0.821	0.835	0.003
0.055	0.883	0.889	0.003
0.056	0	0	
0.056	0.121	0.2	0.004
0.056	0.459	0.557	0.006
0.056	0.935	0.936	0.003
0.057	0.032	0.061	0.004
0.057	0.072	0.129	0.004
0.211	1	1	
0.215	0.979	0.986	0.003
0.218	0.949	0.964	0.003
0.22	0.907	0.929	0.003
0.224	0.906	0.93	0.003
0.227	0.837	0.875	0.003
0.229	0	0	
0.229	0.754	0.807	0.003
0.23	0.675	0.741	0.004
0.231	0.593	0.672	0.004
0.232	0.513	0.606	0.005
0.233	0.026	0.049	0.005
0.233	0.175	0.259	0.004
0.234	0.069	0.121	0.004
0.234	0.43	0.532	0.006
0.235	0.259	0.364	0.005
0.235	0.343	0.449	0.005
0.236	0.118	0.188	0.004

System: methanol + acetone + 1-butyl-1-methylpyrrolidinium trifluoromethanesulfonate; phases: Liquid, Gas
Fixed: Pressure, kPa = 100
Property: Boiling temperature at pressure P, K (Liquid); method: EBULLIO:UFactor:3
Mole fraction of 1-butyl-1-methylpyrrolidinium trifluoromethanesulfonate	Solvent: Mole fraction of acetone	Boiling temperature at pressure P, K	uncertainty
0.054	1	330.32	0.27
0.055	0	338.84	0.27
0.055	0.889	329.93	0.27
0.055	0.937	330.04	0.27
0.055	0.974	330.16	0.27
0.056	0.175	334.58	0.27
0.056	0.25	333.49	0.27
0.056	0.326	332.54	0.27
0.056	0.53	330.84	0.27
0.056	0.598	330.42	0.27
0.056	0.678	330.14	0.27
0.056	0.755	329.91	0.27
0.056	0.825	329.89	0.27
0.057	0.114	335.89	0.27
0.057	0.401	331.76	0.27
0.057	0.472	331.22	0.27
0.058	0.026	338.11	0.28
0.058	0.065	337.06	0.27
0.212	1	335.13	0.27
0.215	0.979	335.12	0.27
0.219	0.95	335.25	0.27
0.221	0.908	335.48	0.27
0.223	0.855	335.7	0.27
0.227	0.721	336.47	0.27
0.227	0.793	336.04	0.27
0.231	0.648	337	0.27
0.232	0.573	337.59	0.27
0.234	0.502	338.23	0.27
0.235	0	345.7	0.27
0.237	0.032	344.82	0.27
0.238	0.425	339.11	0.27
0.24	0.073	344.32	0.27
0.241	0.111	343.57	0.27
0.241	0.161	342.61	0.27
0.241	0.339	340.29	0.27
0.244	0.243	341.66	0.27

System: methanol + acetone + 1-butyl-1-methylpyrrolidinium trifluoromethanesulfonate; phases: Gas, Liquid
Fixed: Pressure, kPa = 100
Property: Mole fraction of acetone (Gas); method: Chromatography
Mole fraction of methanol	Solvent: Mole fraction of acetone	Mole fraction of acetone	uncertainty
0.054	1	1	
0.055	0	0	
0.055	0.889	0.892	0.003
0.055	0.937	0.937	0.003
0.055	0.974	0.973	0.003
0.056	0.175	0.272	0.004
0.056	0.25	0.352	0.005
0.056	0.326	0.445	0.005
0.056	0.53	0.613	0.005
0.056	0.598	0.664	0.005
0.056	0.678	0.721	0.004
0.056	0.755	0.78	0.004
0.056	0.825	0.841	0.003
0.057	0.114	0.188	0.004
0.057	0.401	0.51	0.006
0.057	0.472	0.566	0.006
0.058	0.026	0.049	0.004
0.058	0.065	0.114	0.004
0.212	1	1	
0.215	0.979	0.985	0.003
0.219	0.95	0.963	0.003
0.221	0.908	0.931	0.003
0.223	0.855	0.891	0.003
0.227	0.721	0.783	0.004
0.227	0.793	0.843	0.003
0.231	0.648	0.726	0.004
0.232	0.573	0.666	0.005
0.234	0.502	0.601	0.005
0.235	0	0	
0.237	0.032	0.058	0.004
0.238	0.425	0.534	0.006
0.24	0.073	0.121	0.004
0.241	0.111	0.177	0.004
0.241	0.161	0.253	0.004
0.241	0.339	0.45	0.005
0.244	0.243	0.349	0.005
