Measured thermophysical data. Ternary Liquid Liquid Equilibria of Water + Prop-2-enoic Acid + Isobutyl Ethanoate at Different Temperatures
Source: J. Chem. Eng. Data, 2011, 10.1021/je2003226
Compound 1: propenoic acid, C3H4O2, InChI=1S/C3H4O2/c1-2-3(4)5/h2H,1H2,(H,4,5), purity 99.5%
Compound 2: 2-methylpropyl ethanoate, C6H12O2, InChI=1S/C6H12O2/c1-5(2)4-8-6(3)7/h5H,4H2,1-3H3, purity 99.5%
Compound 3: water, H2O, InChI=1S/H2O/h1H2

System: propenoic acid + 2-methylpropyl ethanoate + water; phases: Liquid mixture 1, Liquid mixture 2
Fixed: Pressure, kPa = 101
Property: Mass fraction of propenoic acid (Liquid mixture 1); method: Chromatography
Property: Mass fraction of propenoic acid (Liquid mixture 2); method: Chromatography
Property: Mass fraction of water (Liquid mixture 2); method: Chromatography
Temperature, K	Mass fraction of water	Mass fraction of propenoic acid	uncertainty	Mass fraction of propenoic acid	uncertainty	Mass fraction of water	uncertainty
293.15	0.0695	0		0		0.9967	
293.15	0.0877	0.0895	0.0556	0.0148	0.0028	0.9809	
293.15	0.1285	0.1622	0.0523	0.0383	0.0028	0.9568	
293.15	0.1584	0.2051	0.0455	0.0613	0.0028	0.9332	
293.15	0.1941	0.2502	0.0388	0.0856	0.0028	0.9062	
293.15	0.2213	0.2789	0.0394	0.1098	0.0028	0.8801	
293.15	0.2583	0.3082	0.0329	0.1398	0.0028	0.8467	
293.15	0.3119	0.3405	0.0294	0.1836	0.0029	0.7953	
293.15	0.3914	0.3625	0.0283	0.2425	0.0031	0.7196	
303.15	0.0493	0		0		0.997	
303.15	0.0759	0.0631	0.0479	0.0101	0.0028	0.9868	
303.15	0.0985	0.1119	0.0544	0.0205	0.0028	0.9758	
303.15	0.1387	0.1692	0.0395	0.0431	0.0027	0.9516	
303.15	0.1503	0.1908	0.041	0.0493	0.0025	0.9443	
303.15	0.2286	0.2643	0.0383	0.0944	0.0027	0.8937	
303.15	0.2713	0.2972	0.0284	0.1202	0.0027	0.8628	
303.15	0.3543	0.3086	0.0277	0.1606	0.0027	0.8112	
303.15	0.4641	0.3198	0.0274	0.2265	0.0029	0.7141	
313.15	0.0283	0		0		0.9946	
313.15	0.0472	0.0806	0.0756	0.0189	0.0027	0.9722	
313.15	0.0818	0.1703	0.0627	0.0405	0.0027	0.9496	
313.15	0.1192	0.2305	0.0471	0.0595	0.0027	0.9285	
313.15	0.1529	0.2706	0.0356	0.0759	0.0027	0.9089	
313.15	0.2023	0.302	0.0346	0.1005	0.0028	0.8829	
313.15	0.2415	0.3407	0.0297	0.1182	0.0028	0.8623	
313.15	0.2986	0.3457	0.0286	0.1609	0.0028	0.8118	
313.15	0.3698	0.3801	0.0303	0.2106	0.003	0.7503	
