Measured thermophysical data. Liquid Liquid Equilibria of the Ternary Systems Undecane + 1,4-Diethylbenzene + Tetrahydrothiophene 1,1-Dioxide and Tridecane + 1,4-Diethylbenzene + Tetrahydrothiophene 1,1-Dioxide at T = (323.15, 348.15, and 373.15) K
Source: J. Chem. Eng. Data, 2011, 10.1021/je200465z
Compound 1: sulfolane, C4H8O2S, InChI=1S/C4H8O2S/c5-7(6)3-1-2-4-7/h1-4H2
Compound 2: undecane, C11H24, InChI=1S/C11H24/c1-3-5-7-9-11-10-8-6-4-2/h3-11H2,1-2H3
Compound 3: tridecane, C13H28, InChI=1S/C13H28/c1-3-5-7-9-11-13-12-10-8-6-4-2/h3-13H2,1-2H3
Compound 4: 1,4-diethylbenzene, C10H14, InChI=1S/C10H14/c1-3-9-5-7-10(4-2)8-6-9/h5-8H,3-4H2,1-2H3

System: sulfolane + undecane; phases: Liquid mixture 1, Liquid mixture 2
Fixed: Pressure, kPa = 101
Property: Mole fraction of undecane (Liquid mixture 1); method: Chromatography
Temperature, K	Mole fraction of undecane	uncertainty
323.15	0.9948	0.0052
348.15	0.9902	0.0098
373.15	0.982	0.01

System: sulfolane + undecane; phases: Liquid mixture 2, Liquid mixture 1
Fixed: Pressure, kPa = 101
Property: Mole fraction of undecane (Liquid mixture 2); method: Chromatography
Temperature, K	Mole fraction of undecane	uncertainty
323.15	0.0029	0.0029
348.15	0.0052	0.0052
373.15	0.0073	0.0073

System: sulfolane + tridecane; phases: Liquid mixture 1, Liquid mixture 2
Fixed: Pressure, kPa = 101
Property: Mole fraction of tridecane (Liquid mixture 1); method: Chromatography
Temperature, K	Mole fraction of tridecane	uncertainty
323.15	0.9939	0.0061
348.15	0.9888	0.01
373.15	0.979	0.01

System: sulfolane + tridecane; phases: Liquid mixture 2, Liquid mixture 1
Fixed: Pressure, kPa = 101
Property: Mole fraction of tridecane (Liquid mixture 2); method: Chromatography
Temperature, K	Mole fraction of tridecane	uncertainty
323.15	0.0015	0.0015
348.15	0.0026	0.0026
373.15	0.0045	0.0045

System: 1,4-diethylbenzene + sulfolane + undecane; phases: Liquid mixture 1, Liquid mixture 2
Fixed: Pressure, kPa = 101
Property: Mole fraction of undecane (Liquid mixture 1); method: Chromatography
Property: Mole fraction of undecane (Liquid mixture 2); method: Chromatography
Property: Mole fraction of 1,4-diethylbenzene (Liquid mixture 2); method: Chromatography
Temperature, K	Mole fraction of 1,4-diethylbenzene	Mole fraction of undecane	uncertainty	Mole fraction of undecane	uncertainty	Mole fraction of 1,4-diethylbenzene	uncertainty
323.15	0	0.9948	0.0052	0.0029	0.0029	0	
323.15	0.1331	0.8607	0.0143	0.003	0.003	0.0151	
323.15	0.2394	0.7495	0.0146	0.0032	0.0032	0.0295	
323.15	0.3355	0.6476	0.0148	0.0035	0.0035	0.0431	
323.15	0.4311	0.5452	0.0152	0.0036	0.0036	0.0576	
323.15	0.5319	0.4326	0.0156	0.0038	0.0038	0.0765	
323.15	0.6336	0.31	0.0165	0.0038	0.0038	0.1068	
323.15	0.6998	0.2144	0.0176	0.004	0.004	0.1663	
348.15	0	0.9902	0.0098	0.0052	0.0052	0	
348.15	0.1354	0.8503	0.0144	0.0055	0.0055	0.0194	
348.15	0.2359	0.7457	0.0147	0.0058	0.0058	0.0339	
348.15	0.3367	0.6374	0.015	0.0061	0.0061	0.0515	
348.15	0.4246	0.54	0.0157	0.0064	0.0064	0.0727	
348.15	0.5248	0.4177	0.0168	0.0069	0.0069	0.1057	
348.15	0.6068	0.2993	0.0197	0.0075	0.0075	0.1457	
348.15	0.6599	0.1928	0.0225	0.0083	0.0083	0.1905	
373.15	0	0.982	0.01	0.0073	0.0073	0	
373.15	0.1239	0.8579	0.0146	0.0074	0.0074	0.0212	
373.15	0.2282	0.7395	0.0153	0.0082	0.0082	0.0401	
373.15	0.3238	0.6305	0.0158	0.0093	0.0093	0.0612	
373.15	0.4021	0.5312	0.0174	0.0102	0.01	0.0805	
373.15	0.491	0.3998	0.0201	0.0109	0.01	0.1164	
373.15	0.562	0.2554	0.0227	0.0104	0.01	0.1549	
373.15	0.5702	0.1506	0.033	0.0104	0.01	0.1943	

System: 1,4-diethylbenzene + sulfolane + tridecane; phases: Liquid mixture 1, Liquid mixture 2
Fixed: Pressure, kPa = 101
Property: Mole fraction of tridecane (Liquid mixture 1); method: Chromatography
Property: Mole fraction of tridecane (Liquid mixture 2); method: Chromatography
Property: Mole fraction of 1,4-diethylbenzene (Liquid mixture 2); method: Chromatography
Temperature, K	Mole fraction of 1,4-diethylbenzene	Mole fraction of tridecane	uncertainty	Mole fraction of tridecane	uncertainty	Mole fraction of 1,4-diethylbenzene	uncertainty
323.15	0	0.9939	0.0061	0.0015	0.0015	0	
323.15	0.1262	0.8671	0.0143	0.0016	0.0016	0.0122	
323.15	0.2356	0.7549	0.0145	0.0017	0.0017	0.0237	
323.15	0.3641	0.6216	0.0148	0.0019	0.0019	0.043	
323.15	0.4673	0.5108	0.0152	0.002	0.002	0.0579	
323.15	0.5614	0.4057	0.0156	0.0023	0.0023	0.0825	
323.15	0.6572	0.2904	0.0177	0.0026	0.0026	0.1126	
323.15	0.7286	0.1622	0.0206	0.0028	0.0028	0.1686	
348.15	0	0.9888	0.01	0.0026	0.0026	0	
348.15	0.1276	0.8633	0.0143	0.0028	0.0028	0.0158	
348.15	0.2538	0.7322	0.0147	0.003	0.003	0.0338	
348.15	0.3721	0.6041	0.0151	0.0035	0.0035	0.057	
348.15	0.4676	0.4962	0.0158	0.0038	0.0038	0.0728	
348.15	0.5662	0.375	0.0171	0.0045	0.0045	0.1045	
348.15	0.6469	0.2574	0.0196	0.0056	0.0056	0.1436	
348.15	0.6866	0.1632	0.0258	0.0067	0.0067	0.1908	
373.15	0	0.979	0.01	0.0045	0.0045	0	
373.15	0.1545	0.8236	0.0143	0.0055	0.0055	0.0247	
373.15	0.2495	0.7246	0.015	0.0065	0.0065	0.0402	
373.15	0.3378	0.6212	0.0158	0.0067	0.0067	0.0598	
373.15	0.4308	0.5083	0.0171	0.0072	0.0072	0.0821	
373.15	0.5343	0.3588	0.0192	0.0081	0.0081	0.1246	
373.15	0.5923	0.2427	0.0224	0.0083	0.0083	0.167	
373.15	0.5998	0.1475	0.0338	0.0114	0.01	0.2299	
