Measured thermophysical data. Vapor-Liquid Equilibria Measurements of the Methane +  Pentane and Methane + Hexane Systems at Temperatures  from (173 to 330) K and Pressures to 14 MPa
Source: J. Chem. Eng. Data, 2011, 10.1021/je200101x
Compound 1: methane, CH4, InChI=1S/CH4/h1H4, purity 99.995%
Compound 2: pentane, C5H12, InChI=1S/C5H12/c1-3-5-4-2/h3-5H2,1-2H3, purity 99%
Compound 3: hexane, C6H14, InChI=1S/C6H14/c1-3-5-6-4-2/h3-6H2,1-2H3, purity 99%

System: methane + pentane; phases: Liquid, Gas
Property: Vapor or sublimation pressure, kPa (Liquid); method: Closed cell (Static) method
Mole fraction of methane	Temperature, K	Vapor or sublimation pressure, kPa	uncertainty
0.506	243.21	7641	99
0.514	243.31	7943	172
0.532	233.26	7273	120
0.536	223.31	6444	121
0.557	223.28	6594	112
0.594	213.33	5896	123
0.668	203.42	5183	153
0.938	188.43	3937	118
0.996	173.43	2417	73

System: methane + pentane; phases: Gas, Liquid
Property: Mole fraction of pentane (Gas); method: Chromatography
Mole fraction of methane	Temperature, K	Mole fraction of pentane	uncertainty
0.506	243.21	0.0094	0.0008
0.514	243.31	0.0098	0.0008
0.532	233.26	0.0068	0.0005
0.536	223.31	0.0043	0.0003
0.557	223.28	0.0048	0.0005
0.594	213.33	0.0034	0.0002
0.668	203.42	0.002	0.0002
0.938	188.43	0.0006	0.0002
0.996	173.43	0.0001	0.0001

System: methane + hexane; phases: Liquid, Gas
Property: Vapor or sublimation pressure, kPa (Liquid); method: Closed cell (Static) method
Mole fraction of methane	Temperature, K	Vapor or sublimation pressure, kPa	uncertainty
0.112	303.15	2070	20
0.122	318.15	2430	20
0.123	333.15	2630	20
0.136	288.15	2350	20
0.142	273.15	2290	20
0.152	253.15	2040	10
0.182	233.15	1980	20
0.196	333.15	4570	40
0.214	203.15	1430	20
0.221	288.15	4200	40
0.228	318.15	5110	60
0.233	273.15	4190	40
0.252	213.15	2160	20
0.259	253.15	3970	20
0.267	303.15	5870	60
0.295	333.15	7370	80
0.299	288.15	6220	60
0.306	273.15	6030	60
0.314	233.15	4060	40
0.315	273.15	6110	60
0.323	318.15	7750	90
0.352	193.15	2060	20
0.353	303.15	8390	90
0.361	253.15	6150	30
0.382	203.15	3030	40
0.386	333.15	10150	110
0.4	288.15	8930	90
0.401	273.15	8130	90
0.413	183.15	1860	20
0.415	213.15	4080	40
0.415	233.15	5910	60
0.429	318.15	11180	130
0.445	303.15	11070	130
0.477	253.15	9130	40
0.498	273.15	10850	110
0.502	333.15	13770	150
0.516	288.15	12320	130
0.517	233.15	7990	90
0.519	193.15	3260	40
0.529	318.15	14210	150
0.535	193.15	3390	40
0.546	203.15	4590	40
0.546	303.15	14190	150
0.552	183.15	2510	20
0.575	253.15	11870	50
0.592	213.15	6400	60
0.611	273.15	14230	150
0.647	233.15	10360	110
0.677	203.15	6130	60
0.693	183.15	3030	40
0.698	183.15	3040	40
0.707	193.15	4940	40
0.714	193.15	4880	40
0.955	183.15	3310	40
0.959	233.15	12870	130

System: methane + hexane; phases: Gas, Liquid
Property: Mole fraction of hexane (Gas); method: Chromatography
Mole fraction of methane	Temperature, K	Mole fraction of hexane	uncertainty
0.112	303.15	0.0168	0.0012
0.122	318.15	0.0283	0.002
0.123	333.15	0.035	0.0027
0.136	288.15	0.0097	0.0006
0.142	273.15	0.0037	0.0006
0.152	253.15	0.0033	0.0004
0.182	233.15	0.0009	0.0002
0.196	333.15	0.0289	0.002
0.214	203.15	0.0006	0.0002
0.221	288.15	0.0126	0.0016
0.228	318.15	0.0228	0.0016
0.233	273.15	0.0039	0.0002
0.252	213.15	0.0004	0.0001
0.259	253.15	0.002	0.0002
0.267	303.15	0.0199	0.0016
0.295	333.15	0.0377	0.0031
0.299	288.15	0.0137	0.002
0.306	273.15	0.0048	0.0006
0.314	233.15	0.0011	0.0002
0.315	273.15	0.0042	0.0006
0.323	318.15	0.0244	0.0019
0.352	193.15	0.0002	0.0001
0.353	303.15	0.0182	0.0014
0.361	253.15	0.0028	0.0003
0.382	203.15	0.0005	0.0001
0.386	333.15	0.0375	0.0026
0.4	288.15	0.013	0.0011
0.401	273.15	0.0056	0.0006
0.413	183.15	0.0002	0.0001
0.415	213.15	0.0007	0.0002
0.415	233.15	0.0018	0.0003
0.429	318.15	0.0321	0.0022
0.445	303.15	0.0229	0.0016
0.477	253.15	0.0056	0.0005
0.498	273.15	0.0109	0.0017
0.502	333.15	0.039	0.0028
0.516	288.15	0.0222	0.002
0.517	233.15	0.0037	0.0005
0.519	193.15	0.0003	0.0001
0.529	318.15	0.0217	0.0024
0.535	193.15	0.0004	0.0002
0.546	203.15	0.0005	0.0001
0.546	303.15	0.017	0.0016
0.552	183.15	0.0003	0.0001
0.575	253.15	0.0057	0.0012
0.592	213.15	0.0017	0.0002
0.611	273.15	0.027	0.0025
0.647	233.15	0.0105	0.0013
0.677	203.15	0.0015	0.0003
0.693	183.15	0.0002	0.0002
0.698	183.15	0.0009	0.0009
0.707	193.15	0.0021	0.0021
0.714	193.15	0.0009	0.0009
0.955	183.15	0.0002	0.0001
0.959	233.15	0.025	0.0026
