Measured thermophysical data. Evaluation of the Performance of Trigeminal Tricationic Ionic Liquids for Separation Problems
Source: J. Chem. Eng. Data, 2012, 10.1021/je201129y
Compound 1: hexane, C6H14, InChI=1S/C6H14/c1-3-5-6-4-2/h3-6H2,1-2H3, purity 99.5%
Compound 2: 3,3',3''-((propane-1,2,3-triyltris(oxy))tris(methylene))tris(1-methyl-1H-imidazolium) bis((trifluoromethyl)sulfonyl)amide (1:3), C24H29F18N9O15S6, InChI=1S/C18H29N6O3.3C2F6NO4S2/c1-19-4-7-22(12-19)15-25-10-18(27-17-24-9-6-21(3)14-24)11-26-16-23-8-5-20(2)13-23;3*3-1(4,5)14(10,11)9-15(12,13)2(6,7)8/h4-9,12-14,18H,10-11,15-17H2,1-3H3;;;/q+3;3*-1, purity 99.9%
Compound 3: 3-methylpentane, C6H14, InChI=1S/C6H14/c1-4-6(3)5-2/h6H,4-5H2,1-3H3, purity 99.5%
Compound 4: heptane, C7H16, InChI=1S/C7H16/c1-3-5-7-6-4-2/h3-7H2,1-2H3, purity 99.5%
Compound 5: 2,2,4-trimethylpentane, C8H18, InChI=1S/C8H18/c1-7(2)6-8(3,4)5/h7H,6H2,1-5H3, purity 99.5%
Compound 6: octane, C8H18, InChI=1S/C8H18/c1-3-5-7-8-6-4-2/h3-8H2,1-2H3, purity 99.5%
Compound 7: nonane, C9H20, InChI=1S/C9H20/c1-3-5-7-9-8-6-4-2/h3-9H2,1-2H3, purity 99.5%
Compound 8: decane, C10H22, InChI=1S/C10H22/c1-3-5-7-9-10-8-6-4-2/h3-10H2,1-2H3, purity 99.5%
Compound 9: undecane, C11H24, InChI=1S/C11H24/c1-3-5-7-9-11-10-8-6-4-2/h3-11H2,1-2H3, purity 99.5%
Compound 10: dodecane, C12H26, InChI=1S/C12H26/c1-3-5-7-9-11-12-10-8-6-4-2/h3-12H2,1-2H3, purity 99.5%
Compound 11: tridecane, C13H28, InChI=1S/C13H28/c1-3-5-7-9-11-13-12-10-8-6-4-2/h3-13H2,1-2H3, purity 99.5%
Compound 12: methylcyclopentane, C6H12, InChI=1S/C6H12/c1-6-4-2-3-5-6/h6H,2-5H2,1H3, purity 99.5%
Compound 13: cyclohexane, C6H12, InChI=1S/C6H12/c1-2-4-6-5-3-1/h1-6H2, purity 99.5%
Compound 14: methylcyclohexane, C7H14, InChI=1S/C7H14/c1-7-5-3-2-4-6-7/h7H,2-6H2,1H3, purity 99.5%
Compound 15: cycloheptane, C7H14, InChI=1S/C7H14/c1-2-4-6-7-5-3-1/h1-7H2, purity 99.5%
Compound 16: benzene, C6H6, InChI=1S/C6H6/c1-2-4-6-5-3-1/h1-6H, purity 99.5%
Compound 17: toluene, C7H8, InChI=1S/C7H8/c1-7-5-3-2-4-6-7/h2-6H,1H3, purity 99.5%
Compound 18: ethylbenzene, C8H10, InChI=1S/C8H10/c1-2-8-6-4-3-5-7-8/h3-7H,2H2,1H3, purity 99.5%
Compound 19: 1,3-dimethylbenzene, C8H10, InChI=1S/C8H10/c1-7-4-3-5-8(2)6-7/h3-6H,1-2H3, purity 99.5%
Compound 20: 1,4-dimethylbenzene, C8H10, InChI=1S/C8H10/c1-7-3-5-8(2)6-4-7/h3-6H,1-2H3, purity 99.5%
Compound 21: 1,2-dimethylbenzene, C8H10, InChI=1S/C8H10/c1-7-5-3-4-6-8(7)2/h3-6H,1-2H3, purity 99.5%
Compound 22: hex-1-ene, C6H12, InChI=1S/C6H12/c1-3-5-6-4-2/h3H,1,4-6H2,2H3, purity 99.5%
Compound 23: 1-hexyne, C6H10, InChI=1S/C6H10/c1-3-5-6-4-2/h1H,4-6H2,2H3, purity 99.5%
Compound 24: 1-heptyne, C7H12, InChI=1S/C7H12/c1-3-5-7-6-4-2/h1H,4-7H2,2H3, purity 99.5%
Compound 25: butanone, C4H8O, InChI=1S/C4H8O/c1-3-4(2)5/h3H2,1-2H3, purity 99.5%
Compound 26: pentan-2-one, C5H10O, InChI=1S/C5H10O/c1-3-4-5(2)6/h3-4H2,1-2H3, purity 99.5%
Compound 27: pentan-3-one, C5H10O, InChI=1S/C5H10O/c1-3-5(6)4-2/h3-4H2,1-2H3, purity 99.5%
Compound 28: 1,4-dioxane, C4H8O2, InChI=1S/C4H8O2/c1-2-6-4-3-5-1/h1-4H2, purity 99.5%
Compound 29: methanol, CH4O, InChI=1S/CH4O/c1-2/h2H,1H3, purity 99.5%
Compound 30: ethanol, C2H6O, InChI=1S/C2H6O/c1-2-3/h3H,2H2,1H3, purity 99.5%
Compound 31: propan-1-ol, C3H8O, InChI=1S/C3H8O/c1-2-3-4/h4H,2-3H2,1H3, purity 99.5%
Compound 32: propan-2-ol, C3H8O, InChI=1S/C3H8O/c1-3(2)4/h3-4H,1-2H3, purity 99.5%
Compound 33: 2-methyl-1-propanol, C4H10O, InChI=1S/C4H10O/c1-4(2)3-5/h4-5H,3H2,1-2H3, purity 99.5%
Compound 34: butan-1-ol, C4H10O, InChI=1S/C4H10O/c1-2-3-4-5/h5H,2-4H2,1H3, purity 99.5%
Compound 35: 2,2,2-trifluoroethanol, C2H3F3O, InChI=1S/C2H3F3O/c3-2(4,5)1-6/h6H,1H2, purity 99.5%
Compound 36: diethyl ether, C4H10O, InChI=1S/C4H10O/c1-3-5-4-2/h3-4H2,1-2H3, purity 99.5%
Compound 37: diisopropyl ether, C6H14O, InChI=1S/C6H14O/c1-5(2)7-6(3)4/h5-6H,1-4H3, purity 99.5%
Compound 38: trichloromethane, CHCl3, InChI=1S/CHCl3/c2-1(3)4/h1H, purity 99.5%
Compound 39: dichloromethane, CH2Cl2, InChI=1S/CH2Cl2/c2-1-3/h1H2, purity 99.5%
Compound 40: tetrachloromethane, CCl4, InChI=1S/CCl4/c2-1(3,4)5, purity 99.5%
Compound 41: acetonitrile, C2H3N, InChI=1S/C2H3N/c1-2-3/h1H3, purity 99.5%
Compound 42: nitromethane, CH3NO2, InChI=1S/CH3NO2/c1-2(3)4/h1H3, purity 99.5%
Compound 43: 1-nitropropane, C3H7NO2, InChI=1S/C3H7NO2/c1-2-3-4(5)6/h2-3H2,1H3, purity 99.5%
Compound 44: triethylamine, C6H15N, InChI=1S/C6H15N/c1-4-7(5-2)6-3/h4-6H2,1-3H3, purity 99.5%
Compound 45: pyridine, C5H5N, InChI=1S/C5H5N/c1-2-4-6-5-3-1/h1-5H, purity 99.5%
Compound 46: thiophene, C4H4S, InChI=1S/C4H4S/c1-2-4-5-3-1/h1-4H, purity 99.5%
Compound 47: methanal, CH2O, InChI=1S/CH2O/c1-2/h1H2, purity 99.5%
Compound 48: propanal, C3H6O, InChI=1S/C3H6O/c1-2-3-4/h3H,2H2,1H3, purity 99.5%
Compound 49: 3,3',3''-[propane-1,2,3-triyltris(oxymethanediyl)]tris(1-methyl-1H-imidazolium) tris(dicyanoazanide), C24H29N15O3, InChI=1S/C18H29N6O3.3C2N3/c1-19-4-7-22(12-19)15-25-10-18(27-17-24-9-6-21(3)14-24)11-26-16-23-8-5-20(2)13-23;3*3-1-5-2-4/h4-9,12-14,18H,10-11,15-17H2,1-3H3;;;/q+3;3*-1, purity 99.9%
Compound 50: 3,3',3''-((propane-1,2,3-triyltris(oxy))tris(methylene))tris(2-methyl-1-octyl-1H-imidazolium) bis((trifluoromethyl)sulfonyl)amide (1:3), C48H77F18N9O15S6, InChI=1S/C42H77N6O3.3C2F6NO4S2/c1-7-10-13-16-19-22-25-43-28-31-46(39(43)4)36-49-34-42(51-38-48-33-30-45(41(48)6)27-24-21-18-15-12-9-3)35-50-37-47-32-29-44(40(47)5)26-23-20-17-14-11-8-2;3*3-1(4,5)14(10,11)9-15(12,13)2(6,7)8/h28-33,42H,7-27,34-38H2,1-6H3;;;/q+3;3*-1, purity 99.9%
Compound 51: butanal, C4H8O, InChI=1S/C4H8O/c1-2-3-4-5/h4H,2-3H2,1H3, purity 99.5%
Compound 52: 3,3',3''-((propane-1,2,3-triyltris(oxy))tris(methylene))tris(2-methyl-1-octyl-1H-imidazolium) tetrafluoroborate (1:3), C42H77B3F12N6O3, InChI=1S/C42H77N6O3.3BF4/c1-7-10-13-16-19-22-25-43-28-31-46(39(43)4)36-49-34-42(51-38-48-33-30-45(41(48)6)27-24-21-18-15-12-9-3)35-50-37-47-32-29-44(40(47)5)26-23-20-17-14-11-8-2;3*2-1(3,4)5/h28-33,42H,7-27,34-38H2,1-6H3;;;/q+3;3*-1, purity 99.9%
Compound 53: 3,3',3''-((propane-1,2,3-triyltris(oxy))tris(methylene))tris(1-benzyl-1H-imidazolium) bis((trifluoromethyl)sulfonyl)amide (1:3), C42H41F18N9O15S6, InChI=1S/C36H41N6O3.3C2F6NO4S2/c1-4-10-33(11-5-1)22-37-16-19-40(27-37)30-43-25-36(45-32-42-21-18-39(29-42)24-35-14-8-3-9-15-35)26-44-31-41-20-17-38(28-41)23-34-12-6-2-7-13-34;3*3-1(4,5)14(10,11)9-15(12,13)2(6,7)8/h1-21,27-29,36H,22-26,30-32H2;;;/q+3;3*-1, purity 99.9%
Compound 54: pyridinium, 1,1',1'-[1,2,3-propanetriyltris(oxymethylene)]tris[4-(dimethylamino)-, salt with 1,1,1-trifluoro-N-[(trifluoromethyl)sulfonyl]methanesulfonamide (1:3), C33H41F18N9O15S6, InChI=1S/C27H41N6O3.3C2F6NO4S2/c1-28(2)24-7-13-31(14-8-24)21-34-19-27(36-23-33-17-11-26(12-18-33)30(5)6)20-35-22-32-15-9-25(10-16-32)29(3)4;3*3-1(4,5)14(10,11)9-15(12,13)2(6,7)8/h7-18,27H,19-23H2,1-6H3;;;/q+3;3*-1, purity 99.9%
Compound 55: tetradecane, C14H30, InChI=1S/C14H30/c1-3-5-7-9-11-13-14-12-10-8-6-4-2/h3-14H2,1-2H3, purity 99.5%

System: hexane + 3,3',3''-((propane-1,2,3-triyltris(oxy))tris(methylene))tris(1-methyl-1H-imidazolium) bis((trifluoromethyl)sulfonyl)amide (1:3); phases: Liquid
Fixed: Pressure, kPa = 101
Fixed: Mole fraction of hexane = 0
Property: Activity coefficient of hexane (Liquid); method: Chromatography
Temperature, K	Activity coefficient of hexane	uncertainty
312.45	17.7	1.21
322.45	17.91	1.22
332.45	14.46	0.99

System: 3-methylpentane + 3,3',3''-((propane-1,2,3-triyltris(oxy))tris(methylene))tris(1-methyl-1H-imidazolium) bis((trifluoromethyl)sulfonyl)amide (1:3); phases: Liquid
Fixed: Pressure, kPa = 101
Fixed: Mole fraction of 3-methylpentane = 0
Property: Activity coefficient of 3-methylpentane (Liquid); method: Chromatography
Temperature, K	Activity coefficient of 3-methylpentane	uncertainty
312.45	12.01	0.82
322.45	15.25	1.04
332.45	11.96	0.82

System: heptane + 3,3',3''-((propane-1,2,3-triyltris(oxy))tris(methylene))tris(1-methyl-1H-imidazolium) bis((trifluoromethyl)sulfonyl)amide (1:3); phases: Liquid
Fixed: Pressure, kPa = 101
Fixed: Mole fraction of heptane = 0
Property: Activity coefficient of heptane (Liquid); method: Chromatography
Temperature, K	Activity coefficient of heptane	uncertainty
312.45	30.45	2.08
322.45	30.13	2.06
332.45	25.19	1.72

System: 2,2,4-trimethylpentane + 3,3',3''-((propane-1,2,3-triyltris(oxy))tris(methylene))tris(1-methyl-1H-imidazolium) bis((trifluoromethyl)sulfonyl)amide (1:3); phases: Liquid
Fixed: Pressure, kPa = 101
Fixed: Mole fraction of 2,2,4-trimethylpentane = 0
Property: Activity coefficient of 2,2,4-trimethylpentane (Liquid); method: Chromatography
Temperature, K	Activity coefficient of 2,2,4-trimethylpentane	uncertainty
312.45	30.78	2.11
322.45	28.46	1.95
332.45	26.78	1.83

System: octane + 3,3',3''-((propane-1,2,3-triyltris(oxy))tris(methylene))tris(1-methyl-1H-imidazolium) bis((trifluoromethyl)sulfonyl)amide (1:3); phases: Liquid
Fixed: Pressure, kPa = 101
Fixed: Mole fraction of octane = 0
Property: Activity coefficient of octane (Liquid); method: Chromatography
Temperature, K	Activity coefficient of octane	uncertainty
312.45	56.14	3.84
322.45	53.5	3.66
332.45	44.52	3.05

System: nonane + 3,3',3''-((propane-1,2,3-triyltris(oxy))tris(methylene))tris(1-methyl-1H-imidazolium) bis((trifluoromethyl)sulfonyl)amide (1:3); phases: Liquid
Fixed: Pressure, kPa = 101
Fixed: Mole fraction of nonane = 0
Property: Activity coefficient of nonane (Liquid); method: Chromatography
Temperature, K	Activity coefficient of nonane	uncertainty
312.45	109.82	7.53
322.45	94.41	6.47
332.45	79.17	5.43

System: decane + 3,3',3''-((propane-1,2,3-triyltris(oxy))tris(methylene))tris(1-methyl-1H-imidazolium) bis((trifluoromethyl)sulfonyl)amide (1:3); phases: Liquid
Fixed: Pressure, kPa = 101
Fixed: Mole fraction of decane = 0
Property: Activity coefficient of decane (Liquid); method: Chromatography
Temperature, K	Activity coefficient of decane	uncertainty
312.45	155.49	10.67
322.45	134.55	9.23
332.45	111.47	7.64

System: undecane + 3,3',3''-((propane-1,2,3-triyltris(oxy))tris(methylene))tris(1-methyl-1H-imidazolium) bis((trifluoromethyl)sulfonyl)amide (1:3); phases: Liquid
Fixed: Pressure, kPa = 101
Fixed: Mole fraction of undecane = 0
Property: Activity coefficient of undecane (Liquid); method: Chromatography
Temperature, K	Activity coefficient of undecane	uncertainty
312.45	240.21	16.5
322.45	205.49	14.11
332.45	171.99	11.81

System: dodecane + 3,3',3''-((propane-1,2,3-triyltris(oxy))tris(methylene))tris(1-methyl-1H-imidazolium) bis((trifluoromethyl)sulfonyl)amide (1:3); phases: Liquid
Fixed: Pressure, kPa = 101
Fixed: Mole fraction of dodecane = 0
Property: Activity coefficient of dodecane (Liquid); method: Chromatography
Temperature, K	Activity coefficient of dodecane	uncertainty
312.45	339.46	23.34
322.45	292.86	20.13
332.45	251.73	17.3

System: tridecane + 3,3',3''-((propane-1,2,3-triyltris(oxy))tris(methylene))tris(1-methyl-1H-imidazolium) bis((trifluoromethyl)sulfonyl)amide (1:3); phases: Liquid
Fixed: Pressure, kPa = 101
Fixed: Mole fraction of tridecane = 0
Property: Activity coefficient of tridecane (Liquid); method: Chromatography
Temperature, K	Activity coefficient of tridecane	uncertainty
312.45	495.19	34.07
322.45	430.58	29.62
332.45	370.55	25.48

System: methylcyclopentane + 3,3',3''-((propane-1,2,3-triyltris(oxy))tris(methylene))tris(1-methyl-1H-imidazolium) bis((trifluoromethyl)sulfonyl)amide (1:3); phases: Liquid
Fixed: Pressure, kPa = 101
Fixed: Mole fraction of methylcyclopentane = 0
Property: Activity coefficient of methylcyclopentane (Liquid); method: Chromatography
Temperature, K	Activity coefficient of methylcyclopentane	uncertainty
312.45	11.07	0.76
322.45	10.33	0.7
332.45	9.01	0.61

System: cyclohexane + 3,3',3''-((propane-1,2,3-triyltris(oxy))tris(methylene))tris(1-methyl-1H-imidazolium) bis((trifluoromethyl)sulfonyl)amide (1:3); phases: Liquid
Fixed: Pressure, kPa = 101
Fixed: Mole fraction of cyclohexane = 0
Property: Activity coefficient of cyclohexane (Liquid); method: Chromatography
Temperature, K	Activity coefficient of cyclohexane	uncertainty
312.45	11.74	0.8
322.45	10.63	0.73
332.45	9.1	0.62

System: methylcyclohexane + 3,3',3''-((propane-1,2,3-triyltris(oxy))tris(methylene))tris(1-methyl-1H-imidazolium) bis((trifluoromethyl)sulfonyl)amide (1:3); phases: Liquid
Fixed: Pressure, kPa = 101
Fixed: Mole fraction of methylcyclohexane = 0
Property: Activity coefficient of methylcyclohexane (Liquid); method: Chromatography
Temperature, K	Activity coefficient of methylcyclohexane	uncertainty
312.45	18.46	1.26
322.45	16.24	1.11
332.45	13.9	0.95

System: cycloheptane + 3,3',3''-((propane-1,2,3-triyltris(oxy))tris(methylene))tris(1-methyl-1H-imidazolium) bis((trifluoromethyl)sulfonyl)amide (1:3); phases: Liquid
Fixed: Pressure, kPa = 101
Fixed: Mole fraction of cycloheptane = 0
Property: Activity coefficient of cycloheptane (Liquid); method: Chromatography
Temperature, K	Activity coefficient of cycloheptane	uncertainty
312.45	27.04	1.85
322.45	33.95	2.32
332.45	41.94	2.87

System: benzene + 3,3',3''-((propane-1,2,3-triyltris(oxy))tris(methylene))tris(1-methyl-1H-imidazolium) bis((trifluoromethyl)sulfonyl)amide (1:3); phases: Liquid
Fixed: Pressure, kPa = 101
Fixed: Mole fraction of benzene = 0
Property: Activity coefficient of benzene (Liquid); method: Chromatography
Temperature, K	Activity coefficient of benzene	uncertainty
312.45	0.86	0.06
322.45	0.83	0.05
332.45	0.82	0.05

System: toluene + 3,3',3''-((propane-1,2,3-triyltris(oxy))tris(methylene))tris(1-methyl-1H-imidazolium) bis((trifluoromethyl)sulfonyl)amide (1:3); phases: Liquid
Fixed: Pressure, kPa = 101
Fixed: Mole fraction of toluene = 0
Property: Activity coefficient of toluene (Liquid); method: Chromatography
Temperature, K	Activity coefficient of toluene	uncertainty
312.45	1.39	0.09
322.45	1.35	0.09
332.45	1.33	0.09

System: ethylbenzene + 3,3',3''-((propane-1,2,3-triyltris(oxy))tris(methylene))tris(1-methyl-1H-imidazolium) bis((trifluoromethyl)sulfonyl)amide (1:3); phases: Liquid
Fixed: Pressure, kPa = 101
Fixed: Mole fraction of ethylbenzene = 0
Property: Activity coefficient of ethylbenzene (Liquid); method: Chromatography
Temperature, K	Activity coefficient of ethylbenzene	uncertainty
312.45	2.37	0.16
322.45	2.31	0.16
332.45	2.25	0.15

System: 1,3-dimethylbenzene + 3,3',3''-((propane-1,2,3-triyltris(oxy))tris(methylene))tris(1-methyl-1H-imidazolium) bis((trifluoromethyl)sulfonyl)amide (1:3); phases: Liquid
Fixed: Pressure, kPa = 101
Fixed: Mole fraction of 1,3-dimethylbenzene = 0
Property: Activity coefficient of 1,3-dimethylbenzene (Liquid); method: Chromatography
Temperature, K	Activity coefficient of 1,3-dimethylbenzene	uncertainty
312.45	2.39	0.16
322.45	2.31	0.16
332.45	2.25	0.15

System: 1,4-dimethylbenzene + 3,3',3''-((propane-1,2,3-triyltris(oxy))tris(methylene))tris(1-methyl-1H-imidazolium) bis((trifluoromethyl)sulfonyl)amide (1:3); phases: Liquid
Fixed: Pressure, kPa = 101
Fixed: Mole fraction of 1,4-dimethylbenzene = 0
Property: Activity coefficient of 1,4-dimethylbenzene (Liquid); method: Chromatography
Temperature, K	Activity coefficient of 1,4-dimethylbenzene	uncertainty
312.45	2.36	0.16
322.45	2.31	0.16
332.45	2.25	0.15

System: 1,2-dimethylbenzene + 3,3',3''-((propane-1,2,3-triyltris(oxy))tris(methylene))tris(1-methyl-1H-imidazolium) bis((trifluoromethyl)sulfonyl)amide (1:3); phases: Liquid
Fixed: Pressure, kPa = 101
Fixed: Mole fraction of 1,2-dimethylbenzene = 0
Property: Activity coefficient of 1,2-dimethylbenzene (Liquid); method: Chromatography
Temperature, K	Activity coefficient of 1,2-dimethylbenzene	uncertainty
312.45	2.04	0.14
322.45	1.98	0.13
332.45	1.94	0.13

System: hex-1-ene + 3,3',3''-((propane-1,2,3-triyltris(oxy))tris(methylene))tris(1-methyl-1H-imidazolium) bis((trifluoromethyl)sulfonyl)amide (1:3); phases: Liquid
Fixed: Pressure, kPa = 101
Fixed: Mole fraction of hex-1-ene = 0
Property: Activity coefficient of hex-1-ene (Liquid); method: Chromatography
Temperature, K	Activity coefficient of hex-1-ene	uncertainty
312.45	9.18	0.63
322.45	9.06	0.62
332.45	7.37	0.5

System: 1-hexyne + 3,3',3''-((propane-1,2,3-triyltris(oxy))tris(methylene))tris(1-methyl-1H-imidazolium) bis((trifluoromethyl)sulfonyl)amide (1:3); phases: Liquid
Fixed: Pressure, kPa = 101
Fixed: Mole fraction of 1-hexyne = 0
Property: Activity coefficient of 1-hexyne (Liquid); method: Chromatography
Temperature, K	Activity coefficient of 1-hexyne	uncertainty
312.45	3.55	0.24
322.45	3.25	0.22
332.45	3.01	0.2

System: 1-heptyne + 3,3',3''-((propane-1,2,3-triyltris(oxy))tris(methylene))tris(1-methyl-1H-imidazolium) bis((trifluoromethyl)sulfonyl)amide (1:3); phases: Liquid
Fixed: Pressure, kPa = 101
Fixed: Mole fraction of 1-heptyne = 0
Property: Activity coefficient of 1-heptyne (Liquid); method: Chromatography
Temperature, K	Activity coefficient of 1-heptyne	uncertainty
312.45	5.83	0.4
322.45	5.33	0.36
332.45	5.02	0.34

System: butanone + 3,3',3''-((propane-1,2,3-triyltris(oxy))tris(methylene))tris(1-methyl-1H-imidazolium) bis((trifluoromethyl)sulfonyl)amide (1:3); phases: Liquid
Fixed: Pressure, kPa = 101
Fixed: Mole fraction of butanone = 0
Property: Activity coefficient of butanone (Liquid); method: Chromatography
Temperature, K	Activity coefficient of butanone	uncertainty
312.45	0.31	0.03
322.45	0.3	0.03
332.45	0.28	0.03

System: pentan-2-one + 3,3',3''-((propane-1,2,3-triyltris(oxy))tris(methylene))tris(1-methyl-1H-imidazolium) bis((trifluoromethyl)sulfonyl)amide (1:3); phases: Liquid
Fixed: Pressure, kPa = 101
Fixed: Mole fraction of pentan-2-one = 0
Property: Activity coefficient of pentan-2-one (Liquid); method: Chromatography
Temperature, K	Activity coefficient of pentan-2-one	uncertainty
312.45	0.52	0.04
322.45	0.52	0.04
332.45	0.53	0.04

System: pentan-3-one + 3,3',3''-((propane-1,2,3-triyltris(oxy))tris(methylene))tris(1-methyl-1H-imidazolium) bis((trifluoromethyl)sulfonyl)amide (1:3); phases: Liquid
Fixed: Pressure, kPa = 101
Fixed: Mole fraction of pentan-3-one = 0
Property: Activity coefficient of pentan-3-one (Liquid); method: Chromatography
Temperature, K	Activity coefficient of pentan-3-one	uncertainty
312.45	0.51	0.04
322.45	0.51	0.04
332.45	0.52	0.04

System: 1,4-dioxane + 3,3',3''-((propane-1,2,3-triyltris(oxy))tris(methylene))tris(1-methyl-1H-imidazolium) bis((trifluoromethyl)sulfonyl)amide (1:3); phases: Liquid
Fixed: Pressure, kPa = 101
Fixed: Mole fraction of 1,4-dioxane = 0
Property: Activity coefficient of 1,4-dioxane (Liquid); method: Chromatography
Temperature, K	Activity coefficient of 1,4-dioxane	uncertainty
312.45	0.3	0.03
322.45	0.3	0.03
332.45	0.31	0.03

System: methanol + 3,3',3''-((propane-1,2,3-triyltris(oxy))tris(methylene))tris(1-methyl-1H-imidazolium) bis((trifluoromethyl)sulfonyl)amide (1:3); phases: Liquid
Fixed: Pressure, kPa = 101
Fixed: Mole fraction of methanol = 0
Property: Activity coefficient of methanol (Liquid); method: Chromatography
Temperature, K	Activity coefficient of methanol	uncertainty
312.45	0.52	0.04
322.45	0.49	0.04
332.45	0.46	0.04

System: ethanol + 3,3',3''-((propane-1,2,3-triyltris(oxy))tris(methylene))tris(1-methyl-1H-imidazolium) bis((trifluoromethyl)sulfonyl)amide (1:3); phases: Liquid
Fixed: Pressure, kPa = 101
Fixed: Mole fraction of ethanol = 0
Property: Activity coefficient of ethanol (Liquid); method: Chromatography
Temperature, K	Activity coefficient of ethanol	uncertainty
312.45	0.86	0.06
322.45	0.79	0.05
332.45	0.72	0.05

System: propan-1-ol + 3,3',3''-((propane-1,2,3-triyltris(oxy))tris(methylene))tris(1-methyl-1H-imidazolium) bis((trifluoromethyl)sulfonyl)amide (1:3); phases: Liquid
Fixed: Pressure, kPa = 101
Fixed: Mole fraction of propan-1-ol = 0
Property: Activity coefficient of propan-1-ol (Liquid); method: Chromatography
Temperature, K	Activity coefficient of propan-1-ol	uncertainty
312.45	1.26	0.08
322.45	1.13	0.07
332.45	1.01	0.06

System: propan-2-ol + 3,3',3''-((propane-1,2,3-triyltris(oxy))tris(methylene))tris(1-methyl-1H-imidazolium) bis((trifluoromethyl)sulfonyl)amide (1:3); phases: Liquid
Fixed: Pressure, kPa = 101
Fixed: Mole fraction of propan-2-ol = 0
Property: Activity coefficient of propan-2-ol (Liquid); method: Chromatography
Temperature, K	Activity coefficient of propan-2-ol	uncertainty
312.45	1.17	0.07
322.45	1.04	0.07
332.45	0.94	0.06

System: 2-methyl-1-propanol + 3,3',3''-((propane-1,2,3-triyltris(oxy))tris(methylene))tris(1-methyl-1H-imidazolium) bis((trifluoromethyl)sulfonyl)amide (1:3); phases: Liquid
Fixed: Pressure, kPa = 101
Fixed: Mole fraction of 2-methyl-1-propanol = 0
Property: Activity coefficient of 2-methyl-1-propanol (Liquid); method: Chromatography
Temperature, K	Activity coefficient of 2-methyl-1-propanol	uncertainty
312.45	1.71	0.11
322.45	1.54	0.1
332.45	1.36	0.09

System: butan-1-ol + 3,3',3''-((propane-1,2,3-triyltris(oxy))tris(methylene))tris(1-methyl-1H-imidazolium) bis((trifluoromethyl)sulfonyl)amide (1:3); phases: Liquid
Fixed: Pressure, kPa = 101
Fixed: Mole fraction of butan-1-ol = 0
Property: Activity coefficient of butan-1-ol (Liquid); method: Chromatography
Temperature, K	Activity coefficient of butan-1-ol	uncertainty
312.45	1.87	0.13
322.45	1.67	0.11
332.45	1.46	0.1

System: 2,2,2-trifluoroethanol + 3,3',3''-((propane-1,2,3-triyltris(oxy))tris(methylene))tris(1-methyl-1H-imidazolium) bis((trifluoromethyl)sulfonyl)amide (1:3); phases: Liquid
Fixed: Pressure, kPa = 101
Fixed: Mole fraction of 2,2,2-trifluoroethanol = 0
Property: Activity coefficient of 2,2,2-trifluoroethanol (Liquid); method: Chromatography
Temperature, K	Activity coefficient of 2,2,2-trifluoroethanol	uncertainty
312.45	0.26	0.03
322.45	0.24	0.03
332.45	0.23	0.03

System: diethyl ether + 3,3',3''-((propane-1,2,3-triyltris(oxy))tris(methylene))tris(1-methyl-1H-imidazolium) bis((trifluoromethyl)sulfonyl)amide (1:3); phases: Liquid
Fixed: Pressure, kPa = 101
Fixed: Mole fraction of diethyl ether = 0
Property: Activity coefficient of diethyl ether (Liquid); method: Chromatography
Temperature, K	Activity coefficient of diethyl ether	uncertainty
312.45	1.8	0.12
322.45	1.7	0.11
332.45	1.52	0.1

System: diisopropyl ether + 3,3',3''-((propane-1,2,3-triyltris(oxy))tris(methylene))tris(1-methyl-1H-imidazolium) bis((trifluoromethyl)sulfonyl)amide (1:3); phases: Liquid
Fixed: Pressure, kPa = 101
Fixed: Mole fraction of diisopropyl ether = 0
Property: Activity coefficient of diisopropyl ether (Liquid); method: Chromatography
Temperature, K	Activity coefficient of diisopropyl ether	uncertainty
312.45	5.68	0.39
322.45	5.16	0.35
332.45	4.5	0.31

System: trichloromethane + 3,3',3''-((propane-1,2,3-triyltris(oxy))tris(methylene))tris(1-methyl-1H-imidazolium) bis((trifluoromethyl)sulfonyl)amide (1:3); phases: Liquid
Fixed: Pressure, kPa = 101
Fixed: Mole fraction of trichloromethane = 0
Property: Activity coefficient of trichloromethane (Liquid); method: Chromatography
Temperature, K	Activity coefficient of trichloromethane	uncertainty
312.45	0.73	0.05
322.45	0.72	0.05
332.45	0.72	0.05

System: dichloromethane + 3,3',3''-((propane-1,2,3-triyltris(oxy))tris(methylene))tris(1-methyl-1H-imidazolium) bis((trifluoromethyl)sulfonyl)amide (1:3); phases: Liquid
Fixed: Pressure, kPa = 101
Fixed: Mole fraction of dichloromethane = 0
Property: Activity coefficient of dichloromethane (Liquid); method: Chromatography
Temperature, K	Activity coefficient of dichloromethane	uncertainty
312.45	0.42	0.04
322.45	0.44	0.04
332.45	0.45	0.04

System: tetrachloromethane + 3,3',3''-((propane-1,2,3-triyltris(oxy))tris(methylene))tris(1-methyl-1H-imidazolium) bis((trifluoromethyl)sulfonyl)amide (1:3); phases: Liquid
Fixed: Pressure, kPa = 101
Fixed: Mole fraction of tetrachloromethane = 0
Property: Activity coefficient of tetrachloromethane (Liquid); method: Chromatography
Temperature, K	Activity coefficient of tetrachloromethane	uncertainty
312.45	3.01	0.2
322.45	2.73	0.19
332.45	2.52	0.17

System: acetonitrile + 3,3',3''-((propane-1,2,3-triyltris(oxy))tris(methylene))tris(1-methyl-1H-imidazolium) bis((trifluoromethyl)sulfonyl)amide (1:3); phases: Liquid
Fixed: Pressure, kPa = 101
Fixed: Mole fraction of acetonitrile = 0
Property: Activity coefficient of acetonitrile (Liquid); method: Chromatography
Temperature, K	Activity coefficient of acetonitrile	uncertainty
312.45	0.21	0.03
322.45	0.2	0.03
332.45	0.21	0.03

System: nitromethane + 3,3',3''-((propane-1,2,3-triyltris(oxy))tris(methylene))tris(1-methyl-1H-imidazolium) bis((trifluoromethyl)sulfonyl)amide (1:3); phases: Liquid
Fixed: Pressure, kPa = 101
Fixed: Mole fraction of nitromethane = 0
Property: Activity coefficient of nitromethane (Liquid); method: Chromatography
Temperature, K	Activity coefficient of nitromethane	uncertainty
312.45	0.23	0.03
322.45	0.23	0.03
332.45	0.23	0.03

System: 1-nitropropane + 3,3',3''-((propane-1,2,3-triyltris(oxy))tris(methylene))tris(1-methyl-1H-imidazolium) bis((trifluoromethyl)sulfonyl)amide (1:3); phases: Liquid
Fixed: Pressure, kPa = 101
Fixed: Mole fraction of 1-nitropropane = 0
Property: Activity coefficient of 1-nitropropane (Liquid); method: Chromatography
Temperature, K	Activity coefficient of 1-nitropropane	uncertainty
312.45	0.44	0.04
322.45	0.43	0.04
332.45	0.42	0.04

System: triethylamine + 3,3',3''-((propane-1,2,3-triyltris(oxy))tris(methylene))tris(1-methyl-1H-imidazolium) bis((trifluoromethyl)sulfonyl)amide (1:3); phases: Liquid
Fixed: Pressure, kPa = 101
Fixed: Mole fraction of triethylamine = 0
Property: Activity coefficient of triethylamine (Liquid); method: Chromatography
Temperature, K	Activity coefficient of triethylamine	uncertainty
312.45	2.1	0.14
322.45	2.01	0.14
332.45	2.7	0.18

System: pyridine + 3,3',3''-((propane-1,2,3-triyltris(oxy))tris(methylene))tris(1-methyl-1H-imidazolium) bis((trifluoromethyl)sulfonyl)amide (1:3); phases: Liquid
Fixed: Pressure, kPa = 101
Fixed: Mole fraction of pyridine = 0
Property: Activity coefficient of pyridine (Liquid); method: Chromatography
Temperature, K	Activity coefficient of pyridine	uncertainty
312.45	0.2	0.03
322.45	0.22	0.03
332.45	0.26	0.03

System: thiophene + 3,3',3''-((propane-1,2,3-triyltris(oxy))tris(methylene))tris(1-methyl-1H-imidazolium) bis((trifluoromethyl)sulfonyl)amide (1:3); phases: Liquid
Fixed: Pressure, kPa = 101
Fixed: Mole fraction of thiophene = 0
Property: Activity coefficient of thiophene (Liquid); method: Chromatography
Temperature, K	Activity coefficient of thiophene	uncertainty
312.45	0.68	0.05
322.45	0.67	0.05
332.45	0.66	0.05

System: methanal + 3,3',3''-((propane-1,2,3-triyltris(oxy))tris(methylene))tris(1-methyl-1H-imidazolium) bis((trifluoromethyl)sulfonyl)amide (1:3); phases: Liquid
Fixed: Pressure, kPa = 101
Fixed: Mole fraction of methanal = 0
Property: Activity coefficient of methanal (Liquid); method: Chromatography
Temperature, K	Activity coefficient of methanal	uncertainty
312.45	0.07	0.03
322.45	0.07	0.03
332.45	0.08	0.03

System: propanal + 3,3',3''-((propane-1,2,3-triyltris(oxy))tris(methylene))tris(1-methyl-1H-imidazolium) bis((trifluoromethyl)sulfonyl)amide (1:3); phases: Liquid
Fixed: Pressure, kPa = 101
Fixed: Mole fraction of propanal = 0
Property: Activity coefficient of propanal (Liquid); method: Chromatography
Temperature, K	Activity coefficient of propanal	uncertainty
312.45	0.31	0.03
322.45	0.31	0.03
332.45	0.31	0.03

System: hexane + 3,3',3''-[propane-1,2,3-triyltris(oxymethanediyl)]tris(1-methyl-1H-imidazolium) tris(dicyanoazanide); phases: Liquid
Fixed: Pressure, kPa = 101
Fixed: Mole fraction of hexane = 0
Property: Activity coefficient of hexane (Liquid); method: Chromatography
Temperature, K	Activity coefficient of hexane	uncertainty
312.45	55.11	3.77
322.45	39.63	2.71
332.45	28.88	1.97

System: 3-methylpentane + 3,3',3''-[propane-1,2,3-triyltris(oxymethanediyl)]tris(1-methyl-1H-imidazolium) tris(dicyanoazanide); phases: Liquid
Fixed: Pressure, kPa = 101
Fixed: Mole fraction of 3-methylpentane = 0
Property: Activity coefficient of 3-methylpentane (Liquid); method: Chromatography
Temperature, K	Activity coefficient of 3-methylpentane	uncertainty
312.45	49.28	3.37
322.45	45.66	3.13
332.45	42.43	2.9

System: heptane + 3,3',3''-[propane-1,2,3-triyltris(oxymethanediyl)]tris(1-methyl-1H-imidazolium) tris(dicyanoazanide); phases: Liquid
Fixed: Pressure, kPa = 101
Fixed: Mole fraction of heptane = 0
Property: Activity coefficient of heptane (Liquid); method: Chromatography
Temperature, K	Activity coefficient of heptane	uncertainty
312.45	104.58	7.17
322.45	87.15	5.97
332.45	73.17	5.01

System: 2,2,4-trimethylpentane + 3,3',3''-[propane-1,2,3-triyltris(oxymethanediyl)]tris(1-methyl-1H-imidazolium) tris(dicyanoazanide); phases: Liquid
Fixed: Pressure, kPa = 101
Fixed: Mole fraction of 2,2,4-trimethylpentane = 0
Property: Activity coefficient of 2,2,4-trimethylpentane (Liquid); method: Chromatography
Temperature, K	Activity coefficient of 2,2,4-trimethylpentane	uncertainty
312.45	92.89	6.37
322.45	83.76	5.74
332.45	75.85	5.2

System: octane + 3,3',3''-[propane-1,2,3-triyltris(oxymethanediyl)]tris(1-methyl-1H-imidazolium) tris(dicyanoazanide); phases: Liquid
Fixed: Pressure, kPa = 101
Fixed: Mole fraction of octane = 0
Property: Activity coefficient of octane (Liquid); method: Chromatography
Temperature, K	Activity coefficient of octane	uncertainty
312.45	141.82	9.73
322.45	121.27	8.32
332.45	104.36	7.16

System: nonane + 3,3',3''-[propane-1,2,3-triyltris(oxymethanediyl)]tris(1-methyl-1H-imidazolium) tris(dicyanoazanide); phases: Liquid
Fixed: Pressure, kPa = 101
Fixed: Mole fraction of nonane = 0
Property: Activity coefficient of nonane (Liquid); method: Chromatography
Temperature, K	Activity coefficient of nonane	uncertainty
312.45	211.22	14.51
322.45	187.11	12.85
332.45	166.57	11.43

System: decane + 3,3',3''-[propane-1,2,3-triyltris(oxymethanediyl)]tris(1-methyl-1H-imidazolium) tris(dicyanoazanide); phases: Liquid
Fixed: Pressure, kPa = 101
Fixed: Mole fraction of decane = 0
Property: Activity coefficient of decane (Liquid); method: Chromatography
Temperature, K	Activity coefficient of decane	uncertainty
312.45	248.35	17.06
322.45	229.73	15.78
332.45	213.18	14.64

System: undecane + 3,3',3''-[propane-1,2,3-triyltris(oxymethanediyl)]tris(1-methyl-1H-imidazolium) tris(dicyanoazanide); phases: Liquid
Fixed: Pressure, kPa = 101
Fixed: Mole fraction of undecane = 0
Property: Activity coefficient of undecane (Liquid); method: Chromatography
Temperature, K	Activity coefficient of undecane	uncertainty
312.45	294.96	20.27
322.45	283.42	19.48
332.45	272.77	18.74

System: dodecane + 3,3',3''-[propane-1,2,3-triyltris(oxymethanediyl)]tris(1-methyl-1H-imidazolium) tris(dicyanoazanide); phases: Liquid
Fixed: Pressure, kPa = 101
Fixed: Mole fraction of dodecane = 0
Property: Activity coefficient of dodecane (Liquid); method: Chromatography
Temperature, K	Activity coefficient of dodecane	uncertainty
312.45	334.89	23.02
322.45	323.77	22.26
332.45	313.44	21.55

System: tridecane + 3,3',3''-[propane-1,2,3-triyltris(oxymethanediyl)]tris(1-methyl-1H-imidazolium) tris(dicyanoazanide); phases: Liquid
Fixed: Pressure, kPa = 101
Fixed: Mole fraction of tridecane = 0
Property: Activity coefficient of tridecane (Liquid); method: Chromatography
Temperature, K	Activity coefficient of tridecane	uncertainty
312.45	397.3	27.32
322.45	385.83	26.53
332.45	375.13	25.8

System: methylcyclopentane + 3,3',3''-[propane-1,2,3-triyltris(oxymethanediyl)]tris(1-methyl-1H-imidazolium) tris(dicyanoazanide); phases: Liquid
Fixed: Pressure, kPa = 101
Fixed: Mole fraction of methylcyclopentane = 0
Property: Activity coefficient of methylcyclopentane (Liquid); method: Chromatography
Temperature, K	Activity coefficient of methylcyclopentane	uncertainty
312.45	63.94	4.38
322.45	35.29	2.41
332.45	19.95	1.36

System: cyclohexane + 3,3',3''-[propane-1,2,3-triyltris(oxymethanediyl)]tris(1-methyl-1H-imidazolium) tris(dicyanoazanide); phases: Liquid
Fixed: Pressure, kPa = 101
Fixed: Mole fraction of cyclohexane = 0
Property: Activity coefficient of cyclohexane (Liquid); method: Chromatography
Temperature, K	Activity coefficient of cyclohexane	uncertainty
312.45	44.42	3.04
322.45	29.75	2.03
332.45	20.25	1.38

System: methylcyclohexane + 3,3',3''-[propane-1,2,3-triyltris(oxymethanediyl)]tris(1-methyl-1H-imidazolium) tris(dicyanoazanide); phases: Liquid
Fixed: Pressure, kPa = 101
Fixed: Mole fraction of methylcyclohexane = 0
Property: Activity coefficient of methylcyclohexane (Liquid); method: Chromatography
Temperature, K	Activity coefficient of methylcyclohexane	uncertainty
312.45	74.24	5.09
322.45	51.37	3.52
332.45	36.08	2.47

System: cycloheptane + 3,3',3''-[propane-1,2,3-triyltris(oxymethanediyl)]tris(1-methyl-1H-imidazolium) tris(dicyanoazanide); phases: Liquid
Fixed: Pressure, kPa = 101
Fixed: Mole fraction of cycloheptane = 0
Property: Activity coefficient of cycloheptane (Liquid); method: Chromatography
Temperature, K	Activity coefficient of cycloheptane	uncertainty
312.45	116.61	8
322.45	123.36	8.46
332.45	130.2	8.93

System: benzene + 3,3',3''-[propane-1,2,3-triyltris(oxymethanediyl)]tris(1-methyl-1H-imidazolium) tris(dicyanoazanide); phases: Liquid
Fixed: Pressure, kPa = 101
Fixed: Mole fraction of benzene = 0
Property: Activity coefficient of benzene (Liquid); method: Chromatography
Temperature, K	Activity coefficient of benzene	uncertainty
312.45	2.94	0.2
322.45	2.77	0.19
332.45	2.61	0.18

System: toluene + 3,3',3''-[propane-1,2,3-triyltris(oxymethanediyl)]tris(1-methyl-1H-imidazolium) tris(dicyanoazanide); phases: Liquid
Fixed: Pressure, kPa = 101
Fixed: Mole fraction of toluene = 0
Property: Activity coefficient of toluene (Liquid); method: Chromatography
Temperature, K	Activity coefficient of toluene	uncertainty
312.45	5.55	0.38
322.45	5.25	0.36
332.45	4.98	0.34

System: ethylbenzene + 3,3',3''-[propane-1,2,3-triyltris(oxymethanediyl)]tris(1-methyl-1H-imidazolium) tris(dicyanoazanide); phases: Liquid
Fixed: Pressure, kPa = 101
Fixed: Mole fraction of ethylbenzene = 0
Property: Activity coefficient of ethylbenzene (Liquid); method: Chromatography
Temperature, K	Activity coefficient of ethylbenzene	uncertainty
312.45	10.98	0.75
322.45	10.39	0.71
332.45	9.86	0.67

System: 1,3-dimethylbenzene + 3,3',3''-[propane-1,2,3-triyltris(oxymethanediyl)]tris(1-methyl-1H-imidazolium) tris(dicyanoazanide); phases: Liquid
Fixed: Pressure, kPa = 101
Fixed: Mole fraction of 1,3-dimethylbenzene = 0
Property: Activity coefficient of 1,3-dimethylbenzene (Liquid); method: Chromatography
Temperature, K	Activity coefficient of 1,3-dimethylbenzene	uncertainty
312.45	11.09	0.76
322.45	10.49	0.72
332.45	9.94	0.68

System: 1,4-dimethylbenzene + 3,3',3''-[propane-1,2,3-triyltris(oxymethanediyl)]tris(1-methyl-1H-imidazolium) tris(dicyanoazanide); phases: Liquid
Fixed: Pressure, kPa = 101
Fixed: Mole fraction of 1,4-dimethylbenzene = 0
Property: Activity coefficient of 1,4-dimethylbenzene (Liquid); method: Chromatography
Temperature, K	Activity coefficient of 1,4-dimethylbenzene	uncertainty
312.45	10.49	0.72
322.45	9.95	0.68
332.45	9.45	0.64

System: 1,2-dimethylbenzene + 3,3',3''-[propane-1,2,3-triyltris(oxymethanediyl)]tris(1-methyl-1H-imidazolium) tris(dicyanoazanide); phases: Liquid
Fixed: Pressure, kPa = 101
Fixed: Mole fraction of 1,2-dimethylbenzene = 0
Property: Activity coefficient of 1,2-dimethylbenzene (Liquid); method: Chromatography
Temperature, K	Activity coefficient of 1,2-dimethylbenzene	uncertainty
312.45	8.5	0.58
322.45	8.21	0.56
332.45	7.95	0.54

System: hex-1-ene + 3,3',3''-[propane-1,2,3-triyltris(oxymethanediyl)]tris(1-methyl-1H-imidazolium) tris(dicyanoazanide); phases: Liquid
Fixed: Pressure, kPa = 101
Fixed: Mole fraction of hex-1-ene = 0
Property: Activity coefficient of hex-1-ene (Liquid); method: Chromatography
Temperature, K	Activity coefficient of hex-1-ene	uncertainty
312.45	57.1	3.91
322.45	51.86	3.55
332.45	47.28	3.24

System: 1-hexyne + 3,3',3''-[propane-1,2,3-triyltris(oxymethanediyl)]tris(1-methyl-1H-imidazolium) tris(dicyanoazanide); phases: Liquid
Fixed: Pressure, kPa = 101
Fixed: Mole fraction of 1-hexyne = 0
Property: Activity coefficient of 1-hexyne (Liquid); method: Chromatography
Temperature, K	Activity coefficient of 1-hexyne	uncertainty
312.45	13.98	0.95
322.45	12.36	0.84
332.45	10.99	0.75

System: 1-heptyne + 3,3',3''-[propane-1,2,3-triyltris(oxymethanediyl)]tris(1-methyl-1H-imidazolium) tris(dicyanoazanide); phases: Liquid
Fixed: Pressure, kPa = 101
Fixed: Mole fraction of 1-heptyne = 0
Property: Activity coefficient of 1-heptyne (Liquid); method: Chromatography
Temperature, K	Activity coefficient of 1-heptyne	uncertainty
312.45	25.17	1.72
322.45	22.58	1.54
332.45	20.34	1.39

System: butanone + 3,3',3''-[propane-1,2,3-triyltris(oxymethanediyl)]tris(1-methyl-1H-imidazolium) tris(dicyanoazanide); phases: Liquid
Fixed: Pressure, kPa = 101
Fixed: Mole fraction of butanone = 0
Property: Activity coefficient of butanone (Liquid); method: Chromatography
Temperature, K	Activity coefficient of butanone	uncertainty
312.45	1.59	0.11
322.45	1.45	0.1
332.45	1.32	0.09

System: pentan-2-one + 3,3',3''-[propane-1,2,3-triyltris(oxymethanediyl)]tris(1-methyl-1H-imidazolium) tris(dicyanoazanide); phases: Liquid
Fixed: Pressure, kPa = 101
Fixed: Mole fraction of pentan-2-one = 0
Property: Activity coefficient of pentan-2-one (Liquid); method: Chromatography
Temperature, K	Activity coefficient of pentan-2-one	uncertainty
312.45	3.27	0.22
322.45	3.16	0.22
332.45	3.06	0.21

System: pentan-3-one + 3,3',3''-[propane-1,2,3-triyltris(oxymethanediyl)]tris(1-methyl-1H-imidazolium) tris(dicyanoazanide); phases: Liquid
Fixed: Pressure, kPa = 101
Fixed: Mole fraction of pentan-3-one = 0
Property: Activity coefficient of pentan-3-one (Liquid); method: Chromatography
Temperature, K	Activity coefficient of pentan-3-one	uncertainty
312.45	3.16	0.22
322.45	3.08	0.21
332.45	3.01	0.2

System: 1,4-dioxane + 3,3',3''-[propane-1,2,3-triyltris(oxymethanediyl)]tris(1-methyl-1H-imidazolium) tris(dicyanoazanide); phases: Liquid
Fixed: Pressure, kPa = 101
Fixed: Mole fraction of 1,4-dioxane = 0
Property: Activity coefficient of 1,4-dioxane (Liquid); method: Chromatography
Temperature, K	Activity coefficient of 1,4-dioxane	uncertainty
312.45	0.94	0.06
322.45	0.95	0.06
332.45	0.96	0.06

System: methanol + 3,3',3''-[propane-1,2,3-triyltris(oxymethanediyl)]tris(1-methyl-1H-imidazolium) tris(dicyanoazanide); phases: Liquid
Fixed: Pressure, kPa = 101
Fixed: Mole fraction of methanol = 0
Property: Activity coefficient of methanol (Liquid); method: Chromatography
Temperature, K	Activity coefficient of methanol	uncertainty
312.45	0.3	0.03
322.45	0.3	0.03
332.45	0.3	0.03

System: ethanol + 3,3',3''-[propane-1,2,3-triyltris(oxymethanediyl)]tris(1-methyl-1H-imidazolium) tris(dicyanoazanide); phases: Liquid
Fixed: Pressure, kPa = 101
Fixed: Mole fraction of ethanol = 0
Property: Activity coefficient of ethanol (Liquid); method: Chromatography
Temperature, K	Activity coefficient of ethanol	uncertainty
312.45	0.73	0.05
322.45	0.7	0.05
332.45	0.67	0.05

System: propan-1-ol + 3,3',3''-[propane-1,2,3-triyltris(oxymethanediyl)]tris(1-methyl-1H-imidazolium) tris(dicyanoazanide); phases: Liquid
Fixed: Pressure, kPa = 101
Fixed: Mole fraction of propan-1-ol = 0
Property: Activity coefficient of propan-1-ol (Liquid); method: Chromatography
Temperature, K	Activity coefficient of propan-1-ol	uncertainty
312.45	1.23	0.08
322.45	1.16	0.07
332.45	1.09	0.07

System: propan-2-ol + 3,3',3''-[propane-1,2,3-triyltris(oxymethanediyl)]tris(1-methyl-1H-imidazolium) tris(dicyanoazanide); phases: Liquid
Fixed: Pressure, kPa = 101
Fixed: Mole fraction of propan-2-ol = 0
Property: Activity coefficient of propan-2-ol (Liquid); method: Chromatography
Temperature, K	Activity coefficient of propan-2-ol	uncertainty
312.45	1.43	0.09
322.45	1.32	0.09
332.45	1.22	0.08

System: 2-methyl-1-propanol + 3,3',3''-[propane-1,2,3-triyltris(oxymethanediyl)]tris(1-methyl-1H-imidazolium) tris(dicyanoazanide); phases: Liquid
Fixed: Pressure, kPa = 101
Fixed: Mole fraction of 2-methyl-1-propanol = 0
Property: Activity coefficient of 2-methyl-1-propanol (Liquid); method: Chromatography
Temperature, K	Activity coefficient of 2-methyl-1-propanol	uncertainty
312.45	2.1	0.14
322.45	1.92	0.13
332.45	1.76	0.12

System: butan-1-ol + 3,3',3''-[propane-1,2,3-triyltris(oxymethanediyl)]tris(1-methyl-1H-imidazolium) tris(dicyanoazanide); phases: Liquid
Fixed: Pressure, kPa = 101
Fixed: Mole fraction of butan-1-ol = 0
Property: Activity coefficient of butan-1-ol (Liquid); method: Chromatography
Temperature, K	Activity coefficient of butan-1-ol	uncertainty
312.45	2.21	0.15
322.45	2.03	0.14
332.45	1.87	0.13

System: 2,2,2-trifluoroethanol + 3,3',3''-[propane-1,2,3-triyltris(oxymethanediyl)]tris(1-methyl-1H-imidazolium) tris(dicyanoazanide); phases: Liquid
Fixed: Pressure, kPa = 101
Fixed: Mole fraction of 2,2,2-trifluoroethanol = 0
Property: Activity coefficient of 2,2,2-trifluoroethanol (Liquid); method: Chromatography
Temperature, K	Activity coefficient of 2,2,2-trifluoroethanol	uncertainty
312.45	0.14	0.03
322.45	0.15	0.03
332.45	0.15	0.03

System: diethyl ether + 3,3',3''-[propane-1,2,3-triyltris(oxymethanediyl)]tris(1-methyl-1H-imidazolium) tris(dicyanoazanide); phases: Liquid
Fixed: Pressure, kPa = 101
Fixed: Mole fraction of diethyl ether = 0
Property: Activity coefficient of diethyl ether (Liquid); method: Chromatography
Temperature, K	Activity coefficient of diethyl ether	uncertainty
312.45	13.41	0.92
322.45	9.45	0.64
332.45	6.75	0.46

System: diisopropyl ether + 3,3',3''-[propane-1,2,3-triyltris(oxymethanediyl)]tris(1-methyl-1H-imidazolium) tris(dicyanoazanide); phases: Liquid
Fixed: Pressure, kPa = 101
Fixed: Mole fraction of diisopropyl ether = 0
Property: Activity coefficient of diisopropyl ether (Liquid); method: Chromatography
Temperature, K	Activity coefficient of diisopropyl ether	uncertainty
312.45	33.48	2.29
322.45	25.8	1.76
332.45	20.1	1.37

System: trichloromethane + 3,3',3''-[propane-1,2,3-triyltris(oxymethanediyl)]tris(1-methyl-1H-imidazolium) tris(dicyanoazanide); phases: Liquid
Fixed: Pressure, kPa = 101
Fixed: Mole fraction of trichloromethane = 0
Property: Activity coefficient of trichloromethane (Liquid); method: Chromatography
Temperature, K	Activity coefficient of trichloromethane	uncertainty
312.45	0.95	0.06
322.45	0.99	0.06
332.45	1.03	0.06

System: dichloromethane + 3,3',3''-[propane-1,2,3-triyltris(oxymethanediyl)]tris(1-methyl-1H-imidazolium) tris(dicyanoazanide); phases: Liquid
Fixed: Pressure, kPa = 101
Fixed: Mole fraction of dichloromethane = 0
Property: Activity coefficient of dichloromethane (Liquid); method: Chromatography
Temperature, K	Activity coefficient of dichloromethane	uncertainty
312.45	0.61	0.04
322.45	0.64	0.04
332.45	0.68	0.05

System: tetrachloromethane + 3,3',3''-[propane-1,2,3-triyltris(oxymethanediyl)]tris(1-methyl-1H-imidazolium) tris(dicyanoazanide); phases: Liquid
Fixed: Pressure, kPa = 101
Fixed: Mole fraction of tetrachloromethane = 0
Property: Activity coefficient of tetrachloromethane (Liquid); method: Chromatography
Temperature, K	Activity coefficient of tetrachloromethane	uncertainty
312.45	7.2	0.49
322.45	6.87	0.47
332.45	6.57	0.45

System: acetonitrile + 3,3',3''-[propane-1,2,3-triyltris(oxymethanediyl)]tris(1-methyl-1H-imidazolium) tris(dicyanoazanide); phases: Liquid
Fixed: Pressure, kPa = 101
Fixed: Mole fraction of acetonitrile = 0
Property: Activity coefficient of acetonitrile (Liquid); method: Chromatography
Temperature, K	Activity coefficient of acetonitrile	uncertainty
312.45	0.52	0.04
322.45	0.52	0.04
332.45	0.52	0.04

System: nitromethane + 3,3',3''-[propane-1,2,3-triyltris(oxymethanediyl)]tris(1-methyl-1H-imidazolium) tris(dicyanoazanide); phases: Liquid
Fixed: Pressure, kPa = 101
Fixed: Mole fraction of nitromethane = 0
Property: Activity coefficient of nitromethane (Liquid); method: Chromatography
Temperature, K	Activity coefficient of nitromethane	uncertainty
312.45	1.26	0.08
322.45	0.75	0.05
332.45	0.45	0.04

System: 1-nitropropane + 3,3',3''-[propane-1,2,3-triyltris(oxymethanediyl)]tris(1-methyl-1H-imidazolium) tris(dicyanoazanide); phases: Liquid
Fixed: Pressure, kPa = 101
Fixed: Mole fraction of 1-nitropropane = 0
Property: Activity coefficient of 1-nitropropane (Liquid); method: Chromatography
Temperature, K	Activity coefficient of 1-nitropropane	uncertainty
312.45	1.45	0.1
322.45	1.46	0.1
332.45	1.46	0.1

System: pyridine + 3,3',3''-[propane-1,2,3-triyltris(oxymethanediyl)]tris(1-methyl-1H-imidazolium) tris(dicyanoazanide); phases: Liquid
Fixed: Pressure, kPa = 101
Fixed: Mole fraction of pyridine = 0
Property: Activity coefficient of pyridine (Liquid); method: Chromatography
Temperature, K	Activity coefficient of pyridine	uncertainty
312.45	0.87	0.06
322.45	0.88	0.06
332.45	0.88	0.06

System: thiophene + 3,3',3''-[propane-1,2,3-triyltris(oxymethanediyl)]tris(1-methyl-1H-imidazolium) tris(dicyanoazanide); phases: Liquid
Fixed: Pressure, kPa = 101
Fixed: Mole fraction of thiophene = 0
Property: Activity coefficient of thiophene (Liquid); method: Chromatography
Temperature, K	Activity coefficient of thiophene	uncertainty
312.45	1.5	0.1
322.45	1.48	0.1
332.45	1.46	0.1

System: methanal + 3,3',3''-[propane-1,2,3-triyltris(oxymethanediyl)]tris(1-methyl-1H-imidazolium) tris(dicyanoazanide); phases: Liquid
Fixed: Pressure, kPa = 101
Fixed: Mole fraction of methanal = 0
Property: Activity coefficient of methanal (Liquid); method: Chromatography
Temperature, K	Activity coefficient of methanal	uncertainty
312.45	0.27	0.03
322.45	0.16	0.03
332.45	0.1	0.03

System: propanal + 3,3',3''-[propane-1,2,3-triyltris(oxymethanediyl)]tris(1-methyl-1H-imidazolium) tris(dicyanoazanide); phases: Liquid
Fixed: Pressure, kPa = 101
Fixed: Mole fraction of propanal = 0
Property: Activity coefficient of propanal (Liquid); method: Chromatography
Temperature, K	Activity coefficient of propanal	uncertainty
312.45	1.13	0.07
322.45	1.11	0.07
332.45	1.09	0.07

System: hexane + 3,3',3''-((propane-1,2,3-triyltris(oxy))tris(methylene))tris(2-methyl-1-octyl-1H-imidazolium) bis((trifluoromethyl)sulfonyl)amide (1:3); phases: Liquid
Fixed: Pressure, kPa = 101
Fixed: Mole fraction of hexane = 0
Property: Activity coefficient of hexane (Liquid); method: Chromatography
Temperature, K	Activity coefficient of hexane	uncertainty
312.45	2.56	0.17
322.45	2.44	0.17
332.45	2.14	0.15

System: 3-methylpentane + 3,3',3''-((propane-1,2,3-triyltris(oxy))tris(methylene))tris(2-methyl-1-octyl-1H-imidazolium) bis((trifluoromethyl)sulfonyl)amide (1:3); phases: Liquid
Fixed: Pressure, kPa = 101
Fixed: Mole fraction of 3-methylpentane = 0
Property: Activity coefficient of 3-methylpentane (Liquid); method: Chromatography
Temperature, K	Activity coefficient of 3-methylpentane	uncertainty
312.55	2.32	0.16
322.45	2.28	0.16
332.45	1.95	0.13

System: heptane + 3,3',3''-((propane-1,2,3-triyltris(oxy))tris(methylene))tris(2-methyl-1-octyl-1H-imidazolium) bis((trifluoromethyl)sulfonyl)amide (1:3); phases: Liquid
Fixed: Pressure, kPa = 101
Fixed: Mole fraction of heptane = 0
Property: Activity coefficient of heptane (Liquid); method: Chromatography
Temperature, K	Activity coefficient of heptane	uncertainty
312.55	3.45	0.23
322.45	3.37	0.23
332.45	3.04	0.21

System: 2,2,4-trimethylpentane + 3,3',3''-((propane-1,2,3-triyltris(oxy))tris(methylene))tris(2-methyl-1-octyl-1H-imidazolium) bis((trifluoromethyl)sulfonyl)amide (1:3); phases: Liquid
Fixed: Pressure, kPa = 101
Fixed: Mole fraction of 2,2,4-trimethylpentane = 0
Property: Activity coefficient of 2,2,4-trimethylpentane (Liquid); method: Chromatography
Temperature, K	Activity coefficient of 2,2,4-trimethylpentane	uncertainty
312.55	4.5	0.31
322.45	4.26	0.29
332.45	4.02	0.27

System: octane + 3,3',3''-((propane-1,2,3-triyltris(oxy))tris(methylene))tris(2-methyl-1-octyl-1H-imidazolium) bis((trifluoromethyl)sulfonyl)amide (1:3); phases: Liquid
Fixed: Pressure, kPa = 101
Fixed: Mole fraction of octane = 0
Property: Activity coefficient of octane (Liquid); method: Chromatography
Temperature, K	Activity coefficient of octane	uncertainty
312.55	6.49	0.44
322.45	6.09	0.42
332.45	5.71	0.39

System: nonane + 3,3',3''-((propane-1,2,3-triyltris(oxy))tris(methylene))tris(2-methyl-1-octyl-1H-imidazolium) bis((trifluoromethyl)sulfonyl)amide (1:3); phases: Liquid
Fixed: Pressure, kPa = 101
Fixed: Mole fraction of nonane = 0
Property: Activity coefficient of nonane (Liquid); method: Chromatography
Temperature, K	Activity coefficient of nonane	uncertainty
312.55	6.49	0.44
322.45	6.09	0.42
332.45	5.71	0.39

System: decane + 3,3',3''-((propane-1,2,3-triyltris(oxy))tris(methylene))tris(2-methyl-1-octyl-1H-imidazolium) bis((trifluoromethyl)sulfonyl)amide (1:3); phases: Liquid
Fixed: Pressure, kPa = 101
Fixed: Mole fraction of decane = 0
Property: Activity coefficient of decane (Liquid); method: Chromatography
Temperature, K	Activity coefficient of decane	uncertainty
312.55	7.69	0.52
322.45	7.2	0.49
332.45	6.79	0.46

System: undecane + 3,3',3''-((propane-1,2,3-triyltris(oxy))tris(methylene))tris(2-methyl-1-octyl-1H-imidazolium) bis((trifluoromethyl)sulfonyl)amide (1:3); phases: Liquid
Fixed: Pressure, kPa = 101
Fixed: Mole fraction of undecane = 0
Property: Activity coefficient of undecane (Liquid); method: Chromatography
Temperature, K	Activity coefficient of undecane	uncertainty
312.55	10.05	0.69
322.45	9.41	0.64
332.45	8.77	0.6

System: dodecane + 3,3',3''-((propane-1,2,3-triyltris(oxy))tris(methylene))tris(2-methyl-1-octyl-1H-imidazolium) bis((trifluoromethyl)sulfonyl)amide (1:3); phases: Liquid
Fixed: Pressure, kPa = 101
Fixed: Mole fraction of dodecane = 0
Property: Activity coefficient of dodecane (Liquid); method: Chromatography
Temperature, K	Activity coefficient of dodecane	uncertainty
322.45	11.69	0.8
332.45	11.02	0.75

System: methylcyclopentane + 3,3',3''-((propane-1,2,3-triyltris(oxy))tris(methylene))tris(2-methyl-1-octyl-1H-imidazolium) bis((trifluoromethyl)sulfonyl)amide (1:3); phases: Liquid
Fixed: Pressure, kPa = 101
Fixed: Mole fraction of methylcyclopentane = 0
Property: Activity coefficient of methylcyclopentane (Liquid); method: Chromatography
Temperature, K	Activity coefficient of methylcyclopentane	uncertainty
312.55	1.74	0.12
322.45	1.68	0.11
332.45	1.54	0.1

System: cyclohexane + 3,3',3''-((propane-1,2,3-triyltris(oxy))tris(methylene))tris(2-methyl-1-octyl-1H-imidazolium) bis((trifluoromethyl)sulfonyl)amide (1:3); phases: Liquid
Fixed: Pressure, kPa = 101
Fixed: Mole fraction of cyclohexane = 0
Property: Activity coefficient of cyclohexane (Liquid); method: Chromatography
Temperature, K	Activity coefficient of cyclohexane	uncertainty
312.55	1.71	0.11
322.45	1.64	0.11
332.45	1.53	0.1

System: methylcyclohexane + 3,3',3''-((propane-1,2,3-triyltris(oxy))tris(methylene))tris(2-methyl-1-octyl-1H-imidazolium) bis((trifluoromethyl)sulfonyl)amide (1:3); phases: Liquid
Fixed: Pressure, kPa = 101
Fixed: Mole fraction of methylcyclohexane = 0
Property: Activity coefficient of methylcyclohexane (Liquid); method: Chromatography
Temperature, K	Activity coefficient of methylcyclohexane	uncertainty
312.55	2.17	0.15
322.45	2.08	0.14
332.45	1.94	0.13

System: cycloheptane + 3,3',3''-((propane-1,2,3-triyltris(oxy))tris(methylene))tris(2-methyl-1-octyl-1H-imidazolium) bis((trifluoromethyl)sulfonyl)amide (1:3); phases: Liquid
Fixed: Pressure, kPa = 101
Fixed: Mole fraction of cycloheptane = 0
Property: Activity coefficient of cycloheptane (Liquid); method: Chromatography
Temperature, K	Activity coefficient of cycloheptane	uncertainty
312.55	2.95	0.2
322.45	4.15	0.28
332.45	5.61	0.38

System: benzene + 3,3',3''-((propane-1,2,3-triyltris(oxy))tris(methylene))tris(2-methyl-1-octyl-1H-imidazolium) bis((trifluoromethyl)sulfonyl)amide (1:3); phases: Liquid
Fixed: Pressure, kPa = 101
Fixed: Mole fraction of benzene = 0
Property: Activity coefficient of benzene (Liquid); method: Chromatography
Temperature, K	Activity coefficient of benzene	uncertainty
312.55	0.3	0.03
322.45	0.3	0.03
332.45	0.3	0.03

System: toluene + 3,3',3''-((propane-1,2,3-triyltris(oxy))tris(methylene))tris(2-methyl-1-octyl-1H-imidazolium) bis((trifluoromethyl)sulfonyl)amide (1:3); phases: Liquid
Fixed: Pressure, kPa = 101
Fixed: Mole fraction of toluene = 0
Property: Activity coefficient of toluene (Liquid); method: Chromatography
Temperature, K	Activity coefficient of toluene	uncertainty
312.55	0.4	0.03
322.45	0.4	0.03
332.45	0.41	0.03

System: ethylbenzene + 3,3',3''-((propane-1,2,3-triyltris(oxy))tris(methylene))tris(2-methyl-1-octyl-1H-imidazolium) bis((trifluoromethyl)sulfonyl)amide (1:3); phases: Liquid
Fixed: Pressure, kPa = 101
Fixed: Mole fraction of ethylbenzene = 0
Property: Activity coefficient of ethylbenzene (Liquid); method: Chromatography
Temperature, K	Activity coefficient of ethylbenzene	uncertainty
312.55	0.56	0.04
322.45	0.56	0.04
332.45	0.57	0.04

System: 1,3-dimethylbenzene + 3,3',3''-((propane-1,2,3-triyltris(oxy))tris(methylene))tris(2-methyl-1-octyl-1H-imidazolium) bis((trifluoromethyl)sulfonyl)amide (1:3); phases: Liquid
Fixed: Pressure, kPa = 101
Fixed: Mole fraction of 1,3-dimethylbenzene = 0
Property: Activity coefficient of 1,3-dimethylbenzene (Liquid); method: Chromatography
Temperature, K	Activity coefficient of 1,3-dimethylbenzene	uncertainty
312.55	0.57	0.04
322.45	0.57	0.04
332.45	0.57	0.04

System: 1,4-dimethylbenzene + 3,3',3''-((propane-1,2,3-triyltris(oxy))tris(methylene))tris(2-methyl-1-octyl-1H-imidazolium) bis((trifluoromethyl)sulfonyl)amide (1:3); phases: Liquid
Fixed: Pressure, kPa = 101
Fixed: Mole fraction of 1,4-dimethylbenzene = 0
Property: Activity coefficient of 1,4-dimethylbenzene (Liquid); method: Chromatography
Temperature, K	Activity coefficient of 1,4-dimethylbenzene	uncertainty
312.55	0.57	0.04
322.45	0.57	0.04
332.45	0.57	0.04

System: 1,2-dimethylbenzene + 3,3',3''-((propane-1,2,3-triyltris(oxy))tris(methylene))tris(2-methyl-1-octyl-1H-imidazolium) bis((trifluoromethyl)sulfonyl)amide (1:3); phases: Liquid
Fixed: Pressure, kPa = 101
Fixed: Mole fraction of 1,2-dimethylbenzene = 0
Property: Activity coefficient of 1,2-dimethylbenzene (Liquid); method: Chromatography
Temperature, K	Activity coefficient of 1,2-dimethylbenzene	uncertainty
312.55	0.51	0.04
322.45	0.51	0.04
332.45	0.52	0.04

System: hex-1-ene + 3,3',3''-((propane-1,2,3-triyltris(oxy))tris(methylene))tris(2-methyl-1-octyl-1H-imidazolium) bis((trifluoromethyl)sulfonyl)amide (1:3); phases: Liquid
Fixed: Pressure, kPa = 101
Fixed: Mole fraction of hex-1-ene = 0
Property: Activity coefficient of hex-1-ene (Liquid); method: Chromatography
Temperature, K	Activity coefficient of hex-1-ene	uncertainty
312.55	1.65	0.11
322.45	1.59	0.11
332.45	1.52	0.1

System: 1-hexyne + 3,3',3''-((propane-1,2,3-triyltris(oxy))tris(methylene))tris(2-methyl-1-octyl-1H-imidazolium) bis((trifluoromethyl)sulfonyl)amide (1:3); phases: Liquid
Fixed: Pressure, kPa = 101
Fixed: Mole fraction of 1-hexyne = 0
Property: Activity coefficient of 1-hexyne (Liquid); method: Chromatography
Temperature, K	Activity coefficient of 1-hexyne	uncertainty
312.55	0.81	0.05
322.45	0.79	0.05
332.45	0.77	0.05

System: 1-heptyne + 3,3',3''-((propane-1,2,3-triyltris(oxy))tris(methylene))tris(2-methyl-1-octyl-1H-imidazolium) bis((trifluoromethyl)sulfonyl)amide (1:3); phases: Liquid
Fixed: Pressure, kPa = 101
Fixed: Mole fraction of 1-heptyne = 0
Property: Activity coefficient of 1-heptyne (Liquid); method: Chromatography
Temperature, K	Activity coefficient of 1-heptyne	uncertainty
312.55	1.02	0.06
322.45	1.01	0.06
332.45	1.01	0.06

System: butanone + 3,3',3''-((propane-1,2,3-triyltris(oxy))tris(methylene))tris(2-methyl-1-octyl-1H-imidazolium) bis((trifluoromethyl)sulfonyl)amide (1:3); phases: Liquid
Fixed: Pressure, kPa = 101
Fixed: Mole fraction of butanone = 0
Property: Activity coefficient of butanone (Liquid); method: Chromatography
Temperature, K	Activity coefficient of butanone	uncertainty
312.55	0.15	0.03
322.45	0.15	0.03
332.45	0.14	0.03

System: pentan-2-one + 3,3',3''-((propane-1,2,3-triyltris(oxy))tris(methylene))tris(2-methyl-1-octyl-1H-imidazolium) bis((trifluoromethyl)sulfonyl)amide (1:3); phases: Liquid
Fixed: Pressure, kPa = 101
Fixed: Mole fraction of pentan-2-one = 0
Property: Activity coefficient of pentan-2-one (Liquid); method: Chromatography
Temperature, K	Activity coefficient of pentan-2-one	uncertainty
312.55	0.2	0.03
322.45	0.21	0.03
332.45	0.21	0.03

System: pentan-3-one + 3,3',3''-((propane-1,2,3-triyltris(oxy))tris(methylene))tris(2-methyl-1-octyl-1H-imidazolium) bis((trifluoromethyl)sulfonyl)amide (1:3); phases: Liquid
Fixed: Pressure, kPa = 101
Fixed: Mole fraction of pentan-3-one = 0
Property: Activity coefficient of pentan-3-one (Liquid); method: Chromatography
Temperature, K	Activity coefficient of pentan-3-one	uncertainty
312.55	0.19	0.01
322.45	0.2	0.01
332.45	0.2	0.01

System: 1,4-dioxane + 3,3',3''-((propane-1,2,3-triyltris(oxy))tris(methylene))tris(2-methyl-1-octyl-1H-imidazolium) bis((trifluoromethyl)sulfonyl)amide (1:3); phases: Liquid
Fixed: Pressure, kPa = 101
Fixed: Mole fraction of 1,4-dioxane = 0
Property: Activity coefficient of 1,4-dioxane (Liquid); method: Chromatography
Temperature, K	Activity coefficient of 1,4-dioxane	uncertainty
312.55	0.19	0.03
322.45	0.2	0.03
332.45	0.2	0.03

System: methanol + 3,3',3''-((propane-1,2,3-triyltris(oxy))tris(methylene))tris(2-methyl-1-octyl-1H-imidazolium) bis((trifluoromethyl)sulfonyl)amide (1:3); phases: Liquid
Fixed: Pressure, kPa = 101
Fixed: Mole fraction of methanol = 0
Property: Activity coefficient of methanol (Liquid); method: Chromatography
Temperature, K	Activity coefficient of methanol	uncertainty
312.55	0.35	0.03
322.45	0.34	0.03
332.45	0.3	0.03

System: ethanol + 3,3',3''-((propane-1,2,3-triyltris(oxy))tris(methylene))tris(2-methyl-1-octyl-1H-imidazolium) bis((trifluoromethyl)sulfonyl)amide (1:3); phases: Liquid
Fixed: Pressure, kPa = 101
Fixed: Mole fraction of ethanol = 0
Property: Activity coefficient of ethanol (Liquid); method: Chromatography
Temperature, K	Activity coefficient of ethanol	uncertainty
312.55	0.48	0.04
322.45	0.45	0.04
332.45	0.41	0.03

System: propan-1-ol + 3,3',3''-((propane-1,2,3-triyltris(oxy))tris(methylene))tris(2-methyl-1-octyl-1H-imidazolium) bis((trifluoromethyl)sulfonyl)amide (1:3); phases: Liquid
Fixed: Pressure, kPa = 101
Fixed: Mole fraction of propan-1-ol = 0
Property: Activity coefficient of propan-1-ol (Liquid); method: Chromatography
Temperature, K	Activity coefficient of propan-1-ol	uncertainty
312.55	0.56	0.04
322.45	0.52	0.04
332.45	0.48	0.04

System: propan-2-ol + 3,3',3''-((propane-1,2,3-triyltris(oxy))tris(methylene))tris(2-methyl-1-octyl-1H-imidazolium) bis((trifluoromethyl)sulfonyl)amide (1:3); phases: Liquid
Fixed: Pressure, kPa = 101
Fixed: Mole fraction of propan-2-ol = 0
Property: Activity coefficient of propan-2-ol (Liquid); method: Chromatography
Temperature, K	Activity coefficient of propan-2-ol	uncertainty
312.55	0.53	0.04
322.45	0.49	0.04
332.45	0.45	0.04

System: 2-methyl-1-propanol + 3,3',3''-((propane-1,2,3-triyltris(oxy))tris(methylene))tris(2-methyl-1-octyl-1H-imidazolium) bis((trifluoromethyl)sulfonyl)amide (1:3); phases: Liquid
Fixed: Pressure, kPa = 101
Fixed: Mole fraction of 2-methyl-1-propanol = 0
Property: Activity coefficient of 2-methyl-1-propanol (Liquid); method: Chromatography
Temperature, K	Activity coefficient of 2-methyl-1-propanol	uncertainty
312.55	0.66	0.05
322.45	0.6	0.04
332.45	0.54	0.04

System: butan-1-ol + 3,3',3''-((propane-1,2,3-triyltris(oxy))tris(methylene))tris(2-methyl-1-octyl-1H-imidazolium) bis((trifluoromethyl)sulfonyl)amide (1:3); phases: Liquid
Fixed: Pressure, kPa = 101
Fixed: Mole fraction of butan-1-ol = 0
Property: Activity coefficient of butan-1-ol (Liquid); method: Chromatography
Temperature, K	Activity coefficient of butan-1-ol	uncertainty
312.55	0.68	0.05
322.45	0.62	0.04
332.45	0.58	0.04

System: 2,2,2-trifluoroethanol + 3,3',3''-((propane-1,2,3-triyltris(oxy))tris(methylene))tris(2-methyl-1-octyl-1H-imidazolium) bis((trifluoromethyl)sulfonyl)amide (1:3); phases: Liquid
Fixed: Pressure, kPa = 101
Fixed: Mole fraction of 2,2,2-trifluoroethanol = 0
Property: Activity coefficient of 2,2,2-trifluoroethanol (Liquid); method: Chromatography
Temperature, K	Activity coefficient of 2,2,2-trifluoroethanol	uncertainty
312.55	0.18	0.03
322.45	0.09	0.03
332.45	0.08	0.03

System: diethyl ether + 3,3',3''-((propane-1,2,3-triyltris(oxy))tris(methylene))tris(2-methyl-1-octyl-1H-imidazolium) bis((trifluoromethyl)sulfonyl)amide (1:3); phases: Liquid
Fixed: Pressure, kPa = 101
Fixed: Mole fraction of diethyl ether = 0
Property: Activity coefficient of diethyl ether (Liquid); method: Chromatography
Temperature, K	Activity coefficient of diethyl ether	uncertainty
312.55	0.54	0.04
322.45	0.55	0.04
332.45	0.52	0.04

System: diisopropyl ether + 3,3',3''-((propane-1,2,3-triyltris(oxy))tris(methylene))tris(2-methyl-1-octyl-1H-imidazolium) bis((trifluoromethyl)sulfonyl)amide (1:3); phases: Liquid
Fixed: Pressure, kPa = 101
Fixed: Mole fraction of diisopropyl ether = 0
Property: Activity coefficient of diisopropyl ether (Liquid); method: Chromatography
Temperature, K	Activity coefficient of diisopropyl ether	uncertainty
312.55	312.55	21.48
322.45	322.45	22.17
332.45	332.45	22.86

System: trichloromethane + 3,3',3''-((propane-1,2,3-triyltris(oxy))tris(methylene))tris(2-methyl-1-octyl-1H-imidazolium) bis((trifluoromethyl)sulfonyl)amide (1:3); phases: Liquid
Fixed: Pressure, kPa = 101
Fixed: Mole fraction of trichloromethane = 0
Property: Activity coefficient of trichloromethane (Liquid); method: Chromatography
Temperature, K	Activity coefficient of trichloromethane	uncertainty
312.55	0.26	0.03
322.45	0.26	0.03
332.45	0.27	0.03

System: dichloromethane + 3,3',3''-((propane-1,2,3-triyltris(oxy))tris(methylene))tris(2-methyl-1-octyl-1H-imidazolium) bis((trifluoromethyl)sulfonyl)amide (1:3); phases: Liquid
Fixed: Pressure, kPa = 101
Fixed: Mole fraction of dichloromethane = 0
Property: Activity coefficient of dichloromethane (Liquid); method: Chromatography
Temperature, K	Activity coefficient of dichloromethane	uncertainty
312.55	0.19	0.03
322.45	0.2	0.03
332.45	0.2	0.03

System: tetrachloromethane + 3,3',3''-((propane-1,2,3-triyltris(oxy))tris(methylene))tris(2-methyl-1-octyl-1H-imidazolium) bis((trifluoromethyl)sulfonyl)amide (1:3); phases: Liquid
Fixed: Pressure, kPa = 101
Fixed: Mole fraction of tetrachloromethane = 0
Property: Activity coefficient of tetrachloromethane (Liquid); method: Chromatography
Temperature, K	Activity coefficient of tetrachloromethane	uncertainty
312.55	0.7	0.05
322.45	0.68	0.05
332.45	0.71	0.05

System: acetonitrile + 3,3',3''-((propane-1,2,3-triyltris(oxy))tris(methylene))tris(2-methyl-1-octyl-1H-imidazolium) bis((trifluoromethyl)sulfonyl)amide (1:3); phases: Liquid
Fixed: Pressure, kPa = 101
Fixed: Mole fraction of acetonitrile = 0
Property: Activity coefficient of acetonitrile (Liquid); method: Chromatography
Temperature, K	Activity coefficient of acetonitrile	uncertainty
312.55	0.17	0.03
322.45	0.16	0.03
332.45	0.17	0.03

System: nitromethane + 3,3',3''-((propane-1,2,3-triyltris(oxy))tris(methylene))tris(2-methyl-1-octyl-1H-imidazolium) bis((trifluoromethyl)sulfonyl)amide (1:3); phases: Liquid
Fixed: Pressure, kPa = 101
Fixed: Mole fraction of nitromethane = 0
Property: Activity coefficient of nitromethane (Liquid); method: Chromatography
Temperature, K	Activity coefficient of nitromethane	uncertainty
312.55	0.21	0.03
322.45	0.2	0.03
332.45	0.2	0.03

System: 1-nitropropane + 3,3',3''-((propane-1,2,3-triyltris(oxy))tris(methylene))tris(2-methyl-1-octyl-1H-imidazolium) bis((trifluoromethyl)sulfonyl)amide (1:3); phases: Liquid
Fixed: Pressure, kPa = 101
Fixed: Mole fraction of 1-nitropropane = 0
Property: Activity coefficient of 1-nitropropane (Liquid); method: Chromatography
Temperature, K	Activity coefficient of 1-nitropropane	uncertainty
312.55	0.24	0.03
322.45	0.23	0.03
332.45	0.23	0.03

System: triethylamine + 3,3',3''-((propane-1,2,3-triyltris(oxy))tris(methylene))tris(2-methyl-1-octyl-1H-imidazolium) bis((trifluoromethyl)sulfonyl)amide (1:3); phases: Liquid
Fixed: Pressure, kPa = 101
Fixed: Mole fraction of triethylamine = 0
Property: Activity coefficient of triethylamine (Liquid); method: Chromatography
Temperature, K	Activity coefficient of triethylamine	uncertainty
312.55	1.43	0.09
322.45	1.38	0.09
332.45	1.23	0.08

System: pyridine + 3,3',3''-((propane-1,2,3-triyltris(oxy))tris(methylene))tris(2-methyl-1-octyl-1H-imidazolium) bis((trifluoromethyl)sulfonyl)amide (1:3); phases: Liquid
Fixed: Pressure, kPa = 101
Fixed: Mole fraction of pyridine = 0
Property: Activity coefficient of pyridine (Liquid); method: Chromatography
Temperature, K	Activity coefficient of pyridine	uncertainty
322.45	0.11	0.03
332.45	0.13	0.03

System: thiophene + 3,3',3''-((propane-1,2,3-triyltris(oxy))tris(methylene))tris(2-methyl-1-octyl-1H-imidazolium) bis((trifluoromethyl)sulfonyl)amide (1:3); phases: Liquid
Fixed: Pressure, kPa = 101
Fixed: Mole fraction of thiophene = 0
Property: Activity coefficient of thiophene (Liquid); method: Chromatography
Temperature, K	Activity coefficient of thiophene	uncertainty
312.55	0.27	0.03
322.45	0.27	0.03
332.45	0.27	0.03

System: methanal + 3,3',3''-((propane-1,2,3-triyltris(oxy))tris(methylene))tris(2-methyl-1-octyl-1H-imidazolium) bis((trifluoromethyl)sulfonyl)amide (1:3); phases: Liquid
Fixed: Pressure, kPa = 101
Fixed: Mole fraction of methanal = 0
Property: Activity coefficient of methanal (Liquid); method: Chromatography
Temperature, K	Activity coefficient of methanal	uncertainty
312.55	0.03	0.03
322.45	0.04	0.03
332.45	0.04	0.03

System: propanal + 3,3',3''-((propane-1,2,3-triyltris(oxy))tris(methylene))tris(2-methyl-1-octyl-1H-imidazolium) bis((trifluoromethyl)sulfonyl)amide (1:3); phases: Liquid
Fixed: Pressure, kPa = 101
Fixed: Mole fraction of propanal = 0
Property: Activity coefficient of propanal (Liquid); method: Chromatography
Temperature, K	Activity coefficient of propanal	uncertainty
312.55	0.08	0.03
322.45	0.17	0.03
332.45	0.17	0.03

System: butanal + 3,3',3''-((propane-1,2,3-triyltris(oxy))tris(methylene))tris(2-methyl-1-octyl-1H-imidazolium) bis((trifluoromethyl)sulfonyl)amide (1:3); phases: Liquid
Fixed: Pressure, kPa = 101
Fixed: Mole fraction of butanal = 0
Property: Activity coefficient of butanal (Liquid); method: Chromatography
Temperature, K	Activity coefficient of butanal	uncertainty
312.55	0.15	0.03
322.45	0.27	0.03
332.45	0.27	0.03

System: hexane + 3,3',3''-((propane-1,2,3-triyltris(oxy))tris(methylene))tris(2-methyl-1-octyl-1H-imidazolium) tetrafluoroborate (1:3); phases: Liquid
Fixed: Pressure, kPa = 101
Fixed: Mole fraction of hexane = 0
Property: Activity coefficient of hexane (Liquid); method: Chromatography
Temperature, K	Activity coefficient of hexane	uncertainty
312.55	5.22	0.36
322.45	4.78	0.33
332.95	4.48	0.31

System: 3-methylpentane + 3,3',3''-((propane-1,2,3-triyltris(oxy))tris(methylene))tris(2-methyl-1-octyl-1H-imidazolium) tetrafluoroborate (1:3); phases: Liquid
Fixed: Pressure, kPa = 101
Fixed: Mole fraction of 3-methylpentane = 0
Property: Activity coefficient of 3-methylpentane (Liquid); method: Chromatography
Temperature, K	Activity coefficient of 3-methylpentane	uncertainty
312.55	5.15	0.35
322.45	4.65	0.32
332.95	4.32	0.29

System: heptane + 3,3',3''-((propane-1,2,3-triyltris(oxy))tris(methylene))tris(2-methyl-1-octyl-1H-imidazolium) tetrafluoroborate (1:3); phases: Liquid
Fixed: Pressure, kPa = 101
Fixed: Mole fraction of heptane = 0
Property: Activity coefficient of heptane (Liquid); method: Chromatography
Temperature, K	Activity coefficient of heptane	uncertainty
312.55	6.62	0.45
322.45	6.29	0.43
332.95	5.88	0.4

System: 2,2,4-trimethylpentane + 3,3',3''-((propane-1,2,3-triyltris(oxy))tris(methylene))tris(2-methyl-1-octyl-1H-imidazolium) tetrafluoroborate (1:3); phases: Liquid
Fixed: Pressure, kPa = 101
Fixed: Mole fraction of 2,2,4-trimethylpentane = 0
Property: Activity coefficient of 2,2,4-trimethylpentane (Liquid); method: Chromatography
Temperature, K	Activity coefficient of 2,2,4-trimethylpentane	uncertainty
312.55	8.72	0.59
322.45	7.83	0.53
332.95	7.07	0.48

System: octane + 3,3',3''-((propane-1,2,3-triyltris(oxy))tris(methylene))tris(2-methyl-1-octyl-1H-imidazolium) tetrafluoroborate (1:3); phases: Liquid
Fixed: Pressure, kPa = 101
Fixed: Mole fraction of octane = 0
Property: Activity coefficient of octane (Liquid); method: Chromatography
Temperature, K	Activity coefficient of octane	uncertainty
312.55	8.31	0.57
322.45	8.06	0.55
332.95	7.58	0.52

System: nonane + 3,3',3''-((propane-1,2,3-triyltris(oxy))tris(methylene))tris(2-methyl-1-octyl-1H-imidazolium) tetrafluoroborate (1:3); phases: Liquid
Fixed: Pressure, kPa = 101
Fixed: Mole fraction of nonane = 0
Property: Activity coefficient of nonane (Liquid); method: Chromatography
Temperature, K	Activity coefficient of nonane	uncertainty
312.55	11.63	0.79
322.45	11.24	0.77
332.95	10.61	0.72

System: decane + 3,3',3''-((propane-1,2,3-triyltris(oxy))tris(methylene))tris(2-methyl-1-octyl-1H-imidazolium) tetrafluoroborate (1:3); phases: Liquid
Fixed: Pressure, kPa = 101
Fixed: Mole fraction of decane = 0
Property: Activity coefficient of decane (Liquid); method: Chromatography
Temperature, K	Activity coefficient of decane	uncertainty
312.55	13.52	0.92
322.45	13.07	0.89
332.95	12.53	0.86

System: undecane + 3,3',3''-((propane-1,2,3-triyltris(oxy))tris(methylene))tris(2-methyl-1-octyl-1H-imidazolium) tetrafluoroborate (1:3); phases: Liquid
Fixed: Pressure, kPa = 101
Fixed: Mole fraction of undecane = 0
Property: Activity coefficient of undecane (Liquid); method: Chromatography
Temperature, K	Activity coefficient of undecane	uncertainty
312.55	13.52	0.92
322.45	13.07	0.89
332.95	12.53	0.86

System: methylcyclopentane + 3,3',3''-((propane-1,2,3-triyltris(oxy))tris(methylene))tris(2-methyl-1-octyl-1H-imidazolium) tetrafluoroborate (1:3); phases: Liquid
Fixed: Pressure, kPa = 101
Fixed: Mole fraction of methylcyclopentane = 0
Property: Activity coefficient of methylcyclopentane (Liquid); method: Chromatography
Temperature, K	Activity coefficient of methylcyclopentane	uncertainty
312.55	3.52	0.24
322.45	3.23	0.22
332.95	3	0.2

System: cyclohexane + 3,3',3''-((propane-1,2,3-triyltris(oxy))tris(methylene))tris(2-methyl-1-octyl-1H-imidazolium) tetrafluoroborate (1:3); phases: Liquid
Fixed: Pressure, kPa = 101
Fixed: Mole fraction of cyclohexane = 0
Property: Activity coefficient of cyclohexane (Liquid); method: Chromatography
Temperature, K	Activity coefficient of cyclohexane	uncertainty
312.55	3.41	0.23
322.45	3.13	0.21
332.95	2.86	0.19

System: methylcyclohexane + 3,3',3''-((propane-1,2,3-triyltris(oxy))tris(methylene))tris(2-methyl-1-octyl-1H-imidazolium) tetrafluoroborate (1:3); phases: Liquid
Fixed: Pressure, kPa = 101
Fixed: Mole fraction of methylcyclohexane = 0
Property: Activity coefficient of methylcyclohexane (Liquid); method: Chromatography
Temperature, K	Activity coefficient of methylcyclohexane	uncertainty
312.55	4.22	0.29
322.45	3.87	0.26
332.95	3.7	0.25

System: cycloheptane + 3,3',3''-((propane-1,2,3-triyltris(oxy))tris(methylene))tris(2-methyl-1-octyl-1H-imidazolium) tetrafluoroborate (1:3); phases: Liquid
Fixed: Pressure, kPa = 101
Fixed: Mole fraction of cycloheptane = 0
Property: Activity coefficient of cycloheptane (Liquid); method: Chromatography
Temperature, K	Activity coefficient of cycloheptane	uncertainty
312.55	3.41	0.23
322.45	3.13	0.21
332.95	2.86	0.19

System: benzene + 3,3',3''-((propane-1,2,3-triyltris(oxy))tris(methylene))tris(2-methyl-1-octyl-1H-imidazolium) tetrafluoroborate (1:3); phases: Liquid
Fixed: Pressure, kPa = 101
Fixed: Mole fraction of benzene = 0
Property: Activity coefficient of benzene (Liquid); method: Chromatography
Temperature, K	Activity coefficient of benzene	uncertainty
312.55	0.55	0.04
322.45	0.54	0.04
332.95	0.53	0.04

System: toluene + 3,3',3''-((propane-1,2,3-triyltris(oxy))tris(methylene))tris(2-methyl-1-octyl-1H-imidazolium) tetrafluoroborate (1:3); phases: Liquid
Fixed: Pressure, kPa = 101
Fixed: Mole fraction of toluene = 0
Property: Activity coefficient of toluene (Liquid); method: Chromatography
Temperature, K	Activity coefficient of toluene	uncertainty
312.55	0.77	0.05
322.45	0.77	0.05
332.95	0.76	0.05

System: ethylbenzene + 3,3',3''-((propane-1,2,3-triyltris(oxy))tris(methylene))tris(2-methyl-1-octyl-1H-imidazolium) tetrafluoroborate (1:3); phases: Liquid
Fixed: Pressure, kPa = 101
Fixed: Mole fraction of ethylbenzene = 0
Property: Activity coefficient of ethylbenzene (Liquid); method: Chromatography
Temperature, K	Activity coefficient of ethylbenzene	uncertainty
312.55	1.11	0.07
322.45	1.12	0.07
332.95	1.11	0.07

System: 1,3-dimethylbenzene + 3,3',3''-((propane-1,2,3-triyltris(oxy))tris(methylene))tris(2-methyl-1-octyl-1H-imidazolium) tetrafluoroborate (1:3); phases: Liquid
Fixed: Pressure, kPa = 101
Fixed: Mole fraction of 1,3-dimethylbenzene = 0
Property: Activity coefficient of 1,3-dimethylbenzene (Liquid); method: Chromatography
Temperature, K	Activity coefficient of 1,3-dimethylbenzene	uncertainty
312.55	1.15	0.07
322.45	1.14	0.07
332.95	1.12	0.07

System: 1,4-dimethylbenzene + 3,3',3''-((propane-1,2,3-triyltris(oxy))tris(methylene))tris(2-methyl-1-octyl-1H-imidazolium) tetrafluoroborate (1:3); phases: Liquid
Fixed: Pressure, kPa = 101
Fixed: Mole fraction of 1,4-dimethylbenzene = 0
Property: Activity coefficient of 1,4-dimethylbenzene (Liquid); method: Chromatography
Temperature, K	Activity coefficient of 1,4-dimethylbenzene	uncertainty
312.55	1.14	0.07
322.45	1.14	0.07
332.95	1.11	0.07

System: 1,2-dimethylbenzene + 3,3',3''-((propane-1,2,3-triyltris(oxy))tris(methylene))tris(2-methyl-1-octyl-1H-imidazolium) tetrafluoroborate (1:3); phases: Liquid
Fixed: Pressure, kPa = 101
Fixed: Mole fraction of 1,2-dimethylbenzene = 0
Property: Activity coefficient of 1,2-dimethylbenzene (Liquid); method: Chromatography
Temperature, K	Activity coefficient of 1,2-dimethylbenzene	uncertainty
312.55	1	0.06
322.45	1	0.06
332.95	0.98	0.06

System: hex-1-ene + 3,3',3''-((propane-1,2,3-triyltris(oxy))tris(methylene))tris(2-methyl-1-octyl-1H-imidazolium) tetrafluoroborate (1:3); phases: Liquid
Fixed: Pressure, kPa = 101
Fixed: Mole fraction of hex-1-ene = 0
Property: Activity coefficient of hex-1-ene (Liquid); method: Chromatography
Temperature, K	Activity coefficient of hex-1-ene	uncertainty
312.55	3.21	0.22
322.45	3.08	0.21
332.95	2.89	0.2

System: 1-hexyne + 3,3',3''-((propane-1,2,3-triyltris(oxy))tris(methylene))tris(2-methyl-1-octyl-1H-imidazolium) tetrafluoroborate (1:3); phases: Liquid
Fixed: Pressure, kPa = 101
Fixed: Mole fraction of 1-hexyne = 0
Property: Activity coefficient of 1-hexyne (Liquid); method: Chromatography
Temperature, K	Activity coefficient of 1-hexyne	uncertainty
312.55	1.15	0.07
322.45	1.15	0.07
332.95	1.13	0.07

System: 1-heptyne + 3,3',3''-((propane-1,2,3-triyltris(oxy))tris(methylene))tris(2-methyl-1-octyl-1H-imidazolium) tetrafluoroborate (1:3); phases: Liquid
Fixed: Pressure, kPa = 101
Fixed: Mole fraction of 1-heptyne = 0
Property: Activity coefficient of 1-heptyne (Liquid); method: Chromatography
Temperature, K	Activity coefficient of 1-heptyne	uncertainty
312.55	1.46	0.1
322.45	1.49	0.1
332.95	1.48	0.1

System: butanone + 3,3',3''-((propane-1,2,3-triyltris(oxy))tris(methylene))tris(2-methyl-1-octyl-1H-imidazolium) tetrafluoroborate (1:3); phases: Liquid
Fixed: Pressure, kPa = 101
Fixed: Mole fraction of butanone = 0
Property: Activity coefficient of butanone (Liquid); method: Chromatography
Temperature, K	Activity coefficient of butanone	uncertainty
312.55	312.55	21.48
322.45	322.45	22.17
332.95	332.95	22.89

System: pentan-2-one + 3,3',3''-((propane-1,2,3-triyltris(oxy))tris(methylene))tris(2-methyl-1-octyl-1H-imidazolium) tetrafluoroborate (1:3); phases: Liquid
Fixed: Pressure, kPa = 101
Fixed: Mole fraction of pentan-2-one = 0
Property: Activity coefficient of pentan-2-one (Liquid); method: Chromatography
Temperature, K	Activity coefficient of pentan-2-one	uncertainty
312.55	0.62	0.04
322.45	0.62	0.04
332.95	0.61	0.04

System: pentan-3-one + 3,3',3''-((propane-1,2,3-triyltris(oxy))tris(methylene))tris(2-methyl-1-octyl-1H-imidazolium) tetrafluoroborate (1:3); phases: Liquid
Fixed: Pressure, kPa = 101
Fixed: Mole fraction of pentan-3-one = 0
Property: Activity coefficient of pentan-3-one (Liquid); method: Chromatography
Temperature, K	Activity coefficient of pentan-3-one	uncertainty
312.55	0.62	0.04
322.45	0.62	0.04
332.95	0.61	0.04

System: 1,4-dioxane + 3,3',3''-((propane-1,2,3-triyltris(oxy))tris(methylene))tris(2-methyl-1-octyl-1H-imidazolium) tetrafluoroborate (1:3); phases: Liquid
Fixed: Pressure, kPa = 101
Fixed: Mole fraction of 1,4-dioxane = 0
Property: Activity coefficient of 1,4-dioxane (Liquid); method: Chromatography
Temperature, K	Activity coefficient of 1,4-dioxane	uncertainty
312.55	0.42	0.04
322.45	0.42	0.04
332.95	0.41	0.03

System: methanol + 3,3',3''-((propane-1,2,3-triyltris(oxy))tris(methylene))tris(2-methyl-1-octyl-1H-imidazolium) tetrafluoroborate (1:3); phases: Liquid
Fixed: Pressure, kPa = 101
Fixed: Mole fraction of methanol = 0
Property: Activity coefficient of methanol (Liquid); method: Chromatography
Temperature, K	Activity coefficient of methanol	uncertainty
312.55	0.41	0.03
322.45	0.38	0.03
332.95	0.34	0.03

System: ethanol + 3,3',3''-((propane-1,2,3-triyltris(oxy))tris(methylene))tris(2-methyl-1-octyl-1H-imidazolium) tetrafluoroborate (1:3); phases: Liquid
Fixed: Pressure, kPa = 101
Fixed: Mole fraction of ethanol = 0
Property: Activity coefficient of ethanol (Liquid); method: Chromatography
Temperature, K	Activity coefficient of ethanol	uncertainty
312.55	0.6	0.04
322.45	0.55	0.04
332.95	0.5	0.04

System: propan-1-ol + 3,3',3''-((propane-1,2,3-triyltris(oxy))tris(methylene))tris(2-methyl-1-octyl-1H-imidazolium) tetrafluoroborate (1:3); phases: Liquid
Fixed: Pressure, kPa = 101
Fixed: Mole fraction of propan-1-ol = 0
Property: Activity coefficient of propan-1-ol (Liquid); method: Chromatography
Temperature, K	Activity coefficient of propan-1-ol	uncertainty
312.55	0.72	0.05
322.45	0.66	0.05
332.95	0.59	0.04

System: propan-2-ol + 3,3',3''-((propane-1,2,3-triyltris(oxy))tris(methylene))tris(2-methyl-1-octyl-1H-imidazolium) tetrafluoroborate (1:3); phases: Liquid
Fixed: Pressure, kPa = 101
Fixed: Mole fraction of propan-2-ol = 0
Property: Activity coefficient of propan-2-ol (Liquid); method: Chromatography
Temperature, K	Activity coefficient of propan-2-ol	uncertainty
312.55	0.73	0.05
322.45	0.69	0.05
332.95	0.61	0.04

System: 2-methyl-1-propanol + 3,3',3''-((propane-1,2,3-triyltris(oxy))tris(methylene))tris(2-methyl-1-octyl-1H-imidazolium) tetrafluoroborate (1:3); phases: Liquid
Fixed: Pressure, kPa = 101
Fixed: Mole fraction of 2-methyl-1-propanol = 0
Property: Activity coefficient of 2-methyl-1-propanol (Liquid); method: Chromatography
Temperature, K	Activity coefficient of 2-methyl-1-propanol	uncertainty
312.55	0.86	0.06
322.45	0.77	0.05
332.95	0.69	0.05

System: butan-1-ol + 3,3',3''-((propane-1,2,3-triyltris(oxy))tris(methylene))tris(2-methyl-1-octyl-1H-imidazolium) tetrafluoroborate (1:3); phases: Liquid
Fixed: Pressure, kPa = 101
Fixed: Mole fraction of butan-1-ol = 0
Property: Activity coefficient of butan-1-ol (Liquid); method: Chromatography
Temperature, K	Activity coefficient of butan-1-ol	uncertainty
312.55	0.91	0.06
322.45	0.81	0.05
332.95	0.72	0.05

System: diethyl ether + 3,3',3''-((propane-1,2,3-triyltris(oxy))tris(methylene))tris(2-methyl-1-octyl-1H-imidazolium) tetrafluoroborate (1:3); phases: Liquid
Fixed: Pressure, kPa = 101
Fixed: Mole fraction of diethyl ether = 0
Property: Activity coefficient of diethyl ether (Liquid); method: Chromatography
Temperature, K	Activity coefficient of diethyl ether	uncertainty
312.55	1.41	0.09
322.45	1.38	0.09
332.95	1.32	0.09

System: diisopropyl ether + 3,3',3''-((propane-1,2,3-triyltris(oxy))tris(methylene))tris(2-methyl-1-octyl-1H-imidazolium) tetrafluoroborate (1:3); phases: Liquid
Fixed: Pressure, kPa = 101
Fixed: Mole fraction of diisopropyl ether = 0
Property: Activity coefficient of diisopropyl ether (Liquid); method: Chromatography
Temperature, K	Activity coefficient of diisopropyl ether	uncertainty
312.55	3.39	0.23
322.45	3.32	0.23
332.95	3	0.2

System: trichloromethane + 3,3',3''-((propane-1,2,3-triyltris(oxy))tris(methylene))tris(2-methyl-1-octyl-1H-imidazolium) tetrafluoroborate (1:3); phases: Liquid
Fixed: Pressure, kPa = 101
Fixed: Mole fraction of trichloromethane = 0
Property: Activity coefficient of trichloromethane (Liquid); method: Chromatography
Temperature, K	Activity coefficient of trichloromethane	uncertainty
312.55	0.26	0.03
322.45	0.27	0.03
332.95	0.28	0.03

System: dichloromethane + 3,3',3''-((propane-1,2,3-triyltris(oxy))tris(methylene))tris(2-methyl-1-octyl-1H-imidazolium) tetrafluoroborate (1:3); phases: Liquid
Fixed: Pressure, kPa = 101
Fixed: Mole fraction of dichloromethane = 0
Property: Activity coefficient of dichloromethane (Liquid); method: Chromatography
Temperature, K	Activity coefficient of dichloromethane	uncertainty
312.55	0.2	0.03
322.45	0.21	0.03
332.95	0.22	0.03

System: tetrachloromethane + 3,3',3''-((propane-1,2,3-triyltris(oxy))tris(methylene))tris(2-methyl-1-octyl-1H-imidazolium) tetrafluoroborate (1:3); phases: Liquid
Fixed: Pressure, kPa = 101
Fixed: Mole fraction of tetrachloromethane = 0
Property: Activity coefficient of tetrachloromethane (Liquid); method: Chromatography
Temperature, K	Activity coefficient of tetrachloromethane	uncertainty
312.55	1.08	0.07
322.45	1.07	0.07
332.95	1.05	0.07

System: acetonitrile + 3,3',3''-((propane-1,2,3-triyltris(oxy))tris(methylene))tris(2-methyl-1-octyl-1H-imidazolium) tetrafluoroborate (1:3); phases: Liquid
Fixed: Pressure, kPa = 101
Fixed: Mole fraction of acetonitrile = 0
Property: Activity coefficient of acetonitrile (Liquid); method: Chromatography
Temperature, K	Activity coefficient of acetonitrile	uncertainty
312.55	0.26	0.03
322.45	0.26	0.03
332.95	0.25	0.03

System: nitromethane + 3,3',3''-((propane-1,2,3-triyltris(oxy))tris(methylene))tris(2-methyl-1-octyl-1H-imidazolium) tetrafluoroborate (1:3); phases: Liquid
Fixed: Pressure, kPa = 101
Fixed: Mole fraction of nitromethane = 0
Property: Activity coefficient of nitromethane (Liquid); method: Chromatography
Temperature, K	Activity coefficient of nitromethane	uncertainty
312.55	0.46	0.04
322.45	0.24	0.03
332.95	0.23	0.03

System: 1-nitropropane + 3,3',3''-((propane-1,2,3-triyltris(oxy))tris(methylene))tris(2-methyl-1-octyl-1H-imidazolium) tetrafluoroborate (1:3); phases: Liquid
Fixed: Pressure, kPa = 101
Fixed: Mole fraction of 1-nitropropane = 0
Property: Activity coefficient of 1-nitropropane (Liquid); method: Chromatography
Temperature, K	Activity coefficient of 1-nitropropane	uncertainty
312.55	0.48	0.04
322.45	0.41	0.03
332.95	0.4	0.03

System: triethylamine + 3,3',3''-((propane-1,2,3-triyltris(oxy))tris(methylene))tris(2-methyl-1-octyl-1H-imidazolium) tetrafluoroborate (1:3); phases: Liquid
Fixed: Pressure, kPa = 101
Fixed: Mole fraction of triethylamine = 0
Property: Activity coefficient of triethylamine (Liquid); method: Chromatography
Temperature, K	Activity coefficient of triethylamine	uncertainty
312.55	0.59	0.04
322.45	0.26	0.03
332.95	0.14	0.03

System: pyridine + 3,3',3''-((propane-1,2,3-triyltris(oxy))tris(methylene))tris(2-methyl-1-octyl-1H-imidazolium) tetrafluoroborate (1:3); phases: Liquid
Fixed: Pressure, kPa = 101
Fixed: Mole fraction of pyridine = 0
Property: Activity coefficient of pyridine (Liquid); method: Chromatography
Temperature, K	Activity coefficient of pyridine	uncertainty
312.55	0.4	0.03
322.45	0.32	0.03
332.95	0.25	0.03

System: thiophene + 3,3',3''-((propane-1,2,3-triyltris(oxy))tris(methylene))tris(2-methyl-1-octyl-1H-imidazolium) tetrafluoroborate (1:3); phases: Liquid
Fixed: Pressure, kPa = 101
Fixed: Mole fraction of thiophene = 0
Property: Activity coefficient of thiophene (Liquid); method: Chromatography
Temperature, K	Activity coefficient of thiophene	uncertainty
312.55	0.4	0.03
322.45	0.4	0.03
332.95	0.4	0.03

System: methanal + 3,3',3''-((propane-1,2,3-triyltris(oxy))tris(methylene))tris(2-methyl-1-octyl-1H-imidazolium) tetrafluoroborate (1:3); phases: Liquid
Fixed: Pressure, kPa = 101
Fixed: Mole fraction of methanal = 0
Property: Activity coefficient of methanal (Liquid); method: Chromatography
Temperature, K	Activity coefficient of methanal	uncertainty
312.55	0.08	0.03
322.45	0.08	0.03
332.95	0.09	0.03

System: propanal + 3,3',3''-((propane-1,2,3-triyltris(oxy))tris(methylene))tris(2-methyl-1-octyl-1H-imidazolium) tetrafluoroborate (1:3); phases: Liquid
Fixed: Pressure, kPa = 101
Fixed: Mole fraction of propanal = 0
Property: Activity coefficient of propanal (Liquid); method: Chromatography
Temperature, K	Activity coefficient of propanal	uncertainty
312.55	0.37	0.03
322.45	0.37	0.03
332.95	0.36	0.03

System: hexane + 3,3',3''-((propane-1,2,3-triyltris(oxy))tris(methylene))tris(1-benzyl-1H-imidazolium) bis((trifluoromethyl)sulfonyl)amide (1:3); phases: Liquid
Fixed: Pressure, kPa = 101
Fixed: Mole fraction of hexane = 0
Property: Activity coefficient of hexane (Liquid); method: Chromatography
Temperature, K	Activity coefficient of hexane	uncertainty
312.55	10.95	0.75
322.85	8.34	0.57
332.65	7.44	0.51

System: 3-methylpentane + 3,3',3''-((propane-1,2,3-triyltris(oxy))tris(methylene))tris(1-benzyl-1H-imidazolium) bis((trifluoromethyl)sulfonyl)amide (1:3); phases: Liquid
Fixed: Pressure, kPa = 101
Fixed: Mole fraction of 3-methylpentane = 0
Property: Activity coefficient of 3-methylpentane (Liquid); method: Chromatography
Temperature, K	Activity coefficient of 3-methylpentane	uncertainty
312.55	9.43	0.64
322.85	7.65	0.52

System: heptane + 3,3',3''-((propane-1,2,3-triyltris(oxy))tris(methylene))tris(1-benzyl-1H-imidazolium) bis((trifluoromethyl)sulfonyl)amide (1:3); phases: Liquid
Fixed: Pressure, kPa = 101
Fixed: Mole fraction of heptane = 0
Property: Activity coefficient of heptane (Liquid); method: Chromatography
Temperature, K	Activity coefficient of heptane	uncertainty
312.55	15.12	1.03
322.85	12.89	0.88
332.65	10.98	0.75

System: 2,2,4-trimethylpentane + 3,3',3''-((propane-1,2,3-triyltris(oxy))tris(methylene))tris(1-benzyl-1H-imidazolium) bis((trifluoromethyl)sulfonyl)amide (1:3); phases: Liquid
Fixed: Pressure, kPa = 101
Fixed: Mole fraction of 2,2,4-trimethylpentane = 0
Property: Activity coefficient of 2,2,4-trimethylpentane (Liquid); method: Chromatography
Temperature, K	Activity coefficient of 2,2,4-trimethylpentane	uncertainty
312.55	17.66	1.21
322.85	14.36	0.98
332.65	11.93	0.81

System: octane + 3,3',3''-((propane-1,2,3-triyltris(oxy))tris(methylene))tris(1-benzyl-1H-imidazolium) bis((trifluoromethyl)sulfonyl)amide (1:3); phases: Liquid
Fixed: Pressure, kPa = 101
Fixed: Mole fraction of octane = 0
Property: Activity coefficient of octane (Liquid); method: Chromatography
Temperature, K	Activity coefficient of octane	uncertainty
312.55	22.04	1.51
322.85	18.9	1.29
332.65	16.5	1.13

System: nonane + 3,3',3''-((propane-1,2,3-triyltris(oxy))tris(methylene))tris(1-benzyl-1H-imidazolium) bis((trifluoromethyl)sulfonyl)amide (1:3); phases: Liquid
Fixed: Pressure, kPa = 101
Fixed: Mole fraction of nonane = 0
Property: Activity coefficient of nonane (Liquid); method: Chromatography
Temperature, K	Activity coefficient of nonane	uncertainty
312.55	35.46	2.43
322.85	29.92	2.05
332.65	26.29	1.8

System: decane + 3,3',3''-((propane-1,2,3-triyltris(oxy))tris(methylene))tris(1-benzyl-1H-imidazolium) bis((trifluoromethyl)sulfonyl)amide (1:3); phases: Liquid
Fixed: Pressure, kPa = 101
Fixed: Mole fraction of decane = 0
Property: Activity coefficient of decane (Liquid); method: Chromatography
Temperature, K	Activity coefficient of decane	uncertainty
312.55	47.34	3.24
322.85	39.88	2.73
332.65	35.11	2.4

System: undecane + 3,3',3''-((propane-1,2,3-triyltris(oxy))tris(methylene))tris(1-benzyl-1H-imidazolium) bis((trifluoromethyl)sulfonyl)amide (1:3); phases: Liquid
Fixed: Pressure, kPa = 101
Fixed: Mole fraction of undecane = 0
Property: Activity coefficient of undecane (Liquid); method: Chromatography
Temperature, K	Activity coefficient of undecane	uncertainty
312.55	69.08	4.73
322.85	57.32	3.93
332.65	50.41	3.45

System: methylcyclopentane + 3,3',3''-((propane-1,2,3-triyltris(oxy))tris(methylene))tris(1-benzyl-1H-imidazolium) bis((trifluoromethyl)sulfonyl)amide (1:3); phases: Liquid
Fixed: Pressure, kPa = 101
Fixed: Mole fraction of methylcyclopentane = 0
Property: Activity coefficient of methylcyclopentane (Liquid); method: Chromatography
Temperature, K	Activity coefficient of methylcyclopentane	uncertainty
312.55	9.89	0.67
322.85	13	0.89
332.65	16.04	1.1

System: cyclohexane + 3,3',3''-((propane-1,2,3-triyltris(oxy))tris(methylene))tris(1-benzyl-1H-imidazolium) bis((trifluoromethyl)sulfonyl)amide (1:3); phases: Liquid
Fixed: Pressure, kPa = 101
Fixed: Mole fraction of cyclohexane = 0
Property: Activity coefficient of cyclohexane (Liquid); method: Chromatography
Temperature, K	Activity coefficient of cyclohexane	uncertainty
312.55	5.68	0.39
322.85	4.72	0.32
332.65	4.22	0.29

System: methylcyclohexane + 3,3',3''-((propane-1,2,3-triyltris(oxy))tris(methylene))tris(1-benzyl-1H-imidazolium) bis((trifluoromethyl)sulfonyl)amide (1:3); phases: Liquid
Fixed: Pressure, kPa = 101
Fixed: Mole fraction of methylcyclohexane = 0
Property: Activity coefficient of methylcyclohexane (Liquid); method: Chromatography
Temperature, K	Activity coefficient of methylcyclohexane	uncertainty
312.55	8.16	0.56
322.85	6.8	0.46
332.65	6.18	0.42

System: cycloheptane + 3,3',3''-((propane-1,2,3-triyltris(oxy))tris(methylene))tris(1-benzyl-1H-imidazolium) bis((trifluoromethyl)sulfonyl)amide (1:3); phases: Liquid
Fixed: Pressure, kPa = 101
Fixed: Mole fraction of cycloheptane = 0
Property: Activity coefficient of cycloheptane (Liquid); method: Chromatography
Temperature, K	Activity coefficient of cycloheptane	uncertainty
312.55	9.89	0.67
322.85	13	0.89
332.65	16.04	1.1

System: benzene + 3,3',3''-((propane-1,2,3-triyltris(oxy))tris(methylene))tris(1-benzyl-1H-imidazolium) bis((trifluoromethyl)sulfonyl)amide (1:3); phases: Liquid
Fixed: Pressure, kPa = 101
Fixed: Mole fraction of benzene = 0
Property: Activity coefficient of benzene (Liquid); method: Chromatography
Temperature, K	Activity coefficient of benzene	uncertainty
312.55	0.54	0.04
322.85	0.51	0.04
332.65	0.52	0.04

System: toluene + 3,3',3''-((propane-1,2,3-triyltris(oxy))tris(methylene))tris(1-benzyl-1H-imidazolium) bis((trifluoromethyl)sulfonyl)amide (1:3); phases: Liquid
Fixed: Pressure, kPa = 101
Fixed: Mole fraction of toluene = 0
Property: Activity coefficient of toluene (Liquid); method: Chromatography
Temperature, K	Activity coefficient of toluene	uncertainty
312.55	0.82	0.05
322.85	0.75	0.05
332.65	0.77	0.05

System: ethylbenzene + 3,3',3''-((propane-1,2,3-triyltris(oxy))tris(methylene))tris(1-benzyl-1H-imidazolium) bis((trifluoromethyl)sulfonyl)amide (1:3); phases: Liquid
Fixed: Pressure, kPa = 101
Fixed: Mole fraction of ethylbenzene = 0
Property: Activity coefficient of ethylbenzene (Liquid); method: Chromatography
Temperature, K	Activity coefficient of ethylbenzene	uncertainty
312.55	1.19	0.08
322.85	1.14	0.07
332.65	1.15	0.07

System: 1,3-dimethylbenzene + 3,3',3''-((propane-1,2,3-triyltris(oxy))tris(methylene))tris(1-benzyl-1H-imidazolium) bis((trifluoromethyl)sulfonyl)amide (1:3); phases: Liquid
Fixed: Pressure, kPa = 101
Fixed: Mole fraction of 1,3-dimethylbenzene = 0
Property: Activity coefficient of 1,3-dimethylbenzene (Liquid); method: Chromatography
Temperature, K	Activity coefficient of 1,3-dimethylbenzene	uncertainty
312.55	1.26	0.08
322.85	1.2	0.08
332.65	1.19	0.08

System: 1,4-dimethylbenzene + 3,3',3''-((propane-1,2,3-triyltris(oxy))tris(methylene))tris(1-benzyl-1H-imidazolium) bis((trifluoromethyl)sulfonyl)amide (1:3); phases: Liquid
Fixed: Pressure, kPa = 101
Fixed: Mole fraction of 1,4-dimethylbenzene = 0
Property: Activity coefficient of 1,4-dimethylbenzene (Liquid); method: Chromatography
Temperature, K	Activity coefficient of 1,4-dimethylbenzene	uncertainty
312.55	1.25	0.08
322.85	1.17	0.07
332.65	1.19	0.08

System: 1,2-dimethylbenzene + 3,3',3''-((propane-1,2,3-triyltris(oxy))tris(methylene))tris(1-benzyl-1H-imidazolium) bis((trifluoromethyl)sulfonyl)amide (1:3); phases: Liquid
Fixed: Pressure, kPa = 101
Fixed: Mole fraction of 1,2-dimethylbenzene = 0
Property: Activity coefficient of 1,2-dimethylbenzene (Liquid); method: Chromatography
Temperature, K	Activity coefficient of 1,2-dimethylbenzene	uncertainty
312.55	1.09	0.07
322.85	1.01	0.06
332.65	1.04	0.07

System: hex-1-ene + 3,3',3''-((propane-1,2,3-triyltris(oxy))tris(methylene))tris(1-benzyl-1H-imidazolium) bis((trifluoromethyl)sulfonyl)amide (1:3); phases: Liquid
Fixed: Pressure, kPa = 101
Fixed: Mole fraction of hex-1-ene = 0
Property: Activity coefficient of hex-1-ene (Liquid); method: Chromatography
Temperature, K	Activity coefficient of hex-1-ene	uncertainty
312.55	5.2	0.35
322.85	4.34	0.3
332.65	3.98	0.27

System: 1-hexyne + 3,3',3''-((propane-1,2,3-triyltris(oxy))tris(methylene))tris(1-benzyl-1H-imidazolium) bis((trifluoromethyl)sulfonyl)amide (1:3); phases: Liquid
Fixed: Pressure, kPa = 101
Fixed: Mole fraction of 1-hexyne = 0
Property: Activity coefficient of 1-hexyne (Liquid); method: Chromatography
Temperature, K	Activity coefficient of 1-hexyne	uncertainty
312.55	1.87	0.13
322.85	1.73	0.12
332.65	1.64	0.11

System: 1-heptyne + 3,3',3''-((propane-1,2,3-triyltris(oxy))tris(methylene))tris(1-benzyl-1H-imidazolium) bis((trifluoromethyl)sulfonyl)amide (1:3); phases: Liquid
Fixed: Pressure, kPa = 101
Fixed: Mole fraction of 1-heptyne = 0
Property: Activity coefficient of 1-heptyne (Liquid); method: Chromatography
Temperature, K	Activity coefficient of 1-heptyne	uncertainty
312.55	2.65	0.18
322.85	2.5	0.17
332.65	2.39	0.16

System: butanone + 3,3',3''-((propane-1,2,3-triyltris(oxy))tris(methylene))tris(1-benzyl-1H-imidazolium) bis((trifluoromethyl)sulfonyl)amide (1:3); phases: Liquid
Fixed: Pressure, kPa = 101
Fixed: Mole fraction of butanone = 0
Property: Activity coefficient of butanone (Liquid); method: Chromatography
Temperature, K	Activity coefficient of butanone	uncertainty
312.55	0.18	0.03
322.85	0.17	0.03
332.65	0.16	0.03

System: pentan-2-one + 3,3',3''-((propane-1,2,3-triyltris(oxy))tris(methylene))tris(1-benzyl-1H-imidazolium) bis((trifluoromethyl)sulfonyl)amide (1:3); phases: Liquid
Fixed: Pressure, kPa = 101
Fixed: Mole fraction of pentan-2-one = 0
Property: Activity coefficient of pentan-2-one (Liquid); method: Chromatography
Temperature, K	Activity coefficient of pentan-2-one	uncertainty
312.55	0.27	0.03
322.85	0.27	0.03
332.65	0.28	0.03

System: pentan-3-one + 3,3',3''-((propane-1,2,3-triyltris(oxy))tris(methylene))tris(1-benzyl-1H-imidazolium) bis((trifluoromethyl)sulfonyl)amide (1:3); phases: Liquid
Fixed: Pressure, kPa = 101
Fixed: Mole fraction of pentan-3-one = 0
Property: Activity coefficient of pentan-3-one (Liquid); method: Chromatography
Temperature, K	Activity coefficient of pentan-3-one	uncertainty
312.55	0.25	0.03
322.85	0.26	0.03
332.65	0.27	0.03

System: 1,4-dioxane + 3,3',3''-((propane-1,2,3-triyltris(oxy))tris(methylene))tris(1-benzyl-1H-imidazolium) bis((trifluoromethyl)sulfonyl)amide (1:3); phases: Liquid
Fixed: Pressure, kPa = 101
Fixed: Mole fraction of 1,4-dioxane = 0
Property: Activity coefficient of 1,4-dioxane (Liquid); method: Chromatography
Temperature, K	Activity coefficient of 1,4-dioxane	uncertainty
312.55	0.19	0.03
322.85	0.2	0.03
332.65	0.2	0.03

System: methanol + 3,3',3''-((propane-1,2,3-triyltris(oxy))tris(methylene))tris(1-benzyl-1H-imidazolium) bis((trifluoromethyl)sulfonyl)amide (1:3); phases: Liquid
Fixed: Pressure, kPa = 101
Fixed: Mole fraction of methanol = 0
Property: Activity coefficient of methanol (Liquid); method: Chromatography
Temperature, K	Activity coefficient of methanol	uncertainty
312.55	0.37	0.03
322.85	0.33	0.03
332.65	0.34	0.03

System: ethanol + 3,3',3''-((propane-1,2,3-triyltris(oxy))tris(methylene))tris(1-benzyl-1H-imidazolium) bis((trifluoromethyl)sulfonyl)amide (1:3); phases: Liquid
Fixed: Pressure, kPa = 101
Fixed: Mole fraction of ethanol = 0
Property: Activity coefficient of ethanol (Liquid); method: Chromatography
Temperature, K	Activity coefficient of ethanol	uncertainty
312.55	0.59	0.04
322.85	0.53	0.04
332.65	0.49	0.04

System: propan-1-ol + 3,3',3''-((propane-1,2,3-triyltris(oxy))tris(methylene))tris(1-benzyl-1H-imidazolium) bis((trifluoromethyl)sulfonyl)amide (1:3); phases: Liquid
Fixed: Pressure, kPa = 101
Fixed: Mole fraction of propan-1-ol = 0
Property: Activity coefficient of propan-1-ol (Liquid); method: Chromatography
Temperature, K	Activity coefficient of propan-1-ol	uncertainty
312.55	0.76	0.05
322.85	0.68	0.05
332.65	0.63	0.04

System: propan-2-ol + 3,3',3''-((propane-1,2,3-triyltris(oxy))tris(methylene))tris(1-benzyl-1H-imidazolium) bis((trifluoromethyl)sulfonyl)amide (1:3); phases: Liquid
Fixed: Pressure, kPa = 101
Fixed: Mole fraction of propan-2-ol = 0
Property: Activity coefficient of propan-2-ol (Liquid); method: Chromatography
Temperature, K	Activity coefficient of propan-2-ol	uncertainty
312.55	0.73	0.05
322.85	0.65	0.04
332.65	0.6	0.04

System: 2-methyl-1-propanol + 3,3',3''-((propane-1,2,3-triyltris(oxy))tris(methylene))tris(1-benzyl-1H-imidazolium) bis((trifluoromethyl)sulfonyl)amide (1:3); phases: Liquid
Fixed: Pressure, kPa = 101
Fixed: Mole fraction of 2-methyl-1-propanol = 0
Property: Activity coefficient of 2-methyl-1-propanol (Liquid); method: Chromatography
Temperature, K	Activity coefficient of 2-methyl-1-propanol	uncertainty
312.55	1.01	0.06
322.85	0.88	0.06
332.65	0.8	0.05

System: butan-1-ol + 3,3',3''-((propane-1,2,3-triyltris(oxy))tris(methylene))tris(1-benzyl-1H-imidazolium) bis((trifluoromethyl)sulfonyl)amide (1:3); phases: Liquid
Fixed: Pressure, kPa = 101
Fixed: Mole fraction of butan-1-ol = 0
Property: Activity coefficient of butan-1-ol (Liquid); method: Chromatography
Temperature, K	Activity coefficient of butan-1-ol	uncertainty
312.55	3.61	0.25
322.85	2.85	0.19
332.65	2.42	0.16

System: diethyl ether + 3,3',3''-((propane-1,2,3-triyltris(oxy))tris(methylene))tris(1-benzyl-1H-imidazolium) bis((trifluoromethyl)sulfonyl)amide (1:3); phases: Liquid
Fixed: Pressure, kPa = 101
Fixed: Mole fraction of diethyl ether = 0
Property: Activity coefficient of diethyl ether (Liquid); method: Chromatography
Temperature, K	Activity coefficient of diethyl ether	uncertainty
312.55	0.94	0.06
322.85	0.92	0.06
332.65	0.9	0.06

System: diisopropyl ether + 3,3',3''-((propane-1,2,3-triyltris(oxy))tris(methylene))tris(1-benzyl-1H-imidazolium) bis((trifluoromethyl)sulfonyl)amide (1:3); phases: Liquid
Fixed: Pressure, kPa = 101
Fixed: Mole fraction of diisopropyl ether = 0
Property: Activity coefficient of diisopropyl ether (Liquid); method: Chromatography
Temperature, K	Activity coefficient of diisopropyl ether	uncertainty
312.55	2.72	0.19
322.85	2.46	0.17
332.65	2.42	0.16

System: trichloromethane + 3,3',3''-((propane-1,2,3-triyltris(oxy))tris(methylene))tris(1-benzyl-1H-imidazolium) bis((trifluoromethyl)sulfonyl)amide (1:3); phases: Liquid
Fixed: Pressure, kPa = 101
Fixed: Mole fraction of trichloromethane = 0
Property: Activity coefficient of trichloromethane (Liquid); method: Chromatography
Temperature, K	Activity coefficient of trichloromethane	uncertainty
312.55	0.44	0.04
322.85	0.46	0.04
332.65	0.47	0.04

System: dichloromethane + 3,3',3''-((propane-1,2,3-triyltris(oxy))tris(methylene))tris(1-benzyl-1H-imidazolium) bis((trifluoromethyl)sulfonyl)amide (1:3); phases: Liquid
Fixed: Pressure, kPa = 101
Fixed: Mole fraction of dichloromethane = 0
Property: Activity coefficient of dichloromethane (Liquid); method: Chromatography
Temperature, K	Activity coefficient of dichloromethane	uncertainty
312.55	0.28	0.03
322.85	0.29	0.03
332.65	0.31	0.03

System: tetrachloromethane + 3,3',3''-((propane-1,2,3-triyltris(oxy))tris(methylene))tris(1-benzyl-1H-imidazolium) bis((trifluoromethyl)sulfonyl)amide (1:3); phases: Liquid
Fixed: Pressure, kPa = 101
Fixed: Mole fraction of tetrachloromethane = 0
Property: Activity coefficient of tetrachloromethane (Liquid); method: Chromatography
Temperature, K	Activity coefficient of tetrachloromethane	uncertainty
312.55	1.46	0.1
322.85	1.43	0.09
332.65	1.24	0.08

System: acetonitrile + 3,3',3''-((propane-1,2,3-triyltris(oxy))tris(methylene))tris(1-benzyl-1H-imidazolium) bis((trifluoromethyl)sulfonyl)amide (1:3); phases: Liquid
Fixed: Pressure, kPa = 101
Fixed: Mole fraction of acetonitrile = 0
Property: Activity coefficient of acetonitrile (Liquid); method: Chromatography
Temperature, K	Activity coefficient of acetonitrile	uncertainty
312.55	0.16	0.03
322.85	0.16	0.03
332.65	0.16	0.03

System: nitromethane + 3,3',3''-((propane-1,2,3-triyltris(oxy))tris(methylene))tris(1-benzyl-1H-imidazolium) bis((trifluoromethyl)sulfonyl)amide (1:3); phases: Liquid
Fixed: Pressure, kPa = 101
Fixed: Mole fraction of nitromethane = 0
Property: Activity coefficient of nitromethane (Liquid); method: Chromatography
Temperature, K	Activity coefficient of nitromethane	uncertainty
312.55	0.2	0.03
322.85	0.19	0.03
332.65	0.19	0.03

System: 1-nitropropane + 3,3',3''-((propane-1,2,3-triyltris(oxy))tris(methylene))tris(1-benzyl-1H-imidazolium) bis((trifluoromethyl)sulfonyl)amide (1:3); phases: Liquid
Fixed: Pressure, kPa = 101
Fixed: Mole fraction of 1-nitropropane = 0
Property: Activity coefficient of 1-nitropropane (Liquid); method: Chromatography
Temperature, K	Activity coefficient of 1-nitropropane	uncertainty
312.55	0.14	0.03
322.85	0.18	0.03
332.65	0.19	0.03

System: triethylamine + 3,3',3''-((propane-1,2,3-triyltris(oxy))tris(methylene))tris(1-benzyl-1H-imidazolium) bis((trifluoromethyl)sulfonyl)amide (1:3); phases: Liquid
Fixed: Pressure, kPa = 101
Fixed: Mole fraction of triethylamine = 0
Property: Activity coefficient of triethylamine (Liquid); method: Chromatography
Temperature, K	Activity coefficient of triethylamine	uncertainty
322.85	0.11	0.03
332.65	0.15	0.03

System: pyridine + 3,3',3''-((propane-1,2,3-triyltris(oxy))tris(methylene))tris(1-benzyl-1H-imidazolium) bis((trifluoromethyl)sulfonyl)amide (1:3); phases: Liquid
Fixed: Pressure, kPa = 101
Fixed: Mole fraction of pyridine = 0
Property: Activity coefficient of pyridine (Liquid); method: Chromatography
Temperature, K	Activity coefficient of pyridine	uncertainty
312.55	0.12	0.03
322.85	0.14	0.03
332.65	0.15	0.03

System: thiophene + 3,3',3''-((propane-1,2,3-triyltris(oxy))tris(methylene))tris(1-benzyl-1H-imidazolium) bis((trifluoromethyl)sulfonyl)amide (1:3); phases: Liquid
Fixed: Pressure, kPa = 101
Fixed: Mole fraction of thiophene = 0
Property: Activity coefficient of thiophene (Liquid); method: Chromatography
Temperature, K	Activity coefficient of thiophene	uncertainty
312.55	312.55	21.48
322.85	322.85	22.19
332.65	332.65	22.87

System: methanal + 3,3',3''-((propane-1,2,3-triyltris(oxy))tris(methylene))tris(1-benzyl-1H-imidazolium) bis((trifluoromethyl)sulfonyl)amide (1:3); phases: Liquid
Fixed: Pressure, kPa = 101
Fixed: Mole fraction of methanal = 0
Property: Activity coefficient of methanal (Liquid); method: Chromatography
Temperature, K	Activity coefficient of methanal	uncertainty
322.85	0.01	0.03
332.65	0.01	0.03

System: propanal + 3,3',3''-((propane-1,2,3-triyltris(oxy))tris(methylene))tris(1-benzyl-1H-imidazolium) bis((trifluoromethyl)sulfonyl)amide (1:3); phases: Liquid
Fixed: Pressure, kPa = 101
Fixed: Mole fraction of propanal = 0
Property: Activity coefficient of propanal (Liquid); method: Chromatography
Temperature, K	Activity coefficient of propanal	uncertainty
322.85	0.03	0.03
332.65	0.03	0.03

System: hexane + pyridinium, 1,1',1'-[1,2,3-propanetriyltris(oxymethylene)]tris[4-(dimethylamino)-, salt with 1,1,1-trifluoro-N-[(trifluoromethyl)sulfonyl]methanesulfonamide (1:3); phases: Liquid
Fixed: Pressure, kPa = 101
Fixed: Mole fraction of hexane = 0
Property: Activity coefficient of hexane (Liquid); method: Chromatography
Temperature, K	Activity coefficient of hexane	uncertainty
312.95	10.2	0.7
322.85	7.98	0.54
332.65	7.16	0.49

System: 3-methylpentane + pyridinium, 1,1',1'-[1,2,3-propanetriyltris(oxymethylene)]tris[4-(dimethylamino)-, salt with 1,1,1-trifluoro-N-[(trifluoromethyl)sulfonyl]methanesulfonamide (1:3); phases: Liquid
Fixed: Pressure, kPa = 101
Fixed: Mole fraction of 3-methylpentane = 0
Property: Activity coefficient of 3-methylpentane (Liquid); method: Chromatography
Temperature, K	Activity coefficient of 3-methylpentane	uncertainty
312.95	9.05	0.62
322.85	7.36	0.5
332.65	6.34	0.43

System: heptane + pyridinium, 1,1',1'-[1,2,3-propanetriyltris(oxymethylene)]tris[4-(dimethylamino)-, salt with 1,1,1-trifluoro-N-[(trifluoromethyl)sulfonyl]methanesulfonamide (1:3); phases: Liquid
Fixed: Pressure, kPa = 101
Fixed: Mole fraction of heptane = 0
Property: Activity coefficient of heptane (Liquid); method: Chromatography
Temperature, K	Activity coefficient of heptane	uncertainty
312.95	15.76	1.08
322.85	13.7	0.94
332.65	11.85	0.81

System: 2,2,4-trimethylpentane + pyridinium, 1,1',1'-[1,2,3-propanetriyltris(oxymethylene)]tris[4-(dimethylamino)-, salt with 1,1,1-trifluoro-N-[(trifluoromethyl)sulfonyl]methanesulfonamide (1:3); phases: Liquid
Fixed: Pressure, kPa = 101
Fixed: Mole fraction of 2,2,4-trimethylpentane = 0
Property: Activity coefficient of 2,2,4-trimethylpentane (Liquid); method: Chromatography
Temperature, K	Activity coefficient of 2,2,4-trimethylpentane	uncertainty
312.95	16.5	1.13
322.85	13.97	0.95
332.65	12.05	0.82

System: octane + pyridinium, 1,1',1'-[1,2,3-propanetriyltris(oxymethylene)]tris[4-(dimethylamino)-, salt with 1,1,1-trifluoro-N-[(trifluoromethyl)sulfonyl]methanesulfonamide (1:3); phases: Liquid
Fixed: Pressure, kPa = 101
Fixed: Mole fraction of octane = 0
Property: Activity coefficient of octane (Liquid); method: Chromatography
Temperature, K	Activity coefficient of octane	uncertainty
312.95	23.57	1.61
322.85	20.22	1.38
332.65	18.04	1.23

System: nonane + pyridinium, 1,1',1'-[1,2,3-propanetriyltris(oxymethylene)]tris[4-(dimethylamino)-, salt with 1,1,1-trifluoro-N-[(trifluoromethyl)sulfonyl]methanesulfonamide (1:3); phases: Liquid
Fixed: Pressure, kPa = 101
Fixed: Mole fraction of nonane = 0
Property: Activity coefficient of nonane (Liquid); method: Chromatography
Temperature, K	Activity coefficient of nonane	uncertainty
312.95	38.75	2.65
322.85	33.28	2.28
332.65	29.44	2.01

System: decane + pyridinium, 1,1',1'-[1,2,3-propanetriyltris(oxymethylene)]tris[4-(dimethylamino)-, salt with 1,1,1-trifluoro-N-[(trifluoromethyl)sulfonyl]methanesulfonamide (1:3); phases: Liquid
Fixed: Pressure, kPa = 101
Fixed: Mole fraction of decane = 0
Property: Activity coefficient of decane (Liquid); method: Chromatography
Temperature, K	Activity coefficient of decane	uncertainty
312.95	52.41	3.59
322.85	45.28	3.1
332.65	40.15	2.75

System: undecane + pyridinium, 1,1',1'-[1,2,3-propanetriyltris(oxymethylene)]tris[4-(dimethylamino)-, salt with 1,1,1-trifluoro-N-[(trifluoromethyl)sulfonyl]methanesulfonamide (1:3); phases: Liquid
Fixed: Pressure, kPa = 101
Fixed: Mole fraction of undecane = 0
Property: Activity coefficient of undecane (Liquid); method: Chromatography
Temperature, K	Activity coefficient of undecane	uncertainty
312.95	77.74	5.33
322.85	66.82	4.58
332.65	58.48	4.01

System: dodecane + pyridinium, 1,1',1'-[1,2,3-propanetriyltris(oxymethylene)]tris[4-(dimethylamino)-, salt with 1,1,1-trifluoro-N-[(trifluoromethyl)sulfonyl]methanesulfonamide (1:3); phases: Liquid
Fixed: Pressure, kPa = 101
Fixed: Mole fraction of dodecane = 0
Property: Activity coefficient of dodecane (Liquid); method: Chromatography
Temperature, K	Activity coefficient of dodecane	uncertainty
312.95	108.53	7.44
322.85	93.91	6.44
332.65	83.11	5.7

System: tridecane + pyridinium, 1,1',1'-[1,2,3-propanetriyltris(oxymethylene)]tris[4-(dimethylamino)-, salt with 1,1,1-trifluoro-N-[(trifluoromethyl)sulfonyl]methanesulfonamide (1:3); phases: Liquid
Fixed: Pressure, kPa = 101
Fixed: Mole fraction of tridecane = 0
Property: Activity coefficient of tridecane (Liquid); method: Chromatography
Temperature, K	Activity coefficient of tridecane	uncertainty
312.95	162.73	11.17
322.85	136.36	9.36
332.65	121.45	8.33

System: tetradecane + pyridinium, 1,1',1'-[1,2,3-propanetriyltris(oxymethylene)]tris[4-(dimethylamino)-, salt with 1,1,1-trifluoro-N-[(trifluoromethyl)sulfonyl]methanesulfonamide (1:3); phases: Liquid
Fixed: Pressure, kPa = 101
Fixed: Mole fraction of tetradecane = 0
Property: Activity coefficient of tetradecane (Liquid); method: Chromatography
Temperature, K	Activity coefficient of tetradecane	uncertainty
312.95	226.87	15.58
322.85	194.92	13.38
332.65	169.79	11.66

System: methylcyclopentane + pyridinium, 1,1',1'-[1,2,3-propanetriyltris(oxymethylene)]tris[4-(dimethylamino)-, salt with 1,1,1-trifluoro-N-[(trifluoromethyl)sulfonyl]methanesulfonamide (1:3); phases: Liquid
Fixed: Pressure, kPa = 101
Fixed: Mole fraction of methylcyclopentane = 0
Property: Activity coefficient of methylcyclopentane (Liquid); method: Chromatography
Temperature, K	Activity coefficient of methylcyclopentane	uncertainty
312.95	5.89	0.4
322.85	5.07	0.35
332.65	4.55	0.31

System: cyclohexane + pyridinium, 1,1',1'-[1,2,3-propanetriyltris(oxymethylene)]tris[4-(dimethylamino)-, salt with 1,1,1-trifluoro-N-[(trifluoromethyl)sulfonyl]methanesulfonamide (1:3); phases: Liquid
Fixed: Pressure, kPa = 101
Fixed: Mole fraction of cyclohexane = 0
Property: Activity coefficient of cyclohexane (Liquid); method: Chromatography
Temperature, K	Activity coefficient of cyclohexane	uncertainty
312.95	5.94	0.4
322.85	5.11	0.35
332.65	4.51	0.31

System: methylcyclohexane + pyridinium, 1,1',1'-[1,2,3-propanetriyltris(oxymethylene)]tris[4-(dimethylamino)-, salt with 1,1,1-trifluoro-N-[(trifluoromethyl)sulfonyl]methanesulfonamide (1:3); phases: Liquid
Fixed: Pressure, kPa = 101
Fixed: Mole fraction of methylcyclohexane = 0
Property: Activity coefficient of methylcyclohexane (Liquid); method: Chromatography
Temperature, K	Activity coefficient of methylcyclohexane	uncertainty
312.95	8.08	0.55
322.85	6.98	0.48
332.65	6.3	0.43

System: cycloheptane + pyridinium, 1,1',1'-[1,2,3-propanetriyltris(oxymethylene)]tris[4-(dimethylamino)-, salt with 1,1,1-trifluoro-N-[(trifluoromethyl)sulfonyl]methanesulfonamide (1:3); phases: Liquid
Fixed: Pressure, kPa = 101
Fixed: Mole fraction of cycloheptane = 0
Property: Activity coefficient of cycloheptane (Liquid); method: Chromatography
Temperature, K	Activity coefficient of cycloheptane	uncertainty
312.95	10.75	0.73
322.85	13.8	0.94
332.65	17.89	1.22

System: benzene + pyridinium, 1,1',1'-[1,2,3-propanetriyltris(oxymethylene)]tris[4-(dimethylamino)-, salt with 1,1,1-trifluoro-N-[(trifluoromethyl)sulfonyl]methanesulfonamide (1:3); phases: Liquid
Fixed: Pressure, kPa = 101
Fixed: Mole fraction of benzene = 0
Property: Activity coefficient of benzene (Liquid); method: Chromatography
Temperature, K	Activity coefficient of benzene	uncertainty
312.95	0.34	0.03
322.85	0.34	0.03
332.65	0.35	0.03

System: toluene + pyridinium, 1,1',1'-[1,2,3-propanetriyltris(oxymethylene)]tris[4-(dimethylamino)-, salt with 1,1,1-trifluoro-N-[(trifluoromethyl)sulfonyl]methanesulfonamide (1:3); phases: Liquid
Fixed: Pressure, kPa = 101
Fixed: Mole fraction of toluene = 0
Property: Activity coefficient of toluene (Liquid); method: Chromatography
Temperature, K	Activity coefficient of toluene	uncertainty
312.95	0.49	0.04
322.85	0.49	0.04
332.65	0.51	0.04

System: ethylbenzene + pyridinium, 1,1',1'-[1,2,3-propanetriyltris(oxymethylene)]tris[4-(dimethylamino)-, salt with 1,1,1-trifluoro-N-[(trifluoromethyl)sulfonyl]methanesulfonamide (1:3); phases: Liquid
Fixed: Pressure, kPa = 101
Fixed: Mole fraction of ethylbenzene = 0
Property: Activity coefficient of ethylbenzene (Liquid); method: Chromatography
Temperature, K	Activity coefficient of ethylbenzene	uncertainty
312.95	0.8	0.05
322.85	0.81	0.05
332.65	0.83	0.05

System: 1,3-dimethylbenzene + pyridinium, 1,1',1'-[1,2,3-propanetriyltris(oxymethylene)]tris[4-(dimethylamino)-, salt with 1,1,1-trifluoro-N-[(trifluoromethyl)sulfonyl]methanesulfonamide (1:3); phases: Liquid
Fixed: Pressure, kPa = 101
Fixed: Mole fraction of 1,3-dimethylbenzene = 0
Property: Activity coefficient of 1,3-dimethylbenzene (Liquid); method: Chromatography
Temperature, K	Activity coefficient of 1,3-dimethylbenzene	uncertainty
312.95	0.74	0.05
322.85	0.75	0.05
332.65	0.76	0.05

System: 1,4-dimethylbenzene + pyridinium, 1,1',1'-[1,2,3-propanetriyltris(oxymethylene)]tris[4-(dimethylamino)-, salt with 1,1,1-trifluoro-N-[(trifluoromethyl)sulfonyl]methanesulfonamide (1:3); phases: Liquid
Fixed: Pressure, kPa = 101
Fixed: Mole fraction of 1,4-dimethylbenzene = 0
Property: Activity coefficient of 1,4-dimethylbenzene (Liquid); method: Chromatography
Temperature, K	Activity coefficient of 1,4-dimethylbenzene	uncertainty
312.95	0.73	0.05
322.85	0.73	0.05
332.65	0.75	0.05

System: 1,2-dimethylbenzene + pyridinium, 1,1',1'-[1,2,3-propanetriyltris(oxymethylene)]tris[4-(dimethylamino)-, salt with 1,1,1-trifluoro-N-[(trifluoromethyl)sulfonyl]methanesulfonamide (1:3); phases: Liquid
Fixed: Pressure, kPa = 101
Fixed: Mole fraction of 1,2-dimethylbenzene = 0
Property: Activity coefficient of 1,2-dimethylbenzene (Liquid); method: Chromatography
Temperature, K	Activity coefficient of 1,2-dimethylbenzene	uncertainty
312.95	0.65	0.04
322.85	0.63	0.04
332.65	0.66	0.05

System: hex-1-ene + pyridinium, 1,1',1'-[1,2,3-propanetriyltris(oxymethylene)]tris[4-(dimethylamino)-, salt with 1,1,1-trifluoro-N-[(trifluoromethyl)sulfonyl]methanesulfonamide (1:3); phases: Liquid
Fixed: Pressure, kPa = 101
Fixed: Mole fraction of hex-1-ene = 0
Property: Activity coefficient of hex-1-ene (Liquid); method: Chromatography
Temperature, K	Activity coefficient of hex-1-ene	uncertainty
312.95	4.81	0.33
322.85	4.32	0.29
332.65	3.93	0.27

System: 1-hexyne + pyridinium, 1,1',1'-[1,2,3-propanetriyltris(oxymethylene)]tris[4-(dimethylamino)-, salt with 1,1,1-trifluoro-N-[(trifluoromethyl)sulfonyl]methanesulfonamide (1:3); phases: Liquid
Fixed: Pressure, kPa = 101
Fixed: Mole fraction of 1-hexyne = 0
Property: Activity coefficient of 1-hexyne (Liquid); method: Chromatography
Temperature, K	Activity coefficient of 1-hexyne	uncertainty
312.95	1.57	0.1
322.85	1.5	0.1
332.65	1.46	0.1

System: 1-heptyne + pyridinium, 1,1',1'-[1,2,3-propanetriyltris(oxymethylene)]tris[4-(dimethylamino)-, salt with 1,1,1-trifluoro-N-[(trifluoromethyl)sulfonyl]methanesulfonamide (1:3); phases: Liquid
Fixed: Pressure, kPa = 101
Fixed: Mole fraction of 1-heptyne = 0
Property: Activity coefficient of 1-heptyne (Liquid); method: Chromatography
Temperature, K	Activity coefficient of 1-heptyne	uncertainty
312.95	2.27	0.15
322.85	2.21	0.15
332.65	2.16	0.15

System: butanone + pyridinium, 1,1',1'-[1,2,3-propanetriyltris(oxymethylene)]tris[4-(dimethylamino)-, salt with 1,1,1-trifluoro-N-[(trifluoromethyl)sulfonyl]methanesulfonamide (1:3); phases: Liquid
Fixed: Pressure, kPa = 101
Fixed: Mole fraction of butanone = 0
Property: Activity coefficient of butanone (Liquid); method: Chromatography
Temperature, K	Activity coefficient of butanone	uncertainty
312.95	0.22	0.03
322.85	0.2	0.03
332.65	0.19	0.03

System: pentan-2-one + pyridinium, 1,1',1'-[1,2,3-propanetriyltris(oxymethylene)]tris[4-(dimethylamino)-, salt with 1,1,1-trifluoro-N-[(trifluoromethyl)sulfonyl]methanesulfonamide (1:3); phases: Liquid
Fixed: Pressure, kPa = 101
Fixed: Mole fraction of pentan-2-one = 0
Property: Activity coefficient of pentan-2-one (Liquid); method: Chromatography
Temperature, K	Activity coefficient of pentan-2-one	uncertainty
312.95	0.33	0.03
322.85	0.33	0.03
332.65	0.34	0.03

System: pentan-3-one + pyridinium, 1,1',1'-[1,2,3-propanetriyltris(oxymethylene)]tris[4-(dimethylamino)-, salt with 1,1,1-trifluoro-N-[(trifluoromethyl)sulfonyl]methanesulfonamide (1:3); phases: Liquid
Fixed: Pressure, kPa = 101
Fixed: Mole fraction of pentan-3-one = 0
Property: Activity coefficient of pentan-3-one (Liquid); method: Chromatography
Temperature, K	Activity coefficient of pentan-3-one	uncertainty
312.95	0.32	0.03
322.85	0.32	0.03
332.65	0.33	0.03

System: 1,4-dioxane + pyridinium, 1,1',1'-[1,2,3-propanetriyltris(oxymethylene)]tris[4-(dimethylamino)-, salt with 1,1,1-trifluoro-N-[(trifluoromethyl)sulfonyl]methanesulfonamide (1:3); phases: Liquid
Fixed: Pressure, kPa = 101
Fixed: Mole fraction of 1,4-dioxane = 0
Property: Activity coefficient of 1,4-dioxane (Liquid); method: Chromatography
Temperature, K	Activity coefficient of 1,4-dioxane	uncertainty
312.95	0.21	0.03
322.85	0.21	0.03
332.65	0.22	0.03

System: methanol + pyridinium, 1,1',1'-[1,2,3-propanetriyltris(oxymethylene)]tris[4-(dimethylamino)-, salt with 1,1,1-trifluoro-N-[(trifluoromethyl)sulfonyl]methanesulfonamide (1:3); phases: Liquid
Fixed: Pressure, kPa = 101
Fixed: Mole fraction of methanol = 0
Property: Activity coefficient of methanol (Liquid); method: Chromatography
Temperature, K	Activity coefficient of methanol	uncertainty
312.95	0.37	0.03
322.85	0.34	0.03
332.65	0.34	0.03

System: ethanol + pyridinium, 1,1',1'-[1,2,3-propanetriyltris(oxymethylene)]tris[4-(dimethylamino)-, salt with 1,1,1-trifluoro-N-[(trifluoromethyl)sulfonyl]methanesulfonamide (1:3); phases: Liquid
Fixed: Pressure, kPa = 101
Fixed: Mole fraction of ethanol = 0
Property: Activity coefficient of ethanol (Liquid); method: Chromatography
Temperature, K	Activity coefficient of ethanol	uncertainty
312.95	0.59	0.04
322.85	0.53	0.04
332.65	0.49	0.04

System: propan-1-ol + pyridinium, 1,1',1'-[1,2,3-propanetriyltris(oxymethylene)]tris[4-(dimethylamino)-, salt with 1,1,1-trifluoro-N-[(trifluoromethyl)sulfonyl]methanesulfonamide (1:3); phases: Liquid
Fixed: Pressure, kPa = 101
Fixed: Mole fraction of propan-1-ol = 0
Property: Activity coefficient of propan-1-ol (Liquid); method: Chromatography
Temperature, K	Activity coefficient of propan-1-ol	uncertainty
312.95	0.79	0.05
322.85	0.7	0.05
332.65	0.65	0.04

System: propan-2-ol + pyridinium, 1,1',1'-[1,2,3-propanetriyltris(oxymethylene)]tris[4-(dimethylamino)-, salt with 1,1,1-trifluoro-N-[(trifluoromethyl)sulfonyl]methanesulfonamide (1:3); phases: Liquid
Fixed: Pressure, kPa = 101
Fixed: Mole fraction of propan-2-ol = 0
Property: Activity coefficient of propan-2-ol (Liquid); method: Chromatography
Temperature, K	Activity coefficient of propan-2-ol	uncertainty
312.95	0.73	0.05
322.85	0.64	0.04
332.65	0.61	0.04

System: 2-methyl-1-propanol + pyridinium, 1,1',1'-[1,2,3-propanetriyltris(oxymethylene)]tris[4-(dimethylamino)-, salt with 1,1,1-trifluoro-N-[(trifluoromethyl)sulfonyl]methanesulfonamide (1:3); phases: Liquid
Fixed: Pressure, kPa = 101
Fixed: Mole fraction of 2-methyl-1-propanol = 0
Property: Activity coefficient of 2-methyl-1-propanol (Liquid); method: Chromatography
Temperature, K	Activity coefficient of 2-methyl-1-propanol	uncertainty
312.95	1.02	0.06
322.85	0.89	0.06
332.65	0.82	0.05

System: butan-1-ol + pyridinium, 1,1',1'-[1,2,3-propanetriyltris(oxymethylene)]tris[4-(dimethylamino)-, salt with 1,1,1-trifluoro-N-[(trifluoromethyl)sulfonyl]methanesulfonamide (1:3); phases: Liquid
Fixed: Pressure, kPa = 101
Fixed: Mole fraction of butan-1-ol = 0
Property: Activity coefficient of butan-1-ol (Liquid); method: Chromatography
Temperature, K	Activity coefficient of butan-1-ol	uncertainty
312.95	1.07	0.07
322.85	0.93	0.06
332.65	0.86	0.06

System: 2,2,2-trifluoroethanol + pyridinium, 1,1',1'-[1,2,3-propanetriyltris(oxymethylene)]tris[4-(dimethylamino)-, salt with 1,1,1-trifluoro-N-[(trifluoromethyl)sulfonyl]methanesulfonamide (1:3); phases: Liquid
Fixed: Pressure, kPa = 101
Fixed: Mole fraction of 2,2,2-trifluoroethanol = 0
Property: Activity coefficient of 2,2,2-trifluoroethanol (Liquid); method: Chromatography
Temperature, K	Activity coefficient of 2,2,2-trifluoroethanol	uncertainty
312.95	0.17	0.03
322.85	0.16	0.03
332.65	0.16	0.03

System: diethyl ether + pyridinium, 1,1',1'-[1,2,3-propanetriyltris(oxymethylene)]tris[4-(dimethylamino)-, salt with 1,1,1-trifluoro-N-[(trifluoromethyl)sulfonyl]methanesulfonamide (1:3); phases: Liquid
Fixed: Pressure, kPa = 101
Fixed: Mole fraction of diethyl ether = 0
Property: Activity coefficient of diethyl ether (Liquid); method: Chromatography
Temperature, K	Activity coefficient of diethyl ether	uncertainty
312.95	1.1	0.07
322.85	1.03	0.06
332.65	1.03	0.06

System: diisopropyl ether + pyridinium, 1,1',1'-[1,2,3-propanetriyltris(oxymethylene)]tris[4-(dimethylamino)-, salt with 1,1,1-trifluoro-N-[(trifluoromethyl)sulfonyl]methanesulfonamide (1:3); phases: Liquid
Fixed: Pressure, kPa = 101
Fixed: Mole fraction of diisopropyl ether = 0
Property: Activity coefficient of diisopropyl ether (Liquid); method: Chromatography
Temperature, K	Activity coefficient of diisopropyl ether	uncertainty
312.95	3.02	0.21
322.85	2.87	0.2
332.65	2.74	0.19

System: trichloromethane + pyridinium, 1,1',1'-[1,2,3-propanetriyltris(oxymethylene)]tris[4-(dimethylamino)-, salt with 1,1,1-trifluoro-N-[(trifluoromethyl)sulfonyl]methanesulfonamide (1:3); phases: Liquid
Fixed: Pressure, kPa = 101
Fixed: Mole fraction of trichloromethane = 0
Property: Activity coefficient of trichloromethane (Liquid); method: Chromatography
Temperature, K	Activity coefficient of trichloromethane	uncertainty
312.95	0.34	0.03
322.85	0.34	0.03
332.65	0.35	0.03

System: dichloromethane + pyridinium, 1,1',1'-[1,2,3-propanetriyltris(oxymethylene)]tris[4-(dimethylamino)-, salt with 1,1,1-trifluoro-N-[(trifluoromethyl)sulfonyl]methanesulfonamide (1:3); phases: Liquid
Fixed: Pressure, kPa = 101
Fixed: Mole fraction of dichloromethane = 0
Property: Activity coefficient of dichloromethane (Liquid); method: Chromatography
Temperature, K	Activity coefficient of dichloromethane	uncertainty
312.95	0.24	0.03
322.85	0.25	0.03
332.65	0.26	0.03

System: tetrachloromethane + pyridinium, 1,1',1'-[1,2,3-propanetriyltris(oxymethylene)]tris[4-(dimethylamino)-, salt with 1,1,1-trifluoro-N-[(trifluoromethyl)sulfonyl]methanesulfonamide (1:3); phases: Liquid
Fixed: Pressure, kPa = 101
Fixed: Mole fraction of tetrachloromethane = 0
Property: Activity coefficient of tetrachloromethane (Liquid); method: Chromatography
Temperature, K	Activity coefficient of tetrachloromethane	uncertainty
312.95	1.15	0.07
322.85	1.07	0.07
332.65	1.04	0.07

System: acetonitrile + pyridinium, 1,1',1'-[1,2,3-propanetriyltris(oxymethylene)]tris[4-(dimethylamino)-, salt with 1,1,1-trifluoro-N-[(trifluoromethyl)sulfonyl]methanesulfonamide (1:3); phases: Liquid
Fixed: Pressure, kPa = 101
Fixed: Mole fraction of acetonitrile = 0
Property: Activity coefficient of acetonitrile (Liquid); method: Chromatography
Temperature, K	Activity coefficient of acetonitrile	uncertainty
312.95	0.16	0.03
322.85	0.16	0.03
332.65	0.16	0.03

System: nitromethane + pyridinium, 1,1',1'-[1,2,3-propanetriyltris(oxymethylene)]tris[4-(dimethylamino)-, salt with 1,1,1-trifluoro-N-[(trifluoromethyl)sulfonyl]methanesulfonamide (1:3); phases: Liquid
Fixed: Pressure, kPa = 101
Fixed: Mole fraction of nitromethane = 0
Property: Activity coefficient of nitromethane (Liquid); method: Chromatography
Temperature, K	Activity coefficient of nitromethane	uncertainty
312.95	0.18	0.03
322.85	0.18	0.03
332.65	0.18	0.03

System: 1-nitropropane + pyridinium, 1,1',1'-[1,2,3-propanetriyltris(oxymethylene)]tris[4-(dimethylamino)-, salt with 1,1,1-trifluoro-N-[(trifluoromethyl)sulfonyl]methanesulfonamide (1:3); phases: Liquid
Fixed: Pressure, kPa = 101
Fixed: Mole fraction of 1-nitropropane = 0
Property: Activity coefficient of 1-nitropropane (Liquid); method: Chromatography
Temperature, K	Activity coefficient of 1-nitropropane	uncertainty
312.95	0.29	0.03
322.85	0.28	0.03
332.65	0.29	0.03

System: triethylamine + pyridinium, 1,1',1'-[1,2,3-propanetriyltris(oxymethylene)]tris[4-(dimethylamino)-, salt with 1,1,1-trifluoro-N-[(trifluoromethyl)sulfonyl]methanesulfonamide (1:3); phases: Liquid
Fixed: Pressure, kPa = 101
Fixed: Mole fraction of triethylamine = 0
Property: Activity coefficient of triethylamine (Liquid); method: Chromatography
Temperature, K	Activity coefficient of triethylamine	uncertainty
312.95	0.29	0.03
322.85	0.28	0.03
332.65	0.29	0.03

System: pyridine + pyridinium, 1,1',1'-[1,2,3-propanetriyltris(oxymethylene)]tris[4-(dimethylamino)-, salt with 1,1,1-trifluoro-N-[(trifluoromethyl)sulfonyl]methanesulfonamide (1:3); phases: Liquid
Fixed: Pressure, kPa = 101
Fixed: Mole fraction of pyridine = 0
Property: Activity coefficient of pyridine (Liquid); method: Chromatography
Temperature, K	Activity coefficient of pyridine	uncertainty
312.95	0.12	0.03
322.85	0.13	0.03
332.65	0.14	0.03

System: thiophene + pyridinium, 1,1',1'-[1,2,3-propanetriyltris(oxymethylene)]tris[4-(dimethylamino)-, salt with 1,1,1-trifluoro-N-[(trifluoromethyl)sulfonyl]methanesulfonamide (1:3); phases: Liquid
Fixed: Pressure, kPa = 101
Fixed: Mole fraction of thiophene = 0
Property: Activity coefficient of thiophene (Liquid); method: Chromatography
Temperature, K	Activity coefficient of thiophene	uncertainty
312.95	0.28	0.03
322.85	0.28	0.03
332.65	0.29	0.03

System: methanal + pyridinium, 1,1',1'-[1,2,3-propanetriyltris(oxymethylene)]tris[4-(dimethylamino)-, salt with 1,1,1-trifluoro-N-[(trifluoromethyl)sulfonyl]methanesulfonamide (1:3); phases: Liquid
Fixed: Pressure, kPa = 101
Fixed: Mole fraction of methanal = 0
Property: Activity coefficient of methanal (Liquid); method: Chromatography
Temperature, K	Activity coefficient of methanal	uncertainty
312.95	0.04	0.03
322.85	0.05	0.03
332.65	0.05	0.03

System: propanal + pyridinium, 1,1',1'-[1,2,3-propanetriyltris(oxymethylene)]tris[4-(dimethylamino)-, salt with 1,1,1-trifluoro-N-[(trifluoromethyl)sulfonyl]methanesulfonamide (1:3); phases: Liquid
Fixed: Pressure, kPa = 101
Fixed: Mole fraction of propanal = 0
Property: Activity coefficient of propanal (Liquid); method: Chromatography
Temperature, K	Activity coefficient of propanal	uncertainty
312.95	0.21	0.03
322.85	0.2	0.03
332.65	0.21	0.03
