Measured thermophysical data. Density, Viscosity, and Refractive Index Properties for the Binary  Mixtures of n-Butylammonium Acetate Ionic Liquid + Alkanols at  Several Temperatures
Source: J. Chem. Eng. Data, 2012, 10.1021/je200707b
Compound 1: methanol, CH4O, InChI=1S/CH4O/c1-2/h2H,1H3
Compound 2: ethanol, C2H6O, InChI=1S/C2H6O/c1-2-3/h3H,2H2,1H3
Compound 3: propan-1-ol, C3H8O, InChI=1S/C3H8O/c1-2-3-4/h4H,2-3H2,1H3
Compound 4: butan-1-ol, C4H10O, InChI=1S/C4H10O/c1-2-3-4-5/h5H,2-4H2,1H3
Compound 5: butylammonium acetate, C6H15NO2, InChI=1S/C4H11N.C2H4O2/c1-2-3-4-5;1-2(3)4/h2-5H2,1H3;1H3,(H,3,4)

System: methanol; phases: Liquid
Property: Refractive index (Na D-line) (Liquid); method: Standard Abbe refractometry
Temperature, K	Pressure, kPa	Refractive index (Na D-line)	uncertainty
298.15	101.325	1.3265	0.0011

System: methanol; phases: Liquid
Fixed: Pressure, kPa = 101.325
Property: Viscosity, Pa*s (Liquid); method: Falling or rolling sphere viscometry
Temperature, K	Viscosity, Pa*s	uncertainty
293.15	0.000588	1.6e-05
298.15	0.000557	1.5e-05
303.15	0.000519	1.4e-05
308.15	0.00049	1.3e-05
313.15	0.000462	1.3e-05

System: methanol; phases: Liquid
Fixed: Pressure, kPa = 101.325
Property: Mass density, kg/m3 (Liquid); method: Vibrating tube method
Temperature, K	Mass density, kg/m3	uncertainty
293.15	791.28	0.37
298.15	786.56	0.37
303.15	781.83	0.37
308.15	777.07	0.37
313.15	772.29	0.37

System: ethanol; phases: Liquid
Property: Refractive index (Na D-line) (Liquid); method: Standard Abbe refractometry
Temperature, K	Pressure, kPa	Refractive index (Na D-line)	uncertainty
298.15	101.325	1.3594	0.0011

System: ethanol; phases: Liquid
Fixed: Pressure, kPa = 101.325
Property: Viscosity, Pa*s (Liquid); method: Falling or rolling sphere viscometry
Temperature, K	Viscosity, Pa*s	uncertainty
293.15	0.001241	3.4e-05
298.15	0.001128	3.1e-05
303.15	0.001029	2.8e-05
308.15	0.00092	2.5e-05
313.15	0.000842	2.3e-05

System: ethanol; phases: Liquid
Fixed: Pressure, kPa = 101.325
Property: Mass density, kg/m3 (Liquid); method: Vibrating tube method
Temperature, K	Mass density, kg/m3	uncertainty
293.15	789.54	0.37
298.15	785.25	0.37
303.15	780.93	0.37
308.15	776.57	0.37
313.15	772.18	0.37

System: propan-1-ol; phases: Liquid
Property: Refractive index (Na D-line) (Liquid); method: Standard Abbe refractometry
Temperature, K	Pressure, kPa	Refractive index (Na D-line)	uncertainty
298.15	101.325	1.3834	0.0011

System: propan-1-ol; phases: Liquid
Fixed: Pressure, kPa = 101.325
Property: Viscosity, Pa*s (Liquid); method: Falling or rolling sphere viscometry
Temperature, K	Viscosity, Pa*s	uncertainty
293.15	0.002229	6.1e-05
298.15	0.001975	5.4e-05
303.15	0.001757	4.8e-05
308.15	0.001568	4.3e-05
313.15	0.001406	3.9e-05

System: propan-1-ol; phases: Liquid
Fixed: Pressure, kPa = 101.325
Property: Mass density, kg/m3 (Liquid); method: Vibrating tube method
Temperature, K	Mass density, kg/m3	uncertainty
293.15	803.55	0.37
298.15	799.55	0.37
303.15	795.52	0.37
308.15	791.44	0.37
313.15	787.34	0.37

System: butan-1-ol; phases: Liquid
Property: Refractive index (Na D-line) (Liquid); method: Standard Abbe refractometry
Temperature, K	Pressure, kPa	Refractive index (Na D-line)	uncertainty
298.15	101.325	1.3973	0.0011

System: butan-1-ol; phases: Liquid
Fixed: Pressure, kPa = 101.325
Property: Viscosity, Pa*s (Liquid); method: Falling or rolling sphere viscometry
Temperature, K	Viscosity, Pa*s	uncertainty
293.15	0.002983	8.2e-05
298.15	0.002617	7.2e-05
303.15	0.002306	6.3e-05
308.15	0.00204	5.6e-05
313.15	0.001811	5e-05

System: butan-1-ol; phases: Liquid
Fixed: Pressure, kPa = 101.325
Property: Mass density, kg/m3 (Liquid); method: Vibrating tube method
Temperature, K	Mass density, kg/m3	uncertainty
293.15	809.7	0.38
298.15	805.9	0.38
303.15	802.05	0.37
308.15	798.17	0.37
313.15	794.26	0.37

System: butylammonium acetate; phases: Liquid
Property: Refractive index (Na D-line) (Liquid); method: Standard Abbe refractometry
Temperature, K	Pressure, kPa	Refractive index (Na D-line)	uncertainty
298.15	101.325	1.4426	0.0011

System: butylammonium acetate; phases: Liquid
Fixed: Pressure, kPa = 101.325
Property: Viscosity, Pa*s (Liquid); method: Falling or rolling sphere viscometry
Temperature, K	Viscosity, Pa*s	uncertainty
293.15	0.771694	0.071153
298.15	0.546348	0.044041
303.15	0.39717	0.027765
308.15	0.294586	0.017844
313.15	0.222241	0.011763

System: butylammonium acetate; phases: Liquid
Fixed: Pressure, kPa = 101.325
Property: Mass density, kg/m3 (Liquid); method: Vibrating tube method
Temperature, K	Mass density, kg/m3	uncertainty
293.15	959.61	0.42
298.15	956.44	0.42
303.15	953.33	0.42
308.15	950.15	0.42
313.15	946.98	0.42

System: methanol + butylammonium acetate; phases: Liquid
Fixed: Pressure, kPa = 101.3
Property: Viscosity, Pa*s (Liquid); method: Falling or rolling sphere viscometry
Temperature, K	Mole fraction of butylammonium acetate	Viscosity, Pa*s	uncertainty
293.15	0.0302	0.000883	2.4e-05
293.15	0.0597	0.001237	3.4e-05
293.15	0.1011	0.001933	5.3e-05
293.15	0.1992	0.004825	0.000133
293.15	0.301	0.011095	0.000305
293.15	0.4023	0.023223	0.000638
293.15	0.4995	0.044755	0.001231
293.15	0.6524	0.11548	0.004268
293.15	0.7993	0.25645	0.014563
293.15	0.8988	0.418491	0.02999
298.15	0.0302	0.00082	2.3e-05
298.15	0.0597	0.001141	3.1e-05
298.15	0.1011	0.001759	4.8e-05
298.15	0.1992	0.004283	0.000118
298.15	0.301	0.009608	0.000264
298.15	0.4023	0.019574	0.000537
298.15	0.4995	0.036676	0.001007
298.15	0.6524	0.092511	0.003013
298.15	0.7993	0.195973	0.009725
298.15	0.8988	0.312521	0.019443
303.15	0.0302	0.000763	2.1e-05
303.15	0.0597	0.001053	2.9e-05
303.15	0.1011	0.001607	4.4e-05
303.15	0.1992	0.003828	0.000105
303.15	0.301	0.008354	0.000229
303.15	0.4023	0.01666	0.000457
303.15	0.4995	0.030448	0.000836
303.15	0.6524	0.069011	0.001954
303.15	0.7993	0.15107	0.006508
303.15	0.8988	0.242558	0.013406
308.15	0.0302	0.000712	2e-05
308.15	0.0597	0.000975	2.7e-05
308.15	0.1011	0.001474	4.1e-05
308.15	0.1992	0.003437	9.4e-05
308.15	0.301	0.007294	0.0002
308.15	0.4023	0.014337	0.000393
308.15	0.4995	0.025586	0.000702
308.15	0.6524	0.053465	0.001422
308.15	0.7993	0.11832	0.004431
308.15	0.8988	0.183852	0.008821
313.15	0.0302	0.000666	1.8e-05
313.15	0.0597	0.000905	2.5e-05
313.15	0.1011	0.001357	3.7e-05
313.15	0.1992	0.003099	8.5e-05
313.15	0.301	0.006415	0.000176
313.15	0.4023	0.012535	0.000344
313.15	0.4995	0.021649	0.000594
313.15	0.6524	0.047608	0.001306
313.15	0.7993	0.094242	0.003099
313.15	0.8988	0.142668	0.005951

System: methanol + butylammonium acetate; phases: Liquid
Fixed: Temperature, K = 298.15
Fixed: Pressure, kPa = 101.3
Property: Refractive index (Na D-line) (Liquid); method: Standard Abbe refractometry
Mole fraction of butylammonium acetate	Refractive index (Na D-line)	uncertainty
0.0302	1.3413	0.0004
0.0597	1.3526	0.0004
0.1011	1.3665	0.0004
0.1992	1.3878	0.0004
0.301	1.403	0.0004
0.4023	1.4144	0.0004
0.4995	1.4212	0.0004
0.6524	1.4316	0.0004
0.7993	1.4365	0.0004
0.8988	1.4398	0.0004

System: methanol + butylammonium acetate; phases: Liquid
Fixed: Pressure, kPa = 101.3
Property: Mass density, kg/m3 (Liquid); method: Vibrating tube method
Temperature, K	Mole fraction of butylammonium acetate	Mass density, kg/m3	uncertainty
293.15	0.0302	814.76	0.4
293.15	0.0597	832.65	0.4
293.15	0.1011	852.44	0.39
293.15	0.1992	884.85	0.4
293.15	0.301	906.27	0.4
293.15	0.4023	920.99	0.41
293.15	0.4995	931.42	0.41
293.15	0.6524	943.29	0.42
293.15	0.7993	951.52	0.42
293.15	0.8988	955.88	0.42
298.15	0.0302	810.3	0.4
298.15	0.0597	828.3	0.4
298.15	0.1011	848.33	0.39
298.15	0.1992	881.05	0.4
298.15	0.301	902.66	0.4
298.15	0.4023	917.52	0.41
298.15	0.4995	928.03	0.41
298.15	0.6524	940	0.41
298.15	0.7993	948.31	0.42
298.15	0.8988	952.69	0.42
303.15	0.0302	805.81	0.39
303.15	0.0597	823.98	0.39
303.15	0.1011	844.2	0.39
303.15	0.1992	877.23	0.4
303.15	0.301	899.04	0.4
303.15	0.4023	914.03	0.41
303.15	0.4995	924.64	0.41
303.15	0.6524	936.69	0.41
303.15	0.7993	945.07	0.42
303.15	0.8988	949.49	0.42
308.15	0.0302	801.29	0.39
308.15	0.0597	819.63	0.39
308.15	0.1011	840.05	0.39
308.15	0.1992	873.38	0.4
308.15	0.301	895.45	0.4
308.15	0.4023	910.53	0.41
308.15	0.4995	921.23	0.41
308.15	0.6524	933.39	0.41
308.15	0.7993	941.83	0.41
308.15	0.8988	946.3	0.42
313.15	0.0302	796.74	0.39
313.15	0.0597	815.28	0.39
313.15	0.1011	835.89	0.39
313.15	0.1992	869.54	0.4
313.15	0.301	891.77	0.4
313.15	0.4023	907.04	0.4
313.15	0.4995	917.83	0.41
313.15	0.6524	930.08	0.41
313.15	0.7993	938.59	0.41
313.15	0.8988	943.09	0.42

System: ethanol + butylammonium acetate; phases: Liquid
Fixed: Pressure, kPa = 101.3
Property: Viscosity, Pa*s (Liquid); method: Falling or rolling sphere viscometry
Temperature, K	Mole fraction of butylammonium acetate	Viscosity, Pa*s	uncertainty
293.15	0.0319	0.001644	4.5e-05
293.15	0.0608	0.002184	6e-05
293.15	0.0999	0.003042	8.4e-05
293.15	0.1977	0.006773	0.000186
293.15	0.2965	0.013923	0.000382
293.15	0.4008	0.026605	0.000731
293.15	0.5005	0.049217	0.001352
293.15	0.6454	0.113109	0.004131
293.15	0.8019	0.26417	0.015217
293.15	0.9009	0.475323	0.036094
298.15	0.0319	0.001488	4.1e-05
298.15	0.0608	0.001959	5.4e-05
298.15	0.0999	0.002707	7.4e-05
298.15	0.1977	0.005903	0.000162
298.15	0.2965	0.011878	0.000326
298.15	0.4008	0.022281	0.000611
298.15	0.5005	0.0402	0.001104
298.15	0.6454	0.090902	0.002932
298.15	0.8019	0.201813	0.01017
298.15	0.9009	0.347838	0.022771
303.15	0.0319	0.001349	3.7e-05
303.15	0.0608	0.001764	4.8e-05
303.15	0.0999	0.00242	6.7e-05
303.15	0.1977	0.005176	0.000142
303.15	0.2965	0.010232	0.000281
303.15	0.4008	0.018841	0.000517
303.15	0.5005	0.033212	0.000912
303.15	0.6454	0.072834	0.002107
303.15	0.8019	0.156424	0.006872
303.15	0.9009	0.260752	0.014924
308.15	0.0319	0.001226	3.4e-05
308.15	0.0608	0.001593	4.4e-05
308.15	0.0999	0.002171	6e-05
308.15	0.1977	0.004557	0.000125
308.15	0.2965	0.008831	0.000242
308.15	0.4008	0.016056	0.000441
308.15	0.5005	0.027757	0.000762
308.15	0.6454	0.059183	0.001599
308.15	0.8019	0.122419	0.004676
308.15	0.9009	0.197777	0.009862
313.15	0.0319	0.001117	3.1e-05
313.15	0.0608	0.001442	4e-05
313.15	0.0999	0.001908	5.2e-05
313.15	0.1977	0.004013	0.00011
313.15	0.2965	0.007695	0.000211
313.15	0.4008	0.013748	0.000377
313.15	0.5005	0.023371	0.000641
313.15	0.6454	0.048507	0.00133
313.15	0.8019	0.097361	0.00326
313.15	0.9009	0.152815	0.006626

System: ethanol + butylammonium acetate; phases: Liquid
Fixed: Temperature, K = 298.15
Fixed: Pressure, kPa = 101.3
Property: Refractive index (Na D-line) (Liquid); method: Standard Abbe refractometry
Mole fraction of butylammonium acetate	Refractive index (Na D-line)	uncertainty
0.0319	1.3681	0.0011
0.0608	1.3731	0.0011
0.0999	1.3804	0.0011
0.1977	1.3965	0.0011
0.2965	1.4073	0.0011
0.4008	1.4152	0.0011
0.5005	1.4219	0.0011
0.6454	1.4292	0.0011
0.8019	1.436	0.0011
0.9009	1.4396	0.0011

System: ethanol + butylammonium acetate; phases: Liquid
Fixed: Pressure, kPa = 101.3
Property: Mass density, kg/m3 (Liquid); method: Vibrating tube method
Temperature, K	Mole fraction of butylammonium acetate	Mass density, kg/m3	uncertainty
293.15	0.0319	805.12	0.38
293.15	0.0608	817.26	0.39
293.15	0.0999	831.76	0.39
293.15	0.1977	860.95	0.39
293.15	0.2965	883.07	0.4
293.15	0.4008	901.46	0.4
293.15	0.5005	915.65	0.41
293.15	0.6454	932.09	0.41
293.15	0.8019	945.97	0.42
293.15	0.9009	953.34	0.42
298.15	0.0319	800.93	0.38
298.15	0.0608	813.17	0.38
298.15	0.0999	827.77	0.39
298.15	0.1977	857.19	0.39
298.15	0.2965	879.43	0.4
298.15	0.4008	897.94	0.4
298.15	0.5005	912.21	0.41
298.15	0.6454	928.75	0.41
298.15	0.8019	942.74	0.42
298.15	0.9009	950.15	0.42
303.15	0.0319	796.71	0.38
303.15	0.0608	809.04	0.38
303.15	0.0999	823.74	0.38
303.15	0.1977	853.35	0.39
303.15	0.2965	875.76	0.4
303.15	0.4008	894.4	0.4
303.15	0.5005	908.76	0.41
303.15	0.6454	925.39	0.41
303.15	0.8019	939.48	0.41
303.15	0.9009	946.94	0.42
308.15	0.0319	792.46	0.38
308.15	0.0608	804.88	0.38
308.15	0.0999	819.69	0.38
308.15	0.1977	849.49	0.39
308.15	0.2965	872.09	0.4
308.15	0.4008	890.81	0.4
308.15	0.5005	905.3	0.4
308.15	0.6454	922.03	0.41
308.15	0.8019	936.22	0.41
308.15	0.9009	943.74	0.42
313.15	0.0319	788.16	0.38
313.15	0.0608	800.68	0.38
313.15	0.0999	815.6	0.38
313.15	0.1977	845.68	0.39
313.15	0.2965	868.39	0.39
313.15	0.4008	887.18	0.4
313.15	0.5005	901.83	0.4
313.15	0.6454	918.66	0.41
313.15	0.8019	932.94	0.41
313.15	0.9009	940.53	0.41

System: propan-1-ol + butylammonium acetate; phases: Liquid
Fixed: Pressure, kPa = 101.3
Property: Viscosity, Pa*s (Liquid); method: Falling or rolling sphere viscometry
Temperature, K	Mole fraction of butylammonium acetate	Viscosity, Pa*s	uncertainty
293.15	0.0315	0.002862	7.9e-05
293.15	0.0601	0.003515	9.7e-05
293.15	0.0977	0.004733	0.00013
293.15	0.198	0.008602	0.000236
293.15	0.3002	0.017499	0.00048
293.15	0.4021	0.031539	0.000865
293.15	0.497	0.047475	0.001305
293.15	0.6487	0.108492	0.003869
293.15	0.799	0.24469	0.013587
293.15	0.8981	0.445203	0.032829
298.15	0.0315	0.002496	6.9e-05
298.15	0.0601	0.003158	8.7e-05
298.15	0.0977	0.004116	0.000113
298.15	0.198	0.007371	0.000202
298.15	0.3002	0.014768	0.000405
298.15	0.4021	0.026079	0.000715
298.15	0.497	0.038692	0.001062
298.15	0.6487	0.087224	0.002752
298.15	0.799	0.18683	0.009041
298.15	0.8981	0.326532	0.020714
303.15	0.0315	0.002202	6e-05
303.15	0.0601	0.002773	7.6e-05
303.15	0.0977	0.003595	9.9e-05
303.15	0.198	0.006367	0.000175
303.15	0.3002	0.012513	0.000343
303.15	0.4021	0.022228	0.00061
303.15	0.497	0.031742	0.000871
303.15	0.6487	0.070415	0.002008
303.15	0.799	0.14878	0.006355
303.15	0.8981	0.24483	0.013594
308.15	0.0315	0.001955	5.4e-05
308.15	0.0601	0.002447	6.7e-05
308.15	0.0977	0.003157	8.7e-05
308.15	0.198	0.005493	0.000151
308.15	0.3002	0.01066	0.000293
308.15	0.4021	0.01848	0.000507
308.15	0.497	0.0264	0.000724
308.15	0.6487	0.056622	0.001517
308.15	0.799	0.116881	0.004346
308.15	0.8981	0.186414	0.00901
313.15	0.0315	0.001672	4.6e-05
313.15	0.0601	0.002167	6e-05
313.15	0.0977	0.002828	7.8e-05
313.15	0.198	0.00477	0.000131
313.15	0.3002	0.009154	0.000251
313.15	0.4021	0.015721	0.000431
313.15	0.497	0.022126	0.000607
313.15	0.6487	0.046763	0.001282
313.15	0.799	0.093136	0.003042
313.15	0.8981	0.144838	0.006093

System: propan-1-ol + butylammonium acetate; phases: Liquid
Fixed: Temperature, K = 298.15
Fixed: Pressure, kPa = 101.3
Property: Refractive index (Na D-line) (Liquid); method: Standard Abbe refractometry
Mole fraction of butylammonium acetate	Refractive index (Na D-line)	uncertainty
0.0315	1.3875	0.0011
0.0601	1.3912	0.0011
0.0977	1.3953	0.0011
0.198	1.4045	0.0011
0.3002	1.4122	0.0011
0.4021	1.4185	0.0011
0.497	1.4236	0.0011
0.6487	1.4305	0.0011
0.799	1.4362	0.0011
0.8981	1.4395	0.0011

System: propan-1-ol + butylammonium acetate; phases: Liquid
Fixed: Pressure, kPa = 101.3
Property: Mass density, kg/m3 (Liquid); method: Vibrating tube method
Temperature, K	Mole fraction of butylammonium acetate	Mass density, kg/m3	uncertainty
293.15	0.0315	814.1	0.38
293.15	0.0601	822.82	0.38
293.15	0.0977	833.38	0.39
293.15	0.198	857.48	0.39
293.15	0.3002	877.71	0.396
293.15	0.4021	894.7	0.4
293.15	0.497	908.39	0.4
293.15	0.6487	927.09	0.41
293.15	0.799	942.52	0.42
293.15	0.8981	951.47	0.42
298.15	0.0315	810.13	0.38
298.15	0.0601	818.91	0.38
298.15	0.0977	829.52	0.38
298.15	0.198	853.76	0.39
298.15	0.3002	874.1	0.4
298.15	0.4021	891.19	0.4
298.15	0.497	904.94	0.4
298.15	0.6487	923.74	0.41
298.15	0.799	939.27	0.41
298.15	0.8981	948.25	0.42
303.15	0.0315	806.12	0.38
303.15	0.0601	814.95	0.38
303.15	0.0977	825.63	0.38
303.15	0.198	850	0.39
303.15	0.3002	870.46	0.39
303.15	0.4021	887.65	0.4
303.15	0.497	901.48	0.4
303.15	0.6487	920.37	0.41
303.15	0.799	936.01	0.41
303.15	0.8981	945.03	0.42
308.15	0.0315	802.09	0.38
308.15	0.0601	810.95	0.38
308.15	0.0977	821.7	0.38
308.15	0.198	846.22	0.39
308.15	0.3002	866.8	0.39
308.15	0.4021	884.1	0.4
308.15	0.497	898.01	0.4
308.15	0.6487	917	0.41
308.15	0.799	932.73	0.41
308.15	0.8981	941.83	0.42
313.15	0.0315	798.01	0.38
313.15	0.0601	806.91	0.38
313.15	0.0977	817.72	0.38
313.15	0.198	842.42	0.39
313.15	0.3002	863.11	0.39
313.15	0.4021	880.52	0.4
313.15	0.497	894.53	0.4
313.15	0.6487	913.6	0.41
313.15	0.799	929.43	0.41
313.15	0.8981	938.61	0.41

System: butan-1-ol + butylammonium acetate; phases: Liquid
Fixed: Pressure, kPa = 101.3
Property: Viscosity, Pa*s (Liquid); method: Falling or rolling sphere viscometry
Temperature, K	Mole fraction of butylammonium acetate	Viscosity, Pa*s	uncertainty
293.15	0.029	0.003564	9.8e-05
293.15	0.0583	0.004397	0.000121
293.15	0.1003	0.005588	0.000153
293.15	0.1981	0.009789	0.000269
293.15	0.2981	0.017144	0.00047
293.15	0.399	0.028334	0.000778
293.15	0.497	0.050227	0.001333
293.15	0.6489	0.107737	0.003825
293.15	0.7984	0.225041	0.01199
293.15	0.9003	0.389538	0.026978
298.15	0.029	0.00319	8.8e-05
298.15	0.0583	0.003806	0.000104
298.15	0.1003	0.004823	0.000132
298.15	0.1981	0.008389	0.00023
298.15	0.2981	0.014412	0.000395
298.15	0.399	0.023481	0.000644
298.15	0.497	0.04101	0.001126
298.15	0.6489	0.086028	0.002694
298.15	0.7984	0.170607	0.007862
298.15	0.9003	0.287993	0.017266
303.15	0.029	0.002787	7.6e-05
303.15	0.0583	0.003318	9.1e-05
303.15	0.1003	0.004165	0.000114
303.15	0.1981	0.007151	0.000196
303.15	0.2981	0.012181	0.000334
303.15	0.399	0.0196	0.000538
303.15	0.497	0.033212	0.000911
303.15	0.6489	0.069137	0.001958
303.15	0.7984	0.138102	0.005654
303.15	0.9003	0.216861	0.011338
308.15	0.029	0.002455	6.7e-05
308.15	0.0583	0.002908	8e-05
308.15	0.1003	0.003636	0.0001
308.15	0.1981	0.006123	0.000168
308.15	0.2981	0.010388	0.000285
308.15	0.399	0.016501	0.000453
308.15	0.497	0.028451	0.000781
308.15	0.6489	0.056308	0.001507
308.15	0.7984	0.109794	0.003937
308.15	0.9003	0.167147	0.007616
313.15	0.029	0.002164	5.9e-05
313.15	0.0583	0.002592	7.1e-05
313.15	0.1003	0.00317	8.7e-05
313.15	0.1981	0.005297	0.000145
313.15	0.2981	0.008894	0.000244
313.15	0.399	0.014002	0.000384
313.15	0.497	0.023979	0.000658
313.15	0.6489	0.045886	0.001258
313.15	0.7984	0.087652	0.002771
313.15	0.9003	0.129841	0.005131

System: butan-1-ol + butylammonium acetate; phases: Liquid
Fixed: Temperature, K = 298.15
Fixed: Pressure, kPa = 101.3
Property: Refractive index (Na D-line) (Liquid); method: Standard Abbe refractometry
Mole fraction of butylammonium acetate	Refractive index (Na D-line)	uncertainty
0.029	1.3999	0.0011
0.0583	1.4023	0.0011
0.1003	1.4053	0.0011
0.1981	1.4115	0.0011
0.2981	1.417	0.0011
0.399	1.4217	0.0011
0.497	1.4256	0.0011
0.6489	1.4314	0.0011
0.7984	1.4366	0.0011
0.9003	1.4399	0.0011

System: butan-1-ol + butylammonium acetate; phases: Liquid
Fixed: Pressure, kPa = 101.3
Property: Mass density, kg/m3 (Liquid); method: Vibrating tube method
Temperature, K	Mole fraction of butylammonium acetate	Mass density, kg/m3	uncertainty
293.15	0.029	817.08	0.38
293.15	0.0583	824.15	0.38
293.15	0.1003	833.62	0.38
293.15	0.1981	853.55	0.39
293.15	0.2981	871.49	0.39
293.15	0.399	887.71	0.4
293.15	0.497	901.99	0.4
293.15	0.6489	921.84	0.41
293.15	0.7984	939.21	0.41
293.15	0.9003	949.8	0.42
298.15	0.029	813.28	0.38
298.15	0.0583	820.36	0.38
298.15	0.1003	829.88	0.38
298.15	0.1981	849.9	0.39
298.15	0.2981	867.92	0.39
298.15	0.399	884.21	0.4
298.15	0.497	898.53	0.4
298.15	0.6489	918.48	0.41
298.15	0.7984	935.95	0.41
298.15	0.9003	946.58	0.42
303.15	0.029	809.45	0.38
303.15	0.0583	816.55	0.38
303.15	0.1003	826.11	0.38
303.15	0.1981	846.22	0.39
303.15	0.2981	864.33	0.39
303.15	0.399	880.69	0.4
303.15	0.497	895.09	0.4
303.15	0.6489	915.12	0.41
303.15	0.7984	932.68	0.41
303.15	0.9003	943.37	0.42
308.15	0.029	805.57	0.38
308.15	0.0583	812.7	0.38
308.15	0.1003	822.23	0.38
308.15	0.1981	842.52	0.39
308.15	0.2981	860.72	0.39
308.15	0.399	877.17	0.4
308.15	0.497	891.62	0.4
308.15	0.6489	911.75	0.41
308.15	0.7984	929.4	0.41
308.15	0.9003	940.16	0.41
313.15	0.029	801.67	0.38
313.15	0.0583	808.82	0.38
313.15	0.1003	818.46	0.38
313.15	0.1981	838.78	0.39
313.15	0.2981	857.08	0.39
313.15	0.399	873.62	0.4
313.15	0.497	888.15	0.4
313.15	0.6489	908.37	0.41
313.15	0.7984	926.1	0.41
313.15	0.9003	936.93	0.41
