Measured thermophysical data. Measurements of Optical Properties in Binary and Ternary Mixtures Containing Cyclohexane, Toluene, and Methanol
Source: J. Chem. Eng. Data, 2012, 10.1021/je201277d
Compound 1: cyclohexane, C6H12, InChI=1S/C6H12/c1-2-4-6-5-3-1/h1-6H2, purity 99.99%
Compound 2: toluene, C7H8, InChI=1S/C7H8/c1-7-5-3-2-4-6-7/h2-6H,1H3, purity 99.85%
Compound 3: methanol, CH4O, InChI=1S/CH4O/c1-2/h2H,1H3, purity 99.99%

System: cyclohexane; phases: Liquid
Fixed: Temperature, K = 298.15
Fixed: Pressure, kPa = 101.3
Property: Refractive index (other wavelength) (Liquid); method: ABBE::UFactor:2
Wavelength, nm	Refractive index (other wavelength)	uncertainty
670	1.42253	0.00063
925	1.41832	0.00063

System: toluene; phases: Liquid
Fixed: Temperature, K = 298.15
Fixed: Pressure, kPa = 101.3
Property: Refractive index (other wavelength) (Liquid); method: ABBE::UFactor:2
Wavelength, nm	Refractive index (other wavelength)	uncertainty
670	1.48998	0.00063
925	1.48176	0.00063

System: methanol; phases: Liquid
Fixed: Temperature, K = 298.15
Fixed: Pressure, kPa = 101.3
Property: Refractive index (other wavelength) (Liquid); method: ABBE::UFactor:2
Wavelength, nm	Refractive index (other wavelength)	uncertainty
670	1.32603	0.00063
925	1.32235	0.00063

System: methanol + toluene; phases: Liquid
Fixed: Temperature, K = 298.15
Fixed: Pressure, kPa = 101.3
Property: Refractive index (other wavelength) (Liquid); method: ABBE:UFactor:2
Mass fraction of toluene	Wavelength, nm	Refractive index (other wavelength)	uncertainty
0.1001	670	1.34089	0.00063
0.1001	925	1.33686	0.00063
0.1994	670	1.35612	0.00063
0.1994	925	1.35152	0.00063
0.3001	670	1.37219	0.00063
0.3001	925	1.36718	0.00063
0.4	670	1.38826	0.00063
0.4	925	1.38279	0.00063
0.4996	670	1.4056	0.00063
0.4996	925	1.39956	0.00063
0.6	670	1.42196	0.00063
0.6	925	1.41564	0.00063
0.6994	670	1.43865	0.00063
0.6994	925	1.43182	0.00063
0.8001	670	1.45699	0.00063
0.8001	925	1.44951	0.00063
0.8994	670	1.47418	0.00063
0.8994	925	1.46633	0.00063

System: toluene + cyclohexane; phases: Liquid
Fixed: Temperature, K = 298.15
Fixed: Pressure, kPa = 101.3
Property: Refractive index (other wavelength) (Liquid); method: ABBE:UFactor:2
Mass fraction of cyclohexane	Wavelength, nm	Refractive index (other wavelength)	uncertainty
0.0996	670	1.48158	0.00063
0.0996	925	1.47383	0.00063
0.2002	670	1.47363	0.00063
0.2002	925	1.46618	0.00063
0.2995	670	1.46616	0.00063
0.2995	925	1.4592	0.00063
0.4003	670	1.45883	0.00063
0.4003	925	1.45229	0.00063
0.5004	670	1.45162	0.00063
0.5004	925	1.44539	0.00063
0.6002	670	1.44527	0.00063
0.6002	925	1.43956	0.00063
0.7	670	1.43903	0.00063
0.7	925	1.43363	0.00063
0.8005	670	1.43327	0.00063
0.8005	925	1.42825	0.00063
0.9001	670	1.42768	0.00063
0.9001	925	1.42296	0.00063

System: methanol + cyclohexane; phases: Liquid
Fixed: Temperature, K = 298.15
Fixed: Pressure, kPa = 101.3
Property: Refractive index (other wavelength) (Liquid); method: ABBE::UFactor:2
Mass fraction of cyclohexane	Wavelength, nm	Refractive index (other wavelength)	uncertainty
0.1	670	1.33196	0.00063
0.1	925	1.32811	0.00063
0.2004	670	1.34128	0.00063
0.2004	925	1.33737	0.00063
0.2999	670	1.34987	0.00063
0.2999	925	1.34602	0.00063

System: methanol + toluene + cyclohexane; phases: Liquid
Fixed: Temperature, K = 298.15
Fixed: Pressure, kPa = 101.3
Fixed: Wavelength, nm = 670
Property: Refractive index (other wavelength) (Liquid); method: ABBE:UFactor:2
Mass fraction of cyclohexane	Mass fraction of toluene	Refractive index (other wavelength)	uncertainty
0	0	1.32603	0.00063
0	0.1001	1.34089	0.00063
0	0.1994	1.35612	0.00063
0	0.3001	1.37219	0.00063
0	0.4	1.38826	0.00063
0	0.4996	1.4056	0.00063
0	0.6	1.42196	0.00063
0	0.6994	1.43865	0.00063
0	0.8001	1.45699	0.00063
0	0.8994	1.47418	0.00063
0	1	1.48998	0.00063
0.0987	0.1973	1.3638	0.00063
0.0995	0.0991	1.34806	0.00063
0.0996	0.9004	1.48158	0.00063
0.0997	0.2995	1.38034	0.00063
0.0997	0.6001	1.43269	0.00063
0.0998	0.3999	1.39696	0.00063
0.0999	0.5004	1.41378	0.00063
0.0999	0.7999	1.4665	0.00063
0.1	0	1.33196	0.00063
0.1002	0.7003	1.44992	0.00063
0.1979	0.5955	1.43932	0.00063
0.1995	0.4002	1.40649	0.00063
0.1995	0.5002	1.42347	0.00063
0.1997	0.1998	1.37314	0.00063
0.2	0.2998	1.38954	0.00063
0.2002	0.7998	1.47363	0.00063
0.2003	0.0996	1.35621	0.00063
0.2003	0.7002	1.45784	0.00063
0.2004	0	1.34128	0.00063
0.2995	0.7005	1.46616	0.00063
0.2996	0.2003	1.38258	0.00063
0.2997	0.5001	1.43302	0.00063
0.2997	0.5001	1.43302	0.00063
0.2997	0.5001	1.43302	0.00063
0.2998	0.4005	1.4167	0.00063
0.2998	0.4005	1.4167	0.00063
0.2998	0.4005	1.4167	0.00063
0.2999	0	1.34987	0.00063
0.2999	0.3	1.39942	0.00063
0.2999	0	1.34987	0.00063
0.2999	0.3	1.39942	0.00063
0.3002	0.1001	1.36609	0.00063
0.3002	0.6004	1.45078	0.00063
0.3002	0.1001	1.36609	0.00063
0.394	0.3939	1.42565	0.00063
0.3948	0.4937	1.44234	0.00063
0.3992	0.3008	1.40894	0.00063
0.4003	0.5997	1.45883	0.00063
0.4006	0.1996	1.39238	0.00063
0.4998	0.2998	1.42022	0.00063
0.5001	0.4002	1.4387	0.00063
0.5004	0.4996	1.45162	0.00063
0.5007	0.1995	1.4033	0.00063
0.5987	0.1993	1.41342	0.00063
0.6002	0.3998	1.44527	0.00063
0.6006	0.3003	1.43129	0.00063
0.7	0.3	1.43903	0.00063
0.8005	0.1995	1.43327	0.00063
0.9001	0.0999	1.42768	0.00063
1	0	1.42253	0.00063

System: methanol + toluene + cyclohexane; phases: Liquid
Fixed: Temperature, K = 298.15
Fixed: Pressure, kPa = 101.3
Fixed: Wavelength, nm = 925
Property: Refractive index (other wavelength) (Liquid); method: ABBE:UFactor:2
Mass fraction of cyclohexane	Mass fraction of toluene	Refractive index (other wavelength)	uncertainty
0	0	1.32235	0.00063
0	0.1001	1.33686	0.00063
0	0.1994	1.35152	0.00063
0	0.3001	1.36718	0.00063
0	0.4	1.38279	0.00063
0	0.4996	1.39956	0.00063
0	0.6	1.41564	0.00063
0	0.6994	1.43182	0.00063
0	0.8001	1.44951	0.00063
0	0.8994	1.46633	0.00063
0	1	1.48176	0.00063
0.0987	0.1973	1.35912	0.00063
0.0995	0.0991	1.34393	0.00063
0.0996	0.9004	1.47383	0.00063
0.0997	0.2995	1.37546	0.00063
0.0997	0.6001	1.42608	0.00063
0.0998	0.3999	1.3915	0.00063
0.0999	0.5004	1.40789	0.00063
0.0999	0.7999	1.45901	0.00063
0.1	0	1.32811	0.00063
0.1002	0.7003	1.44291	0.00063
0.1979	0.5955	1.43272	0.00063
0.1995	0.4002	1.40085	0.00063
0.1995	0.5002	1.41746	0.00063
0.1997	0.1998	1.3684	0.00063
0.2	0.2998	1.38443	0.00063
0.2002	0.7998	1.46618	0.00063
0.2003	0.0996	1.35174	0.00063
0.2003	0.7002	1.45092	0.00063
0.2004	0	1.33737	0.00063
0.2995	0.7005	1.4592	0.00063
0.2996	0.2003	1.37774	0.00063
0.2997	0.5001	1.42682	0.00063
0.2997	0.5001	1.42682	0.00063
0.2997	0.5001	1.42682	0.00063
0.2998	0.4005	1.41095	0.00063
0.2998	0.4005	1.41095	0.00063
0.2998	0.4005	1.41095	0.00063
0.2999	0	1.34602	0.00063
0.2999	0.3	1.39409	0.00063
0.2999	0	1.34602	0.00063
0.2999	0.3	1.39409	0.00063
0.3002	0.1001	1.36169	0.00063
0.3002	0.6004	1.44422	0.00063
0.3002	0.1001	1.36169	0.00063
0.394	0.3939	1.41999	0.00063
0.3948	0.4937	1.4361	0.00063
0.3992	0.3008	1.40378	0.00063
0.4003	0.5997	1.45229	0.00063
0.4006	0.1996	1.38763	0.00063
0.4998	0.2998	1.41474	0.00063
0.5001	0.4002	1.43287	0.00063
0.5004	0.4996	1.44539	0.00063
0.5007	0.1995	1.39829	0.00063
0.5987	0.1993	1.40839	0.00063
0.6002	0.3998	1.43956	0.00063
0.6006	0.3003	1.4257	0.00063
0.7	0.3	1.43363	0.00063
0.8005	0.1995	1.42825	0.00063
0.9001	0.0999	1.42296	0.00063
1	0	1.41832	0.00063
