Measured thermophysical data. Effects of NaOH and Ethanol on the Solubility of Disodium Decanedioate in Water
Source: J. Chem. Eng. Data, 2012, 10.1021/je201351a
Compound 1: sodium hydroxide, HNaO, InChI=1S/Na.H2O/h;1H2/q+1;/p-1, purity 97%
Compound 2: ethanol, C2H6O, InChI=1S/C2H6O/c1-2-3/h3H,2H2,1H3, purity 99.7%
Compound 3: sodium decanedioate, C10H16Na2O4, InChI=1S/C10H18O4.2Na/c11-9(12)7-5-3-1-2-4-6-8-10(13)14;;/h1-8H2,(H,11,12)(H,13,14);;/q;2*+1/p-2, purity 99%
Compound 4: water, H2O, InChI=1S/H2O/h1H2, purity 99.9%

System: water + sodium decanedioate; phases: Liquid, Crystal
Fixed: Pressure, kPa = 101
Property: Solid-liquid equilibrium temperature, K (Liquid); method: laser technique
Mole fraction of sodium decanedioate	Solid-liquid equilibrium temperature, K	uncertainty
0.014607	285.5	0.6
0.015099	294.81	0.6
0.015614	303.16	0.6
0.015943	307.5	0.6
0.016289	312.18	0.6
0.016639	316.45	0.6
0.016978	320.7	0.6
0.017341	323.9	0.6
0.0177	326.8	0.6
0.01812	331.1	0.6
0.018503	334.35	0.6
0.019222	340.67	0.6

System: ethanol + water + sodium decanedioate; phases: Liquid, Crystal
Fixed: Pressure, kPa = 101
Property: Solid-liquid equilibrium temperature, K (Liquid); method: laser technique
Solvent: Mole fraction of ethanol	Mole fraction of sodium decanedioate	Solid-liquid equilibrium temperature, K	uncertainty
0.099	0.00778	286.05	0.6
0.099	0.00818	288.79	0.6
0.099	0.00857	292	0.6
0.099	0.00896	294.75	0.6
0.099	0.00939	297.93	0.6
0.099	0.00985	300.21	0.6
0.099	0.0103	302.99	0.6
0.099	0.01071	305.2	0.6
0.099	0.01123	308.63	0.6
0.099	0.01181	311.9	0.6
0.099	0.0125	315.37	0.6
0.099	0.01328	320.2	0.6
0.099	0.01399	324.61	0.6
0.099	0.01471	328.83	0.6
0.099	0.01544	333.5	0.6
0.201	0.00496	285.9	0.6
0.201	0.0054	289.5	0.6
0.201	0.00581	293.51	0.6
0.201	0.00623	296.53	0.6
0.201	0.00665	299.39	0.6
0.201	0.00711	302.2	0.6
0.201	0.00755	305.25	0.6
0.201	0.00801	308.45	0.6
0.201	0.00849	311.36	0.6
0.201	0.00895	314.6	0.6
0.201	0.00941	317.87	0.6
0.201	0.00989	321.1	0.6
0.201	0.01049	325.03	0.6
0.201	0.01107	329.35	0.6
0.201	0.01167	333.57	0.6
0.316	0.00259	284.57	0.6
0.316	0.00291	288.19	0.6
0.316	0.00332	293.29	0.6
0.316	0.0036	297.07	0.6
0.316	0.00407	302.65	0.6
0.316	0.00449	307.75	0.6
0.316	0.0049	311.85	0.6
0.316	0.00532	316.91	0.6
0.316	0.00573	321.23	0.6
0.316	0.00626	326.58	0.6
0.316	0.00679	331.85	0.6
0.391	0.00162	285.65	0.6
0.391	0.002	293.1	0.6
0.391	0.00234	300.25	0.6
0.391	0.00255	303.9	0.6
0.391	0.0027	306.47	0.6
0.391	0.0029	309.55	0.6
0.391	0.00307	312.91	0.6
0.391	0.00327	315.95	0.6
0.391	0.0035	319.39	0.6
0.391	0.00373	323.36	0.6
0.391	0.00393	326.9	0.6
0.391	0.00416	330.2	0.6
0.391	0.00439	333.71	0.6
0.472	0.000827	284.2	0.6
0.472	0.000896	287.21	0.6
0.472	0.00105	292.86	0.6
0.472	0.0012	298.37	0.6
0.472	0.00136	303.83	0.6
0.472	0.00149	308.3	0.6
0.472	0.00166	313.78	0.6
0.472	0.0018	318.45	0.6
0.472	0.00193	322.65	0.6
0.472	0.00207	326.01	0.6
0.472	0.00221	329.47	0.6
0.472	0.00248	337.6	0.6

System: sodium hydroxide + water + sodium decanedioate; phases: Liquid, Crystal
Fixed: Pressure, kPa = 101
Property: Solid-liquid equilibrium temperature, K (Liquid); method: laser technique
Solvent: Mole fraction of sodium hydroxide	Mole fraction of sodium decanedioate	Solid-liquid equilibrium temperature, K	uncertainty
0	0.014607	285.5	0.6
0	0.015099	294.81	0.6
0	0.015614	303.16	0.6
0	0.015943	307.5	0.6
0	0.016289	312.18	0.6
0	0.016639	316.45	0.6
0	0.016978	320.7	0.6
0	0.017341	323.9	0.6
0	0.0177	326.8	0.6
0	0.01812	331.1	0.6
0	0.018503	334.35	0.6
0	0.019222	340.67	0.6
0.023	0.006498	287.55	0.6
0.023	0.007124	301.25	0.6
0.023	0.007564	308.95	0.6
0.023	0.007808	313.49	0.6
0.023	0.008009	317.35	0.6
0.023	0.00822	320.8	0.6
0.023	0.008391	323.25	0.6
0.023	0.00859	325.75	0.6
0.023	0.008821	329.1	0.6
0.023	0.009052	332.1	0.6
0.023	0.009282	334.5	0.6
0.023	0.009526	336.95	0.6
0.023	0.009709	339.15	0.6
0.023	0.009942	341.45	0.6
0.023	0.010138	343.6	0.6
0.05	0.001182	293.85	0.6
0.05	0.00133	303.8	0.6
0.05	0.001384	306.65	0.6
0.05	0.001465	310.89	0.6
0.05	0.001533	314.95	0.6
0.05	0.001635	319.9	0.6
0.05	0.001713	323.4	0.6
0.05	0.001807	327.03	0.6
0.05	0.001909	329.81	0.6
0.05	0.002131	337.07	0.6
0.05	0.002361	342.05	0.6
0.05	0.002467	344.81	0.6
0.084	0.000111	289.85	0.6
0.084	0.000143	298.69	0.6
0.084	0.000152	300.93	0.6
0.084	0.000172	305.83	0.6
0.084	0.000197	311.05	0.6
0.084	0.000221	316.42	0.6
0.084	0.000238	318.85	0.6
0.084	0.000246	320.9	0.6
0.084	0.00028	325.15	0.6
0.084	0.000292	327.83	0.6
0.084	0.000314	330.67	0.6
0.084	0.000351	335.55	0.6
0.084	0.000385	338.77	0.6
0.084	0.000421	342.01	0.6
