Measured thermophysical data. Sodium Salts of Benzoic, m-Salicylic, and p-Salicylic Acid: A Conductivity Study of Diluted Aqueous Solutions
Source: J. Chem. Eng. Data, 2011, 10.1021/je200836x
Compound 1: sodium 2-hydroxy-3-methylbenzoate, C8H7NaO3, InChI=1S/C8H8O3.Na/c1-5-3-2-4-6(7(5)9)8(10)11;/h2-4,9H,1H3,(H,10,11);/q;+1/p-1, purity 99%
Compound 2: sodium 2-hydroxy-4-methylbenzoate, C8H7NaO3, InChI=1S/C8H8O3.Na/c1-5-2-3-6(8(10)11)7(9)4-5;/h2-4,9H,1H3,(H,10,11);/q;+1/p-1, purity 99%
Compound 3: sodium benzoate, C7H5NaO2, InChI=1S/C7H6O2.Na/c8-7(9)6-4-2-1-3-5-6;/h1-5H,(H,8,9);/q;+1/p-1, purity 99%
Compound 4: water, H2O, InChI=1S/H2O/h1H2, purity 99.9%

System: water + sodium 2-hydroxy-3-methylbenzoate; phases: Liquid
Fixed: Temperature, K = 298.15
Fixed: Pressure, kPa = 101
Property: Mass density, kg/m3 (Liquid); method: Vibrating tube method
Molality, mol/kg of sodium 2-hydroxy-3-methylbenzoate	Mass density, kg/m3	uncertainty
0.0050073	997.408	0.087
0.092015	1003.593	0.088

System: water + sodium 2-hydroxy-3-methylbenzoate; phases: Liquid
Fixed: Pressure, kPa = 101
Property: Molar conductivity, S*m2/mol (Liquid); method: Alternating current cell with electrodes
Temperature, K	Molality, mol/kg of sodium 2-hydroxy-3-methylbenzoate	Molar conductivity, S*m2/mol	uncertainty
278.15	0.00017887	0.0047016	2.82e-05
278.15	0.00041587	0.0046591	2.8e-05
278.15	0.00071151	0.0046319	2.78e-05
278.15	0.0010032	0.0046108	2.77e-05
278.15	0.0013218	0.0045911	2.75e-05
278.15	0.0016979	0.0045662	2.74e-05
278.15	0.0020881	0.0045472	2.73e-05
278.15	0.0026459	0.004526	2.72e-05
278.15	0.003288	0.0045045	2.7e-05
278.15	0.0041127	0.0044828	2.69e-05
278.15	0.0050073	0.0044573	2.67e-05
283.15	0.00017887	0.0054357	3.26e-05
283.15	0.00041587	0.0053863	3.23e-05
283.15	0.00071151	0.0053536	3.21e-05
283.15	0.0010032	0.0053295	3.2e-05
283.15	0.0013218	0.0053062	3.18e-05
283.15	0.0016979	0.005277	3.17e-05
283.15	0.0020881	0.0052563	3.15e-05
283.15	0.0026459	0.0052315	3.14e-05
283.15	0.003288	0.0052062	3.12e-05
283.15	0.0041127	0.0051781	3.11e-05
283.15	0.0050073	0.0051401	3.08e-05
288.15	0.00017887	0.0062128	3.73e-05
288.15	0.00041587	0.0061587	3.7e-05
288.15	0.00071151	0.0061186	3.67e-05
288.15	0.0010032	0.0060909	3.65e-05
288.15	0.0013218	0.00606	3.64e-05
288.15	0.0016979	0.0060323	3.62e-05
288.15	0.0020881	0.0060079	3.6e-05
288.15	0.0026459	0.0059814	3.59e-05
288.15	0.003288	0.0059505	3.57e-05
288.15	0.0041127	0.0059051	3.54e-05
288.15	0.0050073	0.0058731	3.52e-05
293.15	0.00017887	0.0070352	4.22e-05
293.15	0.00041587	0.0069747	4.18e-05
293.15	0.00071151	0.0069278	4.16e-05
293.15	0.0010032	0.0068964	4.14e-05
293.15	0.0013218	0.0068616	4.12e-05
293.15	0.0016979	0.0068304	4.1e-05
293.15	0.0020881	0.0068028	4.08e-05
293.15	0.0026459	0.0067724	4.06e-05
293.15	0.003288	0.0067375	4.04e-05
293.15	0.0041127	0.0066876	4.01e-05
293.15	0.0050073	0.0066503	3.99e-05
298.15	0.00017887	0.0078909	4.73e-05
298.15	0.00041587	0.0078245	4.69e-05
298.15	0.00071151	0.0077728	4.66e-05
298.15	0.0010032	0.0077309	4.64e-05
298.15	0.0013218	0.0076983	4.62e-05
298.15	0.0016979	0.0076645	4.6e-05
298.15	0.0020881	0.0076319	4.58e-05
298.15	0.0026459	0.0075986	4.56e-05
298.15	0.003288	0.0075416	4.52e-05
298.15	0.0041127	0.007504	4.5e-05
298.15	0.0050073	0.0074618	4.48e-05
303.15	0.00017887	0.008781	5.27e-05
303.15	0.00041587	0.0087088	5.23e-05
303.15	0.00071151	0.0086526	5.19e-05
303.15	0.0010032	0.0086063	5.16e-05
303.15	0.0013218	0.0085695	5.14e-05
303.15	0.0016979	0.0085345	5.12e-05
303.15	0.0020881	0.008498	5.1e-05
303.15	0.0026459	0.0084575	5.07e-05
303.15	0.003288	0.0083986	5.04e-05
303.15	0.0041127	0.0083564	5.01e-05
303.15	0.0050073	0.0083074	4.98e-05
308.15	0.00017887	0.0097022	5.82e-05
308.15	0.00041587	0.0096253	5.78e-05
308.15	0.00071151	0.0095622	5.74e-05
308.15	0.0010032	0.0095114	5.71e-05
308.15	0.0013218	0.0094704	5.68e-05
308.15	0.0016979	0.0094323	5.66e-05
308.15	0.0020881	0.0093951	5.64e-05
308.15	0.0026459	0.0093274	5.6e-05
308.15	0.003288	0.009286	5.57e-05
308.15	0.0041127	0.00924	5.54e-05
308.15	0.0050073	0.0091838	5.51e-05
313.15	0.00017887	0.0106474	6.39e-05
313.15	0.00041587	0.0105588	6.34e-05
313.15	0.00071151	0.0104891	6.29e-05
313.15	0.0010032	0.0104353	6.26e-05
313.15	0.0013218	0.0103959	6.24e-05
313.15	0.0016979	0.0103593	6.22e-05
313.15	0.0020881	0.0103114	6.19e-05
313.15	0.0026459	0.0102445	6.15e-05
313.15	0.003288	0.0101965	6.12e-05
313.15	0.0041127	0.0101518	6.09e-05
313.15	0.0050073	0.0100868	6.05e-05

System: sodium 2-hydroxy-4-methylbenzoate + water; phases: Liquid
Fixed: Temperature, K = 298.15
Fixed: Pressure, kPa = 101
Property: Mass density, kg/m3 (Liquid); method: Vibrating tube method
Molality, mol/kg of sodium 2-hydroxy-4-methylbenzoate	Mass density, kg/m3	uncertainty
0.0054643	997.441	0.087
0.098716	1004.119	0.088

System: sodium 2-hydroxy-4-methylbenzoate + water; phases: Liquid
Fixed: Pressure, kPa = 101
Property: Molar conductivity, S*m2/mol (Liquid); method: Alternating current cell with electrodes
Temperature, K	Molality, mol/kg of sodium 2-hydroxy-4-methylbenzoate	Molar conductivity, S*m2/mol	uncertainty
278.15	0.00087665	0.0044627	2.68e-05
278.15	0.00120508	0.0044513	2.67e-05
278.15	0.00157164	0.0044361	2.66e-05
278.15	0.0019758	0.0044159	2.65e-05
278.15	0.0024535	0.0044014	2.64e-05
278.15	0.0030097	0.0043824	2.63e-05
278.15	0.0036956	0.0043638	2.62e-05
278.15	0.0045385	0.004345	2.61e-05
278.15	0.0054643	0.0043322	2.6e-05
283.15	0.00087665	0.0051594	3.1e-05
283.15	0.00120508	0.0051454	3.09e-05
283.15	0.00157164	0.0051219	3.07e-05
283.15	0.0019758	0.0051054	3.06e-05
283.15	0.0024535	0.0050872	3.05e-05
283.15	0.0030097	0.0050651	3.04e-05
283.15	0.0036956	0.0050436	3.03e-05
283.15	0.0045385	0.0050217	3.01e-05
283.15	0.0054643	0.0049928	3e-05
288.15	0.00087665	0.005899	3.54e-05
288.15	0.00120508	0.0058803	3.53e-05
288.15	0.00157164	0.0058546	3.51e-05
288.15	0.0019758	0.005835	3.5e-05
288.15	0.0024535	0.0058149	3.49e-05
288.15	0.0030097	0.0057897	3.47e-05
288.15	0.0036956	0.0057652	3.46e-05
288.15	0.0045385	0.0057338	3.44e-05
288.15	0.0054643	0.0057066	3.42e-05
293.15	0.00087665	0.0066794	4.01e-05
293.15	0.00120508	0.0066484	3.99e-05
293.15	0.00157164	0.0066288	3.98e-05
293.15	0.0019758	0.006608	3.96e-05
293.15	0.0024535	0.0065838	3.95e-05
293.15	0.0030097	0.0065555	3.93e-05
293.15	0.0036956	0.0065177	3.91e-05
293.15	0.0045385	0.0064929	3.9e-05
293.15	0.0054643	0.0064617	3.88e-05
298.15	0.00087665	0.0074949	4.5e-05
298.15	0.00120508	0.0074615	4.48e-05
298.15	0.00157164	0.0074388	4.46e-05
298.15	0.0019758	0.0074144	4.45e-05
298.15	0.0024535	0.0073875	4.43e-05
298.15	0.0030097	0.0073557	4.41e-05
298.15	0.0036956	0.0073143	4.39e-05
298.15	0.0045385	0.0072853	4.37e-05
298.15	0.0054643	0.007251	4.35e-05
303.15	0.00087665	0.0083451	5.01e-05
303.15	0.00120508	0.0083077	4.98e-05
303.15	0.00157164	0.0082833	4.97e-05
303.15	0.0019758	0.0082576	4.95e-05
303.15	0.0024535	0.0082248	4.93e-05
303.15	0.0030097	0.0081783	4.91e-05
303.15	0.0036956	0.008146	4.89e-05
303.15	0.0045385	0.0081121	4.87e-05
303.15	0.0054643	0.0080729	4.84e-05
308.15	0.00087665	0.0092128	5.53e-05
308.15	0.00120508	0.0091844	5.51e-05
308.15	0.00157164	0.0091577	5.49e-05
308.15	0.0019758	0.0091363	5.48e-05
308.15	0.0024535	0.0090917	5.46e-05
308.15	0.0030097	0.0090442	5.43e-05
308.15	0.0036956	0.009009	5.41e-05
308.15	0.0045385	0.0089687	5.38e-05
308.15	0.0054643	0.0089265	5.36e-05
313.15	0.00087665	0.010115	6.07e-05
313.15	0.00120508	0.0100799	6.05e-05
313.15	0.00157164	0.0100485	6.03e-05
313.15	0.0019758	0.0100259	6.02e-05
313.15	0.0024535	0.0099638	5.98e-05
313.15	0.0030097	0.0099329	5.96e-05
313.15	0.0036956	0.0098922	5.94e-05
313.15	0.0045385	0.0098439	5.91e-05
313.15	0.0054643	0.0097984	5.88e-05

System: sodium benzoate + water; phases: Liquid
Fixed: Temperature, K = 298.15
Fixed: Pressure, kPa = 101
Property: Mass density, kg/m3 (Liquid); method: Vibrating tube method
Molality, mol/kg of sodium benzoate	Mass density, kg/m3	uncertainty
0.0049503	997.26	0.077
0.084663	1001.936	0.077

System: sodium benzoate + water; phases: Liquid
Fixed: Pressure, kPa = 101
Property: Molar conductivity, S*m2/mol (Liquid); method: Alternating current cell with electrodes
Temperature, K	Molality, mol/kg of sodium benzoate	Molar conductivity, S*m2/mol	uncertainty
278.15	0.00021356	0.0048277	2.9e-05
278.15	0.00046495	0.0047903	2.87e-05
278.15	0.00073344	0.004765	2.86e-05
278.15	0.0009986	0.0047458	2.85e-05
278.15	0.0012993	0.0047298	2.84e-05
278.15	0.0015998	0.0047076	2.82e-05
278.15	0.0019961	0.0046903	2.81e-05
278.15	0.0024877	0.0046711	2.8e-05
278.15	0.0031073	0.0046489	2.79e-05
278.15	0.0038322	0.0046344	2.78e-05
278.15	0.0049503	0.0046036	2.76e-05
283.15	0.00021356	0.0055838	3.35e-05
283.15	0.00046495	0.0055415	3.32e-05
283.15	0.00073344	0.0055139	3.31e-05
283.15	0.0009986	0.0054933	3.3e-05
283.15	0.0012993	0.0054737	3.28e-05
283.15	0.0015998	0.0054476	3.27e-05
283.15	0.0019961	0.0054275	3.26e-05
283.15	0.0024877	0.0054068	3.24e-05
283.15	0.0031073	0.0053802	3.23e-05
283.15	0.0038322	0.005362	3.22e-05
283.15	0.0049503	0.0053199	3.19e-05
288.15	0.00021356	0.0063843	3.83e-05
288.15	0.00046495	0.0063387	3.8e-05
288.15	0.00073344	0.0063078	3.78e-05
288.15	0.0009986	0.006283	3.77e-05
288.15	0.0012993	0.0062534	3.75e-05
288.15	0.0015998	0.0062345	3.74e-05
288.15	0.0019961	0.0062111	3.73e-05
288.15	0.0024877	0.0061903	3.71e-05
288.15	0.0031073	0.0061641	3.7e-05
288.15	0.0038322	0.0061285	3.68e-05
288.15	0.0049503	0.0060844	3.65e-05
293.15	0.00021356	0.0072326	4.34e-05
293.15	0.00046495	0.0071822	4.31e-05
293.15	0.00073344	0.0071494	4.29e-05
293.15	0.0009986	0.0071215	4.27e-05
293.15	0.0012993	0.0070887	4.25e-05
293.15	0.0015998	0.0070641	4.24e-05
293.15	0.0019961	0.0070368	4.22e-05
293.15	0.0024877	0.0070103	4.21e-05
293.15	0.0031073	0.0069781	4.19e-05
293.15	0.0038322	0.0069454	4.17e-05
293.15	0.0049503	0.0068955	4.14e-05
298.15	0.00021356	0.0081199	4.87e-05
298.15	0.00046495	0.0080634	4.84e-05
298.15	0.00073344	0.0080269	4.82e-05
298.15	0.0009986	0.007986	4.79e-05
298.15	0.0012993	0.0079579	4.77e-05
298.15	0.0015998	0.0079333	4.76e-05
298.15	0.0019961	0.0079014	4.74e-05
298.15	0.0024877	0.0078718	4.72e-05
298.15	0.0031073	0.0078112	4.69e-05
298.15	0.0038322	0.007796	4.68e-05
298.15	0.0049503	0.0077422	4.65e-05
303.15	0.00021356	0.0090431	5.43e-05
303.15	0.00046495	0.008982	5.39e-05
303.15	0.00073344	0.0089399	5.36e-05
303.15	0.0009986	0.0088913	5.33e-05
303.15	0.0012993	0.00886	5.32e-05
303.15	0.0015998	0.0088369	5.3e-05
303.15	0.0019961	0.0088007	5.28e-05
303.15	0.0024877	0.0087696	5.26e-05
303.15	0.0031073	0.0087059	5.22e-05
303.15	0.0038322	0.0086834	5.21e-05
303.15	0.0049503	0.0086228	5.17e-05
308.15	0.00021356	0.0100015	6e-05
308.15	0.00046495	0.0099365	5.96e-05
308.15	0.00073344	0.0098811	5.93e-05
308.15	0.0009986	0.0098295	5.9e-05
308.15	0.0012993	0.0098015	5.88e-05
308.15	0.0015998	0.0097705	5.86e-05
308.15	0.0019961	0.0097328	5.84e-05
308.15	0.0024877	0.0096628	5.8e-05
308.15	0.0031073	0.0096249	5.77e-05
308.15	0.0038322	0.0095975	5.76e-05
308.15	0.0049503	0.009539	5.72e-05
313.15	0.00021356	0.010983	6.59e-05
313.15	0.00046495	0.010912	6.55e-05
313.15	0.00073344	0.0108521	6.51e-05
313.15	0.0009986	0.0108022	6.48e-05
313.15	0.0012993	0.0107804	6.47e-05
313.15	0.0015998	0.0107313	6.44e-05
313.15	0.0019961	0.0107068	6.42e-05
313.15	0.0024877	0.0106301	6.38e-05
313.15	0.0031073	0.0105913	6.35e-05
313.15	0.0038322	0.0105454	6.33e-05
313.15	0.0049503	0.0104828	6.29e-05
