Measured thermophysical data. Reference Viscosities of Gaseous Methane and Hydrogen Sulfide at Low Density in the Temperature Range from (292 to 682) K
Source: J. Chem. Eng. Data, 2011, 10.1021/je200371n
Compound 1: methane, CH4, InChI=1S/CH4/h1H4, purity 99.9995%
Compound 2: hydrogen sulfide, H2S, InChI=1S/H2S/h1H2, purity 99.5%

System: methane; phases: Gas
Property: Viscosity, Pa*s (Gas); method: OSDISK:UFactor:0.5
Mass density, kg/m3	Temperature, K	Viscosity, Pa*s	uncertainty
0.344	291.93	1.0886e-05	2.33e-07
0.344	292.96	1.0921e-05	2.33e-07
0.344	297.08	1.1057e-05	2.34e-07
0.344	323.86	1.1909e-05	2.42e-07
0.344	350.55	1.2729e-05	2.55e-07
0.344	378.15	1.3556e-05	2.62e-07
0.344	405.88	1.4358e-05	2.69e-07
0.344	433.83	1.5142e-05	2.81e-07
0.344	461.85	1.5906e-05	2.88e-07
0.344	490.13	1.6656e-05	2.95e-07
0.344	518.83	1.7391e-05	3.01e-07
0.344	542.6	1.799e-05	3.12e-07
0.344	565.38	1.8557e-05	3.17e-07
0.344	594.08	1.9254e-05	3.23e-07
0.344	623.33	1.9947e-05	3.3e-07
0.344	652.41	2.062e-05	3.41e-07
0.344	682.14	2.1303e-05	3.47e-07
0.498	289.05	1.0813e-05	2.32e-07
0.498	290.41	1.0833e-05	2.33e-07
0.498	296.43	1.1029e-05	2.34e-07
0.498	296.57	1.1048e-05	2.34e-07
0.498	323.43	1.1886e-05	2.42e-07
0.498	350.64	1.2725e-05	2.55e-07
0.498	378.25	1.3552e-05	2.62e-07
0.498	406.03	1.436e-05	2.69e-07
0.498	434.02	1.5141e-05	2.81e-07
0.498	461.75	1.5901e-05	2.88e-07
0.498	490.15	1.6649e-05	2.95e-07
0.498	518.8	1.7403e-05	3.01e-07
0.498	542.36	1.7981e-05	3.12e-07
0.498	565.1	1.8544e-05	3.23e-07
0.498	593.84	1.9239e-05	3.23e-07
0.498	623.05	1.9934e-05	3.39e-07
0.498	652.07	2.0605e-05	3.55e-07
0.498	681.93	2.1273e-05	3.47e-07

System: hydrogen sulfide; phases: Gas
Fixed: Mass density, kg/m3 = 0.74
Property: Viscosity, Pa*s (Gas); method: OSDISK:UFactor:0.5
Temperature, K	Viscosity, Pa*s	uncertainty
291.61	1.1856e-05	3.42e-07
292.3	1.1863e-05	3.42e-07
292.46	1.1866e-05	3.42e-07
292.77	1.188e-05	3.42e-07
296.89	1.2069e-05	3.43e-07
297.01	1.2059e-05	3.43e-07
323.94	1.3186e-05	3.5e-07
323.96	1.3181e-05	3.5e-07
350.47	1.4287e-05	3.73e-07
350.59	1.4296e-05	3.73e-07
378.01	1.543e-05	3.81e-07
378.19	1.5443e-05	3.81e-07
405.76	1.6562e-05	3.88e-07
405.86	1.6574e-05	3.88e-07
433.66	1.7693e-05	4.11e-07
433.81	1.77e-05	4.11e-07
461.72	1.8808e-05	4.19e-07
461.92	1.8818e-05	4.19e-07
490.09	1.9926e-05	4.27e-07
490.2	1.992e-05	4.27e-07
518.68	2.1004e-05	4.34e-07
518.75	2.1005e-05	4.34e-07
542.48	2.1901e-05	4.56e-07
542.61	2.1901e-05	4.56e-07
565.19	2.2737e-05	4.61e-07
565.29	2.275e-05	4.62e-07
593.95	2.3789e-05	4.69e-07
594.02	2.3794e-05	4.69e-07
623.07	2.4816e-05	4.77e-07
623.19	2.4822e-05	4.77e-07
652.3	2.5835e-05	4.99e-07
652.32	2.5845e-05	4.99e-07
681.36	2.6824e-05	5.06e-07
682.03	2.6842e-05	5.06e-07
