Measured thermophysical data. Partial Molar Volumes and Partial Molar Isentropic Compressions of Three Polyhydric Alcohols Derived from Propane at Infinite Dilution in Water at Temperatures T = (278 to 318) K and Atmospheric Pressure
Source: J. Chem. Eng. Data, 2012, 10.1021/je201184b
Compound 1: 1,2-propanediol, C3H8O2, InChI=1S/C3H8O2/c1-3(5)2-4/h3-5H,2H2,1H3, purity 99.5%
Compound 2: water, H2O, InChI=1S/H2O/h1H2, purity 99.99%
Compound 3: propan-1,3-diol, C3H8O2, InChI=1S/C3H8O2/c4-2-1-3-5/h4-5H,1-3H2, purity 99.6%
Compound 4: glycerol, C3H8O3, InChI=1S/C3H8O3/c4-1-3(6)2-5/h3-6H,1-2H2, purity 99%

System: 1,2-propanediol + water; phases: Liquid
Fixed: Pressure, kPa = 101
Property: Speed of sound, m/s (Liquid); method: Sing-around technique in a fixed-path interferometer
Temperature, K	Molality, mol/kg of 1,2-propanediol	Speed of sound, m/s	uncertainty
278.15	0.099682	6.05	0.19
278.15	0.200214	12.07	0.19
278.15	0.300185	18.01	0.2
278.15	0.400656	23.9	0.2
278.15	0.500575	29.7	0.21
278.15	0.600207	35.46	0.21
278.15	0.099682	5.99	0.19
278.15	0.200214	12.03	0.19
278.15	0.300185	17.97	0.2
278.15	0.400656	23.9	0.2
278.15	0.500575	29.69	0.21
278.15	0.600207	35.49	0.21
278.15	0.099682	6.03	0.19
278.15	0.200214	12.07	0.19
278.15	0.300185	18.01	0.2
278.15	0.400656	23.93	0.2
278.15	0.500575	29.74	0.21
278.15	0.600207	35.5	0.21
283.15	0.099682	5.58	0.19
283.15	0.200214	11.13	0.19
283.15	0.300185	16.58	0.2
283.15	0.400656	22.03	0.2
283.15	0.500575	27.39	0.21
283.15	0.600207	32.71	0.21
283.15	0.099682	5.56	0.19
283.15	0.200214	11.11	0.19
283.15	0.300185	16.57	0.2
283.15	0.400656	22.03	0.2
283.15	0.500575	27.39	0.21
283.15	0.600207	32.68	0.21
283.15	0.099682	5.56	0.19
283.15	0.200214	11.11	0.19
283.15	0.300185	16.59	0.2
283.15	0.400656	22.03	0.2
283.15	0.500575	27.4	0.21
283.15	0.600207	32.69	0.21
288.15	0.099682	5.16	0.19
288.15	0.200214	10.3	0.19
288.15	0.300185	15.36	0.2
288.15	0.400656	20.39	0.2
288.15	0.500575	25.29	0.21
288.15	0.600207	30.16	0.21
288.15	0.099682	5.17	0.19
288.15	0.200214	10.29	0.19
288.15	0.300185	15.33	0.2
288.15	0.400656	20.35	0.2
288.15	0.500575	25.34	0.21
288.15	0.600207	30.22	0.21
288.15	0.200214	10.32	0.19
288.15	0.300185	15.34	0.2
288.15	0.400656	20.37	0.2
288.15	0.500575	25.3	0.21
288.15	0.600207	30.18	0.21
293.15	0.099682	4.77	0.19
293.15	0.200214	9.52	0.19
293.15	0.300185	14.18	0.2
293.15	0.400656	18.8	0.2
293.15	0.500575	23.39	0.2
293.15	0.600207	27.9	0.21
293.15	0.099682	4.77	0.19
293.15	0.200214	9.5	0.19
293.15	0.300185	14.21	0.2
293.15	0.400656	18.82	0.2
293.15	0.500575	23.43	0.2
293.15	0.600207	27.91	0.21
293.15	0.099682	4.73	0.19
293.15	0.200214	9.49	0.19
293.15	0.300185	14.2	0.2
293.15	0.400656	18.87	0.2
293.15	0.500575	23.42	0.2
293.15	0.600207	27.94	0.21
298.15	0.099682	4.36	0.21
298.15	0.200214	8.77	0.22
298.15	0.300185	13.11	0.22
298.15	0.400656	17.42	0.22
298.15	0.500575	21.64	0.23
298.15	0.600207	25.79	0.23
298.15	0.099682	4.45	0.21
298.15	0.200214	8.85	0.22
298.15	0.300185	13.2	0.22
298.15	0.400656	17.5	0.22
298.15	0.500575	21.72	0.23
298.15	0.600207	25.75	0.23
298.15	0.200214	8.77	0.22
298.15	0.300185	13.1	0.22
298.15	0.400656	17.4	0.22
298.15	0.500575	21.6	0.23
298.15	0.600207	25.88	0.23
318.15	0.099682	3.04	0.44
318.15	0.200214	6.3	0.44
318.15	0.300185	9.52	0.44
318.15	0.400656	12.67	0.44
318.15	0.500575	15.75	0.44
318.15	0.600207	18.77	0.44
318.15	0.099682	3.12	0.44
318.15	0.200214	6.38	0.44
318.15	0.300185	9.6	0.44
318.15	0.400656	12.66	0.44
318.15	0.500575	15.8	0.44
318.15	0.600207	18.81	0.44
318.15	0.099682	3.2	0.44
318.15	0.200214	6.44	0.44
318.15	0.300185	9.53	0.44
318.15	0.400656	12.73	0.44
318.15	0.500575	15.78	0.44
318.15	0.600207	18.8	0.44

System: 1,2-propanediol + water; phases: Liquid
Fixed: Pressure, kPa = 101
Property: Mass density, kg/m3 (Liquid); method: Vibrating tube method
Temperature, K	Molality, mol/kg of 1,2-propanediol	Mass density, kg/m3	uncertainty
278.15	0.099682	0.563	0.032
278.15	0.200214	1.138	0.032
278.15	0.300185	1.714	0.033
278.15	0.400656	2.296	0.033
278.15	0.500575	2.878	0.034
278.15	0.600207	3.462	0.034
278.15	0.099682	0.562	0.032
278.15	0.200214	1.136	0.032
278.15	0.300185	1.713	0.033
278.15	0.400656	2.296	0.033
278.15	0.500575	2.879	0.034
278.15	0.600207	3.464	0.034
278.15	0.099682	0.562	0.032
278.15	0.200214	1.136	0.032
278.15	0.300185	1.712	0.033
278.15	0.400656	2.296	0.033
278.15	0.500575	2.879	0.034
278.15	0.600207	3.463	0.034
283.15	0.099682	0.545	0.032
283.15	0.200214	1.1	0.032
283.15	0.300185	1.657	0.033
283.15	0.400656	2.218	0.033
283.15	0.500575	2.779	0.034
283.15	0.600207	3.341	0.034
283.15	0.099682	0.546	0.032
283.15	0.200214	1.101	0.032
283.15	0.300185	1.657	0.033
283.15	0.400656	2.219	0.033
283.15	0.500575	2.781	0.034
283.15	0.600207	3.342	0.034
283.15	0.099682	0.547	0.032
283.15	0.200214	1.102	0.032
283.15	0.300185	1.657	0.033
283.15	0.400656	2.219	0.033
283.15	0.500575	2.781	0.034
283.15	0.600207	3.342	0.034
288.15	0.099682	0.532	0.032
288.15	0.200214	1.071	0.032
288.15	0.300185	1.609	0.033
288.15	0.400656	2.152	0.033
288.15	0.500575	2.694	0.034
288.15	0.600207	3.235	0.034
288.15	0.099682	0.533	0.032
288.15	0.200214	1.072	0.032
288.15	0.300185	1.61	0.033
288.15	0.400656	2.153	0.033
288.15	0.500575	2.696	0.034
288.15	0.600207	3.237	0.034
288.15	0.200214	1.072	0.032
288.15	0.300185	1.611	0.033
288.15	0.400656	2.154	0.033
288.15	0.500575	2.696	0.034
288.15	0.600207	3.239	0.034
293.15	0.099682	0.518	0.032
293.15	0.200214	1.043	0.032
293.15	0.300185	1.567	0.033
293.15	0.400656	2.094	0.033
293.15	0.500575	2.62	0.033
293.15	0.600207	3.142	0.034
293.15	0.099682	0.519	0.032
293.15	0.200214	1.045	0.032
293.15	0.300185	1.568	0.033
293.15	0.400656	2.095	0.033
293.15	0.500575	2.621	0.033
293.15	0.600207	3.143	0.034
293.15	0.099682	0.519	0.032
293.15	0.200214	1.046	0.032
293.15	0.300185	1.571	0.033
293.15	0.400656	2.095	0.033
293.15	0.500575	2.622	0.033
293.15	0.600207	3.143	0.034
298.15	0.099682	0.506	0.032
298.15	0.200214	1.017	0.032
298.15	0.300185	1.529	0.033
298.15	0.400656	2.04	0.033
298.15	0.500575	2.548	0.033
298.15	0.600207	3.058	0.034
298.15	0.099682	0.507	0.032
298.15	0.200214	1.019	0.032
298.15	0.300185	1.531	0.033
298.15	0.400656	2.041	0.033
298.15	0.500575	2.55	0.033
298.15	0.600207	3.06	0.034
298.15	0.200214	1.021	0.032
298.15	0.300185	1.534	0.033
298.15	0.400656	2.043	0.033
298.15	0.500575	2.552	0.033
298.15	0.600207	3.06	0.034
318.15	0.099682	0.461	0.032
318.15	0.200214	0.925	0.032
318.15	0.300185	1.385	0.032
318.15	0.400656	1.846	0.033
318.15	0.500575	2.303	0.033
318.15	0.600207	2.754	0.033
318.15	0.099682	0.464	0.032
318.15	0.200214	0.928	0.032
318.15	0.300185	1.388	0.032
318.15	0.400656	1.846	0.033
318.15	0.500575	2.303	0.033
318.15	0.600207	2.756	0.033
318.15	0.099682	0.464	0.032
318.15	0.200214	0.932	0.032
318.15	0.300185	1.39	0.032
318.15	0.400656	1.849	0.033
318.15	0.500575	2.304	0.033
318.15	0.600207	2.756	0.033

System: propan-1,3-diol + water; phases: Liquid
Fixed: Pressure, kPa = 101
Property: Speed of sound, m/s (Liquid); method: Sing-around technique in a fixed-path interferometer
Temperature, K	Molality, mol/kg of propan-1,3-diol	Speed of sound, m/s	uncertainty
278.15	0.099729	4.73	0.19
278.15	0.20064	9.47	0.19
278.15	0.299985	14.12	0.19
278.15	0.400516	18.8	0.2
278.15	0.499823	23.36	0.2
278.15	0.59948	27.91	0.21
278.15	0.099729	4.73	0.19
278.15	0.20064	9.47	0.19
278.15	0.299985	14.12	0.19
278.15	0.400516	18.81	0.2
278.15	0.499823	23.38	0.2
278.15	0.59948	27.9	0.21
278.15	0.099729	4.73	0.19
278.15	0.20064	9.48	0.19
278.15	0.299985	14.13	0.19
278.15	0.400516	18.83	0.2
278.15	0.499823	23.38	0.2
278.15	0.59948	27.91	0.21
283.15	0.099729	4.32	0.19
283.15	0.20064	8.67	0.19
283.15	0.299985	12.92	0.19
283.15	0.400516	17.19	0.2
283.15	0.499823	21.38	0.2
283.15	0.59948	25.56	0.21
283.15	0.099729	4.32	0.19
283.15	0.20064	8.69	0.19
283.15	0.299985	12.95	0.19
283.15	0.400516	17.21	0.2
283.15	0.499823	21.38	0.2
283.15	0.59948	25.55	0.21
283.15	0.099729	4.34	0.19
283.15	0.20064	8.67	0.19
283.15	0.299985	12.93	0.19
283.15	0.400516	17.2	0.2
283.15	0.499823	21.39	0.2
288.15	0.099729	4	0.19
288.15	0.20064	7.99	0.19
288.15	0.299985	11.9	0.19
288.15	0.400516	15.82	0.2
288.15	0.499823	19.63	0.2
288.15	0.59948	23.44	0.2
288.15	0.099729	3.99	0.19
288.15	0.20064	8	0.19
288.15	0.299985	11.95	0.19
288.15	0.400516	15.78	0.2
288.15	0.499823	19.61	0.2
288.15	0.59948	23.44	0.2
288.15	0.099729	4.04	0.19
288.15	0.20064	8.05	0.19
288.15	0.299985	11.9	0.19
288.15	0.400516	15.82	0.2
288.15	0.499823	19.64	0.2
288.15	0.59948	23.47	0.2
293.15	0.099729	3.66	0.19
293.15	0.20064	7.36	0.19
293.15	0.299985	10.99	0.19
293.15	0.400516	14.58	0.2
293.15	0.499823	18.05	0.2
293.15	0.59948	21.59	0.2
293.15	0.099729	3.7	0.19
293.15	0.20064	7.36	0.19
293.15	0.299985	10.95	0.19
293.15	0.400516	14.52	0.2
293.15	0.499823	18.09	0.2
293.15	0.59948	21.62	0.2
293.15	0.099729	3.67	0.19
293.15	0.20064	7.39	0.19
293.15	0.299985	10.95	0.19
293.15	0.400516	14.57	0.2
293.15	0.499823	18.1	0.2
293.15	0.59948	21.6	0.2
298.15	0.099729	3.36	0.21
298.15	0.20064	6.79	0.21
298.15	0.299985	10.12	0.22
298.15	0.400516	13.45	0.22
298.15	0.499823	16.7	0.22
298.15	0.59948	19.93	0.22
298.15	0.099729	3.38	0.21
298.15	0.20064	6.79	0.21
298.15	0.299985	10.12	0.22
298.15	0.400516	13.45	0.22
298.15	0.499823	16.72	0.22
298.15	0.59948	19.94	0.22
298.15	0.099729	3.38	0.21
298.15	0.20064	6.8	0.21
298.15	0.299985	10.12	0.22
298.15	0.400516	13.44	0.22
298.15	0.499823	16.71	0.22
298.15	0.59948	19.93	0.22
318.15	0.099729	2.41	0.44
318.15	0.20064	4.92	0.44
318.15	0.299985	7.28	0.44
318.15	0.400516	9.77	0.44
318.15	0.499823	12.05	0.44
318.15	0.59948	14.45	0.44
318.15	0.099729	2.47	0.44
318.15	0.20064	4.89	0.44
318.15	0.299985	7.38	0.44
318.15	0.400516	9.75	0.44
318.15	0.499823	12.12	0.44
318.15	0.59948	14.4	0.44
318.15	0.099729	2.44	0.44
318.15	0.299985	7.34	0.44
318.15	0.400516	9.77	0.44
318.15	0.499823	12.15	0.44
318.15	0.59948	14.43	0.44

System: propan-1,3-diol + water; phases: Liquid
Fixed: Pressure, kPa = 101
Property: Mass density, kg/m3 (Liquid); method: Vibrating tube method
Temperature, K	Molality, mol/kg of propan-1,3-diol	Mass density, kg/m3	uncertainty
278.15	0.099729	0.461	0.032
278.15	0.20064	0.93	0.032
278.15	0.299985	1.399	0.032
278.15	0.400516	1.882	0.033
278.15	0.499823	2.356	0.033
278.15	0.59948	2.839	0.034
278.15	0.099729	0.461	0.032
278.15	0.20064	0.933	0.032
278.15	0.299985	1.401	0.032
278.15	0.400516	1.883	0.033
278.15	0.499823	2.359	0.033
278.15	0.59948	2.841	0.034
278.15	0.099729	0.462	0.032
278.15	0.20064	0.933	0.032
278.15	0.299985	1.402	0.032
278.15	0.400516	1.884	0.033
278.15	0.499823	2.36	0.033
278.15	0.59948	2.843	0.034
283.15	0.099729	0.449	0.032
283.15	0.20064	0.912	0.032
283.15	0.299985	1.37	0.032
283.15	0.400516	1.835	0.033
283.15	0.499823	2.299	0.033
283.15	0.59948	2.771	0.034
283.15	0.099729	0.45	0.032
283.15	0.20064	0.913	0.032
283.15	0.299985	1.373	0.032
283.15	0.400516	1.837	0.033
283.15	0.499823	2.3	0.033
283.15	0.59948	2.773	0.034
283.15	0.099729	0.451	0.032
283.15	0.20064	0.914	0.032
283.15	0.299985	1.373	0.032
283.15	0.400516	1.838	0.033
283.15	0.499823	2.3	0.033
288.15	0.099729	0.443	0.032
288.15	0.20064	0.897	0.032
288.15	0.299985	1.346	0.032
288.15	0.400516	1.803	0.033
288.15	0.499823	2.251	0.033
288.15	0.59948	2.709	0.033
288.15	0.099729	0.444	0.032
288.15	0.20064	0.898	0.032
288.15	0.299985	1.347	0.032
288.15	0.400516	1.803	0.033
288.15	0.499823	2.254	0.033
288.15	0.59948	2.715	0.033
288.15	0.099729	0.446	0.032
288.15	0.20064	0.899	0.032
288.15	0.299985	1.347	0.032
288.15	0.400516	1.805	0.033
288.15	0.499823	2.255	0.033
288.15	0.59948	2.715	0.033
293.15	0.099729	0.438	0.032
293.15	0.20064	0.883	0.032
293.15	0.299985	1.323	0.032
293.15	0.400516	1.771	0.033
293.15	0.499823	2.212	0.033
293.15	0.59948	2.662	0.033
293.15	0.099729	0.438	0.032
293.15	0.20064	0.883	0.032
293.15	0.299985	1.325	0.032
293.15	0.400516	1.772	0.033
293.15	0.499823	2.213	0.033
293.15	0.59948	2.662	0.033
293.15	0.099729	0.439	0.032
293.15	0.20064	0.884	0.032
293.15	0.299985	1.325	0.032
293.15	0.400516	1.772	0.033
293.15	0.499823	2.215	0.033
293.15	0.59948	2.662	0.033
298.15	0.099729	0.434	0.032
298.15	0.20064	0.875	0.032
298.15	0.299985	1.305	0.032
298.15	0.400516	1.744	0.033
298.15	0.499823	2.18	0.033
298.15	0.59948	2.613	0.033
298.15	0.099729	0.435	0.032
298.15	0.20064	0.876	0.032
298.15	0.299985	1.305	0.032
298.15	0.400516	1.745	0.033
298.15	0.499823	2.18	0.033
298.15	0.59948	2.613	0.033
298.15	0.099729	0.436	0.032
298.15	0.20064	0.876	0.032
298.15	0.299985	1.306	0.032
298.15	0.400516	1.745	0.033
298.15	0.499823	2.183	0.033
298.15	0.59948	2.614	0.033
318.15	0.099729	0.416	0.032
318.15	0.20064	0.831	0.032
318.15	0.299985	1.24	0.032
318.15	0.400516	1.645	0.033
318.15	0.499823	2.059	0.033
318.15	0.59948	2.466	0.033
318.15	0.099729	0.416	0.032
318.15	0.20064	0.831	0.032
318.15	0.299985	1.241	0.032
318.15	0.400516	1.647	0.033
318.15	0.499823	2.059	0.033
318.15	0.59948	2.47	0.033
318.15	0.099729	0.418	0.032
318.15	0.299985	1.241	0.032
318.15	0.400516	1.659	0.033
318.15	0.499823	2.059	0.033
318.15	0.59948	2.47	0.033

System: glycerol + water; phases: Liquid
Fixed: Pressure, kPa = 101
Property: Speed of sound, m/s (Liquid); method: Sing-around technique in a fixed-path interferometer
Temperature, K	Molality, mol/kg of glycerol	Speed of sound, m/s	uncertainty
278.15	0.101109	4.83	0.19
278.15	0.199937	9.51	0.2
278.15	0.300303	14.25	0.2
278.15	0.39958	18.85	0.21
278.15	0.499583	23.5	0.22
278.15	0.599054	28.03	0.23
278.15	0.101109	4.82	0.19
278.15	0.199937	9.49	0.2
278.15	0.300303	14.24	0.2
278.15	0.39958	18.87	0.21
278.15	0.499583	23.48	0.22
278.15	0.599054	28.01	0.23
278.15	0.101109	4.83	0.19
278.15	0.199937	9.5	0.2
278.15	0.300303	14.24	0.2
278.15	0.39958	18.87	0.21
278.15	0.499583	23.48	0.22
278.15	0.599054	28.01	0.23
283.15	0.101109	4.52	0.19
283.15	0.199937	8.91	0.2
283.15	0.300303	13.31	0.2
283.15	0.39958	17.65	0.21
283.15	0.499583	21.98	0.22
283.15	0.599054	26.22	0.22
283.15	0.101109	4.53	0.19
283.15	0.199937	8.9	0.2
283.15	0.300303	13.31	0.2
283.15	0.39958	17.65	0.21
283.15	0.499583	21.97	0.22
283.15	0.599054	26.22	0.22
283.15	0.101109	4.52	0.19
283.15	0.199937	8.91	0.2
283.15	0.300303	13.31	0.2
283.15	0.39958	17.65	0.21
283.15	0.499583	21.99	0.22
283.15	0.599054	26.22	0.22
288.15	0.101109	4.26	0.19
288.15	0.199937	8.4	0.2
288.15	0.300303	12.53	0.2
288.15	0.39958	16.58	0.21
288.15	0.499583	20.64	0.22
288.15	0.599054	24.64	0.22
288.15	0.101109	4.27	0.19
288.15	0.199937	8.4	0.2
288.15	0.300303	12.54	0.2
288.15	0.39958	16.6	0.21
288.15	0.499583	20.63	0.22
288.15	0.599054	24.62	0.22
288.15	0.101109	4.26	0.19
288.15	0.199937	8.39	0.2
288.15	0.300303	12.54	0.2
288.15	0.39958	16.6	0.21
288.15	0.499583	20.64	0.22
288.15	0.599054	24.64	0.22
293.15	0.101109	4	0.19
293.15	0.199937	7.88	0.2
293.15	0.300303	11.78	0.2
293.15	0.39958	15.6	0.21
293.15	0.499583	19.41	0.22
293.15	0.599054	23.17	0.22
293.15	0.101109	4	0.19
293.15	0.199937	7.88	0.2
293.15	0.300303	11.78	0.2
293.15	0.39958	15.6	0.21
293.15	0.499583	19.41	0.22
293.15	0.599054	23.15	0.22
293.15	0.101109	3.99	0.19
293.15	0.199937	7.88	0.2
293.15	0.300303	11.79	0.2
293.15	0.39958	15.6	0.21
293.15	0.499583	19.42	0.22
293.15	0.599054	23.17	0.22
298.15	0.101109	3.82	0.22
298.15	0.199937	7.36	0.22
298.15	0.300303	11.09	0.23
298.15	0.39958	14.69	0.23
298.15	0.499583	18.29	0.24
298.15	0.599054	21.81	0.24
298.15	0.101109	3.76	0.22
298.15	0.199937	7.42	0.22
298.15	0.300303	11.11	0.23
298.15	0.39958	14.72	0.23
298.15	0.499583	18.29	0.24
298.15	0.599054	21.76	0.24
298.15	0.101109	3.78	0.22
298.15	0.199937	7.43	0.22
298.15	0.300303	11.11	0.23
298.15	0.39958	14.71	0.23
298.15	0.499583	18.31	0.24
298.15	0.599054	21.84	0.24
318.15	0.101109	2.96	0.44
318.15	0.199937	5.92	0.44
318.15	0.300303	8.86	0.44
318.15	0.39958	11.76	0.45
318.15	0.499583	14.61	0.45
318.15	0.599054	17.53	0.45
318.15	0.101109	2.87	0.44
318.15	0.199937	5.81	0.44
318.15	0.300303	8.82	0.44
318.15	0.39958	11.72	0.45
318.15	0.499583	14.44	0.45
318.15	0.599054	17.44	0.45
318.15	0.101109	3.31	0.44
318.15	0.199937	5.94	0.44
318.15	0.300303	9.03	0.44
318.15	0.39958	11.93	0.45
318.15	0.599054	17.23	0.45

System: glycerol + water; phases: Liquid
Fixed: Pressure, kPa = 101
Property: Mass density, kg/m3 (Liquid); method: Vibrating tube method
Temperature, K	Molality, mol/kg of glycerol	Mass density, kg/m3	uncertainty
278.15	0.101109	2.26	0.04
278.15	0.199937	4.44	0.041
278.15	0.300303	6.63	0.042
278.15	0.39958	8.754	0.044
278.15	0.499583	10.884	0.045
278.15	0.599054	12.963	0.046
278.15	0.101109	2.262	0.04
278.15	0.199937	4.442	0.041
278.15	0.300303	6.634	0.042
278.15	0.39958	8.759	0.044
278.15	0.499583	10.885	0.045
278.15	0.599054	12.959	0.046
278.15	0.101109	2.263	0.039
278.15	0.199937	4.442	0.041
278.15	0.300303	6.635	0.042
278.15	0.39958	8.764	0.044
278.15	0.499583	10.89	0.045
278.15	0.599054	12.965	0.046
283.15	0.101109	2.223	0.039
283.15	0.199937	4.367	0.041
283.15	0.300303	6.512	0.042
283.15	0.39958	8.608	0.043
283.15	0.499583	10.697	0.045
283.15	0.599054	12.726	0.046
283.15	0.101109	2.226	0.039
283.15	0.199937	4.372	0.041
283.15	0.300303	6.517	0.042
283.15	0.39958	8.611	0.043
283.15	0.499583	10.694	0.045
283.15	0.599054	12.729	0.046
283.15	0.101109	2.225	0.039
283.15	0.199937	4.372	0.041
283.15	0.300303	6.517	0.042
283.15	0.39958	8.614	0.043
283.15	0.499583	10.701	0.045
283.15	0.599054	12.734	0.046
288.15	0.101109	2.189	0.039
288.15	0.199937	4.306	0.04
288.15	0.300303	6.422	0.042
288.15	0.39958	8.483	0.043
288.15	0.499583	10.533	0.044
288.15	0.599054	12.549	0.046
288.15	0.101109	2.194	0.039
288.15	0.199937	4.309	0.04
288.15	0.300303	6.425	0.042
288.15	0.39958	8.491	0.043
288.15	0.499583	10.535	0.044
288.15	0.599054	12.548	0.046
288.15	0.101109	2.194	0.039
288.15	0.199937	4.31	0.04
288.15	0.300303	6.426	0.042
288.15	0.39958	8.493	0.043
288.15	0.499583	10.538	0.044
288.15	0.599054	12.552	0.046
293.15	0.101109	2.163	0.039
293.15	0.199937	4.251	0.04
293.15	0.300303	6.339	0.042
293.15	0.39958	8.375	0.043
293.15	0.499583	10.399	0.044
293.15	0.599054	12.387	0.045
293.15	0.101109	2.163	0.039
293.15	0.199937	4.251	0.04
293.15	0.300303	6.341	0.042
293.15	0.39958	8.378	0.043
293.15	0.499583	10.402	0.044
293.15	0.599054	12.386	0.045
293.15	0.101109	2.162	0.039
293.15	0.199937	4.25	0.04
293.15	0.300303	6.344	0.042
293.15	0.39958	8.379	0.043
293.15	0.499583	10.403	0.044
293.15	0.599054	12.389	0.045
298.15	0.101109	2.136	0.039
298.15	0.199937	4.198	0.04
298.15	0.300303	6.265	0.041
298.15	0.39958	8.277	0.043
298.15	0.499583	10.282	0.044
298.15	0.599054	12.238	0.045
298.15	0.101109	2.143	0.039
298.15	0.199937	4.206	0.04
298.15	0.300303	6.273	0.041
298.15	0.39958	8.285	0.043
298.15	0.499583	10.286	0.044
298.15	0.599054	12.244	0.045
298.15	0.101109	2.141	0.039
298.15	0.199937	4.204	0.04
298.15	0.300303	6.273	0.041
298.15	0.39958	8.285	0.043
298.15	0.499583	10.287	0.044
298.15	0.599054	12.246	0.045
318.15	0.101109	2.07	0.038
318.15	0.199937	4.055	0.04
318.15	0.300303	6.059	0.041
318.15	0.39958	8.006	0.042
318.15	0.499583	9.949	0.043
318.15	0.599054	11.84	0.045
318.15	0.101109	2.073	0.038
318.15	0.199937	4.059	0.04
318.15	0.300303	6.058	0.041
318.15	0.39958	8.01	0.042
318.15	0.499583	9.952	0.043
318.15	0.599054	11.83	0.045
318.15	0.101109	2.065	0.038
318.15	0.199937	4.059	0.04
318.15	0.300303	6.061	0.041
318.15	0.39958	8.007	0.042
318.15	0.599054	11.846	0.045
