Measured thermophysical data. Thermophysical Study of 2-Thiobarbituric Acids by Differential  Scanning Calorimetry
Source: J. Chem. Eng. Data, 2012, 10.1021/je200420u
Compound 1: 2-mercapto-4,6-pyrimidinediol, C4H4N2O2S, InChI=1S/C4H4N2O2S/c7-2-1-3(8)6-4(9)5-2/h1H,(H3,5,6,7,8,9)
Compound 2: 1,3-diethyl-2-thiobarbituric acid, C8H12N2O2S, InChI=1S/C8H12N2O2S/c1-3-9-6(11)5-7(12)10(4-2)8(9)13/h3-5H2,1-2H3

System: 2-mercapto-4,6-pyrimidinediol; phases: Crystal 4, Crystal 3, Air at 1 atmosphere
Property: Molar enthalpy of transition or fusion, kJ/mol (Crystal 4); method: DSC
Molar enthalpy of transition or fusion, kJ/mol	uncertainty
0.7	0.2

System: 2-mercapto-4,6-pyrimidinediol; phases: Crystal 3, Crystal 2, Air at 1 atmosphere
Property: Molar enthalpy of transition or fusion, kJ/mol (Crystal 3); method: DSC
Molar enthalpy of transition or fusion, kJ/mol	uncertainty
0.2	0.4

System: 2-mercapto-4,6-pyrimidinediol; phases: Crystal 2, Crystal 1, Air at 1 atmosphere
Property: Molar enthalpy of transition or fusion, kJ/mol (Crystal 2); method: DSC
Molar enthalpy of transition or fusion, kJ/mol	uncertainty
0.3	0.2

System: 2-mercapto-4,6-pyrimidinediol; phases: Crystal 1, Liquid, Air at 1 atmosphere
Property: Molar enthalpy of transition or fusion, kJ/mol (Crystal 1); method: DSC
Molar enthalpy of transition or fusion, kJ/mol	uncertainty
14.8	1.8

System: 2-mercapto-4,6-pyrimidinediol; phases: Crystal 4, Crystal 3, Air at 1 atmosphere
Property: Triple point temperature, K (Crystal 4); method: DTA
Triple point temperature, K	uncertainty
447.2	1.4

System: 2-mercapto-4,6-pyrimidinediol; phases: Crystal 3, Crystal 2, Air at 1 atmosphere
Property: Triple point temperature, K (Crystal 3); method: DTA
Triple point temperature, K	uncertainty
475.8	2.4

System: 2-mercapto-4,6-pyrimidinediol; phases: Crystal 2, Crystal 1, Air at 1 atmosphere
Property: Triple point temperature, K (Crystal 2); method: DTA
Triple point temperature, K	uncertainty
498	1.3

System: 2-mercapto-4,6-pyrimidinediol; phases: Crystal 1, Liquid, Air at 1 atmosphere
Property: Triple point temperature, K (Crystal 1); method: DTA
Triple point temperature, K	uncertainty
516.4	0.4

System: 2-mercapto-4,6-pyrimidinediol; phases: Crystal 4
Fixed: Pressure, kPa = 101.325
Property: Molar heat capacity at constant pressure, J/K/mol (Crystal 4); method: Small sample (50 mg) DSC
Temperature, K	Molar heat capacity at constant pressure, J/K/mol	uncertainty
265.15	124.3	4.8
270.15	126.6	5.3
273.15	128	5.6
275.15	128.8	5.6
280.15	131.1	5.8
285.15	132.5	5.2
290.15	134.2	5.6
295.15	136.2	5.9
298.15	137.2	6
300.15	138.6	5.5
305.15	140	6.2
310.15	142.2	6.4
315.15	144.7	5.1
320.15	146.3	5.4
325.15	147.9	4.7
330.15	150.1	4.4
335.15	152	4.5
340.15	153.8	4.7
345.15	155.2	5
350.15	156.6	4.8
355.15	158.4	4.8
360.15	160.2	4.6
365.15	162.6	4.1
370.15	164.7	4.2
375.15	166	4.6
380.15	167.7	5
385.15	169.2	5.2
390.15	171	5.3
395.15	172.3	5
400.15	174.8	5
405.15	175.9	5
410.15	177.2	5.2
415.15	178.5	5.1
420.15	179.8	4.6
425.15	181.3	4.2
430.15	182.9	4.1

System: 1,3-diethyl-2-thiobarbituric acid; phases: Crystal, Liquid, Air at 1 atmosphere
Property: Molar enthalpy of transition or fusion, kJ/mol (Crystal); method: DSC
Molar enthalpy of transition or fusion, kJ/mol	uncertainty
35.5	1.2

System: 1,3-diethyl-2-thiobarbituric acid; phases: Crystal, Liquid, Air at 1 atmosphere
Property: Triple point temperature, K (Crystal); method: DTA
Triple point temperature, K	uncertainty
377.1	0.5

System: 1,3-diethyl-2-thiobarbituric acid; phases: Crystal 4
Fixed: Pressure, kPa = 101.325
Property: Molar heat capacity at constant pressure, J/K/mol (Crystal 4); method: Small sample (50 mg) DSC
Temperature, K	Molar heat capacity at constant pressure, J/K/mol	uncertainty
265.15	213.5	4
270.15	217.3	4
273.15	219.8	3.9
275.15	221.2	4
280.15	224.5	3.8
285.15	227.7	3.8
290.15	230.4	3.9
295.15	233.7	4.1
298.15	236.9	4
300.15	238.9	4.6
305.15	240.8	4.3
310.15	244.8	4.8
315.15	249.8	5.8
320.15	252.9	6.1
325.15	256.1	8.1
330.15	259.7	8.4
335.15	263.1	8.6
340.15	266.5	8.8
345.15	269.7	8.5
350.15	273.3	9.2
355.15	277.8	9.3
360.15	282.3	9.8
365.15	287.2	10.1
