Measured thermophysical data. High-Pressure Phase Behavior of Methyl Lactate and Ethyl Lactate  in Supercritical Carbon Dioxide
Source: J. Chem. Eng. Data, 2011, 10.1021/je200299s
Compound 1: methyl 2-hydroxypropanoate, C4H8O3, InChI=1S/C4H8O3/c1-3(5)4(6)7-2/h3,5H,1-2H3, purity 97%
Compound 2: DL-ethyl lactate, C5H10O3, InChI=1S/C5H10O3/c1-3-8-5(7)4(2)6/h4,6H,3H2,1-2H3, purity 98%
Compound 3: carbon dioxide, CO2, InChI=1S/CO2/c2-1-3, purity 99.999%

System: carbon dioxide + methyl 2-hydroxypropanoate; phases: Liquid, Gas
Property: Critical pressure, kPa (Liquid); method: Direct measurement
Mole fraction of carbon dioxide	Critical pressure, kPa	uncertainty
0.85	13520	600
0.85	14880	600
0.878	12230	600
0.929	10730	600
0.954	9260	600

System: carbon dioxide + methyl 2-hydroxypropanoate; phases: Liquid, Gas
Property: Critical temperature, K (Liquid); method: Visual observation in a stirred cell
Mole fraction of carbon dioxide	Critical temperature, K	uncertainty
0.85	353.2	0.2
0.85	363.2	0.2
0.878	343.2	0.2
0.929	333.2	0.2
0.954	323.2	0.2

System: carbon dioxide + methyl 2-hydroxypropanoate; phases: Liquid, Gas
Property: Vapor or sublimation pressure, kPa (Liquid); method: Closed cell (Static) method
Temperature, K	Mole fraction of carbon dioxide	Vapor or sublimation pressure, kPa	uncertainty
323.2	0.437	5630	600
323.2	0.534	6510	600
323.2	0.584	6990	600
323.2	0.627	7400	600
323.2	0.694	7950	600
323.2	0.747	8330	600
323.2	0.771	8500	600
323.2	0.819	8930	600
323.2	0.85	8950	600
323.2	0.878	9080	600
323.2	0.901	9080	600
323.2	0.929	9210	600
333.2	0.437	6380	600
333.2	0.534	7450	600
333.2	0.584	8090	600
333.2	0.627	8590	600
333.2	0.694	9250	600
333.2	0.747	9690	600
333.2	0.771	9970	600
333.2	0.819	10420	600
333.2	0.85	10490	600
333.2	0.878	10680	600
333.2	0.901	10670	600
343.2	0.437	7140	600
343.2	0.534	8410	600
343.2	0.584	9190	600
343.2	0.627	9760	600
343.2	0.694	10600	600
343.2	0.747	11140	600
343.2	0.771	11470	600
343.2	0.819	11990	600
343.2	0.85	12110	600
353.2	0.437	7860	600
353.2	0.534	9380	600
353.2	0.584	10250	600
353.2	0.627	10930	600
353.2	0.694	11910	600
353.2	0.747	12580	600
353.2	0.771	12950	600
353.2	0.819	13490	600
363.2	0.437	8620	600
363.2	0.534	10400	600
363.2	0.584	11290	600
363.2	0.627	12120	600
363.2	0.694	13240	600
363.2	0.747	13960	600
363.2	0.771	14380	600
363.2	0.819	14860	600

System: carbon dioxide + methyl 2-hydroxypropanoate; phases: Gas, Liquid
Property: Vapor or sublimation pressure, kPa (Gas); method: Closed cell (Static) method
Temperature, K	Mole fraction of carbon dioxide	Vapor or sublimation pressure, kPa	uncertainty
333.2	0.954	10720	600
343.2	0.901	12220	600
343.2	0.929	12190	600
343.2	0.954	12060	600
353.2	0.878	13700	600
353.2	0.901	13530	600
353.2	0.929	13550	600
353.2	0.954	13160	600
363.2	0.878	14960	600
363.2	0.901	14740	600
363.2	0.929	14700	600
363.2	0.954	14030	600

System: DL-ethyl lactate + carbon dioxide; phases: Liquid, Gas
Property: Critical pressure, kPa (Liquid); method: Direct measurement
Mole fraction of carbon dioxide	Critical pressure, kPa	uncertainty
0.88	13200	600
0.88	14440	600
0.911	10530	600
0.911	11990	600
0.956	9510	600

System: DL-ethyl lactate + carbon dioxide; phases: Liquid, Gas
Property: Critical temperature, K (Liquid); method: Visual observation in a stirred cell
Mole fraction of carbon dioxide	Critical temperature, K	uncertainty
0.88	353.2	0.2
0.88	363.2	0.2
0.911	333.2	0.2
0.911	343.2	0.2
0.956	323.2	0.2

System: DL-ethyl lactate + carbon dioxide; phases: Liquid, Gas
Property: Vapor or sublimation pressure, kPa (Liquid); method: Closed cell (Static) method
Temperature, K	Mole fraction of carbon dioxide	Vapor or sublimation pressure, kPa	uncertainty
323.2	0.415	4540	600
323.2	0.474	5030	600
323.2	0.521	5620	600
323.2	0.566	5950	600
323.2	0.625	6750	600
323.2	0.664	7000	600
323.2	0.7	7450	600
323.2	0.73	7700	600
323.2	0.784	8220	600
323.2	0.831	8470	600
323.2	0.88	8750	600
323.2	0.911	9030	600
323.2	0.934	9200	600
333.2	0.415	5170	600
333.2	0.474	5730	600
333.2	0.521	6410	600
333.2	0.566	6860	600
333.2	0.625	7820	600
333.2	0.664	8120	600
333.2	0.7	8620	600
333.2	0.73	8930	600
333.2	0.784	9550	600
333.2	0.831	9940	600
333.2	0.88	10260	600
343.2	0.415	5740	600
343.2	0.474	6460	600
343.2	0.521	7230	600
343.2	0.566	7760	600
343.2	0.625	8820	600
343.2	0.664	9230	600
343.2	0.7	9840	600
343.2	0.73	10230	600
343.2	0.784	10970	600
343.2	0.831	11400	600
343.2	0.88	11800	600
353.2	0.415	6310	600
353.2	0.474	7120	600
353.2	0.521	8010	600
353.2	0.566	8680	600
353.2	0.625	9800	600
353.2	0.664	10350	600
353.2	0.7	11030	600
353.2	0.73	11540	600
353.2	0.784	12350	600
353.2	0.831	12810	600
363.2	0.415	6910	600
363.2	0.474	7720	600
363.2	0.521	8840	600
363.2	0.566	9550	600
363.2	0.625	10810	600
363.2	0.664	11440	600
363.2	0.7	12230	600
363.2	0.73	12640	600
363.2	0.784	13670	600
363.2	0.831	14140	600

System: DL-ethyl lactate + carbon dioxide; phases: Gas, Liquid
Property: Vapor or sublimation pressure, kPa (Gas); method: Closed cell (Static) method
Temperature, K	Mole fraction of carbon dioxide	Vapor or sublimation pressure, kPa	uncertainty
333.2	0.934	10620	600
333.2	0.956	10860	600
343.2	0.934	12020	600
343.2	0.956	12170	600
353.2	0.911	13290	600
353.2	0.934	13300	600
353.2	0.956	13270	600
363.2	0.911	14450	600
363.2	0.934	14430	600
363.2	0.956	14200	600
