Measured thermophysical data. Effect of Base Acid Properties of the Mixture of Water with Propan-1-ol on the Solution Enthalpy of Cyclic Ethers in This Mixture at T = 298.15 K
Source: J. Chem. Eng. Data, 2011, 10.1021/je200695y
Compound 1: 1,4-dioxane, C4H8O2, InChI=1S/C4H8O2/c1-2-6-4-3-5-1/h1-4H2
Compound 2: 1,4,7,10-tetraoxacyclododecane, C8H16O4, InChI=1S/C8H16O4/c1-2-10-5-6-12-8-7-11-4-3-9-1/h1-8H2
Compound 3: 1,4,7,10,13,16-hexaoxacyclooctadecane, C12H24O6, InChI=1S/C12H24O6/c1-2-14-5-6-16-9-10-18-12-11-17-8-7-15-4-3-13-1/h1-12H2
Compound 4: propan-1-ol, C3H8O, InChI=1S/C3H8O/c1-2-3-4/h4H,2-3H2,1H3
Compound 5: water, H2O, InChI=1S/H2O/h1H2

System: propan-1-ol + 1,4-dioxane + water; phases: Liquid
Fixed: Pressure, kPa = 101
Fixed: Temperature, K = 298.15
Fixed: Mole fraction of 1,4-dioxane = 0
Property: Molar enthalpy of solution, kJ/mol (Liquid); method: ISOPERIBOL
Solvent: Mole fraction of water	Molar enthalpy of solution, kJ/mol	uncertainty
0	7.65	0.09
0.1	5.95	0.07
0.2	4.64	0.06
0.3	3.67	0.05
0.4	3.09	0.04
0.5	2.63	0.03
0.6	2.16	0.03
0.7	1.62	0.02
0.8	0.87	0.01
0.9	-0.2	0.01
0.92	-1.02	0.01
0.94	-2.05	0.03
0.96	-3.25	0.04
0.98	-6.56	0.08
1	-9.7	0.12

System: propan-1-ol + 1,4,7,10-tetraoxacyclododecane + water; phases: Liquid
Fixed: Pressure, kPa = 101
Fixed: Temperature, K = 298.15
Fixed: Mole fraction of 1,4,7,10-tetraoxacyclododecane = 0
Property: Molar enthalpy of solution, kJ/mol (Liquid); method: ISOPERIBOL
Solvent: Mole fraction of water	Molar enthalpy of solution, kJ/mol	uncertainty
0	5.75	0.07
0.1	2.07	0.03
0.2	-1.06	0.01
0.3	-2.86	0.04
0.4	-4.23	0.05
0.5	-5.75	0.07
0.6	-6.75	0.08
0.7	-8.33	0.1
0.8	-10.53	0.13
0.9	-13.97	0.17
0.92	-14.94	0.18
0.94	-16.54	0.2
0.96	-20.63	0.25
0.98	-25.05	0.31
1	-28.98	0.35

System: propan-1-ol + water + 1,4,7,10,13,16-hexaoxacyclooctadecane; phases: Liquid
Fixed: Pressure, kPa = 101
Fixed: Temperature, K = 298.15
Fixed: Mole fraction of water = 0
Property: Molar enthalpy of solution, kJ/mol (Liquid); method: ISOPERIBOL
Solvent: Mole fraction of water	Molar enthalpy of solution, kJ/mol	uncertainty
0	45.5	0.56
0.1	29.64	0.36
0.2	21.82	0.27
0.3	16.9	0.21
0.4	13.73	0.17
0.5	11.46	0.14
0.6	9.9	0.12
0.7	7.48	0.09
0.8	4.15	0.05
0.9	-1.6	0.02
0.92	-3.45	0.04
0.94	-8.65	0.11
0.96	-15.6	0.19
0.98	-21.58	0.26
