Measured thermophysical data. Volumetric Properties of Highly Nonideal Binary Mixtures Containing Ethanoic Acid and Propanoic Acid with Butan-2-ol, Methyl-2-propanol, and 2-Methyl-2-butanol at Different Temperatures
Source: J. Chem. Eng. Data, 2012, 10.1021/je201102x
Compound 1: acetic acid, C2H4O2, InChI=1S/C2H4O2/c1-2(3)4/h1H3,(H,3,4), purity 99.8%
Compound 2: propanoic acid, C3H6O2, InChI=1S/C3H6O2/c1-2-3(4)5/h2H2,1H3,(H,4,5), purity 99.5%
Compound 3: butan-2-ol, C4H10O, InChI=1S/C4H10O/c1-3-4(2)5/h4-5H,3H2,1-2H3, purity 99%
Compound 4: 2-methyl-1-propanol, C4H10O, InChI=1S/C4H10O/c1-4(2)3-5/h4-5H,3H2,1-2H3, purity 99%
Compound 5: 2-methylbutan-2-ol, C5H12O, InChI=1S/C5H12O/c1-4-5(2,3)6/h6H,4H2,1-3H3, purity 99.5%

System: acetic acid; phases: Liquid
Property: Refractive index (Na D-line) (Liquid); method: Standard Abbe refractometry
Temperature, K	Pressure, kPa	Refractive index (Na D-line)	uncertainty
293.15	101.325	1.3687	0.0008

System: acetic acid; phases: Liquid
Fixed: Pressure, kPa = 101.325
Property: Mass density, kg/m3 (Liquid); method: Vibrating tube method
Temperature, K	Mass density, kg/m3	uncertainty
293.15	1049.31	0.08
298.15	1043.65	0.08
303.15	1037.99	0.07
313.15	1026.68	0.07
323.15	1015.36	0.07
333.15	1004.01	0.07

System: propanoic acid; phases: Liquid
Property: Refractive index (Na D-line) (Liquid); method: Standard Abbe refractometry
Temperature, K	Pressure, kPa	Refractive index (Na D-line)	uncertainty
293.15	101.325	1.3835	0.0008

System: propanoic acid; phases: Liquid
Fixed: Pressure, kPa = 101.325
Property: Mass density, kg/m3 (Liquid); method: Vibrating tube method
Temperature, K	Mass density, kg/m3	uncertainty
293.15	993.56	0.09
298.15	988.15	0.1
303.15	982.75	0.1
313.15	971.96	0.1
323.15	961.16	0.11
333.15	950.35	0.11

System: butan-2-ol; phases: Liquid
Property: Refractive index (Na D-line) (Liquid); method: Standard Abbe refractometry
Temperature, K	Pressure, kPa	Refractive index (Na D-line)	uncertainty
293.15	101.325	1.3943	0.0008

System: butan-2-ol; phases: Liquid
Fixed: Pressure, kPa = 101.325
Property: Mass density, kg/m3 (Liquid); method: Vibrating tube method
Temperature, K	Mass density, kg/m3	uncertainty
293.15	806.75	0.24
298.15	802.62	0.24
303.15	798.43	0.24
313.15	789.75	0.24
323.15	780.65	0.24
333.15	771.1	0.24

System: 2-methyl-1-propanol; phases: Liquid
Property: Refractive index (Na D-line) (Liquid); method: Standard Abbe refractometry
Temperature, K	Pressure, kPa	Refractive index (Na D-line)	uncertainty
293.15	101.325	1.3929	0.0008

System: 2-methyl-1-propanol; phases: Liquid
Fixed: Pressure, kPa = 101.325
Property: Mass density, kg/m3 (Liquid); method: Vibrating tube method
Temperature, K	Mass density, kg/m3	uncertainty
293.15	801.99	0.24
298.15	798.13	0.24
303.15	794.24	0.24
313.15	786.28	0.24
323.15	778.09	0.24
333.15	769.6	0.24

System: 2-methylbutan-2-ol; phases: Liquid
Property: Refractive index (Na D-line) (Liquid); method: Standard Abbe refractometry
Temperature, K	Pressure, kPa	Refractive index (Na D-line)	uncertainty
293.15	101.325	1.4016	0.0008

System: 2-methylbutan-2-ol; phases: Liquid
Fixed: Pressure, kPa = 101.325
Property: Mass density, kg/m3 (Liquid); method: Vibrating tube method
Temperature, K	Mass density, kg/m3	uncertainty
293.15	808.98	0.14
298.15	804.39	0.15
303.15	799.75	0.15
313.15	790.27	0.15
323.15	780.46	0.16
333.15	770.27	0.16

System: acetic acid + butan-2-ol; phases: Liquid
Fixed: Pressure, kPa = 101
Property: Mass density, kg/m3 (Liquid); method: Vibrating tube method
Temperature, K	Mole fraction of acetic acid	Mass density, kg/m3	uncertainty
293.15	0.0822	819.04	0.22
293.15	0.1628	832.16	0.2
293.15	0.2395	845.65	0.19
293.15	0.321	861.12	0.17
293.15	0.3979	876.8	0.16
293.15	0.4759	893.89	0.14
293.15	0.5611	914	0.13
293.15	0.6399	934.04	0.11
293.15	0.7197	955.97	0.1
293.15	0.8003	980.06	0.09
293.15	0.8796	1005.8	0.09
293.15	0.9365	1025.67	0.09
293.15	0.9586	1033.71	0.09
298.15	0.0822	814.82	0.22
298.15	0.1628	827.83	0.2
298.15	0.2395	841.23	0.19
298.15	0.321	856.58	0.17
298.15	0.3979	872.17	0.16
298.15	0.4759	889.16	0.14
298.15	0.5611	909.12	0.13
298.15	0.6399	929.04	0.11
298.15	0.7197	950.84	0.1
298.15	0.8003	974.78	0.09
298.15	0.8796	1000.35	0.09
298.15	0.9365	1020.12	0.09
298.15	0.9586	1028.12	0.09
303.15	0.0822	810.53	0.22
303.15	0.1628	823.44	0.2
303.15	0.2395	836.76	0.19
303.15	0.321	852	0.17
303.15	0.3979	867.49	0.16
303.15	0.4759	884.37	0.14
303.15	0.5611	904.22	0.13
303.15	0.6399	924.01	0.12
303.15	0.7197	945.68	0.1
303.15	0.8003	969.49	0.09
303.15	0.8796	994.91	0.09
303.15	0.9365	1014.58	0.09
303.15	0.9586	1022.54	0.09
313.15	0.0822	801.69	0.22
313.15	0.1628	814.46	0.21
313.15	0.2395	827.62	0.19
313.15	0.321	842.7	0.18
313.15	0.3979	858.02	0.16
313.15	0.4759	874.69	0.15
313.15	0.5611	894.32	0.13
313.15	0.6399	913.87	0.12
313.15	0.7197	935.3	0.11
313.15	0.8003	958.84	0.1
313.15	0.8796	983.99	0.09
313.15	0.9365	1003.46	0.09
313.15	0.9586	1011.36	0.09
323.15	0.0822	792.5	0.22
323.15	0.1628	805.17	0.21
323.15	0.2395	818.22	0.19
323.15	0.321	833.16	0.18
323.15	0.3979	848.33	0.16
323.15	0.4759	864.83	0.15
323.15	0.5611	884.26	0.13
323.15	0.6399	903.62	0.12
323.15	0.7197	924.81	0.11
323.15	0.8003	948.1	0.1
323.15	0.8796	973.01	0.09
323.15	0.9365	992.31	0.09
323.15	0.9586	1000.14	0.09
333.15	0.0822	782.93	0.22
333.15	0.1628	795.54	0.21
333.15	0.2395	808.51	0.19
333.15	0.321	823.36	0.18
333.15	0.3979	838.39	0.16
333.15	0.4759	854.77	0.15
333.15	0.5611	874	0.14
333.15	0.6399	893.19	0.12
333.15	0.7197	914.19	0.11
333.15	0.8003	937.26	0.1
333.15	0.8796	961.97	0.09
333.15	0.9365	981.11	0.09
333.15	0.9586	988.87	0.09

System: acetic acid + 2-methyl-1-propanol; phases: Liquid
Fixed: Pressure, kPa = 101
Property: Mass density, kg/m3 (Liquid); method: Vibrating tube method
Temperature, K	Mole fraction of acetic acid	Mass density, kg/m3	uncertainty
293.15	0.0813	814.94	0.22
293.15	0.1574	827.82	0.21
293.15	0.2405	842.93	0.19
293.15	0.319	858.14	0.17
293.15	0.4018	875.36	0.16
293.15	0.4803	892.9	0.14
293.15	0.5599	911.99	0.13
293.15	0.6396	932.48	0.11
293.15	0.7199	954.87	0.1
293.15	0.7998	979.04	0.09
293.15	0.8786	1004.98	0.09
293.15	0.9595	1033.93	0.09
298.15	0.0813	810.95	0.22
298.15	0.1574	823.71	0.21
298.15	0.2405	838.69	0.19
298.15	0.319	853.78	0.17
298.15	0.4018	870.87	0.16
298.15	0.4803	888.27	0.14
298.15	0.5599	907.22	0.13
298.15	0.6396	927.56	0.11
298.15	0.7199	949.79	0.1
298.15	0.7998	973.8	0.09
298.15	0.8786	999.57	0.09
298.15	0.9595	1028.35	0.09
303.15	0.0813	806.92	0.22
303.15	0.1574	819.56	0.21
303.15	0.2405	834.42	0.19
303.15	0.319	849.39	0.17
303.15	0.4018	866.35	0.16
303.15	0.4803	883.63	0.14
303.15	0.5599	902.44	0.13
303.15	0.6396	922.63	0.12
303.15	0.7199	944.71	0.1
303.15	0.7998	968.56	0.09
303.15	0.8786	994.16	0.09
303.15	0.9595	1022.77	0.09
313.15	0.0813	798.73	0.22
313.15	0.1574	811.15	0.21
313.15	0.2405	825.76	0.19
313.15	0.319	840.5	0.18
313.15	0.4018	857.21	0.16
313.15	0.4803	874.24	0.15
313.15	0.5599	892.78	0.13
313.15	0.6396	912.7	0.12
313.15	0.7199	934.47	0.11
313.15	0.7998	958.02	0.1
313.15	0.8786	983.31	0.09
313.15	0.9595	1011.59	0.09
323.15	0.0813	790.31	0.22
323.15	0.1574	802.54	0.21
323.15	0.2405	816.92	0.19
323.15	0.319	831.45	0.18
323.15	0.4018	847.92	0.16
323.15	0.4803	864.7	0.15
323.15	0.5599	883	0.13
323.15	0.6396	902.65	0.12
323.15	0.7199	924.16	0.11
323.15	0.7998	947.4	0.1
323.15	0.8786	972.4	0.09
323.15	0.9595	1000.4	0.08
333.15	0.0813	781.64	0.22
333.15	0.1574	793.68	0.21
333.15	0.2405	807.86	0.19
333.15	0.319	822.19	0.18
333.15	0.4018	838.44	0.16
333.15	0.4803	855.01	0.15
333.15	0.5599	873.07	0.14
333.15	0.6396	892.49	0.12
333.15	0.7199	913.72	0.11
333.15	0.7998	936.71	0.1
333.15	0.8786	961.43	0.09
333.15	0.9595	989.16	0.09

System: acetic acid + 2-methylbutan-2-ol; phases: Liquid
Fixed: Pressure, kPa = 101
Property: Mass density, kg/m3 (Liquid); method: Vibrating tube method
Temperature, K	Mole fraction of acetic acid	Mass density, kg/m3	uncertainty
283.15	0.0794	819.64	0.13
283.15	0.0827	820.07	0.13
283.15	0.1664	832.07	0.13
283.15	0.1672	832.17	0.13
283.15	0.2361	842.73	0.12
283.15	0.3176	856.35	0.12
283.15	0.3914	869.87	0.11
283.15	0.4798	887.62	0.1
283.15	0.5577	904.94	0.1
283.15	0.6427	925.88	0.09
283.15	0.7195	946.94	0.09
283.15	0.7999	971.66	0.09
283.15	0.8769	998.52	0.09
283.15	0.96	1031.62	0.1
293.15	0.0794	814.95	0.14
293.15	0.0827	815.38	0.14
293.15	0.1664	827.35	0.13
293.15	0.1672	827.45	0.13
293.15	0.2361	838.01	0.12
293.15	0.3176	851.61	0.12
293.15	0.3914	865.1	0.11
293.15	0.4798	882.8	0.11
293.15	0.5577	900.05	0.1
293.15	0.6427	920.88	0.09
293.15	0.7195	941.83	0.09
293.15	0.7999	966.42	0.09
293.15	0.8769	993.12	0.09
293.15	0.96	1026.04	0.09
303.15	0.0794	810.22	0.18
303.15	0.0827	810.64	0.15
303.15	0.1664	822.59	0.13
303.15	0.1672	822.69	0.13
303.15	0.2361	833.24	0.13
303.15	0.3176	846.84	0.12
303.15	0.3914	860.3	0.11
303.15	0.4798	877.94	0.11
303.15	0.5577	895.12	0.1
303.15	0.6427	915.86	0.1
303.15	0.7195	936.71	0.09
303.15	0.7999	961.16	0.09
303.15	0.8769	987.72	0.09
303.15	0.96	1020.47	0.09
313.15	0.0794	800.6	0.14
313.15	0.0827	801.02	0.14
313.15	0.1664	812.92	0.14
313.15	0.1672	813.02	0.14
313.15	0.2361	823.57	0.13
313.15	0.3176	837.15	0.12
313.15	0.3914	850.57	0.12
313.15	0.4798	868.11	0.11
313.15	0.5577	885.16	0.11
313.15	0.6427	905.72	0.1
313.15	0.7195	926.37	0.1
313.15	0.7999	950.58	0.09
313.15	0.8769	976.88	0.09
313.15	0.96	1009.32	0.09
323.15	0.0794	790.72	0.15
323.15	0.0827	791.14	0.14
323.15	0.1664	803.02	0.14
323.15	0.1672	803.12	0.14
323.15	0.2361	813.68	0.13
323.15	0.3176	827.25	0.13
323.15	0.3914	840.64	0.12
323.15	0.4798	858.1	0.11
323.15	0.5577	875.04	0.11
323.15	0.6427	895.44	0.1
323.15	0.7195	915.92	0.1
323.15	0.7999	939.91	0.09
323.15	0.8769	965.96	0.09
323.15	0.96	998.13	0.09
333.15	0.0794	780.53	0.15
333.15	0.0827	780.94	0.15
333.15	0.1664	792.86	0.14
333.15	0.1672	792.96	0.14
333.15	0.2361	803.54	0.14
333.15	0.3176	817.14	0.13
333.15	0.3914	830.51	0.12
333.15	0.4798	847.89	0.12
333.15	0.5577	864.74	0.11
333.15	0.6427	885.01	0.11
333.15	0.7195	905.33	0.1
333.15	0.7999	929.13	0.1
333.15	0.8769	954.98	0.1
333.15	0.96	986.89	0.09

System: butan-2-ol + propanoic acid; phases: Liquid
Fixed: Pressure, kPa = 101
Property: Mass density, kg/m3 (Liquid); method: Vibrating tube method
Temperature, K	Mole fraction of propanoic acid	Mass density, kg/m3	uncertainty
283.15	0.082	819.64	0.23
283.15	0.1717	834.26	0.21
283.15	0.2442	846.52	0.2
283.15	0.32	859.63	0.19
283.15	0.4004	873.99	0.18
283.15	0.4773	887.98	0.17
283.15	0.5609	903.61	0.16
283.15	0.6404	918.81	0.15
283.15	0.7186	934.19	0.13
283.15	0.8009	950.85	0.12
283.15	0.8776	966.89	0.11
283.15	0.9593	984.54	0.1
293.15	0.082	815.41	0.23
293.15	0.1717	829.91	0.21
293.15	0.2442	842.08	0.2
293.15	0.32	855.12	0.19
293.15	0.4004	869.39	0.18
293.15	0.4773	883.3	0.17
293.15	0.5609	898.85	0.16
293.15	0.6404	913.96	0.15
293.15	0.7186	929.25	0.13
293.15	0.8009	945.79	0.12
293.15	0.8776	961.72	0.11
293.15	0.9593	979.23	0.1
303.15	0.082	811.1	0.23
303.15	0.1717	825.51	0.21
303.15	0.2442	837.6	0.2
303.15	0.32	850.56	0.19
303.15	0.4004	864.76	0.18
303.15	0.4773	878.59	0.17
303.15	0.5609	894.07	0.16
303.15	0.6404	909.09	0.15
303.15	0.7186	924.29	0.14
303.15	0.8009	940.74	0.12
303.15	0.8776	956.55	0.11
303.15	0.9593	973.9	0.1
313.15	0.082	802.26	0.23
313.15	0.1717	816.5	0.22
313.15	0.2442	828.46	0.21
313.15	0.32	841.3	0.2
313.15	0.4004	855.37	0.18
313.15	0.4773	869.08	0.17
313.15	0.5609	884.41	0.16
313.15	0.6404	899.28	0.15
313.15	0.7186	914.32	0.14
313.15	0.8009	930.57	0.13
313.15	0.8776	946.17	0.12
313.15	0.9593	963.26	0.11
323.15	0.082	793.05	0.23
323.15	0.1717	807.2	0.22
323.15	0.2442	819.08	0.21
323.15	0.32	831.82	0.2
323.15	0.4004	845.79	0.19
323.15	0.4773	859.4	0.18
323.15	0.5609	874.61	0.16
323.15	0.6404	889.36	0.15
323.15	0.7186	904.27	0.14
323.15	0.8009	920.34	0.13
323.15	0.8776	935.75	0.12
323.15	0.9593	952.61	0.11
333.15	0.082	783.48	0.23
333.15	0.1717	797.57	0.22
333.15	0.2442	809.41	0.21
333.15	0.32	822.11	0.2
333.15	0.4004	836	0.19
333.15	0.4773	849.54	0.18
333.15	0.5609	864.65	0.17
333.15	0.6404	879.3	0.15
333.15	0.7186	894.07	0.14
333.15	0.8009	910.02	0.13
333.15	0.8776	925.26	0.12
333.15	0.9593	941.92	0.11

System: 2-methyl-1-propanol + propanoic acid; phases: Liquid
Fixed: Pressure, kPa = 101
Property: Mass density, kg/m3 (Liquid); method: Vibrating tube method
Temperature, K	Mole fraction of propanoic acid	Mass density, kg/m3	uncertainty
283.15	0.0803	815.48	0.23
283.15	0.1616	829.5	0.22
283.15	0.2482	844.79	0.2
283.15	0.3212	857.93	0.19
283.15	0.4008	872.54	0.18
283.15	0.4828	887.9	0.17
283.15	0.5602	902.63	0.16
283.15	0.6413	918.47	0.15
283.15	0.7201	934.21	0.13
283.15	0.8016	950.86	0.12
283.15	0.8777	966.86	0.11
283.15	0.9586	984.47	0.1
293.15	0.0803	811.49	0.23
293.15	0.1616	825.39	0.22
293.15	0.2482	840.55	0.2
293.15	0.3212	853.59	0.19
293.15	0.4008	868.09	0.18
293.15	0.4828	883.34	0.17
293.15	0.5602	897.96	0.16
293.15	0.6413	913.69	0.15
293.15	0.7201	929.32	0.13
293.15	0.8016	945.84	0.12
293.15	0.8777	961.72	0.11
293.15	0.9586	979.16	0.1
303.15	0.0803	807.47	0.23
303.15	0.1616	821.25	0.22
303.15	0.2482	836.28	0.2
303.15	0.3212	849.22	0.19
303.15	0.4008	863.61	0.18
303.15	0.4828	878.76	0.17
303.15	0.5602	893.27	0.16
303.15	0.6413	908.9	0.15
303.15	0.7201	924.42	0.14
303.15	0.8016	940.81	0.12
303.15	0.8777	956.56	0.11
303.15	0.9586	973.84	0.1
313.15	0.0803	799.27	0.23
313.15	0.1616	812.83	0.22
313.15	0.2482	827.63	0.21
313.15	0.3212	840.38	0.2
313.15	0.4008	854.56	0.18
313.15	0.4828	869.5	0.17
313.15	0.5602	883.83	0.16
313.15	0.6413	899.25	0.15
313.15	0.7201	914.55	0.14
313.15	0.8016	930.72	0.13
313.15	0.8777	946.23	0.12
313.15	0.9586	963.22	0.11
323.15	0.0803	790.86	0.23
323.15	0.1616	804.2	0.22
323.15	0.2482	818.79	0.21
323.15	0.3212	831.37	0.2
323.15	0.4008	845.37	0.19
323.15	0.4828	860.12	0.17
323.15	0.5602	874.27	0.16
323.15	0.6413	889.49	0.15
323.15	0.7201	904.62	0.14
323.15	0.8016	920.57	0.13
323.15	0.8777	935.86	0.12
323.15	0.9586	952.58	0.11
333.15	0.0803	782.19	0.23
333.15	0.1616	795.34	0.22
333.15	0.2482	809.74	0.21
333.15	0.3212	822.15	0.2
333.15	0.4008	836	0.19
333.15	0.4828	850.57	0.18
333.15	0.5602	864.57	0.17
333.15	0.6413	879.62	0.15
333.15	0.7201	894.59	0.14
333.15	0.8016	910.32	0.13
333.15	0.8777	925.44	0.12
333.15	0.9586	941.92	0.11

System: 2-methylbutan-2-ol + propanoic acid; phases: Liquid
Fixed: Pressure, kPa = 101
Property: Mass density, kg/m3 (Liquid); method: Vibrating tube method
Temperature, K	Mole fraction of propanoic acid	Mass density, kg/m3	uncertainty
283.15	0.0822	819.84	0.14
283.15	0.16	830.58	0.13
283.15	0.2419	842.49	0.13
283.15	0.3189	854.39	0.13
283.15	0.4024	868.02	0.12
283.15	0.4806	881.53	0.12
283.15	0.5588	895.71	0.12
283.15	0.6429	911.85	0.11
283.15	0.7218	927.93	0.11
283.15	0.785	941.5	0.11
283.15	0.8812	963.57	0.1
283.15	0.9561	982.1	0.1
293.15	0.0822	815.21	0.14
293.15	0.16	825.94	0.14
293.15	0.2419	837.85	0.13
293.15	0.3189	849.75	0.13
293.15	0.4024	863.37	0.13
293.15	0.4806	876.85	0.12
293.15	0.5588	890.97	0.12
293.15	0.6429	907.05	0.12
293.15	0.7218	923.03	0.11
293.15	0.785	936.52	0.11
293.15	0.8812	958.43	0.1
293.15	0.9561	976.8	0.1
303.15	0.0822	810.53	0.14
303.15	0.16	821.26	0.14
303.15	0.2419	833.18	0.13
303.15	0.3189	845.08	0.13
303.15	0.4024	858.68	0.13
303.15	0.4806	872.13	0.12
303.15	0.5588	886.21	0.12
303.15	0.6429	902.23	0.12
303.15	0.7218	918.13	0.11
303.15	0.785	931.53	0.11
303.15	0.8812	953.3	0.11
303.15	0.9561	971.51	0.1
313.15	0.0822	801.01	0.14
313.15	0.16	811.74	0.14
313.15	0.2419	823.69	0.14
313.15	0.3189	835.62	0.13
313.15	0.4024	849.19	0.13
313.15	0.4806	862.6	0.13
313.15	0.5588	876.6	0.12
313.15	0.6429	892.5	0.12
313.15	0.7218	908.25	0.12
313.15	0.785	921.51	0.11
313.15	0.8812	942.98	0.11
313.15	0.9561	960.92	0.11
323.15	0.0822	791.2	0.15
323.15	0.16	801.99	0.14
323.15	0.2419	814	0.14
323.15	0.3189	825.96	0.14
323.15	0.4024	839.53	0.13
323.15	0.4806	852.91	0.13
323.15	0.5588	866.84	0.13
323.15	0.6429	882.64	0.12
323.15	0.7218	898.28	0.12
323.15	0.785	911.41	0.12
323.15	0.8812	932.62	0.11
323.15	0.9561	950.3	0.11
333.15	0.0822	781.09	0.15
333.15	0.16	791.96	0.15
333.15	0.2419	804.06	0.14
333.15	0.3189	816.07	0.14
333.15	0.4024	829.68	0.14
333.15	0.4806	843.03	0.13
333.15	0.5588	856.93	0.13
333.15	0.6429	872.64	0.13
333.15	0.7218	888.18	0.12
333.15	0.785	901.2	0.12
333.15	0.8812	922.2	0.11
333.15	0.9561	939.64	0.11
