Measured thermophysical data. Thermochemistry of Drugs. Experimental and First-Principles Study of Fenamates
Source: J. Chem. Eng. Data, 2011, 10.1021/je200128y
Compound 1: carbon dioxide, CO2, InChI=1S/CO2/c2-1-3
Compound 2: nitrogen, N2, InChI=1S/N2/c1-2
Compound 3: water, H2O, InChI=1S/H2O/h1H2
Compound 4: oxygen, O2, InChI=1S/O2/c1-2
Compound 5: diphenylamine, C12H11N, InChI=1S/C12H11N/c1-3-7-11(8-4-1)13-12-9-5-2-6-10-12/h1-10,13H
Compound 6: N-phenylanthranilic acid, C13H11NO2, InChI=1S/C13H11NO2/c15-13(16)11-8-4-5-9-12(11)14-10-6-2-1-3-7-10/h1-9,14H,(H,15,16)

System: diphenylamine; phases: Crystal, Gas
Property: Vapor or sublimation pressure, kPa (Crystal); method: Transpiration method
Temperature, K	Vapor or sublimation pressure, kPa	uncertainty
293.1	4e-05	1e-05
293.7	4e-05	1e-05
296.2	6e-05	1e-05
298.2	7e-05	1e-05
298.4	8e-05	1e-05
300.2	0.0001	1e-05
301	0.00012	1e-05
302.1	0.00013	1e-05
302.7	0.00015	1e-05
303.2	0.00014	1e-05
305.2	0.00017	2e-05
305.5	0.0002	2e-05
308	0.00024	2e-05
308	0.00025	2e-05
308.2	0.00026	2e-05
309.1	0.00029	3e-05
309.3	0.0003	3e-05
310.7	0.00034	3e-05
312.3	0.00042	4e-05
313	0.00045	4e-05
313.7	0.0005	4e-05
315	0.00054	5e-05
315	0.00055	5e-05
315.4	0.00061	5e-05
315.7	0.0006	5e-05
316	0.00065	6e-05
316.7	0.0007	6e-05
317.2	0.00075	7e-05
318	0.00083	7e-05
318.2	0.00086	8e-05
318.3	0.00085	7e-05
318.7	0.00085	7e-05
320.3	0.00111	0.0001
320.7	0.0011	0.0001
322.3	0.00138	0.00012
323.2	0.00153	0.00013
323.2	0.00143	0.00013
324.1	0.00169	0.00015
324.7	0.00164	0.00014
325.2	0.00186	0.00016
326.7	0.00203	0.00018

System: diphenylamine; phases: Liquid, Gas
Property: Vapor or sublimation pressure, kPa (Liquid); method: Transpiration method
Temperature, K	Vapor or sublimation pressure, kPa	uncertainty
328.3	0.00245	0.00021
332.2	0.00343	0.0003
335.4	0.00438	0.00038
338.1	0.00522	0.00046
341.2	0.00684	0.0006
343.2	0.0081	0.00071
346.1	0.00963	0.00084
348.2	0.01174	0.00103
353.1	0.01698	0.00149
357.2	0.02181	0.00191
358.2	0.02355	0.00206
360.2	0.02829	0.00247
363	0.0322	0.00282
363.1	0.03321	0.00291
366.1	0.04193	0.00367
368.1	0.04848	0.00424
368.3	0.04791	0.00419
371.9	0.06108	0.00534
373.1	0.06621	0.00579

Reaction: -1 diphenylamine + 12 carbon dioxide + .5 nitrogen + 5.5 water + -14.75 oxygen
Property: Specific internal energy of reaction at constant volume, J/g
-37862.3

Reaction: -1 N-phenylanthranilic acid + 13 carbon dioxide + .5 nitrogen + 5.5 water + -14.75 oxygen
Property: Specific internal energy of reaction at constant volume, J/g
-29909
