Measured thermophysical data. Solid Liquid Phase Equilibrium for the Ternary System K2SO4 + KH2PO4 + H2O at (298.15 and 333.15) K
Source: J. Chem. Eng. Data, 2012, 10.1021/je201041h
Compound 1: water, H2O, InChI=1S/H2O/h1H2, purity 99%
Compound 2: monopotassium phosphate, H2KO4P, InChI=1S/K.H3O4P/c;1-5(2,3)4/h;(H3,1,2,3,4)/q+1;/p-1, purity 99.5%
Compound 3: potassium sulfate, K2O4S, InChI=1S/2K.H2O4S/c;;1-5(2,3)4/h;;(H2,1,2,3,4)/q2*+1;/p-2, purity 99%

System: water + monopotassium phosphate + potassium sulfate; phases: Liquid, Crystal, Crystal
Fixed: Pressure, kPa = 101.3
Property: Mass density, kg/m3 (Liquid); method: Pycnometric method
Temperature, K	Mass density, kg/m3	uncertainty
298.15	1087	0.7
298.15	1086.9	0.7
298.15	1094.3	0.6
333.15	1132.8	0.7
333.15	1131.8	0.7
333.15	1132.1	0.7

System: water + monopotassium phosphate + potassium sulfate; phases: Liquid, Crystal, Crystal
Fixed: Pressure, kPa = 101.3
Property: Mass fraction of monopotassium phosphate (Liquid); method: Titration method
Temperature, K	Mass fraction of monopotassium phosphate	uncertainty
298.15	0.17	0.006
298.15	0.1702	0.006
298.15	0.1706	0.006
333.15	0.2797	0.0061
333.15	0.2809	0.0061
333.15	0.2818	0.0061

System: water + monopotassium phosphate + potassium sulfate; phases: Liquid, Crystal, Crystal
Fixed: Pressure, kPa = 101
Property: Mass fraction of potassium sulfate (Liquid); method: Titration method
Temperature, K	Mass fraction of potassium sulfate	uncertainty
298.15	0.0322	0.01
298.15	0.032	0.01
298.15	0.0314	0.01
333.15	0.0403	0.01
333.15	0.0399	0.01
333.15	0.0396	0.01

System: water + monopotassium phosphate + potassium sulfate; phases: Liquid, Crystal
Fixed: Pressure, kPa = 101.3
Property: Mass density, kg/m3 (Liquid); method: Pycnometric method
Temperature, K	Mass fraction of potassium sulfate	Mass density, kg/m3	uncertainty
298.15	0	1080.2	0.7
298.15	0.009	1076.3	1.2
298.15	0.0171	1079.7	2
333.15	0	1121	0.7
333.15	0.0055	1122.2	0.9
333.15	0.0132	1124.5	1.7
333.15	0.0214	1127.1	2.5

System: water + monopotassium phosphate + potassium sulfate; phases: Liquid, Crystal
Fixed: Pressure, kPa = 101.3
Property: Mass density, kg/m3 (Liquid); method: Pycnometric method
Temperature, K	Mass fraction of potassium sulfate	Mass density, kg/m3	uncertainty
298.15	0.0445	1078.1	4.8
298.15	0.0492	1067.4	5.3
298.15	0.0628	1052.8	6.6
298.15	0.0716	1043.3	7.5
333.15	0.0419	1127.8	4.8
333.15	0.0575	1110.8	6.4
333.15	0.0611	1102.7	6.8
333.15	0.0662	1093	7.3
333.15	0.0741	1083.9	8.1
333.15	0.0838	1075.4	9
333.15	0.0953	1067.3	10.2
333.15	0.1022	1058.7	10.8

System: water + monopotassium phosphate + potassium sulfate; phases: Liquid, Crystal
Fixed: Pressure, kPa = 101.3
Property: Mass fraction of monopotassium phosphate (Liquid); method: Titration method
Temperature, K	Mass fraction of potassium sulfate	Mass fraction of monopotassium phosphate	uncertainty
298.15	0	0.2144	0.0061
298.15	0.009	0.1969	0.0061
298.15	0.0171	0.1875	0.0061
333.15	0	0.3303	0.0061
333.15	0.0055	0.3199	0.0061
333.15	0.0132	0.313	0.0061
333.15	0.0214	0.3049	0.0061

System: water + monopotassium phosphate + potassium sulfate; phases: Liquid, Crystal
Fixed: Pressure, kPa = 101.3
Property: Mass fraction of monopotassium phosphate (Liquid); method: Titration method
Temperature, K	Mass fraction of potassium sulfate	Mass fraction of monopotassium phosphate	uncertainty
298.15	0.0445	0.1324	0.0526
298.15	0.0492	0.0964	0.0443
298.15	0.0628	0.0367	0.0367
298.15	0.0716	0	
333.15	0.0419	0.2697	0.0362
333.15	0.0575	0.2141	0.0476
333.15	0.0611	0.1838	0.0474
333.15	0.0662	0.1504	0.0458
333.15	0.0741	0.1179	0.0411
333.15	0.0838	0.0807	0.0377
333.15	0.0953	0.0429	0.0334
333.15	0.1022	0	
