Measured thermophysical data. Computer Aided Solvent scanning for the Separation of  2-methoxynaphthene and 2-acetyl-6-methoxynaphthalene
Source: J. Chem. Eng. Data, 2012, 10.1021/je2009889
Compound 1: 2-methoxynaphthalene, C11H10O, InChI=1S/C11H10O/c1-12-11-7-6-9-4-2-3-5-10(9)8-11/h2-8H,1H3, purity 99%
Compound 2: 1-(6-methoxynaphthalen-2-yl)ethanone, C13H12O2, InChI=1S/C13H12O2/c1-9(14)10-3-4-12-8-13(15-2)6-5-11(12)7-10/h3-8H,1-2H3, purity 99%
Compound 3: hexane, C6H14, InChI=1S/C6H14/c1-3-5-6-4-2/h3-6H2,1-2H3, purity 99.5%
Compound 4: heptane, C7H16, InChI=1S/C7H16/c1-3-5-7-6-4-2/h3-7H2,1-2H3, purity 99.5%
Compound 5: octane, C8H18, InChI=1S/C8H18/c1-3-5-7-8-6-4-2/h3-8H2,1-2H3, purity 99.5%
Compound 6: cyclohexane, C6H12, InChI=1S/C6H12/c1-2-4-6-5-3-1/h1-6H2, purity 99.5%

System: 2-methoxynaphthalene + hexane; phases: Liquid, Crystal
Fixed: Pressure, kPa = 101
Property: Mole fraction of 2-methoxynaphthalene (Liquid); method: UV absorbance
Temperature, K	Mole fraction of 2-methoxynaphthalene	uncertainty
283.15	0.02813	0.00169
288.15	0.03526	0.00212
293.15	0.04101	0.00247
298.15	0.04501	0.00271
303.15	0.05803	0.00349
308.15	0.08241	0.00496

System: 2-methoxynaphthalene + heptane; phases: Liquid, Crystal
Fixed: Pressure, kPa = 101
Property: Mole fraction of 2-methoxynaphthalene (Liquid); method: UV absorbance
Temperature, K	Mole fraction of 2-methoxynaphthalene	uncertainty
283.15	0.03243	0.00195
288.15	0.0393	0.00236
293.15	0.05129	0.00308
298.15	0.0599	0.0036
303.15	0.07921	0.00476
308.15	0.1076	0.0065

System: 2-methoxynaphthalene + octane; phases: Liquid, Crystal
Fixed: Pressure, kPa = 101
Property: Mole fraction of 2-methoxynaphthalene (Liquid); method: UV absorbance
Temperature, K	Mole fraction of 2-methoxynaphthalene	uncertainty
283.15	0.04569	0.00275
288.15	0.04855	0.00292
293.15	0.06176	0.00371
298.15	0.07791	0.00468
303.15	0.1008	0.0061
308.15	0.1204	0.0072

System: 2-methoxynaphthalene + cyclohexane; phases: Liquid, Crystal
Fixed: Pressure, kPa = 101
Property: Mole fraction of 2-methoxynaphthalene (Liquid); method: UV absorbance
Temperature, K	Mole fraction of 2-methoxynaphthalene	uncertainty
283.15	0.02987	0.0018
288.15	0.04395	0.00264
293.15	0.0576	0.00346
298.15	0.07213	0.00434
303.15	0.09713	0.00584
308.15	0.1277	0.0077

System: hexane + 1-(6-methoxynaphthalen-2-yl)ethanone; phases: Liquid, Crystal
Fixed: Pressure, kPa = 101
Property: Mole fraction of 1-(6-methoxynaphthalen-2-yl)ethanone (Liquid); method: UV absorbance
Temperature, K	Mole fraction of 1-(6-methoxynaphthalen-2-yl)ethanone	uncertainty
283.15	0.0005882	3.54e-05
288.15	0.0007265	4.37e-05
293.15	0.0009656	5.81e-05
298.15	0.001224	7.4e-05
303.15	0.001385	8.3e-05
308.15	0.00147	8.8e-05

System: heptane + 1-(6-methoxynaphthalen-2-yl)ethanone; phases: Liquid, Crystal
Fixed: Pressure, kPa = 101
Property: Mole fraction of 1-(6-methoxynaphthalen-2-yl)ethanone (Liquid); method: UV absorbance
Temperature, K	Mole fraction of 1-(6-methoxynaphthalen-2-yl)ethanone	uncertainty
283.15	0.0007074	4.25e-05
288.15	0.0009697	5.83e-05
293.15	0.0012	7.2e-05
298.15	0.001563	9.4e-05
303.15	0.001752	0.000105
308.15	0.002002	0.00012

System: octane + 1-(6-methoxynaphthalen-2-yl)ethanone; phases: Liquid, Crystal
Fixed: Pressure, kPa = 101
Property: Mole fraction of 1-(6-methoxynaphthalen-2-yl)ethanone (Liquid); method: UV absorbance
Temperature, K	Mole fraction of 1-(6-methoxynaphthalen-2-yl)ethanone	uncertainty
283.15	0.0009488	5.7e-05
288.15	0.001177	7.1e-05
293.15	0.001605	9.6e-05
298.15	0.002024	0.000122
303.15	0.002336	0.00014
308.15	0.00263	0.000158

System: cyclohexane + 1-(6-methoxynaphthalen-2-yl)ethanone; phases: Liquid, Crystal
Fixed: Pressure, kPa = 101
Property: Mole fraction of 1-(6-methoxynaphthalen-2-yl)ethanone (Liquid); method: UV absorbance
Temperature, K	Mole fraction of 1-(6-methoxynaphthalen-2-yl)ethanone	uncertainty
283.15	0.0006429	3.87e-05
288.15	0.001007	6.1e-05
293.15	0.001358	8.2e-05
298.15	0.00167	0.000101
303.15	0.002033	0.000122
308.15	0.002902	0.000175
