Measured thermophysical data. Densities of Aqueous MgCl2(aq), CaCl2(aq), KI(aq), NaCl(aq), KCl(aq), AlCl3(aq), and (0.964 NaCl + 0.136 KCl)(aq) at Temperatures Between (283 and 472) K, Pressures up to 68.5 MPa, and Molalities up to 6 mol*kg-1
Source: J. Chem. Eng. Data, 2012, 10.1021/je2013704
Compound 1: sodium chloride, ClNa, InChI=1S/ClH.Na/h1H;/q;+1/p-1, purity 99.9%
Compound 2: potassium chloride, ClK, InChI=1S/ClH.K/h1H;/q;+1/p-1, purity 99%
Compound 3: potassium iodide, IK, InChI=1S/HI.K/h1H;/q;+1/p-1, purity 99.5%
Compound 4: calcium chloride, CaCl2, InChI=1S/Ca.2ClH/h;2*1H/q+2;;/p-2, purity 99%
Compound 5: magnesium chloride, Cl2Mg, InChI=1S/2ClH.Mg/h2*1H;/q;;+2/p-2, purity 99.99%
Compound 6: aluminum chloride, AlCl3, InChI=1S/Al.3ClH/h;3*1H/q+3;;;/p-3, purity 99%
Compound 7: water, H2O, InChI=1S/H2O/h1H2, purity 99.9%

System: potassium chloride + water; phases: Liquid
Property: Mass density, kg/m3 (Liquid); method: Vibrating tube method
Molality, mol/kg of potassium chloride	Temperature, K	Pressure, kPa	Mass density, kg/m3	uncertainty
1.06	298.12	900	1044.2	0.09
1.06	298.12	9900	1047.96	0.11
1.06	298.12	19900	1052.02	0.13
1.06	298.12	29900	1056.08	0.17
1.06	298.12	39900	1060	0.2
1.06	298.12	49900	1063.86	0.24
1.06	298.12	59900	1067.62	0.29
1.06	298.12	68400	1070.84	0.33
1.06	323.07	900	1034.14	0.08
1.06	323.07	9900	1037.83	0.1
1.06	323.07	19900	1041.82	0.12
1.06	323.07	29900	1045.67	0.15
1.06	323.07	39900	1049.58	0.18
1.06	323.07	49900	1053.35	0.21
1.06	323.07	59900	1057.01	0.25
1.06	323.07	68400	1060.07	0.29
1.06	348.04	900	1020.74	0.08
1.06	348.04	9900	1024.46	0.09
1.06	348.04	19900	1028.51	0.1
1.06	348.04	29900	1032.5	0.12
1.06	348.04	39900	1036.42	0.15
1.06	348.04	49900	1040.18	0.17
1.06	348.04	59900	1043.91	0.21
1.06	348.04	68400	1047.14	0.24
1.06	372.99	900	1004.76	0.07
1.06	372.99	9900	1008.64	0.08
1.06	372.99	19900	1012.91	0.09
1.06	372.99	29900	1017.11	0.1
1.06	372.99	39900	1021.1	0.11
1.06	372.99	49900	1025.08	0.13
1.06	372.99	59900	1028.91	0.16
1.06	372.99	68400	1032.17	0.18
1.06	397.97	900	986.31	0.08
1.06	397.97	9900	990.53	0.08
1.06	397.97	19900	995.11	0.08
1.06	397.97	29900	999.53	0.07
1.06	397.97	39900	1003.82	0.08
1.06	397.97	49900	1008.02	0.09
1.06	397.97	59900	1012.1	0.11
1.06	397.97	68400	1015.46	0.12
1.06	422.94	900	965.57	0.09
1.06	422.94	9900	970.25	0.1
1.06	422.94	19900	975.13	0.11
1.06	422.94	29900	979.97	0.11
1.06	422.94	39900	984.63	0.11
1.06	422.94	49900	989.18	0.1
1.06	422.94	59900	993.52	0.09
1.06	422.94	68400	997.11	0.08
1.06	447.94	900	942.89	0.11
1.06	447.94	9900	948.08	0.13
1.06	447.94	19900	953.62	0.14
1.06	447.94	29900	958.88	0.15
1.06	447.94	39900	963.97	0.16
1.06	447.94	49900	968.88	0.16
1.06	447.94	59900	973.66	0.16
1.06	447.94	68400	977.57	0.16
1.06	472.96	9900	923.68	0.16
1.06	472.96	19900	929.93	0.19
1.06	472.96	29900	935.86	0.21
1.06	472.96	39900	941.62	0.22
1.06	472.96	49900	947.07	0.24
1.06	472.96	59900	952.36	0.24
1.06	472.96	68400	956.79	0.25
3.15	298.12	900	1124.07	0.14
3.15	298.12	9900	1127.47	0.2
3.15	298.12	19900	1131.16	0.26
3.15	298.12	29900	1134.81	0.34
3.15	298.12	39900	1138.35	0.41
3.15	298.12	49900	1141.9	0.49
3.15	298.12	59900	1145.28	0.57
3.15	298.12	68400	1148.2	0.65
3.15	323.07	900	1112.58	0.13
3.15	323.07	9900	1115.91	0.18
3.15	323.07	19900	1119.53	0.25
3.15	323.07	29900	1123.11	0.31
3.15	323.07	39900	1126.71	0.38
3.15	323.07	49900	1130.16	0.46
3.15	323.07	59900	1133.6	0.53
3.15	323.07	68400	1136.35	0.6
3.15	348.04	900	1098.82	0.13
3.15	348.04	9900	1102.28	0.17
3.15	348.04	19900	1105.97	0.23
3.15	348.04	29900	1109.59	0.29
3.15	348.04	39900	1113.24	0.35
3.15	348.04	49900	1116.68	0.42
3.15	348.04	59900	1120.15	0.49
3.15	348.04	68400	1123.07	0.55
3.15	372.99	900	1083.32	0.12
3.15	372.99	9900	1086.89	0.16
3.15	372.99	19900	1090.74	0.2
3.15	372.99	29900	1094.53	0.26
3.15	372.99	39900	1098.25	0.31
3.15	372.99	49900	1101.91	0.37
3.15	372.99	59900	1105.38	0.43
3.15	372.99	68400	1108.37	0.49
3.15	397.97	900	1065.9	0.11
3.15	397.97	9900	1069.71	0.14
3.15	397.97	19900	1073.82	0.18
3.15	397.97	29900	1077.73	0.23
3.15	397.97	39900	1081.65	0.27
3.15	397.97	49900	1085.49	0.32
3.15	397.97	59900	1089.26	0.38
3.15	397.97	68400	1092.3	0.43
3.15	422.94	900	1046.73	0.11
3.15	422.94	9900	1050.87	0.13
3.15	422.94	19900	1055.23	0.16
3.15	422.94	29900	1059.51	0.19
3.15	422.94	39900	1063.66	0.23
3.15	422.94	49900	1067.79	0.28
3.15	422.94	59900	1071.77	0.32
3.15	422.94	68400	1075	0.36
3.15	447.94	900	1025.62	0.11
3.15	447.94	9900	1030.11	0.12
3.15	447.94	19900	1034.96	0.14
3.15	447.94	29900	1039.57	0.16
3.15	447.94	39900	1044.09	0.19
3.15	447.94	49900	1048.45	0.23
3.15	447.94	59900	1052.77	0.26
3.15	447.94	68400	1056.27	0.3
3.15	472.96	9900	1007.94	0.11
3.15	472.96	19900	1013.25	0.12
3.15	472.96	29900	1018.38	0.13
3.15	472.96	39900	1023.39	0.15
3.15	472.96	49900	1028.19	0.18
3.15	472.96	59900	1032.84	0.21
3.15	472.96	68400	1036.57	0.23
4.49	298.12	900	1168.21	0.17
4.49	298.12	9900	1171.42	0.25
4.49	298.12	19900	1174.92	0.34
4.49	298.12	29900	1178.38	0.44
4.49	298.12	39900	1181.79	0.53
4.49	298.12	49900	1185.09	0.63
4.49	298.12	59900	1188.28	0.74
4.49	298.12	68400	1191.12	0.83
4.49	323.07	900	1156.09	0.17
4.49	323.07	9900	1159.3	0.24
4.49	323.07	19900	1162.77	0.32
4.49	323.07	29900	1166.16	0.41
4.49	323.07	39900	1169.63	0.5
4.49	323.07	49900	1172.93	0.6
4.49	323.07	59900	1176.14	0.69
4.49	323.07	68400	1178.8	0.78
4.49	348.04	900	1142.21	0.16
4.49	348.04	9900	1145.43	0.22
4.49	348.04	19900	1148.98	0.3
4.49	348.04	29900	1152.52	0.38
4.49	348.04	39900	1155.93	0.47
4.49	348.04	49900	1159.38	0.56
4.49	348.04	59900	1162.56	0.65
4.49	348.04	68400	1165.39	0.73
4.49	372.99	900	1126.88	0.15
4.49	372.99	9900	1130.26	0.21
4.49	372.99	19900	1133.92	0.28
4.49	372.99	29900	1137.58	0.35
4.49	372.99	39900	1141.11	0.43
4.49	372.99	49900	1144.58	0.51
4.49	372.99	59900	1147.95	0.59
4.49	372.99	68400	1150.77	0.67
4.49	397.97	900	1109.9	0.14
4.49	397.97	9900	1113.48	0.19
4.49	397.97	19900	1117.4	0.26
4.49	397.97	29900	1121.12	0.32
4.49	397.97	39900	1124.86	0.39
4.49	397.97	49900	1128.56	0.46
4.49	397.97	59900	1132.08	0.54
4.49	397.97	68400	1135	0.61
4.49	422.94	900	1091.46	0.14
4.49	422.94	9900	1095.41	0.18
4.49	422.94	19900	1099.54	0.23
4.49	422.94	29900	1103.53	0.29
4.49	422.94	39900	1107.49	0.35
4.49	422.94	49900	1111.34	0.42
4.49	422.94	59900	1115.08	0.48
4.49	422.94	68400	1118.18	0.54
4.49	447.94	900	1071.39	0.13
4.49	447.94	9900	1075.5	0.17
4.49	447.94	19900	1080.06	0.21
4.49	447.94	29900	1084.38	0.26
4.49	447.94	39900	1088.62	0.31
4.49	447.94	49900	1092.74	0.37
4.49	447.94	59900	1096.73	0.43
4.49	447.94	68400	1100.1	0.48
4.49	472.96	9900	1054.54	0.16
4.49	472.96	19900	1059.47	0.19
4.49	472.96	29900	1064.17	0.23
4.49	472.96	39900	1068.85	0.27
4.49	472.96	49900	1073.32	0.32
4.49	472.96	59900	1077.68	0.37
4.49	472.96	68400	1081.18	0.42

System: sodium chloride + water; phases: Liquid
Property: Mass density, kg/m3 (Liquid); method: Vibrating tube method
Molality, mol/kg of sodium chloride	Temperature, K	Pressure, kPa	Mass density, kg/m3	uncertainty
1.06	298.12	900	1038.78	0.08
1.06	298.12	9900	1042.49	0.1
1.06	298.12	19900	1046.61	0.12
1.06	298.12	29900	1050.58	0.15
1.06	298.12	39900	1054.45	0.18
1.06	298.12	49900	1058.27	0.22
1.06	298.12	59900	1061.93	0.26
1.06	298.12	68400	1065.11	0.3
1.06	323.07	900	1028.45	0.07
1.06	323.07	9900	1032.1	0.09
1.06	323.07	19900	1036.09	0.11
1.06	323.07	29900	1039.95	0.13
1.06	323.07	39900	1043.77	0.16
1.06	323.07	49900	1047.49	0.19
1.06	323.07	59900	1051.1	0.23
1.06	323.07	68400	1054.12	0.26
1.06	348.04	900	1014.93	0.07
1.06	348.04	9900	1018.61	0.08
1.06	348.04	19900	1022.67	0.09
1.06	348.04	29900	1026.61	0.11
1.06	348.04	39900	1030.49	0.13
1.06	348.04	49900	1034.25	0.15
1.06	348.04	59900	1037.94	0.18
1.06	348.04	68400	1041.08	0.21
1.06	372.99	900	998.89	0.07
1.06	372.99	9900	1002.77	0.07
1.06	372.99	19900	1007	0.07
1.06	372.99	29900	1011.16	0.08
1.06	372.99	39900	1015.15	0.09
1.06	372.99	49900	1019.09	0.11
1.06	372.99	59900	1022.88	0.13
1.06	372.99	68400	1026.09	0.15
1.06	397.97	900	980.42	0.08
1.06	397.97	9900	984.6	0.08
1.06	397.97	19900	989.13	0.08
1.06	397.97	29900	993.51	0.08
1.06	397.97	39900	997.76	0.07
1.06	397.97	49900	1002.02	0.07
1.06	397.97	59900	1006.01	0.08
1.06	397.97	68400	1009.32	0.1
1.06	422.94	900	959.71	0.09
1.06	422.94	9900	964.31	0.1
1.06	422.94	19900	969.29	0.11
1.06	422.94	29900	974.04	0.11
1.06	422.94	39900	978.6	0.12
1.06	422.94	49900	983.2	0.11
1.06	422.94	59900	987.46	0.11
1.06	422.94	68400	991.15	0.1
1.06	447.94	900	936.49	0.11
1.06	447.94	9900	941.64	0.13
1.06	447.94	19900	947.14	0.15
1.06	447.94	29900	952.41	0.16
1.06	447.94	39900	957.55	0.17
1.06	447.94	49900	962.42	0.18
1.06	447.94	59900	967.35	0.18
1.06	447.94	68400	971.22	0.18
1.06	472.96	9900	916.86	0.16
1.06	472.96	19900	923.12	0.19
1.06	472.96	29900	929	0.22
1.06	472.96	39900	934.76	0.24
1.06	472.96	49900	940.22	0.25
1.06	472.96	59900	945.52	0.26
1.06	472.96	68400	949.91	0.27
3.16	298.12	900	1111.08	0.11
3.16	298.12	9900	1114.33	0.16
3.16	298.12	19900	1117.89	0.22
3.16	298.12	29900	1121.4	0.29
3.16	298.12	39900	1124.91	0.36
3.16	298.12	49900	1128.21	0.43
3.16	298.12	59900	1131.46	0.5
3.16	298.12	68400	1134.29	0.57
3.16	323.07	900	1098.8	0.11
3.16	323.07	9900	1102.1	0.15
3.16	323.07	19900	1105.63	0.21
3.16	323.07	29900	1109.07	0.26
3.16	323.07	39900	1112.54	0.33
3.16	323.07	49900	1115.9	0.39
3.16	323.07	59900	1119.2	0.46
3.16	323.07	68400	1121.87	0.52
3.16	348.04	900	1084.57	0.1
3.16	348.04	9900	1087.94	0.14
3.16	348.04	19900	1091.54	0.19
3.16	348.04	29900	1095.09	0.24
3.16	348.04	39900	1098.65	0.29
3.16	348.04	49900	1101.95	0.35
3.16	348.04	59900	1105.34	0.41
3.16	348.04	68400	1108.22	0.47
3.16	372.99	900	1068.6	0.1
3.16	372.99	9900	1072.14	0.12
3.16	372.99	19900	1075.95	0.16
3.16	372.99	29900	1079.61	0.21
3.16	372.99	39900	1083.24	0.26
3.16	372.99	49900	1086.77	0.31
3.16	372.99	59900	1090.25	0.36
3.16	372.99	68400	1093.16	0.41
3.16	397.97	900	1051.16	0.09
3.16	397.97	9900	1054.84	0.11
3.16	397.97	19900	1058.92	0.14
3.16	397.97	29900	1062.79	0.18
3.16	397.97	39900	1066.63	0.22
3.16	397.97	49900	1070.44	0.26
3.16	397.97	59900	1074.07	0.31
3.16	397.97	68400	1077.08	0.35
3.16	422.94	900	1031.93	0.09
3.16	422.94	9900	1036.08	0.1
3.16	422.94	19900	1040.37	0.12
3.16	422.94	29900	1044.51	0.15
3.16	422.94	39900	1048.68	0.18
3.16	422.94	49900	1052.68	0.21
3.16	422.94	59900	1056.58	0.25
3.16	422.94	68400	1059.82	0.29
3.16	447.94	900	1010.87	0.09
3.16	447.94	9900	1015.28	0.09
3.16	447.94	19900	1020.13	0.1
3.16	447.94	29900	1024.61	0.12
3.16	447.94	39900	1029.15	0.14
3.16	447.94	49900	1033.43	0.16
3.16	447.94	59900	1037.71	0.19
3.16	447.94	68400	1041.14	0.22
3.16	472.96	9900	993.19	0.1
3.16	472.96	19900	998.47	0.09
3.16	472.96	29900	1003.47	0.09
3.16	472.96	39900	1008.45	0.11
3.16	472.96	49900	1013.17	0.12
3.16	472.96	59900	1017.78	0.14
3.16	472.96	68400	1021.53	0.16
6	298.12	900	1194.53	0.16
6	298.12	9900	1197.36	0.24
6	298.12	19900	1200.44	0.35
6	298.12	29900	1203.47	0.45
6	298.12	39900	1206.51	0.56
6	298.12	49900	1209.49	0.67
6	298.12	59900	1212.31	0.79
6	298.12	68400	1214.78	0.89
6	323.07	900	1180.58	0.15
6	323.07	9900	1183.46	0.23
6	323.07	19900	1186.57	0.33
6	323.07	29900	1189.69	0.42
6	323.07	39900	1192.73	0.53
6	323.07	49900	1195.77	0.63
6	323.07	59900	1198.7	0.74
6	323.07	68400	1201.09	0.83
6	348.04	900	1165.53	0.14
6	348.04	9900	1168.53	0.22
6	348.04	19900	1171.76	0.3
6	348.04	29900	1174.98	0.4
6	348.04	39900	1178.07	0.49
6	348.04	49900	1181.15	0.59
6	348.04	59900	1184.21	0.69
6	348.04	68400	1186.78	0.78
6	372.99	900	1149.58	0.13
6	372.99	9900	1152.7	0.2
6	372.99	19900	1156.09	0.28
6	372.99	29900	1159.48	0.37
6	372.99	39900	1162.74	0.45
6	372.99	49900	1165.95	0.54
6	372.99	59900	1169	0.64
6	372.99	68400	1171.6	0.72
6	397.97	900	1132.48	0.13
6	397.97	9900	1135.74	0.19
6	397.97	19900	1139.35	0.26
6	397.97	29900	1142.8	0.33
6	397.97	39900	1146.27	0.41
6	397.97	49900	1149.66	0.5
6	397.97	59900	1152.86	0.58
6	397.97	68400	1155.61	0.66
6	422.94	900	1114.2	0.12
6	422.94	9900	1117.84	0.17
6	422.94	19900	1121.56	0.24
6	422.94	29900	1125.33	0.3
6	422.94	39900	1128.98	0.37
6	422.94	49900	1132.56	0.45
6	422.94	59900	1136.03	0.53
6	422.94	68400	1138.92	0.6
6	447.94	900	1094.62	0.12
6	447.94	9900	1098.38	0.16
6	447.94	19900	1102.62	0.22
6	447.94	29900	1106.53	0.27
6	447.94	39900	1110.46	0.33
6	447.94	49900	1114.27	0.4
6	447.94	59900	1118.04	0.47
6	447.94	68400	1121.1	0.53
6	472.96	9900	1078.2	0.15
6	472.96	19900	1082.67	0.2
6	472.96	29900	1087.01	0.25
6	472.96	39900	1091.28	0.3
6	472.96	49900	1095.39	0.36
6	472.96	59900	1099.39	0.42
6	472.96	68400	1102.68	0.47

System: potassium iodide + water; phases: Liquid
Property: Mass density, kg/m3 (Liquid); method: Vibrating tube method
Molality, mol/kg of potassium iodide	Temperature, K	Pressure, kPa	Mass density, kg/m3	uncertainty
0.669	283.15	1050	1078.98	0.14
0.669	283.15	10020	1083.16	0.17
0.669	283.15	19970	1087.75	0.21
0.669	283.15	29900	1092.18	0.26
0.669	283.15	39830	1096.51	0.31
0.669	283.15	49760	1100.74	0.36
0.669	283.15	59680	1104.92	0.43
0.669	283.15	68120	1108.52	0.48
0.669	298.12	1050	1074.75	0.15
0.669	298.12	10020	1078.81	0.17
0.669	298.12	19970	1083.04	0.21
0.669	298.12	29900	1087.37	0.25
0.669	298.12	39830	1091.56	0.3
0.669	298.12	49760	1095.69	0.35
0.669	298.12	59680	1099.67	0.41
0.669	298.12	68120	1103	0.46
0.669	323.07	1050	1064.04	0.14
0.669	323.07	10020	1067.95	0.16
0.669	323.07	19970	1072.19	0.19
0.669	323.07	29900	1076.42	0.23
0.669	323.07	39830	1080.45	0.27
0.669	323.07	49760	1084.42	0.32
0.669	323.07	59680	1088.3	0.37
0.669	323.07	68120	1091.53	0.42
0.669	348.04	1050	1049.72	0.14
0.669	348.04	10020	1053.73	0.15
0.669	348.04	19970	1057.99	0.17
0.669	348.04	29900	1062.23	0.2
0.669	348.04	39830	1066.38	0.24
0.669	348.04	49760	1070.32	0.28
0.669	348.04	59680	1074.35	0.33
0.669	348.04	68120	1077.66	0.37
0.669	372.99	1050	1032.6	0.13
0.669	372.99	10020	1036.79	0.14
0.669	372.99	19970	1041.3	0.16
0.669	372.99	29900	1045.73	0.18
0.669	372.99	39830	1050.01	0.21
0.669	372.99	49760	1054.18	0.24
0.669	372.99	59680	1058.24	0.27
0.669	372.99	68120	1061.64	0.31
0.669	397.97	1050	1012.71	0.13
0.669	397.97	10020	1017.19	0.13
0.669	397.97	19970	1022.06	0.14
0.669	397.97	29900	1026.71	0.15
0.669	397.97	39830	1031.29	0.17
0.669	397.97	49760	1035.78	0.19
0.669	397.97	59680	1040.1	0.22
0.669	397.97	68120	1043.65	0.25
0.669	422.94	1050	990.31	0.13
0.669	422.94	10020	995.34	0.13
0.669	422.94	19970	1000.61	0.13
0.669	422.94	29900	1005.73	0.13
0.669	422.94	39830	1010.72	0.14
0.669	422.94	49760	1015.55	0.15
0.669	422.94	59680	1020.17	0.17
0.669	422.94	68120	1024	0.19
0.669	447.94	1050	965.35	0.14
0.669	447.94	10020	970.94	0.15
0.669	447.94	19970	976.95	0.15
0.669	447.94	29900	982.65	0.15
0.669	447.94	39830	988.1	0.15
0.669	447.94	49760	993.34	0.14
0.669	447.94	59680	998.49	0.14
0.669	447.94	68120	1002.64	0.14
0.669	472.96	10020	944.19	0.17
0.669	472.96	19970	950.96	0.19
0.669	472.96	29900	957.4	0.2
0.669	472.96	39830	963.57	0.2
0.669	472.96	49760	969.44	0.2
0.669	472.96	59680	975.11	0.2
0.669	472.96	68120	979.68	0.19
0.9	298.12	1050	1100.27	0.15
0.9	298.12	10020	1104.27	0.19
0.9	298.12	19970	1108.67	0.24
0.9	298.12	29900	1112.93	0.3
0.9	298.12	39830	1117.15	0.36
0.9	298.12	49760	1121.3	0.43
0.9	298.12	59680	1125.31	0.5
0.9	298.12	68120	1128.62	0.56
0.9	323.07	1050	1088.99	0.15
0.9	323.07	10020	1092.94	0.18
0.9	323.07	19970	1097.21	0.22
0.9	323.07	29900	1101.41	0.27
0.9	323.07	39830	1105.46	0.33
0.9	323.07	49760	1109.41	0.39
0.9	323.07	59680	1113.37	0.46
0.9	323.07	68120	1116.58	0.51
0.9	348.04	1050	1074.24	0.14
0.9	348.04	10020	1078.29	0.17
0.9	348.04	19970	1082.62	0.2
0.9	348.04	29900	1086.89	0.25
0.9	348.04	39830	1091.06	0.3
0.9	348.04	49760	1095.03	0.35
0.9	348.04	59680	1099.04	0.41
0.9	348.04	68120	1102.03	0.46
0.9	372.99	1050	1056.8	0.14
0.9	372.99	10020	1061.02	0.16
0.9	372.99	19970	1065.55	0.18
0.9	372.99	29900	1070.01	0.22
0.9	372.99	39830	1074.32	0.26
0.9	372.99	49760	1078.51	0.3
0.9	372.99	59680	1082.5	0.35
0.9	372.99	68120	1085.89	0.4
0.9	397.97	1050	1036.96	0.13
0.9	397.97	10020	1041.47	0.14
0.9	397.97	19970	1046.32	0.16
0.9	397.97	29900	1050.95	0.19
0.9	397.97	39830	1055.56	0.22
0.9	397.97	49760	1060.02	0.25
0.9	397.97	59680	1064.32	0.3
0.9	397.97	68120	1067.94	0.33
0.9	422.94	1050	1014.85	0.13
0.9	422.94	10020	1019.62	0.13
0.9	422.94	19970	1024.97	0.14
0.9	422.94	29900	1030.16	0.16
0.9	422.94	39830	1035.28	0.18
0.9	422.94	49760	1040.03	0.21
0.9	422.94	59680	1044.78	0.24
0.9	422.94	68120	1048.68	0.27
0.9	447.94	1050	990.56	0.13
0.9	447.94	10020	996.18	0.13
0.9	447.94	19970	1002.22	0.13
0.9	447.94	29900	1007.94	0.14
0.9	447.94	39830	1013.36	0.15
0.9	447.94	49760	1018.68	0.16
0.9	447.94	59680	1023.8	0.18
0.9	447.94	68120	1027.98	0.2
1.063	283.15	1050	1122.95	0.16
1.063	283.15	10020	1127.11	0.21
1.063	283.15	19970	1131.7	0.27
1.063	283.15	29900	1136.2	0.34
1.063	283.15	39830	1140.54	0.41
1.063	283.15	49760	1144.78	0.49
1.063	283.15	59680	1149.02	0.58
1.063	283.15	68120	1152.59	0.65
1.063	298.12	1050	1117.9	0.16
1.063	298.12	10020	1121.98	0.2
1.063	298.12	19970	1126.32	0.26
1.063	298.12	29900	1130.67	0.33
1.063	298.12	39830	1134.96	0.4
1.063	298.12	49760	1139.11	0.48
1.063	298.12	59680	1143.14	0.56
1.063	298.12	68120	1146.49	0.63
1.063	323.07	1050	1106.19	0.15
1.063	323.07	10020	1110.17	0.19
1.063	323.07	19970	1114.52	0.24
1.063	323.07	29900	1118.76	0.3
1.063	323.07	39830	1122.89	0.37
1.063	323.07	49760	1126.88	0.44
1.063	323.07	59680	1130.86	0.52
1.063	323.07	68120	1134.11	0.58
1.063	348.04	1050	1091.2	0.14
1.063	348.04	10020	1095.23	0.18
1.063	348.04	19970	1099.65	0.22
1.063	348.04	29900	1103.95	0.28
1.063	348.04	39830	1108.16	0.34
1.063	348.04	49760	1112.21	0.4
1.063	348.04	59680	1116.3	0.47
1.063	348.04	68120	1119.62	0.53
1.063	372.99	1050	1073.46	0.14
1.063	372.99	10020	1077.72	0.17
1.063	372.99	19970	1082.29	0.2
1.063	372.99	29900	1086.83	0.25
1.063	372.99	39830	1091.17	0.3
1.063	372.99	49760	1095.44	0.35
1.063	372.99	59680	1099.61	0.41
1.063	372.99	68120	1103.03	0.46
1.063	397.97	1050	1053.24	0.13
1.063	397.97	10020	1057.79	0.15
1.063	397.97	19970	1062.77	0.18
1.063	397.97	29900	1067.47	0.21
1.063	397.97	39830	1072.16	0.25
1.063	397.97	49760	1076.71	0.3
1.063	397.97	59680	1081.09	0.35
1.063	397.97	68120	1084.7	0.4
1.063	422.94	1050	1030.64	0.13
1.063	422.94	10020	1035.74	0.14
1.063	422.94	19970	1041.07	0.16
1.063	422.94	29900	1046.25	0.18
1.063	422.94	39830	1051.3	0.21
1.063	422.94	49760	1056.19	0.25
1.063	422.94	59680	1060.87	0.29
1.063	422.94	68120	1064.81	0.32
1.063	447.94	1050	1005.63	0.12
1.063	447.94	10020	1011.23	0.13
1.063	447.94	19970	1017.26	0.13
1.063	447.94	29900	1022.96	0.15
1.063	447.94	39830	1028.47	0.17
1.063	447.94	49760	1033.81	0.19
1.063	447.94	59680	1038.97	0.22
1.063	447.94	68120	1043.19	0.25
1.063	472.96	10020	984.84	0.14
1.063	472.96	19970	991.38	0.14
1.063	472.96	29900	997.97	0.13
1.063	472.96	39830	1004.2	0.13
1.063	472.96	49760	1010.14	0.15
1.063	472.96	59680	1015.81	0.16
1.063	472.96	68120	1020.4	0.18

System: water + calcium chloride; phases: Liquid
Property: Mass density, kg/m3 (Liquid); method: Vibrating tube method
Molality, mol/kg of calcium chloride	Temperature, K	Pressure, kPa	Mass density, kg/m3	uncertainty
1	283.15	1050	1087.02	0.12
1	283.15	10020	1090.65	0.16
1	283.15	19970	1094.63	0.21
1	283.15	29900	1098.56	0.26
1	283.15	39830	1102.39	0.31
1	283.15	49760	1106.11	0.38
1	283.15	59680	1109.84	0.44
1	283.15	68120	1113.04	0.5
1	298.12	1050	1082.37	0.12
1	298.12	10020	1085.93	0.16
1	298.12	19970	1089.7	0.2
1	298.12	29900	1093.48	0.25
1	298.12	39830	1097.27	0.3
1	298.12	49760	1100.95	0.36
1	298.12	59680	1104.52	0.42
1	298.12	68120	1107.46	0.48
1	323.07	1050	1072.02	0.12
1	323.07	10020	1075.48	0.15
1	323.07	19970	1079.27	0.19
1	323.07	29900	1082.99	0.23
1	323.07	39830	1086.62	0.28
1	323.07	49760	1090.1	0.33
1	323.07	59680	1093.62	0.38
1	323.07	68120	1096.56	0.43
1	348.04	1050	1058.99	0.11
1	348.04	10020	1062.51	0.14
1	348.04	19970	1066.31	0.17
1	348.04	29900	1070.05	0.2
1	348.04	39830	1073.75	0.25
1	348.04	49760	1077.29	0.29
1	348.04	59680	1080.87	0.34
1	348.04	68120	1083.78	0.39
1	372.99	1050	1043.73	0.11
1	372.99	10020	1047.42	0.13
1	372.99	19970	1051.39	0.15
1	372.99	29900	1055.27	0.18
1	372.99	39830	1059.05	0.21
1	372.99	49760	1062.77	0.25
1	372.99	59680	1066.34	0.29
1	372.99	68120	1069.39	0.33
1	397.97	1050	1026.22	0.11
1	397.97	10020	1030.11	0.12
1	397.97	19970	1034.38	0.13
1	397.97	29900	1038.38	0.15
1	397.97	39830	1042.42	0.18
1	397.97	49760	1046.36	0.21
1	397.97	59680	1050.19	0.24
1	397.97	68120	1053.29	0.27
1	422.94	1050	1006.8	0.1
1	422.94	10020	1011.09	0.11
1	422.94	19970	1015.62	0.11
1	422.94	29900	1020	0.13
1	422.94	39830	1024.3	0.14
1	422.94	49760	1028.53	0.16
1	422.94	59680	1032.62	0.19
1	422.94	68120	1036	0.21
1	447.94	1050	985.31	0.11
1	447.94	10020	989.96	0.11
1	447.94	19970	995.04	0.11
1	447.94	29900	999.9	0.11
1	447.94	39830	1004.57	0.11
1	447.94	49760	1009.07	0.12
1	447.94	59680	1013.53	0.14
1	447.94	68120	1017.15	0.15
1	472.96	10020	966.77	0.14
1	472.96	19970	972.43	0.14
1	472.96	29900	977.79	0.15
1	472.96	39830	983.04	0.14
1	472.96	49760	988.08	0.14
1	472.96	59680	992.91	0.13
1	472.96	68120	996.86	0.12
3	298.12	1050	1225.07	0.22
3	298.12	10020	1228.17	0.31
3	298.12	19970	1231.3	0.43
3	298.12	29900	1234.6	0.55
3	298.12	39830	1237.81	0.68
3	298.12	49760	1240.96	0.8
3	298.12	59680	1244	0.93
3	298.12	68120	1246.57	1.05
3	323.07	1050	1212.47	0.21
3	323.07	10020	1215.47	0.3
3	323.07	19970	1218.73	0.41
3	323.07	29900	1221.98	0.53
3	323.07	39830	1225.08	0.64
3	323.07	49760	1228.11	0.76
3	323.07	59680	1231.21	0.89
3	323.07	68120	1233.72	1
3	348.04	1050	1198.77	0.2
3	348.04	10020	1201.83	0.29
3	348.04	19970	1205.15	0.39
3	348.04	29900	1208.41	0.5
3	348.04	39830	1211.58	0.61
3	348.04	49760	1214.64	0.72
3	348.04	59680	1217.8	0.84
3	348.04	68120	1220.39	0.94
3	372.99	1050	1184.12	0.2
3	372.99	10020	1187.2	0.27
3	372.99	19970	1190.58	0.37
3	372.99	29900	1193.94	0.47
3	372.99	39830	1197.14	0.57
3	372.99	49760	1200.38	0.68
3	372.99	59680	1203.46	0.79
3	372.99	68120	1206.1	0.89
3	397.97	1050	1167.99	0.19
3	397.97	10020	1171.26	0.26
3	397.97	19970	1174.82	0.35
3	397.97	29900	1178.23	0.44
3	397.97	39830	1181.65	0.54
3	397.97	49760	1184.96	0.64
3	397.97	59680	1188.2	0.74
3	397.97	68120	1190.88	0.83
3	422.94	1050	1150.79	0.19
3	422.94	10020	1154.33	0.25
3	422.94	19970	1158.03	0.33
3	422.94	29900	1161.68	0.41
3	422.94	39830	1165.21	0.5
3	422.94	49760	1168.72	0.59
3	422.94	59680	1172.12	0.69
3	422.94	68120	1174.94	0.77
3	447.94	1050	1132.22	0.2
3	447.94	10020	1135.97	0.23
3	447.94	19970	1139.99	0.31
3	447.94	29900	1143.88	0.38
3	447.94	39830	1147.62	0.46
3	447.94	49760	1151.3	0.54
3	447.94	59680	1154.99	0.63
3	447.94	68120	1157.94	0.71
3	472.96	10020	1116.32	0.24
3	472.96	19970	1120.67	0.29
3	472.96	29900	1124.82	0.36
3	472.96	39830	1129.01	0.43
3	472.96	49760	1132.99	0.5
3	472.96	59680	1136.86	0.58
3	472.96	68120	1140.04	0.65
6	298.12	1050	1388	0.36
6	298.12	10020	1390.67	0.54
6	298.12	19970	1393.43	0.74
6	298.12	29900	1396.28	0.94
6	298.12	39830	1399.14	1.14
6	298.12	49760	1401.93	1.35
6	298.12	59680	1404.61	1.56
6	298.12	68120	1406.89	1.74
6	323.07	1050	1372.06	0.35
6	323.07	10020	1374.67	0.52
6	323.07	19970	1377.58	0.71
6	323.07	29900	1380.48	0.9
6	323.07	39830	1383.27	1.1
6	323.07	49760	1385.94	1.3
6	323.07	59680	1388.68	1.5
6	323.07	68120	1390.9	1.67
6	348.04	1050	1356.18	0.34
6	348.04	10020	1358.9	0.5
6	348.04	19970	1361.82	0.68
6	348.04	29900	1364.67	0.87
6	348.04	39830	1367.55	1.06
6	348.04	49760	1370.29	1.25
6	348.04	59680	1373.09	1.44
6	348.04	68120	1375.4	1.61
6	372.99	1050	1340.35	0.33
6	372.99	10020	1343.09	0.48
6	372.99	19970	1346.07	0.66
6	372.99	29900	1349.03	0.84
6	372.99	39830	1351.92	1.02
6	372.99	49760	1354.76	1.2
6	372.99	59680	1357.57	1.39
6	372.99	68120	1359.88	1.55
6	397.97	1050	1324.03	0.32
6	397.97	10020	1326.81	0.47
6	397.97	19970	1329.91	0.63
6	397.97	29900	1332.86	0.8
6	397.97	39830	1335.87	0.98
6	397.97	49760	1338.78	1.15
6	397.97	59680	1341.67	1.33
6	397.97	68120	1344	1.48
6	422.94	1050	1307.39	0.31
6	422.94	10020	1310.4	0.45
6	422.94	19970	1313.54	0.61
6	422.94	29900	1316.63	0.77
6	422.94	39830	1319.7	0.94
6	422.94	49760	1322.71	1.11
6	422.94	59680	1325.64	1.28
6	422.94	68120	1328.12	1.42
6	447.94	1050	1290.23	0.31
6	447.94	10020	1293.23	0.44
6	447.94	19970	1296.61	0.59
6	447.94	29900	1299.83	0.74
6	447.94	39830	1303.02	0.9
6	447.94	49760	1306.09	1.06
6	447.94	59680	1309.22	1.22
6	447.94	68120	1311.73	1.36
6	472.96	10020	1275.65	0.43
6	472.96	19970	1279.19	0.57
6	472.96	29900	1282.53	0.72
6	472.96	39830	1285.96	0.87
6	472.96	49760	1289.19	1.02
6	472.96	59680	1292.45	1.17
6	472.96	68120	1295.04	1.31

System: water + magnesium chloride; phases: Liquid
Property: Mass density, kg/m3 (Liquid); method: Vibrating tube method
Molality, mol/kg of magnesium chloride	Temperature, K	Pressure, kPa	Mass density, kg/m3	uncertainty
1	283.15	1050	1074.73	0.11
1	283.15	10020	1078.32	0.14
1	283.15	19970	1082.31	0.18
1	283.15	29900	1086.21	0.25
1	283.15	39830	1090.04	0.29
1	283.15	49760	1093.73	0.33
1	283.15	59680	1097.42	0.39
1	283.15	68120	1100.57	0.44
1	298.12	1050	1070.86	0.11
1	298.12	10020	1074.43	0.13
1	298.12	19970	1078.17	0.17
1	298.12	29900	1081.96	0.21
1	298.12	39830	1085.7	0.26
1	298.12	49760	1089.34	0.32
1	298.12	59680	1092.83	0.37
1	298.12	68120	1095.78	0.42
1	323.07	1050	1061.56	0.1
1	323.07	10020	1065.03	0.13
1	323.07	19970	1068.73	0.16
1	323.07	29900	1072.46	0.19
1	323.07	39830	1076	0.23
1	323.07	49760	1079.49	0.29
1	323.07	59680	1082.98	0.34
1	323.07	68120	1085.82	0.38
1	348.04	1050	1049.32	0.1
1	348.04	10020	1052.8	0.12
1	348.04	19970	1056.56	0.14
1	348.04	29900	1060.31	0.17
1	348.04	39830	1063.92	0.2
1	348.04	49760	1067.47	0.25
1	348.04	59680	1070.97	0.3
1	348.04	68120	1073.88	0.34
1	372.99	1050	1034.76	0.1
1	372.99	10020	1038.36	0.11
1	372.99	19970	1042.33	0.13
1	372.99	29900	1046.17	0.14
1	372.99	39830	1049.91	0.17
1	372.99	49760	1053.59	0.22
1	372.99	59680	1057.17	0.25
1	372.99	68120	1060.13	0.29
1	397.97	1050	1017.83	0.09
1	397.97	10020	1021.72	0.1
1	397.97	19970	1025.91	0.11
1	397.97	29900	1029.97	0.11
1	397.97	39830	1033.96	0.14
1	397.97	49760	1037.86	0.17
1	397.97	59680	1041.6	0.2
1	397.97	68120	1044.71	0.23
1	422.94	1050	999.03	0.09
1	422.94	10020	1003.28	0.09
1	422.94	19970	1007.77	0.1
1	422.94	29900	1012.16	0.08
1	422.94	39830	1016.47	0.1
1	422.94	49760	1020.62	0.13
1	422.94	59680	1024.61	0.15
1	422.94	68120	1027.95	0.17
1	447.94	10020	982.73	0.11
1	447.94	19970	987.82	0.11
1	447.94	29900	992.59	0.08
1	447.94	39830	997.27	0.08
1	447.94	49760	1001.73	0.1
1	447.94	59680	1006.15	0.11
1	447.94	68120	1009.73	0.12
1	472.96	10020	960.31	0.14
1	472.96	19970	965.92	0.14
1	472.96	29900	971.25	0.13
1	472.96	39830	976.5	0.13
1	472.96	49760	981.41	0.15
1	472.96	59680	986.2	0.14
1	472.96	68120	990.1	0.13
3	283.15	1100	1200.48	0.17
3	283.15	10100	1203.26	0.26
3	283.15	20100	1206.45	0.36
3	283.15	30100	1209.48	0.47
3	283.15	40100	1212.45	0.58
3	283.15	50100	1215.49	0.69
3	283.15	60100	1218.46	0.81
3	283.15	68600	1220.98	0.91
3	298.12	1100	1194.98	0.16
3	298.12	10100	1197.76	0.25
3	298.12	20100	1200.84	0.35
3	298.12	30100	1203.93	0.46
3	298.12	40100	1206.91	0.56
3	298.12	50100	1209.79	0.68
3	298.12	60100	1212.66	0.79
3	298.12	68600	1215.18	0.89
3	323.07	1100	1185.53	0.16
3	323.07	10100	1188.36	0.24
3	323.07	20100	1191.36	0.34
3	323.07	30100	1194.33	0.44
3	323.07	40100	1197.32	0.54
3	323.07	50100	1200.25	0.65
3	323.07	60100	1203.13	0.76
3	323.07	68600	1205.42	0.85
3	348.04	1100	1174.63	0.16
3	348.04	10100	1177.48	0.23
3	348.04	20100	1180.55	0.32
3	348.04	30100	1183.56	0.42
3	348.04	40100	1186.6	0.51
3	348.04	50100	1189.47	0.61
3	348.04	60100	1192.42	0.72
3	348.04	68600	1194.89	0.81
3	372.99	1100	1162.6	0.15
3	372.99	10100	1165.51	0.22
3	372.99	20100	1168.64	0.3
3	372.99	30100	1171.77	0.39
3	372.99	40100	1174.82	0.49
3	372.99	50100	1177.87	0.58
3	372.99	60100	1180.77	0.68
3	372.99	68600	1183.21	0.77
3	397.97	1100	1149.22	0.15
3	397.97	10100	1152.27	0.21
3	397.97	20100	1155.47	0.29
3	397.97	30100	1158.76	0.37
3	397.97	40100	1162.02	0.46
3	397.97	50100	1165.1	0.54
3	397.97	60100	1168.09	0.64
3	397.97	68600	1170.63	0.72
3	422.94	1100	1134.62	0.14
3	422.94	10100	1137.91	0.2
3	422.94	20100	1141.36	0.27
3	422.94	30100	1144.67	0.34
3	422.94	40100	1147.96	0.42
3	422.94	50100	1151.23	0.51
3	422.94	60100	1154.39	0.59
3	422.94	68600	1157.07	0.67
3	447.94	1100	1118.93	0.14
3	447.94	10100	1122.27	0.19
3	447.94	20100	1126	0.25
3	447.94	30100	1129.62	0.32
3	447.94	40100	1133.07	0.39
3	447.94	50100	1136.51	0.47
3	447.94	60100	1139.92	0.55
3	447.94	68600	1142.62	0.62
3	472.96	10100	1105.72	0.2
3	472.96	20100	1109.63	0.24
3	472.96	30100	1113.5	0.3
3	472.96	40100	1117.27	0.37
3	472.96	50100	1120.96	0.44
3	472.96	60100	1124.6	0.51
3	472.96	68600	1127.48	0.57
5	298.12	1050	1298.01	0.21
5	298.12	10020	1300.39	0.35
5	298.12	19970	1302.84	0.5
5	298.12	29900	1305.37	0.65
5	298.12	39830	1307.91	0.81
5	298.12	49760	1310.34	0.97
5	298.12	59680	1312.81	1.13
5	298.12	68120	1314.82	1.27
5	323.07	1050	1288.53	0.21
5	323.07	10020	1290.86	0.34
5	323.07	19970	1293.39	0.48
5	323.07	29900	1295.97	0.63
5	323.07	39830	1298.44	0.79
5	323.07	49760	1300.8	0.94
5	323.07	59680	1303.27	1.1
5	323.07	68120	1305.22	1.24
5	348.04	1050	1278.25	0.2
5	348.04	10020	1280.63	0.33
5	348.04	19970	1283.18	0.47
5	348.04	29900	1285.71	0.61
5	348.04	39830	1288.26	0.76
5	348.04	49760	1290.69	0.91
5	348.04	59680	1293.17	1.07
5	348.04	68120	1295.26	1.2
5	372.99	1050	1267.42	0.2
5	372.99	10020	1269.83	0.32
5	372.99	19970	1272.48	0.45
5	372.99	29900	1275.12	0.59
5	372.99	39830	1277.64	0.74
5	372.99	49760	1280.15	0.88
5	372.99	59680	1282.6	1.03
5	372.99	68120	1284.68	1.16
5	397.97	1050	1255.66	0.2
5	397.97	10020	1258.16	0.31
5	397.97	19970	1260.88	0.44
5	397.97	29900	1263.46	0.57
5	397.97	39830	1266.15	0.71
5	397.97	49760	1268.74	0.85
5	397.97	59680	1271.25	0.99
5	397.97	68120	1273.36	1.11
5	422.94	1050	1243.3	0.19
5	422.94	10020	1245.98	0.3
5	422.94	19970	1248.69	0.42
5	422.94	29900	1251.46	0.55
5	422.94	39830	1254.16	0.68
5	422.94	49760	1256.84	0.82
5	422.94	59680	1259.41	0.95
5	422.94	68120	1261.6	1.07
5	447.94	1050	1230.19	0.19
5	447.94	10020	1232.81	0.29
5	447.94	19970	1235.76	0.41
5	447.94	29900	1238.61	0.53
5	447.94	39830	1241.42	0.66
5	447.94	49760	1244.17	0.79
5	447.94	59680	1246.88	0.92
5	447.94	68120	1249.11	1.03
5	472.96	10020	1219.23	0.29
5	472.96	19970	1222.3	0.4
5	472.96	29900	1225.27	0.52
5	472.96	39830	1228.28	0.64
5	472.96	49760	1231.18	0.76
5	472.96	59680	1234.02	0.88
5	472.96	68120	1236.38	0.99

System: aluminum chloride + water; phases: Liquid
Property: Mass density, kg/m3 (Liquid); method: Vibrating tube method
Molality, mol/kg of aluminum chloride	Temperature, K	Pressure, kPa	Mass density, kg/m3	uncertainty
1	298.12	900	1105.53	0.16
1	298.12	9900	1108.79	0.19
1	298.12	19900	1112.3	0.25
1	298.12	29900	1115.82	0.3
1	298.12	39900	1119.28	0.37
1	298.12	49900	1122.69	0.43
1	298.12	59900	1125.95	0.5
1	298.12	68400	1128.83	0.57
1	323.07	900	1096.76	0.15
1	323.07	9900	1099.96	0.19
1	323.07	19900	1103.44	0.23
1	323.07	29900	1106.84	0.29
1	323.07	39900	1110.31	0.35
1	323.07	49900	1113.67	0.41
1	323.07	59900	1116.93	0.47
1	323.07	68400	1119.6	0.53
1	348.04	900	1085.66	0.15
1	348.04	9900	1088.98	0.18
1	348.04	19900	1092.48	0.22
1	348.04	29900	1096.02	0.27
1	348.04	39900	1099.44	0.32
1	348.04	49900	1102.74	0.38
1	348.04	59900	1106.07	0.44
1	348.04	68400	1108.86	0.49
1	372.99	900	1072.64	0.15
1	372.99	9900	1075.97	0.17
1	372.99	19900	1079.63	0.21
1	372.99	29900	1083.19	0.25
1	372.99	39900	1086.72	0.29
1	372.99	49900	1090.2	0.34
1	372.99	59900	1093.58	0.4
1	372.99	68400	1096.34	0.45
2	298.12	900	1212.19	0.22
2	298.12	9900	1214.96	0.3
2	298.12	19900	1217.92	0.41
2	298.12	29900	1220.94	0.52
2	298.12	39900	1223.85	0.64
2	298.12	49900	1226.72	0.76
2	298.12	59900	1229.57	0.88
2	298.12	68400	1232.02	0.99
2	323.07	900	1203.26	0.21
2	323.07	9900	1206.02	0.3
2	323.07	19900	1209.01	0.4
2	323.07	29900	1211.9	0.51
2	323.07	39900	1214.88	0.62
2	323.07	49900	1217.8	0.73
2	323.07	59900	1220.6	0.85
2	323.07	68400	1222.88	0.95
2	348.04	900	1192.82	0.21
2	348.04	9900	1196	0.29
2	348.04	19900	1199.11	0.38
2	348.04	29900	1202.1	0.49
2	348.04	39900	1205.07	0.59
2	348.04	49900	1207.92	0.7
2	348.04	59900	1210.85	0.82
2	348.04	68400	1213.26	0.91
2	372.99	900	1181.64	0.2
2	372.99	9900	1184.73	0.28
2	372.99	19900	1187.9	0.37
2	372.99	29900	1191.11	0.47
2	372.99	39900	1194.19	0.57
2	372.99	49900	1197.22	0.67
2	372.99	59900	1200.14	0.78
2	372.99	68400	1202.66	0.87

System: potassium chloride + sodium chloride + water; phases: Liquid
Fixed: Molality, mol/kg of potassium chloride = 0.1428
Fixed: Molality, mol/kg of sodium chloride = 0.9072
Property: Mass density, kg/m3 (Liquid); method: Vibrating tube method
Temperature, K	Pressure, kPa	Mass density, kg/m3	uncertainty
283.15	1050	1043.91	0.07
283.15	10020	1047.73	0.09
283.15	19970	1051.89	0.12
283.15	29900	1056.06	0.16
283.15	39830	1060.03	0.19
283.15	49760	1063.89	0.24
283.15	59680	1067.81	0.28
283.15	68120	1071.08	0.32
298.12	1050	1039.58	0.07
298.12	10020	1043.32	0.09
298.12	19970	1047.29	0.12
298.12	29900	1051.2	0.15
298.12	39830	1055.12	0.18
298.12	49760	1058.94	0.22
298.12	59680	1062.65	0.26
298.12	68120	1065.77	0.3
323.07	1050	1029.2	0.07
323.07	10020	1032.84	0.08
323.07	19970	1036.81	0.1
323.07	29900	1040.67	0.13
323.07	39830	1044.44	0.16
323.07	49760	1048.1	0.19
323.07	59680	1051.77	0.23
323.07	68120	1054.74	0.26
348.04	1050	1015.69	0.06
348.04	10020	1019.39	0.07
348.04	19970	1023.43	0.09
348.04	29900	1027.31	0.1
348.04	39830	1031.24	0.13
348.04	49760	1034.88	0.15
348.04	59680	1038.6	0.18
348.04	68120	1041.64	0.21
372.99	1050	999.54	0.06
372.99	10020	1003.46	0.06
372.99	19970	1007.66	0.07
372.99	29900	1011.73	0.08
372.99	39830	1015.75	0.09
372.99	49760	1019.66	0.11
372.99	59680	1023.46	0.13
372.99	68120	1026.61	0.15
397.97	1050	981.06	0.07
397.97	10020	985.22	0.07
397.97	19970	989.73	0.07
397.97	29900	994.12	0.07
397.97	39830	998.35	0.07
397.97	49760	1002.52	0.07
397.97	59680	1006.54	0.08
397.97	68120	1009.83	0.09
422.94	1050	960.34	0.09
422.94	10020	964.96	0.1
422.94	19970	969.88	0.11
422.94	29900	974.59	0.11
422.94	39830	979.23	0.11
422.94	49760	983.7	0.11
422.94	59680	988.02	0.1
422.94	68120	991.58	0.09
447.94	1050	937.36	0.1
447.94	10020	942.49	0.12
447.94	19970	948	0.14
447.94	29900	953.24	0.16
447.94	39830	958.29	0.17
447.94	49760	963.22	0.17
447.94	59680	967.97	0.17
447.94	68120	971.82	0.17
472.96	10020	917.64	0.16
472.96	19970	923.91	0.19
472.96	29900	929.85	0.21
472.96	39830	935.62	0.23
472.96	49760	941.09	0.25
472.96	59680	946.4	0.26
472.96	68120	950.72	0.26

System: potassium chloride + sodium chloride + water; phases: Liquid
Fixed: Molality, mol/kg of potassium chloride = 0.269
Fixed: Molality, mol/kg of sodium chloride = 1.71
Property: Mass density, kg/m3 (Liquid); method: Vibrating tube method
Temperature, K	Pressure, kPa	Mass density, kg/m3	uncertainty
298.12	920	1073.46	0.09
298.12	9920	1076.94	0.12
298.12	19920	1080.78	0.17
298.12	29920	1084.52	0.21
298.12	39920	1088.21	0.27
298.12	49920	1091.8	0.32
298.12	59920	1095.29	0.38
298.12	68420	1098.34	0.43
323.07	920	1062.21	0.08
323.07	9920	1065.64	0.11
323.07	19920	1069.4	0.15
323.07	29920	1073.08	0.19
323.07	39920	1076.77	0.24
323.07	49920	1080.31	0.29
323.07	59920	1083.8	0.34
323.07	68420	1086.65	0.39
348.04	920	1048.37	0.08
348.04	9920	1051.92	0.1
348.04	19920	1055.75	0.13
348.04	29920	1059.53	0.17
348.04	39920	1063.22	0.2
348.04	49920	1066.81	0.25
348.04	59920	1070.37	0.29
348.04	68420	1073.33	0.33
372.99	920	1032.5	0.07
372.99	9920	1036.21	0.09
372.99	19920	1040.2	0.11
372.99	29920	1044.24	0.14
372.99	39920	1048.05	0.17
372.99	49920	1051.76	0.2
372.99	59920	1055.37	0.24
372.99	68420	1058.46	0.28
397.97	920	1014.52	0.07
397.97	9920	1018.48	0.08
397.97	19920	1022.74	0.09
397.97	29920	1026.84	0.11
397.97	39920	1030.96	0.13
397.97	49920	1034.94	0.16
397.97	59920	1038.81	0.19
397.97	68420	1042	0.21
422.94	920	994.44	0.07
422.94	9920	998.81	0.07
422.94	19920	1003.42	0.07
422.94	29920	1007.9	0.08
422.94	39920	1012.29	0.09
422.94	49920	1016.57	0.11
422.94	59920	1020.69	0.13
422.94	68420	1024.12	0.15
447.94	920	972.49	0.09
447.94	9920	977.23	0.09
447.94	19920	982.4	0.1
447.94	29920	987.31	0.09
447.94	39920	992.12	0.09
447.94	49920	996.72	0.08
447.94	59920	1001.24	0.08
447.94	68420	1004.93	0.09
472.96	9920	953.84	0.12
472.96	19920	959.59	0.14
472.96	29920	965.06	0.15
472.96	39920	970.41	0.15
472.96	49920	975.5	0.15
472.96	59920	980.43	0.14
472.96	68420	984.46	0.14

System: potassium chloride + sodium chloride + water; phases: Liquid
Fixed: Molality, mol/kg of potassium chloride = 0.428
Fixed: Molality, mol/kg of sodium chloride = 2.72
Property: Mass density, kg/m3 (Liquid); method: Vibrating tube method
Temperature, K	Pressure, kPa	Mass density, kg/m3	uncertainty
298.12	920	1113.08	0.11
298.12	9920	1116.33	0.16
298.12	19920	1119.88	0.23
298.12	29920	1123.39	0.29
298.12	39920	1126.85	0.36
298.12	49920	1130.25	0.44
298.12	59920	1133.5	0.51
298.12	68420	1136.42	0.58
323.07	920	1100.94	0.11
323.07	9920	1104.19	0.15
323.07	19920	1107.71	0.21
323.07	29920	1111.16	0.27
323.07	39920	1114.67	0.33
323.07	49920	1118.08	0.4
323.07	59920	1121.33	0.47
323.07	68420	1124.04	0.53
348.04	920	1086.8	0.1
348.04	9920	1090.12	0.14
348.04	19920	1093.72	0.19
348.04	29920	1097.3	0.24
348.04	39920	1100.82	0.3
348.04	49920	1104.22	0.36
348.04	59920	1107.6	0.42
348.04	68420	1110.43	0.48
372.99	920	1070.97	0.09
372.99	9920	1074.45	0.13
372.99	19920	1078.26	0.17
372.99	29920	1082.01	0.21
372.99	39920	1085.59	0.26
372.99	49920	1089.17	0.31
372.99	59920	1092.7	0.37
372.99	68420	1095.56	0.42
397.97	920	1053.46	0.09
397.97	9920	1057.19	0.11
397.97	19920	1061.17	0.14
397.97	29920	1065.09	0.18
397.97	39920	1068.93	0.22
397.97	49920	1072.73	0.27
397.97	59920	1076.36	0.32
397.97	68420	1079.37	0.36
422.94	920	1034.07	0.08
422.94	9920	1038.17	0.1
422.94	19920	1042.46	0.12
422.94	29920	1046.7	0.15
422.94	39920	1050.91	0.18
422.94	49920	1054.81	0.22
422.94	59920	1058.75	0.26
422.94	68420	1062	0.3
447.94	920	1013.19	0.08
447.94	9920	1017.6	0.09
447.94	19920	1022.35	0.1
447.94	29920	1026.97	0.12
447.94	39920	1031.42	0.14
447.94	49920	1035.74	0.17
447.94	59920	1039.97	0.2
447.94	68420	1043.4	0.23
472.96	9920	994.68	0.09
472.96	19920	999.91	0.08
472.96	29920	1005.05	0.09
472.96	39920	1009.93	0.1
472.96	49920	1014.65	0.12
472.96	59920	1019.26	0.14
472.96	68420	1022.96	0.16

System: potassium chloride + sodium chloride + water; phases: Liquid
Fixed: Molality, mol/kg of potassium chloride = 0.673
Fixed: Molality, mol/kg of sodium chloride = 4.28
Property: Mass density, kg/m3 (Liquid); method: Vibrating tube method
Temperature, K	Pressure, kPa	Mass density, kg/m3	uncertainty
298.12	920	1168.01	0.14
298.12	9920	1170.96	0.22
298.12	19920	1174.22	0.31
298.12	29920	1177.43	0.4
298.12	39920	1180.64	0.5
298.12	49920	1183.74	0.6
298.12	59920	1186.74	0.7
298.12	68420	1189.37	0.79
323.07	920	1154.75	0.14
323.07	9920	1157.75	0.21
323.07	19920	1161.03	0.29
323.07	29920	1164.27	0.38
323.07	39920	1167.54	0.47
323.07	49920	1170.65	0.56
323.07	59920	1173.7	0.65
323.07	68420	1176.22	0.74
348.04	920	1140.17	0.13
348.04	9920	1143.25	0.19
348.04	19920	1146.65	0.27
348.04	29920	1149.94	0.35
348.04	39920	1153.21	0.43
348.04	49920	1156.41	0.52
348.04	59920	1159.59	0.61
348.04	68420	1162.24	0.68
372.99	920	1124.41	0.12
372.99	9920	1127.6	0.18
372.99	19920	1131.16	0.25
372.99	29920	1134.67	0.32
372.99	39920	1138.06	0.39
372.99	49920	1141.34	0.47
372.99	59920	1144.61	0.55
372.99	68420	1147.28	0.63
397.97	920	1107.25	0.11
397.97	9920	1110.73	0.16
397.97	19920	1114.41	0.22
397.97	29920	1118.04	0.29
397.97	39920	1121.63	0.35
397.97	49920	1125.14	0.42
397.97	59920	1128.57	0.5
397.97	68420	1131.38	0.56
422.94	920	1088.67	0.11
422.94	9920	1092.44	0.15
422.94	19920	1096.37	0.2
422.94	29920	1100.22	0.26
422.94	39920	1104.04	0.31
422.94	49920	1107.79	0.38
422.94	59920	1111.39	0.44
422.94	68420	1114.39	0.5
447.94	920	1068.86	0.11
447.94	9920	1072.83	0.14
447.94	19920	1077.2	0.18
447.94	29920	1081.38	0.22
447.94	39920	1085.48	0.27
447.94	49920	1089.45	0.33
447.94	59920	1093.35	0.39
447.94	68420	1096.53	0.44
472.96	9920	1052.13	0.13
472.96	19920	1056.87	0.16
472.96	29920	1061.38	0.2
472.96	39920	1065.92	0.24
472.96	49920	1070.19	0.28
472.96	59920	1074.41	0.33
472.96	68420	1077.83	0.38
