Measured thermophysical data. Densities and Viscosities of Naphthalen-1-ol, Naphthalen-2-ol, and 1-Aminonaphthalene in the Solvents of Ethanol, Propan-1-ol, and Butan-1-ol
Source: J. Chem. Eng. Data, 2012, 10.1021/je201222n
Compound 1: 1-naphthol, C10H8O, InChI=1S/C10H8O/c11-10-7-3-5-8-4-1-2-6-9(8)10/h1-7,11H, purity 99.6%
Compound 2: 2-hydroxynaphthalene, C10H8O, InChI=1S/C10H8O/c11-10-6-5-8-3-1-2-4-9(8)7-10/h1-7,11H, purity 99.6%
Compound 3: 1-naphthalenamine, C10H9N, InChI=1S/C10H9N/c11-10-7-3-5-8-4-1-2-6-9(8)10/h1-7H,11H2, purity 99.6%
Compound 4: ethanol, C2H6O, InChI=1S/C2H6O/c1-2-3/h3H,2H2,1H3, purity 99.7%
Compound 5: propan-1-ol, C3H8O, InChI=1S/C3H8O/c1-2-3-4/h4H,2-3H2,1H3, purity 99.5%
Compound 6: butan-1-ol, C4H10O, InChI=1S/C4H10O/c1-2-3-4-5/h5H,2-4H2,1H3, purity 99.5%

System: ethanol; phases: Liquid
Fixed: Pressure, kPa = 101
Property: Viscosity, Pa*s (Liquid); method: CAPTUB::UFactor:4
Temperature, K	Viscosity, Pa*s	uncertainty
293.15	0.001211	3.2e-05
303.15	0.000998	2.9e-05
313.15	0.000832	2.6e-05
323.15	0.000688	2.4e-05
333.15	0.000581	2.3e-05

System: ethanol; phases: Liquid
Fixed: Pressure, kPa = 101
Property: Mass density, kg/m3 (Liquid); method: Vibrating tube method
Temperature, K	Mass density, kg/m3	uncertainty
293.15	790.08	0.13
303.15	781	0.13
313.15	772.31	0.13
323.15	763.35	0.14
333.15	754.2	0.14

System: propan-1-ol; phases: Liquid
Fixed: Pressure, kPa = 101
Property: Viscosity, Pa*s (Liquid); method: CAPTUB::UFactor:4
Temperature, K	Viscosity, Pa*s	uncertainty
293.15	0.002192	5e-05
303.15	0.001726	4.1e-05
313.15	0.001373	3.5e-05
323.15	0.001102	3.1e-05
333.15	0.000898	2.7e-05

System: propan-1-ol; phases: Liquid
Fixed: Pressure, kPa = 101
Property: Mass density, kg/m3 (Liquid); method: Vibrating tube method
Temperature, K	Mass density, kg/m3	uncertainty
293.15	803.76	0.14
303.15	795.74	0.14
313.15	787.46	0.15
323.15	779.02	0.15
333.15	770.45	0.15

System: butan-1-ol; phases: Liquid
Fixed: Pressure, kPa = 101
Property: Viscosity, Pa*s (Liquid); method: CAPTUB::UFactor:4
Temperature, K	Viscosity, Pa*s	uncertainty
293.15	0.002929	6.6e-05
303.15	0.00226	5.2e-05
313.15	0.001769	4.2e-05
323.15	0.001414	3.6e-05
333.15	0.001143	3.1e-05

System: butan-1-ol; phases: Liquid
Fixed: Pressure, kPa = 101
Property: Mass density, kg/m3 (Liquid); method: Vibrating tube method
Temperature, K	Mass density, kg/m3	uncertainty
293.15	809.79	0.14
293.15	809.66	0.14
303.15	802.09	0.14
303.15	802.03	0.14
313.15	794.37	0.14
313.15	794.26	0.14
323.15	786.43	0.15
323.15	786.31	0.15
333.15	778.15	0.15
333.15	778.16	0.15

System: ethanol + 1-naphthol; phases: Liquid
Fixed: Pressure, kPa = 101
Property: Viscosity, Pa*s (Liquid); method: CAPTUB:UFactor:4
Temperature, K	Molality, mol/kg of 1-naphthol	Viscosity, Pa*s	uncertainty
293.15	0	0.001211	3.2e-05
293.15	0.6713	0.001425	3.6e-05
293.15	1.3855	0.001638	3.9e-05
293.15	2.1468	0.001885	4.4e-05
293.15	2.9599	0.002205	5e-05
293.15	3.8305	0.002538	5.8e-05
303.15	0	0.000998	2.9e-05
303.15	0.6713	0.001158	3.1e-05
303.15	1.3855	0.001337	3.4e-05
303.15	2.1468	0.001523	3.7e-05
303.15	2.9599	0.001733	4.1e-05
303.15	3.8305	0.001968	4.5e-05
313.15	0	0.000832	2.6e-05
313.15	0.6713	0.000964	2.8e-05
313.15	1.3855	0.001103	3e-05
313.15	2.1468	0.001251	3.3e-05
313.15	2.9599	0.001417	3.6e-05
313.15	3.8305	0.0016	3.9e-05
323.15	0	0.000688	2.4e-05
323.15	0.6713	0.000795	2.6e-05
323.15	1.3855	0.00091	2.8e-05
323.15	2.1468	0.001048	3e-05
323.15	2.9599	0.001186	3.2e-05
323.15	3.8305	0.001339	3.4e-05
333.15	0	0.000581	2.3e-05
333.15	0.6713	0.000675	2.4e-05
333.15	1.3855	0.000762	2.5e-05
333.15	2.1468	0.000862	2.7e-05
333.15	2.9599	0.000978	2.9e-05
333.15	3.8305	0.00109	3e-05

System: ethanol + 1-naphthol; phases: Liquid
Fixed: Pressure, kPa = 101
Property: Mass density, kg/m3 (Liquid); method: Vibrating tube method
Temperature, K	Molality, mol/kg of 1-naphthol	Mass density, kg/m3	uncertainty
293.15	0	790.08	0.13
293.15	0.6713	817.52	0.12
293.15	1.3855	842.84	0.11
293.15	2.1468	866.16	0.1
293.15	2.9599	887.8	0.09
293.15	3.8305	907.39	0.09
303.15	0	781	0.13
303.15	0.6713	808.25	0.12
303.15	1.3855	833.39	0.11
303.15	2.1468	856.39	0.1
303.15	2.9599	877.79	0.1
303.15	3.8305	897.28	0.09
313.15	0	772.31	0.13
313.15	0.6713	799.45	0.12
313.15	1.3855	824.52	0.12
313.15	2.1468	847.51	0.11
313.15	2.9599	868.74	0.1
313.15	3.8305	888.3	0.1
323.15	0	763.35	0.14
323.15	0.6713	790.46	0.13
323.15	1.3855	815.48	0.12
323.15	2.1468	838.54	0.11
323.15	2.9599	859.75	0.1
323.15	3.8305	879.21	0.1
333.15	0	754.2	0.14
333.15	0.6713	781.26	0.13
333.15	1.3855	806.13	0.12
333.15	2.1468	829.15	0.11
333.15	2.9599	850.28	0.11
333.15	3.8305	869.84	0.1

System: propan-1-ol + 1-naphthol; phases: Liquid
Fixed: Pressure, kPa = 101
Property: Viscosity, Pa*s (Liquid); method: CAPTUB:UFactor:4
Temperature, K	Molality, mol/kg of 1-naphthol	Viscosity, Pa*s	uncertainty
293.15	0	0.002192	5e-05
293.15	0.6933	0.002564	5.8e-05
293.15	1.4469	0.002904	6.5e-05
293.15	2.2689	0.003349	7.5e-05
293.15	3.1693	0.003844	8.5e-05
293.15	4.1597	0.004423	9.7e-05
303.15	0	0.001726	4.1e-05
303.15	0.6933	0.001999	4.6e-05
303.15	1.4469	0.002245	5.1e-05
303.15	2.2689	0.002528	5.7e-05
303.15	3.1693	0.002863	6.5e-05
303.15	4.1597	0.00326	7.3e-05
313.15	0	0.001373	3.5e-05
313.15	0.6933	0.001592	3.9e-05
313.15	1.4469	0.001696	4.1e-05
313.15	2.2689	0.001867	4.4e-05
313.15	3.1693	0.002114	4.9e-05
313.15	4.1597	0.002396	5.5e-05
323.15	0	0.001102	3.1e-05
323.15	0.6933	0.001293	3.4e-05
323.15	1.4469	0.001403	3.5e-05
323.15	2.2689	0.001567	3.8e-05
323.15	3.1693	0.001748	4.1e-05
323.15	4.1597	0.001954	4.5e-05
333.15	0	0.000898	2.7e-05
333.15	0.6933	0.001058	3e-05
333.15	1.4469	0.001144	3.1e-05
333.15	2.2689	0.001277	3.3e-05
333.15	3.1693	0.001427	3.6e-05
333.15	4.1597	0.001599	3.9e-05

System: propan-1-ol + 1-naphthol; phases: Liquid
Fixed: Pressure, kPa = 101
Property: Mass density, kg/m3 (Liquid); method: Vibrating tube method
Temperature, K	Molality, mol/kg of 1-naphthol	Mass density, kg/m3	uncertainty
293.15	0	803.76	0.14
293.15	0.6933	829.81	0.13
293.15	1.4469	854.38	0.12
293.15	2.2689	877.51	0.12
293.15	3.1693	899.12	0.11
293.15	4.1597	919.22	0.1
303.15	0	795.74	0.14
303.15	0.6933	821.77	0.13
303.15	1.4469	846.26	0.13
303.15	2.2689	869.34	0.12
303.15	3.1693	890.95	0.11
303.15	4.1597	911.01	0.1
313.15	0	787.46	0.15
313.15	0.6933	813.48	0.14
313.15	1.4469	837.96	0.13
313.15	2.2689	861.02	0.12
313.15	3.1693	882.62	0.11
313.15	4.1597	902.71	0.11
323.15	0	779.02	0.15
323.15	0.6933	805.01	0.14
323.15	1.4469	829.48	0.13
323.15	2.2689	852.57	0.12
323.15	3.1693	874.18	0.12
323.15	4.1597	894.27	0.11
333.15	0	770.45	0.15
333.15	0.6933	796.43	0.14
333.15	1.4469	820.88	0.13
333.15	2.2689	843.94	0.13
333.15	3.1693	865.59	0.12
333.15	4.1597	885.73	0.11

System: butan-1-ol + 1-naphthol; phases: Liquid
Fixed: Pressure, kPa = 101
Property: Viscosity, Pa*s (Liquid); method: CAPTUB:UFactor:4
Temperature, K	Molality, mol/kg of 1-naphthol	Viscosity, Pa*s	uncertainty
293.15	0	0.002929	6.6e-05
293.15	0.5622	0.003278	7.3e-05
293.15	1.1732	0.0036	8e-05
293.15	1.8398	0.003953	8.7e-05
293.15	2.5698	0.004407	9.7e-05
293.15	3.3729	0.004888	0.000107
303.15	0	0.00226	5.2e-05
303.15	0.5622	0.002489	5.7e-05
303.15	1.1732	0.002719	6.2e-05
303.15	1.8398	0.002974	6.7e-05
303.15	2.5698	0.003265	7.3e-05
303.15	3.3729	0.00361	8e-05
313.15	0	0.001769	4.2e-05
313.15	0.5622	0.001952	4.5e-05
313.15	1.1732	0.002106	4.9e-05
313.15	1.8398	0.002289	5.2e-05
313.15	2.5698	0.002512	5.7e-05
313.15	3.3729	0.002745	6.2e-05
323.15	0	0.001414	3.6e-05
323.15	0.5622	0.00156	3.8e-05
323.15	1.1732	0.001685	4e-05
323.15	1.8398	0.001816	4.3e-05
323.15	2.5698	0.001966	4.6e-05
323.15	3.3729	0.00214	4.9e-05
333.15	0	0.001143	3.1e-05
333.15	0.5622	0.001264	3.3e-05
333.15	1.1732	0.001352	3.5e-05
333.15	1.8398	0.00147	3.7e-05
333.15	2.5698	0.001596	3.9e-05
333.15	3.3729	0.001742	4.1e-05

System: butan-1-ol + 1-naphthol; phases: Liquid
Fixed: Pressure, kPa = 101
Property: Mass density, kg/m3 (Liquid); method: Vibrating tube method
Temperature, K	Molality, mol/kg of 1-naphthol	Mass density, kg/m3	uncertainty
293.15	0	809.79	0.14
293.15	0.5622	830.86	0.13
293.15	1.1732	850.96	0.12
293.15	1.8398	870.28	0.12
293.15	2.5698	888.84	0.11
293.15	3.3729	906.73	0.11
303.15	0	802.09	0.14
303.15	0.5622	823.13	0.13
303.15	1.1732	843.15	0.13
303.15	1.8398	862.43	0.12
303.15	2.5698	880.99	0.11
303.15	3.3729	898.85	0.11
313.15	0	794.37	0.14
313.15	0.5622	815.32	0.14
313.15	1.1732	835.24	0.13
313.15	1.8398	854.48	0.12
313.15	2.5698	873.01	0.12
313.15	3.3729	890.87	0.11
323.15	0	786.43	0.15
323.15	0.5622	807.31	0.14
323.15	1.1732	827.19	0.13
323.15	1.8398	846.41	0.13
323.15	2.5698	864.94	0.12
323.15	3.3729	882.79	0.11
333.15	0	778.15	0.15
333.15	0.5622	799.01	0.14
333.15	1.1732	818.97	0.13
333.15	1.8398	838.18	0.13
333.15	2.5698	856.72	0.12
333.15	3.3729	874.61	0.12

System: ethanol + 2-hydroxynaphthalene; phases: Liquid
Fixed: Pressure, kPa = 101
Property: Viscosity, Pa*s (Liquid); method: CAPTUB:UFactor:4
Temperature, K	Molality, mol/kg of 2-hydroxynaphthalene	Viscosity, Pa*s	uncertainty
293.15	0	0.001211	3.2e-05
293.15	0.6713	0.001428	3.6e-05
293.15	1.3855	0.001684	4e-05
293.15	2.1468	0.001969	4.5e-05
293.15	2.9599	0.00228	5.2e-05
293.15	3.8305	0.002641	6e-05
303.15	0	0.000998	2.9e-05
303.15	0.6713	0.001162	3.1e-05
303.15	1.3855	0.001351	3.5e-05
303.15	2.1468	0.001588	3.9e-05
303.15	2.9599	0.001836	4.3e-05
303.15	3.8305	0.002093	4.8e-05
313.15	0	0.000832	2.6e-05
313.15	0.6713	0.000975	2.8e-05
313.15	1.3855	0.001125	3.1e-05
313.15	2.1468	0.001305	3.4e-05
313.15	2.9599	0.001487	3.7e-05
313.15	3.8305	0.001669	4e-05
323.15	0	0.000688	2.4e-05
323.15	0.6713	0.000801	2.6e-05
323.15	1.3855	0.00092	2.8e-05
323.15	2.1468	0.001063	3e-05
323.15	2.9599	0.001217	3.2e-05
323.15	3.8305	0.001374	3.5e-05
333.15	0	0.000581	2.3e-05
333.15	0.6713	0.000679	2.4e-05
333.15	1.3855	0.00078	2.6e-05
333.15	2.1468	0.000883	2.7e-05
333.15	2.9599	0.001002	2.9e-05
333.15	3.8305	0.001115	3.1e-05

System: ethanol + 2-hydroxynaphthalene; phases: Liquid
Fixed: Pressure, kPa = 101
Property: Mass density, kg/m3 (Liquid); method: Vibrating tube method
Temperature, K	Molality, mol/kg of 2-hydroxynaphthalene	Mass density, kg/m3	uncertainty
293.15	0	790.08	0.13
293.15	0.6713	816.59	0.12
293.15	1.3855	840.77	0.11
293.15	2.1468	862.96	0.1
293.15	2.9599	883.52	0.1
293.15	3.8305	902.64	0.09
303.15	0	781	0.13
303.15	0.6713	807.55	0.12
303.15	1.3855	831.79	0.11
303.15	2.1468	854.1	0.11
303.15	2.9599	874.82	0.1
303.15	3.8305	894.01	0.09
313.15	0	772.31	0.13
313.15	0.6713	798.91	0.12
313.15	1.3855	823.2	0.12
313.15	2.1468	845.66	0.11
313.15	2.9599	866.41	0.1
313.15	3.8305	885.65	0.1
323.15	0	763.35	0.14
323.15	0.6713	790.01	0.13
323.15	1.3855	814.37	0.12
323.15	2.1468	836.85	0.11
323.15	2.9599	857.68	0.1
323.15	3.8305	876.97	0.1
333.15	0	754.2	0.14
333.15	0.6713	780.94	0.13
333.15	1.3855	805.35	0.12
333.15	2.1468	827.89	0.11
333.15	2.9599	848.78	0.11
333.15	3.8305	868.15	0.1

System: propan-1-ol + 2-hydroxynaphthalene; phases: Liquid
Fixed: Pressure, kPa = 101
Property: Viscosity, Pa*s (Liquid); method: CAPTUB:UFactor:4
Temperature, K	Molality, mol/kg of 2-hydroxynaphthalene	Viscosity, Pa*s	uncertainty
293.15	0	0.002192	5e-05
293.15	0.6933	0.0026	5.9e-05
293.15	1.4469	0.003004	6.8e-05
293.15	2.2689	0.003529	7.9e-05
293.15	3.1693	0.004172	9.2e-05
293.15	4.1597	0.004954	0.000108
303.15	0	0.001726	4.1e-05
303.15	0.6933	0.002025	4.7e-05
303.15	1.4469	0.002288	5.2e-05
303.15	2.2689	0.002658	6e-05
303.15	3.1693	0.0031	7e-05
303.15	4.1597	0.00363	8.1e-05
313.15	0	0.001373	3.5e-05
313.15	0.6933	0.001635	3.9e-05
313.15	1.4469	0.001803	4.2e-05
313.15	2.2689	0.002062	4.8e-05
313.15	3.1693	0.00237	5.4e-05
313.15	4.1597	0.002764	6.2e-05
323.15	0	0.001102	3.1e-05
323.15	0.6933	0.001326	3.4e-05
323.15	1.4469	0.001447	3.6e-05
323.15	2.2689	0.001636	3.9e-05
323.15	3.1693	0.001869	4.4e-05
323.15	4.1597	0.002168	5e-05
333.15	0	0.000898	2.7e-05
333.15	0.6933	0.001091	3e-05
333.15	1.4469	0.001175	3.2e-05
333.15	2.2689	0.001322	3.4e-05
333.15	3.1693	0.001496	3.7e-05
333.15	4.1597	0.001707	4.1e-05

System: propan-1-ol + 2-hydroxynaphthalene; phases: Liquid
Fixed: Pressure, kPa = 101
Property: Mass density, kg/m3 (Liquid); method: Vibrating tube method
Temperature, K	Molality, mol/kg of 2-hydroxynaphthalene	Mass density, kg/m3	uncertainty
293.15	0	803.76	0.14
293.15	0.6933	829.4	0.13
293.15	1.4469	853.5	0.12
293.15	2.2689	876.11	0.12
293.15	3.1693	897.27	0.11
293.15	4.1597	917.15	0.1
303.15	0	795.74	0.14
303.15	0.6933	821.36	0.13
303.15	1.4469	845.45	0.13
303.15	2.2689	867.98	0.12
303.15	3.1693	889.16	0.11
303.15	4.1597	909.06	0.1
313.15	0	787.46	0.15
313.15	0.6933	813.09	0.14
313.15	1.4469	837.18	0.13
313.15	2.2689	859.75	0.12
313.15	3.1693	880.93	0.11
313.15	4.1597	900.87	0.11
323.15	0	779.02	0.15
323.15	0.6933	804.66	0.14
323.15	1.4469	828.77	0.13
323.15	2.2689	851.37	0.12
323.15	3.1693	872.58	0.12
323.15	4.1597	892.58	0.11
333.15	0	770.45	0.15
333.15	0.6933	796.1	0.14
333.15	1.4469	820.21	0.13
333.15	2.2689	842.83	0.13
333.15	3.1693	864.09	0.12
333.15	4.1597	884.13	0.11

System: butan-1-ol + 2-hydroxynaphthalene; phases: Liquid
Fixed: Pressure, kPa = 101
Property: Viscosity, Pa*s (Liquid); method: CAPTUB:UFactor:4
Temperature, K	Molality, mol/kg of 2-hydroxynaphthalene	Viscosity, Pa*s	uncertainty
293.15	0	0.002929	6.6e-05
293.15	0.5622	0.003344	7.5e-05
293.15	1.1732	0.003751	8.3e-05
293.15	1.8398	0.004242	9.3e-05
293.15	2.5698	0.004879	0.000107
293.15	3.3729	0.005596	0.000118
303.15	0	0.00226	5.2e-05
303.15	0.5622	0.002529	5.8e-05
303.15	1.1732	0.002808	6.3e-05
303.15	1.8398	0.00317	7.1e-05
303.15	2.5698	0.003582	8e-05
303.15	3.3729	0.004024	8.9e-05
313.15	0	0.001769	4.2e-05
313.15	0.5622	0.001974	4.6e-05
313.15	1.1732	0.002175	5e-05
313.15	1.8398	0.002421	5.5e-05
313.15	2.5698	0.002751	6.2e-05
313.15	3.3729	0.003144	7e-05
323.15	0	0.001414	3.6e-05
323.15	0.5622	0.001592	3.9e-05
323.15	1.1732	0.001712	4.1e-05
323.15	1.8398	0.001882	4.4e-05
323.15	2.5698	0.00211	4.9e-05
323.15	3.3729	0.002374	5.4e-05
333.15	0	0.001143	3.1e-05
333.15	0.5622	0.001277	3.3e-05
333.15	1.1732	0.001398	3.5e-05
333.15	1.8398	0.001556	3.8e-05
333.15	2.5698	0.001745	4.1e-05
333.15	3.3729	0.001953	4.5e-05

System: butan-1-ol + 2-hydroxynaphthalene; phases: Liquid
Fixed: Pressure, kPa = 101
Property: Mass density, kg/m3 (Liquid); method: Vibrating tube method
Temperature, K	Molality, mol/kg of 2-hydroxynaphthalene	Mass density, kg/m3	uncertainty
293.15	0	809.79	0.14
293.15	0.5622	830.23	0.13
293.15	1.1732	849.98	0.13
293.15	1.8398	869.08	0.12
293.15	2.5698	887.45	0.11
293.15	3.3729	905.02	0.11
303.15	0	802.09	0.14
303.15	0.5622	822.52	0.13
303.15	1.1732	842.25	0.13
303.15	1.8398	861.31	0.12
303.15	2.5698	879.67	0.11
303.15	3.3729	897.25	0.11
313.15	0	794.37	0.14
313.15	0.5622	814.76	0.14
313.15	1.1732	834.45	0.13
313.15	1.8398	853.46	0.12
313.15	2.5698	871.78	0.12
313.15	3.3729	889.37	0.11
323.15	0	786.43	0.15
323.15	0.5622	806.8	0.14
323.15	1.1732	826.45	0.13
323.15	1.8398	845.44	0.13
323.15	2.5698	863.78	0.12
323.15	3.3729	881.39	0.11
333.15	0	778.15	0.15
333.15	0.5622	798.53	0.14
333.15	1.1732	818.23	0.13
333.15	1.8398	837.25	0.13
333.15	2.5698	855.64	0.12
333.15	3.3729	873.28	0.12

System: ethanol + 1-naphthalenamine; phases: Liquid
Fixed: Pressure, kPa = 101
Property: Viscosity, Pa*s (Liquid); method: CAPTUB:UFactor:4
Temperature, K	Molality, mol/kg of 1-naphthalenamine	Viscosity, Pa*s	uncertainty
293.15	0	0.001211	3.2e-05
293.15	0.4996	0.001348	3.4e-05
293.15	0.9988	0.001454	3.6e-05
293.15	1.9975	0.0017	4e-05
293.15	2.9966	0.001987	4.6e-05
293.15	3.9949	0.002308	5.3e-05
293.15	4.9929	0.002667	6e-05
293.15	5.9924	0.003025	6.8e-05
303.15	0	0.000998	2.9e-05
303.15	0.4996	0.001094	3e-05
303.15	0.9988	0.001176	3.2e-05
303.15	1.9975	0.001362	3.5e-05
303.15	2.9966	0.00156	3.8e-05
303.15	3.9949	0.001786	4.2e-05
303.15	4.9929	0.002029	4.7e-05
303.15	5.9924	0.00227	5.2e-05
313.15	0	0.000832	2.6e-05
313.15	0.4996	0.000903	2.7e-05
313.15	0.9988	0.000966	2.8e-05
313.15	1.9975	0.001104	3.1e-05
313.15	2.9966	0.001251	3.3e-05
313.15	3.9949	0.00141	3.6e-05
313.15	4.9929	0.001587	3.9e-05
313.15	5.9924	0.001759	4.2e-05
323.15	0	0.000688	2.4e-05
323.15	0.4996	0.000745	2.5e-05
323.15	0.9988	0.000791	2.6e-05
323.15	1.9975	0.000899	2.7e-05
323.15	2.9966	0.001006	2.9e-05
323.15	3.9949	0.001121	3.1e-05
323.15	4.9929	0.001254	3.3e-05
323.15	5.9924	0.001377	3.5e-05
333.15	0	0.000581	2.3e-05
333.15	0.4996	0.000625	2.4e-05
333.15	0.9988	0.000663	2.4e-05
333.15	1.9975	0.000747	2.5e-05
333.15	2.9966	0.000832	2.6e-05
333.15	3.9949	0.000922	2.8e-05
333.15	4.9929	0.001021	2.9e-05
333.15	5.9924	0.001115	3.1e-05

System: ethanol + 1-naphthalenamine; phases: Liquid
Fixed: Pressure, kPa = 101
Property: Mass density, kg/m3 (Liquid); method: Vibrating tube method
Temperature, K	Molality, mol/kg of 1-naphthalenamine	Mass density, kg/m3	uncertainty
293.15	0	790.08	0.13
293.15	0.4996	809.42	0.12
293.15	0.9988	826.91	0.11
293.15	1.9975	856.99	0.1
293.15	2.9966	882.03	0.1
293.15	3.9949	903.36	0.09
293.15	4.9929	922.23	0.08
293.15	5.9924	938.63	0.08
303.15	0	781	0.13
303.15	0.4996	800.39	0.12
303.15	0.9988	817.97	0.12
303.15	1.9975	848	0.11
303.15	2.9966	873.42	0.1
303.15	3.9949	894.68	0.09
303.15	4.9929	913.66	0.09
303.15	5.9924	929.72	0.08
313.15	0	772.31	0.13
313.15	0.4996	791.75	0.13
313.15	0.9988	809.41	0.12
313.15	1.9975	839.69	0.11
313.15	2.9966	864.64	0.1
313.15	3.9949	885.71	0.1
313.15	4.9929	904.69	0.09
313.15	5.9924	921.15	0.09
323.15	0	763.35	0.14
323.15	0.4996	782.89	0.13
323.15	0.9988	800.36	0.12
323.15	1.9975	830.87	0.11
323.15	2.9966	855.75	0.11
323.15	3.9949	876.99	0.1
323.15	4.9929	895.99	0.09
323.15	5.9924	912.41	0.09
333.15	0	754.2	0.14
333.15	0.4996	773.73	0.13
333.15	0.9988	791.31	0.13
333.15	1.9975	821.59	0.12
333.15	2.9966	846.64	0.11
333.15	3.9949	867.66	0.1
333.15	4.9929	886.79	0.1
333.15	5.9924	903.3	0.09

System: propan-1-ol + 1-naphthalenamine; phases: Liquid
Fixed: Pressure, kPa = 101
Property: Viscosity, Pa*s (Liquid); method: CAPTUB:UFactor:4
Temperature, K	Molality, mol/kg of 1-naphthalenamine	Viscosity, Pa*s	uncertainty
293.15	0	0.002192	5e-05
293.15	0.4994	0.002371	5.4e-05
293.15	0.9984	0.002516	5.7e-05
293.15	1.9972	0.002846	6.4e-05
293.15	2.9954	0.00322	7.2e-05
293.15	3.9951	0.003628	8.1e-05
293.15	4.9939	0.004054	9e-05
293.15	5.9939	0.004498	9.9e-05
303.15	0	0.001726	4.1e-05
303.15	0.4994	0.001836	4.3e-05
303.15	0.9984	0.001937	4.5e-05
303.15	1.9972	0.002154	5e-05
303.15	2.9954	0.002392	5.5e-05
303.15	3.9951	0.002662	6e-05
303.15	4.9939	0.002931	6.6e-05
303.15	5.9939	0.003222	7.2e-05
313.15	0	0.001373	3.5e-05
313.15	0.4994	0.001445	3.6e-05
313.15	0.9984	0.001518	3.7e-05
313.15	1.9972	0.001674	4e-05
313.15	2.9954	0.001839	4.3e-05
313.15	3.9951	0.00202	4.7e-05
313.15	4.9939	0.002211	5.1e-05
313.15	5.9939	0.002403	5.5e-05
323.15	0	0.001102	3.1e-05
323.15	0.4994	0.001153	3.1e-05
323.15	0.9984	0.00121	3.2e-05
323.15	1.9972	0.001324	3.4e-05
323.15	2.9954	0.001443	3.6e-05
323.15	3.9951	0.00157	3.8e-05
323.15	4.9939	0.0017	4.1e-05
323.15	5.9939	0.001838	4.3e-05
333.15	0	0.000898	2.7e-05
333.15	0.4994	0.000936	2.8e-05
333.15	0.9984	0.000981	2.9e-05
333.15	1.9972	0.001071	3e-05
333.15	2.9954	0.00116	3.1e-05
333.15	3.9951	0.001252	3.3e-05
333.15	4.9939	0.001355	3.5e-05
333.15	5.9939	0.001455	3.6e-05

System: propan-1-ol + 1-naphthalenamine; phases: Liquid
Fixed: Pressure, kPa = 101
Property: Mass density, kg/m3 (Liquid); method: Vibrating tube method
Temperature, K	Molality, mol/kg of 1-naphthalenamine	Mass density, kg/m3	uncertainty
293.15	0	803.76	0.14
293.15	0.4994	822	0.13
293.15	0.9984	838	0.13
293.15	1.9972	865.83	0.12
293.15	2.9954	888.9	0.11
293.15	3.9951	908.53	0.1
293.15	4.9939	925.53	0.1
293.15	5.9939	940.2	0.09
303.15	0	795.74	0.14
303.15	0.4994	813.59	0.14
303.15	0.9984	829.67	0.13
303.15	1.9972	857.43	0.12
303.15	2.9954	880.64	0.11
303.15	3.9951	900.29	0.11
303.15	4.9939	917.34	0.1
303.15	5.9939	932.1	0.1
313.15	0	787.46	0.15
313.15	0.4994	805.32	0.14
313.15	0.9984	821.45	0.13
313.15	1.9972	849.22	0.12
313.15	2.9954	872.27	0.12
313.15	3.9951	891.86	0.11
313.15	4.9939	908.95	0.1
313.15	5.9939	923.4	0.1
323.15	0	779.02	0.15
323.15	0.4994	796.95	0.14
323.15	0.9984	812.9	0.14
323.15	1.9972	840.6	0.13
323.15	2.9954	863.65	0.12
323.15	3.9951	883.35	0.11
323.15	4.9939	899.99	0.11
323.15	5.9939	914.74	0.1
333.15	0	770.45	0.15
333.15	0.4994	788.31	0.14
333.15	0.9984	804.25	0.14
333.15	1.9972	831.91	0.13
333.15	2.9954	854.94	0.12
333.15	3.9951	874.63	0.11
333.15	4.9939	891.39	0.11
333.15	5.9939	906.03	0.1

System: butan-1-ol + 1-naphthalenamine; phases: Liquid
Fixed: Pressure, kPa = 101
Property: Viscosity, Pa*s (Liquid); method: CAPTUB:UFactor:4
Temperature, K	Molality, mol/kg of 1-naphthalenamine	Viscosity, Pa*s	uncertainty
293.15	0	0.002929	6.6e-05
293.15	0.4997	0.003082	6.9e-05
293.15	0.9982	0.003202	7.2e-05
293.15	1.997	0.003539	7.9e-05
293.15	2.9964	0.003906	8.6e-05
293.15	3.9953	0.004311	9.5e-05
293.15	4.9944	0.004724	0.000103
293.15	5.9926	0.005193	0.000112
303.15	0	0.00226	5.2e-05
303.15	0.4997	0.002355	5.4e-05
303.15	0.9982	0.002427	5.5e-05
303.15	1.997	0.002641	6e-05
303.15	2.9964	0.002879	6.5e-05
303.15	3.9953	0.003134	7e-05
303.15	4.9944	0.00339	7.6e-05
303.15	5.9926	0.003681	8.2e-05
313.15	0	0.001769	4.2e-05
313.15	0.4997	0.001828	4.3e-05
313.15	0.9982	0.001878	4.4e-05
313.15	1.997	0.002019	4.7e-05
313.15	2.9964	0.002186	5e-05
313.15	3.9953	0.002355	5.4e-05
313.15	4.9944	0.002532	5.8e-05
313.15	5.9926	0.002719	6.2e-05
323.15	0	0.001414	3.6e-05
323.15	0.4997	0.001456	3.6e-05
323.15	0.9982	0.001494	3.7e-05
323.15	1.997	0.001596	3.9e-05
323.15	2.9964	0.001718	4.1e-05
323.15	3.9953	0.001839	4.3e-05
323.15	4.9944	0.001965	4.5e-05
323.15	5.9926	0.002097	4.8e-05
333.15	0	0.001143	3.1e-05
333.15	0.4997	0.001176	3.2e-05
333.15	0.9982	0.001207	3.2e-05
333.15	1.997	0.001283	3.3e-05
333.15	2.9964	0.001378	3.5e-05
333.15	3.9953	0.001469	3.7e-05
333.15	4.9944	0.001566	3.8e-05
333.15	5.9926	0.001663	4e-05

System: butan-1-ol + 1-naphthalenamine; phases: Liquid
Fixed: Pressure, kPa = 101
Property: Mass density, kg/m3 (Liquid); method: Vibrating tube method
Temperature, K	Molality, mol/kg of 1-naphthalenamine	Mass density, kg/m3	uncertainty
293.15	0	809.66	0.14
293.15	0.4997	827.04	0.13
293.15	0.9982	842.59	0.13
293.15	1.997	869.21	0.12
293.15	2.9964	891.09	0.11
293.15	3.9953	909.35	0.1
293.15	4.9944	924.85	0.1
293.15	5.9926	938.21	0.09
303.15	0	802.03	0.14
303.15	0.4997	819.38	0.14
303.15	0.9982	834.83	0.13
303.15	1.997	861.4	0.12
303.15	2.9964	883.19	0.11
303.15	3.9953	901.39	0.11
303.15	4.9944	916.91	0.1
303.15	5.9926	930.26	0.1
313.15	0	794.26	0.14
313.15	0.4997	811.58	0.14
313.15	0.9982	826.94	0.13
313.15	1.997	853.34	0.12
313.15	2.9964	875.17	0.12
313.15	3.9953	893.26	0.11
313.15	4.9944	908.96	0.1
313.15	5.9926	922.49	0.1
323.15	0	786.31	0.15
323.15	0.4997	803.57	0.14
323.15	0.9982	818.85	0.13
323.15	1.997	845.17	0.13
323.15	2.9964	866.81	0.12
323.15	3.9953	885.12	0.11
323.15	4.9944	900.78	0.11
323.15	5.9926	914.28	0.1
333.15	0	778.16	0.15
333.15	0.4997	795.39	0.14
333.15	0.9982	810.62	0.14
333.15	1.997	836.91	0.13
333.15	2.9964	858.57	0.12
333.15	3.9953	876.84	0.11
333.15	4.9944	892.36	0.11
333.15	5.9926	906.01	0.1
