Measured thermophysical data. Liquid Liquid Phase Equilibria of 1-Propanol + Water + n-Alcohol Ternary Systems at 298.15 K and Atmospheric Pressure
Source: J. Chem. Eng. Data, 2011, 10.1021/je2002539
Compound 1: water, H2O, InChI=1S/H2O/h1H2, purity 99.9%
Compound 2: propan-1-ol, C3H8O, InChI=1S/C3H8O/c1-2-3-4/h4H,2-3H2,1H3, purity 99.5%
Compound 3: pentan-1-ol, C5H12O, InChI=1S/C5H12O/c1-2-3-4-5-6/h6H,2-5H2,1H3, purity 99.5%
Compound 4: hexan-1-ol, C6H14O, InChI=1S/C6H14O/c1-2-3-4-5-6-7/h7H,2-6H2,1H3, purity 99.5%
Compound 5: octan-1-ol, C8H18O, InChI=1S/C8H18O/c1-2-3-4-5-6-7-8-9/h9H,2-8H2,1H3, purity 99.5%
Compound 6: nonan-1-ol, C9H20O, InChI=1S/C9H20O/c1-2-3-4-5-6-7-8-9-10/h10H,2-9H2,1H3, purity 99.5%
Compound 7: decan-1-ol, C10H22O, InChI=1S/C10H22O/c1-2-3-4-5-6-7-8-9-10-11/h11H,2-10H2,1H3, purity 99.5%
Compound 8: dodecan-1-ol, C12H26O, InChI=1S/C12H26O/c1-2-3-4-5-6-7-8-9-10-11-12-13/h13H,2-12H2,1H3, purity 99.5%

System: water; phases: Liquid
Property: Refractive index (Na D-line) (Liquid); method: Standard Abbe refractometry
Temperature, K	Pressure, kPa	Refractive index (Na D-line)	uncertainty
298.15	101.325	1.33248	0.00031

System: propan-1-ol; phases: Liquid
Property: Refractive index (Na D-line) (Liquid); method: Standard Abbe refractometry
Temperature, K	Pressure, kPa	Refractive index (Na D-line)	uncertainty
298.15	101.325	1.38305	0.00033

System: pentan-1-ol; phases: Liquid
Property: Refractive index (Na D-line) (Liquid); method: Standard Abbe refractometry
Temperature, K	Pressure, kPa	Refractive index (Na D-line)	uncertainty
298.15	101.325	1.40703	0.00033

System: hexan-1-ol; phases: Liquid
Property: Refractive index (Na D-line) (Liquid); method: Standard Abbe refractometry
Temperature, K	Pressure, kPa	Refractive index (Na D-line)	uncertainty
298.15	101.325	1.4158	0.00033

System: octan-1-ol; phases: Liquid
Property: Refractive index (Na D-line) (Liquid); method: Standard Abbe refractometry
Temperature, K	Pressure, kPa	Refractive index (Na D-line)	uncertainty
298.15	101.325	1.42695	0.00033

System: nonan-1-ol; phases: Liquid
Property: Refractive index (Na D-line) (Liquid); method: Standard Abbe refractometry
Temperature, K	Pressure, kPa	Refractive index (Na D-line)	uncertainty
298.15	101.325	1.43084	0.00033

System: decan-1-ol; phases: Liquid
Property: Refractive index (Na D-line) (Liquid); method: Standard Abbe refractometry
Temperature, K	Pressure, kPa	Refractive index (Na D-line)	uncertainty
298.15	101.325	1.43436	0.00033

System: dodecan-1-ol; phases: Liquid
Property: Refractive index (Na D-line) (Liquid); method: Standard Abbe refractometry
Temperature, K	Pressure, kPa	Refractive index (Na D-line)	uncertainty
298.15	101.325	1.44058	0.00033

System: propan-1-ol + pentan-1-ol + water; phases: Liquid mixture 1, Liquid mixture 2
Fixed: Pressure, kPa = 101
Fixed: Temperature, K = 298.15
Property: Mass fraction of propan-1-ol (Liquid mixture 1); method: Titration method
Mass fraction of water	Mass fraction of propan-1-ol	uncertainty
0.12	0.127	0.027
0.143	0.184	0.026
0.213	0.341	0.025
0.221	0.363	0.016
0.239	0.377	0.018
0.252	0.394	0.018
0.265	0.404	0.017
0.277	0.412	0.016
0.3	0.419	0.016
0.322	0.419	0.016
0.329	0.431	0.016
0.341	0.419	0.016
0.344	0.427	0.016
0.357	0.419	0.016
0.363	0.419	0.016
0.381	0.416	0.016
0.402	0.411	0.016
0.427	0.403	0.016
0.458	0.39	0.016
0.497	0.371	0.016
0.552	0.338	0.015
0.584	0.319	0.015
0.621	0.296	0.014
0.636	0.288	0.014
0.657	0.273	0.014
0.673	0.265	0.014
0.695	0.25	0.014
0.719	0.234	0.014
0.732	0.225	0.014
0.743	0.217	0.014
0.758	0.207	0.013
0.772	0.197	0.014
0.794	0.18	0.014
0.813	0.165	0.014
0.958	0.023	0.012
0.976	0.011	0.011

System: propan-1-ol + pentan-1-ol + water; phases: Liquid mixture 1, Liquid mixture 2
Fixed: Temperature, K = 298.15
Fixed: Pressure, kPa = 101
Property: Mole fraction of water (Liquid mixture 1); method: OTHER
Property: Mole fraction of water (Liquid mixture 2); method: OTHER
Property: Mole fraction of propan-1-ol (Liquid mixture 2); method: OTHER
Mole fraction of propan-1-ol	Mole fraction of water	uncertainty	Mole fraction of water	uncertainty	Mole fraction of propan-1-ol	uncertainty
0.0321	0.9628	0.0059	0.436	0.06	0.2031	
0.0416	0.9524	0.0059	0.5021	0.06	0.2536	
0.0193	0.9767	0.0059	0.3796	0.06	0.1026	

System: propan-1-ol + hexan-1-ol + water; phases: Liquid mixture 1, Liquid mixture 2
Fixed: Pressure, kPa = 101
Fixed: Temperature, K = 298.15
Property: Mass fraction of propan-1-ol (Liquid mixture 1); method: Titration method
Mass fraction of water	Mass fraction of propan-1-ol	uncertainty
0.084	0.052	0.052
0.088	0.089	0.07
0.107	0.221	0.049
0.127	0.277	0.03
0.143	0.319	0.028
0.157	0.35	0.024
0.17	0.372	0.025
0.18	0.396	0.02
0.193	0.404	0.019
0.22	0.443	0.018
0.238	0.443	0.016
0.25	0.451	0.017
0.27	0.463	0.017
0.289	0.468	0.017
0.307	0.468	0.017
0.324	0.466	0.017
0.337	0.467	0.017
0.418	0.443	0.016
0.456	0.422	0.017
0.506	0.393	0.016
0.538	0.373	0.016
0.575	0.348	0.016
0.592	0.337	0.015
0.61	0.325	0.015
0.628	0.313	0.015
0.65	0.298	0.015
0.673	0.283	0.015
0.688	0.271	0.015
0.699	0.264	0.014
0.711	0.256	0.014
0.729	0.242	0.014
0.745	0.23	0.014
0.759	0.22	0.014
0.783	0.201	0.014
0.808	0.181	0.014
0.867	0.127	0.014

System: propan-1-ol + hexan-1-ol + water; phases: Liquid mixture 1, Liquid mixture 2
Fixed: Temperature, K = 298.15
Fixed: Pressure, kPa = 101
Property: Mole fraction of water (Liquid mixture 1); method: OTHER
Property: Mole fraction of water (Liquid mixture 2); method: OTHER
Property: Mole fraction of propan-1-ol (Liquid mixture 2); method: OTHER
Mole fraction of propan-1-ol	Mole fraction of water	uncertainty	Mole fraction of water	uncertainty	Mole fraction of propan-1-ol	uncertainty
0.0257	0.9734	0.004	0.3609	0.06	0.2089	
0.0371	0.9614	0.004	0.4154	0.06	0.2802	
0.0428	0.9549	0.004	0.5061	0.06	0.3171	

System: propan-1-ol + octan-1-ol + water; phases: Liquid mixture 1, Liquid mixture 2
Fixed: Pressure, kPa = 101
Fixed: Temperature, K = 298.15
Property: Mass fraction of propan-1-ol (Liquid mixture 1); method: Titration method
Mass fraction of water	Mass fraction of propan-1-ol	uncertainty
0.076	0.212	0.027
0.1	0.27	0.032
0.117	0.334	0.037
0.131	0.375	0.026
0.146	0.398	0.021
0.159	0.415	0.022
0.169	0.435	0.021
0.178	0.451	0.021
0.194	0.463	0.018
0.208	0.475	0.018
0.221	0.483	0.018
0.232	0.489	0.017
0.254	0.494	0.017
0.272	0.499	0.017
0.326	0.496	0.017
0.344	0.491	0.017
0.366	0.484	0.017
0.378	0.479	0.017
0.392	0.473	0.017
0.408	0.465	0.017
0.426	0.457	0.017
0.445	0.447	0.017
0.47	0.432	0.017
0.506	0.408	0.017
0.542	0.385	0.016
0.557	0.376	0.016
0.575	0.363	0.016
0.594	0.35	0.016
0.614	0.336	0.016
0.637	0.319	0.015
0.649	0.311	0.015
0.66	0.304	0.015
0.674	0.294	0.015
0.69	0.282	0.015
0.705	0.272	0.015
0.723	0.257	0.015
0.741	0.244	0.014
0.767	0.223	0.015
0.8	0.194	0.014

System: propan-1-ol + octan-1-ol + water; phases: Liquid mixture 1, Liquid mixture 2
Fixed: Temperature, K = 298.15
Fixed: Pressure, kPa = 101
Property: Mole fraction of water (Liquid mixture 1); method: OTHER
Property: Mole fraction of water (Liquid mixture 2); method: OTHER
Property: Mole fraction of propan-1-ol (Liquid mixture 2); method: OTHER
Mole fraction of propan-1-ol	Mole fraction of water	uncertainty	Mole fraction of water	uncertainty	Mole fraction of propan-1-ol	uncertainty
0.0331	0.0331	0.0057	0.0331	0.0331	0.0331	
0.0387	0.0387	0.0057	0.0387	0.0387	0.0387	
0.0574	0.0574	0.0057	0.0574	0.0574	0.0574	

System: propan-1-ol + nonan-1-ol + water; phases: Liquid mixture 1, Liquid mixture 2
Fixed: Pressure, kPa = 101
Fixed: Temperature, K = 298.15
Property: Mass fraction of propan-1-ol (Liquid mixture 1); method: Titration method
Mass fraction of water	Mass fraction of propan-1-ol	uncertainty
0.043	0.143	0.04
0.072	0.255	0.031
0.114	0.351	0.028
0.128	0.389	0.026
0.142	0.412	0.021
0.155	0.428	0.02
0.167	0.442	0.02
0.177	0.454	0.019
0.192	0.468	0.019
0.206	0.481	0.018
0.219	0.488	0.018
0.231	0.492	0.018
0.251	0.5	0.018
0.271	0.502	0.017
0.287	0.502	0.017
0.302	0.503	0.017
0.317	0.498	0.017
0.329	0.497	0.017
0.341	0.494	0.017
0.362	0.487	0.017
0.374	0.483	0.017
0.388	0.476	0.017
0.402	0.47	0.017
0.42	0.461	0.017
0.44	0.45	0.017
0.464	0.436	0.017
0.491	0.419	0.017
0.524	0.398	0.016
0.539	0.388	0.016
0.554	0.378	0.016
0.572	0.367	0.016
0.589	0.356	0.016
0.61	0.34	0.016
0.619	0.335	0.016
0.631	0.326	0.015
0.642	0.319	0.015
0.655	0.31	0.015
0.668	0.3	0.015
0.682	0.29	0.015
0.698	0.278	0.015
0.714	0.267	0.015
0.733	0.252	0.015
0.758	0.232	0.014
0.785	0.21	0.014

System: propan-1-ol + nonan-1-ol + water; phases: Liquid mixture 1, Liquid mixture 2
Fixed: Temperature, K = 298.15
Fixed: Pressure, kPa = 101
Property: Mole fraction of water (Liquid mixture 1); method: OTHER
Property: Mole fraction of water (Liquid mixture 2); method: OTHER
Property: Mole fraction of propan-1-ol (Liquid mixture 2); method: OTHER
Mole fraction of propan-1-ol	Mole fraction of water	uncertainty	Mole fraction of water	uncertainty	Mole fraction of propan-1-ol	uncertainty
0.0035789	0.9959	0.0041	0.2721	0.06	0.1223	
0.0159	0.9839	0.0057	0.3066	0.06	0.2597	
0.0355	0.9641	0.0057	0.4078	0.06	0.3834	
0.0491	0.9499	0.0058	0.465	0.06	0.387	

System: propan-1-ol + decan-1-ol + water; phases: Liquid mixture 1, Liquid mixture 2
Fixed: Pressure, kPa = 101
Fixed: Temperature, K = 298.15
Property: Mass fraction of propan-1-ol (Liquid mixture 1); method: Titration method
Mass fraction of water	Mass fraction of propan-1-ol	uncertainty
0.069	0.278	0.029
0.091	0.336	0.025
0.126	0.399	0.023
0.139	0.422	0.021
0.153	0.436	0.019
0.165	0.447	0.019
0.175	0.459	0.019
0.185	0.465	0.018
0.2	0.477	0.019
0.212	0.489	0.018
0.225	0.492	0.017
0.236	0.497	0.018
0.246	0.5	0.018
0.256	0.503	0.017
0.273	0.506	0.017
0.29	0.504	0.017
0.303	0.505	0.017
0.31	0.504	0.017
0.318	0.503	0.017
0.326	0.501	0.017
0.336	0.498	0.018
0.345	0.496	0.018
0.357	0.491	0.018
0.37	0.486	0.017
0.381	0.484	0.018
0.4	0.473	0.018
0.419	0.463	0.017
0.439	0.453	0.017
0.463	0.439	0.017
0.492	0.422	0.017
0.526	0.4	0.016
0.555	0.383	0.016
0.575	0.368	0.016
0.597	0.353	0.016
0.617	0.339	0.015
0.64	0.324	0.015
0.665	0.307	0.015
0.682	0.294	0.015
0.698	0.282	0.015
0.717	0.267	0.015
0.74	0.25	0.015
0.772	0.222	0.015

System: propan-1-ol + decan-1-ol + water; phases: Liquid mixture 1, Liquid mixture 2
Fixed: Temperature, K = 298.15
Fixed: Pressure, kPa = 101
Property: Mole fraction of water (Liquid mixture 1); method: OTHER
Property: Mole fraction of water (Liquid mixture 2); method: OTHER
Property: Mole fraction of propan-1-ol (Liquid mixture 2); method: OTHER
Mole fraction of propan-1-ol	Mole fraction of water	uncertainty	Mole fraction of water	uncertainty	Mole fraction of propan-1-ol	uncertainty
0.0406	0.9592	0.0057	0.2837	0.06	0.3303	
0.0512	0.9483	0.0057	0.3559	0.06	0.3962	
0.0264	0.9735	0.0057	0.2351	0.06	0.2163	
0.0577	0.9416	0.0057	0.422	0.06	0.4072	

System: propan-1-ol + dodecan-1-ol + water; phases: Liquid mixture 1, Liquid mixture 2
Fixed: Pressure, kPa = 101
Fixed: Temperature, K = 298.15
Property: Mass fraction of propan-1-ol (Liquid mixture 1); method: Titration method
Mass fraction of water	Mass fraction of propan-1-ol	uncertainty
0.04	0.152	0.035
0.069	0.247	0.035
0.106	0.367	0.033
0.121	0.398	0.023
0.135	0.418	0.022
0.146	0.437	0.021
0.158	0.448	0.019
0.168	0.459	0.019
0.183	0.474	0.018
0.198	0.481	0.017
0.212	0.487	0.018
0.223	0.492	0.018
0.244	0.499	0.017
0.264	0.501	0.017
0.28	0.502	0.017
0.296	0.5	0.018
0.335	0.482	0.017
0.355	0.475	0.017
0.368	0.475	0.017
0.384	0.472	0.017
0.407	0.462	0.017
0.424	0.455	0.017
0.444	0.445	0.017
0.467	0.432	0.017
0.482	0.423	0.017
0.496	0.415	0.016
0.511	0.407	0.016
0.527	0.398	0.016
0.546	0.386	0.016
0.557	0.379	0.016
0.57	0.371	0.016
0.582	0.363	0.016
0.595	0.355	0.016
0.609	0.346	0.015
0.622	0.339	0.015
0.641	0.326	0.015
0.659	0.314	0.015
0.679	0.299	0.015
0.705	0.28	0.015
0.738	0.255	0.014

System: propan-1-ol + dodecan-1-ol + water; phases: Liquid mixture 1, Liquid mixture 2
Fixed: Temperature, K = 298.15
Fixed: Pressure, kPa = 101
Property: Mole fraction of water (Liquid mixture 1); method: OTHER
Property: Mole fraction of water (Liquid mixture 2); method: OTHER
Property: Mole fraction of propan-1-ol (Liquid mixture 2); method: OTHER
Mole fraction of propan-1-ol	Mole fraction of water	uncertainty	Mole fraction of water	uncertainty	Mole fraction of propan-1-ol	uncertainty
0.0162	0.9835	0.0056	0.2637	0.06	0.2511	
0.0382	0.9617	0.0057	0.3688	0.06	0.4146	
0.0295	0.9704	0.0056	0.235	0.06	0.216	
