Measured thermophysical data. Thermodynamic Study of Heptane + Silicone Mixtures. Excess Volumes and Enthalpies at 298.15 K
Source: J. Chem. Eng. Data, 2011, 10.1021/je2007378
Compound 1: hexamethyldisiloxane, C6H18OSi2, InChI=1S/C6H18OSi2/c1-8(2,3)7-9(4,5)6/h1-6H3, purity 99.5%
Compound 2: octamethyltrisiloxane, C8H24O2Si3, InChI=1S/C8H24O2Si3/c1-11(2,3)9-13(7,8)10-12(4,5)6/h1-8H3, purity 98%
Compound 3: decamethyltetrasiloxane, C10H30O3Si4, InChI=1S/C10H30O3Si4/c1-14(2,3)11-16(7,8)13-17(9,10)12-15(4,5)6/h1-10H3, purity 97%
Compound 4: dodecamethylpentasiloxane, C12H36O4Si5, InChI=1S/C12H36O4Si5/c1-17(2,3)13-19(7,8)15-21(11,12)16-20(9,10)14-18(4,5)6/h1-12H3, purity 97%
Compound 5: octamethylcyclotetrasiloxane, C8H24O4Si4, InChI=1S/C8H24O4Si4/c1-13(2)9-14(3,4)11-16(7,8)12-15(5,6)10-13/h1-8H3, purity 99%
Compound 6: decamethylcyclopentasiloxane, C10H30O5Si5, InChI=1S/C10H30O5Si5/c1-16(2)11-17(3,4)13-19(7,8)15-20(9,10)14-18(5,6)12-16/h1-10H3, purity 97%
Compound 7: heptane, C7H16, InChI=1S/C7H16/c1-3-5-7-6-4-2/h3-7H2,1-2H3, purity 99.5%

System: hexamethyldisiloxane; phases: Liquid
Property: Molar volume, m3/mol (Liquid); method: Vibrating tube method
Temperature, K	Pressure, kPa	Molar volume, m3/mol	uncertainty
298.15	101.325	0.00021398	6e-08

System: octamethyltrisiloxane; phases: Liquid
Property: Molar volume, m3/mol (Liquid); method: Vibrating tube method
Temperature, K	Pressure, kPa	Molar volume, m3/mol	uncertainty
298.15	101.325	0.00029035	3e-07

System: decamethyltetrasiloxane; phases: Liquid
Property: Molar volume, m3/mol (Liquid); method: Vibrating tube method
Temperature, K	Pressure, kPa	Molar volume, m3/mol	uncertainty
298.15	101.325	0.00036625	7.9e-07

System: dodecamethylpentasiloxane; phases: Liquid
Property: Molar volume, m3/mol (Liquid); method: Vibrating tube method
Temperature, K	Pressure, kPa	Molar volume, m3/mol	uncertainty
298.15	101.325	0.0004424	9.7e-07

System: octamethylcyclotetrasiloxane; phases: Liquid
Property: Molar volume, m3/mol (Liquid); method: Vibrating tube method
Temperature, K	Pressure, kPa	Molar volume, m3/mol	uncertainty
298.15	101.325	0.00031212	1e-07

System: decamethylcyclopentasiloxane; phases: Liquid
Property: Molar volume, m3/mol (Liquid); method: Vibrating tube method
Temperature, K	Pressure, kPa	Molar volume, m3/mol	uncertainty
298.15	101.325	0.00038893	9.1e-07

System: heptane; phases: Liquid
Property: Molar volume, m3/mol (Liquid); method: Vibrating tube method
Temperature, K	Pressure, kPa	Molar volume, m3/mol	uncertainty
298.15	101.325	0.00014744	5e-08

System: hexamethyldisiloxane + heptane; phases: Liquid
Property: Excess molar enthalpy (molar enthalpy of mixing), kJ/mol (Liquid); method: Calvet calorimetry
Mole fraction of hexamethyldisiloxane	Temperature, K	Pressure, kPa	Excess molar enthalpy (molar enthalpy of mixing), kJ/mol	uncertainty
0.5	298.15	101	5	1

System: hexamethyldisiloxane + heptane; phases: Liquid
Fixed: Temperature, K = 298.15
Fixed: Pressure, kPa = 101
Property: Partial molar enthalpy, kJ/mol of hexamethyldisiloxane (Liquid); method: heat flow calorimeter
Mole fraction of heptane	Partial molar enthalpy, kJ/mol of hexamethyldisiloxane	uncertainty
0.4837	0.1519	0.0015
0.4877	0.156	0.0016
0.4917	0.1592	0.0016
0.4959	0.1613	0.0016
0.5001	0.1655	0.0017
0.5043	0.1687	0.0017
0.5087	0.1708	0.0017
0.5131	0.171	0.0017
0.7299	0.3812	0.0038
0.7353	0.3863	0.0039
0.7407	0.3945	0.0039
0.7461	0.3996	0.004
0.7472	0.4049	0.004
0.7517	0.4068	0.0041
0.7518	0.411	0.0041
0.7573	0.413	0.0041
0.7613	0.4153	0.0042
0.763	0.4222	0.0042
0.7689	0.4253	0.0043
0.771	0.4235	0.0042
0.776	0.4287	0.0043
0.8207	0.4897	0.0049
0.8252	0.4958	0.005
0.8297	0.5009	0.005
0.8436	0.5244	0.0052
0.8484	0.5315	0.0053
0.8532	0.5396	0.0054
0.8631	0.5613	0.0056
0.8679	0.5651	0.0057
0.8691	0.5705	0.0057
0.8729	0.5662	0.0057
0.8751	0.5777	0.0058
0.878	0.5754	0.0058
0.8812	0.5889	0.0059
0.8874	0.5981	0.006
0.8937	0.6073	0.0061
0.9001	0.6185	0.0062
0.9065	0.6287	0.0063
0.9131	0.638	0.0064
0.9265	0.6744	0.0067
0.9334	0.6856	0.0069
0.9342	0.6729	0.0067
0.939	0.6791	0.0068
0.9403	0.6999	0.007
0.9439	0.6882	0.0069
0.9474	0.7091	0.0071
0.9539	0.7096	0.0071
0.9546	0.7233	0.0072
0.9589	0.7207	0.0072
0.9619	0.7375	0.0074
0.964	0.7269	0.0073
0.9692	0.7381	0.0074
0.9693	0.7528	0.0075
0.9768	0.765	0.0077
0.9844	0.7833	0.0078
0.9904	0.7755	0.0078
0.9921	0.7995	0.008
0.9931	0.7806	0.0078

System: hexamethyldisiloxane + heptane; phases: Liquid
Fixed: Temperature, K = 298.15
Fixed: Pressure, kPa = 101
Property: Partial molar enthalpy, kJ/mol of heptane (Liquid); method: heat flow calorimeter
Mole fraction of heptane	Partial molar enthalpy, kJ/mol of heptane	uncertainty
0.0318	0.5928	0.0059
0.047	0.5777	0.0058
0.0616	0.5637	0.0057
0.0759	0.5495	0.0056
0.0897	0.5344	0.0054
0.1031	0.5202	0.0053
0.1161	0.5089	0.0052
0.1288	0.4917	0.005
0.1647	0.4647	0.0048
0.176	0.4553	0.0048
0.187	0.4449	0.0048
0.1977	0.4344	0.0047
0.2081	0.425	0.005
0.2183	0.4075	0.0047
0.2282	0.404	0.0042
0.2379	0.3985	0.0044
0.2473	0.3899	0.0046
0.2565	0.3804	0.0044
0.2655	0.3748	0.0043
0.2742	0.3662	0.0045
0.2828	0.3586	0.0044
0.4957	0.1912	0.0024
0.5015	0.1895	0.0027
0.5071	0.1868	0.0031
0.5126	0.184	0.0036
0.518	0.1802	0.0041
0.5233	0.1765	0.0033
0.5285	0.1747	0.0025
0.7355	0.0622	0.0025
0.7382	0.0613	0.0039
0.7408	0.0594	0.004
0.7434	0.0585	0.0027
0.7459	0.0576	0.0027
0.7484	0.0567	0.0028
0.7509	0.0558	0.0028

System: hexamethyldisiloxane + heptane; phases: Liquid
Fixed: Pressure, kPa = 101
Fixed: Temperature, K = 298.15
Property: Excess molar volume, m3/mol (Liquid); method: Calculated with densities of this investigation
Mole fraction of heptane	Excess molar volume, m3/mol	uncertainty
0.0541	-2.5e-08	1e-08
0.0752	-3.4e-08	1e-08
0.1111	-4e-08	1e-08
0.1978	-6.9e-08	1e-08
0.1982	-6.5e-08	1e-08
0.2921	-8.2e-08	1e-08
0.3131	-8.8e-08	1e-08
0.3968	-9.1e-08	1e-08
0.4121	-9.9e-08	1e-08
0.4936	-9.5e-08	1e-08
0.4957	-1.02e-07	1e-08
0.5892	-9.8e-08	1e-08
0.6792	-9.6e-08	1e-08
0.7073	-9.2e-08	1e-08
0.7762	-8e-08	1e-08
0.8013	-6.4e-08	1e-08
0.8729	-4.9e-08	1e-08
0.8956	-3.7e-08	1e-08
0.9237	-3e-08	1e-08
0.9528	-1.9e-08	1e-08
0.9606	-1.5e-08	1e-08
0.9737	-1e-08	1e-08

System: octamethyltrisiloxane + heptane; phases: Liquid
Property: Excess molar enthalpy (molar enthalpy of mixing), kJ/mol (Liquid); method: Calvet calorimetry
Mole fraction of octamethyltrisiloxane	Temperature, K	Pressure, kPa	Excess molar enthalpy (molar enthalpy of mixing), kJ/mol	uncertainty
0.5	298.15	101	1	1

System: octamethyltrisiloxane + heptane; phases: Liquid
Fixed: Pressure, kPa = 101
Fixed: Temperature, K = 298.15
Property: Partial molar enthalpy, kJ/mol of octamethyltrisiloxane (Liquid); method: heat flow calorimeter
Mole fraction of heptane	Partial molar enthalpy, kJ/mol of octamethyltrisiloxane	uncertainty
0.2395	0.0311	0.0012
0.2414	0.0302	0.0008
0.2432	0.0323	0.0015
0.2451	0.0324	0.0004
0.247	0.0325	0.0006
0.249	0.0316	0.0003
0.251	0.0327	0.0014
0.7324	0.4344	0.0087
0.7365	0.4386	0.0058
0.7407	0.4387	0.0128
0.7534	0.4642	0.015
0.7578	0.4704	0.0117
0.7622	0.4766	0.0118
0.8914	0.7466	0.0234
0.8975	0.7618	0.0241
0.9037	0.778	0.024
0.91	0.7932	0.0247
0.9227	0.8266	0.026
0.9293	0.8448	0.0237
0.9359	0.8581	0.0311
0.9426	0.8873	0.0307
0.9633	0.9459	0.0284
0.9704	0.9641	0.0321
0.9777	0.9913	0.039
0.985	1.0205	0.0407

System: octamethyltrisiloxane + heptane; phases: Liquid
Fixed: Temperature, K = 298.15
Fixed: Pressure, kPa = 101
Property: Partial molar enthalpy, kJ/mol of heptane (Liquid); method: heat flow calorimeter
Mole fraction of heptane	Partial molar enthalpy, kJ/mol of heptane	uncertainty
0.0277	0.6341	0.0063
0.054	0.6119	0.0061
0.0666	0.5997	0.006
0.0788	0.5885	0.0059
0.0908	0.5803	0.0058
0.1138	0.5617	0.0057
0.1248	0.5544	0.0056
0.1356	0.543	0.0055
0.1462	0.5366	0.0055
0.1762	0.5073	0.0053
0.1858	0.5048	0.0053
0.1952	0.4923	0.0053
0.2043	0.4858	0.0051
0.2132	0.4773	0.0051
0.2389	0.4576	0.0049
0.247	0.451	0.0049
0.255	0.4454	0.0048
0.4913	0.245	0.0025
0.4987	0.2444	0.0032
0.5058	0.2388	0.0047
0.5127	0.2331	0.0045
0.5194	0.2285	0.0043
0.526	0.2238	0.0044
0.5323	0.2191	0.0045
0.741	0.0852	0.005
0.7437	0.0834	0.0025
0.7464	0.0835	0.0029
0.7515	0.0807	0.0042

System: octamethyltrisiloxane + heptane; phases: Liquid
Fixed: Pressure, kPa = 101
Fixed: Temperature, K = 298.15
Property: Excess molar volume, m3/mol (Liquid); method: Calculated with densities of this investigation
Mole fraction of heptane	Excess molar volume, m3/mol	uncertainty
0.0564	9e-09	1e-08
0.1114	3e-09	1e-08
0.1941	8e-09	1e-08
0.2931	1.2e-08	1e-08
0.3923	1.5e-08	1e-08
0.5037	1.6e-08	1e-08
0.5051	2e-09	1e-08
0.594	0	1e-08
0.7021	-3e-09	1e-08
0.7983	-2e-09	1e-08
0.9019	-1e-09	1e-08
0.951	5e-09	1e-08
0.965	5e-09	1e-08
0.9766	5e-09	1e-08
0.9882	4e-09	1e-08

System: decamethyltetrasiloxane + heptane; phases: Liquid
Property: Excess molar enthalpy (molar enthalpy of mixing), kJ/mol (Liquid); method: Calvet calorimetry
Mole fraction of decamethyltetrasiloxane	Temperature, K	Pressure, kPa	Excess molar enthalpy (molar enthalpy of mixing), kJ/mol	uncertainty
0.5	298.15	101	1	1

System: decamethyltetrasiloxane + heptane; phases: Liquid
Fixed: Temperature, K = 298.15
Fixed: Pressure, kPa = 101
Property: Partial molar enthalpy, kJ/mol of decamethyltetrasiloxane (Liquid); method: heat flow calorimeter
Mole fraction of heptane	Partial molar enthalpy, kJ/mol of decamethyltetrasiloxane	uncertainty
0.2542	0.0284	0.0035
0.2565	0.0316	0.0024
0.2589	0.0328	0.0008
0.2613	0.033	0.0004
0.2638	0.0333	0.0009
0.2663	0.0315	0.0009
0.2689	0.0317	0.0004
0.5085	0.1897	0.0095
0.5108	0.1939	0.0056
0.5153	0.1971	0.003
0.5223	0.1896	0.0037
0.5247	0.1927	0.0116
0.527	0.1999	0.0073
0.5294	0.199	0.0028
0.7407	0.4779	0.0151
0.7439	0.4841	0.0152
0.7471	0.4903	0.0184
0.7504	0.4995	0.015
0.7537	0.5027	0.0119
0.757	0.5089	0.0149
0.7604	0.5151	0.0117
0.7638	0.5183	0.0118
0.7672	0.5245	0.0149
0.8955	0.8622	0.0359
0.9002	0.8805	0.0314
0.9049	0.8937	0.0259
0.9097	0.906	0.0301
0.9146	0.9243	0.0327
0.9195	0.9396	0.0307
0.9245	0.9558	0.0307
0.9295	0.9711	0.0327
0.9345	0.9894	0.0467
0.9449	1.045	0.0472
0.9501	1.0642	0.033
0.9554	1.0795	0.0322
0.9607	1.0978	0.0369
0.9662	1.1191	0.0402
0.9716	1.1414	0.0301
0.9772	1.1507	0.0524
0.9828	1.2	0.0547
0.9885	1.2122	0.0396
0.9942	1.2435	0.0342

System: decamethyltetrasiloxane + heptane; phases: Liquid
Fixed: Pressure, kPa = 101
Fixed: Temperature, K = 298.15
Property: Partial molar enthalpy, kJ/mol of heptane (Liquid); method: heat flow calorimeter
Mole fraction of heptane	Partial molar enthalpy, kJ/mol of heptane	uncertainty
0.043	0.6465	0.0065
0.0632	0.6317	0.0063
0.0825	0.6167	0.0062
0.101	0.6056	0.0061
0.1189	0.5923	0.006
0.1393	0.5807	0.0059
0.1589	0.5646	0.0058
0.1954	0.5369	0.0056
0.2125	0.5243	0.0055
0.2446	0.5	0.0053
0.2597	0.4882	0.0055
0.2675	0.4766	0.0051
0.2742	0.4783	0.0049
0.2803	0.4724	0.0052
0.2927	0.4633	0.0052
0.3047	0.453	0.0052
0.3162	0.4437	0.0051
0.3274	0.4344	0.0051
0.4784	0.2866	0.0031
0.4849	0.2849	0.0035
0.4913	0.2812	0.0043
0.4975	0.2765	0.0047
0.5036	0.2718	0.0041
0.5095	0.2691	0.0042
0.5153	0.2643	0.0046
0.521	0.2606	0.0044
0.5265	0.2568	0.0048
0.5319	0.2521	0.0053
0.7461	0.1055	0.0027
0.7488	0.1046	0.0041
0.7514	0.1027	0.0043
0.7539	0.1018	0.0073
0.7564	0.0979	0.0089
0.7588	0.0961	0.0044
0.7612	0.0952	0.0046
0.7635	0.0933	0.0047
0.7658	0.0924	0.0031

System: decamethyltetrasiloxane + heptane; phases: Liquid
Fixed: Temperature, K = 298.15
Fixed: Pressure, kPa = 101
Property: Excess molar volume, m3/mol (Liquid); method: Calculated with densities of this investigation
Mole fraction of heptane	Excess molar volume, m3/mol	uncertainty
0.1064	4.3e-08	1e-08
0.2143	6.3e-08	1e-08
0.3096	7.5e-08	1e-08
0.4037	9.2e-08	1e-08
0.5101	9.4e-08	1e-08
0.5974	9.2e-08	1e-08
0.6128	8.9e-08	1e-08
0.7039	8.8e-08	1e-08
0.8042	7.8e-08	1e-08
0.904	5.1e-08	1e-08
0.9536	2.6e-08	1e-08
0.9556	2.8e-08	1e-08
0.9704	1.8e-08	1e-08
0.9851	8e-09	1e-08

System: dodecamethylpentasiloxane + heptane; phases: Liquid
Property: Excess molar enthalpy (molar enthalpy of mixing), kJ/mol (Liquid); method: Calvet calorimetry
Mole fraction of dodecamethylpentasiloxane	Temperature, K	Pressure, kPa	Excess molar enthalpy (molar enthalpy of mixing), kJ/mol	uncertainty
0.5	298.15	101	1	1

System: dodecamethylpentasiloxane + heptane; phases: Liquid
Fixed: Temperature, K = 298.15
Fixed: Pressure, kPa = 101
Property: Partial molar enthalpy, kJ/mol of dodecamethylpentasiloxane (Liquid); method: heat flow calorimeter
Mole fraction of heptane	Partial molar enthalpy, kJ/mol of dodecamethylpentasiloxane	uncertainty
0.2636	0.0249	0.0016
0.2674	0.0272	0.0038
0.2712	0.0356	0.0062
0.2752	0.045	0.0065
0.7102	0.3041	0.0191
0.7163	0.3203	0.0175
0.7224	0.3334	0.0158
0.7286	0.3466	0.0173
0.735	0.3627	0.0205
0.7414	0.3818	0.0188
0.748	0.395	0.0186
0.7547	0.4141	0.0212
0.7615	0.4322	0.0209
0.7685	0.4512	0.0198
0.7755	0.4673	0.0235
0.7827	0.4933	0.0246
0.7901	0.5123	0.0293
0.7975	0.5473	0.0381
0.8902	0.9344	0.0439
0.8962	0.9633	0.0411
0.9023	0.9883	0.0405
0.9086	1.0172	0.043
0.9149	1.0462	0.0493
0.9213	1.0841	0.0516
0.9278	1.1169	0.0506
0.9344	1.1538	0.053
0.9411	1.1906	0.0537
0.9478	1.2284	0.0561
0.9547	1.2692	0.0547
0.9617	1.3059	0.0527
0.9687	1.3436	0.0612
0.9759	1.3933	0.065
0.9832	1.4379	0.0618

System: dodecamethylpentasiloxane + heptane; phases: Liquid
Fixed: Pressure, kPa = 101
Fixed: Temperature, K = 298.15
Property: Partial molar enthalpy, kJ/mol of heptane (Liquid); method: heat flow calorimeter
Mole fraction of heptane	Partial molar enthalpy, kJ/mol of heptane	uncertainty
0.016	0.9385	0.0094
0.0465	0.8421	0.0086
0.0752	0.7296	0.0078
0.1021	0.6366	0.0071
0.1276	0.5709	0.0064
0.1517	0.5267	0.006
0.1744	0.4814	0.0058
0.196	0.4462	0.0053
0.2165	0.4212	0.0052
0.236	0.3896	0.0049
0.2544	0.3736	0.0047
0.2721	0.3501	0.0045
0.289	0.3373	0.004
0.7255	0.1092	0.0054
0.7319	0.1045	0.0078
0.7381	0.0958	0.0078
0.7439	0.092	0.005
0.7495	0.0882	0.0053
0.7549	0.0844	0.0048
0.76	0.0816	0.0022
0.7649	0.0818	0.0029
0.7697	0.078	0.0047
0.7742	0.0762	0.0032

System: dodecamethylpentasiloxane + heptane; phases: Liquid
Fixed: Temperature, K = 298.15
Fixed: Pressure, kPa = 101
Property: Excess molar volume, m3/mol (Liquid); method: Calculated with densities of this investigation
Mole fraction of heptane	Excess molar volume, m3/mol	uncertainty
0.0947	4.8e-08	1e-08
0.1982	7.7e-08	1e-08
0.2985	8.8e-08	1e-08
0.4032	1.07e-07	1e-08
0.5016	1.11e-07	1e-08
0.6056	1.08e-07	1e-08
0.7037	9.5e-08	1e-08
0.8012	8.4e-08	1e-08
0.9043	5e-08	1e-08
0.9504	3.1e-08	1e-08

System: heptane + octamethylcyclotetrasiloxane; phases: Liquid
Property: Excess molar enthalpy (molar enthalpy of mixing), kJ/mol (Liquid); method: Calvet calorimetry
Mole fraction of heptane	Temperature, K	Pressure, kPa	Excess molar enthalpy (molar enthalpy of mixing), kJ/mol	uncertainty
0.5	298.15	101	1	1

System: heptane + octamethylcyclotetrasiloxane; phases: Liquid
Fixed: Temperature, K = 298.15
Fixed: Pressure, kPa = 101
Property: Partial molar enthalpy, kJ/mol of heptane (Liquid); method: heat flow calorimeter
Mole fraction of heptane	Partial molar enthalpy, kJ/mol of heptane	uncertainty
0.0162	1.1772	0.0118
0.0318	1.1588	0.0116
0.0617	1.1156	0.0112
0.076	1.0929	0.011
0.0898	1.0721	0.0108
0.1032	1.0582	0.0107
0.1163	1.0342	0.0105
0.1289	1.0183	0.0103
0.1412	1.0012	0.0102
0.1532	0.9841	0.0101
0.1648	0.966	0.01
0.1871	0.9306	0.0097
0.2185	0.8887	0.0094
0.2284	0.8743	0.0093
0.2381	0.8619	0.0093
0.2475	0.8465	0.0093
0.2567	0.8321	0.0091
0.2657	0.8207	0.0088
0.2744	0.8112	0.009
0.283	0.7967	0.0093
0.4962	0.4906	0.0097
0.5025	0.48	0.0088
0.5087	0.4724	0.0076
0.5148	0.4657	0.008
0.5207	0.4571	0.0086
0.5264	0.4494	0.0084
0.532	0.4418	0.0082
0.5375	0.4351	0.0087
0.5429	0.4264	0.0097
0.744	0.1682	0.0076
0.7469	0.1653	0.0076
0.7497	0.1625	0.0081
0.7551	0.1567	0.0083
0.7577	0.1539	0.0083

System: heptane + octamethylcyclotetrasiloxane; phases: Liquid
Fixed: Pressure, kPa = 101
Fixed: Temperature, K = 298.15
Property: Partial molar enthalpy, kJ/mol of octamethylcyclotetrasiloxane (Liquid); method: heat flow calorimeter
Mole fraction of heptane	Partial molar enthalpy, kJ/mol of octamethylcyclotetrasiloxane	uncertainty
0.2653	0.0633	0.0007
0.2674	0.0635	0.001
0.2695	0.0646	0.0015
0.2717	0.0657	0.0015
0.2761	0.068	0.0022
0.2784	0.0711	0.0008
0.2807	0.0673	0.0047
0.483	0.2627	0.0071
0.486	0.2668	0.0072
0.489	0.271	0.0058
0.4921	0.2732	0.0072
0.4952	0.2794	0.0072
0.4984	0.2816	0.0071
0.5016	0.2877	0.0093
0.5048	0.2929	0.0108
0.5081	0.3011	0.013
0.735	0.7971	0.0182
0.7391	0.8062	0.0243
0.7516	0.8475	0.0259
0.7559	0.8606	0.0255
0.7602	0.8748	0.0266
0.8927	1.4377	0.0558
0.8975	1.4667	0.053
0.9024	1.4928	0.0462
0.9123	1.5389	0.0481
0.9173	1.568	0.0568
0.9224	1.599	0.0567
0.9275	1.6281	0.0429
0.938	1.6672	0.0604
0.9433	1.7322	0.0863
0.9487	1.7632	0.0615
0.9541	1.7993	0.07
0.9708	1.9193	0.0717
0.9765	1.9583	0.078
0.9823	2.0082	0.073
0.9881	2.0412	0.0598

System: heptane + octamethylcyclotetrasiloxane; phases: Liquid
Fixed: Temperature, K = 298.15
Fixed: Pressure, kPa = 101
Property: Excess molar volume, m3/mol (Liquid); method: Calculated with densities of this investigation
Mole fraction of heptane	Excess molar volume, m3/mol	uncertainty
0.0573	1.01e-07	1e-08
0.1122	1.75e-07	1.1e-08
0.2048	2.89e-07	1.1e-08
0.3094	3.85e-07	1.1e-08
0.4013	4.42e-07	1.1e-08
0.5287	4.9e-07	1.1e-08
0.621	4.59e-07	1.1e-08
0.7084	4.35e-07	1.1e-08
0.8312	3.28e-07	1.1e-08
0.9054	2.16e-07	1.1e-08
0.9515	1.25e-07	1e-08
0.9598	1.03e-07	1e-08
0.973	7.1e-08	1e-08
0.986	3.9e-08	1e-08

System: heptane + decamethylcyclopentasiloxane; phases: Liquid
Property: Excess molar enthalpy (molar enthalpy of mixing), kJ/mol (Liquid); method: Calvet calorimetry
Mole fraction of heptane	Temperature, K	Pressure, kPa	Excess molar enthalpy (molar enthalpy of mixing), kJ/mol	uncertainty
0.5	298.15	101	1	1

System: heptane + decamethylcyclopentasiloxane; phases: Liquid
Fixed: Temperature, K = 298.15
Fixed: Pressure, kPa = 101
Property: Partial molar enthalpy, kJ/mol of heptane (Liquid); method: heat flow calorimeter
Mole fraction of heptane	Partial molar enthalpy, kJ/mol of heptane	uncertainty
0.0148	0.857	0.0086
0.0268	0.8506	0.0085
0.0384	0.837	0.0084
0.0499	0.8263	0.0083
0.0719	0.8168	0.0082
0.0825	0.807	0.0081
0.0929	0.7931	0.008
0.1031	0.7792	0.0078
0.113	0.7832	0.0078
0.1228	0.7781	0.0078
0.1323	0.7701	0.0078
0.1507	0.7571	0.0077
0.1683	0.7431	0.0076
0.1853	0.7268	0.0074
0.2015	0.7154	0.0074
0.2172	0.6989	0.0073
0.2322	0.6872	0.0071
0.4562	0.4633	0.0092
0.464	0.4497	0.0073
0.4716	0.4441	0.0057
0.479	0.4385	0.0057
0.4862	0.4329	0.0058
0.4932	0.4273	0.0066
0.5001	0.4186	0.0065
0.5067	0.414	0.0066
0.5132	0.4053	0.0071
0.5195	0.3996	0.0062
0.7398	0.1665	0.0059
0.7423	0.1646	0.0017
0.7448	0.1667	0.0017
0.7472	0.1648	0.0061
0.7496	0.1629	0.0077
0.752	0.16	0.0094
0.7543	0.1571	0.005
0.7565	0.1572	0.0084
0.7587	0.1523	0.017

System: heptane + decamethylcyclopentasiloxane; phases: Liquid
Fixed: Temperature, K = 298.15
Fixed: Pressure, kPa = 101
Property: Partial molar enthalpy, kJ/mol of decamethylcyclopentasiloxane (Liquid); method: heat flow calorimeter
Mole fraction of heptane	Partial molar enthalpy, kJ/mol of decamethylcyclopentasiloxane	uncertainty
0.2148	0.0211	0.0005
0.2163	0.0202	0.0004
0.2178	0.0204	0.0006
0.2193	0.0215	0.0013
0.2208	0.0227	0.0013
0.2223	0.0238	0.001
0.2239	0.024	0.001
0.2254	0.0242	0.0003
0.2271	0.0253	0.0004
0.2287	0.0245	0.0003
0.2303	0.0247	0.0005
0.4952	0.1918	0.0051
0.4975	0.194	0.006
0.4999	0.1972	0.005
0.5022	0.1983	0.005
0.5046	0.2015	0.0049
0.507	0.2026	0.0059
0.5095	0.2068	0.008
0.5119	0.21	0.0049
0.5144	0.2111	0.0021
0.5169	0.2103	0.0027
0.7346	0.6204	0.0196
0.7374	0.6275	0.0149
0.7402	0.6307	0.0138
0.743	0.6368	0.026
0.7459	0.65	0.0269
0.7488	0.6571	0.0233
0.7517	0.6673	0.0222
0.7546	0.6734	0.0067
0.7576	0.6676	0.0076
0.7605	0.6707	0.0105
0.8898	1.2116	0.037
0.8939	1.2277	0.0509
0.898	1.2569	0.0537
0.9022	1.276	0.0608
0.9064	1.3122	0.0645
0.9107	1.3353	0.0539
0.915	1.3615	0.0532
0.9193	1.3836	0.0528
0.9237	1.4097	0.0597
0.9281	1.4389	0.0564
0.9326	1.462	0.0461
0.9371	1.4811	0.043
0.9417	1.5012	0.0678
0.9509	1.5755	0.0716
0.9556	1.6016	0.0623
0.9603	1.6347	0.0748
0.9651	1.6738	0.0796
0.97	1.7129	0.0484
0.9748	1.719	0.0703
0.9798	1.7811	0.0853
0.9847	1.8032	0.0602
0.9898	1.8393	0.0724

System: heptane + decamethylcyclopentasiloxane; phases: Liquid
Fixed: Temperature, K = 298.15
Fixed: Pressure, kPa = 101
Property: Excess molar volume, m3/mol (Liquid); method: Calculated with densities of this investigation
Mole fraction of heptane	Excess molar volume, m3/mol	uncertainty
0.1411	1.33e-07	1e-08
0.2809	1.89e-07	1.1e-08
0.3875	2.2e-07	1.1e-08
0.4981	2.3e-07	1.1e-08
0.5974	2.63e-07	1.1e-08
0.6967	2.57e-07	1.1e-08
0.7773	2.35e-07	1.1e-08
0.8618	1.78e-07	1.1e-08
0.9101	1.4e-07	1e-08
0.9566	6.9e-08	1e-08
