Measured thermophysical data. Effect of N,N'-Bis(2-pyridylmethylidene)-1,2-diiminoethane (BPIE) Schiff Base on the Thermophysical Properties of Ionic Liquids in N,N-Dimethylformamide Solutions at 298.15 K
Source: J. Chem. Eng. Data, 2011, 10.1021/je2006117
Compound 1: dimethylformamide, C3H7NO, InChI=1S/C3H7NO/c1-4(2)3-5/h3H,1-2H3, purity 99.8%
Compound 2: 1-methyl-3-propylimidazolium bromide, C7H13BrN2, InChI=1S/C7H13N2.BrH/c1-3-4-9-6-5-8(2)7-9;/h5-7H,3-4H2,1-2H3;1H/q+1;/p-1
Compound 3: 1-pentyl-3-methylimidazolium bromide, C9H17BrN2, InChI=1S/C9H17N2.BrH/c1-3-4-5-6-11-8-7-10(2)9-11;/h7-9H,3-6H2,1-2H3;1H/q+1;/p-1
Compound 4: N,N'-bis(2-pyridinylmethylene)-1,2-ethanediamine, C14H14N4, InChI=1S/C14H14N4/c1-3-7-17-13(5-1)11-15-9-10-16-12-14-6-2-4-8-18-14/h1-8,11-12H,9-10H2

System: dimethylformamide; phases: Liquid
Property: Mass density, kg/m3 (Liquid); method: VIBTUB:UFactor:4
Temperature, K	Pressure, kPa	Mass density, kg/m3	uncertainty
298.15	101.325	943.88	0.23

System: dimethylformamide; phases: Liquid
Property: Refractive index (Na D-line) (Liquid); method: Standard Abbe refractometry
Temperature, K	Pressure, kPa	Refractive index (Na D-line)	uncertainty
298.15	101.325	1.4285	0.0004

System: dimethylformamide; phases: Liquid
Property: Viscosity, Pa*s (Liquid); method: Capillary tube (Ostwald; Ubbelohde) method
Temperature, K	Pressure, kPa	Viscosity, Pa*s	uncertainty
298.15	101.325	0.0008608	6.8e-06

System: dimethylformamide; phases: Liquid
Fixed: Pressure, kPa = 101
Fixed: Temperature, K = 298.15
Property: Mass density, kg/m3 (Liquid); method: Vibrating tube method
Mass density, kg/m3	uncertainty
943.88	0.11
943.99	0.11

System: dimethylformamide + N,N'-bis(2-pyridinylmethylene)-1,2-ethanediamine + 1-pentyl-3-methylimidazolium bromide; phases: Liquid
Fixed: Pressure, kPa = 101
Fixed: Temperature, K = 298.15
Property: Mass density, kg/m3 (Liquid); method: Vibrating tube method
Molality, mol/kg of 1-pentyl-3-methylimidazolium bromide	Solvent: Molality, mol/kg of N,N'-bis(2-pyridinylmethylene)-1,2-ethanediamine	Mass density, kg/m3	uncertainty
0	0	943.88	0.17
0.0201	0	945.2	0.17
0.0409	0	946.55	0.17
0.0618	0	947.88	0.17
0.0853	0	949.36	0.17
0.1009	0	950.32	0.17
0.1186	0	951.39	0.17
0.1433	0	952.9	0.17
0.161	0	953.93	0.17
0.1798	0	955.02	0.17
0.205	0	956.48	0.16
0	0.0401	945.31	0.17
0.0233	0.0401	946.86	0.17
0.0408	0.0401	948	0.17
0.0602	0.0401	949.24	0.17
0.0814	0.0401	950.59	0.17
0.0999	0.0401	951.74	0.17
0.1205	0.0401	953.01	0.17
0.1386	0.0401	954.09	0.17
0.1603	0.0401	955.35	0.17
0.182	0.0401	956.63	0.16
0.1966	0.0401	957.44	0.16
0	0.0728	946.33	0.17
0.0244	0.0728	947.97	0.17
0.0428	0.0728	949.18	0.17
0.0628	0.0728	950.46	0.17
0.0812	0.0728	951.65	0.17
0.1001	0.0728	952.83	0.17
0.1223	0.0728	954.19	0.17
0.1405	0.0728	955.28	0.16
0.1617	0.0728	956.52	0.16
0.1793	0.0728	957.53	0.16
0.2	0.0728	958.73	0.16
0	0.1205	947.34	0.17
0.0237	0.1205	948.95	0.17
0.0482	0.1205	950.56	0.17
0.0602	0.1205	951.34	0.17
0.0853	0.1205	952.94	0.17
0.099	0.1205	953.78	0.17
0.1253	0.1205	955.41	0.17
0.1441	0.1205	956.49	0.16
0.1617	0.1205	957.55	0.16
0.1843	0.1205	958.82	0.16
0.2034	0.1205	959.89	0.17
0	0.1553	949.12	0.17
0.0231	0.1553	950.7	0.17
0.0405	0.1553	951.86	0.17
0.0613	0.1553	953.21	0.17
0.0858	0.1553	954.77	0.17
0.0994	0.1553	955.63	0.17
0.1228	0.1553	957.06	0.17
0.141	0.1553	958.17	0.17
0.1618	0.1553	959.35	0.17
0.1848	0.1553	960.66	0.17
0.1953	0.1553	961.27	0.17

System: dimethylformamide + N,N'-bis(2-pyridinylmethylene)-1,2-ethanediamine + 1-pentyl-3-methylimidazolium bromide; phases: Liquid
Fixed: Pressure, kPa = 101
Fixed: Temperature, K = 298.15
Property: Molar conductivity, S*m2/mol (Liquid); method: Alternating current cell with electrodes
Molality, mol/kg of 1-pentyl-3-methylimidazolium bromide	Solvent: Molality, mol/kg of N,N'-bis(2-pyridinylmethylene)-1,2-ethanediamine	Molar conductivity, S*m2/mol	uncertainty
0.0007182	0	98.08	4.9
0.0015506	0	87.89	3.75
0.0023422	0	82.93	2.1
0.0031991	0	79.26	1.53
0.0038436	0	77.27	1.02
0.0046436	0	75.59	0.89
0.0054026	0	73.84	1.07
0.0062922	0	71.25	0.99
0.0071735	0	69.49	0.8
0.0080223	0	67.83	0.8
0.0008197	0.0362	85.38	2.98
0.0017019	0.0362	79.91	2.12
0.0024749	0.0362	76.61	1.34
0.0034351	0.0362	74.08	1.07
0.0043329	0.0362	71.66	1.18
0.0053947	0.0362	68	1.08
0.0064018	0.0362	66.07	0.95
0.0073543	0.0362	63.97	0.92
0.0082053	0.0362	61.73	1.18
0.008986	0.0362	60.52	0.63
0.0009252	0.0725	75.86	1.67
0.0019288	0.0725	73.69	1
0.0028462	0.0725	71.36	0.97
0.0037478	0.0725	69.58	0.74
0.0045555	0.0725	68.43	0.6
0.0054258	0.0725	67.23	0.46
0.0061079	0.0725	66.76	0.36
0.0068292	0.0725	66.33	0.27
0.0075506	0.0725	65.71	0.22
0.0088835	0.0725	64.97	0.86
0.0009912	0.1157	71.15	0.57
0.0017947	0.1157	70.04	0.47
0.0029436	0.1157	68.92	0.42
0.0038823	0.1157	67.96	0.46
0.0047158	0.1157	66.99	0.39
0.0055793	0.1157	66.42	0.39
0.0062702	0.1157	65.53	0.43
0.0069835	0.1157	64.98	0.36
0.0077344	0.1157	64.29	0.3
0.0090711	0.1157	63.51	0.27

System: dimethylformamide + N,N'-bis(2-pyridinylmethylene)-1,2-ethanediamine + 1-pentyl-3-methylimidazolium bromide; phases: Liquid
Fixed: Temperature, K = 298.15
Fixed: Pressure, kPa = 101
Property: Viscosity, Pa*s (Liquid); method: Capillary tube (Ostwald; Ubbelohde) method
Molality, mol/kg of 1-pentyl-3-methylimidazolium bromide	Solvent: Molality, mol/kg of N,N'-bis(2-pyridinylmethylene)-1,2-ethanediamine	Viscosity, Pa*s	uncertainty
0.0201	0	0.000877	8e-06
0.0409	0	0.00089	8e-06
0.0618	0	0.000899	8e-06
0.0853	0	0.000912	8e-06
0.1009	0	0.000925	8e-06
0.1186	0	0.000942	8e-06
0.1433	0	0.000957	8e-06
0.161	0	0.000965	8e-06
0.1798	0	0.000982	8e-06
0.205	0	0.000991	8e-06
0.0233	0.0401	0.00089	8e-06
0.0408	0.0401	0.000903	8e-06
0.0602	0.0401	0.000917	8e-06
0.0814	0.0401	0.000927	8e-06
0.0999	0.0401	0.000936	8e-06
0.1205	0.0401	0.000951	8e-06
0.1386	0.0401	0.000965	8e-06
0.1603	0.0401	0.000979	8e-06
0.182	0.0401	0.000992	8e-06
0.1966	0.0401	0.001003	8e-06
0.0244	0.0728	0.000901	8e-06
0.0428	0.0728	0.00091	8e-06
0.0628	0.0728	0.000928	8e-06
0.0812	0.0728	0.000938	8e-06
0.1001	0.0728	0.000948	8e-06
0.1223	0.0728	0.000962	8e-06
0.1405	0.0728	0.000978	8e-06
0.1617	0.0728	0.000987	8e-06
0.1793	0.0728	0.000997	8e-06
0.2	0.0728	0.00101	8e-06
0.0237	0.1205	0.00092	8e-06
0.0482	0.1205	0.000928	8e-06
0.0602	0.1205	0.000932	8e-06
0.0853	0.1205	0.00094	8e-06
0.099	0.1205	0.000951	8e-06
0.1253	0.1205	0.000962	8e-06
0.1441	0.1205	0.000968	8e-06
0.1617	0.1205	0.00099	8e-06
0.1843	0.1205	0.00101	8e-06
0.2034	0.1205	0.001018	8e-06
0.0231	0.1553	0.000945	8e-06
0.0405	0.1553	0.000955	8e-06
0.0613	0.1553	0.000968	8e-06
0.0858	0.1553	0.000981	8e-06
0.0994	0.1553	0.000986	8e-06
0.1228	0.1553	0.000997	8e-06
0.141	0.1553	0.001012	8e-06
0.1618	0.1553	0.001023	9e-06
0.1848	0.1553	0.001035	9e-06
0.1953	0.1553	0.00105	9e-06

System: dimethylformamide + N,N'-bis(2-pyridinylmethylene)-1,2-ethanediamine + 1-pentyl-3-methylimidazolium bromide; phases: Liquid
Fixed: Temperature, K = 298.15
Fixed: Pressure, kPa = 101
Property: Refractive index (Na D-line) (Liquid); method: Standard Abbe refractometry
Molality, mol/kg of 1-pentyl-3-methylimidazolium bromide	Solvent: Molality, mol/kg of N,N'-bis(2-pyridinylmethylene)-1,2-ethanediamine	Refractive index (Na D-line)	uncertainty
0.0201	0	1.4291	0.0004
0.0409	0	1.4297	0.0004
0.0618	0	1.4299	0.0004
0.0853	0	1.4309	0.0004
0.1009	0	1.4312	0.0004
0.1186	0	1.4317	0.0004
0.1433	0	1.432	0.0004
0.161	0	1.4323	0.0004
0.1798	0	1.4329	0.0004
0.205	0	1.4333	0.0004
0.0233	0.0401	1.4307	0.0004
0.0408	0.0401	1.4313	0.0004
0.0602	0.0401	1.4316	0.0004
0.0814	0.0401	1.4319	0.0004
0.0999	0.0401	1.4323	0.0004
0.1205	0.0401	1.4326	0.0004
0.1386	0.0401	1.4329	0.0004
0.1603	0.0401	1.4333	0.0004
0.182	0.0401	1.4339	0.0004
0.1966	0.0401	1.4345	0.0004
0.0244	0.0728	1.4311	0.0004
0.0428	0.0728	1.4315	0.0004
0.0628	0.0728	1.432	0.0004
0.0812	0.0728	1.4326	0.0004
0.1001	0.0728	1.4332	0.0004
0.1223	0.0728	1.4337	0.0004
0.1405	0.0728	1.4344	0.0004
0.1617	0.0728	1.4348	0.0004
0.1793	0.0728	1.4352	0.0004
0.2	0.0728	1.4355	0.0004
0.0237	0.1205	1.4322	0.0004
0.0482	0.1205	1.4325	0.0004
0.0602	0.1205	1.4328	0.0004
0.0853	0.1205	1.4334	0.0004
0.099	0.1205	1.4338	0.0004
0.1253	0.1205	1.4342	0.0004
0.1441	0.1205	1.4348	0.0004
0.1617	0.1205	1.4352	0.0004
0.1843	0.1205	1.4356	0.0004
0.2034	0.1205	1.4362	0.0004
0.0231	0.1553	1.434	0.0004
0.0406	0.1553	1.4346	0.0004
0.0613	0.1553	1.4352	0.0004
0.0858	0.1553	1.4356	0.0004
0.0994	0.1553	1.4359	0.0004
0.1228	0.1553	1.4365	0.0004
0.141	0.1553	1.4369	0.0004
0.1615	0.1553	1.4373	0.0004
0.1848	0.1553	1.4376	0.0004
0.1953	0.1553	1.438	0.0004

System: dimethylformamide + N,N'-bis(2-pyridinylmethylene)-1,2-ethanediamine + 1-methyl-3-propylimidazolium bromide; phases: Liquid
Fixed: Pressure, kPa = 101
Fixed: Temperature, K = 298.15
Property: Mass density, kg/m3 (Liquid); method: Vibrating tube method
Molality, mol/kg of 1-methyl-3-propylimidazolium bromide	Solvent: Molality, mol/kg of N,N'-bis(2-pyridinylmethylene)-1,2-ethanediamine	Mass density, kg/m3	uncertainty
0	0	943.99	0.17
0.0268	0	945.94	0.17
0.0444	0	947.2	0.2
0.0628	0	948.49	0.17
0.0851	0	950.04	0.17
0.103	0	951.26	0.17
0.1256	0	952.76	0.17
0.1396	0	953.7	0.17
0.1656	0	955.41	0.17
0.1826	0	956.49	0.17
0.2057	0	957.93	0.16
0	0.0484	945.37	0.17
0.0271	0.0484	947.35	0.17
0.0417	0.0484	948.41	0.17
0.0599	0.0484	949.7	0.17
0.0842	0.0484	951.41	0.17
0.1015	0.0484	952.61	0.17
0.1251	0.0484	954.21	0.17
0.1403	0.0484	955.21	0.17
0.1558	0.0484	956.23	0.17
0.18	0.0484	957.8	0.16
0.2033	0.0484	959.28	0.16
0	0.0941	946.67	0.17
0.0282	0.0941	948.77	0.17
0.0431	0.0941	949.85	0.17
0.0603	0.0941	951.08	0.17
0.085	0.0941	952.83	0.17
0.1029	0.0941	954.07	0.17
0.1263	0.0941	955.65	0.17
0.1439	0.0941	956.85	0.17
0.1639	0.0941	958.07	0.16
0.1829	0.0941	959.24	0.16
0.2017	0.0941	960.57	0.16
0	0.1508	948.27	0.19
0.0283	0.1508	950.37	0.17
0.0433	0.1508	951.45	0.19
0.0618	0.1508	952.77	0.19
0.0865	0.1508	954.52	0.19
0.1043	0.1508	955.72	0.19
0.1221	0.1508	956.91	0.17
0.1447	0.1508	958.35	0.19
0.1603	0.1508	959.43	0.18
0.1864	0.1508	961.14	0.16
0.2104	0.1508	962.61	0.16
0	0.1553	949.25	0.19
0.0228	0.1553	950.95	0.19
0.0437	0.1553	952.47	0.19
0.0617	0.1553	953.74	0.19
0.0834	0.1553	955.26	0.18
0.1031	0.1553	956.59	0.19
0.1262	0.1553	958.14	0.19
0.1442	0.1553	959.33	0.19
0.162	0.1553	960.46	0.18
0.183	0.1553	961.82	0.18
0.2024	0.1553	962.98	0.16

System: dimethylformamide + N,N'-bis(2-pyridinylmethylene)-1,2-ethanediamine + 1-methyl-3-propylimidazolium bromide; phases: Liquid
Fixed: Pressure, kPa = 101
Fixed: Temperature, K = 298.15
Property: Molar conductivity, S*m2/mol (Liquid); method: Metrohm model 712, Switzerland
Molality, mol/kg of 1-methyl-3-propylimidazolium bromide	Solvent: Molality, mol/kg of N,N'-bis(2-pyridinylmethylene)-1,2-ethanediamine	Molar conductivity, S*m2/mol	uncertainty
0.0010796	0	83.29	0.17
0.0023726	0	77.03	0.15
0.0035946	0	71.56	0.14
0.0047691	0	67.89	0.14
0.0059436	0	64.99	0.13
0.007296	0	62.17	0.12
0.008601	0	60.22	0.12
0.0097992	0	58.74	0.12
0.011187	0	56.94	0.11
0.0130854	0	54.8	0.11
0.0010826	0.0362	69.33	0.14
0.0023604	0.0362	67.04	0.13
0.0035894	0.0362	64.71	0.13
0.0049257	0.0362	62.61	0.13
0.0060961	0.0362	61.23	0.12
0.0076274	0.0362	59.56	0.12
0.0087686	0.0362	57.91	0.12
0.0101146	0.0362	56.71	0.11
0.0114607	0.0362	55.23	0.11
0.0128457	0.0362	54.43	0.11
0.0014018	0.0766	62.41	0.12
0.0029541	0.0766	61.43	0.12
0.0042806	0.0766	60.54	0.12
0.0054471	0.0766	59.59	0.12
0.0066043	0.0766	58.95	0.12
0.0078179	0.0766	58.28	0.12
0.00909738	0.0766	57.38	0.11
0.0102827	0.0766	56.87	0.11
0.0114587	0.0766	56.48	0.11
0.0126723	0.0766	56.22	0.11
0.001765193	0.1197	57.98	0.12
0.003559644	0.1197	57.33	0.11
0.005003007	0.1197	56.82	0.11
0.006339093	0.1197	56.35	0.11
0.007626416	0.1197	55.97	0.11
0.008952749	0.1197	55.45	0.11
0.01029859	0.1197	54.92	0.11
0.0115274	0.1197	54.6	0.11
0.0127172	0.1197	54.37	0.11
0.0139264	0.1197	54.19	0.11

System: dimethylformamide + N,N'-bis(2-pyridinylmethylene)-1,2-ethanediamine + 1-methyl-3-propylimidazolium bromide; phases: Liquid
Fixed: Temperature, K = 298.15
Fixed: Pressure, kPa = 101
Property: Viscosity, Pa*s (Liquid); method: Capillary tube (Ostwald; Ubbelohde) method
Molality, mol/kg of 1-methyl-3-propylimidazolium bromide	Solvent: Molality, mol/kg of N,N'-bis(2-pyridinylmethylene)-1,2-ethanediamine	Viscosity, Pa*s	uncertainty
0.0268	0	0.00088	8e-06
0.0444	0	0.000889	8e-06
0.0628	0	0.000897	8e-06
0.0851	0	0.000905	8e-06
0.103	0	0.000917	8e-06
0.1256	0	0.000923	8e-06
0.1396	0	0.000936	8e-06
0.1656	0	0.000956	8e-06
0.1826	0	0.000966	8e-06
0.2057	0	0.000975	8e-06
0.0271	0.0484	0.000893	8e-06
0.0417	0.0484	0.000902	8e-06
0.0599	0.0484	0.000915	8e-06
0.0842	0.0484	0.000924	8e-06
0.1015	0.0484	0.000934	8e-06
0.1251	0.0484	0.000947	8e-06
0.1403	0.0484	0.000959	8e-06
0.1558	0.0484	0.000969	8e-06
0.18	0.0484	0.000998	8e-06
0.2033	0.0484	0.000989	8e-06
0.0282	0.0941	0.000909	8e-06
0.0431	0.0941	0.000922	8e-06
0.0603	0.0941	0.000932	8e-06
0.085	0.0941	0.000946	8e-06
0.1029	0.0941	0.000955	8e-06
0.1263	0.0941	0.000968	8e-06
0.1439	0.0941	0.00098	8e-06
0.1639	0.0941	0.000986	8e-06
0.1829	0.0941	0.000995	8e-06
0.2017	0.0941	0.001013	8e-06
0.0283	0.1508	0.000935	8e-06
0.0433	0.1508	0.00094	8e-06
0.0618	0.1508	0.000949	8e-06
0.0865	0.1508	0.000969	8e-06
0.1043	0.1508	0.000979	8e-06
0.1221	0.1508	0.000988	8e-06
0.1447	0.1508	0.000998	8e-06
0.1603	0.1508	0.001006	8e-06
0.1864	0.1508	0.001016	8e-06
0.2104	0.1508	0.001031	9e-06
0.0228	0.182	0.000943	8e-06
0.0436	0.182	0.000952	8e-06
0.0617	0.182	0.000961	8e-06
0.0834	0.182	0.000972	8e-06
0.1031	0.182	0.000984	8e-06
0.1262	0.182	0.000995	8e-06
0.1442	0.182	0.001008	8e-06
0.162	0.182	0.001018	8e-06
0.183	0.182	0.00103	9e-06
0.2024	0.182	0.001036	9e-06

System: dimethylformamide + N,N'-bis(2-pyridinylmethylene)-1,2-ethanediamine + 1-methyl-3-propylimidazolium bromide; phases: Liquid
Fixed: Temperature, K = 298.15
Fixed: Pressure, kPa = 101
Property: Refractive index (Na D-line) (Liquid); method: Standard Abbe refractometry
Molality, mol/kg of 1-methyl-3-propylimidazolium bromide	Solvent: Molality, mol/kg of N,N'-bis(2-pyridinylmethylene)-1,2-ethanediamine	Refractive index (Na D-line)	uncertainty
0.0268	0	1.4289	0.0004
0.0444	0	1.4296	0.0004
0.0628	0	1.4302	0.0004
0.0851	0	1.4307	0.0004
0.103	0	1.4309	0.0004
0.1256	0	1.4312	0.0004
0.1396	0	1.4317	0.0004
0.1656	0	1.4321	0.0004
0.1826	0	1.4328	0.0004
0.2057	0	1.4336	0.0004
0.0271	0.0484	1.4307	0.0004
0.0417	0.0484	1.4311	0.0004
0.0599	0.0484	1.4314	0.0004
0.0842	0.0484	1.4322	0.0004
0.1015	0.0484	1.4328	0.0004
0.1251	0.0484	1.4331	0.0004
0.1403	0.0484	1.4336	0.0004
0.1558	0.0484	1.434	0.0004
0.18	0.0484	1.4345	0.0004
0.2033	0.0484	1.4348	0.0004
0.0282	0.0941	1.4318	0.0004
0.0431	0.0941	1.4324	0.0004
0.0603	0.0941	1.4326	0.0004
0.085	0.0941	1.4336	0.0004
0.1029	0.0941	1.4338	0.0004
0.1263	0.0941	1.4342	0.0004
0.1439	0.0941	1.4351	0.0004
0.1639	0.0941	1.4355	0.0004
0.1829	0.0941	1.436	0.001
0.2017	0.0941	1.4362	0.0004
0.0283	0.1508	1.4334	0.0004
0.0433	0.1508	1.4338	0.0004
0.0618	0.1508	1.4342	0.0004
0.0865	0.1508	1.4346	0.0004
0.1043	0.1508	1.4353	0.0004
0.1221	0.1508	1.4357	0.0004
0.1447	0.1508	1.4362	0.0004
0.1603	0.1508	1.4367	0.0004
0.1864	0.1508	1.4369	0.0004
0.2104	0.1508	1.4379	0.0004
0.0228	0.182	1.434	0.0004
0.0436	0.182	1.4349	0.0004
0.0617	0.182	1.4354	0.0004
0.0834	0.182	1.4357	0.0004
0.1031	0.182	1.4359	0.0004
0.1262	0.182	1.4362	0.0004
0.1442	0.182	1.4368	0.0004
0.162	0.182	1.4375	0.0004
0.183	0.182	1.438	0.001
0.2024	0.182	1.4387	0.0004

System: dimethylformamide + 1-pentyl-3-methylimidazolium bromide; phases: Liquid
Fixed: Pressure, kPa = 101
Fixed: Temperature, K = 298.15
Property: Mass density, kg/m3 (Liquid); method: Vibrating tube method
Molality, mol/kg of 1-pentyl-3-methylimidazolium bromide	Mass density, kg/m3	uncertainty
0.0201	945.2	0.11
0.0409	946.55	0.11
0.0618	947.88	0.11
0.0853	949.36	0.11
0.1009	950.32	0.11
0.1186	951.39	0.11
0.1433	952.9	0.11
0.161	953.93	0.11
0.1798	955.02	0.11
0.205	956.48	0.11

System: dimethylformamide + 1-pentyl-3-methylimidazolium bromide; phases: Liquid
Fixed: Pressure, kPa = 101
Fixed: Temperature, K = 298.15
Property: Molar conductivity, S*m2/mol (Liquid); method: Alternating current cell with electrodes
Molality, mol/kg of 1-pentyl-3-methylimidazolium bromide	Molar conductivity, S*m2/mol	uncertainty
0.0007182	98.08	4.9
0.0015506	87.89	3.75
0.0023422	82.93	2.1
0.0031991	79.26	1.53
0.0038436	77.27	1.02
0.0046436	75.59	0.89
0.0054026	73.84	1.07
0.0062922	71.25	0.99
0.0071735	69.49	0.8
0.0080223	67.83	0.8

System: dimethylformamide + 1-pentyl-3-methylimidazolium bromide; phases: Liquid
Fixed: Temperature, K = 298.15
Fixed: Pressure, kPa = 101
Property: Viscosity, Pa*s (Liquid); method: Capillary tube (Ostwald; Ubbelohde) method
Molality, mol/kg of 1-pentyl-3-methylimidazolium bromide	Viscosity, Pa*s	uncertainty
0.0201	0.000877	8e-06
0.0409	0.00089	8e-06
0.0618	0.000899	8e-06
0.0853	0.000912	8e-06
0.1009	0.000925	8e-06
0.1186	0.000942	8e-06
0.1433	0.000957	8e-06
0.161	0.000965	8e-06
0.1798	0.000982	8e-06
0.205	0.000991	8e-06

System: dimethylformamide + 1-pentyl-3-methylimidazolium bromide; phases: Liquid
Fixed: Temperature, K = 298.15
Fixed: Pressure, kPa = 101
Property: Refractive index (Na D-line) (Liquid); method: Standard Abbe refractometry
Molality, mol/kg of 1-pentyl-3-methylimidazolium bromide	Refractive index (Na D-line)	uncertainty
0.0201	1.4291	0.0004
0.0409	1.4297	0.0004
0.0618	1.4299	0.0004
0.0853	1.4309	0.0004
0.1009	1.4312	0.0004
0.1186	1.4317	0.0004
0.1433	1.432	0.0004
0.161	1.4323	0.0004
0.1798	1.4329	0.0004
0.205	1.4333	0.0004

System: dimethylformamide + N,N'-bis(2-pyridinylmethylene)-1,2-ethanediamine; phases: Liquid
Fixed: Pressure, kPa = 101
Fixed: Temperature, K = 298.15
Property: Mass density, kg/m3 (Liquid); method: Vibrating tube method
Molality, mol/kg of N,N'-bis(2-pyridinylmethylene)-1,2-ethanediamine	Mass density, kg/m3	uncertainty
0.0401	945.31	0.8
0.0728	946.33	0.8
0.1205	947.34	0.8
0.1553	949.12	0.8
0.0484	945.37	0.8
0.0941	946.67	0.8
0.1508	948.27	0.8
0.1553	949.25	0.8

System: dimethylformamide + 1-methyl-3-propylimidazolium bromide; phases: Liquid
Fixed: Pressure, kPa = 101
Fixed: Temperature, K = 298.15
Property: Mass density, kg/m3 (Liquid); method: Vibrating tube method
Molality, mol/kg of 1-methyl-3-propylimidazolium bromide	Mass density, kg/m3	uncertainty
0.0268	945.94	0.11
0.0444	947.2	0.1
0.0628	948.49	0.11
0.0851	950.04	0.11
0.103	951.26	0.11
0.1256	952.76	0.11
0.1396	953.7	0.11
0.1656	955.41	0.11
0.1826	956.49	0.11
0.2057	957.93	0.11

System: dimethylformamide + 1-methyl-3-propylimidazolium bromide; phases: Liquid
Fixed: Pressure, kPa = 101
Fixed: Temperature, K = 298.15
Property: Molar conductivity, S*m2/mol (Liquid); method: Metrohm model 712, Switzerland
Molality, mol/kg of 1-methyl-3-propylimidazolium bromide	Molar conductivity, S*m2/mol	uncertainty
0.0010796	83.29	0.17
0.0023726	77.03	0.15
0.0035946	71.56	0.14
0.0047691	67.89	0.14
0.0059436	64.99	0.13
0.007296	62.17	0.12
0.008601	60.22	0.12
0.0097992	58.74	0.12
0.011187	56.94	0.11
0.0130854	54.8	0.11

System: dimethylformamide + 1-methyl-3-propylimidazolium bromide; phases: Liquid
Fixed: Temperature, K = 298.15
Fixed: Pressure, kPa = 101
Property: Viscosity, Pa*s (Liquid); method: Capillary tube (Ostwald; Ubbelohde) method
Molality, mol/kg of 1-methyl-3-propylimidazolium bromide	Viscosity, Pa*s	uncertainty
0.0268	0.00088	8e-06
0.0444	0.000889	8e-06
0.0628	0.000897	8e-06
0.0851	0.000905	8e-06
0.103	0.000917	8e-06
0.1256	0.000923	8e-06
0.1396	0.000936	8e-06
0.1656	0.000956	8e-06
0.1826	0.000966	8e-06
0.2057	0.000975	8e-06

System: dimethylformamide + 1-methyl-3-propylimidazolium bromide; phases: Liquid
Fixed: Temperature, K = 298.15
Fixed: Pressure, kPa = 101
Property: Refractive index (Na D-line) (Liquid); method: Standard Abbe refractometry
Molality, mol/kg of 1-methyl-3-propylimidazolium bromide	Refractive index (Na D-line)	uncertainty
0.0268	1.4289	0.0004
0.0444	1.4296	0.0004
0.0628	1.4302	0.0004
0.0851	1.4307	0.0004
0.103	1.4309	0.0004
0.1256	1.4312	0.0004
0.1396	1.4317	0.0004
0.1656	1.4321	0.0004
0.1826	1.4328	0.0004
0.2057	1.4336	0.0004
