Measured thermophysical data. Measurement and Correlation of 1,4-Naphthoquinone and of Plumbagin Solubilities in Supercritical Carbon Dioxide
Source: J. Chem. Eng. Data, 2011, 10.1021/je200675g
Compound 1: carbon dioxide, CO2, InChI=1S/CO2/c2-1-3
Compound 2: 5-hydroxy-2-methyl-1,4-naphthoquinone, C11H8O3, InChI=1S/C11H8O3/c1-6-5-9(13)10-7(11(6)14)3-2-4-8(10)12/h2-5,12H,1H3
Compound 3: .alpha.-naphthoquinone, C10H6O2, InChI=1S/C10H6O2/c11-9-5-6-10(12)8-4-2-1-3-7(8)9/h1-6H

System: carbon dioxide + .alpha.-naphthoquinone; phases: Fluid (supercritical or subcritical phases), Crystal
Property: Mole fraction of .alpha.-naphthoquinone (Fluid (supercritical or subcritical phases)); method: UV/Vis Spectrophotometer
Temperature, K	Pressure, kPa	Mole fraction of .alpha.-naphthoquinone	uncertainty
308.2	9100	0.00096	3e-05
308.2	12400	0.0018	2e-05
308.2	15200	0.00232	2e-05
308.2	18300	0.00286	3e-05
308.2	21200	0.00321	3e-05
308.2	24000	0.0035	3e-05
318.2	9200	0.00014	1e-05
318.2	12200	0.00106	2e-05
318.2	15100	0.00201	7e-05
318.2	18500	0.003	3e-05
318.2	21200	0.00367	4e-05
318.2	24200	0.00426	4e-05
328.2	9200	5e-05	1e-05
328.2	12200	0.00078	2e-05
328.2	15100	0.00186	2e-05
328.2	18500	0.00311	3e-05
328.2	21200	0.00428	4e-05
328.2	24100	0.00493	4e-05

System: carbon dioxide + 5-hydroxy-2-methyl-1,4-naphthoquinone; phases: Fluid (supercritical or subcritical phases), Crystal
Property: Mole fraction of 5-hydroxy-2-methyl-1,4-naphthoquinone (Fluid (supercritical or subcritical phases)); method: UV/Vis Spectrophotometer
Temperature, K	Pressure, kPa	Mole fraction of 5-hydroxy-2-methyl-1,4-naphthoquinone	uncertainty
308.2	9100	0.00125	4e-05
308.2	12300	0.00241	4e-05
308.2	15200	0.00312	3e-05
308.2	18000	0.0038	5e-05
308.2	21200	0.00455	6e-05
308.2	24300	0.00504	7e-05
318.2	9100	0.00012	0.00012
318.2	12100	0.00182	0.00018
318.2	15200	0.0034	0.00048
318.2	18000	0.00468	0.00045
318.2	21200	0.00598	0.00043
318.2	23900	0.00695	0.00022
328.2	9200	5e-05	2e-05
328.2	12200	0.00161	9e-05
328.2	15000	0.00366	6e-05
328.2	18400	0.0058	7e-05
328.2	21200	0.00739	8e-05
328.2	24000	0.009	0.0001
