Measured thermophysical data. Solubility of Thiotriazinone in Binary Solvent Mixtures of Water + Methanol and Water + Ethanol from (283 to 330) K
Source: J. Chem. Eng. Data, 2012, 10.1021/je201149u
Compound 1: thiotriazinone, C4H5N3O2S, InChI=1S/C4H5N3O2S/c1-7-4(10)5-2(8)3(9)6-7/h1H3,(H,6,9)(H,5,8,10), purity 99.5%
Compound 2: water, H2O, InChI=1S/H2O/h1H2, purity 99.9%
Compound 3: methanol, CH4O, InChI=1S/CH4O/c1-2/h2H,1H3, purity 99.5%
Compound 4: ethanol, C2H6O, InChI=1S/C2H6O/c1-2-3/h3H,2H2,1H3, purity 99.5%

System: water + thiotriazinone; phases: Liquid, Crystal
Fixed: Pressure, kPa = 101.3
Property: Mole fraction of thiotriazinone (Liquid); method: Laser Beam Method
Temperature, K	Mole fraction of thiotriazinone	uncertainty
283.25	0.0008628	3.82e-05
288.17	0.001012	4.5e-05
293.05	0.001228	5.4e-05
298	0.001439	6.4e-05
302.87	0.001705	7.6e-05
307.95	0.002055	9.1e-05
312.95	0.002481	0.00011
318.25	0.002933	0.00013
323	0.003549	0.000157
328.25	0.004313	0.000191

System: ethanol + thiotriazinone; phases: Liquid, Crystal
Fixed: Pressure, kPa = 101.3
Property: Mole fraction of thiotriazinone (Liquid); method: Laser Beam Method
Temperature, K	Mole fraction of thiotriazinone	uncertainty
283.65	0.008216	0.000336
288.75	0.009828	0.000401
293.15	0.0113	0.00046
298.15	0.01334	0.00054
303.05	0.01477	0.0006
308.05	0.01637	0.00067
313.75	0.01841	0.00075
318.25	0.0201	0.00082
323.45	0.02228	0.00091
328.65	0.02457	0.001

System: methanol + thiotriazinone; phases: Liquid, Crystal
Fixed: Pressure, kPa = 101.3
Property: Mole fraction of thiotriazinone (Liquid); method: Laser Beam Method
Temperature, K	Mole fraction of thiotriazinone	uncertainty
283.15	0.01355	0.00056
288.55	0.01604	0.00067
293.05	0.01851	0.00077
298.05	0.02137	0.00089
302.93	0.0245	0.00102
308.35	0.02831	0.00118
314.15	0.03259	0.00135
319.05	0.03549	0.00147
323.75	0.03845	0.0016
328.65	0.04135	0.00172

System: ethanol + water + thiotriazinone; phases: Liquid, Crystal
Fixed: Pressure, kPa = 101.3
Property: Mole fraction of thiotriazinone (Liquid); method: Laser Beam Method
Solvent: Mole fraction of ethanol	Temperature, K	Mole fraction of thiotriazinone	uncertainty
0	283.25	0.0008628	3.82e-05
0	288.17	0.001012	4.5e-05
0	293.05	0.001228	5.4e-05
0	298	0.001439	6.4e-05
0	302.87	0.001705	7.6e-05
0	307.95	0.002055	9.1e-05
0	312.95	0.002481	0.00011
0	318.25	0.002933	0.00013
0	323	0.003549	0.000157
0	328.25	0.004313	0.000191
0.04964	283.32	0.0009477	4.15e-05
0.04964	288.59	0.001177	5.2e-05
0.04964	293.23	0.001461	6.4e-05
0.04964	298.02	0.001803	7.9e-05
0.04964	303.55	0.002298	0.000101
0.04964	308.23	0.00282	0.000124
0.04964	313.48	0.003475	0.000152
0.04964	318.3	0.004278	0.000188
0.04964	322.85	0.005267	0.000231
0.04964	327.96	0.006513	0.000286
0.08932	283.49	0.001068	4.6e-05
0.08932	288.31	0.001333	5.8e-05
0.08932	292.95	0.001774	7.7e-05
0.08932	298.87	0.002313	0.000101
0.08932	303.17	0.002863	0.000125
0.08932	308.63	0.003736	0.000163
0.08932	313.53	0.00466	0.000203
0.08932	318.3	0.005834	0.000254
0.08932	322.85	0.007259	0.000316
0.08932	327.96	0.008913	0.000388
0.1432	283.25	0.001896	8.2e-05
0.1432	288.35	0.002289	9.9e-05
0.1432	292.94	0.002876	0.000124
0.1432	298.65	0.003705	0.00016
0.1432	303.15	0.004521	0.000195
0.1432	308.57	0.005688	0.000245
0.1432	313.45	0.007094	0.000306
0.1432	319	0.008745	0.000377
0.1432	323.25	0.01078	0.00047
0.1432	327.96	0.01312	0.00056
0.2076	283.44	0.002542	0.000108
0.2076	288.91	0.003308	0.000141
0.2076	292.75	0.004073	0.000174
0.2076	298.22	0.005135	0.000219
0.2076	303.27	0.00644	0.000275
0.2076	308.71	0.008079	0.000345
0.2076	313.03	0.009925	0.000424
0.2076	318.85	0.01225	0.00052
0.2076	323.35	0.01459	0.00062
0.2076	328.75	0.0176	0.00075
0.2808	283.05	0.004022	0.00017
0.2808	288.85	0.005059	0.000214
0.2808	292.59	0.005982	0.000253
0.2808	298.15	0.007386	0.000312
0.2808	303.17	0.008947	0.000378
0.2808	308.67	0.01107	0.00047
0.2808	313.45	0.01331	0.00056
0.2808	318.95	0.01609	0.00068
0.2808	323.35	0.01895	0.0008
0.2808	328.75	0.02236	0.00094
0.3693	283.24	0.005611	0.000235
0.3693	288.31	0.006753	0.000283
0.3693	293.45	0.008193	0.000343
0.3693	298.47	0.009702	0.000407
0.3693	303.47	0.01165	0.00049
0.3693	308.58	0.01393	0.00058
0.3693	313.58	0.01634	0.00069
0.3693	318.35	0.01926	0.00081
0.3693	323.4	0.02257	0.00095
0.3693	328.65	0.02614	0.00109
0.4751	283.2	0.007303	0.000304
0.4751	288.3	0.008621	0.000358
0.4751	293.44	0.01016	0.00042
0.4751	298.4	0.01196	0.0005
0.4751	303.42	0.014	0.00058
0.4751	308.57	0.01639	0.00068
0.4751	313.5	0.01904	0.00079
0.4751	318.45	0.02211	0.00092
0.4751	323.4	0.02573	0.00107
0.4751	328.65	0.02948	0.00122
0.6103	283.14	0.008758	0.000362
0.6103	288.31	0.01003	0.00041
0.6103	293.35	0.01172	0.00048
0.6103	298.27	0.01338	0.00055
0.6103	303.37	0.01543	0.00064
0.6103	308.68	0.01797	0.00074
0.6103	313.33	0.02057	0.00085
0.6103	318.55	0.02347	0.00097
0.6103	323.6	0.02685	0.00111
0.6103	328.5	0.03047	0.00126
0.7813	282.95	0.009443	0.000388
0.7813	288.3	0.01072	0.00044
0.7813	293.39	0.0122	0.0005
0.7813	298.35	0.01363	0.00056
0.7813	303.42	0.01551	0.00064
0.7813	308.62	0.01782	0.00073
0.7813	313.35	0.02005	0.00082
0.7813	318.55	0.02258	0.00093
0.7813	323.6	0.02566	0.00105
0.7813	328.35	0.02892	0.00119
1	283.65	0.008216	0.000336
1	288.75	0.009828	0.000401
1	293.15	0.0113	0.00046
1	298.15	0.01334	0.00054
1	303.05	0.01477	0.0006
1	308.05	0.01637	0.00067
1	313.75	0.01841	0.00075
1	318.25	0.0201	0.00082
1	323.45	0.02228	0.00091
1	328.65	0.02457	0.001

System: methanol + water + thiotriazinone; phases: Liquid, Crystal
Fixed: Pressure, kPa = 101.3
Property: Mole fraction of thiotriazinone (Liquid); method: Laser Beam Method
Solvent: Mole fraction of methanol	Temperature, K	Mole fraction of thiotriazinone	uncertainty
0	283.25	0.0008628	3.82e-05
0	288.17	0.001012	4.5e-05
0	293.05	0.001228	5.4e-05
0	298	0.001439	6.4e-05
0	302.87	0.001705	7.6e-05
0	307.95	0.002055	9.1e-05
0	312.95	0.002481	0.00011
0	318.25	0.002933	0.00013
0	323	0.003549	0.000157
0	328.25	0.004313	0.000191
0.06133	283.34	0.0009451	4.16e-05
0.06133	288.35	0.001189	5.2e-05
0.06133	293.53	0.001458	6.4e-05
0.06133	298.02	0.001766	7.8e-05
0.06133	303.57	0.002196	9.7e-05
0.06133	308.53	0.002642	0.000116
0.06133	313.53	0.003276	0.000144
0.06133	318.27	0.003951	0.000174
0.06133	323.35	0.00487	0.000214
0.06133	328.65	0.005884	0.000259
0.1242	283.15	0.00113	4.9e-05
0.1242	288.25	0.001463	6.4e-05
0.1242	293.49	0.001803	7.9e-05
0.1242	297.95	0.002201	9.6e-05
0.1242	303.45	0.002796	0.000122
0.1242	308.57	0.003441	0.00015
0.1242	313.47	0.004241	0.000186
0.1242	318.35	0.005269	0.000231
0.1242	323.45	0.006522	0.000285
0.1242	328.65	0.007994	0.00035
0.1943	283.16	0.001586	6.9e-05
0.1943	288.51	0.002036	8.8e-05
0.1943	293.11	0.002497	0.000108
0.1943	298.37	0.003031	0.000132
0.1943	303.27	0.003749	0.000163
0.1943	308.63	0.004748	0.000206
0.1943	313.53	0.005874	0.000255
0.1943	318.6	0.007276	0.000316
0.1943	323.25	0.009006	0.000391
0.1943	328.45	0.01102	0.00048
0.2733	283.05	0.002281	9.8e-05
0.2733	288.55	0.002871	0.000124
0.2733	293.29	0.003494	0.000151
0.2733	298.35	0.004369	0.000188
0.2733	303.38	0.005296	0.000228
0.2733	308.62	0.006658	0.000287
0.2733	313.5	0.008228	0.000355
0.2733	318.5	0.01013	0.00044
0.2733	323.4	0.01245	0.00054
0.2733	328.45	0.0151	0.00065
0.365	283.34	0.003547	0.000152
0.365	288.21	0.004335	0.000186
0.365	293.2	0.005315	0.000227
0.365	298.47	0.006461	0.000276
0.365	303.42	0.007833	0.000335
0.365	308.13	0.009436	0.000404
0.365	313.63	0.01163	0.0005
0.365	318.45	0.01403	0.0006
0.365	323.35	0.01681	0.00072
0.365	328.35	0.02001	0.00086
0.4572	283.25	0.005159	0.000219
0.4572	288.15	0.006127	0.00026
0.4572	293.29	0.007395	0.000314
0.4572	298.45	0.008918	0.000379
0.4572	303.37	0.0106	0.00045
0.4572	308.17	0.01254	0.00053
0.4572	313.5	0.01499	0.00064
0.4572	318.45	0.01794	0.00076
0.4572	323.25	0.02117	0.0009
0.4572	328.35	0.02495	0.00106
0.5675	283.44	0.006941	0.000292
0.5675	288.31	0.00822	0.00035
0.5675	293.35	0.009736	0.000411
0.5675	298.27	0.01137	0.00048
0.5675	303.57	0.01345	0.00057
0.5675	308.53	0.01592	0.00067
0.5675	313.53	0.01853	0.00078
0.5675	318.25	0.02165	0.00092
0.5675	323.35	0.02523	0.00107
0.5675	328.65	0.02931	0.00124
0.6934	283.15	0.0106	0.00045
0.6934	288.25	0.01214	0.00051
0.6934	293.29	0.01381	0.00058
0.6934	298.25	0.01568	0.00066
0.6934	303.42	0.01797	0.00075
0.6934	308.47	0.02056	0.00086
0.6934	313.45	0.02331	0.00098
0.6934	318.25	0.02651	0.00111
0.6934	323.35	0.03021	0.00127
0.6934	328.95	0.03435	0.00144
0.8299	282.65	0.01157	0.00048
0.8299	287.75	0.01368	0.00057
0.8299	293.19	0.01618	0.00068
0.8299	298.65	0.01902	0.00079
0.8299	303.57	0.02163	0.0009
0.8299	308.95	0.02438	0.00102
0.8299	314	0.02717	0.00113
0.8299	319.45	0.03046	0.00127
0.8299	323.95	0.03407	0.00142
0.8299	329.25	0.03814	0.00159
1	283.15	0.01355	0.00056
1	288.55	0.01604	0.00067
1	293.05	0.01851	0.00077
1	298.05	0.02137	0.00089
1	302.93	0.0245	0.00102
1	308.35	0.02831	0.00118
1	314.15	0.03259	0.00135
1	319.05	0.03549	0.00147
1	323.75	0.03845	0.0016
1	328.65	0.04135	0.00172
