Measured thermophysical data. Conductometric Studies of 1-Ethyl-3-methylimidazolium  Tetrafluoroborate and 1-Butyl-3-methylimidazolium  Tetrafluoroborate in N,N-Dimethylformamide at Temperatures from  (283.15 to 318.15) K
Source: J. Chem. Eng. Data, 2012, 10.1021/je201014c
Compound 1: dimethylformamide, C3H7NO, InChI=1S/C3H7NO/c1-4(2)3-5/h3H,1-2H3, purity 99.8%
Compound 2: 1-ethyl-3-methylimidazolium tetrafluoroborate, C6H11BF4N2, InChI=1S/C6H11N2.BF4/c1-3-8-5-4-7(2)6-8;2-1(3,4)5/h4-6H,3H2,1-2H3;/q+1;-1, purity 99%
Compound 3: 1-butyl-3-methylimidazolium tetrafluoroborate, C8H15BF4N2, InChI=1S/C8H15N2.BF4/c1-3-4-5-10-7-6-9(2)8-10;2-1(3,4)5/h6-8H,3-5H2,1-2H3;/q+1;-1, purity 98.5%

System: dimethylformamide; phases: Liquid
Fixed: Pressure, kPa = 101.325
Property: Viscosity, Pa*s (Liquid); method: Capillary tube (Ostwald; Ubbelohde) method
Temperature, K	Viscosity, Pa*s	uncertainty
283.15	0.0010158	6.5e-06
288.15	0.0009545	6.3e-06
293.15	0.0008985	6e-06
298.15	0.0008455	5.8e-06
303.15	0.000799	5.6e-06
308.15	0.0007553	5.4e-06
313.15	0.0007172	5.2e-06
318.15	0.0006826	5.1e-06

System: dimethylformamide; phases: Liquid
Fixed: Pressure, kPa = 101.325
Property: Mass density, kg/m3 (Liquid); method: Vibrating tube method
Temperature, K	Mass density, kg/m3	uncertainty
283.15	958.096	0.404
288.15	953.346	0.404
293.15	948.584	0.404
298.15	943.817	0.404
303.15	939.042	0.404
308.15	934.255	0.405
313.15	929.458	0.405
318.15	924.65	0.405

System: dimethylformamide + 1-ethyl-3-methylimidazolium tetrafluoroborate; phases: Liquid
Fixed: Pressure, kPa = 100
Property: Molar conductivity, S*m2/mol (Liquid); method: Direct current cell with electrodes
Temperature, K	Molality, mol/kg of 1-ethyl-3-methylimidazolium tetrafluoroborate	Molar conductivity, S*m2/mol	uncertainty
283.15	0.00010214	0.007524	1e-05
283.15	0.00028942	0.00744	1e-05
283.15	0.0004617	0.007387	1e-05
283.15	0.00070705	0.007326	1e-05
283.15	0.0011577	0.007238	1e-05
283.15	0.0018765	0.007128	1e-05
283.15	0.0029085	0.007001	1e-05
283.15	0.0039104	0.006899	1e-05
283.15	0.0060465	0.006724	1e-05
283.15	0.0080432	0.006596	1e-05
283.15	0.010022	0.006492	1e-05
283.15	0.012009	0.006403	1e-05
283.15	0.014905	0.006286	1e-05
288.15	9.1589e-05	0.008075	1e-05
288.15	0.00026952	0.007983	1e-05
288.15	0.00050978	0.007901	1e-05
288.15	0.00069319	0.007851	1e-05
288.15	0.0011678	0.007746	1e-05
288.15	0.0019153	0.007619	1e-05
288.15	0.0028865	0.007489	1e-05
288.15	0.0039337	0.007374	1e-05
288.15	0.0059141	0.007199	1e-05
288.15	0.0079753	0.007057	1e-05
288.15	0.009937	0.006944	1e-05
288.15	0.01205	0.00684	1e-05
288.15	0.014872	0.006715	1e-05
293.15	0.0001225	0.008604	1e-05
293.15	0.00029309	0.008516	1e-05
293.15	0.00049066	0.008442	1e-05
293.15	0.00072551	0.008372	1e-05
293.15	0.0011772	0.008263	1e-05
293.15	0.0018922	0.00813	1e-05
293.15	0.0029108	0.007981	1e-05
293.15	0.003932	0.00786	1e-05
293.15	0.005979	0.007668	1e-05
293.15	0.0079788	0.00752	1e-05
293.15	0.0099546	0.007398	1e-05
293.15	0.011928	0.007292	1e-05
293.15	0.014802	0.007155	1e-05
298.15	0.00011325	0.009167	1e-05
298.15	0.00027045	0.009077	1e-05
298.15	0.00047297	0.008993	1e-05
298.15	0.00067192	0.008926	1e-05
298.15	0.0011511	0.008798	1e-05
298.15	0.0019323	0.008639	1e-05
298.15	0.0029096	0.008486	1e-05
298.15	0.0038824	0.008361	1e-05
298.15	0.0059571	0.008152	1e-05
298.15	0.007912	0.007996	1e-05
298.15	0.009961	0.007859	1e-05
298.15	0.011998	0.007742	1e-05
298.15	0.014854	0.007598	1e-05
303.15	0.00014329	0.009709	1e-05
303.15	0.00029762	0.009622	1e-05
303.15	0.00050695	0.009532	1e-05
303.15	0.00071357	0.00946	1e-05
303.15	0.0011723	0.00933	1e-05
303.15	0.0018936	0.009172	1e-05
303.15	0.0029128	0.008999	1e-05
303.15	0.0039259	0.008861	1e-05
303.15	0.0058789	0.008649	1e-05
303.15	0.0079563	0.008471	1e-05
303.15	0.0099241	0.00833	1e-05
303.15	0.012018	0.0082	1e-05
303.15	0.014889	0.00805	1e-05
308.15	0.00010256	0.01031	1e-05
308.15	0.00036413	0.010155	1e-05
308.15	0.00050158	0.010095	1e-05
308.15	0.00066635	0.010033	1e-05
308.15	0.0011468	0.009884	1e-05
308.15	0.0019471	0.009697	1e-05
308.15	0.0028944	0.009525	1e-05
308.15	0.0038829	0.009379	1e-05
308.15	0.0058395	0.009149	1e-05
308.15	0.0079908	0.008948	1e-05
308.15	0.0099796	0.008792	1e-05
308.15	0.01192	0.008661	1e-05
308.15	0.014858	0.008494	1e-05
313.15	9.5186e-05	0.010895	1e-05
313.15	0.00027747	0.010772	1e-05
313.15	0.000472	0.010677	1e-05
313.15	0.00068358	0.010592	1e-05
313.15	0.0011589	0.010438	1e-05
313.15	0.0019479	0.010242	1e-05
313.15	0.0029094	0.010057	1e-05
313.15	0.0039343	0.009897	1e-05
313.15	0.0059555	0.009647	1e-05
313.15	0.007964	0.009449	1e-05
313.15	0.0099048	0.009289	1e-05
313.15	0.011924	0.009147	1e-05
313.15	0.015204	0.008968	1e-05
318.15	0.00010021	0.011475	1e-05
318.15	0.00027221	0.011357	1e-05
318.15	0.00042937	0.011275	1e-05
318.15	0.00068527	0.011165	1e-05
318.15	0.001173	0.011	1e-05
318.15	0.0018992	0.010808	1e-05
318.15	0.0029468	0.010593	1e-05
318.15	0.0039087	0.010433	1e-05
318.15	0.0059411	0.010163	1e-05
318.15	0.0079355	0.009952	1e-05
318.15	0.0099988	0.00977	1e-05
318.15	0.012	0.009623	1e-05
318.15	0.014936	0.009458	1e-05

System: dimethylformamide + 1-butyl-3-methylimidazolium tetrafluoroborate; phases: Liquid
Fixed: Pressure, kPa = 100
Property: Molar conductivity, S*m2/mol (Liquid); method: Alternating current cell with electrodes
Temperature, K	Molality, mol/kg of 1-butyl-3-methylimidazolium tetrafluoroborate	Molar conductivity, S*m2/mol	uncertainty
283.15	5.5421e-05	0.007204	2e-05
283.15	0.0002915	0.00709	2e-05
283.15	0.00048948	0.007031	2e-05
283.15	0.00069417	0.006981	2e-05
283.15	0.0011534	0.006893	2e-05
283.15	0.0019379	0.006777	2e-05
283.15	0.0029273	0.006662	2e-05
283.15	0.0038877	0.00657	2e-05
283.15	0.0059031	0.006415	2e-05
283.15	0.0080045	0.006288	2e-05
283.15	0.0099644	0.006189	2e-05
283.15	0.012004	0.0061	2e-05
283.15	0.014852	0.00599	2e-05
288.15	0.00012892	0.007713	2e-05
288.15	0.00026276	0.007644	2e-05
288.15	0.00042705	0.007581	2e-05
288.15	0.00060693	0.007526	2e-05
288.15	0.0010218	0.007427	2e-05
288.15	0.0016973	0.007306	2e-05
288.15	0.0025458	0.007188	2e-05
288.15	0.0034542	0.007086	2e-05
288.15	0.0051791	0.006929	2e-05
288.15	0.0070431	0.006794	2e-05
288.15	0.0087721	0.006689	2e-05
288.15	0.011859	0.006533	2e-05
288.15	0.014918	0.006408	2e-05
293.15	0.00011103	0.00828	2e-05
293.15	0.00029431	0.008172	2e-05
293.15	0.00044831	0.008108	2e-05
293.15	0.00069398	0.008027	2e-05
293.15	0.0012175	0.007899	2e-05
293.15	0.0019957	0.007759	2e-05
293.15	0.0029351	0.007628	2e-05
293.15	0.0039369	0.007515	2e-05
293.15	0.0059164	0.007336	2e-05
293.15	0.0079333	0.00719	2e-05
293.15	0.010095	0.007059	2e-05
293.15	0.012008	0.00696	2e-05
293.15	0.014948	0.006833	2e-05
298.15	0.00012462	0.008822	2e-05
298.15	0.00031993	0.0087	2e-05
298.15	0.00052696	0.008612	2e-05
298.15	0.00069097	0.008555	2e-05
298.15	0.0011746	0.008424	2e-05
298.15	0.0019262	0.008273	2e-05
298.15	0.0029295	0.008121	2e-05
298.15	0.0039557	0.007996	2e-05
298.15	0.0059535	0.007802	2e-05
298.15	0.0080437	0.00764	2e-05
298.15	0.0099994	0.007512	2e-05
298.15	0.012048	0.007397	2e-05
298.15	0.014899	0.007265	2e-05
303.15	0.00010366	0.00939	2e-05
303.15	0.0002814	0.009262	2e-05
303.15	0.00049403	0.00916	2e-05
303.15	0.00074074	0.009069	2e-05
303.15	0.0011925	0.00894	2e-05
303.15	0.0018862	0.00879	2e-05
303.15	0.0029126	0.008621	2e-05
303.15	0.0039124	0.008489	2e-05
303.15	0.0061074	0.008261	2e-05
303.15	0.0079744	0.008107	2e-05
303.15	0.0099932	0.007966	2e-05
303.15	0.011946	0.007849	2e-05
303.15	0.014922	0.007699	2e-05
308.15	5.7631e-05	0.009991	2e-05
308.15	0.00024474	0.009826	2e-05
308.15	0.0004495	0.009716	2e-05
308.15	0.00068215	0.009621	2e-05
308.15	0.0011834	0.009467	2e-05
308.15	0.0019332	0.009295	2e-05
308.15	0.0029112	0.009124	2e-05
308.15	0.003919	0.008981	2e-05
308.15	0.0059269	0.008756	2e-05
308.15	0.0080077	0.008573	2e-05
308.15	0.009997	0.008426	2e-05
308.15	0.012012	0.008298	2e-05
308.15	0.0149	0.00814	2e-05
313.15	9.063e-05	0.010496	2e-05
313.15	0.00029522	0.010337	2e-05
313.15	0.00048676	0.010238	2e-05
313.15	0.00070148	0.01015	2e-05
313.15	0.0011773	0.009997	2e-05
313.15	0.0019509	0.009811	2e-05
313.15	0.002946	0.009626	2e-05
313.15	0.0039057	0.009482	2e-05
313.15	0.0059119	0.009242	2e-05
313.15	0.0079247	0.009053	2e-05
313.15	0.0099596	0.008895	2e-05
313.15	0.011991	0.008759	2e-05
313.15	0.015106	0.008574	2e-05
318.15	9.4008e-05	0.011033	2e-05
318.15	0.00027908	0.010887	2e-05
318.15	0.00045255	0.010794	2e-05
318.15	0.00064681	0.010709	2e-05
318.15	0.001144	0.01054	2e-05
318.15	0.0018965	0.010347	2e-05
318.15	0.0029001	0.010147	2e-05
318.15	0.0038919	0.009988	2e-05
318.15	0.0059171	0.00973	2e-05
318.15	0.0079797	0.009527	2e-05
318.15	0.0099455	0.009368	2e-05
318.15	0.011946	0.009227	2e-05
318.15	0.01488	0.009038	2e-05
