Measured thermophysical data. Osmolality and Unfrozen Water Content of Aqueous Solution of Dimethyl Sulfoxide
Source: J. Chem. Eng. Data, 2011, 10.1021/je2002607
Compound 1: dimethyl sulfoxide, C2H6OS, InChI=1S/C2H6OS/c1-4(2)3/h1-2H3, purity 99.5%
Compound 2: water, H2O, InChI=1S/H2O/h1H2, purity 99.9%

System: dimethyl sulfoxide + water; phases: Liquid, Crystal
Fixed: Pressure, kPa = 101
Property: Solid-liquid equilibrium temperature, K (Liquid); method: DTA
Molality, mol/kg of dimethyl sulfoxide	Solid-liquid equilibrium temperature, K	uncertainty
1	271.53	0.46
2	268.94	0.52
3	266.2	0.42
5	260.12	0.48
9	245.67	0.39
