Measured thermophysical data. Thermochemical Properties of Formamide Revisited: New Experiment and Quantum Mechanical Calculations
Source: J. Chem. Eng. Data, 2011, 10.1021/je200683f
Compound 1: carbon dioxide, CO2, InChI=1S/CO2/c2-1-3
Compound 2: nitrogen, N2, InChI=1S/N2/c1-2
Compound 3: water, H2O, InChI=1S/H2O/h1H2
Compound 4: oxygen, O2, InChI=1S/O2/c1-2
Compound 5: formamide, CH3NO, InChI=1S/CH3NO/c2-1-3/h1H,(H2,2,3), purity 99.5%

System: formamide; phases: Liquid, Gas
Property: Vapor or sublimation pressure, kPa (Liquid); method: Transpiration method
Temperature, K	Vapor or sublimation pressure, kPa	uncertainty
303.4	0.0143	0.001
308.2	0.0201	0.0014
313.2	0.0305	0.0021
318.2	0.0455	0.0032
323.2	0.0636	0.0044
328.2	0.0915	0.0064
333.2	0.1243	0.0087
338.2	0.1674	0.0117
343.2	0.2297	0.016
348.2	0.3121	0.0217
353.3	0.4543	0.0316
358.2	0.5468	0.0381
363.2	0.7803	0.0544
368.1	0.9855	0.0686
368.1	0.9855	0.0686
373.2	1.271	0.0885
376	1.4756	0.1028

Reaction: -1 formamide + 1 carbon dioxide + .5 nitrogen + 1.5 water + -1.25 oxygen
Property: Specific internal energy of reaction at constant volume, J/g
-12700.4
