Measured thermophysical data. Liquid Liquid Equilibrium in N-Methyl-2-hydroxyethylammonium Acetate, Butanoate, or Hexanoate Ionic Liquids + Dibenzothiophene + n-Dodecane Systems at 298.2 K and Atmospheric Pressure
Source: J. Chem. Eng. Data, 2012, 10.1021/je200799u
Compound 1: N-methyl-2-hydroxyethylammonium acetate, C5H13NO3, InChI=1S/C3H9NO.C2H4O2/c1-4-2-3-5;1-2(3)4/h4-5H,2-3H2,1H3;1H3,(H,3,4)
Compound 2: N-methyl-2-hydroxyethylammonium butanoate, C7H17NO3, InChI=1S/C4H8O2.C3H9NO/c1-2-3-4(5)6;1-4-2-3-5/h2-3H2,1H3,(H,5,6);4-5H,2-3H2,1H3
Compound 3: N-methyl-2-hydroxyethylammonium hexanoate, C9H21NO3, InChI=1S/C6H12O2.C3H9NO/c1-2-3-4-5-6(7)8;1-4-2-3-5/h2-5H2,1H3,(H,7,8);4-5H,2-3H2,1H3
Compound 4: dodecane, C12H26, InChI=1S/C12H26/c1-3-5-7-9-11-12-10-8-6-4-2/h3-12H2,1-2H3, purity 99.6%
Compound 5: dibenzothiophene, C12H8S, InChI=1S/C12H8S/c1-3-7-11-9(5-1)10-6-2-4-8-12(10)13-11/h1-8H, purity 98%

System: N-methyl-2-hydroxyethylammonium acetate; phases: Liquid
Property: Refractive index (Na D-line) (Liquid); method: Standard Abbe refractometry
Temperature, K	Pressure, kPa	Refractive index (Na D-line)	uncertainty
298.15	101.325	1.4584	0.0012

System: N-methyl-2-hydroxyethylammonium butanoate; phases: Liquid
Property: Refractive index (Na D-line) (Liquid); method: Standard Abbe refractometry
Temperature, K	Pressure, kPa	Refractive index (Na D-line)	uncertainty
298.15	101.325	1.4555	0.0012

System: N-methyl-2-hydroxyethylammonium hexanoate; phases: Liquid
Property: Refractive index (Na D-line) (Liquid); method: Standard Abbe refractometry
Temperature, K	Pressure, kPa	Refractive index (Na D-line)	uncertainty
298.15	101.325	1.4563	0.0012

System: dodecane; phases: Liquid
Property: Refractive index (Na D-line) (Liquid); method: Standard Abbe refractometry
Temperature, K	Pressure, kPa	Refractive index (Na D-line)	uncertainty
298.15	101.325	1.4196	0.0007

System: dodecane + dibenzothiophene + N-methyl-2-hydroxyethylammonium acetate; phases: Liquid mixture 1, Liquid mixture 2
Fixed: Pressure, kPa = 101
Fixed: Temperature, K = 298.15
Property: Mole fraction of dibenzothiophene (Liquid mixture 1); method: Titration method
Mole fraction of N-methyl-2-hydroxyethylammonium acetate	Mole fraction of dibenzothiophene	uncertainty
0.9929	0.006	0.001
0.9943	0.0051	0.001
0.9952	0.0028	0.0009
0.9974	0.0016	0.0008
0.9987	0	

System: dodecane + dibenzothiophene + N-methyl-2-hydroxyethylammonium acetate; phases: Liquid mixture 1, Liquid mixture 2
Fixed: Temperature, K = 298.2
Fixed: Pressure, kPa = 95
Property: Mole fraction of N-methyl-2-hydroxyethylammonium acetate (Liquid mixture 1); method: Index of refraction calibration data
Property: Mole fraction of N-methyl-2-hydroxyethylammonium acetate (Liquid mixture 2); method: Index of refraction calibration data
Property: Mole fraction of dibenzothiophene (Liquid mixture 2); method: Index of refraction calibration data
Mole fraction of dibenzothiophene	Mole fraction of N-methyl-2-hydroxyethylammonium acetate	uncertainty	Mole fraction of N-methyl-2-hydroxyethylammonium acetate	uncertainty	Mole fraction of dibenzothiophene	uncertainty
0	0.9987	0.0006	0		0	
0.0015	0.9973	0.0009	0		0.014	
0.0038	0.9948	0.0008	0		0.0272	
0.0045	0.9946	0.0006	0		0.0401	

System: dodecane + dibenzothiophene + N-methyl-2-hydroxyethylammonium butanoate; phases: Liquid mixture 1, Liquid mixture 2
Fixed: Temperature, K = 298.2
Fixed: Pressure, kPa = 95
Property: Refractive index (Na D-line) (Liquid mixture 1); method: Standard Abbe refractometry
Mole fraction of N-methyl-2-hydroxyethylammonium butanoate	Refractive index (Na D-line)	uncertainty
0.9774	1.4601	0.001
0.9803	1.4591	0.001
0.9848	1.4579	0.0009
0.99	1.4569	0.0009
0.9936	1.456	0.001

System: dodecane + dibenzothiophene + N-methyl-2-hydroxyethylammonium butanoate; phases: Liquid mixture 1, Liquid mixture 2
Fixed: Temperature, K = 298.2
Fixed: Pressure, kPa = 95
Property: Mole fraction of dibenzothiophene (Liquid mixture 1); method: Titration method
Mole fraction of N-methyl-2-hydroxyethylammonium butanoate	Mole fraction of dibenzothiophene	uncertainty
0.9774	0.017	0.0023
0.9803	0.0134	0.0022
0.9848	0.0085	0.0019
0.99	0.0044	0.0019
0.9936	0	

System: dodecane + dibenzothiophene + N-methyl-2-hydroxyethylammonium butanoate; phases: Liquid mixture 2, Liquid mixture 1
Fixed: Temperature, K = 298.2
Fixed: Pressure, kPa = 95
Property: Mole fraction of N-methyl-2-hydroxyethylammonium butanoate (Liquid mixture 2); method: Index of refraction calibration data
Property: Mole fraction of N-methyl-2-hydroxyethylammonium butanoate (Liquid mixture 1); method: Index of refraction calibration data
Property: Mole fraction of dibenzothiophene (Liquid mixture 1); method: Index of refraction calibration data
Mole fraction of dibenzothiophene	Mole fraction of N-methyl-2-hydroxyethylammonium butanoate	uncertainty	Mole fraction of N-methyl-2-hydroxyethylammonium butanoate	uncertainty	Mole fraction of dibenzothiophene	uncertainty
0	0		0.9936	0.0014	0	
0.0128	0		0.9873	0.002	0.0062	
0.0247	0		0.9825	0.002	0.0111	
0.0353	0		0.9776	0.002	0.0161	

System: dodecane + dibenzothiophene + N-methyl-2-hydroxyethylammonium hexanoate; phases: Liquid mixture 1, Liquid mixture 2
Fixed: Pressure, kPa = 95
Fixed: Temperature, K = 298.2
Property: Refractive index (Na D-line) (Liquid mixture 1); method: Standard Abbe refractometry
Mole fraction of N-methyl-2-hydroxyethylammonium hexanoate	Refractive index (Na D-line)	uncertainty
0.9327	1.4601	0.0009
0.937	1.4593	0.0009
0.9427	1.4582	0.0009
0.9507	1.4569	0.0009
0.961	1.4558	0.0009
0.9719	1.4546	0.0009

System: dodecane + dibenzothiophene + N-methyl-2-hydroxyethylammonium hexanoate; phases: Liquid mixture 1, Liquid mixture 2
Fixed: Temperature, K = 298.2
Fixed: Pressure, kPa = 95
Property: Mole fraction of dibenzothiophene (Liquid mixture 1); method: Titration method
Mole fraction of N-methyl-2-hydroxyethylammonium hexanoate	Mole fraction of dibenzothiophene	uncertainty
0.9327	0.0298	0.0018
0.937	0.0245	0.0017
0.9427	0.0186	0.0014
0.9507	0.0123	0.0013
0.961	0.0057	0.0012
0.9719	0	

System: dodecane + dibenzothiophene + N-methyl-2-hydroxyethylammonium hexanoate; phases: Liquid mixture 2, Liquid mixture 1
Fixed: Pressure, kPa = 95
Fixed: Temperature, K = 298.2
Property: Mole fraction of N-methyl-2-hydroxyethylammonium hexanoate (Liquid mixture 2); method: Index of refraction calibration data
Property: Mole fraction of N-methyl-2-hydroxyethylammonium hexanoate (Liquid mixture 1); method: Index of refraction calibration data
Property: Mole fraction of dibenzothiophene (Liquid mixture 1); method: Index of refraction calibration data
Mole fraction of dibenzothiophene	Mole fraction of N-methyl-2-hydroxyethylammonium hexanoate	uncertainty	Mole fraction of N-methyl-2-hydroxyethylammonium hexanoate	uncertainty	Mole fraction of dibenzothiophene	uncertainty
0	0		0.9719	0.001	0	
0.0106	0		0.956	0.0019	0.0086	
0.0226	0		0.9456	0.0015	0.0164	
0.0337	0		0.934	0.0015	0.0273	
