Measured thermophysical data. Measurement and Correlation of Solubilities of Potassium Chloride and Potassium Sulfate in Aqueous Glycerol Solutions
Source: J. Chem. Eng. Data, 2011, 10.1021/je200238s
Compound 1: potassium chloride, ClK, InChI=1S/ClH.K/h1H;/q;+1/p-1, purity 99.5%
Compound 2: potassium sulfate, K2O4S, InChI=1S/2K.H2O4S/c;;1-5(2,3)4/h;;(H2,1,2,3,4)/q2*+1;/p-2, purity 99%
Compound 3: glycerol, C3H8O3, InChI=1S/C3H8O3/c4-1-3(6)2-5/h3-6H,1-2H2, purity 99%
Compound 4: water, H2O, InChI=1S/H2O/h1H2, purity 99.9%

System: potassium chloride + water; phases: Liquid, Crystal
Fixed: Pressure, kPa = 101
Property: Mole fraction of potassium chloride (Liquid); method: laser monitoring observation technique
Temperature, K	Mole fraction of potassium chloride	uncertainty
292.96	0.07641	0.00259
296.73	0.0792	0.0025
301.5	0.08201	0.00241
306.72	0.08465	0.00241
310.3	0.08673	0.00247
313.84	0.08885	0.00246
317.66	0.09099	0.00245
321.59	0.09312	0.00243
325.68	0.09519	0.00238
330.71	0.09722	0.00247
333.02	0.09944	0.00264
336.91	0.1017	0.0025
340.77	0.1041	0.0025
345.46	0.1065	0.0025

System: water + potassium sulfate; phases: Liquid, Crystal
Fixed: Pressure, kPa = 101
Property: Mole fraction of potassium sulfate (Liquid); method: laser monitoring observation technique
Temperature, K	Mole fraction of potassium sulfate	uncertainty
290.57	0.0108	0.00205
294.01	0.01149	0.00205
297.5	0.01216	0.00205
300.55	0.01271	0.00205
303.15	0.0132	0.00206
307.62	0.01415	0.00206
310.78	0.01471	0.00205
313.9	0.01526	0.00205
317.55	0.01588	0.00206
321.05	0.01648	0.00206
324.7	0.01707	0.00206
328.16	0.01767	0.00206
331.85	0.01822	0.00206
335.89	0.01882	0.00206
339.85	0.01943	0.00206
344.15	0.02006	0.00206
346.35	0.02036	0.00206

System: glycerol + potassium chloride + water; phases: Liquid, Crystal
Fixed: Pressure, kPa = 101
Property: Mole fraction of potassium chloride (Liquid); method: laser monitoring observation technique
Solvent: Mass fraction of glycerol	Temperature, K	Mole fraction of potassium chloride	uncertainty
0	292.96	0.07641	0.00249
0	296.73	0.0792	0.00239
0	301.5	0.08201	0.00228
0	306.72	0.08465	0.00227
0	310.3	0.08673	0.00233
0	313.84	0.08885	0.00232
0	317.66	0.09099	0.00229
0	321.59	0.09312	0.00226
0	325.68	0.09519	0.0022
0	330.71	0.09722	0.00229
0	333.02	0.09944	0.00246
0	336.91	0.1017	0.0023
0	340.77	0.1041	0.0023
0	345.46	0.1065	0.0023
0.1998	295.15	0.07371	0.0025
0.1998	297.04	0.075	0.00243
0.1998	298.4	0.07572	0.0024
0.1998	300.85	0.0773	0.00238
0.1998	301.9	0.07783	0.00234
0.1998	304.58	0.07953	0.00229
0.1998	306.12	0.08039	0.00231
0.1998	308.42	0.08182	0.00236
0.1998	310.91	0.08319	0.00232
0.1998	312.37	0.08414	0.00227
0.1998	315.17	0.08564	0.00231
0.1998	317.13	0.08669	0.00223
0.1998	319.16	0.08774	0.00236
0.1998	321.37	0.08895	0.00225
0.1998	325.34	0.09081	0.00223
0.1998	327.32	0.09199	0.00221
0.1998	329.88	0.093	0.00224
0.1998	332.24	0.09441	0.00225
0.1998	334.27	0.09522	0.00223
0.1998	337.08	0.0967	0.0022
0.1998	339.36	0.09753	0.00217
0.1998	342.42	0.09893	0.00217
0.1998	342.66	0.09916	0.00217
0.1998	345.9	0.1003	0.0022
0.4	293.29	0.06678	0.00249
0.4	297.41	0.06985	0.00241
0.4	299.13	0.07102	0.00238
0.4	302.61	0.0729	0.00238
0.4	306.47	0.07534	0.00233
0.4	309.22	0.07677	0.00233
0.4	312.04	0.07859	0.00231
0.4	315.03	0.08014	0.00228
0.4	318.16	0.08193	0.00232
0.4	321.28	0.08376	0.00227
0.4	324.42	0.08526	0.00224
0.4	328.83	0.08751	0.00222
0.4	331.2	0.08854	0.00222
0.4	334.72	0.09034	0.00221
0.4	338.15	0.09175	0.00217
0.4	342.89	0.09367	0.00219
0.4	345.22	0.09495	0.00217
0.6001	297.11	0.06237	0.00208
0.6001	300.7	0.06486	0.00249
0.6001	305.4	0.06894	0.00249
0.6001	308.99	0.07061	0.00234
0.6001	312.98	0.07345	0.00237
0.6001	317.06	0.07573	0.00232
0.6001	319.91	0.07738	0.00229
0.6001	324.61	0.07982	0.00225
0.6001	327.57	0.08131	0.00223
0.6001	331.37	0.08308	0.00222
0.6001	335.08	0.08482	0.00221
0.6001	339.25	0.08669	0.00213
0.6001	342.92	0.08766	0.00218
0.6001	346.7	0.08986	0.00243
0.8001	295.05	0.05801	0.00231
0.8001	296.16	0.05861	0.00231
0.8001	301.02	0.06142	0.00232
0.8001	303.59	0.06296	0.00229
0.8001	306.77	0.06463	0.00232
0.8001	309.52	0.06642	0.00233
0.8001	314.19	0.0691	0.00231
0.8001	317.82	0.07119	0.00228
0.8001	321.37	0.07298	0.00225
0.8001	323.92	0.0743	0.00223
0.8001	328.95	0.0767	0.00223
0.8001	332.25	0.0784	0.00221
0.8001	336.11	0.08007	0.00223
0.8001	339.53	0.08194	0.00221
0.8001	342.86	0.08317	0.00221
0.8001	345.19	0.08463	0.00228
0.8001	347.3	0.08559	0.0022

System: glycerol + water + potassium sulfate; phases: Liquid, Crystal
Fixed: Pressure, kPa = 101
Property: Mole fraction of potassium sulfate (Liquid); method: laser monitoring observation technique
Solvent: Mass fraction of glycerol	Temperature, K	Mole fraction of potassium sulfate	uncertainty
0	290.57	0.0108	0.00204
0	294.01	0.01149	0.00204
0	297.5	0.01216	0.00204
0	300.55	0.01271	0.00203
0	303.15	0.0132	0.00204
0	307.62	0.01415	0.00204
0	310.78	0.01471	0.00203
0	313.9	0.01526	0.00203
0	317.55	0.01588	0.00203
0	321.05	0.01648	0.00203
0	324.7	0.01707	0.00203
0	328.16	0.01767	0.00203
0	331.85	0.01822	0.00202
0	335.89	0.01882	0.00202
0	339.85	0.01943	0.00202
0	344.15	0.02006	0.00202
0	346.35	0.02036	0.00202
0.1999	290.01	0.007639	0.002015
0.1999	294.3	0.008257	0.002023
0.1999	297.76	0.008765	0.002019
0.1999	301	0.009189	0.002016
0.1999	304.59	0.009747	0.002014
0.1999	307.85	0.01011	0.00202
0.1999	311.95	0.01072	0.00202
0.1999	316	0.01121	0.00202
0.1999	319.28	0.01163	0.00201
0.1999	322.47	0.01202	0.00201
0.1999	326.05	0.01245	0.00201
0.1999	329.35	0.01287	0.00201
0.1999	332.49	0.01328	0.00201
0.1999	336.9	0.01383	0.00201
0.1999	339.85	0.01415	0.00201
0.1999	344.55	0.01455	0.00201
0.1999	348.25	0.01498	0.00201
0.3999	292.35	0.005468	0.00201
0.3999	294.95	0.005722	0.002004
0.3999	297.47	0.00592	0.002009
0.3999	299.56	0.006131	0.002011
0.3999	303.4	0.006486	0.002012
0.3999	307.35	0.006877	0.002009
0.3999	311.27	0.007201	0.002009
0.3999	314.55	0.007506	0.00201
0.3999	318.15	0.007816	0.002007
0.3999	322.2	0.008146	0.002008
0.3999	325.25	0.008434	0.002006
0.3999	329.18	0.008772	0.002012
0.3999	332.12	0.009069	0.002004
0.3999	336.53	0.009395	0.002012
0.3999	339.15	0.009658	0.002004
0.3999	343.55	0.009937	0.002005
0.3999	346.3	0.01013	0.00201
0.5999	289.89	0.00321	0.002005
0.5999	293.01	0.003436	0.002004
0.5999	297.17	0.003668	0.002005
0.5999	300.35	0.003871	0.002002
0.5999	304.55	0.004107	0.002003
0.5999	307.63	0.004315	0.002003
0.5999	311.07	0.004508	0.002003
0.5999	314.09	0.004697	0.002003
0.5999	317.43	0.004841	0.002001
0.5999	321.19	0.005037	0.002003
0.5999	323.95	0.0052	0.002004
0.5999	327.4	0.005368	0.002003
0.5999	330.35	0.005555	0.002001
0.5999	334.13	0.005726	0.002001
0.5999	338.18	0.005929	0.002007
0.5999	341.73	0.00611	0.002002
0.5999	345.45	0.006263	0.002022
0.8	294.15	0.001754	0.001754
0.8	298.59	0.00206	0.002004
0.8	300.15	0.002161	0.002004
0.8	303.75	0.002329	0.002002
0.8	307.6	0.002485	0.002003
0.8	310.02	0.002666	0.002002
0.8	313.89	0.002778	0.002001
0.8	315.95	0.002889	0.002001
0.8	319.41	0.002971	0.002001
0.8	323.82	0.003109	0.002001
0.8	325.26	0.003148	0.002001
0.8	329.75	0.003254	0.002001
0.8	335.02	0.003379	0.002001
0.8	339.91	0.003472	0.002
0.8	345.45	0.003576	0.002
