Measured thermophysical data. Vapor-Liquid Equilibrium for Dimethyl Disulfide + Butane, + trans-But-2-ene, + 2-Methylpropane, + 2-Methylpropene, + Ethanol, and 2-Ethoxy-2-methylpropane
Source: J. Chem. Eng. Data, 2011, 10.1021/je200039y
Compound 1: butane, C4H10, InChI=1S/C4H10/c1-3-4-2/h3-4H2,1-2H3, purity 99.8%
Compound 2: 2-methylpropane, C4H10, InChI=1S/C4H10/c1-4(2)3/h4H,1-3H3, purity 99.8%
Compound 3: 2-methylpropene, C4H8, InChI=1S/C4H8/c1-4(2)3/h1H2,2-3H3, purity 99.8%
Compound 4: (E)-2-butene, C4H8, InChI=1S/C4H8/c1-3-4-2/h3-4H,1-2H3/b4-3+, purity 99.8%
Compound 5: 2,3-dithiabutane, C2H6S2, InChI=1S/C2H6S2/c1-3-4-2/h1-2H3, purity 99.8%
Compound 6: ethanol, C2H6O, InChI=1S/C2H6O/c1-2-3/h3H,2H2,1H3, purity 99.93%
Compound 7: 2-ethoxy-2-methylpropane, C6H14O, InChI=1S/C6H14O/c1-5-7-6(2,3)4/h5H2,1-4H3, purity 99.97%
Compound 8: 1,2-dimethylbenzene, C8H10, InChI=1S/C8H10/c1-7-5-3-4-6-8(7)2/h3-6H,1-2H3, purity 99.43%

System: butane; phases: Liquid, Gas
Property: Vapor or sublimation pressure, kPa (Liquid); method: Closed cell (Static) method
Temperature, K	Vapor or sublimation pressure, kPa	uncertainty
350.36	951.7	4.1

System: 2-methylpropane; phases: Liquid, Gas
Property: Vapor or sublimation pressure, kPa (Liquid); method: Closed cell (Static) method
Temperature, K	Vapor or sublimation pressure, kPa	uncertainty
350.54	1269.5	5.5

System: 2-methylpropene; phases: Liquid, Gas
Property: Vapor or sublimation pressure, kPa (Liquid); method: Closed cell (Static) method
Temperature, K	Vapor or sublimation pressure, kPa	uncertainty
350.43	1154.3	5

System: (E)-2-butene; phases: Liquid, Gas
Property: Vapor or sublimation pressure, kPa (Liquid); method: Closed cell (Static) method
Temperature, K	Vapor or sublimation pressure, kPa	uncertainty
350.3	929.2	4

System: 2,3-dithiabutane; phases: Liquid
Property: Refractive index (Na D-line) (Liquid); method: Standard Abbe refractometry
Temperature, K	Pressure, kPa	Refractive index (Na D-line)	uncertainty
298	101.325	1.5226	0.0007

System: 2,3-dithiabutane; phases: Liquid, Gas
Property: Vapor or sublimation pressure, kPa (Liquid); method: Closed cell (Static) method
Temperature, K	Vapor or sublimation pressure, kPa	uncertainty
343.15	27.8	0.4
350.3	36.1	0.8
350.38	36	0.8
350.43	35.8	0.8
350.55	36.1	0.8

System: ethanol; phases: Liquid
Property: Refractive index (Na D-line) (Liquid); method: Standard Abbe refractometry
Temperature, K	Pressure, kPa	Refractive index (Na D-line)	uncertainty
298	101.325	1.3593	0.0007

System: ethanol; phases: Liquid, Gas
Property: Vapor or sublimation pressure, kPa (Liquid); method: Ebulliometric method (Recirculating still)
Temperature, K	Vapor or sublimation pressure, kPa	uncertainty
343.15	72.5	0.6

System: 2-ethoxy-2-methylpropane; phases: Liquid
Property: Refractive index (Na D-line) (Liquid); method: Standard Abbe refractometry
Temperature, K	Pressure, kPa	Refractive index (Na D-line)	uncertainty
298	101.325	1.373	0.0007

System: 2-ethoxy-2-methylpropane; phases: Liquid, Gas
Property: Vapor or sublimation pressure, kPa (Liquid); method: Ebulliometric method (Recirculating still)
Temperature, K	Vapor or sublimation pressure, kPa	uncertainty
343.15	92.9	0.7

System: 1,2-dimethylbenzene; phases: Liquid
Property: Refractive index (Na D-line) (Liquid); method: Standard Abbe refractometry
Temperature, K	Pressure, kPa	Refractive index (Na D-line)	uncertainty
298	101.325	1.5026	0.0007

System: butane + 2,3-dithiabutane; phases: Liquid, Gas
Property: Vapor or sublimation pressure, kPa (Liquid); method: Closed cell (Static) method
Temperature, K	Mole fraction of butane	Vapor or sublimation pressure, kPa	uncertainty
350.36	0.945	898.7	3.9
350.36	0.9526	905.7	3.9
350.36	1	951.7	4.1
350.37	0.6398	681.4	3
350.37	0.6904	712.6	3.1
350.38	0	36	0.8
350.38	0.014	63.9	0.8
350.38	0.0304	95.5	0.9
350.38	0.0485	127.9	1
350.38	0.0944	203.2	1.2
350.38	0.1408	269.8	1.4
350.38	0.1885	329.5	1.6
350.38	0.2382	384.5	1.8
350.38	0.2872	432.4	2
350.38	0.3398	478.2	2.1
350.38	0.3911	518.6	2.3
350.38	0.4436	556.1	2.4
350.38	0.4941	590.9	2.6
350.38	0.4946	590.4	2.6
350.38	0.7404	744.4	3.2
350.38	0.7895	777.2	3.4
350.38	0.8403	813.3	3.5
350.38	0.893	854.1	3.7
350.39	0.5421	621.6	2.7
350.39	0.5901	651.3	2.8

System: 2-methylpropane + 2,3-dithiabutane; phases: Liquid, Gas
Property: Vapor or sublimation pressure, kPa (Liquid); method: Closed cell (Static) method
Temperature, K	Mole fraction of 2-methylpropane	Vapor or sublimation pressure, kPa	uncertainty
350.54	0.0051	51	0.8
350.54	0.0278	112.7	0.9
350.54	0.089	259.3	1.3
350.54	0.1348	351.8	1.7
350.54	0.1828	436.3	2
350.54	0.2832	579.1	2.5
350.54	0.438	740.8	3.2
350.54	0.4911	786.8	3.4
350.54	0.5391	827	3.6
350.54	0.9679	1223.4	5.3
350.54	0.9913	1257	5.5
350.54	1	1269.5	5.5
350.55	0	36.1	0.8
350.55	0.0446	156.2	1
350.55	0.2311	510.1	2.3
350.55	0.3331	637.5	2.8
350.55	0.385	691.3	3
350.55	0.4919	789.1	3.4
350.55	0.5871	864.5	3.8
350.55	0.6364	902.8	3.9
350.55	0.6858	941.5	4.1
350.55	0.7344	981	4.3
350.55	0.7861	1025.5	4.5
350.55	0.8922	1131	4.9
350.55	0.9454	1194	5.2
350.56	0.8381	1074.5	4.7

System: 2-methylpropene + 2,3-dithiabutane; phases: Liquid, Gas
Property: Vapor or sublimation pressure, kPa (Liquid); method: Closed cell (Static) method
Temperature, K	Mole fraction of 2-methylpropene	Vapor or sublimation pressure, kPa	uncertainty
350.43	0	35.8	0.8
350.43	0.0123	58.3	0.8
350.43	0.0305	90.5	0.9
350.43	0.1405	263.9	1.4
350.43	0.1877	329.2	1.6
350.43	0.2886	454.1	2.1
350.43	0.34	511.2	2.3
350.43	0.391	564.6	2.5
350.43	0.4427	616.4	2.7
350.43	0.4932	666.6	2.9
350.43	0.4941	666.1	2.9
350.43	0.5419	709	3.1
350.43	0.59	750.4	3.3
350.43	0.6394	792.7	3.4
350.43	0.6893	835.7	3.6
350.43	0.7384	878.6	3.8
350.43	0.8943	1028.9	4.5
350.43	0.9453	1086.5	4.7
350.43	0.9677	1113.5	4.8
350.43	1	1154.3	5
350.44	0.0489	122.1	1
350.44	0.0936	194.2	1.1
350.44	0.2405	396.7	1.8
350.44	0.7891	924.7	4
350.44	0.8429	976.3	4.2
350.44	0.991	1143.1	5

System: (E)-2-butene + 2,3-dithiabutane; phases: Liquid, Gas
Property: Vapor or sublimation pressure, kPa (Liquid); method: Closed cell (Static) method
Temperature, K	Mole fraction of (E)-2-butene	Vapor or sublimation pressure, kPa	uncertainty
350.3	0	36.1	0.8
350.3	1	929.2	4
350.31	0.0208	67.6	0.9
350.31	0.0589	121.5	1
350.31	0.2874	376.8	1.8
350.31	0.3368	420.8	1.9
350.31	0.496	546.9	2.4
350.31	0.5432	580.5	2.5
350.31	0.592	614.4	2.7
350.31	0.6411	648.2	2.8
350.31	0.691	682.3	3
350.31	0.8408	790.1	3.4
350.31	0.9888	918.1	4
350.32	0.0345	87.6	0.9
350.32	0.1012	176.6	1.1
350.32	0.1474	232.3	1.3
350.32	0.192	281.9	1.4
350.32	0.2391	330.5	1.6
350.32	0.3869	462.6	2.1
350.32	0.4381	502.8	2.2
350.32	0.4896	541.2	2.4
350.32	0.7404	716.8	3.1
350.32	0.7894	751.8	3.3
350.32	0.8926	831.3	3.6
350.32	0.9453	877.2	3.8
350.32	0.9673	897.3	3.9

System: ethanol + 2,3-dithiabutane; phases: Liquid, Gas
Fixed: Temperature, K = 343.15
Property: Vapor or sublimation pressure, kPa (Liquid); method: Ebulliometric method (Recirculating still)
Mole fraction of 2,3-dithiabutane	Vapor or sublimation pressure, kPa	uncertainty
0	72.5	0.6
0.031	74.4	0.7
0.072	76.1	0.6
0.141	77.4	0.6
0.233	77.6	0.6
0.325	77	0.6
0.446	75.5	0.6
0.569	73.2	0.6
0.72	68.5	0.6
0.825	62.9	0.7
0.911	52.8	1.1
0.962	40.6	1.7
1	27.8	0.4

System: ethanol + 2,3-dithiabutane; phases: Gas, Liquid
Fixed: Temperature, K = 343.15
Property: Mole fraction of 2,3-dithiabutane (Gas); method: Chromatography
Mole fraction of 2,3-dithiabutane	Mole fraction of 2,3-dithiabutane	uncertainty
0	0	
0.031	0.053	0.011
0.072	0.105	0.009
0.141	0.164	0.007
0.233	0.214	0.007
0.325	0.246	0.007
0.446	0.269	0.007
0.569	0.303	0.007
0.72	0.344	0.007
0.825	0.396	0.008
0.911	0.498	0.013
0.962	0.658	0.034
1	1	

System: 2,3-dithiabutane + 2-ethoxy-2-methylpropane; phases: Liquid, Gas
Fixed: Temperature, K = 343.15
Property: Vapor or sublimation pressure, kPa (Liquid); method: Ebulliometric method (Recirculating still)
Mole fraction of 2,3-dithiabutane	Vapor or sublimation pressure, kPa	uncertainty
0	92.9	0.7
0.093	88.2	0.7
0.207	82.4	0.7
0.332	75.9	0.7
0.461	69	0.7
0.582	62	0.6
0.7	54.8	0.6
0.822	45.7	0.7
0.894	39.7	0.7
0.944	34.6	0.8
0.974	31	0.8
1	27.8	0.4

System: 2,3-dithiabutane + 2-ethoxy-2-methylpropane; phases: Gas, Liquid
Fixed: Temperature, K = 343.15
Property: Mole fraction of 2,3-dithiabutane (Gas); method: Chromatography
Mole fraction of 2,3-dithiabutane	Mole fraction of 2,3-dithiabutane	uncertainty
0	0	
0.093	0.044	0.007
0.207	0.096	0.007
0.332	0.156	0.007
0.461	0.221	0.007
0.582	0.292	0.008
0.7	0.374	0.009
0.822	0.498	0.011
0.894	0.624	0.014
0.944	0.76	0.02
0.974	0.873	0.026
1	1	
