Measured thermophysical data. Electrical Conductivity of Solutions of Ionic Liquids with Methanol, Ethanol, Acetonitrile, and Propylene Carbonate
Source: J. Chem. Eng. Data, 2011, 10.1021/je200616t
Compound 1: 1-ethylpyridinium bis[(trifluoromethyl)sulfonyl]imide, C9H10F6N2O4S2, InChI=1S/C7H10N.C2F6NO4S2/c1-2-8-6-4-3-5-7-8;3-1(4,5)14(10,11)9-15(12,13)2(6,7)8/h3-7H,2H2,1H3;/q+1;-1, purity 99%
Compound 2: 1-butylpyridinium bis[(trifluoromethyl)sulfonyl]imide, C11H14F6N2O4S2, InChI=1S/C9H14N.C2F6NO4S2/c1-2-3-7-10-8-5-4-6-9-10;3-1(4,5)14(10,11)9-15(12,13)2(6,7)8/h4-6,8-9H,2-3,7H2,1H3;/q+1;-1, purity 99%
Compound 3: 1-pentylpyridinium bis(trifluoromethylsulfonyl)amide, C12H16F6N2O4S2, InChI=1S/C10H16N.C2F6NO4S2/c1-2-3-5-8-11-9-6-4-7-10-11;3-1(4,5)14(10,11)9-15(12,13)2(6,7)8/h4,6-7,9-10H,2-3,5,8H2,1H3;/q+1;-1, purity 99%
Compound 4: 1-ethyl-4-methylpyridinium bis((trifluoromethyl)sulfonyl)amide, C10H12F6N2O4S2, InChI=1S/C8H12N.C2F6NO4S2/c1-3-9-6-4-8(2)5-7-9;3-1(4,5)14(10,11)9-15(12,13)2(6,7)8/h4-7H,3H2,1-2H3;/q+1;-1, purity 99%
Compound 5: 1-butyl-4-methylpyridinium bis((trifluoromethyl)sulfonyl)amide, C12H16F6N2O4S2, InChI=1S/C10H16N.C2F6NO4S2/c1-3-4-7-11-8-5-10(2)6-9-11;3-1(4,5)14(10,11)9-15(12,13)2(6,7)8/h5-6,8-9H,3-4,7H2,1-2H3;/q+1;-1, purity 99%
Compound 6: methanol, CH4O, InChI=1S/CH4O/c1-2/h2H,1H3, purity 99.9%
Compound 7: ethanol, C2H6O, InChI=1S/C2H6O/c1-2-3/h3H,2H2,1H3, purity 99.8%
Compound 8: acetonitrile, C2H3N, InChI=1S/C2H3N/c1-2-3/h1H3, purity 99.9%
Compound 9: 4-methyl-1,3-dioxolan-2-one, C4H6O3, InChI=1S/C4H6O3/c1-3-2-6-4(5)7-3/h3H,2H2,1H3, purity 99.5%
Compound 10: 1-hexylpyridinium bis(trifluromethylsulfonyl)imide, C13H18F6N2O4S2, InChI=1S/C11H18N.C2F6NO4S2/c1-2-3-4-6-9-12-10-7-5-8-11-12;3-1(4,5)14(10,11)9-15(12,13)2(6,7)8/h5,7-8,10-11H,2-4,6,9H2,1H3;/q+1;-1, purity 98%

System: 1-ethylpyridinium bis[(trifluoromethyl)sulfonyl]imide; phases: Liquid
Fixed: Temperature, K = 298.15
Fixed: Pressure, kPa = 101
Property: Electrical conductivity, S/m (Liquid); method: OTHER::sMethod:MP522 conductivity instrument
Electrical conductivity, S/m	uncertainty
0.63	0.013
0.629	0.013

System: 1-butylpyridinium bis[(trifluoromethyl)sulfonyl]imide; phases: Liquid
Fixed: Pressure, kPa = 101.325
Property: Electrical conductivity, S/m (Liquid); method: MP522 conductivity instrument
Temperature, K	Electrical conductivity, S/m	uncertainty
283.15	0.15	0.003
283.15	0.151	0.003
293.15	0.246	0.005
298.15	0.307	0.006
298.15	0.308	0.006
303.15	0.378	0.008
303.15	0.377	0.008
313.15	0.541	0.011
313.15	0.542	0.011
313.15	0.54	0.011

System: 1-butylpyridinium bis[(trifluoromethyl)sulfonyl]imide; phases: Liquid
Fixed: Pressure, kPa = 101
Property: Electrical conductivity, S/m (Liquid); method: MP522 conductivity instrument
Temperature, K	Electrical conductivity, S/m	uncertainty
283.15	0.151	0.003
298.15	0.308	0.006
303.15	0.377	0.008
313.15	0.542	0.011
313.15	0.54	0.011

System: 1-pentylpyridinium bis(trifluoromethylsulfonyl)amide; phases: Liquid
Property: Electrical conductivity, S/m (Liquid); method: MP522 conductivity instrument
Temperature, K	Pressure, kPa	Electrical conductivity, S/m	uncertainty
298.15	101	0.216	0.004

System: 1-ethyl-4-methylpyridinium bis((trifluoromethyl)sulfonyl)amide; phases: Liquid
Fixed: Temperature, K = 298.15
Fixed: Pressure, kPa = 101
Property: Electrical conductivity, S/m (Liquid); method: OTHER::sMethod:MP522 conductivity instrument
Electrical conductivity, S/m	uncertainty
0.771	0.015
0.769	0.015

System: 1-butyl-4-methylpyridinium bis((trifluoromethyl)sulfonyl)amide; phases: Liquid
Fixed: Temperature, K = 298.15
Fixed: Pressure, kPa = 101
Property: Electrical conductivity, S/m (Liquid); method: OTHER::sMethod:MP522 conductivity instrument
Electrical conductivity, S/m	uncertainty
0.332	0.007
0.333	0.007

System: 1-hexylpyridinium bis(trifluromethylsulfonyl)imide; phases: Liquid
Fixed: Pressure, kPa = 101
Property: Electrical conductivity, S/m (Liquid); method: OTHER::sMethod:MP522 conductivity instrument
Temperature, K	Electrical conductivity, S/m	uncertainty
283.15	0.0737	0.0016
293.15	0.128	0.003
293.15	0.129	0.003
298.15	0.163	0.003
303.15	0.205	0.004
313.15	0.306	0.006

System: methanol + 1-ethylpyridinium bis[(trifluoromethyl)sulfonyl]imide; phases: Liquid
Fixed: Temperature, K = 298.15
Fixed: Pressure, kPa = 101
Property: Electrical conductivity, S/m (Liquid); method: MP522 conductivity instrument
Mole fraction of 1-ethylpyridinium bis[(trifluoromethyl)sulfonyl]imide	Electrical conductivity, S/m	uncertainty
0.0169	1.424	0.028
0.0206	1.614	0.032
0.03	2	0.04
0.0416	2.42	0.048
0.0535	2.7	0.054
0.068	2.93	0.059
0.089	3.11	0.062
0.1049	3.17	0.063
0.1209	3.19	0.064
0.1541	3.14	0.063
0.2007	2.95	0.059
0.2781	2.55	0.051
0.3667	2.12	0.042
0.4224	1.903	0.038
0.5562	1.436	0.029
0.6863	1.125	0.023
0.8307	0.863	0.017
1	0.63	0.013

System: ethanol + 1-ethylpyridinium bis[(trifluoromethyl)sulfonyl]imide; phases: Liquid
Fixed: Temperature, K = 298.15
Fixed: Pressure, kPa = 101
Property: Electrical conductivity, S/m (Liquid); method: MP522 conductivity instrument
Mole fraction of 1-ethylpyridinium bis[(trifluoromethyl)sulfonyl]imide	Electrical conductivity, S/m	uncertainty
0.0428	0.803	0.016
0.0551	0.956	0.019
0.0755	1.162	0.023
0.0881	1.265	0.025
0.1135	1.43	0.029
0.1366	1.538	0.031
0.1789	1.667	0.033
0.2096	1.712	0.034
0.234	1.728	0.035
0.2537	1.73	0.035
0.2781	1.722	0.034
0.3029	1.704	0.034
0.3612	1.637	0.033
0.4404	1.513	0.03
0.4844	1.436	0.029
0.5537	1.31	0.03
0.5948	1.24	0.025
0.6418	1.157	0.023
0.7011	1.053	0.021
0.76	0.954	0.019
0.8228	0.858	0.017
0.8845	0.769	0.015
1	0.629	0.013

System: methanol + 1-butylpyridinium bis[(trifluoromethyl)sulfonyl]imide; phases: Liquid
Fixed: Temperature, K = 298.15
Fixed: Pressure, kPa = 101
Property: Electrical conductivity, S/m (Liquid); method: MP522 conductivity instrument
Mole fraction of 1-butylpyridinium bis[(trifluoromethyl)sulfonyl]imide	Electrical conductivity, S/m	uncertainty
0.00227	0.302	0.006
0.00676	0.679	0.014
0.0112	0.961	0.019
0.0179	1.295	0.026
0.023	1.495	0.03
0.0297	1.712	0.034
0.0427	1.994	0.04
0.0507	2.12	0.042
0.0696	2.28	0.046
0.092	2.35	0.047
0.1676	2.15	0.043
0.2137	1.957	0.039
0.2653	1.719	0.034
0.2984	1.579	0.032
0.3655	1.334	0.027
0.4009	1.224	0.024
0.4397	1.114	0.022
0.5194	0.91	0.018
0.561	0.825	0.017
0.6014	0.749	0.015
0.6433	0.681	0.014
0.7132	0.581	0.012
0.7592	0.523	0.01
0.8182	0.456	0.009
0.8544	0.421	0.008
0.8988	0.381	0.008
0.9425	0.346	0.007
1	0.308	0.006

System: ethanol + 1-butylpyridinium bis[(trifluoromethyl)sulfonyl]imide; phases: Liquid
Fixed: Temperature, K = 298.15
Fixed: Pressure, kPa = 101
Property: Electrical conductivity, S/m (Liquid); method: MP522 conductivity instrument
Mole fraction of 1-butylpyridinium bis[(trifluoromethyl)sulfonyl]imide	Electrical conductivity, S/m	uncertainty
0.02	0.389	0.008
0.0313	0.543	0.011
0.0415	0.66	0.013
0.0601	0.83	0.017
0.0722	0.915	0.018
0.103	1.064	0.021
0.1448	1.162	0.023
0.1659	1.182	0.024
0.184	1.189	0.024
0.196	1.189	0.024
0.2208	1.18	0.024
0.2693	1.138	0.023
0.3122	1.086	0.022
0.362	1.017	0.02
0.424	0.926	0.019
0.4616	0.872	0.017
0.5169	0.793	0.016
0.5597	0.735	0.015
0.6073	0.674	0.013
0.6706	0.598	0.012
0.7463	0.516	0.01
0.8415	0.426	0.009
0.8925	0.383	0.008
1	0.307	0.006

System: methanol + 1-pentylpyridinium bis(trifluoromethylsulfonyl)amide; phases: Liquid
Fixed: Temperature, K = 298.15
Fixed: Pressure, kPa = 101
Property: Electrical conductivity, S/m (Liquid); method: MP522 conductivity instrument
Mole fraction of 1-pentylpyridinium bis(trifluoromethylsulfonyl)amide	Electrical conductivity, S/m	uncertainty
0.00257	0.323	0.006
0.00682	0.658	0.013
0.012	0.966	0.019
0.0185	1.257	0.025
0.0256	1.497	0.03
0.0325	1.674	0.033
0.0398	1.817	0.036
0.0546	1.972	0.039
0.0734	2.1	0.042
0.0854	2.11	0.042
0.1093	2.05	0.041
0.1709	1.817	0.036
0.2113	1.607	0.032
0.3105	1.216	0.024
0.3653	1.034	0.021
0.4197	0.886	0.018
0.4604	0.788	0.016
0.5266	0.652	0.013
0.5689	0.585	0.012
0.6107	0.522	0.01
0.6447	0.479	0.01
0.7183	0.401	0.008
0.7639	0.361	0.007
0.8278	0.313	0.006
0.8938	0.27	0.005
0.9397	0.246	0.005
1	0.216	0.004

System: ethanol + 1-pentylpyridinium bis(trifluoromethylsulfonyl)amide; phases: Liquid
Fixed: Temperature, K = 298.15
Fixed: Pressure, kPa = 101
Property: Electrical conductivity, S/m (Liquid); method: MP522 conductivity instrument
Mole fraction of 1-pentylpyridinium bis(trifluoromethylsulfonyl)amide	Electrical conductivity, S/m	uncertainty
0.0223	0.403	0.008
0.0292	0.483	0.01
0.0374	0.574	0.011
0.0477	0.669	0.013
0.0603	0.761	0.015
0.0725	0.831	0.017
0.092	0.912	0.018
0.1279	0.991	0.02
0.1529	1.01	0.02
0.1636	1.013	0.02
0.175	1.012	0.02
0.2038	0.998	0.02
0.2608	0.941	0.019
0.3058	0.882	0.018
0.3508	0.82	0.016
0.4166	0.731	0.015
0.4692	0.662	0.013
0.5309	0.587	0.012
0.6063	0.503	0.01
0.6746	0.437	0.009
0.7613	0.363	0.007
0.8138	0.325	0.007
0.8772	0.283	0.006
0.9319	0.251	0.005
1	0.216	0.004

System: methanol + 1-ethyl-4-methylpyridinium bis((trifluoromethyl)sulfonyl)amide; phases: Liquid
Fixed: Temperature, K = 298.15
Fixed: Pressure, kPa = 101
Property: Electrical conductivity, S/m (Liquid); method: MP522 conductivity instrument
Mole fraction of 1-ethyl-4-methylpyridinium bis((trifluoromethyl)sulfonyl)amide	Electrical conductivity, S/m	uncertainty
0.00925	0.925	0.019
0.0105	1.01	0.02
0.0144	1.269	0.025
0.0176	1.451	0.029
0.0227	1.721	0.034
0.0313	2.1	0.042
0.0393	2.36	0.047
0.0492	2.62	0.052
0.0575	2.79	0.056
0.0666	2.94	0.059
0.0757	3.05	0.061
0.0856	3.14	0.063
0.0993	3.22	0.064
0.1435	3.26	0.065
0.1601	3.23	0.065
0.1736	3.2	0.064
0.1902	3.14	0.063
0.2037	3.09	0.062
0.2297	2.97	0.059
0.2575	2.84	0.057
0.284	2.72	0.054
0.3231	2.53	0.051
0.3561	2.39	0.048
0.3932	2.23	0.045
0.4574	1.995	0.04
0.5075	1.812	0.036
0.5713	1.611	0.032
0.6042	1.52	0.03
0.6803	1.329	0.027
0.7416	1.197	0.024
0.8215	1.04	0.021
0.8959	0.912	0.018
0.918	0.883	0.018
1	0.771	0.015

System: ethanol + 1-ethyl-4-methylpyridinium bis((trifluoromethyl)sulfonyl)amide; phases: Liquid
Fixed: Temperature, K = 298.15
Fixed: Pressure, kPa = 101
Property: Electrical conductivity, S/m (Liquid); method: MP522 conductivity instrument
Mole fraction of 1-ethyl-4-methylpyridinium bis((trifluoromethyl)sulfonyl)amide	Electrical conductivity, S/m	uncertainty
0.0118	0.292	0.006
0.0152	0.36	0.007
0.021	0.468	0.009
0.0327	0.669	0.013
0.0593	1.043	0.021
0.07	1.164	0.023
0.0857	1.315	0.026
0.1196	1.559	0.031
0.1573	1.731	0.035
0.2361	1.874	0.037
0.3013	1.862	0.037
0.3773	1.775	0.036
0.4527	1.649	0.033
0.53	1.511	0.03
0.608	1.369	0.027
0.6908	1.224	0.024
0.7803	1.072	0.021
0.8913	0.903	0.018
1	0.769	0.015

System: methanol + 1-butyl-4-methylpyridinium bis((trifluoromethyl)sulfonyl)amide; phases: Liquid
Fixed: Temperature, K = 298.15
Fixed: Pressure, kPa = 101
Property: Electrical conductivity, S/m (Liquid); method: MP522 conductivity instrument
Mole fraction of 1-butyl-4-methylpyridinium bis((trifluoromethyl)sulfonyl)amide	Electrical conductivity, S/m	uncertainty
0.00761	0.7	0.014
0.00979	0.836	0.017
0.0118	0.951	0.019
0.0142	1.075	0.022
0.0176	1.235	0.025
0.021	1.375	0.028
0.0297	1.685	0.034
0.0366	1.861	0.037
0.0544	2.15	0.043
0.0653	2.25	0.045
0.0711	2.28	0.046
0.0773	2.32	0.046
0.1083	2.34	0.047
0.1388	2.25	0.045
0.1724	2.11	0.042
0.1977	1.999	0.04
0.2256	1.871	0.037
0.2662	1.679	0.034
0.3346	1.397	0.028
0.3989	1.184	0.024
0.481	1.022	0.02
0.5543	0.861	0.017
0.6316	0.719	0.014
0.714	0.599	0.012
0.7932	0.504	0.01
0.8534	0.444	0.009
0.9551	0.362	0.007
1	0.332	0.007

System: ethanol + 1-butyl-4-methylpyridinium bis((trifluoromethyl)sulfonyl)amide; phases: Liquid
Fixed: Temperature, K = 298.15
Fixed: Pressure, kPa = 101
Property: Electrical conductivity, S/m (Liquid); method: MP522 conductivity instrument
Mole fraction of 1-butyl-4-methylpyridinium bis((trifluoromethyl)sulfonyl)amide	Electrical conductivity, S/m	uncertainty
0.011	0.243	0.005
0.0125	0.269	0.005
0.015	0.311	0.006
0.0186	0.369	0.007
0.0258	0.474	0.009
0.0376	0.623	0.012
0.0436	0.689	0.014
0.0602	0.844	0.017
0.0676	0.901	0.018
0.0852	1.011	0.02
0.1143	1.131	0.023
0.1262	1.163	0.023
0.1387	1.189	0.024
0.1537	1.21	0.024
0.1811	1.228	0.025
0.2232	1.219	0.024
0.2748	1.174	0.023
0.3347	1.096	0.022
0.3809	1.029	0.021
0.4405	0.939	0.019
0.5405	0.793	0.016
0.642	0.663	0.013
0.7148	0.579	0.012
0.8106	0.482	0.01
0.9328	0.379	0.008
1	0.333	0.007

System: acetonitrile + 1-butylpyridinium bis[(trifluoromethyl)sulfonyl]imide; phases: Liquid
Fixed: Pressure, kPa = 101
Property: Electrical conductivity, S/m (Liquid); method: MP522 conductivity instrument
Temperature, K	Mole fraction of 1-butylpyridinium bis[(trifluoromethyl)sulfonyl]imide	Electrical conductivity, S/m	uncertainty
283.15	0.0379	3.17	0.06
283.15	0.0652	3.38	0.07
283.15	0.1114	3.28	0.07
283.15	0.1566	2.84	0.06
283.15	0.217	2.22	0.04
283.15	0.3137	1.455	0.029
283.15	0.4004	1.007	0.02
283.15	0.513	0.653	0.013
283.15	0.6732	0.371	0.008
283.15	0.7658	0.282	0.006
283.15	0.8473	0.223	0.005
283.15	0.8897	0.2	0.004
283.15	0.9649	0.167	0.004
283.15	1	0.151	0.003
293.15	0.0379	3.52	0.07
293.15	0.0652	3.77	0.08
293.15	0.1114	3.72	0.07
293.15	0.1566	3.3	0.07
293.15	0.217	2.67	0.05
293.15	0.3137	1.829	0.037
293.15	0.4004	1.314	0.026
293.15	0.513	0.897	0.018
293.15	0.6732	0.546	0.011
293.15	0.7658	0.427	0.009
293.15	0.8473	0.348	0.007
293.15	0.8897	0.316	0.006
293.15	0.9649	0.261	0.005
293.15	1	0.246	0.005
298.15	0.0379	3.68	0.07
298.15	0.0652	3.96	0.08
298.15	0.1114	3.94	0.08
298.15	0.1566	3.54	0.07
298.15	0.217	2.89	0.06
298.15	0.3137	2.02	0.04
298.15	0.4004	1.479	0.03
298.15	0.513	1.032	0.021
298.15	0.6732	0.647	0.013
298.15	0.7658	0.512	0.01
298.15	0.8473	0.424	0.009
298.15	0.8897	0.388	0.008
298.15	0.9649	0.33	0.007
298.15	1	0.307	0.006
303.15	0.0379	3.85	0.08
303.15	0.0652	4.16	0.08
303.15	0.1114	4.18	0.08
303.15	0.1566	3.78	0.08
303.15	0.217	3.13	0.06
303.15	0.3137	2.23	0.05
303.15	0.4004	1.659	0.033
303.15	0.513	1.183	0.024
303.15	0.6732	0.762	0.015
303.15	0.7658	0.611	0.012
303.15	0.8473	0.511	0.01
303.15	0.8897	0.47	0.01
303.15	0.9649	0.405	0.008
303.15	1	0.377	0.008
313.15	0.0379	4.19	0.08
313.15	0.0652	4.55	0.09
313.15	0.1114	4.64	0.09
313.15	0.1566	4.26	0.09
313.15	0.217	3.6	0.07
313.15	0.3137	2.66	0.05
313.15	0.4004	2.04	0.04
313.15	0.513	1.495	0.03
313.15	0.6732	1.013	0.02
313.15	0.7658	0.83	0.017
313.15	0.8473	0.708	0.014
313.15	0.8897	0.657	0.013
313.15	0.9649	0.576	0.012
313.15	1	0.542	0.011

System: 4-methyl-1,3-dioxolan-2-one + 1-butylpyridinium bis[(trifluoromethyl)sulfonyl]imide; phases: Liquid
Fixed: Pressure, kPa = 101
Property: Electrical conductivity, S/m (Liquid); method: MP522 conductivity instrument
Temperature, K	Mole fraction of 1-butylpyridinium bis[(trifluoromethyl)sulfonyl]imide	Electrical conductivity, S/m	uncertainty
283.15	0.0282	0.356	0.007
283.15	0.0553	0.536	0.011
283.15	0.0934	0.66	0.013
283.15	0.1235	0.701	0.014
283.15	0.1897	0.686	0.014
283.15	0.269	0.607	0.012
283.15	0.3709	0.493	0.01
283.15	0.4666	0.4	0.008
283.15	0.5668	0.323	0.007
283.15	0.6944	0.248	0.005
283.15	0.7943	0.208	0.004
283.15	0.8591	0.188	0.004
283.15	0.9208	0.17	0.004
283.15	0.9715	0.157	0.003
283.15	1	0.15	0.003
293.15	0.0282	0.444	0.009
293.15	0.0553	0.672	0.014
293.15	0.0934	0.84	0.017
293.15	0.1235	0.896	0.018
293.15	0.1897	0.902	0.018
293.15	0.269	0.821	0.017
293.15	0.3709	0.692	0.014
293.15	0.4666	0.58	0.012
293.15	0.5668	0.483	0.01
293.15	0.6944	0.386	0.008
293.15	0.7943	0.33	0.007
293.15	0.8591	0.3	0.006
293.15	0.9208	0.275	0.006
293.15	0.9715	0.256	0.005
293.15	1	0.246	0.005
298.15	0.0282	0.489	0.01
298.15	0.0553	0.745	0.015
298.15	0.0934	0.933	0.019
298.15	0.1235	1.001	0.02
298.15	0.1897	1.02	0.021
298.15	0.269	0.938	0.019
298.15	0.3709	0.802	0.016
298.15	0.4666	0.681	0.014
298.15	0.5668	0.575	0.012
298.15	0.6944	0.467	0.01
298.15	0.7943	0.403	0.008
298.15	0.8591	0.367	0.008
298.15	0.9208	0.338	0.007
298.15	0.9715	0.317	0.007
298.15	1	0.307	0.006
303.15	0.0282	0.538	0.011
303.15	0.0553	0.821	0.017
303.15	0.0934	1.034	0.021
303.15	0.1235	1.116	0.022
303.15	0.1897	1.148	0.023
303.15	0.269	1.07	0.022
303.15	0.3709	0.927	0.019
303.15	0.4666	0.798	0.016
303.15	0.5668	0.679	0.014
303.15	0.6944	0.561	0.011
303.15	0.7943	0.489	0.01
303.15	0.8591	0.448	0.009
303.15	0.9208	0.415	0.008
303.15	0.9715	0.392	0.008
303.15	1	0.378	0.008
313.15	0.0282	0.635	0.013
313.15	0.0553	0.976	0.02
313.15	0.0934	1.243	0.025
313.15	0.1235	1.345	0.027
313.15	0.1897	1.403	0.028
313.15	0.269	1.336	0.027
313.15	0.3709	1.188	0.024
313.15	0.4666	1.044	0.021
313.15	0.5668	0.906	0.018
313.15	0.6944	0.764	0.015
313.15	0.7943	0.681	0.014
313.15	0.8591	0.628	0.013
313.15	0.9208	0.587	0.012
313.15	0.9715	0.556	0.011
313.15	1	0.54	0.011

System: acetonitrile + 1-hexylpyridinium bis(trifluromethylsulfonyl)imide; phases: Liquid
Fixed: Pressure, kPa = 101
Property: Electrical conductivity, S/m (Liquid); method: MP522 conductivity instrument
Temperature, K	Mole fraction of 1-hexylpyridinium bis(trifluromethylsulfonyl)imide	Electrical conductivity, S/m	uncertainty
283.15	0.0432	2.75	0.06
283.15	0.0703	2.91	0.06
283.15	0.0883	2.83	0.06
283.15	0.1355	2.37	0.05
283.15	0.2056	1.644	0.033
283.15	0.2534	1.275	0.026
283.15	0.332	0.886	0.018
283.15	0.4498	0.503	0.01
283.15	0.5297	0.351	0.007
283.15	0.6276	0.239	0.005
283.15	0.8155	0.128	0.003
283.15	0.9205	0.0936	0.002
283.15	1	0.0737	0.0016
293.15	0.0432	3.05	0.06
293.15	0.0703	3.28	0.07
293.15	0.0883	3.22	0.06
293.15	0.1355	2.77	0.06
293.15	0.2056	2	0.04
293.15	0.2534	1.595	0.032
293.15	0.332	1.157	0.023
293.15	0.4498	0.702	0.014
293.15	0.5297	0.51	0.01
293.15	0.6276	0.362	0.007
293.15	0.8155	0.207	0.004
293.15	0.9205	0.157	0.003
293.15	1	0.128	0.003
298.15	0.0432	3.2	0.06
298.15	0.0703	3.46	0.07
298.15	0.0883	3.42	0.07
298.15	0.1355	2.98	0.06
298.15	0.2056	2.19	0.04
298.15	0.2534	1.773	0.036
298.15	0.332	1.303	0.026
298.15	0.4498	0.811	0.016
298.15	0.5297	0.599	0.012
298.15	0.6276	0.437	0.009
298.15	0.8155	0.256	0.005
298.15	0.9205	0.197	0.004
298.15	1	0.163	0.003
303.15	0.0432	3.35	0.07
303.15	0.0703	3.65	0.07
303.15	0.0883	3.61	0.07
303.15	0.1355	3.19	0.06
303.15	0.2056	2.39	0.05
303.15	0.2534	2	0.04
303.15	0.332	1.457	0.029
303.15	0.4498	0.935	0.019
303.15	0.5297	0.702	0.014
303.15	0.6276	0.518	0.011
303.15	0.8155	0.316	0.006
303.15	0.9205	0.245	0.005
303.15	1	0.205	0.004
313.15	0.0432	3.65	0.07
313.15	0.0703	4.01	0.08
313.15	0.0883	4	0.08
313.15	0.1355	3.61	0.07
313.15	0.2056	2.81	0.06
313.15	0.2534	2.38	0.05
313.15	0.332	1.787	0.036
313.15	0.4498	1.196	0.024
313.15	0.5297	0.924	0.019
313.15	0.6276	0.704	0.014
313.15	0.8155	0.452	0.009
313.15	0.9205	0.358	0.007
313.15	1	0.306	0.006

System: 4-methyl-1,3-dioxolan-2-one + 1-hexylpyridinium bis(trifluromethylsulfonyl)imide; phases: Liquid
Fixed: Pressure, kPa = 101
Property: Electrical conductivity, S/m (Liquid); method: MP522 conductivity instrument
Temperature, K	Mole fraction of 1-hexylpyridinium bis(trifluromethylsulfonyl)imide	Electrical conductivity, S/m	uncertainty
283.15	0.0128	0.184	0.004
283.15	0.0186	0.243	0.005
283.15	0.0321	0.354	0.007
283.15	0.0545	0.472	0.01
283.15	0.0693	0.519	0.011
283.15	0.1001	0.567	0.011
283.15	0.1332	0.574	0.012
283.15	0.1806	0.539	0.011
283.15	0.2489	0.463	0.009
283.15	0.334	0.366	0.007
283.15	0.4547	0.256	0.005
283.15	0.5693	0.19	0.004
283.15	0.7043	0.136	0.003
283.15	0.8506	0.0986	0.0021
283.15	0.9425	0.0826	0.0018
283.15	1	0.0737	0.0016
293.15	0.0128	0.226	0.005
293.15	0.0186	0.303	0.006
293.15	0.0321	0.445	0.009
293.15	0.0545	0.597	0.012
293.15	0.0693	0.66	0.013
293.15	0.1001	0.729	0.015
293.15	0.1332	0.749	0.015
293.15	0.1806	0.72	0.015
293.15	0.2489	0.636	0.013
293.15	0.334	0.522	0.011
293.15	0.4547	0.384	0.008
293.15	0.5693	0.294	0.006
293.15	0.7043	0.218	0.004
293.15	0.8506	0.167	0.003
293.15	0.9425	0.141	0.003
293.15	1	0.129	0.003
298.15	0.0128	0.249	0.005
298.15	0.0186	0.334	0.007
298.15	0.0321	0.489	0.01
298.15	0.0545	0.661	0.013
298.15	0.0693	0.733	0.015
298.15	0.1001	0.815	0.016
298.15	0.1332	0.841	0.017
298.15	0.1806	0.817	0.016
298.15	0.2489	0.73	0.015
298.15	0.334	0.609	0.012
298.15	0.4547	0.458	0.009
298.15	0.5693	0.358	0.007
298.15	0.7043	0.27	0.006
298.15	0.8506	0.208	0.004
298.15	0.9425	0.179	0.004
298.15	1	0.163	0.003
303.15	0.0128	0.275	0.006
303.15	0.0186	0.367	0.007
303.15	0.0321	0.539	0.011
303.15	0.0545	0.731	0.015
303.15	0.0693	0.814	0.016
303.15	0.1001	0.911	0.018
303.15	0.1332	0.944	0.019
303.15	0.1806	0.925	0.019
303.15	0.2489	0.838	0.017
303.15	0.334	0.708	0.014
303.15	0.4547	0.542	0.011
303.15	0.5693	0.43	0.009
303.15	0.7043	0.332	0.007
303.15	0.8506	0.258	0.005
303.15	0.9425	0.223	0.005
303.15	1	0.205	0.004
313.15	0.0128	0.324	0.007
313.15	0.0186	0.435	0.009
313.15	0.0321	0.641	0.013
313.15	0.0545	0.874	0.018
313.15	0.0693	0.976	0.02
313.15	0.1001	1.104	0.022
313.15	0.1332	1.155	0.023
313.15	0.1806	1.148	0.023
313.15	0.2489	1.061	0.021
313.15	0.334	0.918	0.018
313.15	0.4547	0.725	0.015
313.15	0.5693	0.589	0.012
313.15	0.7043	0.47	0.01
313.15	0.8506	0.377	0.008
313.15	0.9425	0.332	0.007
313.15	1	0.306	0.006
