Measured thermophysical data. Relative Permittivity Measurements of Carbon Dioxide + Ethanol Mixtures
Source: J. Chem. Eng. Data, 2011, 10.1021/je2003012
Compound 1: carbon dioxide, CO2, InChI=1S/CO2/c2-1-3
Compound 2: ethanol, C2H6O, InChI=1S/C2H6O/c1-2-3/h3H,2H2,1H3

System: ethanol + carbon dioxide; phases: Liquid
Property: Relative permittivity at various frequencies (Liquid); method: direct capacitance:P = 
Mass fraction of ethanol	Temperature, K	Pressure, kPa	Relative permittivity at various frequencies	uncertainty
0.05	303.4	10000	1.83	0.14
0.05	303.4	11400	1.86	0.14
0.05	303.4	13200	1.89	0.14
0.05	303.4	13600	1.9	0.14
0.05	303.4	14800	1.91	0.14
0.05	303.4	15300	1.92	0.14
0.05	303.4	15800	1.92	0.14
0.05	303.4	16000	1.93	0.14
0.05	303.4	17500	1.94	0.14
0.05	303.4	19000	1.95	0.14
0.05	303.4	19200	1.95	0.14
0.05	303.4	21000	1.97	0.14
0.05	303.4	21300	1.97	0.14
0.05	303.4	23000	1.98	0.14
0.05	303.4	23300	1.99	0.14
0.05	303.4	25100	2	0.14
0.05	303.4	25400	2	0.14
0.05	303.4	26700	2.01	0.14
0.05	303.4	27200	2.01	0.14
0.05	303.4	28900	2.02	0.14
0.05	303.4	29600	2.03	0.14
0.05	313	9700	1.63	0.14
0.05	313	9800	1.64	0.14
0.05	313	9900	1.65	0.14
0.05	313	11300	1.7	0.14
0.05	313	11700	1.7	0.14
0.05	313	11800	1.7	0.14
0.05	313	13200	1.74	0.14
0.05	313	13700	1.74	0.14
0.05	313	15100	1.77	0.14
0.05	313	15700	1.78	0.14
0.05	313	17400	1.8	0.14
0.05	313	17500	1.8	0.14
0.05	313	19200	1.82	0.14
0.05	313	20700	1.83	0.14
0.05	313	21600	1.84	0.14
0.05	313	23500	1.86	0.14
0.05	313	25300	1.87	0.14
0.05	313	25400	1.87	0.14
0.05	313	27400	1.89	0.14
0.05	313	30400	1.91	0.14
0.05	322.5	10200	1.53	0.14
0.05	322.5	12100	1.63	0.14
0.05	322.5	13100	1.66	0.14
0.05	322.5	14200	1.7	0.14
0.05	322.5	14700	1.7	0.14
0.05	322.5	16000	1.73	0.14
0.05	322.5	16100	1.73	0.14
0.05	322.5	17200	1.75	0.14
0.05	322.5	18900	1.78	0.14
0.05	322.5	19500	1.79	0.14
0.05	322.5	20800	1.8	0.14
0.05	322.5	21800	1.81	0.14
0.05	322.5	22700	1.82	0.14
0.05	322.5	23600	1.83	0.14
0.05	322.5	24700	1.84	0.14
0.05	322.5	25800	1.85	0.14
0.05	322.5	26300	1.86	0.14
0.05	322.5	27900	1.87	0.14
0.05	322.5	28400	1.87	0.14
0.05	322.5	29300	1.88	0.14
0.05	322.5	29500	1.88	0.14
0.05	322.5	30300	1.89	0.14
0.05	333.2	10500	1.32	0.15
0.05	333.2	11200	1.41	0.15
0.05	333.2	12100	1.48	0.14
0.05	333.2	13000	1.54	0.14
0.05	333.2	13700	1.57	0.14
0.05	333.2	14900	1.62	0.14
0.05	333.2	15900	1.64	0.14
0.05	333.2	17000	1.67	0.14
0.05	333.2	17600	1.69	0.14
0.05	333.2	19100	1.72	0.14
0.05	333.2	19400	1.72	0.14
0.05	333.2	21000	1.75	0.14
0.05	333.2	21600	1.75	0.14
0.05	333.2	22900	1.77	0.14
0.05	333.2	23700	1.78	0.14
0.05	333.2	25000	1.8	0.14
0.05	333.2	26900	1.82	0.14
0.05	333.2	27400	1.82	0.14
0.05	333.2	28800	1.83	0.14
0.05	333.2	29900	1.84	0.14
0.05	313	17500	1.8	0.14
0.05	333.2	13000	1.53	0.14
0.1	303.7	9800	2.24	0.14
0.1	303.7	11300	2.27	0.14
0.1	303.7	11400	2.28	0.14
0.1	303.7	13100	2.3	0.14
0.1	303.7	14000	2.32	0.14
0.1	303.7	14900	2.34	0.14
0.1	303.7	16000	2.36	0.14
0.1	303.7	16900	2.37	0.14
0.1	303.7	17800	2.38	0.14
0.1	303.7	19100	2.4	0.14
0.1	303.7	19900	2.41	0.14
0.1	303.7	20400	2.42	0.14
0.1	303.7	21400	2.43	0.14
0.1	303.7	21900	2.43	0.14
0.1	303.7	23100	2.45	0.14
0.1	303.7	24100	2.46	0.14
0.1	303.7	24200	2.46	0.14
0.1	303.7	25300	2.47	0.14
0.1	303.7	25500	2.48	0.14
0.1	303.7	26500	2.48	0.14
0.1	303.7	27400	2.49	0.14
0.1	303.7	28000	2.5	0.14
0.1	303.7	28400	2.5	0.14
0.1	303.7	29400	2.51	0.14
0.1	313.1	9700	1.98	0.15
0.1	313.1	10200	2	0.14
0.1	313.1	11000	2.03	0.14
0.1	313.1	12000	2.05	0.14
0.1	313.1	12700	2.08	0.14
0.1	313.1	13100	2.09	0.14
0.1	313.1	13700	2.11	0.14
0.1	313.1	14800	2.13	0.14
0.1	313.1	15800	2.15	0.14
0.1	313.1	17000	2.17	0.14
0.1	313.1	17700	2.18	0.14
0.1	313.1	18800	2.19	0.14
0.1	313.1	19800	2.2	0.14
0.1	313.1	21900	2.23	0.14
0.1	313.1	22100	2.23	0.14
0.1	313.1	22400	2.24	0.14
0.1	313.1	24100	2.26	0.14
0.1	313.1	24400	2.26	0.14
0.1	313.1	25800	2.28	0.14
0.1	313.1	26400	2.28	0.14
0.1	313.1	27700	2.3	0.14
0.1	313.1	27800	2.3	0.14
0.1	313.1	28300	2.3	0.14
0.1	313.1	29300	2.31	0.14
0.1	313.1	29500	2.32	0.14
0.1	322.4	10500	1.86	0.14
0.1	322.4	11900	1.94	0.14
0.1	322.4	12200	1.96	0.14
0.1	322.4	13700	2.01	0.14
0.1	322.4	13900	2.02	0.14
0.1	322.4	15700	2.06	0.14
0.1	322.4	15800	2.07	0.14
0.1	322.4	16700	2.09	0.14
0.1	322.4	17100	2.09	0.14
0.1	322.4	17600	2.11	0.14
0.1	322.4	18600	2.13	0.14
0.1	322.4	19600	2.14	0.14
0.1	322.4	20600	2.16	0.14
0.1	322.4	21600	2.18	0.14
0.1	322.4	21700	2.18	0.14
0.1	322.4	22600	2.19	0.14
0.1	322.4	23600	2.21	0.14
0.1	322.4	24500	2.22	0.14
0.1	322.4	25500	2.23	0.14
0.1	322.4	26500	2.24	0.14
0.1	322.4	27500	2.26	0.14
0.1	322.4	28400	2.27	0.14
0.1	322.4	29900	2.28	0.14
0.1	333.3	11900	1.74	0.14
0.1	333.3	12900	1.81	0.14
0.1	333.3	13700	1.86	0.14
0.1	333.3	14800	1.9	0.14
0.1	333.3	15700	1.94	0.14
0.1	333.3	16700	1.96	0.14
0.1	333.3	17800	2	0.14
0.1	333.3	18500	2.01	0.14
0.1	333.3	19400	2.03	0.14
0.1	333.3	19600	2.03	0.14
0.1	333.3	20600	2.06	0.14
0.1	333.3	21700	2.08	0.14
0.1	333.3	22600	2.09	0.14
0.1	333.3	23900	2.11	0.14
0.1	333.3	24800	2.12	0.14
0.1	333.3	25200	2.13	0.14
0.1	333.3	25600	2.14	0.14
0.1	333.3	26500	2.15	0.14
0.1	333.3	26600	2.15	0.14
0.1	333.3	27200	2.16	0.14
0.1	333.3	27500	2.16	0.14
0.1	333.3	27900	2.16	0.14
0.1	333.3	28500	2.17	0.14
0.1	333.3	29200	2.18	0.14
0.1	303.7	19100	2.4	0.14
0.1	303.7	25500	2.48	0.14
0.1	322.4	11900	1.94	0.14
0.1	322.4	15700	2.06	0.14
0.1	333.3	25600	2.13	0.14
0.152	304.9	16100	2.67	0.15
0.152	304.9	16800	2.68	0.14
0.152	304.9	17300	2.68	0.15
0.152	304.9	17800	2.69	0.14
0.152	304.9	18800	2.7	0.14
0.152	304.9	19400	2.72	0.14
0.152	304.9	20100	2.73	0.14
0.152	304.9	20800	2.74	0.14
0.152	304.9	21900	2.75	0.14
0.152	304.9	22800	2.76	0.14
0.152	304.9	23700	2.77	0.15
0.152	304.9	24300	2.79	0.14
0.152	304.9	24700	2.78	0.14
0.152	304.9	25500	2.79	0.14
0.152	304.9	26400	2.81	0.14
0.152	304.9	26500	2.81	0.14
0.152	304.9	27200	2.82	0.14
0.152	304.9	28200	2.83	0.14
0.152	304.9	29100	2.84	0.14
0.152	304.9	29800	2.85	0.16
0.152	313.1	10100	2.37	0.14
0.152	313.1	10900	2.39	0.14
0.152	313.1	11800	2.42	0.14
0.152	313.1	12700	2.45	0.14
0.152	313.1	13800	2.47	0.14
0.152	313.1	14600	2.49	0.14
0.152	313.1	15700	2.52	0.14
0.152	313.1	16800	2.54	0.14
0.152	313.1	17800	2.56	0.14
0.152	313.1	18800	2.58	0.14
0.152	313.1	19500	2.59	0.14
0.152	313.1	20800	2.61	0.14
0.152	313.1	21600	2.62	0.14
0.152	313.1	22600	2.63	0.14
0.152	313.1	23500	2.64	0.14
0.152	313.1	24500	2.66	0.14
0.152	313.1	25500	2.67	0.14
0.152	313.1	26500	2.68	0.14
0.152	313.1	27500	2.69	0.14
0.152	313.1	27900	2.7	0.14
0.152	313.1	28400	2.71	0.14
0.152	313.1	29300	2.72	0.14
0.152	323.3	9900	2.06	0.14
0.152	323.3	11000	2.13	0.14
0.152	323.3	12000	2.18	0.14
0.152	323.3	12700	2.21	0.14
0.152	323.3	13600	2.25	0.14
0.152	323.3	14700	2.28	0.14
0.152	323.3	15900	2.31	0.14
0.152	323.3	16900	2.34	0.14
0.152	323.3	17800	2.36	0.14
0.152	323.3	18600	2.37	0.14
0.152	323.3	18700	2.38	0.14
0.152	323.3	19500	2.4	0.14
0.152	323.3	20300	2.41	0.14
0.152	323.3	21700	2.44	0.14
0.152	323.3	22800	2.45	0.14
0.152	323.3	23100	2.46	0.14
0.152	323.3	23500	2.47	0.14
0.152	323.3	24500	2.48	0.14
0.152	323.3	25400	2.5	0.14
0.152	323.3	26500	2.51	0.14
0.152	323.3	28400	2.54	0.14
0.152	323.3	29500	2.56	0.15
0.152	333.3	11800	1.99	0.14
0.152	333.3	12900	2.07	0.14
0.152	333.3	13800	2.11	0.14
0.152	333.3	14800	2.16	0.14
0.152	333.3	15900	2.2	0.14
0.152	333.3	16700	2.22	0.14
0.152	333.3	17700	2.26	0.14
0.152	333.3	18700	2.28	0.14
0.152	333.3	19700	2.31	0.14
0.152	333.3	20800	2.33	0.14
0.152	333.3	22000	2.36	0.14
0.152	333.3	22700	2.37	0.14
0.152	333.3	23500	2.38	0.14
0.152	333.3	24500	2.4	0.14
0.152	333.3	25600	2.42	0.14
0.152	333.3	26600	2.43	0.14
0.152	333.3	27600	2.45	0.14
0.152	333.3	28400	2.46	0.14
0.152	333.3	29200	2.47	0.14
0.152	333.3	29900	2.48	0.14
0.152	304.9	27200	2.82	0.14
0.212	303.7	7200	3.15	0.15
0.212	303.7	7900	3.18	0.15
0.212	303.7	8800	3.22	0.15
0.212	303.7	9800	3.25	0.15
0.212	303.7	11000	3.29	0.15
0.212	303.7	13000	3.35	0.15
0.212	303.7	14900	3.4	0.15
0.212	303.7	15000	3.4	0.15
0.212	303.7	16500	3.44	0.15
0.212	303.7	16700	3.45	0.15
0.212	303.7	17300	3.46	0.15
0.212	303.7	18000	3.47	0.15
0.212	303.7	18800	3.49	0.15
0.212	303.7	20200	3.52	0.15
0.212	303.7	21600	3.54	0.14
0.212	303.7	21800	3.55	0.14
0.212	303.7	23300	3.57	0.14
0.212	303.7	23900	3.58	0.14
0.212	303.7	25400	3.61	0.14
0.212	303.7	26200	3.62	0.14
0.212	303.7	27200	3.64	0.14
0.212	303.7	28400	3.66	0.14
0.212	303.7	30200	3.68	0.14
0.212	312.8	8000	2.8	0.15
0.212	312.8	9300	2.86	0.14
0.212	312.8	11200	2.94	0.14
0.212	312.8	11500	2.94	0.14
0.212	312.8	14200	3	0.14
0.212	312.8	14300	3.01	0.14
0.212	312.8	14900	3.03	0.14
0.212	312.8	15800	3.05	0.14
0.212	312.8	17400	3.11	0.14
0.212	312.8	18000	3.14	0.14
0.212	312.8	20000	3.17	0.14
0.212	312.8	20600	3.18	0.14
0.212	312.8	22200	3.22	0.14
0.212	312.8	22800	3.23	0.14
0.212	312.8	23700	3.25	0.14
0.212	312.8	26300	3.3	0.14
0.212	312.8	28100	3.32	0.14
0.212	312.8	28400	3.34	0.14
0.212	312.8	30800	3.37	0.14
0.212	323.4	9800	2.59	0.14
0.212	323.4	10600	2.61	0.14
0.212	323.4	11500	2.67	0.14
0.212	323.4	12400	2.71	0.15
0.212	323.4	13100	2.75	0.14
0.212	323.4	14100	2.79	0.14
0.212	323.4	15800	2.85	0.14
0.212	323.4	16600	2.87	0.14
0.212	323.4	17800	2.9	0.14
0.212	323.4	18800	2.93	0.14
0.212	323.4	19600	2.95	0.14
0.212	323.4	19700	2.95	0.14
0.212	323.4	21100	2.98	0.14
0.212	323.4	22900	3.03	0.14
0.212	323.4	23100	3.03	0.14
0.212	323.4	23200	3.03	0.14
0.212	323.4	24700	3.06	0.14
0.212	323.4	26000	3.08	0.14
0.212	323.4	26700	3.1	0.14
0.212	323.4	27900	3.12	0.14
0.212	323.4	29500	3.14	0.14
0.212	323.4	30600	3.15	0.14
0.212	333.2	11900	2.38	0.15
0.212	333.2	12900	2.45	0.15
0.212	333.2	13200	2.47	0.15
0.212	333.2	14100	2.52	0.14
0.212	333.2	14700	2.54	0.14
0.212	333.2	15800	2.59	0.14
0.212	333.2	16200	2.61	0.14
0.212	333.2	16900	2.62	0.14
0.212	333.2	17300	2.64	0.14
0.212	333.2	18500	2.68	0.14
0.212	333.2	19100	2.7	0.14
0.212	333.2	19200	2.7	0.14
0.212	333.2	21200	2.75	0.14
0.212	333.2	21300	2.75	0.14
0.212	333.2	23000	2.79	0.14
0.212	333.2	23100	2.79	0.14
0.212	333.2	24900	2.83	0.14
0.212	333.2	25000	2.83	0.14
0.212	333.2	25200	2.83	0.14
0.212	333.2	25500	2.85	0.14
0.212	333.2	26800	2.86	0.14
0.212	333.2	27000	2.87	0.14
0.212	333.2	28400	2.9	0.14
0.212	333.2	30600	2.94	0.14
0.212	333.2	21200	2.75	0.14
0.212	333.2	21200	2.75	0.14
