Measured thermophysical data. Solubility of Dibenzothiophene in Sub- and Supercritical Propane
Source: J. Chem. Eng. Data, 2011, 10.1021/je2001667
Compound 1: dibenzothiophene, C12H8S, InChI=1S/C12H8S/c1-3-7-11-9(5-1)10-6-2-4-8-12(10)13-11/h1-8H, purity 98%
Compound 2: propane, C3H8, InChI=1S/C3H8/c1-3-2/h3H2,1-2H3, purity 99.5%

System: propane + dibenzothiophene; phases: Liquid, Crystal
Property: Mole fraction of dibenzothiophene (Liquid); method: Visual
Temperature, K	Pressure, kPa	Mole fraction of dibenzothiophene	uncertainty
298	3900	0.0032	0.00181
298	6000	0.00475	0.00196
298	8000	0.00551	0.00263
333	2700	0.00958	0.00302
333	3400	0.0132	0.002
333	5100	0.0153	0.00118
333	7900	0.0207	0.00399
343	4900	0.0165	0.00334

System: propane + dibenzothiophene; phases: Gas, Liquid
Property: Mole fraction of dibenzothiophene (Gas); method: Visual
Temperature, K	Pressure, kPa	Mole fraction of dibenzothiophene	uncertainty
388	5100	0.00128	0.00128
388	5500	0.0098	0.00873
388	6000	0.0207	0.00483
388	7100	0.0298	0.0041
388	8000	0.04	0.00492
405	6500	0.00404	0.00404
405	7000	0.01	0.00466
405	7900	0.0203	0.00468

System: propane + dibenzothiophene; phases: Gas, Crystal
Fixed: Temperature, K = 370
Property: Mole fraction of dibenzothiophene (Gas); method: view cell
Pressure, kPa	Mole fraction of dibenzothiophene	uncertainty
4800	0.0342	0.00197
6200	0.038	0.00265
7700	0.0481	0.00355
