Measured thermophysical data. Effect of Cadmium Chloride and Ammonium Chloride Salts  on the Enthalpy of Mixing of the Pyridine + Water at 303.15  K
Source: J. Chem. Eng. Data, 2012, 10.1021/je2002495
Compound 1: pyridine, C5H5N, InChI=1S/C5H5N/c1-2-4-6-5-3-1/h1-5H, purity 99.9%
Compound 2: cadmium chloride, CdCl2, InChI=1S/Cd.2ClH/h;2*1H/q+2;;/p-2
Compound 3: ammonium chloride (NH4Cl), ClH4N, InChI=1S/ClH.H3N/h1H;1H3
Compound 4: water, H2O, InChI=1S/H2O/h1H2, purity 99.98%

System: pyridine; phases: Liquid, Gas
Property: Normal boiling temperature, K (Liquid); method: Distillation
Normal boiling temperature, K	uncertainty
387.9	1.1

System: pyridine; phases: Liquid
Property: Mass density, kg/m3 (Liquid); method: Pycnometric method
Temperature, K	Pressure, kPa	Mass density, kg/m3	uncertainty
298.15	101.325	981.3	0.9

System: water; phases: Liquid
Property: Mass density, kg/m3 (Liquid); method: Pycnometric method
Temperature, K	Pressure, kPa	Mass density, kg/m3	uncertainty
298.15	101.325	996.5	0.9

System: pyridine + water; phases: Liquid
Fixed: Temperature, K = 298.15
Fixed: Pressure, kPa = 101
Property: Excess molar enthalpy (molar enthalpy of mixing), kJ/mol (Liquid); method: Calvet calorimetry
Mole fraction of pyridine	Excess molar enthalpy (molar enthalpy of mixing), kJ/mol	uncertainty
0.095	-0.3955	0.024
0.199	-0.8667	0.0524
0.298	-1.0934	0.0661
0.403	-1.2302	0.0744
0.505	-1.2809	0.0775
0.601	-1.2362	0.0748
0.703	-1.1293	0.0683
0.807	-0.87	0.0526
0.904	-0.3402	0.0206

System: pyridine + water + cadmium chloride; phases: Liquid
Fixed: Temperature, K = 298.15
Fixed: Pressure, kPa = 101
Property: Excess molar enthalpy (molar enthalpy of mixing), kJ/mol (Liquid); method: Calvet calorimetry
Mole fraction of pyridine	Mole fraction of cadmium chloride	Excess molar enthalpy (molar enthalpy of mixing), kJ/mol	uncertainty
0.093	0.0229	-0.4646	0.0282
0.095	0	-0.3955	0.024
0.095	0.0491	-0.5308	0.0322
0.195	0.0112	-0.8605	0.0521
0.197	0.0244	-0.9813	0.0594
0.199	0	-0.8667	0.0524
0.296	0.0121	-1.2977	0.0785
0.297	0.0637	-1.1216	0.0678
0.298	0	-1.0934	0.0661
0.402	0.007	-1.4979	0.0906
0.403	0	-1.2302	0.0744
0.403	0.0033	-1.339	0.081
0.496	0.0037	-1.538	0.093
0.501	0.0016	-1.3673	0.0827
0.505	0	-1.2809	0.0775
0.601	0	-1.2362	0.0748
0.602	0.0008	-1.2485	0.0755
0.619	0.0018	-1.3986	0.0846
0.703	0	-1.1293	0.0683
0.705	0.0004	-1.0186	0.0616
0.705	0.0008	-1.1662	0.0705
0.801	0.0002	-0.8143	0.0493
0.802	0.0002	-0.7247	0.0439
0.807	0	-0.87	0.0526
0.904	0	-0.3402	0.0206
0.912	0.0001	-0.303	0.0184
0.92	0.0001	-0.3103	0.0188

System: pyridine + water + ammonium chloride (NH4Cl); phases: Liquid
Fixed: Temperature, K = 298.15
Fixed: Pressure, kPa = 101
Property: Excess molar enthalpy (molar enthalpy of mixing), kJ/mol (Liquid); method: Calvet calorimetry
Mole fraction of pyridine	Mole fraction of ammonium chloride (NH4Cl)	Excess molar enthalpy (molar enthalpy of mixing), kJ/mol	uncertainty
0.095	0.0489	-0.2796	0.017
0.097	0.0233	-0.4745	0.0288
0.201	0.0121	-0.9726	0.0588
0.201	0.0249	-0.7519	0.0455
0.298	0.0063	-1.2561	0.076
0.305	0.0121	-1.1416	0.0691
0.397	0.007	-1.241	0.0751
0.401	0.0033	-1.4081	0.0852
0.501	0.0039	-1.2517	0.0757
0.502	0.0016	-1.4159	0.0856
0.61	0.0008	-1.2445	0.0753
0.621	0.0018	-1.0604	0.0642
0.709	0.0009	-0.8725	0.0528
0.721	0.0004	-0.9562	0.0579
0.802	0.0003	-0.6126	0.0371
0.805	0.0002	-0.6534	0.0396
0.901	0.0001	-0.3348	0.0203
0.911	0.0001	-0.2669	0.0162
