Measured thermophysical data. Refractive Indices and Deviations in Refractive Indices of Trifluoromethanesulfonate-Based Ionic Liquids in Water
Source: J. Chem. Eng. Data, 2011, 10.1021/je200479e
Compound 1: 1-ethyl-3-methylimidazolium trifluoromethanesulfonate, C7H11F3N2O3S, InChI=1S/C6H11N2.CHF3O3S/c1-3-8-5-4-7(2)6-8;2-1(3,4)8(5,6)7/h4-6H,3H2,1-2H3;(H,5,6,7)/q+1;/p-1, purity 98%
Compound 2: 3-butyl-1-ethyl-1H-imidazolium trifluoromethanesulfonate (1:1), C10H17F3N2O3S, InChI=1S/C9H17N2.CHF3O3S/c1-3-5-6-11-8-7-10(4-2)9-11;2-1(3,4)8(5,6)7/h7-9H,3-6H2,1-2H3;(H,5,6,7)/q+1;/p-1, purity 98%
Compound 3: 1-butyl-3-methylimidazolium trifluoromethanesulfonate, C9H15F3N2O3S, InChI=1S/C8H15N2.CHF3O3S/c1-3-4-5-10-7-6-9(2)8-10;2-1(3,4)8(5,6)7/h6-8H,3-5H2,1-2H3;(H,5,6,7)/q+1;/p-1, purity 98%
Compound 4: 1-butyl-1-methylpyrrolidinium trifluoromethanesulfonate, C10H20F3NO3S, InChI=1S/C9H20N.CHF3O3S/c1-3-4-7-10(2)8-5-6-9-10;2-1(3,4)8(5,6)7/h3-9H2,1-2H3;(H,5,6,7)/q+1;/p-1, purity 99%
Compound 5: water, H2O, InChI=1S/H2O/h1H2, purity 99.9%

System: 1-ethyl-3-methylimidazolium trifluoromethanesulfonate; phases: Liquid
Property: Mass density, kg/m3 (Liquid); method: Vibrating tube method
Temperature, K	Pressure, kPa	Mass density, kg/m3	uncertainty
298.15	101.325	1383.58	1.73

System: 1-ethyl-3-methylimidazolium trifluoromethanesulfonate; phases: Liquid
Fixed: Pressure, kPa = 101.325
Property: Refractive index (Na D-line) (Liquid); method: Standard Abbe refractometry
Temperature, K	Refractive index (Na D-line)	uncertainty
288.15	1.43599	0.00051
298.15	1.4332	0.00051
308.15	1.4304	0.00051
318.15	1.42767	0.00051
328.15	1.42494	0.00051
338.15	1.42222	0.00051

System: 3-butyl-1-ethyl-1H-imidazolium trifluoromethanesulfonate (1:1); phases: Liquid
Property: Mass density, kg/m3 (Liquid); method: Vibrating tube method
Temperature, K	Pressure, kPa	Mass density, kg/m3	uncertainty
298.15	101.325	1263.13	1.42

System: 3-butyl-1-ethyl-1H-imidazolium trifluoromethanesulfonate (1:1); phases: Liquid
Fixed: Pressure, kPa = 101.325
Property: Refractive index (Na D-line) (Liquid); method: Standard Abbe refractometry
Temperature, K	Refractive index (Na D-line)	uncertainty
288.15	1.44235	0.00051
298.15	1.43944	0.00051
308.15	1.4365	0.00051
318.15	1.43358	0.00051
328.15	1.43073	0.00051
338.15	1.42788	0.00051

System: 1-butyl-3-methylimidazolium trifluoromethanesulfonate; phases: Liquid
Property: Mass density, kg/m3 (Liquid); method: Vibrating tube method
Temperature, K	Pressure, kPa	Mass density, kg/m3	uncertainty
298.15	101.325	1297.43	1.51

System: 1-butyl-3-methylimidazolium trifluoromethanesulfonate; phases: Liquid
Fixed: Pressure, kPa = 101.325
Property: Refractive index (Na D-line) (Liquid); method: Standard Abbe refractometry
Temperature, K	Refractive index (Na D-line)	uncertainty
288.15	1.44011	0.00051
298.15	1.43729	0.00051
308.15	1.43448	0.00051
318.15	1.43167	0.00051
328.15	1.42889	0.00051
338.15	1.42614	0.00051

System: 1-butyl-1-methylpyrrolidinium trifluoromethanesulfonate; phases: Liquid
Property: Mass density, kg/m3 (Liquid); method: Vibrating tube method
Temperature, K	Pressure, kPa	Mass density, kg/m3	uncertainty
298.15	101.325	1252.01	0.44

System: 1-butyl-1-methylpyrrolidinium trifluoromethanesulfonate; phases: Liquid
Fixed: Pressure, kPa = 101.325
Property: Refractive index (Na D-line) (Liquid); method: Standard Abbe refractometry
Temperature, K	Refractive index (Na D-line)	uncertainty
288.15	1.43539	0.00037
298.15	1.43267	0.00037
308.15	1.43001	0.00037
318.15	1.42735	0.00037
328.15	1.42468	0.00037
338.15	1.42202	0.00037

System: water + 1-ethyl-3-methylimidazolium trifluoromethanesulfonate; phases: Liquid
Fixed: Pressure, kPa = 101
Property: Refractive index (Na D-line) (Liquid); method: Standard Abbe refractometry
Temperature, K	Mole fraction of 1-ethyl-3-methylimidazolium trifluoromethanesulfonate	Refractive index (Na D-line)	uncertainty
288.15	0	1.33351	0.00031
288.15	0.04954	1.37143	0.00031
288.15	0.0999	1.39058	0.00032
288.15	0.14834	1.40106	0.00032
288.15	0.1994	1.40835	0.00032
288.15	0.30511	1.4177	0.00034
288.15	0.39515	1.42298	0.00035
288.15	0.49028	1.42752	0.00037
288.15	0.608	1.42996	0.0004
288.15	0.69535	1.43186	0.00042
288.15	0.79941	1.43369	0.00045
288.15	0.84121	1.43434	0.00046
288.15	0.88772	1.43497	0.00047
288.15	0.93994	1.43567	0.00049
288.15	1	1.43599	0.00051
298.15	0	1.3325	0.00031
298.15	0.04954	1.36929	0.00031
298.15	0.0999	1.38737	0.00032
298.15	0.14834	1.39803	0.00032
298.15	0.1994	1.40554	0.00032
298.15	0.30511	1.4149	0.00034
298.15	0.39515	1.42008	0.00035
298.15	0.49028	1.42456	0.00037
298.15	0.608	1.42722	0.0004
298.15	0.69535	1.4293	0.00042
298.15	0.79941	1.43086	0.00045
298.15	0.84121	1.43152	0.00046
298.15	0.88772	1.4321	0.00047
298.15	0.93994	1.43277	0.00049
298.15	1	1.4332	0.00051
308.15	0	1.33123	0.00031
308.15	0.04954	1.36693	0.00031
308.15	0.0999	1.38545	0.00032
308.15	0.14834	1.39582	0.00032
308.15	0.1994	1.40276	0.00032
308.15	0.30511	1.4121	0.00034
308.15	0.39515	1.41711	0.00035
308.15	0.49028	1.4215	0.00037
308.15	0.608	1.42441	0.0004
308.15	0.69535	1.42634	0.00042
308.15	0.79941	1.42814	0.00045
308.15	0.84121	1.42896	0.00046
308.15	0.88772	1.42942	0.00047
308.15	0.93994	1.43011	0.00049
308.15	1	1.4304	0.00051
318.15	0	1.32965	0.00031
318.15	0.04954	1.36455	0.00031
318.15	0.0999	1.38286	0.00032
318.15	0.14834	1.39377	0.00032
318.15	0.1994	1.39987	0.00032
318.15	0.30511	1.40921	0.00034
318.15	0.39515	1.41448	0.00035
318.15	0.49028	1.419	0.00037
318.15	0.608	1.42164	0.0004
318.15	0.69535	1.4236	0.00042
318.15	0.79941	1.42537	0.00045
318.15	0.84121	1.4262	0.00046
318.15	0.88772	1.42669	0.00047
318.15	0.93994	1.42732	0.00049
318.15	1	1.42767	0.00051
328.15	0	1.32784	0.00031
328.15	0.04954	1.36203	0.00031
328.15	0.0999	1.38018	0.00032
328.15	0.14834	1.39109	0.00032
328.15	0.1994	1.3971	0.00032
328.15	0.30511	1.40629	0.00034
328.15	0.39515	1.41212	0.00035
328.15	0.49028	1.41627	0.00037
328.15	0.608	1.41891	0.0004
328.15	0.69535	1.42084	0.00042
328.15	0.79941	1.42264	0.00045
328.15	0.84121	1.42347	0.00046
328.15	0.88772	1.42394	0.00047
328.15	0.93994	1.42452	0.00049
328.15	1	1.42494	0.00051
338.15	0	1.32581	0.00031
338.15	0.04954	1.35943	0.00031
338.15	0.0999	1.37739	0.00032
338.15	0.14834	1.38829	0.00032
338.15	0.1994	1.39415	0.00032
338.15	0.30511	1.40338	0.00034
338.15	0.39515	1.40853	0.00035
338.15	0.49028	1.41302	0.00037
338.15	0.608	1.41621	0.0004
338.15	0.69535	1.41807	0.00042
338.15	0.79941	1.41989	0.00045
338.15	0.84121	1.42083	0.00046
338.15	0.88772	1.42121	0.00047
338.15	0.93994	1.42181	0.00049
338.15	1	1.42222	0.00051

System: water + 3-butyl-1-ethyl-1H-imidazolium trifluoromethanesulfonate (1:1); phases: Liquid
Fixed: Pressure, kPa = 101
Property: Refractive index (Na D-line) (Liquid); method: Standard Abbe refractometry
Temperature, K	Mole fraction of 3-butyl-1-ethyl-1H-imidazolium trifluoromethanesulfonate (1:1)	Refractive index (Na D-line)	uncertainty
288.15	0	1.33352	0.00031
288.15	0.05002	1.3788	0.00031
288.15	0.09989	1.39889	0.00032
288.15	0.15004	1.41026	0.00032
288.15	0.19938	1.41759	0.00032
288.15	0.30226	1.42638	0.00034
288.15	0.39626	1.43092	0.00035
288.15	0.49335	1.43425	0.00037
288.15	0.59563	1.43696	0.0004
288.15	0.69869	1.43871	0.00042
288.15	0.78909	1.44	0.00045
288.15	0.84434	1.44063	0.00046
288.15	0.89149	1.4413	0.00047
288.15	0.95002	1.44182	0.00049
288.15	1	1.44235	0.00051
298.15	0	1.3325	0.00031
298.15	0.05002	1.37638	0.00031
298.15	0.09989	1.39615	0.00032
298.15	0.15004	1.40736	0.00032
298.15	0.19938	1.41444	0.00032
298.15	0.30226	1.42339	0.00034
298.15	0.39626	1.42795	0.00035
298.15	0.49335	1.43128	0.00037
298.15	0.59563	1.43402	0.0004
298.15	0.69869	1.43579	0.00042
298.15	0.78909	1.4371	0.00045
298.15	0.84434	1.43775	0.00046
298.15	0.89149	1.43833	0.00047
298.15	0.95002	1.4389	0.00049
298.15	1	1.43944	0.00051
308.15	0	1.33123	0.00031
308.15	0.05002	1.374	0.00031
308.15	0.09989	1.39343	0.00032
308.15	0.15004	1.4044	0.00032
308.15	0.19938	1.41153	0.00032
308.15	0.30226	1.42038	0.00034
308.15	0.39626	1.42495	0.00035
308.15	0.49335	1.42834	0.00037
308.15	0.59563	1.43111	0.0004
308.15	0.69869	1.43291	0.00042
308.15	0.78909	1.43424	0.00045
308.15	0.84434	1.43482	0.00046
308.15	0.89149	1.43553	0.00047
308.15	0.95002	1.43597	0.00049
308.15	1	1.4365	0.00051
318.15	0	1.32966	0.00031
318.15	0.05002	1.37145	0.00031
318.15	0.09989	1.39061	0.00032
318.15	0.15004	1.40141	0.00032
318.15	0.19938	1.4085	0.00032
318.15	0.30226	1.4174	0.00034
318.15	0.39626	1.42193	0.00035
318.15	0.49335	1.42535	0.00037
318.15	0.59563	1.42816	0.0004
318.15	0.69869	1.42999	0.00042
318.15	0.78909	1.43134	0.00045
318.15	0.84434	1.43191	0.00046
318.15	0.89149	1.43265	0.00047
318.15	0.95002	1.43313	0.00049
318.15	1	1.43358	0.00051
328.15	0	1.32784	0.00031
328.15	0.05002	1.36886	0.00031
328.15	0.09989	1.38813	0.00032
328.15	0.15004	1.39882	0.00032
328.15	0.19938	1.40541	0.00032
328.15	0.30226	1.41445	0.00034
328.15	0.39626	1.41894	0.00035
328.15	0.49335	1.42239	0.00037
328.15	0.59563	1.42524	0.0004
328.15	0.69869	1.4271	0.00042
328.15	0.78909	1.42846	0.00045
328.15	0.84434	1.42901	0.00046
328.15	0.89149	1.4298	0.00047
328.15	0.95002	1.43029	0.00049
328.15	1	1.43073	0.00051
338.15	0	1.32581	0.00031
338.15	0.05002	1.36608	0.00031
338.15	0.09989	1.38556	0.00032
338.15	0.15004	1.39592	0.00032
338.15	0.19938	1.40227	0.00032
338.15	0.30226	1.4115	0.00034
338.15	0.39626	1.41593	0.00035
338.15	0.49335	1.41941	0.00037
338.15	0.59563	1.42231	0.0004
338.15	0.69869	1.4242	0.00042
338.15	0.78909	1.42562	0.00045
338.15	0.84434	1.42616	0.00046
338.15	0.89149	1.42697	0.00047
338.15	0.95002	1.42744	0.00049
338.15	1	1.42788	0.00051

System: water + 1-butyl-3-methylimidazolium trifluoromethanesulfonate; phases: Liquid
Fixed: Pressure, kPa = 101
Property: Refractive index (Na D-line) (Liquid); method: Standard Abbe refractometry
Temperature, K	Mole fraction of 1-butyl-3-methylimidazolium trifluoromethanesulfonate	Refractive index (Na D-line)	uncertainty
288.15	0	1.33352	0.00031
288.15	0.04988	1.37738	0.00031
288.15	0.09969	1.39576	0.00032
288.15	0.15004	1.40745	0.00032
288.15	0.19975	1.41452	0.00032
288.15	0.3011	1.42293	0.00034
288.15	0.40511	1.42902	0.00036
288.15	0.49681	1.4322	0.00037
288.15	0.594	1.43473	0.0004
288.15	0.70373	1.4367	0.00042
288.15	0.80103	1.43813	0.00045
288.15	0.857	1.43884	0.00046
288.15	0.89528	1.43902	0.00048
288.15	0.94012	1.43949	0.00049
288.15	1	1.44011	0.00051
298.15	0	1.3325	0.00031
298.15	0.04988	1.37473	0.00031
298.15	0.09969	1.39312	0.00032
298.15	0.15004	1.40435	0.00032
298.15	0.19975	1.41154	0.00032
298.15	0.3011	1.42006	0.00034
298.15	0.40511	1.4261	0.00036
298.15	0.49681	1.4293	0.00037
298.15	0.594	1.43187	0.0004
298.15	0.70373	1.43385	0.00042
298.15	0.80103	1.4353	0.00045
298.15	0.857	1.43599	0.00046
298.15	0.89528	1.43618	0.00048
298.15	0.94012	1.43665	0.00049
298.15	1	1.43729	0.00051
308.15	0	1.33123	0.00031
308.15	0.04988	1.37195	0.00031
308.15	0.09969	1.39045	0.00032
308.15	0.15004	1.40153	0.00032
308.15	0.19975	1.40873	0.00032
308.15	0.3011	1.41705	0.00034
308.15	0.40511	1.42317	0.00036
308.15	0.49681	1.4264	0.00037
308.15	0.594	1.42904	0.0004
308.15	0.70373	1.43104	0.00042
308.15	0.80103	1.43243	0.00045
308.15	0.857	1.43319	0.00046
308.15	0.89528	1.43337	0.00048
308.15	0.94012	1.43383	0.00049
308.15	1	1.43448	0.00051
318.15	0	1.32966	0.00031
318.15	0.04988	1.36953	0.00031
318.15	0.09969	1.38765	0.00032
318.15	0.15004	1.39865	0.00032
318.15	0.19975	1.40574	0.00032
318.15	0.3011	1.41432	0.00034
318.15	0.40511	1.42028	0.00036
318.15	0.49681	1.42362	0.00037
318.15	0.594	1.4262	0.0004
318.15	0.70373	1.4282	0.00042
318.15	0.80103	1.42962	0.00045
318.15	0.857	1.43039	0.00046
318.15	0.89528	1.43055	0.00048
318.15	0.94012	1.43103	0.00049
318.15	1	1.43167	0.00051
328.15	0	1.32784	0.00031
328.15	0.04988	1.36693	0.00031
328.15	0.09969	1.38478	0.00032
328.15	0.15004	1.39571	0.00032
328.15	0.19975	1.40278	0.00032
328.15	0.3011	1.41142	0.00034
328.15	0.40511	1.41736	0.00036
328.15	0.49681	1.42074	0.00037
328.15	0.594	1.42334	0.0004
328.15	0.70373	1.42539	0.00042
328.15	0.80103	1.42683	0.00045
328.15	0.857	1.42758	0.00046
328.15	0.89528	1.42775	0.00048
328.15	0.94012	1.42823	0.00049
328.15	1	1.42889	0.00051
338.15	0	1.32581	0.00031
338.15	0.04988	1.36426	0.00031
338.15	0.09969	1.38184	0.00032
338.15	0.15004	1.39278	0.00032
338.15	0.19975	1.39978	0.00032
338.15	0.3011	1.40852	0.00034
338.15	0.40511	1.41441	0.00036
338.15	0.49681	1.41783	0.00037
338.15	0.594	1.42046	0.0004
338.15	0.70373	1.42257	0.00042
338.15	0.80103	1.42402	0.00045
338.15	0.857	1.4248	0.00046
338.15	0.89528	1.42496	0.00048
338.15	0.94012	1.42548	0.00049
338.15	1	1.42614	0.00051

System: water + 1-butyl-1-methylpyrrolidinium trifluoromethanesulfonate; phases: Liquid
Fixed: Pressure, kPa = 101
Property: Refractive index (Na D-line) (Liquid); method: Standard Abbe refractometry
Temperature, K	Mole fraction of 1-butyl-1-methylpyrrolidinium trifluoromethanesulfonate	Refractive index (Na D-line)	uncertainty
288.15	0	1.33352	0.00031
288.15	0.05008	1.37531	0.00031
288.15	0.09882	1.39427	0.00031
288.15	0.15104	1.40522	0.00031
288.15	0.19932	1.41191	0.00031
288.15	0.29969	1.41984	0.00032
288.15	0.39694	1.42477	0.00032
288.15	0.49924	1.42806	0.00033
288.15	0.58961	1.4302	0.00033
288.15	0.69426	1.4319	0.00034
288.15	0.79984	1.43342	0.00035
288.15	0.84561	1.43394	0.00035
288.15	0.89984	1.43446	0.00036
288.15	0.94047	1.43469	0.00036
288.15	1	1.43539	0.00037
298.15	0	1.3325	0.00031
298.15	0.05008	1.37325	0.00031
298.15	0.09882	1.3916	0.00031
298.15	0.15104	1.40248	0.00031
298.15	0.19932	1.40911	0.00031
298.15	0.29969	1.41694	0.00032
298.15	0.39694	1.42195	0.00032
298.15	0.49924	1.42528	0.00033
298.15	0.58961	1.42744	0.00033
298.15	0.69426	1.42912	0.00034
298.15	0.79984	1.4307	0.00035
298.15	0.84561	1.43117	0.00035
298.15	0.89984	1.43173	0.00036
298.15	0.94047	1.43196	0.00036
298.15	1	1.43267	0.00037
308.15	0	1.33123	0.00031
308.15	0.05008	1.3713	0.00031
308.15	0.09882	1.38977	0.00031
308.15	0.15104	1.40032	0.00031
308.15	0.19932	1.40659	0.00031
308.15	0.29969	1.41405	0.00032
308.15	0.39694	1.41913	0.00032
308.15	0.49924	1.42248	0.00033
308.15	0.58961	1.42465	0.00033
308.15	0.69426	1.42641	0.00034
308.15	0.79984	1.42795	0.00035
308.15	0.84561	1.4285	0.00035
308.15	0.89984	1.429	0.00036
308.15	0.94047	1.42926	0.00036
308.15	1	1.43001	0.00037
318.15	0	1.32966	0.00031
318.15	0.05008	1.36947	0.00031
318.15	0.09882	1.38733	0.00031
318.15	0.15104	1.39829	0.00031
318.15	0.19932	1.40414	0.00031
318.15	0.29969	1.41124	0.00032
318.15	0.39694	1.41627	0.00032
318.15	0.49924	1.41967	0.00033
318.15	0.58961	1.42185	0.00033
318.15	0.69426	1.42365	0.00034
318.15	0.79984	1.42518	0.00035
318.15	0.84561	1.42579	0.00035
318.15	0.89984	1.42624	0.00036
318.15	0.94047	1.42653	0.00036
318.15	1	1.42735	0.00037
328.15	0	1.32784	0.00031
328.15	0.05008	1.36697	0.00031
328.15	0.09882	1.38434	0.00031
328.15	0.15104	1.39574	0.00031
328.15	0.19932	1.4015	0.00031
328.15	0.29969	1.40899	0.00032
328.15	0.39694	1.41343	0.00032
328.15	0.49924	1.41693	0.00033
328.15	0.58961	1.41911	0.00033
328.15	0.69426	1.42083	0.00034
328.15	0.79984	1.42243	0.00035
328.15	0.84561	1.42305	0.00035
328.15	0.89984	1.42349	0.00036
328.15	0.94047	1.42383	0.00036
328.15	1	1.42468	0.00037
338.15	0	1.32581	0.00031
338.15	0.05008	1.36399	0.00031
338.15	0.09882	1.38181	0.00031
338.15	0.15104	1.39318	0.00031
338.15	0.19932	1.39896	0.00031
338.15	0.29969	1.40651	0.00032
338.15	0.39694	1.41077	0.00032
338.15	0.49924	1.41416	0.00033
338.15	0.58961	1.41636	0.00033
338.15	0.69426	1.41807	0.00034
338.15	0.79984	1.41972	0.00035
338.15	0.84561	1.42035	0.00035
338.15	0.89984	1.42079	0.00036
338.15	0.94047	1.42114	0.00036
338.15	1	1.42202	0.00037
