Measured thermophysical data. Solubility and Phase Separation of 2-(N-Morpholino)ethanesulfonic Acid (MES) and 4-(N-Morpholino)butanesulfonic Acid (MOBS) in Aqueous 1,4-Dioxane and Ethanol Solutions
Source: J. Chem. Eng. Data, 2011, 10.1021/je200244p
Compound 1: 4-morpholineethanesulfonic acid, C6H13NO4S, InChI=1S/C6H13NO4S/c8-12(9,10)6-3-7-1-4-11-5-2-7/h1-6H2,(H,8,9,10), purity 99%
Compound 2: 4-morpholinebutanesulfonic acid, C8H17NO4S, InChI=1S/C8H17NO4S/c10-14(11,12)8-2-1-3-9-4-6-13-7-5-9/h1-8H2,(H,10,11,12), purity 99%
Compound 3: 1,4-dioxane, C4H8O2, InChI=1S/C4H8O2/c1-2-6-4-3-5-1/h1-4H2, purity 99%
Compound 4: ethanol, C2H6O, InChI=1S/C2H6O/c1-2-3/h3H,2H2,1H3, purity 99.8%
Compound 5: water, H2O, InChI=1S/H2O/h1H2, purity 99.9%

System: 1,4-dioxane + 4-morpholineethanesulfonic acid + water; phases: Liquid, Crystal
Fixed: Temperature, K = 298.15
Fixed: Pressure, kPa = 101
Property: Molality, mol/kg of 4-morpholineethanesulfonic acid (Liquid); method: vibrating tube
Solvent: Mass fraction of 1,4-dioxane	Molality, mol/kg of 4-morpholineethanesulfonic acid	uncertainty
0	1.48	0.06
0.1	1.22	0.05
0.2	0.945	0.038
0.3	0.635	0.026
0.4	0.45	0.018
0.5	0.254	0.01
0.6	0.123	0.005
0.7	0.044	0.002
0.8	0.016	0.001

System: 1,4-dioxane + 4-morpholineethanesulfonic acid + water; phases: Liquid, Crystal
Fixed: Temperature, K = 298.15
Fixed: Pressure, kPa = 101
Property: Mass density, kg/m3 (Liquid); method: VIBTUB:UFactor:16
Solvent: Mass fraction of 1,4-dioxane	Mass density, kg/m3	uncertainty
0	1078.28	1.13
0.1	1071.28	1.08
0.2	1066.57	1.06
0.3	1058.45	1.01
0.4	1054.12	0.98
0.5	1048.23	0.95
0.6	1043.82	0.93
0.7	1039.87	0.91
0.8	1036.64	0.89

System: 1,4-dioxane + 4-morpholineethanesulfonic acid + water; phases: Liquid, Crystal
Fixed: Temperature, K = 298.15
Property: Mass density, kg/m3 (Liquid); method: VIBTUB:UFactor:16
Molality, mol/kg of 4-morpholineethanesulfonic acid	Solvent: Mass fraction of 1,4-dioxane	Mass density, kg/m3	uncertainty
0.0006	0.8	1035.6	0.89
0.0012	0.8	1035.67	0.89
0.0016	0.8	1035.72	0.89
0.0018	0.7	1037.09	0.9
0.0022	0.8	1035.75	0.89
0.004	0.8	1035.85	0.89
0.0052	0.7	1037.28	0.9
0.0054	0.7	1037.44	0.9
0.0065	0.7	1037.65	0.9
0.0066	0.8	1036.03	0.89
0.0087	0.6	1036.96	0.9
0.009	0.8	1036.2	0.89
0.0114	0.8	1036.35	0.9
0.0143	0.8	1036.55	0.9
0.0144	0.7	1037.86	0.9
0.0151	0.6	1037.44	0.9
0.0186	0.7	1038.08	0.92
0.022	0.7	1038.48	0.92
0.0286	0.7	1038.91	0.91
0.0328	0.6	1038.17	0.91
0.0361	0.5	1035.54	0.89
0.0363	0.6	1038.55	0.91
0.0366	0.7	1039.42	0.92
0.0404	0.7	1039.67	0.92
0.0456	0.3	1024.68	0.84
0.054	0.6	1039.44	0.91
0.0627	0.6	1040.48	0.92
0.0774	0.3	1027.22	0.85
0.0774	0.4	1033.18	0.88
0.0797	0.2	1018.92	0.81
0.0812	0.5	1038.25	0.91
0.0825	0.6	1041.4	0.92
0.0912	0	1002.97	0.73
0.0975	0.6	1042.35	0.93
0.1136	0.6	1043.24	0.93
0.1157	0.4	1035.79	0.89
0.1267	0.1	1013.33	0.78
0.1344	0	1005.73	0.74
0.1376	0.5	1041.57	0.92
0.1627	0.3	1031.8	0.87
0.1706	0.4	1039	0.91
0.1898	0.2	1025.65	0.84
0.191	0.5	1044.61	0.94
0.194	0	1009.49	0.76
0.2227	0.4	1041.77	0.92
0.2244	0.5	1046.58	0.95
0.225	0.3	1035.87	0.89
0.2514	0.4	1043.35	0.93
0.2633	0.1	1021.54	0.82
0.265	0.2	1030.14	0.87
0.314	0.4	1047.04	0.95
0.3151	0.3	1040.84	0.92
0.3209	0	1017.3	0.8
0.3821	0.4	1050.67	0.97
0.3884	0.2	1037.02	0.9
0.4275	0.4	1053.07	0.98
0.432	0.3	1047.27	0.95
0.5189	0.1	1036.25	0.9
0.5277	0.2	1045.18	0.94
0.5405	0.3	1053.04	0.98
0.5911	0	1033.14	0.88
0.6374	0.2	1050.9	0.97
0.7555	0.1	1048.86	0.96
0.7561	0.2	1057.09	1.01
0.8494	0	1047.33	0.95
0.8924	0.2	1063.84	1.05
1.0198	0.1	1062.17	1.04
1.0651	0	1058.51	1.01
1.1375	0.1	1068.92	1.08
1.2723	0	1068.78	1.08
1.4396	0	1076.65	1.13

System: ethanol + 4-morpholineethanesulfonic acid + water; phases: Liquid, Crystal
Fixed: Temperature, K = 298.15
Fixed: Pressure, kPa = 101
Property: Molality, mol/kg of 4-morpholineethanesulfonic acid (Liquid); method: vibrating tube
Solvent: Mass fraction of ethanol	Molality, mol/kg of 4-morpholineethanesulfonic acid	uncertainty
0	1.48	0.06
0.1	1.1	0.04
0.2	0.756	0.03
0.3	0.533	0.021
0.4	0.332	0.013
0.5	0.199	0.008
0.6	0.115	0.005
0.7	0.066	0.003
0.8	0.017	0.001

System: ethanol + 4-morpholineethanesulfonic acid + water; phases: Liquid, Crystal
Fixed: Temperature, K = 298.15
Fixed: Pressure, kPa = 101
Property: Mass density, kg/m3 (Liquid); method: Vibrating tube method
Solvent: Mass fraction of ethanol	Mass density, kg/m3	uncertainty
0	1078.28	0.49
0.1	1071.28	0.49
0.2	1066.57	0.49
0.3	1058.45	0.49
0.4	1054.12	0.48
0.5	1048.23	0.48
0.6	1043.82	0.48
0.7	1039.87	0.48
0.8	1036.64	0.48

System: ethanol + 4-morpholineethanesulfonic acid + water; phases: Liquid, Crystal
Fixed: Temperature, K = 298.15
Property: Mass density, kg/m3 (Liquid); method: VIBTUB:UFactor:16
Molality, mol/kg of 4-morpholineethanesulfonic acid	Solvent: Mass fraction of ethanol	Mass density, kg/m3	uncertainty
0.0042	0.8	839.81	1.58
0.0078	0.8	840.07	1.58
0.01	0.8	840.22	1.57
0.0119	0.8	840.38	1.57
0.014	0.8	840.53	1.57
0.0159	0.8	840.67	1.57
0.0184	0.7	864.98	1.42
0.0259	0.7	865.5	1.42
0.0309	0.5	912.75	1.13
0.0328	0.7	866.04	1.42
0.0336	0.3	953.37	0.91
0.0364	0.6	890.2	1.27
0.0368	0.4	934.31	1
0.0408	0.7	866.56	1.41
0.0412	0.5	913.15	1.13
0.0476	0.6	891.07	1.26
0.0508	0.7	867.27	1.41
0.0603	0.7	867.94	1.4
0.0615	0.2	970.33	0.82
0.0616	0.6	891.86	1.26
0.0807	0.6	893.2	1.25
0.0808	0.5	915.98	1.11
0.0844	0.3	956.43	0.89
0.0871	0.4	937.56	0.99
0.0933	0.6	893.93	1.24
0.1012	0.5	917.26	1.1
0.1043	0.6	894.58	1.24
0.1341	0.5	919.39	1.09
0.1371	0.2	975.24	0.8
0.1403	0.4	941.41	0.97
0.1606	0.5	920.89	1.08
0.1621	0.3	961.84	0.87
0.1622	0.1	990.47	0.73
0.1776	0.5	922.04	1.07
0.2005	0.4	944.71	0.95
0.226	0.3	965.33	0.85
0.2686	0.2	983.41	0.76
0.2738	0.1	997.31	0.7
0.2739	0.3	968.29	0.83
0.2791	0.4	949.62	0.92
0.3096	0.4	951.74	0.91
0.3346	0.3	972.1	0.82
0.3974	0.1	1004.21	0.71
0.404	0.2	991.62	0.73
0.4056	0.3	976.19	0.79
0.4895	0.3	980.87	0.77
0.5378	0.1	1013.15	0.75
0.5459	0.2	999.75	0.69
0.6441	0.1	1019.19	0.78
0.6751	0.2	1007.03	0.72
0.797	0.1	1027.44	0.81
0.912	0.1	1033.22	0.84
1.0243	0.1	1038.98	0.86

System: 1,4-dioxane + water + 4-morpholinebutanesulfonic acid; phases: Liquid, Crystal
Fixed: Temperature, K = 298.15
Fixed: Pressure, kPa = 101
Property: Molality, mol/kg of 4-morpholinebutanesulfonic acid (Liquid); method: vibrating tube
Solvent: Mass fraction of 1,4-dioxane	Molality, mol/kg of 4-morpholinebutanesulfonic acid	uncertainty
0	5.91	0.1
0.1	5.32	0.09
0.2	4.57	0.07
0.3	3.36	0.05
0.4	2.85	0.05

System: 1,4-dioxane + water + 4-morpholinebutanesulfonic acid; phases: Liquid, Crystal
Fixed: Temperature, K = 298.15
Fixed: Pressure, kPa = 101
Property: Mass density, kg/m3 (Liquid); method: VIBTUB:UFactor:16
Solvent: Mass fraction of 1,4-dioxane	Mass density, kg/m3	uncertainty
0	1187.58	1.83
0.1	1180.74	1.79
0.2	1170.11	1.72
0.3	1160.24	1.66
0.4	1139.8	1.53

System: 1,4-dioxane + water + 4-morpholinebutanesulfonic acid; phases: Liquid, Crystal
Fixed: Temperature, K = 298.15
Fixed: Pressure, kPa = 101
Property: Mass fraction of 4-morpholinebutanesulfonic acid (Liquid); method: Phase equilibration
Mass fraction of 1,4-dioxane	Mass fraction of 4-morpholinebutanesulfonic acid	uncertainty
0	0.5689	0.0031
0.0457	0.5429	0.0028
0.099	0.5048	0.0025
0.1653	0.449	0.0022

System: 1,4-dioxane + water + 4-morpholinebutanesulfonic acid; phases: Liquid mixture 1, Liquid mixture 2
Fixed: Pressure, kPa = 101
Fixed: Temperature, K = 298.15
Property: Mass fraction of 4-morpholinebutanesulfonic acid (Liquid mixture 1); method: Phase equilibration
Mass fraction of 1,4-dioxane	Mass fraction of 4-morpholinebutanesulfonic acid	uncertainty
0.2945	0.3236	0.0017
0.3689	0.2222	0.0014
0.4922	0.1291	0.0012
0.6621	0.0472	0.0011
0.7451	0.0251	0.001
0.8431	0.0054	0.001

System: 1,4-dioxane + water + 4-morpholinebutanesulfonic acid; phases: Liquid, Crystal
Fixed: Temperature, K = 298.15
Property: Mass density, kg/m3 (Liquid); method: VIBTUB:UFactor:16
Molality, mol/kg of 4-morpholinebutanesulfonic acid	Solvent: Mass fraction of 1,4-dioxane	Mass density, kg/m3	uncertainty
0.099	0.2	1019.82	0.82
0.1108	0	1003.91	0.73
0.1483	0.1	1014.4	0.79
0.173	0.3	1031.98	0.88
0.2163	0.2	1026.5	0.85
0.2292	0	1011.04	0.77
0.2845	0.1	1022.16	0.83
0.313	0.3	1039.7	0.92
0.3394	0.2	1033.25	0.88
0.5267	0	1027.63	0.85
0.5437	0.3	1052.13	0.98
0.7999	0	1041.72	0.92
0.88	0.2	1060.66	1.03
0.8908	0.1	1053.19	0.99
0.9163	0.3	1069.49	1.08
1.399	0.2	1082.14	1.16
1.5317	0.1	1080.69	1.16
1.6091	0.3	1097.1	1.26
1.7143	0	1081.33	1.16
1.9	0.2	1099.09	1.28
2.1053	0.3	1116.8	1.39
2.3105	0	1102.72	1.3
2.3839	0.1	1110.15	1.35
2.4127	0.2	1118.28	1.4
2.6509	0.3	1136.5	1.52
2.9078	0.3	1145.64	1.58
3.1109	0	1126.71	1.45
3.1253	0.2	1139.71	1.54
3.2028	0.3	1155.69	1.65
3.2724	0.1	1135.12	1.51
3.7289	0	1142.33	1.55
3.8416	0.2	1155.68	1.64
4.161	0.1	1155.22	1.64
4.3582	0.2	1165.34	1.71
4.4694	0	1158.7	1.66
4.6721	0.1	1167.17	1.72
5.0273	0	1169.82	1.73
5.509	0	1178.39	1.79
5.7375	0	1182.33	1.82

System: 1,4-dioxane + water + 4-morpholinebutanesulfonic acid; phases: Liquid mixture 2, Liquid mixture 1
Fixed: Temperature, K = 298.15
Fixed: Pressure, kPa = 101
Property: Mass fraction of 4-morpholinebutanesulfonic acid (Liquid mixture 2); method: Phase equilibration
Property: Mass fraction of 4-morpholinebutanesulfonic acid (Liquid mixture 1); method: Phase equilibration
Property: Mass fraction of 1,4-dioxane (Liquid mixture 1); method: Phase equilibration
Mass fraction of 1,4-dioxane	Mass fraction of 4-morpholinebutanesulfonic acid	uncertainty	Mass fraction of 4-morpholinebutanesulfonic acid	uncertainty	Mass fraction of 1,4-dioxane	uncertainty
0.7702	0.0105	0.0012	0.2707	0.0028	0.3218	
0.7753	0.0138	0.0012	0.2835	0.0028	0.3169	
0.7468	0.0229	0.0011	0.2205	0.0014	0.3718	

System: ethanol + water + 4-morpholinebutanesulfonic acid; phases: Liquid, Crystal
Fixed: Temperature, K = 298.15
Fixed: Pressure, kPa = 101
Property: Molality, mol/kg of 4-morpholinebutanesulfonic acid (Liquid); method: vibrating tube
Solvent: Mass fraction of ethanol	Molality, mol/kg of 4-morpholinebutanesulfonic acid	uncertainty
0	5.91	0.24
0.1	5.61	0.22
0.2	4.95	0.2
0.3	4.04	0.16
0.4	3.33	0.13
0.5	2.23	0.09
0.6	1.42	0.06
0.7	0.533	0.022
0.8	0.125	0.006
0.9	0.021	0.001

System: ethanol + water + 4-morpholinebutanesulfonic acid; phases: Liquid, Crystal
Fixed: Temperature, K = 298.15
Fixed: Pressure, kPa = 101
Property: Mass density, kg/m3 (Liquid); method: Vibrating tube method
Solvent: Mole fraction of ethanol	Mass density, kg/m3	uncertainty
0	1187.58	0.51
0.1	1170.08	0.54
0.2	1147.85	0.56
0.3	1119.03	0.6
0.4	1079.07	0.68
0.5	1025.08	0.72
0.6	969.68	0.78
0.7	900.08	0.76
0.8	848.75	0.63
0.9	815.36	0.57

System: ethanol + water + 4-morpholinebutanesulfonic acid; phases: Liquid, Crystal
Fixed: Temperature, K = 298.15
Property: Mass density, kg/m3 (Liquid); method: Vibrating tube method
Molality, mol/kg of 4-morpholinebutanesulfonic acid	Solvent: Mass fraction of ethanol	Mass density, kg/m3	uncertainty
0.0013	0.9	814.08	2.7
0.0022	0.9	814.15	2.7
0.0044	0.9	814.28	2.69
0.0083	0.9	814.54	2.7
0.0127	0.9	814.83	2.7
0.016	0.9	815.06	2.69
0.0192	0.9	815.26	2.7
0.0331	0.6	889.68	2.33
0.0359	0.7	866.95	2.39
0.0368	0.8	842.97	2.54
0.0574	0.8	844.21	2.56
0.0794	0.8	845.39	2.5
0.0917	0.5	916.49	2.32
0.0931	0.8	846.52	2.45
0.1038	0.6	894.54	2.34
0.1077	0.8	847.48	2.47
0.1096	0.7	871.81	2.41
0.1195	0.8	848.33	2.47
0.155	0.3	961.15	1.8
0.1619	0.1	990.59	1.43
0.167	0.7	875.63	2.4
0.18	0.5	922.36	2.23
0.1816	0.6	899.85	2.34
0.1842	0.2	978.43	1.52
0.2252	0.7	879.79	2.4
0.2391	0.4	947.22	2.03
0.2936	0.5	929.8	2.21
0.3209	0.7	886.12	2.33
0.3397	0.6	910.13	2.32
0.3472	0.2	988.44	1.5
0.4073	0.1	1005.05	1.36
0.4089	0.7	891.77	2.33
0.4329	0.3	978.11	1.94
0.4745	0.7	896.29	2.36
0.6251	0.6	927.86	2.28
0.6277	0.5	949.82	2.15
0.7488	0.4	976.85	1.85
0.848	0.2	1015.97	1.66
0.8807	0.5	962.7	2.12
0.8975	0.1	1031.52	1.22
0.9064	0.6	943.75	2.11
1.0484	0.6	951.36	2.15
1.1439	0.3	1016.07	1.96
1.1512	0.5	977.7	2.06
1.2106	0.6	959.87	2.15
1.2405	0.4	1001.57	1.98
1.2795	0.3	1022.39	1.79
1.3313	0.6	965.89	2.12
1.3517	0.2	1039.84	1.43
1.4578	0.5	992.91	1.98
1.4735	0.4	1012.38	1.92
1.7032	0.1	1067.2	0.99
1.737	0.5	1005.39	1.95
1.7674	0.4	1025.43	1.85
1.7859	0.2	1058.56	1.57
1.9402	0.5	1013.97	1.92
2.0175	0.3	1053.55	2.02
2.1715	0.5	1022.46	1.8
2.2129	0.4	1041.35	1.85
2.3827	0.3	1067.52	1.79
2.4424	0.2	1082.37	1.26
2.5284	0.4	1053.93	2.02
2.7349	0.1	1102.04	1.03
2.9014	0.4	1066.49	1.83
2.9138	0.3	1084.57	1.88
3.1626	0.2	1104.47	1.22
3.343	0.1	1119.61	1.1
3.3541	0.3	1099.98	1.29
3.8406	0.3	1110.5	1.31
3.9426	0.2	1124.89	1.23
4.1475	0.1	1142.05	1.18
4.5943	0.2	1140.29	1.33
4.9722	0.1	1161.5	1.28
5.2999	0.1	1166.32	1.65
