Measured thermophysical data. Volumetric Properties for the Binary Systems Hexane + Octane and Hexane + Decane at High Temperatures and Pressures
Source: J. Chem. Eng. Data, 2011, 10.1021/je200721d
Compound 1: hexane, C6H14, InChI=1S/C6H14/c1-3-5-6-4-2/h3-6H2,1-2H3, purity 99.5%
Compound 2: octane, C8H18, InChI=1S/C8H18/c1-3-5-7-8-6-4-2/h3-8H2,1-2H3, purity 99.5%
Compound 3: decane, C10H22, InChI=1S/C10H22/c1-3-5-7-9-10-8-6-4-2/h3-10H2,1-2H3, purity 99.7%

System: hexane + octane; phases: Liquid
Property: Mass density, kg/m3 (Liquid); method: Vibrating tube method
Temperature, K	Pressure, kPa	Mole fraction of hexane	Mass density, kg/m3	uncertainty
312.91	1000	0.2199	680.43	0.26
312.91	2000	0.2199	681.31	0.27
312.91	3000	0.2199	682.24	0.27
312.91	4000	0.2199	683.15	0.28
312.91	5000	0.2199	684.07	0.29
312.91	6000	0.2199	684.99	0.3
312.91	7000	0.2199	685.92	0.3
312.91	8000	0.2199	686.87	0.31
312.91	9000	0.2199	687.8	0.32
312.91	10000	0.2199	688.73	0.33
312.91	11000	0.2199	689.64	0.34
312.91	12000	0.2199	690.55	0.34
312.91	13000	0.2199	691.47	0.35
312.91	14000	0.2199	692.36	0.36
312.91	15000	0.2199	693.23	0.37
312.91	16000	0.2199	694.09	0.38
312.91	17000	0.2199	694.93	0.39
312.91	18000	0.2199	695.75	0.4
312.91	19000	0.2199	696.54	0.4
312.91	20000	0.2199	697.32	0.41
312.91	21000	0.2199	698.1	0.42
312.91	22000	0.2199	698.86	0.43
312.91	23000	0.2199	699.56	0.44
312.91	24000	0.2199	700.29	0.45
312.91	25000	0.2199	700.96	0.46
313.14	1000	0.1654	682.2	0.26
313.14	1000	0.5749	666.9	0.27
313.14	1000	0.7995	655.29	0.27
313.14	1000	0.9308	647.6	0.27
313.14	2000	0.1654	683.1	0.27
313.14	2000	0.5749	667.85	0.27
313.14	2000	0.7995	656.27	0.28
313.14	2000	0.9308	648.65	0.28
313.14	3000	0.1654	684.01	0.27
313.14	3000	0.5749	668.75	0.28
313.14	3000	0.7995	657.26	0.29
313.14	3000	0.9308	649.73	0.29
313.14	4000	0.1654	684.9	0.28
313.14	4000	0.5749	669.74	0.29
313.14	4000	0.7995	658.29	0.29
313.14	4000	0.9308	650.78	0.3
313.14	5000	0.1654	685.84	0.29
313.14	5000	0.5749	670.74	0.3
313.14	5000	0.7995	659.31	0.3
313.14	5000	0.9308	651.85	0.31
313.14	6000	0.1654	686.8	0.3
313.14	6000	0.5749	671.71	0.3
313.14	6000	0.7995	660.34	0.31
313.14	6000	0.9308	652.92	0.32
313.14	7000	0.1654	687.71	0.3
313.14	7000	0.5749	672.72	0.31
313.14	7000	0.7995	661.38	0.32
313.14	7000	0.9308	654	0.33
313.14	8000	0.1654	688.62	0.31
313.14	8000	0.5749	673.69	0.32
313.14	8000	0.7995	662.44	0.33
313.14	8000	0.9308	655.08	0.33
313.14	9000	0.1654	689.54	0.32
313.14	9000	0.5749	674.66	0.33
313.14	9000	0.7995	663.49	0.34
313.14	9000	0.9308	656.16	0.34
313.14	10000	0.1654	690.46	0.33
313.14	10000	0.5749	675.65	0.34
313.14	10000	0.7995	664.53	0.35
313.14	10000	0.9308	657.23	0.35
313.14	11000	0.1654	691.38	0.33
313.14	11000	0.5749	676.63	0.35
313.14	11000	0.7995	665.56	0.36
313.14	11000	0.9308	658.29	0.36
313.14	12000	0.1654	692.28	0.34
313.14	12000	0.5749	677.6	0.36
313.14	12000	0.7995	666.56	0.37
313.14	12000	0.9308	659.33	0.37
313.14	13000	0.1654	693.17	0.35
313.14	13000	0.5749	678.56	0.36
313.14	13000	0.7995	667.56	0.37
313.14	13000	0.9308	660.36	0.38
313.14	14000	0.1654	694.06	0.36
313.14	14000	0.5749	679.5	0.37
313.14	14000	0.7995	668.54	0.38
313.14	14000	0.9308	661.38	0.39
313.14	15000	0.1654	694.94	0.37
313.14	15000	0.5749	680.41	0.38
313.14	15000	0.7995	669.51	0.39
313.14	15000	0.9308	662.38	0.4
313.14	16000	0.1654	695.81	0.38
313.14	16000	0.5749	681.32	0.39
313.14	16000	0.7995	670.45	0.4
313.14	16000	0.9308	663.36	0.41
313.14	17000	0.1654	696.65	0.38
313.14	17000	0.5749	682.2	0.4
313.14	17000	0.7995	671.4	0.41
313.14	17000	0.9308	664.33	0.42
313.14	18000	0.1654	697.47	0.39
313.14	18000	0.5749	683.06	0.41
313.14	18000	0.7995	672.32	0.42
313.14	18000	0.9308	665.28	0.43
313.14	19000	0.1654	698.27	0.4
313.14	19000	0.5749	683.89	0.42
313.14	19000	0.7995	673.21	0.43
313.14	19000	0.9308	666.2	0.44
313.14	20000	0.1654	699.05	0.41
313.14	20000	0.5749	684.72	0.43
313.14	20000	0.7995	674.07	0.44
313.14	20000	0.9308	667.1	0.45
313.14	21000	0.1654	699.81	0.42
313.14	21000	0.5749	685.52	0.44
313.14	21000	0.7995	674.92	0.45
313.14	21000	0.9308	667.97	0.46
313.14	22000	0.1654	700.55	0.43
313.14	22000	0.5749	686.32	0.45
313.14	22000	0.7995	675.74	0.46
313.14	22000	0.9308	668.8	0.47
313.14	23000	0.1654	701.28	0.44
313.14	23000	0.5749	687.1	0.46
313.14	23000	0.7995	676.52	0.47
313.14	23000	0.9308	669.6	0.48
313.14	24000	0.1654	701.98	0.44
313.14	24000	0.5749	687.85	0.46
313.14	24000	0.7995	677.27	0.48
313.14	24000	0.9308	670.36	0.49
313.14	25000	0.1654	702.7	0.45
313.14	25000	0.5749	688.59	0.47
313.14	25000	0.7995	677.99	0.49
313.14	25000	0.9308	671.1	0.5
323.06	1000	0.5749	658.22	0.27
323.06	2000	0.5749	659.25	0.28
323.06	3000	0.5749	660.31	0.28
323.06	4000	0.5749	661.34	0.29
323.06	5000	0.5749	662.42	0.3
323.06	6000	0.5749	663.46	0.31
323.06	7000	0.5749	664.53	0.32
323.06	8000	0.5749	665.61	0.33
323.06	9000	0.5749	666.67	0.33
323.06	10000	0.5749	667.73	0.34
323.06	11000	0.5749	668.78	0.35
323.06	12000	0.5749	669.81	0.36
323.06	13000	0.5749	670.83	0.37
323.06	14000	0.5749	671.84	0.38
323.06	15000	0.5749	672.81	0.39
323.06	16000	0.5749	673.78	0.4
323.06	17000	0.5749	674.72	0.41
323.06	18000	0.5749	675.63	0.42
323.06	19000	0.5749	676.52	0.43
323.06	20000	0.5749	677.38	0.43
323.06	21000	0.5749	678.25	0.44
323.06	22000	0.5749	679.1	0.45
323.06	23000	0.5749	679.9	0.46
323.06	24000	0.5749	680.71	0.47
323.06	25000	0.5749	681.47	0.48
323.07	1000	0.2199	672.17	0.26
323.07	2000	0.2199	673.14	0.27
323.07	3000	0.2199	674.14	0.28
323.07	4000	0.2199	675.13	0.28
323.07	5000	0.2199	676.14	0.29
323.07	6000	0.2199	677.12	0.3
323.07	7000	0.2199	678.12	0.31
323.07	8000	0.2199	679.13	0.32
323.07	9000	0.2199	680.12	0.32
323.07	10000	0.2199	681.12	0.33
323.07	11000	0.2199	682.09	0.34
323.07	12000	0.2199	683.06	0.35
323.07	13000	0.2199	684.02	0.36
323.07	14000	0.2199	684.97	0.37
323.07	15000	0.2199	685.89	0.38
323.07	16000	0.2199	686.79	0.38
323.07	17000	0.2199	687.68	0.39
323.07	18000	0.2199	688.54	0.4
323.07	19000	0.2199	689.38	0.41
323.07	20000	0.2199	690.21	0.42
323.07	21000	0.2199	691.03	0.43
323.07	22000	0.2199	691.83	0.44
323.07	23000	0.2199	692.58	0.45
323.07	24000	0.2199	693.35	0.45
323.07	25000	0.2199	694.1	0.46
323.08	1000	0.1654	674.04	0.26
323.08	2000	0.1654	675.02	0.27
323.08	3000	0.1654	676	0.28
323.08	4000	0.1654	676.97	0.28
323.08	5000	0.1654	677.97	0.29
323.08	6000	0.1654	678.97	0.3
323.08	7000	0.1654	679.95	0.31
323.08	8000	0.1654	680.93	0.31
323.08	9000	0.1654	681.93	0.32
323.08	10000	0.1654	682.9	0.33
323.08	11000	0.1654	683.88	0.34
323.08	12000	0.1654	684.84	0.35
323.08	13000	0.1654	685.79	0.36
323.08	14000	0.1654	686.73	0.36
323.08	15000	0.1654	687.65	0.37
323.08	16000	0.1654	688.56	0.38
323.08	17000	0.1654	689.44	0.39
323.08	18000	0.1654	690.32	0.4
323.08	19000	0.1654	691.15	0.41
323.08	20000	0.1654	691.98	0.42
323.08	21000	0.1654	692.79	0.43
323.08	22000	0.1654	693.57	0.43
323.08	23000	0.1654	694.36	0.44
323.08	24000	0.1654	695.11	0.45
323.08	25000	0.1654	695.85	0.46
323.09	1000	0.9308	638.41	0.28
323.09	2000	0.9308	639.57	0.28
323.09	3000	0.9308	640.76	0.29
323.09	4000	0.9308	641.92	0.3
323.09	5000	0.9308	643.1	0.31
323.09	6000	0.9308	644.29	0.32
323.09	7000	0.9308	645.46	0.33
323.09	8000	0.9308	646.63	0.34
323.09	9000	0.9308	647.79	0.35
323.09	10000	0.9308	648.93	0.36
323.09	11000	0.9308	650.05	0.37
323.09	12000	0.9308	651.17	0.38
323.09	13000	0.9308	652.26	0.39
323.09	14000	0.9308	653.35	0.4
323.09	15000	0.9308	654.41	0.41
323.09	16000	0.9308	655.45	0.42
323.09	17000	0.9308	656.47	0.43
323.09	18000	0.9308	657.47	0.44
323.09	19000	0.9308	658.44	0.45
323.09	20000	0.9308	659.39	0.46
323.09	21000	0.9308	660.32	0.47
323.09	22000	0.9308	661.2	0.48
323.09	23000	0.9308	662.07	0.49
323.09	24000	0.9308	662.91	0.5
323.09	25000	0.9308	663.72	0.51
323.1	1000	0.7995	646.3	0.27
323.1	2000	0.7995	647.41	0.28
323.1	3000	0.7995	648.55	0.29
323.1	4000	0.7995	649.72	0.3
323.1	5000	0.7995	650.83	0.31
323.1	6000	0.7995	651.95	0.32
323.1	7000	0.7995	653.08	0.32
323.1	8000	0.7995	654.18	0.33
323.1	9000	0.7995	655.3	0.34
323.1	10000	0.7995	656.41	0.35
323.1	11000	0.7995	657.51	0.36
323.1	12000	0.7995	658.59	0.37
323.1	13000	0.7995	659.66	0.38
323.1	14000	0.7995	660.72	0.39
323.1	15000	0.7995	661.75	0.4
323.1	16000	0.7995	662.76	0.41
323.1	17000	0.7995	663.74	0.42
323.1	18000	0.7995	664.69	0.43
323.1	19000	0.7995	665.64	0.44
323.1	20000	0.7995	666.56	0.45
323.1	21000	0.7995	667.44	0.46
323.1	22000	0.7995	668.32	0.47
323.1	23000	0.7995	669.16	0.48
323.1	24000	0.7995	669.96	0.49
323.1	25000	0.7995	670.76	0.5
332.95	1000	0.5749	649.41	0.27
332.95	2000	0.5749	650.55	0.28
332.95	3000	0.5749	651.69	0.29
332.95	4000	0.5749	652.87	0.29
332.95	5000	0.5749	654.06	0.3
332.95	6000	0.5749	655.21	0.31
332.95	7000	0.5749	656.35	0.32
332.95	8000	0.5749	657.49	0.33
332.95	9000	0.5749	658.63	0.34
332.95	10000	0.5749	659.75	0.35
332.95	11000	0.5749	660.86	0.36
332.95	12000	0.5749	661.96	0.37
332.95	13000	0.5749	663.04	0.38
332.95	14000	0.5749	664.1	0.38
332.95	15000	0.5749	665.14	0.39
332.95	16000	0.5749	666.16	0.4
332.95	17000	0.5749	667.18	0.41
332.95	18000	0.5749	668.14	0.42
332.95	19000	0.5749	669.09	0.43
332.95	20000	0.5749	670.02	0.44
332.95	21000	0.5749	670.93	0.45
332.95	22000	0.5749	671.82	0.46
332.95	23000	0.5749	672.7	0.47
332.95	24000	0.5749	673.55	0.48
332.95	25000	0.5749	674.35	0.49
333.01	1000	0.9308	629.03	0.28
333.01	2000	0.9308	630.32	0.29
333.01	3000	0.9308	631.62	0.3
333.01	4000	0.9308	632.91	0.31
333.01	5000	0.9308	634.2	0.31
333.01	6000	0.9308	635.48	0.32
333.01	7000	0.9308	636.74	0.33
333.01	8000	0.9308	638.01	0.34
333.01	9000	0.9308	639.26	0.35
333.01	10000	0.9308	640.48	0.36
333.01	11000	0.9308	641.7	0.37
333.01	12000	0.9308	642.89	0.38
333.01	13000	0.9308	644.06	0.39
333.01	14000	0.9308	645.22	0.4
333.01	15000	0.9308	646.35	0.41
333.01	16000	0.9308	647.46	0.42
333.01	17000	0.9308	648.54	0.43
333.01	18000	0.9308	649.61	0.44
333.01	19000	0.9308	650.63	0.45
333.01	20000	0.9308	651.64	0.46
333.01	21000	0.9308	652.62	0.47
333.01	22000	0.9308	653.55	0.48
333.01	23000	0.9308	654.5	0.49
333.01	24000	0.9308	655.39	0.51
333.01	25000	0.9308	656.28	0.52
333.02	1000	0.1654	665.79	0.26
333.02	1000	0.7995	637.16	0.28
333.02	2000	0.1654	666.85	0.27
333.02	2000	0.7995	638.39	0.28
333.02	3000	0.1654	667.91	0.28
333.02	3000	0.7995	639.63	0.29
333.02	4000	0.1654	668.97	0.29
333.02	4000	0.7995	640.91	0.3
333.02	5000	0.1654	670.04	0.29
333.02	5000	0.7995	642.14	0.31
333.02	6000	0.1654	671.11	0.3
333.02	6000	0.7995	643.37	0.32
333.02	7000	0.1654	672.17	0.31
333.02	7000	0.7995	644.6	0.33
333.02	8000	0.1654	673.21	0.32
333.02	8000	0.7995	645.81	0.34
333.02	9000	0.1654	674.28	0.33
333.02	9000	0.7995	647.01	0.35
333.02	10000	0.1654	675.32	0.34
333.02	10000	0.7995	648.19	0.36
333.02	11000	0.1654	676.36	0.34
333.02	11000	0.7995	649.36	0.37
333.02	12000	0.1654	677.38	0.35
333.02	12000	0.7995	650.5	0.38
333.02	13000	0.1654	678.38	0.36
333.02	13000	0.7995	651.63	0.39
333.02	14000	0.1654	679.38	0.37
333.02	14000	0.7995	652.74	0.4
333.02	15000	0.1654	680.34	0.38
333.02	15000	0.7995	653.84	0.4
333.02	16000	0.1654	681.29	0.39
333.02	16000	0.7995	654.91	0.41
333.02	17000	0.1654	682.26	0.4
333.02	17000	0.7995	655.95	0.42
333.02	18000	0.1654	683.15	0.41
333.02	18000	0.7995	656.97	0.43
333.02	19000	0.1654	684.04	0.41
333.02	19000	0.7995	657.98	0.44
333.02	20000	0.1654	684.93	0.42
333.02	20000	0.7995	658.95	0.45
333.02	21000	0.1654	685.79	0.43
333.02	21000	0.7995	659.91	0.46
333.02	22000	0.1654	686.62	0.44
333.02	22000	0.7995	660.83	0.47
333.02	23000	0.1654	687.45	0.45
333.02	23000	0.7995	661.72	0.48
333.02	24000	0.1654	688.25	0.46
333.02	24000	0.7995	662.6	0.49
333.02	25000	0.1654	689.01	0.47
333.02	25000	0.7995	663.44	0.51
333.04	1000	0.2199	663.81	0.26
333.04	2000	0.2199	664.87	0.27
333.04	3000	0.2199	665.96	0.28
333.04	4000	0.2199	667.04	0.29
333.04	5000	0.2199	668.13	0.29
333.04	6000	0.2199	669.19	0.3
333.04	7000	0.2199	670.26	0.31
333.04	8000	0.2199	671.36	0.32
333.04	9000	0.2199	672.39	0.33
333.04	10000	0.2199	673.44	0.34
333.04	11000	0.2199	674.49	0.35
333.04	12000	0.2199	675.5	0.35
333.04	13000	0.2199	676.53	0.36
333.04	14000	0.2199	677.53	0.37
333.04	15000	0.2199	678.51	0.38
333.04	16000	0.2199	679.46	0.39
333.04	17000	0.2199	680.4	0.4
333.04	18000	0.2199	681.32	0.41
333.04	19000	0.2199	682.23	0.42
333.04	20000	0.2199	683.09	0.43
333.04	21000	0.2199	683.96	0.43
333.04	22000	0.2199	684.8	0.44
333.04	23000	0.2199	685.61	0.45
333.04	24000	0.2199	686.43	0.46
333.04	25000	0.2199	687.22	0.47
342.93	1000	0.5749	640.49	0.27
342.93	2000	0.5749	641.81	0.28
342.93	3000	0.5749	643.05	0.29
342.93	4000	0.5749	644.29	0.3
342.93	5000	0.5749	645.58	0.31
342.93	6000	0.5749	646.83	0.32
342.93	7000	0.5749	648.05	0.32
342.93	8000	0.5749	649.28	0.33
342.93	9000	0.5749	650.49	0.34
342.93	10000	0.5749	651.67	0.35
342.93	11000	0.5749	652.87	0.36
342.93	12000	0.5749	654.03	0.37
342.93	13000	0.5749	655.19	0.38
342.93	14000	0.5749	656.31	0.39
342.93	15000	0.5749	657.42	0.4
342.93	16000	0.5749	658.5	0.41
342.93	17000	0.5749	659.57	0.42
342.93	18000	0.5749	660.6	0.43
342.93	19000	0.5749	661.62	0.44
342.93	20000	0.5749	662.6	0.45
342.93	21000	0.5749	663.59	0.46
342.93	22000	0.5749	664.52	0.47
342.93	23000	0.5749	665.48	0.48
342.93	24000	0.5749	666.39	0.49
342.93	25000	0.5749	667.28	0.5
342.94	1000	0.2199	655.33	0.27
342.94	2000	0.2199	656.52	0.27
342.94	3000	0.2199	657.67	0.28
342.94	4000	0.2199	658.87	0.29
342.94	5000	0.2199	660.02	0.3
342.94	6000	0.2199	661.18	0.31
342.94	7000	0.2199	662.34	0.31
342.94	8000	0.2199	663.49	0.32
342.94	9000	0.2199	664.6	0.33
342.94	10000	0.2199	665.73	0.34
342.94	11000	0.2199	666.84	0.35
342.94	12000	0.2199	667.93	0.36
342.94	13000	0.2199	669.01	0.37
342.94	14000	0.2199	670.06	0.38
342.94	15000	0.2199	671.09	0.39
342.94	16000	0.2199	672.1	0.4
342.94	17000	0.2199	673.1	0.4
342.94	18000	0.2199	674.07	0.41
342.94	19000	0.2199	675.02	0.42
342.94	20000	0.2199	675.95	0.43
342.94	21000	0.2199	676.87	0.44
342.94	22000	0.2199	677.76	0.45
342.94	23000	0.2199	678.64	0.46
342.94	24000	0.2199	679.49	0.47
342.94	25000	0.2199	680.34	0.48
342.98	1000	0.9308	619.48	0.28
342.98	2000	0.9308	620.92	0.29
342.98	3000	0.9308	622.34	0.3
342.98	4000	0.9308	623.76	0.31
342.98	5000	0.9308	625.17	0.32
342.98	6000	0.9308	626.56	0.33
342.98	7000	0.9308	627.93	0.34
342.98	8000	0.9308	629.29	0.35
342.98	9000	0.9308	630.63	0.36
342.98	10000	0.9308	631.94	0.37
342.98	11000	0.9308	633.24	0.38
342.98	12000	0.9308	634.53	0.39
342.98	13000	0.9308	635.77	0.4
342.98	14000	0.9308	637.01	0.41
342.98	15000	0.9308	638.23	0.42
342.98	16000	0.9308	639.42	0.43
342.98	17000	0.9308	640.57	0.44
342.98	18000	0.9308	641.7	0.45
342.98	19000	0.9308	642.81	0.46
342.98	20000	0.9308	643.91	0.47
342.98	21000	0.9308	644.95	0.48
342.98	22000	0.9308	645.97	0.49
342.98	23000	0.9308	646.98	0.5
342.98	24000	0.9308	647.95	0.52
342.98	25000	0.9308	648.91	0.53
342.99	1000	0.1654	657.36	0.27
342.99	2000	0.1654	658.52	0.27
342.99	3000	0.1654	659.68	0.28
342.99	4000	0.1654	660.84	0.29
342.99	5000	0.1654	662.01	0.3
342.99	6000	0.1654	663.15	0.3
342.99	7000	0.1654	664.27	0.31
342.99	8000	0.1654	665.4	0.32
342.99	9000	0.1654	666.53	0.33
342.99	10000	0.1654	667.62	0.34
342.99	11000	0.1654	668.73	0.35
342.99	12000	0.1654	669.8	0.36
342.99	13000	0.1654	670.86	0.37
342.99	14000	0.1654	671.91	0.38
342.99	15000	0.1654	672.94	0.38
342.99	16000	0.1654	673.96	0.39
342.99	17000	0.1654	674.95	0.4
342.99	18000	0.1654	675.92	0.41
342.99	19000	0.1654	676.86	0.42
342.99	20000	0.1654	677.79	0.43
342.99	21000	0.1654	678.7	0.44
342.99	22000	0.1654	679.59	0.45
342.99	23000	0.1654	680.47	0.46
342.99	24000	0.1654	681.32	0.47
342.99	25000	0.1654	682.14	0.48
343	1000	0.7995	627.89	0.28
343	2000	0.7995	629.27	0.29
343	3000	0.7995	630.64	0.3
343	4000	0.7995	632.01	0.3
343	5000	0.7995	633.35	0.31
343	6000	0.7995	634.69	0.32
343	7000	0.7995	636.02	0.33
343	8000	0.7995	637.32	0.34
343	9000	0.7995	638.61	0.35
343	10000	0.7995	639.87	0.36
343	11000	0.7995	641.1	0.37
343	12000	0.7995	642.32	0.38
343	13000	0.7995	643.52	0.39
343	14000	0.7995	644.7	0.4
343	15000	0.7995	645.87	0.41
343	16000	0.7995	647.01	0.42
343	17000	0.7995	648.12	0.43
343	18000	0.7995	649.21	0.44
343	19000	0.7995	650.28	0.45
343	20000	0.7995	651.33	0.46
343	21000	0.7995	652.33	0.47
343	22000	0.7995	653.33	0.48
343	23000	0.7995	654.3	0.49
343	24000	0.7995	655.24	0.5
343	25000	0.7995	656.16	0.52
352.79	1000	0.5749	631.4	0.28
352.79	2000	0.5749	632.83	0.28
352.79	3000	0.5749	634.2	0.29
352.79	4000	0.5749	635.57	0.3
352.79	5000	0.5749	636.95	0.31
352.79	6000	0.5749	638.3	0.32
352.79	7000	0.5749	639.63	0.33
352.79	8000	0.5749	640.97	0.34
352.79	9000	0.5749	642.26	0.35
352.79	10000	0.5749	643.53	0.36
352.79	11000	0.5749	644.82	0.37
352.79	12000	0.5749	646.04	0.38
352.79	13000	0.5749	647.27	0.39
352.79	14000	0.5749	648.46	0.4
352.79	15000	0.5749	649.66	0.41
352.79	16000	0.5749	650.79	0.42
352.79	17000	0.5749	651.95	0.43
352.79	18000	0.5749	653.02	0.44
352.79	19000	0.5749	654.11	0.45
352.79	20000	0.5749	655.18	0.45
352.79	21000	0.5749	656.24	0.46
352.79	22000	0.5749	657.22	0.47
352.79	23000	0.5749	658.23	0.48
352.79	24000	0.5749	659.22	0.5
352.79	25000	0.5749	660.15	0.51
352.85	1000	0.2199	646.75	0.27
352.85	2000	0.2199	648.04	0.28
352.85	3000	0.2199	649.32	0.28
352.85	4000	0.2199	650.6	0.29
352.85	5000	0.2199	651.87	0.3
352.85	6000	0.2199	653.11	0.31
352.85	7000	0.2199	654.35	0.32
352.85	8000	0.2199	655.57	0.33
352.85	9000	0.2199	656.79	0.34
352.85	10000	0.2199	657.97	0.35
352.85	11000	0.2199	659.16	0.35
352.85	12000	0.2199	660.32	0.36
352.85	13000	0.2199	661.45	0.37
352.85	14000	0.2199	662.57	0.38
352.85	15000	0.2199	663.67	0.39
352.85	16000	0.2199	664.74	0.4
352.85	17000	0.2199	665.8	0.41
352.85	18000	0.2199	666.83	0.42
352.85	19000	0.2199	667.85	0.43
352.85	20000	0.2199	668.84	0.44
352.85	21000	0.2199	669.8	0.45
352.85	22000	0.2199	670.75	0.46
352.85	23000	0.2199	671.68	0.47
352.85	24000	0.2199	672.59	0.48
352.85	25000	0.2199	673.48	0.49
352.91	1000	0.1654	648.87	0.27
352.91	1000	0.9308	609.77	0.28
352.91	2000	0.1654	650.15	0.28
352.91	2000	0.9308	611.36	0.29
352.91	3000	0.1654	651.43	0.28
352.91	3000	0.9308	612.95	0.3
352.91	4000	0.1654	652.68	0.29
352.91	4000	0.9308	614.51	0.31
352.91	5000	0.1654	653.95	0.3
352.91	5000	0.9308	616.06	0.32
352.91	6000	0.1654	655.19	0.31
352.91	6000	0.9308	617.57	0.33
352.91	7000	0.1654	656.4	0.32
352.91	7000	0.9308	619.06	0.34
352.91	8000	0.1654	657.6	0.33
352.91	8000	0.9308	620.53	0.35
352.91	9000	0.1654	658.8	0.33
352.91	9000	0.9308	621.96	0.36
352.91	10000	0.1654	659.99	0.34
352.91	10000	0.9308	623.39	0.37
352.91	11000	0.1654	661.15	0.35
352.91	11000	0.9308	624.78	0.38
352.91	12000	0.1654	662.28	0.36
352.91	12000	0.9308	626.15	0.39
352.91	13000	0.1654	663.41	0.37
352.91	13000	0.9308	627.49	0.4
352.91	14000	0.1654	664.53	0.38
352.91	14000	0.9308	628.8	0.41
352.91	15000	0.1654	665.63	0.39
352.91	15000	0.9308	630.08	0.42
352.91	16000	0.1654	666.68	0.4
352.91	16000	0.9308	631.35	0.43
352.91	17000	0.1654	667.73	0.41
352.91	17000	0.9308	632.57	0.45
352.91	18000	0.1654	668.76	0.42
352.91	18000	0.9308	633.78	0.46
352.91	19000	0.1654	669.76	0.43
352.91	19000	0.9308	634.96	0.47
352.91	20000	0.1654	670.78	0.44
352.91	20000	0.9308	636.11	0.48
352.91	21000	0.1654	671.71	0.45
352.91	21000	0.9308	637.22	0.49
352.91	22000	0.1654	672.65	0.46
352.91	22000	0.9308	638.32	0.5
352.91	23000	0.1654	673.59	0.46
352.91	23000	0.9308	639.39	0.51
352.91	24000	0.1654	674.5	0.47
352.91	24000	0.9308	640.43	0.52
352.91	25000	0.1654	675.39	0.48
352.91	25000	0.9308	641.44	0.54
352.92	1000	0.7995	618.46	0.28
352.92	2000	0.7995	619.98	0.29
352.92	3000	0.7995	621.51	0.3
352.92	4000	0.7995	623	0.31
352.92	5000	0.7995	624.48	0.32
352.92	6000	0.7995	625.93	0.33
352.92	7000	0.7995	627.37	0.34
352.92	8000	0.7995	628.79	0.35
352.92	9000	0.7995	630.18	0.36
352.92	10000	0.7995	631.54	0.37
352.92	11000	0.7995	632.86	0.38
352.92	12000	0.7995	634.17	0.39
352.92	13000	0.7995	635.46	0.4
352.92	14000	0.7995	636.72	0.41
352.92	15000	0.7995	637.96	0.42
352.92	16000	0.7995	639.16	0.43
352.92	17000	0.7995	640.35	0.44
352.92	18000	0.7995	641.51	0.45
352.92	19000	0.7995	642.64	0.46
352.92	20000	0.7995	643.75	0.47
352.92	21000	0.7995	644.82	0.48
352.92	22000	0.7995	645.88	0.49
352.92	23000	0.7995	646.92	0.5
352.92	24000	0.7995	647.94	0.51
352.92	25000	0.7995	648.91	0.53
362.76	1000	0.5749	622.07	0.28
362.76	2000	0.5749	623.63	0.29
362.76	3000	0.5749	625.2	0.3
362.76	4000	0.5749	626.68	0.3
362.76	5000	0.5749	628.17	0.31
362.76	6000	0.5749	629.67	0.32
362.76	7000	0.5749	631.09	0.33
362.76	8000	0.5749	632.53	0.34
362.76	9000	0.5749	633.92	0.35
362.76	10000	0.5749	635.27	0.36
362.76	11000	0.5749	636.64	0.37
362.76	12000	0.5749	637.96	0.38
362.76	13000	0.5749	639.28	0.39
362.76	14000	0.5749	640.55	0.4
362.76	15000	0.5749	641.82	0.41
362.76	16000	0.5749	643.03	0.42
362.76	17000	0.5749	644.23	0.43
362.76	18000	0.5749	645.42	0.44
362.76	19000	0.5749	646.56	0.45
362.76	20000	0.5749	647.68	0.46
362.76	21000	0.5749	648.78	0.47
362.76	22000	0.5749	649.86	0.48
362.76	23000	0.5749	650.91	0.49
362.76	24000	0.5749	651.95	0.51
362.76	25000	0.5749	652.96	0.52
362.88	1000	0.1654	640.2	0.27
362.88	1000	0.2199	637.97	0.27
362.88	2000	0.1654	641.61	0.28
362.88	2000	0.2199	639.42	0.28
362.88	3000	0.1654	642.98	0.29
362.88	3000	0.2199	640.79	0.29
362.88	4000	0.1654	644.35	0.29
362.88	4000	0.2199	642.17	0.3
362.88	5000	0.1654	645.69	0.3
362.88	5000	0.2199	643.54	0.3
362.88	6000	0.1654	647.04	0.31
362.88	6000	0.2199	644.88	0.31
362.88	7000	0.1654	648.35	0.32
362.88	7000	0.2199	646.21	0.32
362.88	8000	0.1654	649.64	0.33
362.88	8000	0.2199	647.53	0.33
362.88	9000	0.1654	650.92	0.34
362.88	9000	0.2199	648.82	0.34
362.88	10000	0.1654	652.16	0.35
362.88	10000	0.2199	650.09	0.35
362.88	11000	0.1654	653.43	0.36
362.88	11000	0.2199	651.35	0.36
362.88	12000	0.1654	654.65	0.37
362.88	12000	0.2199	652.59	0.37
362.88	13000	0.1654	655.84	0.38
362.88	13000	0.2199	653.81	0.38
362.88	14000	0.1654	657.01	0.39
362.88	14000	0.2199	654.99	0.39
362.88	15000	0.1654	658.17	0.4
362.88	15000	0.2199	656.16	0.4
362.88	16000	0.1654	659.3	0.4
362.88	16000	0.2199	657.29	0.41
362.88	17000	0.1654	660.41	0.41
362.88	17000	0.2199	658.42	0.42
362.88	18000	0.1654	661.5	0.42
362.88	18000	0.2199	659.52	0.43
362.88	19000	0.1654	662.58	0.43
362.88	19000	0.2199	660.6	0.44
362.88	20000	0.1654	663.6	0.44
362.88	20000	0.2199	661.65	0.45
362.88	21000	0.1654	664.63	0.45
362.88	21000	0.2199	662.67	0.46
362.88	22000	0.1654	665.63	0.46
362.88	22000	0.2199	663.67	0.46
362.88	23000	0.1654	666.61	0.47
362.88	23000	0.2199	664.66	0.47
362.88	24000	0.1654	667.57	0.48
362.88	24000	0.2199	665.61	0.48
362.88	25000	0.1654	668.52	0.49
362.88	25000	0.2199	666.56	0.49
362.89	1000	0.9308	599.76	0.29
362.89	2000	0.9308	601.55	0.3
362.89	3000	0.9308	603.31	0.31
362.89	4000	0.9308	605.04	0.32
362.89	5000	0.9308	606.72	0.33
362.89	6000	0.9308	608.38	0.34
362.89	7000	0.9308	610.01	0.35
362.89	8000	0.9308	611.58	0.36
362.89	9000	0.9308	613.16	0.37
362.89	10000	0.9308	614.68	0.38
362.89	11000	0.9308	616.17	0.39
362.89	12000	0.9308	617.64	0.4
362.89	13000	0.9308	619.07	0.41
362.89	14000	0.9308	620.48	0.42
362.89	15000	0.9308	621.85	0.43
362.89	16000	0.9308	623.2	0.44
362.89	17000	0.9308	624.51	0.45
362.89	18000	0.9308	625.8	0.46
362.89	19000	0.9308	627.06	0.47
362.89	20000	0.9308	628.28	0.48
362.89	21000	0.9308	629.48	0.5
362.89	22000	0.9308	630.64	0.51
362.89	23000	0.9308	631.79	0.52
362.89	24000	0.9308	632.9	0.53
362.89	25000	0.9308	634.01	0.55
362.9	1000	0.7995	608.76	0.28
362.9	2000	0.7995	610.47	0.29
362.9	3000	0.7995	612.13	0.3
362.9	4000	0.7995	613.77	0.31
362.9	5000	0.7995	615.41	0.32
362.9	6000	0.7995	616.94	0.33
362.9	7000	0.7995	618.5	0.34
362.9	8000	0.7995	620.01	0.35
362.9	9000	0.7995	621.5	0.36
362.9	10000	0.7995	622.96	0.37
362.9	11000	0.7995	624.39	0.38
362.9	12000	0.7995	625.81	0.39
362.9	13000	0.7995	627.18	0.4
362.9	14000	0.7995	628.53	0.41
362.9	15000	0.7995	629.85	0.42
362.9	16000	0.7995	631.14	0.43
362.9	17000	0.7995	632.42	0.44
362.9	18000	0.7995	633.67	0.45
362.9	19000	0.7995	634.88	0.46
362.9	20000	0.7995	636.08	0.48
362.9	21000	0.7995	637.22	0.49
362.9	22000	0.7995	638.34	0.5
362.9	23000	0.7995	639.44	0.51
362.9	24000	0.7995	640.51	0.52
362.9	25000	0.7995	641.57	0.54

System: hexane + decane; phases: Liquid
Property: Mass density, kg/m3 (Liquid); method: Vibrating tube method
Temperature, K	Pressure, kPa	Mole fraction of hexane	Mass density, kg/m3	uncertainty
313.08	1000	0.8991	654.3	0.27
313.08	2000	0.8991	655.28	0.28
313.08	3000	0.8991	656.28	0.29
313.08	4000	0.8991	657.3	0.3
313.08	5000	0.8991	658.33	0.31
313.08	6000	0.8991	659.37	0.31
313.08	7000	0.8991	660.42	0.32
313.08	8000	0.8991	661.47	0.33
313.08	9000	0.8991	662.52	0.34
313.08	10000	0.8991	663.56	0.35
313.08	11000	0.8991	664.61	0.36
313.08	12000	0.8991	665.63	0.37
313.08	13000	0.8991	666.66	0.38
313.08	14000	0.8991	667.66	0.39
313.08	15000	0.8991	668.63	0.4
313.08	16000	0.8991	669.61	0.41
313.08	17000	0.8991	670.54	0.41
313.08	18000	0.8991	671.45	0.42
313.08	19000	0.8991	672.34	0.43
313.08	20000	0.8991	673.21	0.44
313.08	21000	0.8991	674.04	0.45
313.08	22000	0.8991	674.91	0.46
313.08	23000	0.8991	675.69	0.47
313.08	24000	0.8991	676.48	0.48
313.08	25000	0.8991	677.31	0.49
313.17	1000	0.2185	704.92	0.26
313.17	2000	0.2185	705.74	0.26
313.17	3000	0.2185	706.66	0.27
313.17	4000	0.2185	707.53	0.27
313.17	5000	0.2185	708.39	0.28
313.17	6000	0.2185	709.25	0.29
313.17	7000	0.2185	710.11	0.29
313.17	8000	0.2185	710.96	0.3
313.17	9000	0.2185	711.8	0.31
313.17	10000	0.2185	712.63	0.32
313.17	10990	0.2185	713.46	0.32
313.17	12000	0.2185	714.27	0.33
313.17	13000	0.2185	715.05	0.34
313.17	14000	0.2185	715.84	0.35
313.17	15000	0.2185	716.63	0.35
313.17	16000	0.2185	717.4	0.36
313.17	17000	0.2185	718.15	0.37
313.17	18000	0.2185	718.88	0.38
313.17	19000	0.2185	719.62	0.38
313.17	20000	0.2185	720.34	0.39
313.17	21000	0.2185	721.06	0.4
313.17	22000	0.2185	721.76	0.41
313.17	23000	0.2185	722.46	0.42
313.17	24000	0.2185	723.13	0.42
313.17	25000	0.2185	723.78	0.43
313.18	1000	0.0456	713.33	0.25
313.18	1000	0.7524	668.32	0.27
313.18	2000	0.0456	714.22	0.26
313.18	2000	0.7524	669.4	0.27
313.18	3000	0.0456	715.11	0.26
313.18	3000	0.7524	670.46	0.28
313.18	4000	0.0456	715.98	0.27
313.18	4000	0.7524	671.5	0.29
313.18	5000	0.0456	716.84	0.28
313.18	5000	0.7524	672.55	0.3
313.18	6000	0.0456	717.69	0.28
313.18	6000	0.7524	673.61	0.31
313.18	7000	0.0456	718.53	0.29
313.18	7000	0.7524	674.58	0.31
313.18	8000	0.0456	719.34	0.3
313.18	8000	0.7524	675.56	0.32
313.18	9000	0.0456	720.15	0.3
313.18	9000	0.7524	676.55	0.33
313.18	10000	0.0456	720.95	0.31
313.18	10000	0.7524	677.5	0.34
313.18	10990	0.0456	721.74	0.32
313.18	10990	0.7524	678.44	0.35
313.18	12000	0.0456	722.51	0.32
313.18	12000	0.7524	679.36	0.36
313.18	13000	0.0456	723.28	0.33
313.18	13000	0.7524	680.27	0.37
313.18	14000	0.0456	724.03	0.34
313.18	14000	0.7524	681.18	0.38
313.18	15000	0.0456	724.78	0.35
313.18	15000	0.7524	682.08	0.38
313.18	16000	0.0456	725.51	0.35
313.18	16000	0.7524	682.96	0.39
313.18	17000	0.0456	726.24	0.36
313.18	17000	0.7524	683.82	0.4
313.18	18000	0.0456	726.96	0.37
313.18	18000	0.7524	684.65	0.41
313.18	19000	0.0456	727.67	0.38
313.18	19000	0.7524	685.47	0.42
313.18	20000	0.0456	728.36	0.38
313.18	20000	0.7524	686.29	0.43
313.18	21000	0.0456	729.05	0.39
313.18	21000	0.7524	687.07	0.44
313.18	22000	0.0456	729.74	0.4
313.18	22000	0.7524	687.87	0.45
313.18	23000	0.0456	730.42	0.41
313.18	23000	0.7524	688.65	0.46
313.18	24000	0.0456	731.08	0.41
313.18	24000	0.7524	689.4	0.47
313.18	25000	0.0456	731.73	0.42
313.18	25000	0.7524	690.14	0.47
313.21	1000	0.4968	688.23	0.26
313.21	2000	0.4968	689.24	0.27
313.21	3000	0.4968	690.26	0.27
313.21	4000	0.4968	691.19	0.28
313.21	5000	0.4968	692.15	0.29
313.21	6000	0.4968	693.12	0.3
313.21	7000	0.4968	694.03	0.3
313.21	8000	0.4968	694.95	0.31
313.21	9000	0.4968	695.84	0.32
313.21	10000	0.4968	696.74	0.33
313.21	10990	0.4968	697.6	0.33
313.21	12000	0.4968	698.47	0.34
313.21	13000	0.4968	699.32	0.35
313.21	14000	0.4968	700.16	0.36
313.21	15000	0.4968	700.95	0.37
313.21	16000	0.4968	701.76	0.38
313.21	17000	0.4968	702.55	0.38
313.21	18000	0.4968	703.34	0.39
313.21	19000	0.4968	704.08	0.4
313.21	20000	0.4968	704.83	0.41
313.21	21000	0.4968	705.58	0.42
313.21	22000	0.4968	706.34	0.43
313.21	23000	0.4968	707.05	0.43
313.21	24000	0.4968	707.76	0.44
313.21	25000	0.4968	708.45	0.45
322.99	1000	0.8991	645.29	0.27
322.99	2000	0.8991	646.4	0.28
322.99	3000	0.8991	647.52	0.29
322.99	4000	0.8991	648.64	0.3
322.99	5000	0.8991	649.64	0.31
322.99	6000	0.8991	650.89	0.32
322.99	7000	0.8991	652.02	0.33
322.99	8000	0.8991	653.14	0.34
322.99	9000	0.8991	654.27	0.34
322.99	10000	0.8991	655.38	0.35
322.99	11000	0.8991	656.46	0.36
322.99	12000	0.8991	657.57	0.37
322.99	13000	0.8991	658.64	0.38
322.99	14000	0.8991	659.7	0.39
322.99	15000	0.8991	660.74	0.4
322.99	16000	0.8991	661.75	0.41
322.99	17000	0.8991	662.76	0.42
322.99	18000	0.8991	663.71	0.43
322.99	19000	0.8991	664.67	0.44
322.99	20000	0.8991	665.59	0.45
322.99	21000	0.8991	666.49	0.46
322.99	22000	0.8991	667.35	0.47
322.99	23000	0.8991	668.19	0.48
322.99	24000	0.8991	669.02	0.49
322.99	25000	0.8991	669.89	0.5
323.14	1000	0.0456	705.56	0.25
323.14	1000	0.2185	697.1	0.26
323.14	1000	0.4968	679.98	0.26
323.14	2000	0.0456	706.52	0.26
323.14	2000	0.2185	698.02	0.26
323.14	2000	0.4968	681.03	0.27
323.14	3000	0.0456	707.47	0.27
323.14	3000	0.2185	698.97	0.27
323.14	3000	0.4968	682.14	0.28
323.14	4000	0.0456	708.4	0.27
323.14	4000	0.2185	699.88	0.28
323.14	4000	0.4968	683.21	0.28
323.14	5000	0.0456	709.32	0.28
323.14	5000	0.2185	700.82	0.28
323.14	5000	0.4968	684.24	0.29
323.14	6000	0.0456	710.22	0.29
323.14	6000	0.2185	701.75	0.29
323.14	6000	0.4968	685.27	0.3
323.14	7000	0.0456	711.11	0.29
323.14	7000	0.2185	702.67	0.3
323.14	7000	0.4968	686.28	0.31
323.14	8000	0.0456	711.99	0.3
323.14	8000	0.2185	703.58	0.3
323.14	8000	0.4968	687.29	0.31
323.14	9000	0.0456	712.86	0.31
323.14	9000	0.2185	704.45	0.31
323.14	9000	0.4968	688.27	0.32
323.14	10000	0.0456	713.72	0.31
323.14	10000	0.2185	705.32	0.32
323.14	10000	0.4968	689.22	0.33
323.14	10990	0.0456	714.56	0.32
323.14	10990	0.2185	706.19	0.33
323.14	10990	0.4968	690.14	0.34
323.14	12000	0.0456	715.39	0.33
323.14	12000	0.2185	707.05	0.33
323.14	12000	0.4968	691.07	0.35
323.14	13000	0.0456	716.21	0.34
323.14	13000	0.2185	707.88	0.34
323.14	13000	0.4968	691.97	0.36
323.14	14000	0.0456	717.02	0.34
323.14	14000	0.2185	708.71	0.35
323.14	14000	0.4968	692.85	0.36
323.14	15000	0.0456	717.82	0.35
323.14	15000	0.2185	709.54	0.36
323.14	15000	0.4968	693.71	0.37
323.14	16000	0.0456	718.6	0.36
323.14	16000	0.2185	710.33	0.37
323.14	16000	0.4968	694.57	0.38
323.14	17000	0.0456	719.38	0.37
323.14	17000	0.2185	711.14	0.37
323.14	17000	0.4968	695.4	0.39
323.14	18000	0.0456	720.14	0.37
323.14	18000	0.2185	711.93	0.38
323.14	18000	0.4968	696.25	0.4
323.14	19000	0.0456	720.9	0.38
323.14	19000	0.2185	712.7	0.39
323.14	19000	0.4968	697.05	0.41
323.14	20000	0.0456	721.64	0.39
323.14	20000	0.2185	713.47	0.4
323.14	20000	0.4968	697.87	0.42
323.14	21000	0.0456	722.37	0.4
323.14	21000	0.2185	714.23	0.41
323.14	21000	0.4968	698.66	0.42
323.14	22000	0.0456	723.1	0.4
323.14	22000	0.2185	714.97	0.41
323.14	22000	0.4968	699.42	0.43
323.14	23000	0.0456	723.81	0.41
323.14	23000	0.2185	715.7	0.42
323.14	23000	0.4968	700.17	0.44
323.14	24000	0.0456	724.52	0.42
323.14	24000	0.2185	716.43	0.43
323.14	24000	0.4968	700.91	0.45
323.14	25000	0.0456	725.21	0.43
323.14	25000	0.2185	717.13	0.44
323.14	25000	0.4968	701.65	0.46
323.16	1000	0.7524	659.51	0.27
323.16	2000	0.7524	660.73	0.28
323.16	3000	0.7524	661.92	0.29
323.16	4000	0.7524	663.04	0.29
323.16	5000	0.7524	664.17	0.3
323.16	6000	0.7524	665.29	0.31
323.16	7000	0.7524	666.38	0.32
323.16	8000	0.7524	667.43	0.33
323.16	9000	0.7524	668.5	0.34
323.16	10000	0.7524	669.53	0.34
323.16	10990	0.7524	670.57	0.35
323.16	12000	0.7524	671.56	0.36
323.16	13000	0.7524	672.52	0.37
323.16	14000	0.7524	673.49	0.38
323.16	15000	0.7524	674.44	0.39
323.16	16000	0.7524	675.39	0.4
323.16	17000	0.7524	676.32	0.41
323.16	18000	0.7524	677.22	0.42
323.16	19000	0.7524	678.11	0.43
323.16	20000	0.7524	678.99	0.44
323.16	21000	0.7524	679.85	0.44
323.16	22000	0.7524	680.67	0.45
323.16	23000	0.7524	681.51	0.46
323.16	24000	0.7524	682.33	0.47
323.16	25000	0.7524	683.11	0.48
332.58	1000	0.4968	671.98	0.27
332.58	2000	0.4968	673.11	0.27
332.58	3000	0.4968	674.24	0.28
332.58	4000	0.4968	675.37	0.29
332.58	5000	0.4968	676.46	0.29
332.58	6000	0.4968	677.53	0.3
332.58	7000	0.4968	678.61	0.31
332.58	8000	0.4968	679.66	0.32
332.58	9000	0.4968	680.68	0.33
332.58	10000	0.4968	681.7	0.34
332.58	10990	0.4968	682.69	0.34
332.58	12000	0.4968	683.66	0.35
332.58	13000	0.4968	684.64	0.36
332.58	14000	0.4968	685.59	0.37
332.58	15000	0.4968	686.54	0.38
332.58	16000	0.4968	687.44	0.39
332.58	17000	0.4968	688.35	0.4
332.58	18000	0.4968	689.24	0.4
332.58	19000	0.4968	690.12	0.41
332.58	20000	0.4968	690.99	0.42
332.58	21000	0.4968	691.85	0.43
332.58	22000	0.4968	692.69	0.44
332.58	23000	0.4968	693.52	0.45
332.58	24000	0.4968	694.34	0.46
332.58	25000	0.4968	695.13	0.47
332.93	1000	0.8991	636.12	0.28
332.93	2000	0.8991	637.35	0.29
332.93	3000	0.8991	638.61	0.29
332.93	4000	0.8991	639.84	0.3
332.93	5000	0.8991	641.09	0.31
332.93	6000	0.8991	642.3	0.32
332.93	7000	0.8991	643.52	0.33
332.93	8000	0.8991	644.74	0.34
332.93	9000	0.8991	645.94	0.35
332.93	10000	0.8991	647.14	0.36
332.93	11000	0.8991	648.32	0.37
332.93	12000	0.8991	649.47	0.38
332.93	13000	0.8991	650.61	0.39
332.93	14000	0.8991	651.73	0.4
332.93	15000	0.8991	652.84	0.41
332.93	16000	0.8991	653.92	0.42
332.93	17000	0.8991	654.97	0.43
332.93	18000	0.8991	655.99	0.44
332.93	19000	0.8991	657.01	0.45
332.93	20000	0.8991	657.98	0.46
332.93	21000	0.8991	658.93	0.47
332.93	22000	0.8991	659.86	0.48
332.93	23000	0.8991	660.76	0.49
332.93	24000	0.8991	661.64	0.5
332.93	25000	0.8991	662.49	0.51
333.08	1000	0.2185	689.16	0.26
333.08	2000	0.2185	690.17	0.26
333.08	3000	0.2185	691.16	0.27
333.08	4000	0.2185	692.16	0.28
333.08	5000	0.2185	693.16	0.29
333.08	6000	0.2185	694.13	0.29
333.08	7000	0.2185	695.1	0.3
333.08	8000	0.2185	696.06	0.31
333.08	9000	0.2185	697.02	0.32
333.08	10000	0.2185	697.94	0.32
333.08	10990	0.2185	698.86	0.33
333.08	12000	0.2185	699.77	0.34
333.08	13000	0.2185	700.66	0.35
333.08	14000	0.2185	701.54	0.36
333.08	15000	0.2185	702.39	0.36
333.08	16000	0.2185	703.25	0.37
333.08	17000	0.2185	704.09	0.38
333.08	18000	0.2185	704.93	0.39
333.08	19000	0.2185	705.76	0.4
333.08	20000	0.2185	706.56	0.4
333.08	21000	0.2185	707.37	0.41
333.08	22000	0.2185	708.17	0.42
333.08	23000	0.2185	708.95	0.43
333.08	24000	0.2185	709.72	0.44
333.08	25000	0.2185	710.48	0.45
333.1	1000	0.7524	650.65	0.27
333.1	2000	0.7524	651.99	0.28
333.1	3000	0.7524	653.29	0.29
333.1	4000	0.7524	654.52	0.3
333.1	5000	0.7524	655.72	0.3
333.1	6000	0.7524	656.92	0.31
333.1	7000	0.7524	658.07	0.32
333.1	8000	0.7524	659.21	0.33
333.1	9000	0.7524	660.35	0.34
333.1	10000	0.7524	661.46	0.35
333.1	10990	0.7524	662.52	0.36
333.1	12000	0.7524	663.6	0.37
333.1	13000	0.7524	664.65	0.38
333.1	14000	0.7524	665.67	0.39
333.1	15000	0.7524	666.7	0.4
333.1	16000	0.7524	667.68	0.4
333.1	17000	0.7524	668.66	0.41
333.1	18000	0.7524	669.62	0.42
333.1	19000	0.7524	670.59	0.43
333.1	20000	0.7524	671.52	0.44
333.1	21000	0.7524	672.45	0.45
333.1	22000	0.7524	673.35	0.46
333.1	23000	0.7524	674.23	0.47
333.1	24000	0.7524	675.08	0.48
333.1	25000	0.7524	675.91	0.49
333.12	1000	0.0456	697.88	0.25
333.12	2000	0.0456	698.9	0.26
333.12	3000	0.0456	699.91	0.27
333.12	4000	0.0456	700.9	0.27
333.12	5000	0.0456	701.88	0.28
333.12	6000	0.0456	702.84	0.29
333.12	7000	0.0456	703.78	0.3
333.12	8000	0.0456	704.71	0.3
333.12	9000	0.0456	705.63	0.31
333.12	10000	0.0456	706.54	0.32
333.12	10990	0.0456	707.42	0.32
333.12	12000	0.0456	708.3	0.33
333.12	13000	0.0456	709.16	0.34
333.12	14000	0.0456	710.01	0.35
333.12	15000	0.0456	710.86	0.36
333.12	16000	0.0456	711.67	0.36
333.12	17000	0.0456	712.48	0.37
333.12	18000	0.0456	713.29	0.38
333.12	19000	0.0456	714.08	0.39
333.12	20000	0.0456	714.87	0.39
333.12	21000	0.0456	715.64	0.4
333.12	22000	0.0456	716.39	0.41
333.12	23000	0.0456	717.15	0.42
333.12	24000	0.0456	717.89	0.43
333.12	25000	0.0456	718.63	0.43
342.8	1000	0.8991	626.74	0.28
342.8	2000	0.8991	628.11	0.29
342.8	3000	0.8991	629.48	0.3
342.8	4000	0.8991	630.85	0.31
342.8	5000	0.8991	632.19	0.32
342.8	6000	0.8991	633.52	0.32
342.8	7000	0.8991	634.85	0.33
342.8	8000	0.8991	636.16	0.34
342.8	9000	0.8991	637.46	0.35
342.8	10000	0.8991	638.73	0.36
342.8	11000	0.8991	639.99	0.37
342.8	12000	0.8991	641.23	0.38
342.8	13000	0.8991	642.43	0.39
342.8	14000	0.8991	643.64	0.4
342.8	15000	0.8991	644.8	0.41
342.8	16000	0.8991	645.95	0.42
342.8	17000	0.8991	647.07	0.43
342.8	18000	0.8991	648.18	0.44
342.8	19000	0.8991	649.24	0.45
342.8	20000	0.8991	650.3	0.46
342.8	21000	0.8991	651.32	0.47
342.8	22000	0.8991	652.31	0.48
342.8	23000	0.8991	653.28	0.49
342.8	24000	0.8991	654.23	0.51
342.8	25000	0.8991	655.16	0.52
343.05	1000	0.0456	690.21	0.26
343.05	2000	0.0456	691.25	0.26
343.05	3000	0.0456	692.26	0.27
343.05	4000	0.0456	693.3	0.28
343.05	5000	0.0456	694.32	0.28
343.05	6000	0.0456	695.32	0.29
343.05	7000	0.0456	696.31	0.3
343.05	8000	0.0456	697.29	0.31
343.05	9000	0.0456	698.26	0.31
343.05	10000	0.0456	699.22	0.32
343.05	11000	0.0456	700.16	0.33
343.05	12000	0.0456	701.08	0.34
343.05	13000	0.0456	702	0.34
343.05	14000	0.0456	702.89	0.35
343.05	15000	0.0456	703.77	0.36
343.05	16000	0.0456	704.64	0.37
343.05	17000	0.0456	705.5	0.38
343.05	18000	0.0456	706.36	0.38
343.05	19000	0.0456	707.2	0.39
343.05	20000	0.0456	708.02	0.4
343.05	21000	0.0456	708.84	0.41
343.05	22000	0.0456	709.65	0.42
343.05	23000	0.0456	710.45	0.43
343.05	24000	0.0456	711.25	0.43
343.05	25000	0.0456	712.03	0.44
343.06	1000	0.2185	681.09	0.26
343.06	1000	0.7524	641.66	0.28
343.06	2000	0.2185	682.19	0.27
343.06	2000	0.7524	643.07	0.28
343.06	3000	0.2185	683.33	0.27
343.06	3000	0.7524	644.43	0.29
343.06	4000	0.2185	684.4	0.28
343.06	4000	0.7524	645.8	0.3
343.06	5000	0.2185	685.47	0.29
343.06	5000	0.7524	647.1	0.31
343.06	6000	0.2185	686.52	0.3
343.06	6000	0.7524	648.4	0.32
343.06	7000	0.2185	687.54	0.3
343.06	7000	0.7524	649.65	0.33
343.06	8000	0.2185	688.57	0.31
343.06	8000	0.7524	650.88	0.34
343.06	9000	0.2185	689.57	0.32
343.06	9000	0.7524	652.12	0.34
343.06	10000	0.2185	690.55	0.33
343.06	10000	0.7524	653.31	0.35
343.06	11000	0.2185	691.53	0.34
343.06	11000	0.7524	654.46	0.36
343.06	12000	0.2185	692.48	0.34
343.06	12000	0.7524	655.59	0.37
343.06	13000	0.2185	693.45	0.35
343.06	13000	0.7524	656.72	0.38
343.06	14000	0.2185	694.36	0.36
343.06	14000	0.7524	657.81	0.39
343.06	15000	0.2185	695.27	0.37
343.06	15000	0.7524	658.89	0.4
343.06	16000	0.2185	696.19	0.38
343.06	16000	0.7524	659.96	0.41
343.06	17000	0.2185	697.07	0.39
343.06	17000	0.7524	661	0.42
343.06	18000	0.2185	697.94	0.39
343.06	18000	0.7524	662.03	0.43
343.06	19000	0.2185	698.83	0.4
343.06	19000	0.7524	663.03	0.44
343.06	20000	0.2185	699.68	0.41
343.06	20000	0.7524	664.01	0.45
343.06	21000	0.2185	700.53	0.42
343.06	21000	0.7524	664.97	0.46
343.06	22000	0.2185	701.36	0.43
343.06	22000	0.7524	665.93	0.47
343.06	23000	0.2185	702.17	0.44
343.06	23000	0.7524	666.87	0.48
343.06	24000	0.2185	702.97	0.44
343.06	24000	0.7524	667.79	0.49
343.06	25000	0.2185	703.79	0.45
343.06	25000	0.7524	668.69	0.5
343.08	1000	0.4968	663.07	0.27
343.08	2000	0.4968	664.35	0.27
343.08	3000	0.4968	665.55	0.28
343.08	4000	0.4968	666.8	0.29
343.08	5000	0.4968	667.97	0.3
343.08	6000	0.4968	669.14	0.31
343.08	7000	0.4968	670.28	0.31
343.08	8000	0.4968	671.4	0.32
343.08	9000	0.4968	672.48	0.33
343.08	10000	0.4968	673.55	0.34
343.08	11000	0.4968	674.64	0.35
343.08	12000	0.4968	675.64	0.36
343.08	13000	0.4968	676.63	0.37
343.08	14000	0.4968	677.63	0.37
343.08	15000	0.4968	678.63	0.38
343.08	16000	0.4968	679.61	0.39
343.08	17000	0.4968	680.59	0.4
343.08	18000	0.4968	681.52	0.41
343.08	19000	0.4968	682.46	0.42
343.08	20000	0.4968	683.4	0.43
343.08	21000	0.4968	684.32	0.44
343.08	22000	0.4968	685.22	0.45
343.08	23000	0.4968	686.1	0.46
343.08	24000	0.4968	686.98	0.46
343.08	25000	0.4968	687.83	0.47
352.75	1000	0.8991	617.37	0.28
352.75	2000	0.8991	618.91	0.29
352.75	3000	0.8991	620.43	0.3
352.75	4000	0.8991	621.91	0.31
352.75	5000	0.8991	623.4	0.3
352.75	6000	0.8991	624.85	0.33
352.75	7000	0.8991	626.29	0.34
352.75	8000	0.8991	627.7	0.4
352.75	9000	0.8991	629.09	0.36
352.75	10000	0.8991	630.46	0.37
352.75	11000	0.8991	631.8	0.4
352.75	12000	0.8991	633.12	0.39
352.75	13000	0.8991	634.41	0.4
352.75	14000	0.8991	635.69	0.41
352.75	15000	0.8991	636.93	0.42
352.75	16000	0.8991	638.16	0.43
352.75	17000	0.8991	639.35	0.44
352.75	18000	0.8991	640.52	0.45
352.75	19000	0.8991	641.66	0.46
352.75	20000	0.8991	642.78	0.47
352.75	21000	0.8991	643.87	0.48
352.75	22000	0.8991	644.93	0.49
352.75	23000	0.8991	645.98	0.5
352.75	24000	0.8991	646.99	0.52
352.75	25000	0.8991	647.98	0.53
352.99	1000	0.0456	682.21	0.26
352.99	1000	0.7524	632.44	0.28
352.99	2000	0.0456	683.34	0.27
352.99	2000	0.7524	633.97	0.29
352.99	3000	0.0456	684.46	0.27
352.99	3000	0.7524	635.47	0.29
352.99	4000	0.0456	685.57	0.28
352.99	4000	0.7524	636.89	0.3
352.99	5000	0.0456	686.64	0.29
352.99	5000	0.7524	638.37	0.31
352.99	6000	0.0456	687.71	0.29
352.99	6000	0.7524	639.77	0.32
352.99	7000	0.0456	688.77	0.3
352.99	7000	0.7524	641.14	0.33
352.99	8000	0.0456	689.81	0.31
352.99	8000	0.7524	642.48	0.34
352.99	9000	0.0456	690.83	0.32
352.99	9000	0.7524	643.77	0.35
352.99	10000	0.0456	691.84	0.33
352.99	10000	0.7524	645.03	0.36
352.99	11000	0.0456	692.84	0.33
352.99	11000	0.7524	646.28	0.37
352.99	12000	0.0456	693.82	0.34
352.99	12000	0.7524	647.51	0.38
352.99	13000	0.0456	694.79	0.35
352.99	13000	0.7524	648.71	0.39
352.99	14000	0.0456	695.75	0.36
352.99	14000	0.7524	649.88	0.4
352.99	15000	0.0456	696.69	0.37
352.99	15000	0.7524	651.03	0.41
352.99	16000	0.0456	697.62	0.37
352.99	16000	0.7524	652.16	0.42
352.99	17000	0.0456	698.54	0.38
352.99	17000	0.7524	653.28	0.43
352.99	18000	0.0456	699.44	0.39
352.99	18000	0.7524	654.35	0.44
352.99	19000	0.0456	700.33	0.4
352.99	19000	0.7524	655.43	0.45
352.99	20000	0.0456	701.21	0.41
352.99	20000	0.7524	656.5	0.46
352.99	21000	0.0456	702.11	0.42
352.99	21000	0.7524	657.54	0.47
352.99	22000	0.0456	702.98	0.42
352.99	22000	0.7524	658.56	0.48
352.99	23000	0.0456	703.83	0.43
352.99	23000	0.7524	659.55	0.49
352.99	24000	0.0456	704.67	0.44
352.99	24000	0.7524	660.56	0.5
352.99	25000	0.0456	705.49	0.45
352.99	25000	0.7524	661.49	0.51
353	1000	0.2185	673.09	0.26
353	2000	0.2185	674.25	0.27
353	3000	0.2185	675.39	0.28
353	4000	0.2185	676.51	0.28
353	5000	0.2185	677.65	0.29
353	6000	0.2185	678.75	0.3
353	7000	0.2185	679.82	0.31
353	8000	0.2185	680.92	0.32
353	9000	0.2185	681.98	0.32
353	10000	0.2185	683.03	0.33
353	11000	0.2185	684.07	0.34
353	12000	0.2185	685.08	0.35
353	13000	0.2185	686.09	0.36
353	14000	0.2185	687.09	0.37
353	15000	0.2185	688.08	0.37
353	16000	0.2185	689.03	0.38
353	17000	0.2185	689.97	0.39
353	18000	0.2185	690.9	0.4
353	19000	0.2185	691.79	0.41
353	20000	0.2185	692.7	0.42
353	21000	0.2185	693.59	0.43
353	22000	0.2185	694.47	0.43
353	23000	0.2185	695.35	0.44
353	24000	0.2185	696.22	0.45
353	25000	0.2185	697.07	0.46
353.01	1000	0.4968	654.56	0.27
353.01	2000	0.4968	655.89	0.28
353.01	3000	0.4968	657.2	0.28
353.01	4000	0.4968	658.52	0.29
353.01	5000	0.4968	659.83	0.3
353.01	6000	0.4968	661.12	0.31
353.01	7000	0.4968	662.3	0.32
353.01	8000	0.4968	663.52	0.33
353.01	9000	0.4968	664.66	0.33
353.01	10000	0.4968	665.8	0.34
353.01	11000	0.4968	666.94	0.35
353.01	12000	0.4968	668.05	0.36
353.01	13000	0.4968	669.13	0.37
353.01	14000	0.4968	670.21	0.38
353.01	15000	0.4968	671.26	0.39
353.01	16000	0.4968	672.3	0.4
353.01	17000	0.4968	673.3	0.41
353.01	18000	0.4968	674.32	0.42
353.01	19000	0.4968	675.27	0.43
353.01	20000	0.4968	676.25	0.43
353.01	21000	0.4968	677.22	0.44
353.01	22000	0.4968	678.15	0.45
353.01	23000	0.4968	679.08	0.46
353.01	24000	0.4968	680	0.47
353.01	25000	0.4968	680.91	0.48
362.59	1000	0.8991	607.57	0.28
362.59	2000	0.8991	609.29	0.29
362.59	3000	0.8991	610.97	0.3
362.59	4000	0.8991	612.62	0.31
362.59	5000	0.8991	614.24	0.32
362.59	6000	0.8991	615.83	0.33
362.59	7000	0.8991	617.37	0.34
362.59	8000	0.8991	618.92	0.35
362.59	9000	0.8991	620.4	0.4
362.59	10000	0.8991	621.89	0.37
362.59	11000	0.8991	623.32	0.38
362.59	12000	0.8991	624.72	0.39
362.59	13000	0.8991	626.12	0.4
362.59	14000	0.8991	627.49	0.41
362.59	15000	0.8991	628.8	0.4
362.59	16000	0.8991	630.11	0.44
362.59	17000	0.8991	631.37	0.45
362.59	18000	0.8991	632.62	0.46
362.59	19000	0.8991	633.83	0.47
362.59	20000	0.8991	635.04	0.48
362.59	21000	0.8991	636.21	0.49
362.59	22000	0.8991	637.35	0.5
362.59	23000	0.8991	638.45	0.51
362.59	24000	0.8991	639.52	0.53
362.59	25000	0.8991	640.65	0.54
362.91	1000	0.0456	674.5	0.26
362.91	2000	0.0456	675.7	0.27
362.91	3000	0.0456	676.88	0.27
362.91	4000	0.0456	678.04	0.28
362.91	5000	0.0456	679.18	0.29
362.91	6000	0.0456	680.32	0.3
362.91	7000	0.0456	681.43	0.31
362.91	8000	0.0456	682.51	0.31
362.91	9000	0.0456	683.59	0.32
362.91	10000	0.0456	684.65	0.33
362.91	11000	0.0456	685.7	0.34
362.91	12000	0.0456	686.71	0.35
362.91	13000	0.0456	687.73	0.35
362.91	14000	0.0456	688.73	0.36
362.91	15000	0.0456	689.71	0.37
362.91	16000	0.0456	690.69	0.38
362.91	17000	0.0456	691.65	0.39
362.91	18000	0.0456	692.61	0.4
362.91	19000	0.0456	693.55	0.41
362.91	20000	0.0456	694.48	0.41
362.91	21000	0.0456	695.43	0.42
362.91	22000	0.0456	696.32	0.43
362.91	23000	0.0456	697.22	0.44
362.91	24000	0.0456	698.09	0.45
362.91	25000	0.0456	698.96	0.46
362.93	1000	0.7524	623.36	0.28
362.93	2000	0.7524	624.97	0.29
362.93	3000	0.7524	626.55	0.3
362.93	4000	0.7524	628.12	0.31
362.93	5000	0.7524	629.63	0.32
362.93	6000	0.7524	631.14	0.32
362.93	7000	0.7524	632.58	0.33
362.93	8000	0.7524	634.03	0.34
362.93	9000	0.7524	635.42	0.35
362.93	10000	0.7524	636.78	0.36
362.93	11000	0.7524	638.11	0.37
362.93	12000	0.7524	639.39	0.38
362.93	13000	0.7524	640.69	0.39
362.93	14000	0.7524	641.96	0.4
362.93	15000	0.7524	643.24	0.41
362.93	16000	0.7524	644.37	0.42
362.93	17000	0.7524	645.56	0.43
362.93	18000	0.7524	646.73	0.44
362.93	19000	0.7524	647.87	0.45
362.93	20000	0.7524	649	0.46
362.93	21000	0.7524	650.11	0.47
362.93	22000	0.7524	651.2	0.48
362.93	23000	0.7524	652.27	0.49
362.93	24000	0.7524	653.3	0.51
362.93	25000	0.7524	654.33	0.52
362.94	1000	0.4968	646.01	0.28
362.94	2000	0.4968	647.42	0.28
362.94	3000	0.4968	648.86	0.29
362.94	4000	0.4968	650.21	0.3
362.94	5000	0.4968	651.6	0.3
362.94	6000	0.4968	652.91	0.31
362.94	7000	0.4968	654.2	0.32
362.94	8000	0.4968	655.48	0.33
362.94	9000	0.4968	656.71	0.34
362.94	10000	0.4968	657.94	0.35
362.94	11000	0.4968	659.13	0.36
362.94	12000	0.4968	660.32	0.37
362.94	13000	0.4968	661.45	0.38
362.94	14000	0.4968	662.6	0.39
362.94	15000	0.4968	663.75	0.39
362.94	16000	0.4968	664.81	0.4
362.94	17000	0.4968	665.88	0.41
362.94	18000	0.4968	666.95	0.42
362.94	19000	0.4968	667.98	0.43
362.94	20000	0.4968	669.01	0.44
362.94	21000	0.4968	670.03	0.45
362.94	22000	0.4968	671.04	0.46
362.94	23000	0.4968	672.03	0.47
362.94	24000	0.4968	673	0.48
362.94	25000	0.4968	673.96	0.49
362.95	1000	0.2185	664.98	0.27
362.95	2000	0.2185	666.23	0.27
362.95	3000	0.2185	667.46	0.28
362.95	4000	0.2185	668.71	0.29
362.95	5000	0.2185	669.93	0.29
362.95	6000	0.2185	671.12	0.3
362.95	7000	0.2185	672.27	0.31
362.95	8000	0.2185	673.43	0.32
362.95	9000	0.2185	674.54	0.33
362.95	10000	0.2185	675.66	0.34
362.95	11000	0.2185	676.75	0.34
362.95	12000	0.2185	677.81	0.35
362.95	13000	0.2185	678.85	0.36
362.95	14000	0.2185	679.9	0.37
362.95	15000	0.2185	680.96	0.38
362.95	16000	0.2185	681.94	0.39
362.95	17000	0.2185	682.95	0.4
362.95	18000	0.2185	683.9	0.41
362.95	19000	0.2185	684.89	0.41
362.95	20000	0.2185	685.85	0.42
362.95	21000	0.2185	686.79	0.43
362.95	22000	0.2185	687.72	0.44
362.95	23000	0.2185	688.63	0.45
362.95	24000	0.2185	689.54	0.46
362.95	25000	0.2185	690.43	0.47
