Measured thermophysical data. 1-Alkyl-2,3-dimethylimidazolium Bis(trifluoromethylsulfonyl)imide Ionic Liquids for the Liquid Liquid Extraction of Toluene from Heptane
Source: J. Chem. Eng. Data, 2011, 10.1021/je200529b
Compound 1: heptane, C7H16, InChI=1S/C7H16/c1-3-5-7-6-4-2/h3-7H2,1-2H3, purity 99.5%
Compound 2: toluene, C7H8, InChI=1S/C7H8/c1-7-5-3-2-4-6-7/h2-6H,1H3, purity 99.7%
Compound 3: 1-ethyl-2,3-dimethylimidazolium bis[(trifluoromethyl)sulfonyl]imide, C9H13F6N3O4S2, InChI=1S/C7H13N2.C2F6NO4S2/c1-4-9-6-5-8(3)7(9)2;3-1(4,5)14(10,11)9-15(12,13)2(6,7)8/h5-6H,4H2,1-3H3;/q+1;-1, purity 99%
Compound 4: 1,2-dimethyl-3-propylimidazolium bis[(trifluoromethyl)sulfonyl]imide, C10H15F6N3O4S2, InChI=1S/C8H15N2.C2F6NO4S2/c1-4-5-10-7-6-9(3)8(10)2;3-1(4,5)14(10,11)9-15(12,13)2(6,7)8/h6-7H,4-5H2,1-3H3;/q+1;-1, purity 99%
Compound 5: 1-butyl-2,3-dimethyl-1H-imidazolium bis(trifluoromethylsulfonyl)amide, C11H17F6N3O4S2, InChI=1S/C9H17N2.C2F6NO4S2/c1-4-5-6-11-8-7-10(3)9(11)2;3-1(4,5)14(10,11)9-15(12,13)2(6,7)8/h7-8H,4-6H2,1-3H3;/q+1;-1, purity 99%

System: heptane + 1-ethyl-2,3-dimethylimidazolium bis[(trifluoromethyl)sulfonyl]imide; phases: Liquid mixture 1, Liquid mixture 2
Property: Mole fraction of 1-ethyl-2,3-dimethylimidazolium bis[(trifluoromethyl)sulfonyl]imide (Liquid mixture 1); method: Chromatography
Temperature, K	Pressure, kPa	Mole fraction of 1-ethyl-2,3-dimethylimidazolium bis[(trifluoromethyl)sulfonyl]imide	uncertainty
313.2	101	0	0.002

System: heptane + 1-ethyl-2,3-dimethylimidazolium bis[(trifluoromethyl)sulfonyl]imide; phases: Liquid mixture 2, Liquid mixture 1
Property: Mole fraction of heptane (Liquid mixture 2); method: Chromatography
Temperature, K	Pressure, kPa	Mole fraction of heptane	uncertainty
313.2	101.3	0.0264	0.002

System: toluene + 1-ethyl-2,3-dimethylimidazolium bis[(trifluoromethyl)sulfonyl]imide; phases: Liquid mixture 1, Liquid mixture 2
Property: Mole fraction of 1-ethyl-2,3-dimethylimidazolium bis[(trifluoromethyl)sulfonyl]imide (Liquid mixture 1); method: Chromatography
Temperature, K	Pressure, kPa	Mole fraction of 1-ethyl-2,3-dimethylimidazolium bis[(trifluoromethyl)sulfonyl]imide	uncertainty
313.2	101	0	0.002

System: toluene + 1-ethyl-2,3-dimethylimidazolium bis[(trifluoromethyl)sulfonyl]imide; phases: Liquid mixture 2, Liquid mixture 1
Property: Mole fraction of toluene (Liquid mixture 2); method: Chromatography
Pressure, kPa	Temperature, K	Mole fraction of toluene	uncertainty
101.3	313.2	0.6336	

System: heptane + 1,2-dimethyl-3-propylimidazolium bis[(trifluoromethyl)sulfonyl]imide; phases: Liquid mixture 1, Liquid mixture 2
Property: Mole fraction of 1,2-dimethyl-3-propylimidazolium bis[(trifluoromethyl)sulfonyl]imide (Liquid mixture 1); method: Chromatography
Temperature, K	Pressure, kPa	Mole fraction of 1,2-dimethyl-3-propylimidazolium bis[(trifluoromethyl)sulfonyl]imide	uncertainty
313.2	101	0	0.002

System: heptane + 1,2-dimethyl-3-propylimidazolium bis[(trifluoromethyl)sulfonyl]imide; phases: Liquid mixture 2, Liquid mixture 1
Property: Mole fraction of heptane (Liquid mixture 2); method: Chromatography
Temperature, K	Pressure, kPa	Mole fraction of heptane	uncertainty
313.2	101.3	0.0295	0.002

System: toluene + 1,2-dimethyl-3-propylimidazolium bis[(trifluoromethyl)sulfonyl]imide; phases: Liquid mixture 1, Liquid mixture 2
Property: Mole fraction of 1,2-dimethyl-3-propylimidazolium bis[(trifluoromethyl)sulfonyl]imide (Liquid mixture 1); method: Chromatography
Temperature, K	Pressure, kPa	Mole fraction of 1,2-dimethyl-3-propylimidazolium bis[(trifluoromethyl)sulfonyl]imide	uncertainty
313.2	101	0	0.002

System: toluene + 1,2-dimethyl-3-propylimidazolium bis[(trifluoromethyl)sulfonyl]imide; phases: Liquid mixture 2, Liquid mixture 1
Property: Mole fraction of toluene (Liquid mixture 2); method: Chromatography
Pressure, kPa	Temperature, K	Mole fraction of toluene	uncertainty
101.3	313.2	0.6958	

System: heptane + 1-butyl-2,3-dimethyl-1H-imidazolium bis(trifluoromethylsulfonyl)amide; phases: Liquid mixture 1, Liquid mixture 2
Property: Mole fraction of 1-butyl-2,3-dimethyl-1H-imidazolium bis(trifluoromethylsulfonyl)amide (Liquid mixture 1); method: Chromatography
Temperature, K	Pressure, kPa	Mole fraction of 1-butyl-2,3-dimethyl-1H-imidazolium bis(trifluoromethylsulfonyl)amide	uncertainty
313.2	101	0	0.002

System: heptane + 1-butyl-2,3-dimethyl-1H-imidazolium bis(trifluoromethylsulfonyl)amide; phases: Liquid mixture 2, Liquid mixture 1
Property: Mole fraction of heptane (Liquid mixture 2); method: Chromatography
Temperature, K	Pressure, kPa	Mole fraction of heptane	uncertainty
313.12	101.3	0.0439	0.002

System: toluene + 1-butyl-2,3-dimethyl-1H-imidazolium bis(trifluoromethylsulfonyl)amide; phases: Liquid mixture 1, Liquid mixture 2
Property: Mole fraction of 1-butyl-2,3-dimethyl-1H-imidazolium bis(trifluoromethylsulfonyl)amide (Liquid mixture 1); method: Chromatography
Temperature, K	Pressure, kPa	Mole fraction of 1-butyl-2,3-dimethyl-1H-imidazolium bis(trifluoromethylsulfonyl)amide	uncertainty
313.2	101	0	0.002

System: toluene + 1-butyl-2,3-dimethyl-1H-imidazolium bis(trifluoromethylsulfonyl)amide; phases: Liquid mixture 2, Liquid mixture 1
Property: Mole fraction of toluene (Liquid mixture 2); method: Chromatography
Pressure, kPa	Temperature, K	Mole fraction of toluene	uncertainty
101.3	313.12	0.7031	

System: toluene + heptane + 1-ethyl-2,3-dimethylimidazolium bis[(trifluoromethyl)sulfonyl]imide; phases: Liquid mixture 1, Liquid mixture 2
Fixed: Temperature, K = 313.2
Fixed: Pressure, kPa = 101.3
Property: Mole fraction of heptane (Liquid mixture 1); method: Chromatography
Property: Mole fraction of heptane (Liquid mixture 2); method: Chromatography
Property: Mole fraction of toluene (Liquid mixture 2); method: Chromatography
Mole fraction of toluene	Mole fraction of heptane	uncertainty	Mole fraction of heptane	uncertainty	Mole fraction of toluene	uncertainty
0	1		0.0264	0.002	0	
0.0302	0.9698	0.0028	0.0219	0.002	0.0257	
0.0578	0.9422	0.0029	0.0222	0.002	0.0513	
0.1252	0.8748	0.003	0.0236	0.002	0.1082	
0.207	0.793	0.0032	0.0214	0.002	0.1669	
0.3475	0.6525	0.0037	0.021	0.002	0.2491	
0.4393	0.5607	0.0042	0.0212	0.002	0.3158	
0.517	0.483	0.0044	0.0192	0.002	0.3568	
0.6148	0.3852	0.0039	0.0189	0.002	0.4186	
0.7313	0.2687	0.0034	0.0157	0.002	0.4823	
0.8194	0.1806	0.0031	0.014	0.002	0.5915	
1	0		0		0.6336	

System: toluene + heptane + 1,2-dimethyl-3-propylimidazolium bis[(trifluoromethyl)sulfonyl]imide; phases: Liquid mixture 1, Liquid mixture 2
Fixed: Temperature, K = 313.2
Fixed: Pressure, kPa = 101.3
Property: Mole fraction of heptane (Liquid mixture 1); method: Chromatography
Property: Mole fraction of heptane (Liquid mixture 2); method: Chromatography
Property: Mole fraction of toluene (Liquid mixture 2); method: Chromatography
Mole fraction of toluene	Mole fraction of heptane	uncertainty	Mole fraction of heptane	uncertainty	Mole fraction of toluene	uncertainty
0	1		0.0295	0.002	0	
0.026	0.974	0.0028	0.0375	0.002	0.0297	
0.0555	0.9445	0.0029	0.0313	0.002	0.0558	
0.1187	0.8813	0.003	0.0301	0.002	0.1125	
0.2014	0.7986	0.0032	0.0296	0.002	0.1768	
0.3202	0.6798	0.0036	0.0306	0.002	0.2646	
0.4196	0.5804	0.0041	0.0256	0.002	0.3284	
0.5002	0.4998	0.0045	0.0254	0.002	0.3787	
0.608	0.392	0.004	0.0244	0.002	0.4346	
0.7244	0.2756	0.0034	0.0219	0.002	0.5086	
0.8314	0.1686	0.0031	0.0204	0.002	0.5522	
1	0		0		0.6958	

System: toluene + heptane + 1-butyl-2,3-dimethyl-1H-imidazolium bis(trifluoromethylsulfonyl)amide; phases: Liquid mixture 1, Liquid mixture 2
Fixed: Temperature, K = 313.12
Fixed: Pressure, kPa = 101.3
Property: Mole fraction of heptane (Liquid mixture 1); method: Chromatography
Property: Mole fraction of heptane (Liquid mixture 2); method: Chromatography
Property: Mole fraction of toluene (Liquid mixture 2); method: Chromatography
Mole fraction of toluene	Mole fraction of heptane	uncertainty	Mole fraction of heptane	uncertainty	Mole fraction of toluene	uncertainty
0	1		0.0439	0.002	0	
0.0243	0.9757	0.0028	0.049	0.002	0.0305	
0.0518	0.9482	0.0029	0.0473	0.002	0.0593	
0.1172	0.8828	0.0029	0.0418	0.002	0.1153	
0.1793	0.8207	0.0031	0.0424	0.002	0.1883	
0.2947	0.7053	0.0035	0.0413	0.002	0.2905	
0.3944	0.6056	0.004	0.0404	0.002	0.3595	
0.4737	0.5263	0.0044	0.0389	0.002	0.413	
0.589	0.411	0.0041	0.0357	0.002	0.4864	
0.7144	0.2856	0.0035	0.0297	0.002	0.551	
0.8187	0.1813	0.0031	0.0232	0.002	0.6209	
1	0		0		0.7031	
