Measured thermophysical data. Density Data for the Refrigerant Ethyl Fluoride (HFC-161) over a Temperature Range from (230 to 344) K
Source: J. Chem. Eng. Data, 2011, 10.1021/je2000827
Compound 1: fluoroethane, C2H5F, InChI=1S/C2H5F/c1-2-3/h2H2,1H3, purity 99.74%
Compound 2: chlorodifluoromethane, CHClF2, InChI=1S/CHClF2/c2-1(3)4/h1H, purity 99%

System: fluoroethane; phases: Liquid, Gas
Property: Vapor or sublimation pressure, kPa (Liquid); method: Closed cell (Static) method
Temperature, K	Vapor or sublimation pressure, kPa	uncertainty
231.49	83.13	2.405
234.21	94.431	2.406
236.99	107.29	2.407
239.38	119.324	2.409
242.26	135.315	2.411
244.45	148.503	2.413
247.17	166.356	2.416
249.55	183.202	2.42
252.04	202.063	2.424
254.66	223.938	2.429
256.86	243.509	2.434
259.79	271.615	2.441
261.53	289.323	2.446
264.92	326.523	2.457
267.46	356.626	2.468
270.02	389.015	2.48
272.57	423.544	2.494
275.14	460.686	2.509
277.69	499.681	2.527
280.25	542.231	2.548
282.93	587.975	2.572
285.36	633.635	2.598
288.87	701.868	2.637
290.5	736.602	2.661
293.49	801.346	2.703
296.62	874.826	2.754
298.35	917.133	2.789
301.4	996.401	2.848
303.42	1050.982	2.893
305.56	1111.432	2.946
308.36	1195.092	3.019
311.02	1278.681	3.095
313.56	1362.714	3.167
316.06	1439.187	3.241
318.06	1511.097	3.324
320.34	1596.466	3.404
322.83	1683.768	3.508
325.41	1800.764	3.652
328.04	1922.45	3.777
330.58	2035.85	3.866
332.88	2105.827	3.975
335.61	2262.541	4.187
337.83	2369.888	4.29
340.19	2489.54	4.439
343.01	2639.04	4.619

System: fluoroethane; phases: Liquid, Gas
Property: Mass density, kg/m3 (Liquid); method: VIBTUB:UFactor:8
Temperature, K	Mass density, kg/m3	uncertainty
231.49	822.41	2.58
234.21	817.05	2.57
236.99	812.28	2.56
239.38	807.75	2.55
242.26	802.85	2.54
244.45	798.89	2.53
247.17	794.45	2.52
249.55	790.12	2.52
252.04	784.97	2.51
254.66	781.18	2.5
256.86	777.42	2.49
259.79	772.38	2.48
261.53	769.17	2.48
264.92	762.96	2.47
267.46	758.21	2.46
270.02	753.26	2.45
272.57	748.47	2.44
275.14	743.66	2.44
277.69	738.45	2.43
280.25	734.48	2.42
282.93	728.08	2.41
285.36	724.27	2.41
288.87	715.99	2.4
290.5	713.52	2.39
293.49	706.47	2.38
296.62	699.98	2.37
298.35	696.18	2.37
301.4	689.76	2.36
303.42	685.09	2.36
305.56	680.24	2.35
308.36	673.98	2.34
311.02	667.87	2.34
313.56	661.98	2.33
316.06	655.89	2.32
318.06	650.99	2.32
320.34	645.22	2.31
322.83	638.81	2.31
325.41	632.16	2.3
328.04	625.04	2.3
330.58	617.82	2.29
332.88	609.12	2.29
335.61	599.54	2.28
337.83	591.63	2.28
340.19	583.39	2.27
343.01	573.25	2.27

System: chlorodifluoromethane; phases: Liquid, Gas
Property: Vapor or sublimation pressure, kPa (Liquid); method: Closed cell (Static) method
Temperature, K	Vapor or sublimation pressure, kPa	uncertainty
237.03	125.481	2.414
242.05	156.524	2.42
248.23	202.411	2.431
250.79	223.862	2.439
257.12	285.601	2.46
262.27	343.762	2.486
267.03	405.649	2.518
272.37	485.714	2.565
276.67	558.121	2.615
283.21	682.584	2.707
287.52	774.369	2.791
294.06	932.294	2.939
298.34	1047.703	3.067
303.44	1201.858	3.241
306.98	1316.368	3.377

System: chlorodifluoromethane; phases: Liquid, Gas
Property: Mass density, kg/m3 (Liquid); method: VIBTUB:UFactor:8
Temperature, K	Mass density, kg/m3	uncertainty
237.03	1396.88	4.53
242.05	1380.58	4.47
248.23	1361.7	4.39
250.79	1352.02	4.35
257.12	1333.18	4.28
262.27	1317.65	4.22
267.03	1302.17	4.15
272.37	1283.62	4.08
276.67	1268.86	4.02
283.21	1244.97	3.93
287.52	1231.04	3.88
294.06	1206.17	3.78
298.34	1188.92	3.71
303.44	1168.12	3.63
306.98	1156.73	3.59
