Measured thermophysical data. Phase Equilibria, Crystallization and Microstructural Studies  of Flunixin Meglumine + Meglumine system
Source: J. Chem. Eng. Data, 2012, 10.1021/je200950f
Compound 1: (2R,3R,4R,5S)-6-methylaminohexane-1,2,3,4,5-pentaol; 2-[2-methyl-3-(trifluoromethyl)anilino]pyridine-3-carboxylic acid, C21H28F3N3O7, InChI=1S/C14H11F3N2O2.C7H17NO5/c1-8-10(14(15,16)17)5-2-6-11(8)19-12-9(13(20)21)4-3-7-18-12;1-8-2-4(10)6(12)7(13)5(11)3-9/h2-7H,1H3,(H,18,19)(H,20,21);4-13H,2-3H2,1H3/t;4-,5+,6+,7+/m.0/s1
Compound 2: (2R,3R,4R,5S)-6-(methylamino)hexane-1,2,3,4,5-pentaol, C7H17NO5, InChI=1S/C7H17NO5/c1-8-2-4(10)6(12)7(13)5(11)3-9/h4-13H,2-3H2,1H3/t4-,5+,6+,7+/m0/s1

System: (2R,3R,4R,5S)-6-methylaminohexane-1,2,3,4,5-pentaol; 2-[2-methyl-3-(trifluoromethyl)anilino]pyridine-3-carboxylic acid; phases: Crystal, Liquid, Air at 1 atmosphere
Property: Molar enthalpy of transition or fusion, kJ/mol (Crystal); method: DSC
Molar enthalpy of transition or fusion, kJ/mol	uncertainty
64.03	1.32

System: (2R,3R,4R,5S)-6-methylaminohexane-1,2,3,4,5-pentaol; 2-[2-methyl-3-(trifluoromethyl)anilino]pyridine-3-carboxylic acid; phases: Crystal, Liquid, Air at 1 atmosphere
Property: Normal melting temperature, K (Crystal); method: DTA:UFactor:2
Normal melting temperature, K	uncertainty
413.05	0.8

System: (2R,3R,4R,5S)-6-(methylamino)hexane-1,2,3,4,5-pentaol; phases: Crystal, Liquid, Air at 1 atmosphere
Property: Molar enthalpy of transition or fusion, kJ/mol (Crystal); method: DSC
Molar enthalpy of transition or fusion, kJ/mol	uncertainty
46.22	0.98

System: (2R,3R,4R,5S)-6-(methylamino)hexane-1,2,3,4,5-pentaol; phases: Crystal, Liquid, Air at 1 atmosphere
Property: Normal melting temperature, K (Crystal); method: DTA
Normal melting temperature, K	uncertainty
402.05	0.4

System: (2R,3R,4R,5S)-6-(methylamino)hexane-1,2,3,4,5-pentaol + (2R,3R,4R,5S)-6-methylaminohexane-1,2,3,4,5-pentaol; 2-[2-methyl-3-(trifluoromethyl)anilino]pyridine-3-carboxylic acid; phases: Crystal, Crystal, Liquid, Air at 1 atmosphere
Property: Eutectic temperature, K (Crystal); method: DTA
Eutectic temperature, K	uncertainty
387.35	1

System: (2R,3R,4R,5S)-6-(methylamino)hexane-1,2,3,4,5-pentaol + (2R,3R,4R,5S)-6-methylaminohexane-1,2,3,4,5-pentaol; 2-[2-methyl-3-(trifluoromethyl)anilino]pyridine-3-carboxylic acid; phases: Crystal, Crystal, Liquid, Air at 1 atmosphere
Property: Eutectic composition: mole fraction of (2R,3R,4R,5S)-6-(methylamino)hexane-1,2,3,4,5-pentaol (Crystal); method: Derived from phase diagram analysis
Eutectic composition: mole fraction of (2R,3R,4R,5S)-6-(methylamino)hexane-1,2,3,4,5-pentaol	uncertainty
0.66	0.02

System: (2R,3R,4R,5S)-6-(methylamino)hexane-1,2,3,4,5-pentaol + (2R,3R,4R,5S)-6-methylaminohexane-1,2,3,4,5-pentaol; 2-[2-methyl-3-(trifluoromethyl)anilino]pyridine-3-carboxylic acid; phases: Liquid, Crystal
Fixed: Pressure, kPa = 101
Property: Solid-liquid equilibrium temperature, K (Liquid); method: DTA:UFactor:2
Mole fraction of (2R,3R,4R,5S)-6-(methylamino)hexane-1,2,3,4,5-pentaol	Solid-liquid equilibrium temperature, K	uncertainty
0	413.05	0.8
0.05	411.05	0.8
0.15	407.45	0.8
0.2578	402.95	0.8
0.4991	395.65	0.8
0.557	391.65	0.8
0.602	390.15	0.8

System: (2R,3R,4R,5S)-6-(methylamino)hexane-1,2,3,4,5-pentaol + (2R,3R,4R,5S)-6-methylaminohexane-1,2,3,4,5-pentaol; 2-[2-methyl-3-(trifluoromethyl)anilino]pyridine-3-carboxylic acid; phases: Liquid, Crystal
Fixed: Pressure, kPa = 101
Property: Solid-liquid equilibrium temperature, K (Liquid); method: DTA
Mole fraction of (2R,3R,4R,5S)-6-(methylamino)hexane-1,2,3,4,5-pentaol	Solid-liquid equilibrium temperature, K	uncertainty
0.66	387.35	0.4
0.7001	389.95	0.4
0.7446	392.35	0.4
0.871	397.75	0.4
0.897	398.85	0.4
1	402.05	0.4
