Measured thermophysical data. New High Pressure Vapor Liquid Equilibrium and Density Predictions for the Carbon Dioxide + Ethanol System
Source: J. Chem. Eng. Data, 2011, 10.1021/je2008186
Compound 1: carbon dioxide, CO2, InChI=1S/CO2/c2-1-3, purity 99.7%
Compound 2: ethanol, C2H6O, InChI=1S/C2H6O/c1-2-3/h3H,2H2,1H3, purity 99.8%

System: ethanol + carbon dioxide; phases: Liquid, Gas
Property: Critical pressure, kPa (Liquid); method: DIRECT:UFactor:64
Mole fraction of carbon dioxide	Critical pressure, kPa	uncertainty
0.8315	13860	400
0.838	13700	400
0.8401	13110	400
0.8409	12540	410
0.842	12000	400
0.8507	11170	400
0.892	10450	400
0.901	10600	400
0.908	9840	400
0.931	9100	400

System: ethanol + carbon dioxide; phases: Liquid, Gas
Property: Critical temperature, K (Liquid); method: VISOBSU:UFactor:32
Mole fraction of carbon dioxide	Critical temperature, K	uncertainty
0.8315	364.15	4.96
0.838	361.65	4.96
0.8401	355.05	5
0.8409	348.65	5.06
0.842	342.65	5.03
0.8507	335.65	4.96
0.892	330.15	4.96
0.901	332.15	4.96
0.908	325.65	4.96
0.931	321.15	4.96

System: ethanol + carbon dioxide; phases: Liquid, Gas
Property: Vapor or sublimation pressure, kPa (Liquid); method: CCELL:UFactor:8
Mole fraction of carbon dioxide	Temperature, K	Vapor or sublimation pressure, kPa	uncertainty
0.0598	363.15	1120	40
0.079	343.15	1440	40
0.097	343.15	1840	50
0.1013	363.15	1970	60
0.1133	333.15	2150	60
0.1315	373.15	3400	90
0.14	363.15	3180	80
0.147	343.15	2930	80
0.1748	333.15	3280	80
0.2	363.15	4630	120
0.201	343.15	4080	100
0.2127	333.15	4090	100
0.2268	373.15	5720	140
0.257	363.15	6010	150
0.265	343.15	5150	130
0.2727	363.15	6270	160
0.301	373.15	7410	190
0.309	343.15	6200	160
0.3317	333.15	6060	150
0.3426	363.15	7820	200
0.3608	373.15	8890	220
0.379	343.15	7300	180
0.387	333.15	6830	170
0.393	363.15	8970	220
0.429	343.15	8270	210
0.4303	333.15	7590	190
0.4507	363.15	10040	250
0.4641	363.15	10210	250
0.488	343.15	9350	230
0.498	363.15	11050	280
0.5004	333.15	8600	210
0.5468	373.15	12360	310
0.5554	363.15	12120	300
0.685	363.15	13750	340
0.689	333.15	10500	260
0.77	363.15	14150	350
