Measured thermophysical data. Vapor Liquid Equilibria of Binary and Ternary Systems Containing Carbon Dioxide, Alkane, and Benzothiophene
Source: J. Chem. Eng. Data, 2011, 10.1021/je200586g
Compound 1: nonane, C9H20, InChI=1S/C9H20/c1-3-5-7-9-8-6-4-2/h3-9H2,1-2H3, purity 99.1%
Compound 2: dodecane, C12H26, InChI=1S/C12H26/c1-3-5-7-9-11-12-10-8-6-4-2/h3-12H2,1-2H3, purity 99.42%
Compound 3: benzo[b]thiophene, C8H6S, InChI=1S/C8H6S/c1-2-4-8-7(3-1)5-6-9-8/h1-6H, purity 99.5%
Compound 4: carbon dioxide, CO2, InChI=1S/CO2/c2-1-3, purity 99.995%

System: dodecane + carbon dioxide; phases: Liquid, Gas
Property: Vapor or sublimation pressure, kPa (Liquid); method: Closed cell (Static) method
Mole fraction of carbon dioxide	Temperature, K	Vapor or sublimation pressure, kPa	uncertainty
0.1039	417.91	1640	130
0.1867	417.91	3120	130
0.1962	318.14	1780	80
0.2349	373.23	3300	130
0.2567	417.91	4550	150
0.2647	344.75	3160	110
0.2681	318.14	2530	80
0.3204	373.23	4800	130
0.3261	417.91	6040	160
0.3535	318.14	3450	80
0.3755	344.75	4770	110
0.3851	417.91	7460	180
0.4116	373.23	6540	140
0.4474	417.91	9080	190
0.4723	344.75	6350	120
0.482	373.23	8040	160
0.4889	318.14	5030	90
0.4998	417.91	10510	200
0.5381	344.75	7420	120
0.5507	417.91	11990	220
0.5533	373.23	9730	170
0.5891	344.75	8210	130
0.5988	417.91	13510	240
0.6123	318.14	6490	90
0.6156	373.23	11110	180
0.6324	344.75	9080	140
0.6407	417.91	14980	240
0.674	373.23	12760	200
0.6747	344.75	9920	150
0.69	417.91	16530	240
0.7078	344.75	10660	160
0.7203	373.23	14100	220
0.7325	417.91	18090	270
0.7501	318.14	8140	70
0.7623	373.23	15420	250
0.767	417.91	19450	240
0.7872	373.23	16190	180
0.8023	417.91	20370	190
0.8446	373.23	17540	60
0.9058	318.14	9100	60

System: dodecane + carbon dioxide; phases: Gas, Liquid
Property: Mole fraction of carbon dioxide (Gas); method: Chromatography
Mole fraction of carbon dioxide	Temperature, K	Mole fraction of carbon dioxide	uncertainty
0.1039	417.91	0.99	0.01
0.1867	417.91	0.9434	0.02
0.1962	318.14	0.9973	0.0027
0.2349	373.23	0.9958	0.0042
0.2567	417.91	0.9864	0.0136
0.2647	344.75	0.995	0.005
0.2681	318.14	0.9981	0.0019
0.3204	373.23	0.9964	0.0036
0.3261	417.91	0.988	0.012
0.3535	318.14	0.9991	0.0009
0.3755	344.75	0.9975	0.0025
0.3851	417.91	0.9599	0.02
0.4116	373.23	0.9934	0.0066
0.4474	417.91	0.9901	0.0099
0.4723	344.75	0.9987	0.0013
0.482	373.23	0.9904	0.0096
0.4889	318.14	0.9995	0.0005
0.4998	417.91	0.986	0.014
0.5381	344.75	0.9988	0.0012
0.5507	417.91	0.9791	0.02
0.5533	373.23	0.9965	0.0035
0.5891	344.75	0.9986	0.0014
0.5988	417.91	0.9896	0.0104
0.6123	318.14	0.9988	0.0012
0.6156	373.23	0.9961	0.0039
0.6324	344.75	0.9983	0.0017
0.6407	417.91	0.9689	0.02
0.674	373.23	0.995	0.005
0.6747	344.75	0.9975	0.0025
0.69	417.91	0.9903	0.0097
0.7078	344.75	0.9954	0.0046
0.7203	373.23	0.9905	0.0095
0.7325	417.91	0.9889	0.0111
0.7501	318.14	0.9951	0.0049
0.7623	373.23	0.9746	0.02
0.767	417.91	0.9832	0.0168
0.7872	373.23	0.9671	0.02
0.8023	417.91	0.9723	0.02
0.8446	373.23	0.9588	0.02
0.9058	318.14	0.9892	0.0108

System: benzo[b]thiophene + carbon dioxide; phases: Liquid, Gas
Fixed: Temperature, K = 373.93
Property: Vapor or sublimation pressure, kPa (Liquid); method: Closed cell (Static) method
Mole fraction of carbon dioxide	Vapor or sublimation pressure, kPa	uncertainty
0.0087	1320	480
0.0234	2320	570
0.0337	3360	570
0.0499	4490	520
0.0646	5670	580
0.0818	7120	610
0.0964	8460	510
0.1235	10220	560
0.1367	11780	540
0.1642	13450	470
0.1819	14790	530

System: benzo[b]thiophene + carbon dioxide; phases: Gas, Liquid
Fixed: Temperature, K = 373.93
Property: Mole fraction of carbon dioxide (Gas); method: Chromatography
Mole fraction of carbon dioxide	Mole fraction of carbon dioxide	uncertainty
0.0087	0.9574	0.0201
0.0234	0.966	0.0203
0.0337	0.9874	0.0126
0.0499	0.9931	0.0069
0.0646	0.9949	0.0051
0.0818	0.9949	0.0051
0.0964	0.9933	0.0067
0.1235	0.9883	0.0117
0.1367	0.9833	0.0167
0.1642	0.9719	0.0205
0.1819	0.9152	0.0225

System: benzo[b]thiophene + nonane + carbon dioxide; phases: Liquid, Gas
Property: Mole fraction of nonane (Liquid); method: Chromatography
Property: Mole fraction of nonane (Gas); method: Chromatography
Property: Mole fraction of carbon dioxide (Gas); method: Chromatography
Temperature, K	Pressure, kPa	Mole fraction of carbon dioxide	Mole fraction of nonane	uncertainty	Mole fraction of nonane	uncertainty	Mole fraction of carbon dioxide	uncertainty
313.09	1923	0.2435	0.7279	0.0073	0.0012	0.0012	0.9987	
313.09	3349	0.3507	0.5948	0.0076	0.0012	0.0012	0.9987	
313.09	4981	0.5076	0.4505	0.0077	0.0014	0.0014	0.9985	
313.09	6369	0.6757	0.2967	0.0073	0.002	0.002	0.9979	
313.09	7083	0.7837	0.1977	0.0071	0.0027	0.0027	0.9972	
313.09	7488	0.8785	0.111	0.007	0.0035	0.0032	0.9963	
313.09	7636	0.9079	0.0841	0.007	0.0038	0.0032	0.996	
343.73	1613	0.1439	0.8042	0.0072	0.0053	0.0032	0.9945	
343.73	3009	0.2461	0.6985	0.0074	0.0042	0.0032	0.9956	
343.73	4445	0.3542	0.5905	0.0076	0.0037	0.0032	0.9961	
343.73	5961	0.4581	0.4921	0.0079	0.0041	0.0032	0.9957	
343.73	7371	0.547	0.4112	0.0076	0.0056	0.0032	0.9942	
343.73	8838	0.6335	0.3334	0.0074	0.0067	0.0032	0.993	
343.73	10531	0.7455	0.2301	0.0072	0.0123	0.0032	0.9871	
343.73	11465	0.8165	0.1666	0.0071	0.0227	0.0032	0.9757	
343.73	11991	0.8869	0.1032	0.007	0.0365	0.0032	0.9606	
373.74	6593	0.4027	0.5533	0.0077	0.0101	0.0032	0.9896	
373.74	9133	0.5157	0.4415	0.0077	0.0147	0.0032	0.9847	
373.74	10543	0.5929	0.3707	0.0075	0.016	0.0032	0.9834	
373.74	11946	0.6497	0.32	0.0074	0.0206	0.0032	0.9784	
373.74	13484	0.7282	0.2486	0.0072	0.0322	0.0032	0.9659	
373.74	14565	0.7918	0.1907	0.0071	0.0469	0.0032	0.9499	
373.74	15081	0.8261	0.1588	0.0071	0.0625	0.0032	0.9327	
