Measured thermophysical data. Solubility and Metastable Zone Width Measurement of Borax Decahydrate in Potassium Chloride Solution
Source: J. Chem. Eng. Data, 2012, 10.1021/je201073e
Compound 1: disodium tetraborate decahydrate, B4H20Na2O17, InChI=1S/B4O7.2Na.10H2O/c5-1-7-3-9-2(6)10-4(8-1)11-3;;;;;;;;;;;;/h;;;10*1H2/q-2;2*+1;;;;;;;;;;
Compound 2: potassium chloride, ClK, InChI=1S/ClH.K/h1H;/q;+1/p-1
Compound 3: water, H2O, InChI=1S/H2O/h1H2

System: disodium tetraborate decahydrate + potassium chloride + water; phases: Liquid, Crystal
Fixed: Pressure, kPa = 101
Property: Mass fraction of disodium tetraborate decahydrate (Liquid); method: Polythermal method using the laser technique
Temperature, K	Solvent: Mass fraction of potassium chloride	Mass fraction of disodium tetraborate decahydrate	uncertainty
284.1	0.0746	0.0518	0.0016
284.48	0.1119	0.0596	0.0016
285.99	0.038	0.0456	0.0016
287.16	0.0184	0.0424	0.0016
288.11	0.1119	0.068	0.0016
288.29	0.0746	0.0597	0.0016
290.04	0.038	0.0542	0.0016
291.23	0.0184	0.0499	0.0016
291.76	0.1119	0.0779	0.0016
292.41	0.0746	0.0698	0.0016
293.72	0.038	0.063	0.0016
295.53	0.0184	0.0627	0.0016
295.54	0.1119	0.088	0.0016
296.1	0.0746	0.0805	0.0016
297.69	0.038	0.0736	0.0016
298.39	0.1119	0.0982	0.0016
299.15	0.0746	0.0909	0.0016
299.56	0.0184	0.0737	0.0016
301.32	0.038	0.0841	0.0016
302.85	0.0184	0.0818	0.0016
