Measured thermophysical data. Equilibrium Phase Behavior of Aqueous Two-Phase Systems Containing 1-Alkyl-3-methylimidazolium Tetrafluoroborate and Ammonium Tartrate at Different Temperatures: Experimental Determination and Correlation
Source: J. Chem. Eng. Data, 2011, 10.1021/je2006055
Compound 1: 1-ethyl-3-methylimidazolium tetrafluoroborate, C6H11BF4N2, InChI=1S/C6H11N2.BF4/c1-3-8-5-4-7(2)6-8;2-1(3,4)5/h4-6H,3H2,1-2H3;/q+1;-1, purity 99%
Compound 2: 1-propyl-3-methylimidazolium tetrafluoroborate, C7H13BF4N2, InChI=1S/C7H13N2.BF4/c1-3-4-9-6-5-8(2)7-9;2-1(3,4)5/h5-7H,3-4H2,1-2H3;/q+1;-1, purity 99%
Compound 3: 1-butyl-3-methylimidazolium tetrafluoroborate, C8H15BF4N2, InChI=1S/C8H15N2.BF4/c1-3-4-5-10-7-6-9(2)8-10;2-1(3,4)5/h6-8H,3-5H2,1-2H3;/q+1;-1, purity 99%
Compound 4: ammonium (2R,3R)-2,3-dihydroxysuccinate, C4H12N2O6, InChI=1S/C4H6O6.2H3N/c5-1(3(7)8)2(6)4(9)10;;/h1-2,5-6H,(H,7,8)(H,9,10);2*1H3/t1-,2-;;/m1../s1, purity 99%
Compound 5: water, H2O, InChI=1S/H2O/h1H2

System: ammonium (2R,3R)-2,3-dihydroxysuccinate + water + 1-ethyl-3-methylimidazolium tetrafluoroborate; phases: Liquid mixture 1, Liquid mixture 2
Fixed: Pressure, kPa = 100
Property: Mass fraction of ammonium (2R,3R)-2,3-dihydroxysuccinate (Liquid mixture 1); method: Titration method
Temperature, K	Mass fraction of 1-ethyl-3-methylimidazolium tetrafluoroborate	Mass fraction of ammonium (2R,3R)-2,3-dihydroxysuccinate	uncertainty
288.15	0.1656	0.1952	0.0061
288.15	0.1749	0.1905	0.0061
288.15	0.1889	0.1798	0.0058
288.15	0.1986	0.1737	0.0056
288.15	0.2052	0.1672	0.0053
288.15	0.216	0.1636	0.0052
288.15	0.2279	0.1558	0.005
288.15	0.2393	0.1479	0.0048
288.15	0.2597	0.1387	0.0045
288.15	0.2733	0.1335	0.0043
288.15	0.2888	0.128	0.0042
288.15	0.3117	0.1179	0.004
288.15	0.3312	0.1101	0.0038
288.15	0.3445	0.1068	0.0037
288.15	0.3601	0.0985	0.0035
288.15	0.3763	0.0937	0.0034
288.15	0.3989	0.0869	0.0032
288.15	0.4055	0.0842	0.0032
288.15	0.4224	0.0789	0.0031
288.15	0.44	0.073	0.003
288.15	0.4643	0.0632	0.0028
288.15	0.4894	0.0577	0.0026
288.15	0.505	0.0531	0.0026
288.15	0.5258	0.0477	0.0025
288.15	0.5512	0.0412	0.0024
288.15	0.5724	0.0362	0.0023
288.15	0.5971	0.0311	0.0022
288.15	0.6328	0.0229	0.0022
288.15	0.6414	0.0207	0.0021
288.15	0.6761	0.0159	0.0021
288.15	0.6941	0.0134	0.0021
288.15	0.7201	0.0095	0.002
288.15	0.7587	0.0062	0.002
288.15	0.815	0.0023	0.002
298.15	0.1657	0.212	0.0068
298.15	0.1766	0.2032	0.0065
298.15	0.1952	0.1868	0.006
298.15	0.2247	0.1654	0.0053
298.15	0.2475	0.1522	0.0049
298.15	0.253	0.1506	0.0048
298.15	0.2704	0.1403	0.0046
298.15	0.2865	0.134	0.0044
298.15	0.2943	0.1299	0.0043
298.15	0.316	0.1207	0.004
298.15	0.3372	0.1126	0.0038
298.15	0.3595	0.1043	0.0036
298.15	0.3844	0.095	0.0034
298.15	0.4029	0.0882	0.0033
298.15	0.4148	0.0845	0.0032
298.15	0.4337	0.0777	0.003
298.15	0.4663	0.0677	0.0029
298.15	0.4744	0.0649	0.0028
298.15	0.4977	0.0578	0.0026
298.15	0.5193	0.0527	0.0026
298.15	0.5369	0.0473	0.0025
298.15	0.5534	0.0432	0.0024
298.15	0.5666	0.0412	0.0024
298.15	0.5819	0.037	0.0023
298.15	0.6182	0.0299	0.0023
298.15	0.6261	0.0271	0.0023
298.15	0.6582	0.0204	0.0021
298.15	0.6747	0.0189	0.0021
298.15	0.7056	0.0149	0.0021
298.15	0.7353	0.0106	0.002
298.15	0.7677	0.0054	0.002
298.15	0.8029	0.0028	0.002
308.15	0.1904	0.2044	0.0065
308.15	0.208	0.1907	0.0061
308.15	0.2219	0.1817	0.0058
308.15	0.2378	0.1711	0.0055
308.15	0.2496	0.1643	0.0052
308.15	0.267	0.1544	0.0049
308.15	0.2678	0.1542	0.0049
308.15	0.2866	0.1425	0.0046
308.15	0.3085	0.1343	0.0044
308.15	0.3162	0.1315	0.0043
308.15	0.3285	0.1256	0.0042
308.15	0.347	0.1188	0.004
308.15	0.3554	0.1151	0.0039
308.15	0.3738	0.1075	0.0037
308.15	0.3905	0.1008	0.0036
308.15	0.3911	0.1008	0.0036
308.15	0.4056	0.0965	0.0035
308.15	0.4269	0.0877	0.0033
308.15	0.4285	0.0872	0.0033
308.15	0.4454	0.0817	0.0031
308.15	0.4627	0.0758	0.003
308.15	0.4716	0.0713	0.003
308.15	0.5099	0.0599	0.0027
308.15	0.5101	0.0594	0.0027
308.15	0.5677	0.0453	0.0025
308.15	0.5754	0.0428	0.0024
308.15	0.6083	0.0357	0.0023
308.15	0.6095	0.0356	0.0023
308.15	0.6432	0.0279	0.0022
308.15	0.6615	0.0249	0.0022
308.15	0.6862	0.0192	0.0021
308.15	0.7198	0.014	0.0021
308.15	0.7454	0.0098	0.002

System: ammonium (2R,3R)-2,3-dihydroxysuccinate + water + 1-ethyl-3-methylimidazolium tetrafluoroborate; phases: Liquid mixture 1, Liquid mixture 2
Fixed: Pressure, kPa = 100
Property: Mass fraction of ammonium (2R,3R)-2,3-dihydroxysuccinate (Liquid mixture 1); method: OTHER
Property: Mass fraction of ammonium (2R,3R)-2,3-dihydroxysuccinate (Liquid mixture 2); method: OTHER
Property: Mass fraction of 1-ethyl-3-methylimidazolium tetrafluoroborate (Liquid mixture 2); method: OTHER
Temperature, K	Mass fraction of 1-ethyl-3-methylimidazolium tetrafluoroborate	Mass fraction of ammonium (2R,3R)-2,3-dihydroxysuccinate	uncertainty	Mass fraction of ammonium (2R,3R)-2,3-dihydroxysuccinate	uncertainty	Mass fraction of 1-ethyl-3-methylimidazolium tetrafluoroborate	uncertainty
288.15	0.4809	0.0596	0.0021	0.133	0.0022	0.2782	
288.15	0.532	0.0456	0.0021	0.1509	0.0022	0.24	
288.15	0.5653	0.0374	0.0021	0.167	0.0023	0.2088	
288.15	0.5921	0.0314	0.0021	0.1786	0.0023	0.1881	
298.15	0.6247	0.0282	0.002	0.2136	0.0025	0.1589	
298.15	0.5467	0.0454	0.0021	0.1662	0.0024	0.2275	
298.15	0.5984	0.0336	0.002	0.1958	0.0024	0.1821	
298.15	0.6412	0.025	0.002	0.2213	0.0026	0.1496	
308.15	0.6509	0.0263	0.002	0.2205	0.0025	0.1657	
308.15	0.5594	0.0474	0.0021	0.1786	0.0024	0.2263	
308.15	0.5883	0.0402	0.0021	0.1927	0.0024	0.2041	
308.15	0.6226	0.0323	0.002	0.2057	0.0025	0.1853	

System: ammonium (2R,3R)-2,3-dihydroxysuccinate + water + 1-propyl-3-methylimidazolium tetrafluoroborate; phases: Liquid mixture 1, Liquid mixture 2
Fixed: Pressure, kPa = 100
Property: Mass fraction of ammonium (2R,3R)-2,3-dihydroxysuccinate (Liquid mixture 1); method: Titration method
Temperature, K	Mass fraction of 1-propyl-3-methylimidazolium tetrafluoroborate	Mass fraction of ammonium (2R,3R)-2,3-dihydroxysuccinate	uncertainty
288.15	0.1409	0.1873	0.0062
288.15	0.1569	0.1708	0.0057
288.15	0.1702	0.1581	0.0052
288.15	0.1791	0.1509	0.005
288.15	0.1898	0.1426	0.0048
288.15	0.1988	0.136	0.0046
288.15	0.2085	0.1294	0.0044
288.15	0.2215	0.1208	0.0042
288.15	0.2271	0.1171	0.004
288.15	0.2362	0.1125	0.0039
288.15	0.2475	0.1068	0.0038
288.15	0.2595	0.1014	0.0036
288.15	0.2694	0.0978	0.0035
288.15	0.2829	0.0921	0.0034
288.15	0.2951	0.0879	0.0033
288.15	0.3087	0.0831	0.0032
288.15	0.3218	0.0792	0.0031
288.15	0.3341	0.0761	0.003
288.15	0.355	0.07	0.0029
288.15	0.3738	0.0661	0.0028
288.15	0.4001	0.0604	0.0027
288.15	0.4175	0.0579	0.0026
288.15	0.435	0.0542	0.0026
288.15	0.4515	0.0521	0.0025
288.15	0.4705	0.0491	0.0025
288.15	0.4885	0.0466	0.0024
288.15	0.5126	0.0438	0.0024
288.15	0.5371	0.0401	0.0023
288.15	0.5575	0.0382	0.0023
288.15	0.5808	0.0358	0.0023
288.15	0.61	0.0332	0.0022
288.15	0.6382	0.0299	0.0022
288.15	0.6862	0.0251	0.0021
288.15	0.7189	0.0223	0.0021
298.15	0.1512	0.198	0.0065
298.15	0.1697	0.1806	0.0059
298.15	0.1828	0.1699	0.0055
298.15	0.1951	0.1602	0.0052
298.15	0.2077	0.1509	0.0049
298.15	0.2176	0.1447	0.0048
298.15	0.2219	0.1428	0.0046
298.15	0.2355	0.1358	0.0045
298.15	0.242	0.1321	0.0043
298.15	0.2577	0.124	0.0042
298.15	0.2667	0.1208	0.004
298.15	0.2899	0.1125	0.0038
298.15	0.3058	0.107	0.0037
298.15	0.3235	0.1009	0.0036
298.15	0.336	0.0979	0.0035
298.15	0.3654	0.089	0.0033
298.15	0.3801	0.086	0.0032
298.15	0.3997	0.0811	0.0031
298.15	0.4239	0.0763	0.003
298.15	0.4463	0.072	0.0029
298.15	0.4711	0.0669	0.0028
298.15	0.5035	0.0618	0.0027
298.15	0.5269	0.0585	0.0026
298.15	0.5525	0.0542	0.0025
298.15	0.576	0.0512	0.0025
298.15	0.5994	0.046	0.002
298.15	0.6115	0.0452	0.0024
298.15	0.6339	0.0408	0.0023
298.15	0.6733	0.0366	0.0023
298.15	0.7174	0.0292	0.0022
298.15	0.7324	0.0273	0.0022
298.15	0.7732	0.0237	0.0021
308.15	0.1803	0.1868	0.006
308.15	0.2017	0.1706	0.0055
308.15	0.2211	0.1574	0.005
308.15	0.2352	0.1503	0.0048
308.15	0.2529	0.1406	0.0046
308.15	0.2692	0.1328	0.0043
308.15	0.2809	0.1298	0.0042
308.15	0.3002	0.1214	0.004
308.15	0.316	0.1165	0.0039
308.15	0.3265	0.1139	0.0038
308.15	0.334	0.1117	0.0038
308.15	0.3436	0.1088	0.0037
308.15	0.3532	0.1053	0.0036
308.15	0.364	0.1036	0.0036
308.15	0.3866	0.0963	0.0034
308.15	0.3956	0.0935	0.0033
308.15	0.4118	0.0907	0.0033
308.15	0.4216	0.088	0.0032
308.15	0.4425	0.0826	0.0031
308.15	0.4695	0.0772	0.003
308.15	0.4872	0.0738	0.0029
308.15	0.5039	0.0702	0.0028
308.15	0.5202	0.0674	0.0028
308.15	0.5467	0.0628	0.0027
308.15	0.5567	0.0611	0.0027
308.15	0.5861	0.0559	0.0026
308.15	0.5973	0.0538	0.0025
308.15	0.6258	0.0495	0.0025
308.15	0.6615	0.0445	0.0024
308.15	0.6767	0.0416	0.0023
308.15	0.7008	0.0392	0.0023
308.15	0.7373	0.0333	0.0022

System: ammonium (2R,3R)-2,3-dihydroxysuccinate + water + 1-propyl-3-methylimidazolium tetrafluoroborate; phases: Liquid mixture 1, Liquid mixture 2
Fixed: Pressure, kPa = 100
Property: Mass fraction of ammonium (2R,3R)-2,3-dihydroxysuccinate (Liquid mixture 1); method: OTHER
Property: Mass fraction of ammonium (2R,3R)-2,3-dihydroxysuccinate (Liquid mixture 2); method: OTHER
Property: Mass fraction of 1-propyl-3-methylimidazolium tetrafluoroborate (Liquid mixture 2); method: OTHER
Temperature, K	Mass fraction of 1-propyl-3-methylimidazolium tetrafluoroborate	Mass fraction of ammonium (2R,3R)-2,3-dihydroxysuccinate	uncertainty	Mass fraction of ammonium (2R,3R)-2,3-dihydroxysuccinate	uncertainty	Mass fraction of 1-propyl-3-methylimidazolium tetrafluoroborate	uncertainty
288.15	0.7616	0.0198	0.002	0.1113	0.0022	0.2367	
288.15	0.7219	0.0215	0.002	0.1013	0.0022	0.2589	
288.15	0.7442	0.0207	0.002	0.105	0.0022	0.2502	
288.15	0.7894	0.018	0.002	0.1172	0.0023	0.2252	
298.15	0.6318	0.0419	0.002	0.1249	0.0022	0.2573	
298.15	0.6516	0.0394	0.002	0.1317	0.0023	0.2433	
298.15	0.6852	0.0348	0.002	0.1454	0.0023	0.217	
298.15	0.6181	0.0441	0.002	0.1196	0.0021	0.2717	
308.15	0.5318	0.0653	0.002	0.184	0.0026	0.182	
308.15	0.5893	0.0555	0.002	0.2021	0.0028	0.1617	
308.15	0.561	0.0602	0.002	0.1949	0.0027	0.1692	
308.15	0.5121	0.0689	0.002	0.1789	0.0025	0.1887	

System: ammonium (2R,3R)-2,3-dihydroxysuccinate + water + 1-butyl-3-methylimidazolium tetrafluoroborate; phases: Liquid mixture 1, Liquid mixture 2
Fixed: Pressure, kPa = 100
Property: Mass fraction of ammonium (2R,3R)-2,3-dihydroxysuccinate (Liquid mixture 1); method: Titration method
Temperature, K	Mass fraction of 1-butyl-3-methylimidazolium tetrafluoroborate	Mass fraction of ammonium (2R,3R)-2,3-dihydroxysuccinate	uncertainty
288.15	0.1044	0.146	0.0066
288.15	0.111	0.1305	0.0051
288.15	0.1237	0.1167	0.0045
288.15	0.137	0.101	0.0043
288.15	0.143	0.0928	0.0038
288.15	0.1524	0.0857	0.0036
288.15	0.1608	0.0773	0.0034
288.15	0.1706	0.0697	0.0031
288.15	0.1817	0.063	0.0029
288.15	0.1885	0.0592	0.0029
288.15	0.1975	0.0538	0.0027
288.15	0.2137	0.0465	0.0026
288.15	0.2286	0.0403	0.0024
288.15	0.2414	0.0369	0.0023
288.15	0.2633	0.0321	0.0022
288.15	0.2755	0.0292	0.0022
288.15	0.3023	0.0245	0.0021
288.15	0.3146	0.0232	0.0021
288.15	0.3323	0.0214	0.0021
288.15	0.3545	0.0192	0.0021
288.15	0.3781	0.0181	0.0021
288.15	0.3946	0.0171	0.0021
288.15	0.4257	0.0154	0.0021
288.15	0.4501	0.014	0.002
288.15	0.4731	0.0131	0.002
288.15	0.5079	0.011	0.002
288.15	0.5359	0.01	0.002
288.15	0.5724	0.0092	0.002
288.15	0.6233	0.0074	0.002
288.15	0.6627	0.0062	0.002
288.15	0.7019	0.0045	0.002
288.15	0.7588	0.0035	0.002
298.15	0.1027	0.1659	0.0061
298.15	0.1136	0.1477	0.0054
298.15	0.1268	0.1302	0.0048
298.15	0.1371	0.119	0.0044
298.15	0.1483	0.1078	0.004
298.15	0.1674	0.0925	0.0037
298.15	0.1787	0.0837	0.0034
298.15	0.1885	0.0787	0.0031
298.15	0.2099	0.0692	0.003
298.15	0.2238	0.0621	0.0028
298.15	0.2363	0.0574	0.0027
298.15	0.2483	0.0539	0.0026
298.15	0.2625	0.0492	0.0025
298.15	0.2634	0.0487	0.0025
298.15	0.2787	0.0449	0.0024
298.15	0.2889	0.0424	0.0024
298.15	0.3029	0.039	0.0023
298.15	0.3233	0.036	0.0023
298.15	0.3446	0.0333	0.0022
298.15	0.3707	0.0306	0.0022
298.15	0.3838	0.0293	0.0022
298.15	0.3971	0.028	0.0022
298.15	0.429	0.025	0.0021
298.15	0.4434	0.0234	0.0021
298.15	0.4608	0.0217	0.0021
298.15	0.4796	0.0202	0.0021
298.15	0.5031	0.0175	0.0021
298.15	0.5305	0.0159	0.0021
298.15	0.559	0.0141	0.002
298.15	0.6071	0.0116	0.002
298.15	0.6379	0.0098	0.002
298.15	0.7133	0.0063	0.002
298.15	0.7478	0.0053	0.002
308.15	0.1115	0.1655	0.0057
308.15	0.1229	0.151	0.0053
308.15	0.1325	0.1403	0.005
308.15	0.1439	0.1279	0.0046
308.15	0.1528	0.1198	0.0043
308.15	0.163	0.1106	0.0041
308.15	0.1719	0.104	0.0038
308.15	0.1802	0.0992	0.0036
308.15	0.189	0.0948	0.0035
308.15	0.1991	0.0893	0.0034
308.15	0.2101	0.0834	0.0032
308.15	0.2289	0.0748	0.003
308.15	0.2491	0.0676	0.0029
308.15	0.2597	0.0646	0.0028
308.15	0.2701	0.0618	0.0027
308.15	0.3016	0.0545	0.0026
308.15	0.3106	0.0526	0.0025
308.15	0.3354	0.0492	0.0025
308.15	0.3589	0.0448	0.0024
308.15	0.3719	0.0422	0.0024
308.15	0.3961	0.0389	0.0023
308.15	0.4259	0.0351	0.0022
308.15	0.447	0.0326	0.0022
308.15	0.4789	0.0289	0.0022
308.15	0.4987	0.0264	0.0021
308.15	0.5208	0.0248	0.0021
308.15	0.5443	0.0221	0.0021
308.15	0.5718	0.0195	0.0021
308.15	0.5928	0.0179	0.0021
308.15	0.6146	0.016	0.0021
308.15	0.6418	0.0136	0.002
308.15	0.6993	0.0101	0.002
308.15	0.7371	0.008	0.002

System: ammonium (2R,3R)-2,3-dihydroxysuccinate + water + 1-butyl-3-methylimidazolium tetrafluoroborate; phases: Liquid mixture 1, Liquid mixture 2
Fixed: Pressure, kPa = 100
Property: Mass fraction of ammonium (2R,3R)-2,3-dihydroxysuccinate (Liquid mixture 1); method: OTHER
Property: Mass fraction of ammonium (2R,3R)-2,3-dihydroxysuccinate (Liquid mixture 2); method: OTHER
Property: Mass fraction of 1-butyl-3-methylimidazolium tetrafluoroborate (Liquid mixture 2); method: OTHER
Temperature, K	Mass fraction of 1-butyl-3-methylimidazolium tetrafluoroborate	Mass fraction of ammonium (2R,3R)-2,3-dihydroxysuccinate	uncertainty	Mass fraction of ammonium (2R,3R)-2,3-dihydroxysuccinate	uncertainty	Mass fraction of 1-butyl-3-methylimidazolium tetrafluoroborate	uncertainty
288.15	0.7561	0.0039	0.002	0.0637	0.0021	0.1713	
288.15	0.7006	0.0049	0.002	0.0575	0.0022	0.1834	
288.15	0.7819	0.0035	0.002	0.066	0.0023	0.1774	
288.15	0.7214	0.0045	0.002	0.06	0.0023	0.1782	
298.15	0.8584	0.0029	0.002	0.0807	0.0027	0.1794	
298.15	0.8405	0.003	0.002	0.0782	0.0023	0.1823	
298.15	0.8184	0.0035	0.002	0.0747	0.0022	0.1896	
298.15	0.7867	0.0043	0.002	0.0703	0.0022	0.1996	
308.15	0.8649	0.0018	0.0018	0.0811	0.0021	0.2144	
308.15	0.8354	0.003	0.002	0.0756	0.0021	0.2293	
308.15	0.8067	0.0043	0.002	0.071	0.0021	0.2433	
308.15	0.7764	0.0058	0.002	0.0665	0.0021	0.2584	
