Measured thermophysical data. Apparent and Partial Molar Volumes at Infinite Dilution and Solid Liquid Equilibria of Dibenzothiophene + Alkane Systems
Source: J. Chem. Eng. Data, 2011, 10.1021/je200327s
Compound 1: dibenzothiophene, C12H8S, InChI=1S/C12H8S/c1-3-7-11-9(5-1)10-6-2-4-8-12(10)13-11/h1-8H, purity 98%
Compound 2: 4-methyldibenzothiophene, C13H10S, InChI=1S/C13H10S/c1-9-5-4-7-11-10-6-2-3-8-12(10)14-13(9)11/h2-8H,1H3, purity 96%
Compound 3: 4,6-dimethyldibenzo[b,d]thiophene, C14H12S, InChI=1S/C14H12S/c1-9-5-3-7-11-12-8-4-6-10(2)14(12)15-13(9)11/h3-8H,1-2H3, purity 97%
Compound 4: pentane, C5H12, InChI=1S/C5H12/c1-3-5-4-2/h3-5H2,1-2H3, purity 99%
Compound 5: hexane, C6H14, InChI=1S/C6H14/c1-3-5-6-4-2/h3-6H2,1-2H3, purity 96%
Compound 6: cyclohexane, C6H12, InChI=1S/C6H12/c1-2-4-6-5-3-1/h1-6H2, purity 99.5%
Compound 7: heptane, C7H16, InChI=1S/C7H16/c1-3-5-7-6-4-2/h3-7H2,1-2H3, purity 99%
Compound 8: octane, C8H18, InChI=1S/C8H18/c1-3-5-7-8-6-4-2/h3-8H2,1-2H3, purity 97%
Compound 9: 2,2,4-trimethylpentane, C8H18, InChI=1S/C8H18/c1-7(2)6-8(3,4)5/h7H,6H2,1-5H3, purity 99.5%
Compound 10: nonane, C9H20, InChI=1S/C9H20/c1-3-5-7-9-8-6-4-2/h3-9H2,1-2H3, purity 99%
Compound 11: decane, C10H22, InChI=1S/C10H22/c1-3-5-7-9-10-8-6-4-2/h3-10H2,1-2H3, purity 99%
Compound 12: undecane, C11H24, InChI=1S/C11H24/c1-3-5-7-9-11-10-8-6-4-2/h3-11H2,1-2H3, purity 99%
Compound 13: dodecane, C12H26, InChI=1S/C12H26/c1-3-5-7-9-11-12-10-8-6-4-2/h3-12H2,1-2H3, purity 99.6%

System: pentane; phases: Liquid
Property: Mass density, kg/m3 (Liquid); method: Vibrating tube method
Temperature, K	Pressure, kPa	Mass density, kg/m3	uncertainty
298.2	101.3	624.932	0.296

System: hexane; phases: Liquid
Property: Mass density, kg/m3 (Liquid); method: Vibrating tube method
Temperature, K	Pressure, kPa	Mass density, kg/m3	uncertainty
298.2	101.3	655.039	2.082

System: cyclohexane; phases: Liquid
Property: Mass density, kg/m3 (Liquid); method: Vibrating tube method
Temperature, K	Pressure, kPa	Mass density, kg/m3	uncertainty
298.2	101.3	773.849	0.267

System: heptane; phases: Liquid
Property: Mass density, kg/m3 (Liquid); method: Vibrating tube method
Temperature, K	Pressure, kPa	Mass density, kg/m3	uncertainty
298.2	101.3	679.857	0.359

System: octane; phases: Liquid
Fixed: Pressure, kPa = 101.3
Property: Mass density, kg/m3 (Liquid); method: Vibrating tube method
Temperature, K	Mass density, kg/m3	uncertainty
298.2	698.569	1.369
313.2	686.365	1.335

System: 2,2,4-trimethylpentane; phases: Liquid
Fixed: Pressure, kPa = 101.3
Property: Mass density, kg/m3 (Liquid); method: Vibrating tube method
Temperature, K	Mass density, kg/m3	uncertainty
298.2	687.721	0.282
313.2	675.225	0.286

System: nonane; phases: Liquid
Property: Mass density, kg/m3 (Liquid); method: Vibrating tube method
Temperature, K	Pressure, kPa	Mass density, kg/m3	uncertainty
298.2	101.3	713.938	0.358

System: decane; phases: Liquid
Fixed: Pressure, kPa = 101.3
Property: Mass density, kg/m3 (Liquid); method: Vibrating tube method
Temperature, K	Mass density, kg/m3	uncertainty
298.2	726.1	0.4
313.2	714.726	0.349

System: undecane; phases: Liquid
Fixed: Pressure, kPa = 101.3
Property: Mass density, kg/m3 (Liquid); method: Vibrating tube method
Temperature, K	Mass density, kg/m3	uncertainty
298.2	736.786	0.345
313.2	725.693	0.346

System: dodecane; phases: Liquid
Fixed: Pressure, kPa = 101.3
Property: Mass density, kg/m3 (Liquid); method: Vibrating tube method
Temperature, K	Mass density, kg/m3	uncertainty
298.2	745.15	0.239
313.2	734.325	0.243

System: pentane + dibenzothiophene; phases: Liquid, Crystal
Property: Mass density, kg/m3 (Liquid); method: Vibrating tube method
Temperature, K	Pressure, kPa	Mass density, kg/m3	uncertainty
298.2	101	635.527	0.483

System: pentane + dibenzothiophene; phases: Liquid, Crystal
Property: Mole fraction of dibenzothiophene (Liquid); method: Density calibration data
Temperature, K	Pressure, kPa	Mole fraction of dibenzothiophene	uncertainty
298.2	101	0.0165	0.0001

System: pentane + dibenzothiophene; phases: Liquid
Fixed: Temperature, K = 298.2
Fixed: Pressure, kPa = 101
Property: Mass density, kg/m3 (Liquid); method: Vibrating tube method
Mole fraction of dibenzothiophene	Mass density, kg/m3	uncertainty
0.0042	624.932	0.296
0.0077	627.957	0.297
0.0112	630.962	0.297
0.0158	634.865	0.298

System: hexane + dibenzothiophene; phases: Liquid, Crystal
Property: Mass density, kg/m3 (Liquid); method: Vibrating tube method
Temperature, K	Pressure, kPa	Mass density, kg/m3	uncertainty
298.2	101	668.837	1.287

System: hexane + dibenzothiophene; phases: Liquid, Crystal
Property: Mole fraction of dibenzothiophene (Liquid); method: Density calibration data
Temperature, K	Pressure, kPa	Mole fraction of dibenzothiophene	uncertainty
298.2	101	0.0202	0.0001

System: hexane + dibenzothiophene; phases: Liquid
Fixed: Temperature, K = 298.2
Fixed: Pressure, kPa = 101
Property: Mass density, kg/m3 (Liquid); method: Vibrating tube method
Mole fraction of dibenzothiophene	Mass density, kg/m3	uncertainty
0.0097	661.714	2.098
0.0147	665.156	2.106
0.0174	667.026	2.111

System: cyclohexane + dibenzothiophene; phases: Liquid, Crystal
Property: Mass density, kg/m3 (Liquid); method: Vibrating tube method
Temperature, K	Pressure, kPa	Mass density, kg/m3	uncertainty
298.2	101	791.07	0.44

System: cyclohexane + dibenzothiophene; phases: Liquid, Crystal
Property: Mole fraction of dibenzothiophene (Liquid); method: Density calibration data
Temperature, K	Pressure, kPa	Mole fraction of dibenzothiophene	uncertainty
298.2	101	0.0288	0.0002

System: cyclohexane + dibenzothiophene; phases: Liquid
Fixed: Temperature, K = 298.2
Fixed: Pressure, kPa = 101
Property: Mass density, kg/m3 (Liquid); method: Vibrating tube method
Mole fraction of dibenzothiophene	Mass density, kg/m3	uncertainty
0.0025	775.392	0.267
0.0045	776.667	0.268
0.0114	780.726	0.268
0.0224	787.439	0.27

System: dibenzothiophene + heptane; phases: Liquid, Crystal
Property: Mass density, kg/m3 (Liquid); method: Vibrating tube method
Temperature, K	Pressure, kPa	Mass density, kg/m3	uncertainty
298.2	101	695.669	0.503

System: dibenzothiophene + heptane; phases: Liquid, Crystal
Property: Mole fraction of dibenzothiophene (Liquid); method: Density calibration data
Temperature, K	Pressure, kPa	Mole fraction of dibenzothiophene	uncertainty
298.2	101	0.0271	0.0002

System: dibenzothiophene + heptane; phases: Liquid
Fixed: Temperature, K = 298.2
Fixed: Pressure, kPa = 101
Property: Mass density, kg/m3 (Liquid); method: Vibrating tube method
Mole fraction of dibenzothiophene	Mass density, kg/m3	uncertainty
0.0056	683.108	0.36
0.0119	686.774	0.361
0.0176	690.099	0.363
0.0218	692.551	0.364

System: octane + dibenzothiophene; phases: Liquid, Crystal
Property: Mass density, kg/m3 (Liquid); method: Vibrating tube method
Temperature, K	Pressure, kPa	Mass density, kg/m3	uncertainty
298.2	101	714.273	1.037

System: octane + dibenzothiophene; phases: Liquid, Crystal
Property: Mole fraction of dibenzothiophene (Liquid); method: Density calibration data
Temperature, K	Pressure, kPa	Mole fraction of dibenzothiophene	uncertainty
298.2	101	0.0314	0.0002

System: octane + dibenzothiophene; phases: Liquid
Fixed: Pressure, kPa = 101
Property: Mass density, kg/m3 (Liquid); method: Vibrating tube method
Temperature, K	Mole fraction of dibenzothiophene	Mass density, kg/m3	uncertainty
298.2	0.0026	699.866	1.37
298.2	0.0049	701.048	1.372
298.2	0.0063	701.696	1.373
298.2	0.0127	704.954	1.377
298.2	0.0187	707.967	1.38
298.2	0.0252	711.182	1.384
313.2	0.0026	687.657	1.336
313.2	0.0049	688.882	1.338
313.2	0.0063	689.525	1.339
313.2	0.0127	692.813	1.343
313.2	0.0187	695.851	1.346
313.2	0.0252	699.1	1.4

System: dibenzothiophene + 2,2,4-trimethylpentane; phases: Liquid, Crystal
Property: Mass density, kg/m3 (Liquid); method: Vibrating tube method
Temperature, K	Pressure, kPa	Mass density, kg/m3	uncertainty
298.2	101	697.078	0.422

System: dibenzothiophene + 2,2,4-trimethylpentane; phases: Liquid, Crystal
Property: Mole fraction of dibenzothiophene (Liquid); method: Density calibration data
Temperature, K	Pressure, kPa	Mole fraction of dibenzothiophene	uncertainty
298.2	101	0.0183	0.0001

System: dibenzothiophene + 2,2,4-trimethylpentane; phases: Liquid
Fixed: Pressure, kPa = 101
Property: Mass density, kg/m3 (Liquid); method: Vibrating tube method
Temperature, K	Mole fraction of dibenzothiophene	Mass density, kg/m3	uncertainty
298.2	0.0025	689.019	0.282
298.2	0.005	690.292	0.282
298.2	0.0127	694.21	0.28
298.2	0.0149	695.329	0.28
313.2	0.0025	676.548	0.286
313.2	0.003	676.845	0.286
313.2	0.005	677.841	0.286
313.2	0.0063	678.505	0.286
313.2	0.0149	683.13	0.28

System: nonane + dibenzothiophene; phases: Liquid, Crystal
Property: Mass density, kg/m3 (Liquid); method: Vibrating tube method
Temperature, K	Pressure, kPa	Mass density, kg/m3	uncertainty
298.2	101	729.503	0.516

System: nonane + dibenzothiophene; phases: Liquid, Crystal
Property: Mole fraction of dibenzothiophene (Liquid); method: Density calibration data
Temperature, K	Pressure, kPa	Mole fraction of dibenzothiophene	uncertainty
298.2	101	0.0354	0.0002

System: nonane + dibenzothiophene; phases: Liquid
Fixed: Pressure, kPa = 101
Property: Mass density, kg/m3 (Liquid); method: Vibrating tube method
Temperature, K	Mole fraction of dibenzothiophene	Mass density, kg/m3	uncertainty
298.2	0.0032	715.374	0.352
298.2	0.0057	716.447	0.352
298.2	0.0072	717.097	0.352
298.2	0.0147	720.427	0.353
298.2	0.0216	723.475	0.355
298.2	0.0287	726.668	0.355
298.2	0.0343	729.068	0.359
313.2	0.0032	703.613	0.353
313.2	0.0057	704.689	0.354
313.2	0.0072	705.41	0.35
313.2	0.0147	708.85	0.35
313.2	0.0216	711.795	0.356
313.2	0.0287	715.175	0.358
313.2	0.0343	717.135	0.361

System: decane + dibenzothiophene; phases: Liquid, Crystal
Property: Mass density, kg/m3 (Liquid); method: Vibrating tube method
Temperature, K	Pressure, kPa	Mass density, kg/m3	uncertainty
298.2	101	740.85	0.52

System: decane + dibenzothiophene; phases: Liquid, Crystal
Property: Mole fraction of dibenzothiophene (Liquid); method: Density calibration data
Temperature, K	Pressure, kPa	Mole fraction of dibenzothiophene	uncertainty
298.2	101	0.0376	0.0002

System: decane + dibenzothiophene; phases: Liquid
Fixed: Pressure, kPa = 101
Property: Mass density, kg/m3 (Liquid); method: Vibrating tube method
Temperature, K	Mole fraction of dibenzothiophene	Mass density, kg/m3	uncertainty
298.2	0.0034	727.461	0.348
298.2	0.0061	728.541	0.349
298.2	0.0082	729.331	0.349
298.2	0.0162	732.459	0.351
298.2	0.0259	736.262	0.353
298.2	0.0314	738.412	0.354
313.2	0.0034	716.064	0.35
313.2	0.0061	717.143	0.35
313.2	0.0082	717.957	0.351
313.2	0.0162	721.088	0.352
313.2	0.0259	724.901	0.354
313.2	0.0314	727.044	0.356

System: dibenzothiophene + undecane; phases: Liquid, Crystal
Property: Mass density, kg/m3 (Liquid); method: Vibrating tube method
Temperature, K	Pressure, kPa	Mass density, kg/m3	uncertainty
298.2	101	751.448	0.525

System: dibenzothiophene + undecane; phases: Liquid, Crystal
Property: Mole fraction of dibenzothiophene (Liquid); method: Density calibration data
Temperature, K	Pressure, kPa	Mole fraction of dibenzothiophene	uncertainty
298.2	101	0.041	0.001

System: dibenzothiophene + undecane; phases: Liquid
Fixed: Pressure, kPa = 101
Property: Mass density, kg/m3 (Liquid); method: Vibrating tube method
Temperature, K	Mole fraction of dibenzothiophene	Mass density, kg/m3	uncertainty
298.2	0.0035	738.065	0.346
298.2	0.0069	739.235	0.346
298.2	0.0087	739.863	0.347
298.2	0.0186	743.359	0.349
298.2	0.0286	746.909	0.352
298.2	0.0342	748.935	0.353
313.2	0.0035	726.939	0.347
313.2	0.0069	728.106	0.348
313.2	0.0087	728.741	0.348
313.2	0.0186	732.22	0.35
313.2	0.0263	735.021	0.352
313.2	0.0286	735.767	0.352
313.2	0.0342	737.778	0.354
313.2	0.0436	741.11	0.36

System: dodecane + dibenzothiophene; phases: Liquid, Crystal
Fixed: Pressure, kPa = 101
Property: Mass density, kg/m3 (Liquid); method: Vibrating tube method
Temperature, K	Mass density, kg/m3	uncertainty
298.2	759.777	0.375
313.2	758.386	0.375

System: dodecane + dibenzothiophene; phases: Liquid, Crystal
Fixed: Pressure, kPa = 101
Property: Mole fraction of dibenzothiophene (Liquid); method: Density calibration data
Temperature, K	Mole fraction of dibenzothiophene	uncertainty
298.2	0.0455	0.0004
313.2	0.0753	0.0005

System: dodecane + dibenzothiophene; phases: Liquid
Fixed: Pressure, kPa = 101
Property: Mass density, kg/m3 (Liquid); method: Vibrating tube method
Temperature, K	Mole fraction of dibenzothiophene	Mass density, kg/m3	uncertainty
298.2	0.0074	747.569	0.241
298.2	0.0094	748.147	0.241
298.2	0.0191	751.276	0.241
298.2	0.0285	754.322	0.242
298.2	0.0378	757.354	0.244
313.2	0.0037	735.448	0.246
313.2	0.0046	735.694	0.244
313.2	0.0074	736.633	0.245
313.2	0.0098	737.333	0.244
313.2	0.0142	738.752	0.245
313.2	0.0187	740.177	0.245
313.2	0.024	741.874	0.246
313.2	0.0305	743.953	0.246
313.2	0.0325	744.662	0.246
313.2	0.0372	746.081	0.247
313.2	0.0651	755.317	0.252

System: dodecane + 4-methyldibenzothiophene; phases: Liquid, Crystal
Property: Mass density, kg/m3 (Liquid); method: Vibrating tube method
Temperature, K	Pressure, kPa	Mass density, kg/m3	uncertainty
298.2	101	812.185	0.989

System: dodecane + 4-methyldibenzothiophene; phases: Liquid, Crystal
Property: Mole fraction of 4-methyldibenzothiophene (Liquid); method: Density calibration data
Temperature, K	Pressure, kPa	Mole fraction of 4-methyldibenzothiophene	uncertainty
298.2	101	0.2009	0.0009

System: dodecane + 4-methyldibenzothiophene; phases: Liquid
Fixed: Pressure, kPa = 101
Property: Mass density, kg/m3 (Liquid); method: Vibrating tube method
Temperature, K	Mole fraction of 4-methyldibenzothiophene	Mass density, kg/m3	uncertainty
298.2	0.0062	747.197	0.242
298.2	0.012	749.098	0.243
298.2	0.018	751.069	0.245
298.2	0.0242	753.104	0.247
298.2	0.0302	755.131	0.248
298.2	0.0526	762.606	0.258
298.2	0.0863	774.082	0.276
298.2	0.133	790.24	0.32
313.2	0.0062	736.26	0.25
313.2	0.012	738.169	0.247
313.2	0.018	740.129	0.249
313.2	0.0242	742.156	0.25
313.2	0.0302	744.204	0.252
313.2	0.0526	751.621	0.26
313.2	0.0863	763.057	0.281
313.2	0.133	777.581	0.315
313.2	0.2685	827.245	0.513

System: dodecane + 4,6-dimethyldibenzo[b,d]thiophene; phases: Liquid, Crystal
Fixed: Pressure, kPa = 101
Property: Mass density, kg/m3 (Liquid); method: Vibrating tube method
Temperature, K	Mass density, kg/m3	uncertainty
298.2	635.527	1.485
313.2	739.716	1.506

System: dodecane + 4,6-dimethyldibenzo[b,d]thiophene; phases: Liquid, Crystal
Fixed: Pressure, kPa = 101
Property: Mole fraction of 4,6-dimethyldibenzo[b,d]thiophene (Liquid); method: Density calibration data
Temperature, K	Mole fraction of 4,6-dimethyldibenzo[b,d]thiophene	uncertainty
298.2	0.01	0.01
313.2	0.0165	0.0001

System: dodecane + 4,6-dimethyldibenzo[b,d]thiophene; phases: Liquid
Fixed: Pressure, kPa = 101
Property: Mass density, kg/m3 (Liquid); method: Vibrating tube method
Temperature, K	Mole fraction of 4,6-dimethyldibenzo[b,d]thiophene	Mass density, kg/m3	uncertainty
298.2	0.0031	746.102	0.241
298.2	0.0053	746.82	0.24
298.2	0.0076	747.546	0.241
313.2	0.0031	735.193	0.244
313.2	0.0053	735.931	0.245
313.2	0.0076	736.664	0.245
