Measured thermophysical data. Phase Equilibria of Three Binary Mixtures: Methanethiol + Methane, Methanethiol + Nitrogen, and Methanethiol + Carbon Dioxide
Source: J. Chem. Eng. Data, 2012, 10.1021/je2011049
Compound 1: methanethiol, CH4S, InChI=1S/CH4S/c1-2/h2H,1H3
Compound 2: methane, CH4, InChI=1S/CH4/h1H4
Compound 3: nitrogen, N2, InChI=1S/N2/c1-2
Compound 4: carbon dioxide, CO2, InChI=1S/CO2/c2-1-3

System: methane + methanethiol; phases: Liquid, Gas
Property: Vapor or sublimation pressure, kPa (Liquid); method: CCELL:UFactor:8
Temperature, K	Mole fraction of methane	Vapor or sublimation pressure, kPa	uncertainty
304.74	0.0147	1209	33
304.74	0.0376	2731	86
304.75	0.0523	3654	112
304.75	0.071	4893	151
304.75	0.0882	5960	179
304.75	0.102	6838	196
304.75	0.1202	7924	224
333.7	0.0091	1116	37
333.7	0.0214	2013	85
333.7	0.0371	3048	107
333.7	0.055	4136	152
333.7	0.0738	5347	185
333.7	0.093	6588	215
333.7	0.1198	8295	256
334.28	0.1311	8987	265
363.82	0.0007	1213	56
363.82	0.0338	3416	177
363.82	0.0552	4717	170
363.82	0.0852	6589	185
363.82	0.108	7975	207
363.82	0.1331	9402	235

System: methane + methanethiol; phases: Gas, Liquid
Property: Mole fraction of methane (Gas); method: Chromatography
Temperature, K	Pressure, kPa	Mole fraction of methane	uncertainty
304.74	1201	0.725	0.0077
304.74	2706	0.8632	0.0044
304.75	3625	0.8929	0.0035
304.75	4789	0.9116	0.0031
304.75	5858	0.9169	0.0029
304.75	6720	0.9186	0.0025
304.75	7776	0.9204	0.0023
333.7	1106	0.472	0.0063
333.7	1990	0.6409	0.0066
333.7	3014	0.7447	0.005
333.7	4086	0.8018	0.0042
333.7	5278	0.8371	0.0039
333.7	6473	0.8545	0.0035
333.7	8180	0.8705	0.0032
334.28	8853	0.8716	0.0034
363.82	1213	0.025	0.004
363.82	3396	0.4995	0.0064
363.82	4669	0.6172	0.0057
363.82	6535	0.6867	0.0059
363.82	7906	0.7196	0.0069
363.82	9267	0.7319	0.0111

System: methanethiol + nitrogen; phases: Liquid, Gas
Property: Vapor or sublimation pressure, kPa (Liquid); method: CCELL:UFactor:8
Temperature, K	Mole fraction of nitrogen	Vapor or sublimation pressure, kPa	uncertainty
304.07	0.0025	1111	69
304.07	0.0063	2317	145
304.07	0.0104	3734	224
304.07	0.0186	6490	258
333.78	0.0031	1307	67
333.78	0.0071	2468	129
333.78	0.0127	4035	236
333.78	0.0188	5597	250
333.78	0.0231	6736	270
363.64	0.0075	2665	80
363.64	0.0144	4197	168
363.64	0.0148	4328	283
363.64	0.0273	6667	218
363.64	0.0373	8308	245

System: methanethiol + nitrogen; phases: Gas, Liquid
Property: Mole fraction of nitrogen (Gas); method: Chromatography
Temperature, K	Pressure, kPa	Mole fraction of nitrogen	uncertainty
304.07	1091	0.7139	0.0082
304.07	2267	0.8535	0.0051
304.07	3661	0.9015	0.0035
304.07	6394	0.9343	0.0036
333.78	1285	0.4313	0.0098
333.78	2434	0.6611	0.0067
333.78	3957	0.7693	0.0048
333.78	5511	0.8244	0.0048
333.78	6637	0.85	0.0049
363.64	2622	0.3981	0.0096
363.64	4219	0.5976	0.007
363.64	4392	0.6012	0.0058
363.64	6518	0.7027	0.0055
363.64	8138	0.7415	0.0055

System: methanethiol + carbon dioxide; phases: Liquid, Gas
Property: Vapor or sublimation pressure, kPa (Liquid); method: CCELL:UFactor:8
Temperature, K	Mole fraction of carbon dioxide	Vapor or sublimation pressure, kPa	uncertainty
303.8	0.0712	1015	53
303.8	0.1722	1929	63
303.8	0.3725	3300	90
333.4	0.041	1451	79
333.4	0.1259	2523	87
333.4	0.2921	4508	128
363.48	0.0629	2472	332
363.48	0.2183	4959	345
363.48	0.3661	7513	372

System: methanethiol + carbon dioxide; phases: Gas, Liquid
Property: Mole fraction of carbon dioxide (Gas); method: Chromatography
Temperature, K	Pressure, kPa	Mole fraction of carbon dioxide	uncertainty
303.8	1011	0.6322	0.0092
303.8	1918	0.803	0.0086
303.8	3290	0.861	0.0087
333.4	1472	0.3887	0.0085
333.4	2512	0.6076	0.0086
333.4	4448	0.6134	0.0089
363.48	2444	0.3667	0.0094
363.48	4915	0.5874	0.0092
363.48	7525	0.6655	0.0086
