Measured thermophysical data. Measurement and Modeling of the Solubility of Tetramethylthiuram Disulfide and 2-Nitrophenyl Disulfide in Compressed Propane
Source: J. Chem. Eng. Data, 2012, 10.1021/je201186h
Compound 1: thioperoxydicarbonic diamide, tetramethyl-, C6H12N2S4, InChI=1S/C6H12N2S4/c1-7(2)5(9)11-12-6(10)8(3)4/h1-4H3, purity 97%
Compound 2: 1,2-bis(2-nitrophenyl)disulfane, C12H8N2O4S2, InChI=1S/C12H8N2O4S2/c15-13(16)9-5-1-3-7-11(9)19-20-12-8-4-2-6-10(12)14(17)18/h1-8H, purity 99%
Compound 3: propane, C3H8, InChI=1S/C3H8/c1-3-2/h3H2,1-2H3, purity 99.5%

System: propane + thioperoxydicarbonic diamide, tetramethyl-; phases: Liquid, Crystal
Property: Mole fraction of thioperoxydicarbonic diamide, tetramethyl- (Liquid); method: Phase equilibration
Temperature, K	Pressure, kPa	Mole fraction of thioperoxydicarbonic diamide, tetramethyl-	uncertainty
347	6100	1.6e-05	1.5e-05
347	7600	3.2e-05	1.6e-05
347	8800	3.6e-05	1.5e-05
347	11000	6.1e-05	1e-05
347	11400	8.3e-05	9e-06
370	4800	4.2e-05	1.7e-05
370	6100	6.8e-05	9e-06
370	6200	7.1e-05	9e-06
370	7500	8.7e-05	9e-06
370	9300	9.9e-05	1.1e-05
370	12000	0.0001	1e-05
370	12300	0.00011	1e-05
370	12700	0.00012	1e-05
393	6100	3.6e-05	1.3e-05
393	7400	4.9e-05	1.3e-05
393	7600	8.7e-05	1.2e-05
393	9400	0.00011	1e-05

System: propane + 1,2-bis(2-nitrophenyl)disulfane; phases: Liquid, Crystal
Property: Mole fraction of 1,2-bis(2-nitrophenyl)disulfane (Liquid); method: Phase equilibration
Temperature, K	Pressure, kPa	Mole fraction of 1,2-bis(2-nitrophenyl)disulfane	uncertainty
347	7000	9.6e-05	6e-05
347	7700	1.9e-05	1.9e-05
347	8400	2.5e-05	6e-06
347	10200	3.5e-05	1e-05
347	10900	7.1e-05	1.1e-05
347	12900	0.0001	1e-05
370	6700	8.1e-06	8.1e-06
370	7000	8.8e-06	8.8e-06
370	7700	1.9e-05	1e-05
370	8000	3.9e-05	1e-05
370	9400	6.2e-05	1.1e-05
370	11200	8e-05	7e-06
370	11500	8.3e-05	6e-06
370	12000	8.6e-05	6e-06
393	7200	1.1e-05	5e-06
393	7600	1.3e-05	7e-06
393	8000	1.4e-05	8e-06
393	8400	2.2e-05	8e-06
393	10900	4.7e-05	9e-06
393	11900	8.3e-05	1.5e-05
