Measured thermophysical data. Ebulliometric Determination and Prediction of Vapor Liquid Equilibria for Binary Mixtures of Ethanol and Ethyl Hexanoate
Source: J. Chem. Eng. Data, 2011, 10.1021/je200868y
Compound 1: ethanol, C2H6O, InChI=1S/C2H6O/c1-2-3/h3H,2H2,1H3
Compound 2: ethyl hexanoate, C8H16O2, InChI=1S/C8H16O2/c1-3-5-6-7-8(9)10-4-2/h3-7H2,1-2H3
Compound 3: 1,4-dimethylbenzene, C8H10, InChI=1S/C8H10/c1-7-3-5-8(2)6-4-7/h3-6H,1-2H3

System: ethanol; phases: Liquid
Property: Mass density, kg/m3 (Liquid); method: Vibrating tube method
Temperature, K	Pressure, kPa	Mass density, kg/m3	uncertainty
298.15	101.325	785.18	0.15

System: ethanol; phases: Liquid, Gas
Property: Vapor or sublimation pressure, kPa (Liquid); method: EBULLIO:UFactor:8
Temperature, K	Vapor or sublimation pressure, kPa	uncertainty
329.69	40	1.54
336.07	53.33	1.97321
341.23	66.66	2.36643
345.6	79.99	2.79965
349.39	93.32	3.21954
351.44	101.3	3.4442

System: ethyl hexanoate; phases: Liquid
Property: Mass density, kg/m3 (Liquid); method: Vibrating tube method
Temperature, K	Pressure, kPa	Mass density, kg/m3	uncertainty
298.15	101.325	865.59	0.11

System: ethyl hexanoate; phases: Liquid, Gas
Property: Vapor or sublimation pressure, kPa (Liquid); method: EBULLIO:UFactor:8
Temperature, K	Vapor or sublimation pressure, kPa	uncertainty
408.31	40	1.54
417.74	53.33	1.97321
425.39	66.66	2.36643
431.86	79.99	2.79965
437.53	93.32	3.21954
440.57	101.3	3.4442

System: 1,4-dimethylbenzene; phases: Liquid
Property: Mass density, kg/m3 (Liquid); method: Vibrating tube method
Temperature, K	Pressure, kPa	Mass density, kg/m3	uncertainty
298.15	101.325	856.68	0.12

System: 1,4-dimethylbenzene; phases: Liquid, Gas
Property: Vapor or sublimation pressure, kPa (Liquid); method: EBULLIO::UFactor:8
Temperature, K	Vapor or sublimation pressure, kPa	uncertainty
379.81	40	1.54
388.96	53.33	1.97321
396.45	66.66	2.36643
402.82	79.99	2.79965
408.4	93.32	3.21954
411.48	101.3	3.4442

System: ethanol + 1,4-dimethylbenzene; phases: Liquid, Gas
Property: Boiling temperature at pressure P, K (Liquid); method: EBULLIO:UFactor:8
Pressure, kPa	Mole fraction of ethanol	Boiling temperature at pressure P, K	uncertainty
40	0	379.81	0.77
40	0.1	339.47	0.77
40	0.2	335.39	0.77
40	0.3007	334.54	0.77
40	0.4	333.19	0.77
40	0.4997	332.04	0.77
40	0.6	331.51	0.77
40	0.7	330.87	0.77
40	0.7999	330.53	0.77
40	0.9	329.95	0.77
40	1	329.69	0.77
53.33	0	388.96	0.74
53.33	0.1	347.29	0.74
53.33	0.1501	344.42	0.74
53.33	0.2	342.87	0.74
53.33	0.2499	342.41	0.74
53.33	0.3007	341.67	0.74
53.33	0.4	340.31	0.74
53.33	0.4997	338.65	0.74
53.33	0.6	338.15	0.74
53.33	0.7	337.48	0.74
53.33	0.7999	337.06	0.74
53.33	0.9	336.39	0.74
53.33	1	336.07	0.74
66.66	0	396.45	0.71
66.66	0.1	353.52	0.71
66.66	0.1501	350.52	0.71
66.66	0.2	349.05	0.71
66.66	0.3007	347.09	0.71
66.66	0.4	345.78	0.71
66.66	0.4997	344.14	0.71
66.66	0.6	343.57	0.71
66.66	0.7	342.89	0.71
66.66	0.7999	342.31	0.71
66.66	0.9	341.62	0.71
66.66	1	341.23	0.71
79.99	0	402.82	0.7
79.99	0.1	359.33	0.7
79.99	0.1501	355.63	0.7
79.99	0.2	354.37	0.7
79.99	0.2499	353.17	0.7
79.99	0.3007	351.39	0.7
79.99	0.4	350.32	0.7
79.99	0.4997	348.85	0.7
79.99	0.6	348.18	0.7
79.99	0.7	347.45	0.7
79.99	0.7999	346.75	0.7
79.99	0.9	346.03	0.7
79.99	1	345.6	0.7
93.32	0	408.4	0.69
93.32	0.1	364.14	0.69
93.32	0.1501	359.98	0.69
93.32	0.2	359.14	0.69
93.32	0.3007	355.86	0.69
93.32	0.4	354.43	0.69
93.32	0.4997	352.97	0.69
93.32	0.6	352.21	0.69
93.32	0.7	351.41	0.69
93.32	0.7999	350.63	0.69
93.32	0.9	349.87	0.69
93.32	1	349.39	0.69
101.3	0	411.48	0.68
101.3	0.1	369.38	0.68
101.3	0.2	361.88	0.68
101.3	0.2499	359.43	0.68
101.3	0.3	358.12	0.68
101.3	0.4	355.9	0.68
101.3	0.4999	355.45	0.68
101.3	0.6	353.98	0.68
101.3	0.7	353.46	0.68
101.3	0.8	352.65	0.68
101.3	0.9	351.9	0.68
101.3	1	351.44	0.68

System: ethanol + ethyl hexanoate; phases: Liquid, Gas
Property: Boiling temperature at pressure P, K (Liquid); method: EBULLIO:UFactor:8
Pressure, kPa	Mole fraction of ethanol	Boiling temperature at pressure P, K	uncertainty
40	0	408.31	0.77
40	0.0501	384.52	0.77
40	0.1001	371.26	0.77
40	0.2001	356.64	0.77
40	0.3001	347.77	0.77
40	0.3999	342.37	0.77
40	0.5	338.61	0.77
40	0.6	336.21	0.77
40	0.6998	334.13	0.77
40	0.7999	332.21	0.77
40	0.9	330.55	0.77
40	1	329.69	0.77
53.33	0	417.74	0.74
53.33	0.1001	382.39	0.74
53.33	0.2001	366.27	0.74
53.33	0.3001	355.49	0.74
53.33	0.3999	349.92	0.74
53.33	0.5	345.66	0.74
53.33	0.6	343.1	0.74
53.33	0.6998	340.86	0.74
53.33	0.7999	338.87	0.74
53.33	0.9	336.92	0.74
53.33	1	336.07	0.74
66.66	0	425.39	0.71
66.66	0.0501	402.56	0.71
66.66	0.1001	390.53	0.71
66.66	0.2001	373.46	0.71
66.66	0.3001	363.17	0.71
66.66	0.3999	356.09	0.71
66.66	0.5	351.39	0.71
66.66	0.6	348.62	0.71
66.66	0.6998	346.55	0.71
66.66	0.7999	344.21	0.71
66.66	0.9	342.21	0.71
66.66	1	341.23	0.71
79.99	0	431.86	0.7
79.99	0.0501	408.96	0.7
79.99	0.1001	396.15	0.7
79.99	0.1999	381.35	0.7
79.99	0.3001	369.43	0.7
79.99	0.3999	362.5	0.7
79.99	0.4998	356.53	0.7
79.99	0.6	353.62	0.7
79.99	0.6998	351.31	0.7
79.99	0.8	349.05	0.7
79.99	0.9	347.06	0.7
79.99	1	345.6	0.7
93.32	0	437.53	0.69
93.32	0.1001	401.71	0.69
93.32	0.1999	386.08	0.69
93.32	0.3001	374.92	0.69
93.32	0.3997	366.56	0.69
93.32	0.5	361.18	0.69
93.32	0.6	357.85	0.69
93.32	0.6998	355.37	0.69
93.32	0.7999	353.08	0.69
93.32	0.8997	351.37	0.69
93.32	1	349.39	0.69
101.3	0	440.57	0.68
101.3	0.0501	418.52	0.68
101.3	0.1001	404.83	0.68
101.3	0.1999	388.82	0.68
101.3	0.3001	378.01	0.68
101.3	0.3997	369.05	0.68
101.3	0.5	363.61	0.68
101.3	0.6	360.07	0.68
101.3	0.7	357.19	0.68
101.3	0.8	355.13	0.68
101.3	0.9	353.32	0.68
101.3	1	351.44	0.68
