Measured thermophysical data. Isobaric Vapor Liquid Equilibria for the 1-Propanol + Ethylene Glycol Monopropyl Ether and 1-Butanol + Ethylene Glycol Monopropyl Ether Systems
Source: J. Chem. Eng. Data, 2011, 10.1021/je2008236
Compound 1: propan-1-ol, C3H8O, InChI=1S/C3H8O/c1-2-3-4/h4H,2-3H2,1H3, purity 99.9%
Compound 2: 2-propoxyethanol, C5H12O2, InChI=1S/C5H12O2/c1-2-4-7-5-3-6/h6H,2-5H2,1H3, purity 99.4%
Compound 3: butan-1-ol, C4H10O, InChI=1S/C4H10O/c1-2-3-4-5/h5H,2-4H2,1H3, purity 99.7%

System: propan-1-ol; phases: Liquid, Gas
Property: Vapor or sublimation pressure, kPa (Liquid); method: Ebulliometric method (Recirculating still)
Temperature, K	Vapor or sublimation pressure, kPa	uncertainty
357.1	60	0.75
364.2	80	1
370	100	1.25

System: 2-propoxyethanol; phases: Liquid, Gas
Property: Vapor or sublimation pressure, kPa (Liquid); method: Ebulliometric method (Recirculating still)
Temperature, K	Vapor or sublimation pressure, kPa	uncertainty
406.15	60	0.75
415.3	80	1
422.75	100	1.25

System: butan-1-ol; phases: Liquid, Gas
Property: Vapor or sublimation pressure, kPa (Liquid); method: Ebulliometric method (Recirculating still)
Temperature, K	Vapor or sublimation pressure, kPa	uncertainty
376.78	60	0.51
384.28	80	0.76
390.28	100	1

System: propan-1-ol + 2-propoxyethanol; phases: Liquid, Gas
Property: Boiling temperature at pressure P, K (Liquid); method: Ebulliometric method (Recirculating still)
Mole fraction of propan-1-ol	Pressure, kPa	Boiling temperature at pressure P, K	uncertainty
0	60	406.15	0.25
0	80	415.3	0.25
0	100	422.75	0.25
0.01805	60	403.59	0.25
0.01807	80	412.82	0.25
0.02056	100	420.34	0.25
0.03923	60	401.09	0.25
0.03939	80	410.05	0.25
0.04923	100	416.78	0.25
0.07233	80	406.8	0.25
0.07247	60	397.97	0.25
0.07865	100	413.6	0.25
0.10376	80	403.81	0.25
0.10588	60	394.73	0.25
0.10999	100	410.47	0.25
0.14869	60	391.12	0.25
0.15358	100	406.78	0.25
0.15837	80	399.34	0.25
0.20718	60	386.96	0.25
0.2123	100	402.13	0.25
0.21568	80	394.86	0.25
0.27204	80	390.96	0.25
0.27958	60	382.88	0.25
0.28264	100	397.11	0.25
0.37833	80	385.66	0.25
0.38637	100	391.32	0.25
0.38693	60	377.49	0.25
0.51059	80	379.43	0.25
0.51085	100	385.77	0.25
0.51977	60	371.95	0.25
0.65621	60	366.61	0.25
0.66334	100	379.85	0.25
0.66614	80	374.01	0.25
0.79713	60	362.02	0.25
0.81573	80	369.1	0.25
0.83141	100	374.44	0.25
0.90913	100	372.2	0.25
0.91872	60	358.84	0.25
0.9197	80	366.12	0.25
1	60	357.1	0.25
1	80	364.2	0.25
1	100	370	0.25

System: propan-1-ol + 2-propoxyethanol; phases: Gas, Liquid
Property: Mole fraction of propan-1-ol (Gas); method: Chromatography
Mole fraction of propan-1-ol	Pressure, kPa	Mole fraction of propan-1-ol	uncertainty
0	60	0	
0	80	0	
0	100	0	
0.01805	60	0.10223	0.00193
0.01807	80	0.08974	0.00779
0.02056	100	0.08769	0.01029
0.03923	60	0.19481	0.00673
0.03939	80	0.18435	0.00817
0.04923	100	0.20814	0.01502
0.07233	80	0.30538	0.03661
0.07247	60	0.29272	0.00544
0.07865	100	0.31235	0.00569
0.10376	80	0.3914	0.01483
0.10588	60	0.391	0.00672
0.10999	100	0.4052	0.01213
0.14869	60	0.50005	0.01367
0.15358	100	0.50186	0.00855
0.15837	80	0.51175	0.02984
0.20718	60	0.61116	0.01294
0.2123	100	0.60424	0.00892
0.21568	80	0.62045	0.0127
0.27204	80	0.69788	0.01497
0.27958	60	0.7007	0.00599
0.28264	100	0.69849	0.005
0.37833	80	0.7872	0.00834
0.38637	100	0.79505	0.00477
0.38693	60	0.79214	0.01417
0.51059	80	0.87831	0.0088
0.51085	100	0.8716	0.00434
0.51977	60	0.87121	0.00685
0.65621	60	0.93091	0.00865
0.66334	100	0.9311	0.00184
0.66614	80	0.93019	0.0068
0.79713	60	0.96687	0.00066
0.81573	80	0.96897	0.00123
0.83141	100	0.97112	0.00404
0.90913	100	0.98609	0.00035
0.91872	60	0.98911	0.00052
0.9197	80	0.98793	0.00147
1	60	1	
1	80	1	
1	100	1	

System: butan-1-ol + 2-propoxyethanol; phases: Liquid, Gas
Property: Boiling temperature at pressure P, K (Liquid); method: Ebulliometric method (Recirculating still)
Mole fraction of butan-1-ol	Pressure, kPa	Boiling temperature at pressure P, K	uncertainty
0	60	406.15	0.21
0	80	415.3	0.23
0	100	422.75	0.25
0.03962	100	420.72	0.24
0.04552	80	413.19	0.23
0.04614	60	404.19	0.2
0.08188	100	418.46	0.24
0.08733	60	402.25	0.21
0.08825	80	411.12	0.23
0.13267	100	415.82	0.24
0.13887	80	408.61	0.22
0.13939	60	399.78	0.2
0.18842	80	406.29	0.26
0.18846	60	397.64	0.3
0.18868	100	413.29	0.24
0.24334	80	404.1	0.25
0.24735	100	410.76	0.35
0.24786	60	395.4	0.25
0.3128	60	393.05	0.29
0.31307	80	401.47	0.25
0.31407	100	408.33	0.24
0.39892	100	405.45	0.24
0.40302	80	398.54	0.21
0.40741	60	390.2	0.19
0.49784	80	395.79	0.21
0.49787	60	387.67	0.33
0.4994	100	402.24	0.22
0.59756	100	399.28	0.21
0.59811	60	385.05	0.21
0.60674	80	392.95	0.2
0.69388	60	382.71	0.19
0.70294	80	390.56	0.19
0.70498	100	396.34	0.21
0.80445	100	393.88	0.21
0.80483	60	380.12	0.22
0.80876	80	387.91	0.42
0.88513	100	392.33	0.2
0.91151	60	378.14	0.17
0.91768	80	385.75	0.24
0.95789	100	391.06	0.21
1	60	376.78	0.17
1	80	384.28	0.19
1	100	390.28	0.2

System: butan-1-ol + 2-propoxyethanol; phases: Gas, Liquid
Property: Mole fraction of butan-1-ol (Gas); method: Chromatography
Mole fraction of butan-1-ol	Pressure, kPa	Mole fraction of butan-1-ol	uncertainty
0	60	0	
0	80	0	
0	100	0	
0.03962	100	0.10713	0.00189
0.04552	80	0.11257	0.00291
0.04614	60	0.11387	0.00138
0.08188	100	0.20298	0.00197
0.08733	60	0.20964	0.00375
0.08825	80	0.21358	0.00398
0.13267	100	0.30908	0.00461
0.13887	80	0.31861	0.00328
0.13939	60	0.31646	0.00468
0.18842	80	0.40795	0.00979
0.18846	60	0.40196	0.01333
0.18868	100	0.40387	0.00419
0.24334	80	0.48992	0.00679
0.24735	100	0.49212	0.01048
0.24786	60	0.49402	0.0097
0.3128	60	0.5794	0.00929
0.31307	80	0.58036	0.00713
0.31407	100	0.5784	0.00492
0.39892	100	0.65736	0.00621
0.40302	80	0.67335	0.00829
0.40741	60	0.6788	0.00944
0.49784	80	0.75512	0.00262
0.49787	60	0.75345	0.00781
0.4994	100	0.74857	0.00395
0.59756	100	0.82571	0.00485
0.59811	60	0.81585	0.00327
0.60674	80	0.82205	0.0037
0.69388	60	0.87353	0.00279
0.70294	80	0.87709	0.00728
0.70498	100	0.88626	0.00204
0.80445	100	0.93486	0.00198
0.80483	60	0.9312	0.0065
0.80876	80	0.92965	0.00811
0.88513	100	0.96288	0.00376
0.91151	60	0.97161	0.0009
0.91768	80	0.97121	0.0072
0.95789	100	0.98874	0.00278
1	60	1	
1	80	1	
1	100	1	
