Measured thermophysical data. Partial Molar Volumes and Viscosity B-Coefficients of N,N'-Ethylene-bis(salicylideneiminato)cobalt(II) in Binary Mixtures of 1,4-Dioxane + Methanol at T = (298.15, 303.15, 308.15, and 313.15) K
Source: J. Chem. Eng. Data, 2011, 10.1021/je200145r
Compound 1: 1,4-dioxane, C4H8O2, InChI=1S/C4H8O2/c1-2-6-4-3-5-1/h1-4H2, purity 99%
Compound 2: methanol, CH4O, InChI=1S/CH4O/c1-2/h2H,1H3, purity 99%
Compound 3: [[2,2'-[1,2-ethanediylbis(nitrilomethylidyne)]bis[phenolato]](2-)-N,N',O,O']cobalt, C16H14CoN2O2, InChI=1S/C16H16N2O2.Co/c19-15-7-3-1-5-13(15)11-17-9-10-18-12-14-6-2-4-8-16(14)20;/h1-8,11-12,19-20H,9-10H2;/q;+2/p-2/b17-11+,18-12+;, purity 98%

System: methanol + 1,4-dioxane; phases: Liquid
Fixed: Pressure, kPa = 101
Property: Viscosity, Pa*s (Liquid); method: Capillary tube (Ostwald; Ubbelohde) method
Mass fraction of 1,4-dioxane	Temperature, K	Viscosity, Pa*s	uncertainty
0.1	298.15	0.00055	7e-06
0.1	303.15	0.000511	7e-06
0.1	308.15	0.000473	7e-06
0.1	313.15	0.000432	7e-06
0.2	298.15	0.000554	7e-06
0.2	303.15	0.000517	7e-06
0.2	308.15	0.000482	7e-06
0.2	313.15	0.000448	7e-06
0.3	298.15	0.000565	8e-06
0.3	303.15	0.000527	7e-06
0.3	308.15	0.000489	7e-06
0.3	313.15	0.000452	7e-06
0.4	298.15	0.000587	8e-06
0.4	303.15	0.000548	7e-06
0.4	308.15	0.000508	7e-06
0.4	313.15	0.000467	7e-06

System: methanol + 1,4-dioxane; phases: Liquid
Fixed: Pressure, kPa = 101
Property: Mass density, kg/m3 (Liquid); method: VIBTUB:UFactor:6
Mass fraction of 1,4-dioxane	Temperature, K	Mass density, kg/m3	uncertainty
0.1	298.15	811.2	0.8
0.1	303.15	806.4	0.8
0.1	308.15	801.7	0.8
0.1	313.15	796.9	0.8
0.2	298.15	834.4	0.8
0.2	303.15	828.8	0.8
0.2	308.15	823.4	0.8
0.2	313.15	818.4	0.8
0.3	298.15	852.5	0.7
0.3	303.15	847.4	0.7
0.3	308.15	842.6	0.8
0.3	313.15	838	0.8
0.4	298.15	875.1	0.7
0.4	303.15	870.2	0.7
0.4	308.15	865.5	0.7
0.4	313.15	860.6	0.7

System: methanol + [[2,2'-[1,2-ethanediylbis(nitrilomethylidyne)]bis[phenolato]](2-)-N,N',O,O']cobalt; phases: Liquid
Fixed: Pressure, kPa = 101
Property: Viscosity, Pa*s (Liquid); method: Capillary tube (Ostwald; Ubbelohde) method
Temperature, K	Amount concentration (molarity), mol/dm3 of [[2,2'-[1,2-ethanediylbis(nitrilomethylidyne)]bis[phenolato]](2-)-N,N',O,O']cobalt	Viscosity, Pa*s	uncertainty
298.15	0.0028	0.000551	8e-06
298.15	0.0036	0.000555	8e-06
298.15	0.0048	0.000561	8e-06
298.15	0.0068	0.000572	8e-06
298.15	0.0084	0.000582	8e-06
298.15	0.01	0.000593	8e-06
303.15	0.0028	0.000512	8e-06
303.15	0.0036	0.000516	8e-06
303.15	0.0048	0.000521	8e-06
303.15	0.0068	0.000533	8e-06
303.15	0.0084	0.00054	8e-06
303.15	0.0099	0.000552	8e-06
308.15	0.0028	0.000473	7e-06
308.15	0.0036	0.000478	8e-06
308.15	0.0047	0.000483	8e-06
308.15	0.0068	0.000495	8e-06
308.15	0.0083	0.000502	8e-06
308.15	0.0099	0.000515	8e-06
313.15	0.0028	0.000453	7e-06
313.15	0.0036	0.000457	7e-06
313.15	0.0047	0.000463	7e-06
313.15	0.0067	0.000474	8e-06
313.15	0.0083	0.000481	8e-06
313.15	0.0098	0.000494	8e-06

System: methanol + [[2,2'-[1,2-ethanediylbis(nitrilomethylidyne)]bis[phenolato]](2-)-N,N',O,O']cobalt; phases: Liquid
Fixed: Pressure, kPa = 101
Fixed: Temperature, K = 298.15
Property: Refractive index (Na D-line) (Liquid); method: Standard Abbe refractometry
Amount concentration (molarity), mol/dm3 of [[2,2'-[1,2-ethanediylbis(nitrilomethylidyne)]bis[phenolato]](2-)-N,N',O,O']cobalt	Refractive index (Na D-line)	uncertainty
0.0028	1.334	0.0006
0.0036	1.3345	0.0006
0.0048	1.3352	0.0006
0.0068	1.336	0.0006
0.0084	1.3371	0.0006
0.01	1.338	0.0006

System: methanol + [[2,2'-[1,2-ethanediylbis(nitrilomethylidyne)]bis[phenolato]](2-)-N,N',O,O']cobalt; phases: Liquid
Fixed: Pressure, kPa = 101
Property: Mass density, kg/m3 (Liquid); method: Vibrating tube method
Temperature, K	Amount concentration (molarity), mol/dm3 of [[2,2'-[1,2-ethanediylbis(nitrilomethylidyne)]bis[phenolato]](2-)-N,N',O,O']cobalt	Mass density, kg/m3	uncertainty
298.15	0.0028	787.1	0.5
298.15	0.0036	787.3	0.5
298.15	0.0048	787.6	0.5
298.15	0.0068	788.2	0.5
298.15	0.0084	788.6	0.5
298.15	0.01	789	0.5
303.15	0.0028	782.3	0.5
303.15	0.0036	782.5	0.5
303.15	0.0048	782.8	0.5
303.15	0.0068	783.4	0.5
303.15	0.0084	783.8	0.5
303.15	0.0099	784.2	0.5
308.15	0.0028	777.4	0.5
308.15	0.0036	777.6	0.5
308.15	0.0047	777.9	0.5
308.15	0.0068	778.5	0.5
308.15	0.0083	778.9	0.5
308.15	0.0099	779.3	0.5
313.15	0.0028	773.3	0.5
313.15	0.0036	773.5	0.5
313.15	0.0047	773.8	0.5
313.15	0.0067	774.4	0.5
313.15	0.0083	774.8	0.5
313.15	0.0098	775.2	0.5

System: methanol + 1,4-dioxane + [[2,2'-[1,2-ethanediylbis(nitrilomethylidyne)]bis[phenolato]](2-)-N,N',O,O']cobalt; phases: Liquid
Fixed: Pressure, kPa = 101
Fixed: Temperature, K = 298.15
Property: Refractive index (Na D-line) (Liquid); method: Standard Abbe refractometry
Solvent: Mass fraction of 1,4-dioxane	Amount concentration (molarity), mol/dm3 of [[2,2'-[1,2-ethanediylbis(nitrilomethylidyne)]bis[phenolato]](2-)-N,N',O,O']cobalt	Refractive index (Na D-line)	uncertainty
0	0.0028	1.334	0.0006
0	0.0036	1.3345	0.0006
0	0.0048	1.3352	0.0006
0	0.0068	1.336	0.0006
0	0.0084	1.3371	0.0006
0	0.01	1.338	0.0006
0.1	0.0028	1.3345	0.0006
0.1	0.0036	1.3351	0.0006
0.1	0.0048	1.336	0.0006
0.1	0.0068	1.3371	0.0006
0.1	0.0084	1.338	0.0006
0.1	0.01	1.3385	0.0006
0.2	0.0028	1.3381	0.0007
0.2	0.0036	1.3385	0.0006
0.2	0.0048	1.3394	0.0006
0.2	0.0068	1.3401	0.0006
0.2	0.0084	1.341	0.0006
0.2	0.01	1.342	0.0007
0.3	0.0028	1.348	0.0006
0.3	0.0036	1.3485	0.0006
0.3	0.0048	1.3492	0.0006
0.3	0.0068	1.3502	0.0006
0.3	0.0084	1.3514	0.0006
0.3	0.01	1.3521	0.0006
0.4	0.0028	1.361	0.0006
0.4	0.0036	1.3621	0.0006
0.4	0.0048	1.3632	0.0006
0.4	0.0068	1.364	0.0006
0.4	0.0084	1.3651	0.0006
0.4	0.01	1.3663	0.0006

System: methanol + 1,4-dioxane + [[2,2'-[1,2-ethanediylbis(nitrilomethylidyne)]bis[phenolato]](2-)-N,N',O,O']cobalt; phases: Liquid
Fixed: Pressure, kPa = 101
Property: Viscosity, Pa*s (Liquid); method: Capillary tube (Ostwald; Ubbelohde) method
Solvent: Mass fraction of 1,4-dioxane	Temperature, K	Amount concentration (molarity), mol/dm3 of [[2,2'-[1,2-ethanediylbis(nitrilomethylidyne)]bis[phenolato]](2-)-N,N',O,O']cobalt	Viscosity, Pa*s	uncertainty
0	298.15	0.0028	0.000551	8e-06
0	298.15	0.0036	0.000555	8e-06
0	298.15	0.0048	0.000561	8e-06
0	298.15	0.0068	0.000572	8e-06
0	298.15	0.0084	0.000582	8e-06
0	298.15	0.01	0.000593	8e-06
0	303.15	0.0028	0.000512	8e-06
0	303.15	0.0036	0.000516	8e-06
0	303.15	0.0048	0.000521	8e-06
0	303.15	0.0068	0.000533	8e-06
0	303.15	0.0084	0.00054	8e-06
0	303.15	0.0099	0.000552	8e-06
0	308.15	0.0028	0.000473	7e-06
0	308.15	0.0036	0.000478	8e-06
0	308.15	0.0047	0.000483	8e-06
0	308.15	0.0068	0.000495	8e-06
0	308.15	0.0083	0.000502	8e-06
0	308.15	0.0099	0.000515	8e-06
0	313.15	0.0028	0.000453	7e-06
0	313.15	0.0036	0.000457	7e-06
0	313.15	0.0047	0.000463	7e-06
0	313.15	0.0067	0.000474	8e-06
0	313.15	0.0083	0.000481	8e-06
0	313.15	0.0098	0.000494	8e-06
0.1	298.15	0.0028	0.000556	8e-06
0.1	298.15	0.0036	0.000559	8e-06
0.1	298.15	0.0048	0.000565	8e-06
0.1	298.15	0.0068	0.000575	8e-06
0.1	298.15	0.0084	0.000585	8e-06
0.1	298.15	0.01	0.000594	8e-06
0.1	303.15	0.0028	0.000516	8e-06
0.1	303.15	0.0035	0.00052	8e-06
0.1	303.15	0.0048	0.000526	8e-06
0.1	303.15	0.0068	0.000536	8e-06
0.1	303.15	0.0084	0.000545	8e-06
0.1	303.15	0.0099	0.000556	8e-06
0.1	308.15	0.0028	0.000478	8e-06
0.1	308.15	0.0035	0.000482	8e-06
0.1	308.15	0.0047	0.000487	8e-06
0.1	308.15	0.0067	0.000497	8e-06
0.1	308.15	0.0083	0.000505	8e-06
0.1	308.15	0.0098	0.000516	8e-06
0.1	313.15	0.0028	0.000437	8e-06
0.1	313.15	0.0035	0.000441	7e-06
0.1	313.15	0.0047	0.000447	7e-06
0.1	313.15	0.0067	0.000457	7e-06
0.1	313.15	0.0083	0.000464	8e-06
0.1	313.15	0.0098	0.000475	8e-06
0.2	298.15	0.0028	0.000558	8e-06
0.2	298.15	0.0036	0.000562	8e-06
0.2	298.15	0.0048	0.000568	8e-06
0.2	298.15	0.0068	0.000576	8e-06
0.2	298.15	0.0084	0.000586	8e-06
0.2	298.15	0.01	0.000593	8e-06
0.2	303.15	0.0028	0.000521	8e-06
0.2	303.15	0.0036	0.000525	8e-06
0.2	303.15	0.0048	0.000531	8e-06
0.2	303.15	0.0068	0.000541	8e-06
0.2	303.15	0.0084	0.000549	8e-06
0.2	303.15	0.0099	0.000555	8e-06
0.2	308.15	0.0028	0.000487	8e-06
0.2	308.15	0.0035	0.000491	8e-06
0.2	308.15	0.0048	0.000497	8e-06
0.2	308.15	0.0067	0.000505	8e-06
0.2	308.15	0.0083	0.000513	8e-06
0.2	308.15	0.0099	0.000521	8e-06
0.2	313.15	0.0028	0.000453	8e-06
0.2	313.15	0.0035	0.000457	7e-06
0.2	313.15	0.0047	0.000464	7e-06
0.2	313.15	0.0067	0.000471	7e-06
0.2	313.15	0.0083	0.000479	8e-06
0.2	313.15	0.0098	0.000487	8e-06
0.3	298.15	0.0028	0.000569	8e-06
0.3	298.15	0.0036	0.000573	8e-06
0.3	298.15	0.0048	0.000578	8e-06
0.3	298.15	0.0068	0.000587	8e-06
0.3	298.15	0.0084	0.000595	8e-06
0.3	298.15	0.01	0.000603	8e-06
0.3	303.15	0.0028	0.000531	8e-06
0.3	303.15	0.0036	0.000535	8e-06
0.3	303.15	0.0047	0.000541	8e-06
0.3	303.15	0.0068	0.000549	8e-06
0.3	303.15	0.0084	0.000557	8e-06
0.3	303.15	0.0099	0.000566	8e-06
0.3	308.15	0.0028	0.000494	8e-06
0.3	308.15	0.0035	0.000498	8e-06
0.3	308.15	0.0047	0.000504	8e-06
0.3	308.15	0.0067	0.000513	8e-06
0.3	308.15	0.0083	0.000521	8e-06
0.3	308.15	0.0098	0.000528	8e-06
0.3	313.15	0.0028	0.000456	7e-06
0.3	313.15	0.0035	0.000461	7e-06
0.3	313.15	0.0047	0.000468	7e-06
0.3	313.15	0.0067	0.000476	8e-06
0.3	313.15	0.0083	0.000484	8e-06
0.3	313.15	0.0098	0.000491	8e-06
0.4	298.15	0.0028	0.000591	8e-06
0.4	298.15	0.0036	0.000594	8e-06
0.4	298.15	0.0048	0.000598	8e-06
0.4	298.15	0.0068	0.000607	8e-06
0.4	298.15	0.0084	0.000612	8e-06
0.4	298.15	0.01	0.000621	8e-06
0.4	303.15	0.0028	0.000551	8e-06
0.4	303.15	0.0036	0.000555	8e-06
0.4	303.15	0.0048	0.000561	8e-06
0.4	303.15	0.0068	0.000567	8e-06
0.4	303.15	0.0083	0.000575	8e-06
0.4	303.15	0.0099	0.000582	8e-06
0.4	308.15	0.0028	0.000514	8e-06
0.4	308.15	0.0035	0.000518	8e-06
0.4	308.15	0.0048	0.000524	8e-06
0.4	308.15	0.0067	0.000532	8e-06
0.4	308.15	0.0083	0.00054	8e-06
0.4	308.15	0.0099	0.000546	8e-06
0.4	313.15	0.0028	0.000472	8e-06
0.4	313.15	0.0035	0.000476	8e-06
0.4	313.15	0.0047	0.000481	8e-06
0.4	313.15	0.0067	0.000491	8e-06
0.4	313.15	0.0083	0.000497	8e-06
0.4	313.15	0.0098	0.000503	8e-06

System: methanol + 1,4-dioxane + [[2,2'-[1,2-ethanediylbis(nitrilomethylidyne)]bis[phenolato]](2-)-N,N',O,O']cobalt; phases: Liquid
Fixed: Pressure, kPa = 101
Property: Mass density, kg/m3 (Liquid); method: Vibrating tube method
Solvent: Mass fraction of 1,4-dioxane	Temperature, K	Amount concentration (molarity), mol/dm3 of [[2,2'-[1,2-ethanediylbis(nitrilomethylidyne)]bis[phenolato]](2-)-N,N',O,O']cobalt	Mass density, kg/m3	uncertainty
0	298.15	0.0028	787.1	0.5
0	298.15	0.0036	787.3	0.5
0	298.15	0.0048	787.6	0.5
0	298.15	0.0068	788.2	0.5
0	298.15	0.0084	788.6	0.5
0	298.15	0.01	789	0.5
0	303.15	0.0028	782.3	0.5
0	303.15	0.0036	782.5	0.5
0	303.15	0.0048	782.8	0.5
0	303.15	0.0068	783.4	0.5
0	303.15	0.0084	783.8	0.5
0	303.15	0.0099	784.2	0.5
0	308.15	0.0028	777.4	0.5
0	308.15	0.0036	777.6	0.5
0	308.15	0.0047	777.9	0.5
0	308.15	0.0068	778.5	0.5
0	308.15	0.0083	778.9	0.5
0	308.15	0.0099	779.3	0.5
0	313.15	0.0028	773.3	0.5
0	313.15	0.0036	773.5	0.5
0	313.15	0.0047	773.8	0.5
0	313.15	0.0067	774.4	0.5
0	313.15	0.0083	774.8	0.5
0	313.15	0.0098	775.2	0.5
0.1	298.15	0.0028	811.7	0.5
0.1	298.15	0.0036	811.9	0.5
0.1	298.15	0.0048	812.2	0.5
0.1	298.15	0.0068	812.8	0.5
0.1	298.15	0.0084	813.2	0.5
0.1	298.15	0.01	813.6	0.5
0.1	303.15	0.0028	806.9	0.5
0.1	303.15	0.0035	807.1	0.5
0.1	303.15	0.0048	807.4	0.5
0.1	303.15	0.0068	808	0.5
0.1	303.15	0.0084	808.4	0.5
0.1	303.15	0.0099	808.8	0.5
0.1	308.15	0.0028	802.2	0.6
0.1	308.15	0.0035	802.4	0.5
0.1	308.15	0.0047	802.7	0.5
0.1	308.15	0.0067	803.3	0.5
0.1	308.15	0.0083	803.7	0.5
0.1	308.15	0.0098	804.1	0.5
0.1	313.15	0.0028	797.4	0.6
0.1	313.15	0.0035	797.6	0.5
0.1	313.15	0.0047	797.9	0.5
0.1	313.15	0.0067	798.5	0.5
0.1	313.15	0.0083	798.9	0.5
0.1	313.15	0.0098	799.3	0.5
0.2	298.15	0.0028	834.9	0.7
0.2	298.15	0.0036	835.1	0.5
0.2	298.15	0.0048	835.4	0.5
0.2	298.15	0.0068	836	0.5
0.2	298.15	0.0084	836.4	0.5
0.2	298.15	0.01	836.8	0.5
0.2	303.15	0.0028	829.3	0.6
0.2	303.15	0.0036	829.5	0.5
0.2	303.15	0.0048	829.8	0.5
0.2	303.15	0.0068	830.4	0.5
0.2	303.15	0.0084	830.8	0.5
0.2	303.15	0.0099	831.2	0.5
0.2	308.15	0.0028	823.9	0.5
0.2	308.15	0.0035	824.1	0.5
0.2	308.15	0.0048	824.4	0.5
0.2	308.15	0.0067	825	0.5
0.2	308.15	0.0083	825.4	0.5
0.2	308.15	0.0099	825.8	0.5
0.2	313.15	0.0028	818.9	0.6
0.2	313.15	0.0035	819.1	0.5
0.2	313.15	0.0047	819.4	0.5
0.2	313.15	0.0067	820	0.5
0.2	313.15	0.0083	820.4	0.5
0.2	313.15	0.0098	820.8	0.5
0.3	298.15	0.0028	853	0.6
0.3	298.15	0.0036	853.2	0.5
0.3	298.15	0.0048	853.5	0.5
0.3	298.15	0.0068	854.1	0.5
0.3	298.15	0.0084	854.5	0.5
0.3	298.15	0.01	854.9	0.6
0.3	303.15	0.0028	847.9	0.5
0.3	303.15	0.0036	848.1	0.5
0.3	303.15	0.0047	848.4	0.5
0.3	303.15	0.0068	849	0.5
0.3	303.15	0.0084	849.4	0.5
0.3	303.15	0.0099	849.8	0.5
0.3	308.15	0.0028	843.1	0.5
0.3	308.15	0.0035	843.3	0.5
0.3	308.15	0.0047	843.6	0.5
0.3	308.15	0.0067	844.2	0.5
0.3	308.15	0.0083	844.6	0.5
0.3	308.15	0.0098	845	0.5
0.3	313.15	0.0028	838.5	0.6
0.3	313.15	0.0035	838.7	0.5
0.3	313.15	0.0047	839	0.5
0.3	313.15	0.0067	839.6	0.5
0.3	313.15	0.0083	840	0.5
0.3	313.15	0.0098	840.4	0.5
0.4	298.15	0.0028	875.6	0.5
0.4	298.15	0.0036	875.8	0.5
0.4	298.15	0.0048	876.1	0.5
0.4	298.15	0.0068	876.7	0.5
0.4	298.15	0.0084	877.1	0.5
0.4	298.15	0.01	877.5	0.5
0.4	303.15	0.0028	870.7	0.5
0.4	303.15	0.0036	870.9	0.5
0.4	303.15	0.0048	871.2	0.5
0.4	303.15	0.0068	871.8	0.5
0.4	303.15	0.0083	872.2	0.5
0.4	303.15	0.0099	872.6	0.5
0.4	308.15	0.0028	866	0.5
0.4	308.15	0.0035	866.2	0.5
0.4	308.15	0.0048	866.5	0.5
0.4	308.15	0.0067	867.1	0.5
0.4	308.15	0.0083	867.5	0.5
0.4	308.15	0.0099	867.9	0.5
0.4	313.15	0.0028	861.1	0.5
0.4	313.15	0.0035	861.3	0.5
0.4	313.15	0.0047	861.6	0.5
0.4	313.15	0.0067	862.2	0.5
0.4	313.15	0.0083	862.6	0.5
0.4	313.15	0.0098	863	0.5
