Measured thermophysical data. Activity Coefficients at Infinite Dilution of Organic Solutes in 1-Butyl-3-methylimidazolium Nitrate Using Gas-Liquid Chromatography
Source: J. Chem. Eng. Data, 2011, 10.1021/je200050q
Compound 1: 1-butyl-3-methylimidazolium nitrate, C8H15N3O3, InChI=1S/C8H15N2.NO3/c1-3-4-5-10-7-6-9(2)8-10;2-1(3)4/h6-8H,3-5H2,1-2H3;/q+1;-1, purity 99%
Compound 2: hexane, C6H14, InChI=1S/C6H14/c1-3-5-6-4-2/h3-6H2,1-2H3
Compound 3: heptane, C7H16, InChI=1S/C7H16/c1-3-5-7-6-4-2/h3-7H2,1-2H3
Compound 4: octane, C8H18, InChI=1S/C8H18/c1-3-5-7-8-6-4-2/h3-8H2,1-2H3
Compound 5: nonane, C9H20, InChI=1S/C9H20/c1-3-5-7-9-8-6-4-2/h3-9H2,1-2H3
Compound 6: cyclohexane, C6H12, InChI=1S/C6H12/c1-2-4-6-5-3-1/h1-6H2
Compound 7: methylcyclohexane, C7H14, InChI=1S/C7H14/c1-7-5-3-2-4-6-7/h7H,2-6H2,1H3
Compound 8: benzene, C6H6, InChI=1S/C6H6/c1-2-4-6-5-3-1/h1-6H
Compound 9: toluene, C7H8, InChI=1S/C7H8/c1-7-5-3-2-4-6-7/h2-6H,1H3
Compound 10: ethylbenzene, C8H10, InChI=1S/C8H10/c1-2-8-6-4-3-5-7-8/h3-7H,2H2,1H3
Compound 11: 1,2-dimethylbenzene, C8H10, InChI=1S/C8H10/c1-7-5-3-4-6-8(7)2/h3-6H,1-2H3
Compound 12: 1,3-dimethylbenzene, C8H10, InChI=1S/C8H10/c1-7-4-3-5-8(2)6-7/h3-6H,1-2H3
Compound 13: 1,4-dimethylbenzene, C8H10, InChI=1S/C8H10/c1-7-3-5-8(2)6-4-7/h3-6H,1-2H3
Compound 14: methanol, CH4O, InChI=1S/CH4O/c1-2/h2H,1H3
Compound 15: ethanol, C2H6O, InChI=1S/C2H6O/c1-2-3/h3H,2H2,1H3
Compound 16: propan-1-ol, C3H8O, InChI=1S/C3H8O/c1-2-3-4/h4H,2-3H2,1H3
Compound 17: acetonitrile, C2H3N, InChI=1S/C2H3N/c1-2-3/h1H3
Compound 18: ethyl acetate, C4H8O2, InChI=1S/C4H8O2/c1-3-6-4(2)5/h3H2,1-2H3
Compound 19: acetone, C3H6O, InChI=1S/C3H6O/c1-3(2)4/h1-2H3
Compound 20: dichloromethane, CH2Cl2, InChI=1S/CH2Cl2/c2-1-3/h1H2
Compound 21: trichloromethane, CHCl3, InChI=1S/CHCl3/c2-1(3)4/h1H
Compound 22: tetrachloromethane, CCl4, InChI=1S/CCl4/c2-1(3,4)5

System: hexane + 1-butyl-3-methylimidazolium nitrate; phases: Liquid
Fixed: Pressure, kPa = 101
Fixed: Mole fraction of hexane = 0
Property: Activity coefficient of hexane (Liquid); method: Chromatography
Temperature, K	Activity coefficient of hexane	uncertainty
303.15	63.873	3.566
313.15	58.086	3.242
323.15	53.065	2.961
333.15	48.782	2.721
343.15	45.091	2.515
353.15	41.821	2.332
363.15	38.969	2.172

System: heptane + 1-butyl-3-methylimidazolium nitrate; phases: Liquid
Fixed: Pressure, kPa = 101
Fixed: Mole fraction of heptane = 0
Property: Activity coefficient of heptane (Liquid); method: Chromatography
Temperature, K	Activity coefficient of heptane	uncertainty
303.15	105.414	5.895
313.15	97.109	5.429
323.15	89.902	5.025
333.15	83.618	4.673
343.15	78.119	4.364
353.15	73.242	4.091
363.15	68.901	3.848

System: octane + 1-butyl-3-methylimidazolium nitrate; phases: Liquid
Fixed: Pressure, kPa = 101
Fixed: Mole fraction of octane = 0
Property: Activity coefficient of octane (Liquid); method: Chromatography
Temperature, K	Activity coefficient of octane	uncertainty
303.15	168.311	9.427
313.15	153.861	8.615
323.15	141.431	7.917
333.15	130.595	7.308
343.15	121.275	6.785
353.15	113.041	6.323
363.15	105.773	5.915

System: nonane + 1-butyl-3-methylimidazolium nitrate; phases: Liquid
Fixed: Pressure, kPa = 101
Fixed: Mole fraction of nonane = 0
Property: Activity coefficient of nonane (Liquid); method: Chromatography
Temperature, K	Activity coefficient of nonane	uncertainty
303.15	262.795	14.741
313.15	238.461	13.371
323.15	217.687	12.203
333.15	199.813	11.198
343.15	184.32	10.327
353.15	170.813	9.568
363.15	158.961	8.902

System: cyclohexane + 1-butyl-3-methylimidazolium nitrate; phases: Liquid
Fixed: Pressure, kPa = 101
Fixed: Mole fraction of cyclohexane = 0
Property: Activity coefficient of cyclohexane (Liquid); method: Chromatography
Temperature, K	Activity coefficient of cyclohexane	uncertainty
303.15	29.84	1.662
313.15	27.59	1.536
323.15	25.634	1.427
333.15	23.921	1.331
343.15	22.416	1.247
353.15	21.086	1.173
363.15	19.894	1.107

System: methylcyclohexane + 1-butyl-3-methylimidazolium nitrate; phases: Liquid
Fixed: Pressure, kPa = 101
Fixed: Mole fraction of methylcyclohexane = 0
Property: Activity coefficient of methylcyclohexane (Liquid); method: Chromatography
Temperature, K	Activity coefficient of methylcyclohexane	uncertainty
303.15	45.266	2.524
313.15	42.141	2.35
323.15	39.39	2.196
333.15	36.997	2.062
343.15	34.861	1.942
353.15	32.961	1.836
363.15	31.2	1.738

System: benzene + 1-butyl-3-methylimidazolium nitrate; phases: Liquid
Fixed: Pressure, kPa = 101
Fixed: Mole fraction of benzene = 0
Property: Activity coefficient of benzene (Liquid); method: Chromatography
Temperature, K	Activity coefficient of benzene	uncertainty
303.15	1.851	0.101
313.15	1.88	0.103
323.15	1.913	0.105
333.15	1.947	0.107
343.15	2.009	0.111
353.15	1.992	0.11
363.15	2.024	0.112

System: toluene + 1-butyl-3-methylimidazolium nitrate; phases: Liquid
Fixed: Pressure, kPa = 101
Fixed: Mole fraction of toluene = 0
Property: Activity coefficient of toluene (Liquid); method: Chromatography
Temperature, K	Activity coefficient of toluene	uncertainty
303.15	3.089	0.171
313.15	3.148	0.174
323.15	3.193	0.177
333.15	3.242	0.179
343.15	3.291	0.182
353.15	3.334	0.184
363.15	3.366	0.186

System: ethylbenzene + 1-butyl-3-methylimidazolium nitrate; phases: Liquid
Fixed: Pressure, kPa = 101
Fixed: Mole fraction of ethylbenzene = 0
Property: Activity coefficient of ethylbenzene (Liquid); method: Chromatography
Temperature, K	Activity coefficient of ethylbenzene	uncertainty
303.15	5.531	0.306
313.15	5.548	0.307
323.15	5.557	0.308
333.15	5.563	0.308
343.15	5.601	0.31
353.15	5.586	0.309
363.15	5.61	0.311

System: 1,2-dimethylbenzene + 1-butyl-3-methylimidazolium nitrate; phases: Liquid
Fixed: Pressure, kPa = 101
Fixed: Mole fraction of 1,2-dimethylbenzene = 0
Property: Activity coefficient of 1,2-dimethylbenzene (Liquid); method: Chromatography
Temperature, K	Activity coefficient of 1,2-dimethylbenzene	uncertainty
303.15	4.31	0.239
313.15	4.375	0.242
323.15	4.438	0.246
333.15	4.488	0.248
343.15	4.54	0.251
353.15	4.582	0.254
363.15	4.633	0.257

System: 1,3-dimethylbenzene + 1-butyl-3-methylimidazolium nitrate; phases: Liquid
Fixed: Pressure, kPa = 101
Fixed: Mole fraction of 1,3-dimethylbenzene = 0
Property: Activity coefficient of 1,3-dimethylbenzene (Liquid); method: Chromatography
Temperature, K	Activity coefficient of 1,3-dimethylbenzene	uncertainty
303.15	5.421	0.3
313.15	5.468	0.303
323.15	5.5	0.305
333.15	5.549	0.307
343.15	5.573	0.309
353.15	5.622	0.311
363.15	5.612	0.311

System: 1,4-dimethylbenzene + 1-butyl-3-methylimidazolium nitrate; phases: Liquid
Fixed: Pressure, kPa = 101
Fixed: Mole fraction of 1,4-dimethylbenzene = 0
Property: Activity coefficient of 1,4-dimethylbenzene (Liquid); method: Chromatography
Temperature, K	Activity coefficient of 1,4-dimethylbenzene	uncertainty
303.15	5.06	0.28
313.15	5.165	0.286
323.15	5.162	0.286
333.15	5.216	0.289
343.15	5.221	0.289
353.15	5.241	0.29
363.15	5.264	0.292

System: methanol + 1-butyl-3-methylimidazolium nitrate; phases: Liquid
Fixed: Pressure, kPa = 101
Fixed: Mole fraction of methanol = 0
Property: Activity coefficient of methanol (Liquid); method: Chromatography
Temperature, K	Activity coefficient of methanol	uncertainty
303.15	0.322	0.029
313.15	0.318	0.029
323.15	0.315	0.029
333.15	0.31	0.029
343.15	0.307	0.029
353.15	0.303	0.029
363.15	0.302	0.029

System: ethanol + 1-butyl-3-methylimidazolium nitrate; phases: Liquid
Fixed: Pressure, kPa = 101
Fixed: Mole fraction of ethanol = 0
Property: Activity coefficient of ethanol (Liquid); method: Chromatography
Temperature, K	Activity coefficient of ethanol	uncertainty
303.15	0.564	0.034
313.15	0.543	0.033
323.15	0.529	0.033
333.15	0.52	0.033
343.15	0.511	0.032
353.15	0.508	0.032
363.15	0.507	0.032

System: propan-1-ol + 1-butyl-3-methylimidazolium nitrate; phases: Liquid
Fixed: Pressure, kPa = 101
Fixed: Mole fraction of propan-1-ol = 0
Property: Activity coefficient of propan-1-ol (Liquid); method: Chromatography
Temperature, K	Activity coefficient of propan-1-ol	uncertainty
303.15	0.765	0.04
313.15	0.732	0.039
323.15	0.706	0.038
333.15	0.687	0.037
343.15	0.674	0.037
353.15	0.662	0.037
363.15	0.654	0.036

System: acetonitrile + 1-butyl-3-methylimidazolium nitrate; phases: Liquid
Fixed: Pressure, kPa = 101
Fixed: Mole fraction of acetonitrile = 0
Property: Activity coefficient of acetonitrile (Liquid); method: Chromatography
Temperature, K	Activity coefficient of acetonitrile	uncertainty
303.15	0.6	0.035
313.15	0.605	0.035
323.15	0.615	0.035
333.15	0.62	0.035
343.15	0.626	0.036
353.15	0.63	0.036
363.15	0.644	0.036

System: ethyl acetate + 1-butyl-3-methylimidazolium nitrate; phases: Liquid
Fixed: Pressure, kPa = 101
Fixed: Mole fraction of ethyl acetate = 0
Property: Activity coefficient of ethyl acetate (Liquid); method: Chromatography
Temperature, K	Activity coefficient of ethyl acetate	uncertainty
303.15	2.933	0.162
313.15	2.982	0.165
323.15	3.011	0.166
333.15	3.038	0.168
343.15	3.071	0.17
353.15	3.179	0.176
363.15	3.251	0.18

System: acetone + 1-butyl-3-methylimidazolium nitrate; phases: Liquid
Fixed: Pressure, kPa = 101
Fixed: Mole fraction of acetone = 0
Property: Activity coefficient of acetone (Liquid); method: Chromatography
Temperature, K	Activity coefficient of acetone	uncertainty
303.15	1.112	0.055
313.15	1.117	0.055
323.15	1.133	0.056
333.15	1.156	0.058
343.15	1.174	0.059
353.15	1.231	0.062
363.15	1.25	0.063

System: dichloromethane + 1-butyl-3-methylimidazolium nitrate; phases: Liquid
Fixed: Pressure, kPa = 101
Fixed: Mole fraction of dichloromethane = 0
Property: Activity coefficient of dichloromethane (Liquid); method: Chromatography
Temperature, K	Activity coefficient of dichloromethane	uncertainty
303.15	0.464	0.031
313.15	0.491	0.032
323.15	0.526	0.033
333.15	0.552	0.033
343.15	0.579	0.034
353.15	0.602	0.035
363.15	0.64	0.036

System: trichloromethane + 1-butyl-3-methylimidazolium nitrate; phases: Liquid
Fixed: Pressure, kPa = 101
Fixed: Mole fraction of trichloromethane = 0
Property: Activity coefficient of trichloromethane (Liquid); method: Chromatography
Temperature, K	Activity coefficient of trichloromethane	uncertainty
303.15	0.28	0.028
313.15	0.316	0.029
323.15	0.334	0.029
333.15	0.39	0.03
343.15	0.415	0.03
353.15	0.445	0.031
363.15	0.504	0.032

System: tetrachloromethane + 1-butyl-3-methylimidazolium nitrate; phases: Liquid
Fixed: Pressure, kPa = 101
Fixed: Mole fraction of tetrachloromethane = 0
Property: Activity coefficient of tetrachloromethane (Liquid); method: Chromatography
Temperature, K	Activity coefficient of tetrachloromethane	uncertainty
303.15	2.093	0.116
313.15	2.175	0.12
323.15	2.397	0.132
333.15	2.522	0.139
343.15	2.648	0.146
353.15	2.812	0.155
363.15	2.833	0.157
