Measured thermophysical data. Densities, Sound Velocities, and Refractive Indexes of Tetralin + n-Hexadecane at (293.15, 303.15, 313.15, 323.15, 333.15, and 343.15) K
Source: J. Chem. Eng. Data, 2011, 10.1021/je200504u
Compound 1: hexadecane, C16H34, InChI=1S/C16H34/c1-3-5-7-9-11-13-15-16-14-12-10-8-6-4-2/h3-16H2,1-2H3, purity 99%
Compound 2: 1,2,3,4-tetrahydronaphthalene, C10H12, InChI=1S/C10H12/c1-2-6-10-8-4-3-7-9(10)5-1/h1-2,5-6H,3-4,7-8H2, purity 99.2%

System: hexadecane; phases: Liquid
Fixed: Pressure, kPa = 101.325
Property: Refractive index (Na D-line) (Liquid); method: ABBE::UFactor:2
Temperature, K	Refractive index (Na D-line)	uncertainty
293.15	1.4352	0.0009
303.15	1.4311	0.0009
313.15	1.4269	0.0009
323.15	1.4228	0.0009
333.15	1.4187	0.0009
343.15	1.4145	0.0009

System: hexadecane; phases: Liquid
Fixed: Pressure, kPa = 101
Property: Speed of sound, m/s (Liquid); method: Sing-around technique in a fixed-path interferometer
Temperature, K	Speed of sound, m/s	uncertainty
293.15	1357.1	1.3
303.15	1319.6	1.3
313.15	1282.9	1.2
323.15	1246.9	1.2
333.15	1211.6	1.2
343.15	1177	1.2

System: hexadecane; phases: Liquid
Fixed: Pressure, kPa = 101
Property: Mass density, kg/m3 (Liquid); method: Vibrating tube method
Temperature, K	Mass density, kg/m3	uncertainty
293.15	773.7	0.2
303.15	766.7	0.2
313.15	759.8	0.2
323.15	752.9	0.2
333.15	746	0.2
343.15	739.1	0.2

System: 1,2,3,4-tetrahydronaphthalene; phases: Liquid
Fixed: Pressure, kPa = 101.325
Property: Refractive index (Na D-line) (Liquid); method: ABBE::UFactor:2
Temperature, K	Refractive index (Na D-line)	uncertainty
293.15	1.5415	0.0009
303.15	1.5369	0.0009
313.15	1.5322	0.0009
323.15	1.5275	0.0009
333.15	1.5227	0.0009
343.15	1.5179	0.0009

System: 1,2,3,4-tetrahydronaphthalene; phases: Liquid
Fixed: Pressure, kPa = 101
Property: Speed of sound, m/s (Liquid); method: Sing-around technique in a fixed-path interferometer
Temperature, K	Speed of sound, m/s	uncertainty
293.15	1488.6	1.2
303.15	1449.3	1.1
313.15	1410.7	1.1
323.15	1372.8	1.1
333.15	1336.4	1.1
343.15	1299.5	1.1

System: 1,2,3,4-tetrahydronaphthalene; phases: Liquid
Fixed: Pressure, kPa = 101
Property: Mass density, kg/m3 (Liquid); method: Vibrating tube method
Temperature, K	Mass density, kg/m3	uncertainty
293.15	969	0.2
303.15	961	0.2
313.15	953.1	0.2
323.15	945.1	0.2
333.15	937.2	0.2
343.15	929.2	0.2

System: 1,2,3,4-tetrahydronaphthalene + hexadecane; phases: Liquid
Fixed: Pressure, kPa = 101
Property: Refractive index (Na D-line) (Liquid); method: ABBE:UFactor:2
Temperature, K	Mole fraction of 1,2,3,4-tetrahydronaphthalene	Refractive index (Na D-line)	uncertainty
293.15	0	1.4352	0.0009
293.15	0.1005	1.4405	0.0009
293.15	0.1987	1.4458	0.0009
293.15	0.2975	1.4523	0.0009
293.15	0.4	1.4592	0.0009
293.15	0.4964	1.4678	0.0009
293.15	0.6007	1.4769	0.001
293.15	0.6994	1.4893	0.0009
293.15	0.802	1.503	0.001
293.15	0.8998	1.5199	0.001
293.15	1	1.5415	0.0009
303.15	0	1.4311	0.0009
303.15	0.1005	1.4363	0.0009
303.15	0.1987	1.4416	0.0009
303.15	0.2975	1.4481	0.0009
303.15	0.4	1.4552	0.0009
303.15	0.4964	1.4639	0.0009
303.15	0.6007	1.4727	0.0009
303.15	0.6994	1.485	0.0009
303.15	0.802	1.4987	0.0009
303.15	0.8998	1.5154	0.0009
303.15	1	1.5369	0.0009
313.15	0	1.4269	0.0009
313.15	0.1005	1.4322	0.0009
313.15	0.1987	1.4373	0.0009
313.15	0.2975	1.4438	0.0009
313.15	0.4	1.4511	0.0009
313.15	0.4964	1.4598	0.0009
313.15	0.6007	1.4689	0.0009
313.15	0.6994	1.4807	0.0009
313.15	0.802	1.4943	0.0009
313.15	0.8998	1.5109	0.0009
313.15	1	1.5322	0.0009
323.15	0	1.4228	0.0009
323.15	0.1005	1.4281	0.0009
323.15	0.1987	1.4333	0.0009
323.15	0.2975	1.4397	0.0009
323.15	0.4	1.4477	0.0009
323.15	0.4964	1.4554	0.0009
323.15	0.6007	1.4648	0.0009
323.15	0.6994	1.4763	0.0009
323.15	0.802	1.4896	0.0009
323.15	0.8998	1.5064	0.0009
323.15	1	1.5275	0.0009
333.15	0	1.4187	0.0009
333.15	0.1005	1.4238	0.0009
333.15	0.1987	1.429	0.0009
333.15	0.2975	1.4355	0.0009
333.15	0.4	1.4429	0.001
333.15	0.4964	1.4514	0.0009
333.15	0.6007	1.4606	0.0009
333.15	0.6994	1.4719	0.0009
333.15	0.802	1.4855	0.0009
333.15	0.8998	1.5018	0.0009
333.15	1	1.5227	0.0009
343.15	0	1.4145	0.0009
343.15	0.1005	1.4196	0.0009
343.15	0.1987	1.4247	0.0009
343.15	0.2975	1.4312	0.0009
343.15	0.4	1.4382	0.0009
343.15	0.4964	1.447	0.0009
343.15	0.6007	1.4562	0.0009
343.15	0.6994	1.4675	0.0009
343.15	0.802	1.4809	0.0009
343.15	0.8998	1.4973	0.0009
343.15	1	1.5179	0.0009

System: 1,2,3,4-tetrahydronaphthalene + hexadecane; phases: Liquid
Fixed: Pressure, kPa = 101
Property: Speed of sound, m/s (Liquid); method: Sing-around technique in a fixed-path interferometer
Temperature, K	Mole fraction of 1,2,3,4-tetrahydronaphthalene	Speed of sound, m/s	uncertainty
293.15	0	1357.1	1.3
293.15	0.1005	1361.4	1.3
293.15	0.1987	1366.5	1.2
293.15	0.2975	1372.4	1.2
293.15	0.4	1379.7	1.2
293.15	0.4964	1388.3	1.2
293.15	0.6007	1399.7	1.2
293.15	0.6994	1413.4	1.2
293.15	0.802	1432.1	1.2
293.15	0.8998	1455.8	1.2
293.15	1	1488.6	1.2
303.15	0	1319.6	1.3
303.15	0.1005	1324	1.2
303.15	0.1987	1329.3	1.2
303.15	0.2975	1335.2	1.2
303.15	0.4	1342.5	1.2
303.15	0.4964	1351.2	1.2
303.15	0.6007	1362.4	1.2
303.15	0.6994	1376	1.2
303.15	0.802	1394.4	1.2
303.15	0.8998	1417.5	1.1
303.15	1	1449.3	1.1
313.15	0	1282.9	1.2
313.15	0.1005	1287.3	1.2
313.15	0.1987	1292.7	1.2
313.15	0.2975	1298.6	1.2
313.15	0.4	1305.9	1.2
313.15	0.4964	1314.6	1.2
313.15	0.6007	1325.7	1.2
313.15	0.6994	1339.1	1.2
313.15	0.802	1357.2	1.1
313.15	0.8998	1379.8	1.1
313.15	1	1410.7	1.1
323.15	0	1246.9	1.2
323.15	0.1005	1251.3	1.2
323.15	0.1987	1256.8	1.2
323.15	0.2975	1262.7	1.2
323.15	0.4	1270	1.2
323.15	0.4964	1278.6	1.2
323.15	0.6007	1289.7	1.2
323.15	0.6994	1302.9	1.1
323.15	0.802	1320.7	1.1
323.15	0.8998	1342.8	1.1
323.15	1	1372.8	1.1
333.15	0	1211.6	1.2
333.15	0.1005	1216	1.2
333.15	0.1987	1221.5	1.2
333.15	0.2975	1227.4	1.2
333.15	0.4	1234.6	1.2
333.15	0.4964	1243.2	1.2
333.15	0.6007	1254.2	1.1
333.15	0.6994	1267.3	1.1
333.15	0.802	1284.8	1.1
333.15	0.8998	1306.4	1.1
333.15	1	1336.4	1.1
343.15	0	1177	1.2
343.15	0.1005	1181.2	1.2
343.15	0.1987	1186.9	1.2
343.15	0.2975	1192.8	1.2
343.15	0.4	1199.9	1.2
343.15	0.4964	1208.5	1.1
343.15	0.6007	1219.3	1.1
343.15	0.6994	1232.2	1.1
343.15	0.802	1249.4	1.1
343.15	0.8998	1270.6	1.1
343.15	1	1299.5	1.1

System: 1,2,3,4-tetrahydronaphthalene + hexadecane; phases: Liquid
Fixed: Pressure, kPa = 101
Property: Mass density, kg/m3 (Liquid); method: Vibrating tube method
Temperature, K	Mole fraction of 1,2,3,4-tetrahydronaphthalene	Mass density, kg/m3	uncertainty
293.15	0	773.7	0.2
293.15	0.1005	783.1	0.2
293.15	0.1987	793.6	0.2
293.15	0.2975	805.1	0.2
293.15	0.4	819.3	0.2
293.15	0.4964	834.2	0.2
293.15	0.6007	853.2	0.2
293.15	0.6994	874.4	0.2
293.15	0.802	901	0.2
293.15	0.8998	931.2	0.2
293.15	1	969	0.2
303.15	0	766.7	0.2
303.15	0.1005	776.2	0.2
303.15	0.1987	786.6	0.2
303.15	0.2975	798.1	0.2
303.15	0.4	812.1	0.2
303.15	0.4964	827	0.2
303.15	0.6007	846	0.2
303.15	0.6994	867	0.2
303.15	0.802	893.5	0.2
303.15	0.8998	923.5	0.2
303.15	1	961	0.2
313.15	0	759.8	0.2
313.15	0.1005	769.2	0.2
313.15	0.1987	779.6	0.2
313.15	0.2975	791	0.2
313.15	0.4	805	0.2
313.15	0.4964	819.8	0.2
313.15	0.6007	838.7	0.2
313.15	0.6994	859.6	0.2
313.15	0.802	886	0.2
313.15	0.8998	915.8	0.2
313.15	1	953.1	0.2
323.15	0	752.9	0.2
323.15	0.1005	762.2	0.2
323.15	0.1987	772.6	0.2
323.15	0.2975	783.9	0.2
323.15	0.4	797.9	0.2
323.15	0.4964	812.6	0.2
323.15	0.6007	831.3	0.2
323.15	0.6994	852.2	0.2
323.15	0.802	878.4	0.2
323.15	0.8998	908.1	0.2
323.15	1	945.1	0.2
333.15	0	746	0.2
333.15	0.1005	755.2	0.2
333.15	0.1987	765.5	0.2
333.15	0.2975	776.8	0.2
333.15	0.4	790.7	0.2
333.15	0.4964	805.4	0.2
333.15	0.6007	824	0.2
333.15	0.6994	844.7	0.2
333.15	0.802	870.8	0.2
333.15	0.8998	900.3	0.2
333.15	1	937.2	0.2
343.15	0	739.1	0.2
343.15	0.1005	748.2	0.2
343.15	0.1987	758.5	0.2
343.15	0.2975	769.7	0.2
343.15	0.4	783.5	0.2
343.15	0.4964	798.1	0.2
343.15	0.6007	816.6	0.2
343.15	0.6994	837.2	0.2
343.15	0.802	863.2	0.2
343.15	0.8998	892.5	0.2
343.15	1	929.2	0.2
