Measured thermophysical data. Densities and Viscosities of Binary and Ternary Mixtures of (Nitrobenzene + 1-Bromobutane), (1-Bromobutane + Methylcyclohexane), (Nitrobenzene + Methylcyclohexane), and (Methylcyclohexane + Nitrobenzene + 1-Bromobutane) from (293.15 to 308.15) K
Source: J. Chem. Eng. Data, 2011, 10.1021/je200350a
Compound 1: methylcyclohexane, C7H14, InChI=1S/C7H14/c1-7-5-3-2-4-6-7/h7H,2-6H2,1H3, purity 99%
Compound 2: 1-bromobutane, C4H9Br, InChI=1S/C4H9Br/c1-2-3-4-5/h2-4H2,1H3, purity 99%
Compound 3: nitrobenzene, C6H5NO2, InChI=1S/C6H5NO2/c8-7(9)6-4-2-1-3-5-6/h1-5H, purity 99%

System: methylcyclohexane; phases: Liquid
Fixed: Pressure, kPa = 101.325
Property: Viscosity, Pa*s (Liquid); method: Capillary tube (Ostwald; Ubbelohde) method
Temperature, K	Viscosity, Pa*s	uncertainty
293.15	0.0007293	7.1e-06
298.15	0.0006827	6.7e-06
303.15	0.0006385	6.3e-06
308.15	0.0005997	6e-06

System: methylcyclohexane; phases: Liquid
Fixed: Pressure, kPa = 101.325
Property: Mass density, kg/m3 (Liquid); method: VIBTUB:UFactor:8
Temperature, K	Mass density, kg/m3	uncertainty
293.15	770.1	1.2
298.15	766.7	1.2
303.15	761.8	1.2
308.15	757.6	1.2

System: 1-bromobutane; phases: Liquid
Fixed: Pressure, kPa = 101.325
Property: Viscosity, Pa*s (Liquid); method: Capillary tube (Ostwald; Ubbelohde) method
Temperature, K	Viscosity, Pa*s	uncertainty
293.15	0.0006473	6.4e-06
298.15	0.0006096	6.1e-06
303.15	0.0005811	5.8e-06
308.15	0.00055	5.6e-06

System: 1-bromobutane; phases: Liquid
Fixed: Pressure, kPa = 101.325
Property: Mass density, kg/m3 (Liquid); method: VIBTUB:UFactor:8
Temperature, K	Mass density, kg/m3	uncertainty
293.15	1279.1	1.5
298.15	1272.2	1.4
303.15	1265.2	1.4
308.15	1257.2	1.4

System: nitrobenzene; phases: Liquid
Fixed: Pressure, kPa = 101.325
Property: Viscosity, Pa*s (Liquid); method: Capillary tube (Ostwald; Ubbelohde) method
Temperature, K	Viscosity, Pa*s	uncertainty
293.15	0.0019834	1.78e-05
298.15	0.0018095	1.63e-05
303.15	0.0016595	1.5e-05
308.15	0.0015286	1.39e-05

System: nitrobenzene; phases: Liquid
Fixed: Pressure, kPa = 101.325
Property: Mass density, kg/m3 (Liquid); method: VIBTUB:UFactor:8
Temperature, K	Mass density, kg/m3	uncertainty
293.15	1202.2	1.2
298.15	1197.2	1.2
303.15	1191.5	1.2
308.15	1186.4	1.2

System: nitrobenzene + 1-bromobutane; phases: Liquid
Fixed: Pressure, kPa = 101
Property: Viscosity, Pa*s (Liquid); method: Capillary tube (Ostwald; Ubbelohde) method
Temperature, K	Mole fraction of nitrobenzene	Viscosity, Pa*s	uncertainty
293.15	0.123	0.0007256	7.1e-06
293.15	0.2445	0.0008243	7.9e-06
293.15	0.3645	0.0009397	8.9e-06
293.15	0.424	0.0009936	9.4e-06
293.15	0.542	0.001131	1.05e-05
293.15	0.6585	0.0012813	1.18e-05
293.15	0.7737	0.0014768	1.35e-05
293.15	0.8875	0.0017034	1.54e-05
293.15	0.9439	0.0018355	1.65e-05
298.15	0.123	0.0006851	6.7e-06
298.15	0.2445	0.0007761	7.5e-06
298.15	0.3645	0.0008811	8.4e-06
298.15	0.424	0.0009308	8.8e-06
298.15	0.542	0.0010546	9.9e-06
298.15	0.6585	0.0011897	1.1e-05
298.15	0.7737	0.0013639	1.25e-05
298.15	0.8875	0.0015656	1.42e-05
298.15	0.9439	0.0016816	1.52e-05
303.15	0.123	0.0006486	6.4e-06
303.15	0.2445	0.0007321	7.1e-06
303.15	0.3645	0.000828	7.9e-06
303.15	0.424	0.0008743	8.3e-06
303.15	0.542	0.000986	9.3e-06
303.15	0.6585	0.0011091	1.03e-05
303.15	0.7737	0.001266	1.17e-05
303.15	0.8875	0.0014466	1.32e-05
303.15	0.9439	0.0015479	1.41e-05
308.15	0.123	0.000615	6.1e-06
308.15	0.2445	0.000692	6.8e-06
308.15	0.3645	0.0007802	7.5e-06
308.15	0.424	0.0008225	7.9e-06
308.15	0.542	0.000925	8.8e-06
308.15	0.6585	0.0010369	9.7e-06
308.15	0.7737	0.0011796	1.09e-05
308.15	0.8875	0.0013404	1.23e-05
308.15	0.9439	0.0014305	1.31e-05

System: nitrobenzene + 1-bromobutane; phases: Liquid
Fixed: Pressure, kPa = 101
Property: Mass density, kg/m3 (Liquid); method: VIBTUB:UFactor:8
Temperature, K	Mole fraction of nitrobenzene	Mass density, kg/m3	uncertainty
293.15	0.123	1270.9	1.4
293.15	0.2445	1262.8	1.4
293.15	0.3645	1253.7	1.4
293.15	0.424	1249.7	1.4
293.15	0.542	1240.8	1.3
293.15	0.6585	1229.4	1.3
293.15	0.7737	1220.6	1.3
293.15	0.8875	1211.5	1.3
293.15	0.9439	1206.7	1.2
298.15	0.123	1263.5	1.4
298.15	0.2445	1256.6	1.4
298.15	0.3645	1247.1	1.4
298.15	0.424	1244	1.3
298.15	0.542	1234.4	1.3
298.15	0.6585	1223.8	1.3
298.15	0.7737	1214.7	1.3
298.15	0.8875	1206.6	1.2
298.15	0.9439	1201.6	1.2
303.15	0.123	1256.5	1.4
303.15	0.2445	1249.8	1.4
303.15	0.3645	1240.8	1.3
303.15	0.424	1238	1.3
303.15	0.542	1228.2	1.3
303.15	0.6585	1218.5	1.3
303.15	0.7737	1209.9	1.2
303.15	0.8875	1201.6	1.2
303.15	0.9439	1196.5	1.2
308.15	0.123	1249	1.4
308.15	0.2445	1242.4	1.3
308.15	0.3645	1234.3	1.3
308.15	0.424	1230.7	1.3
308.15	0.542	1222.2	1.3
308.15	0.6585	1212.4	1.3
308.15	0.7737	1205.1	1.2
308.15	0.8875	1196	1.2
308.15	0.9439	1191.2	1.2

System: nitrobenzene + methylcyclohexane; phases: Liquid
Fixed: Pressure, kPa = 101
Property: Viscosity, Pa*s (Liquid); method: Capillary tube (Ostwald; Ubbelohde) method
Temperature, K	Mole fraction of nitrobenzene	Viscosity, Pa*s	uncertainty
293.15	0.1422	0.000785	7.6e-06
293.15	0.2103	0.0008282	7.9e-06
293.15	0.3412	0.0009436	8.9e-06
293.15	0.404	0.0009971	9.4e-06
293.15	0.5249	0.001125	1.05e-05
293.15	0.6397	0.0012662	1.17e-05
293.15	0.7489	0.0014157	1.3e-05
293.15	0.853	0.0016129	1.46e-05
293.15	0.9031	0.0017185	1.55e-05
298.15	0.1422	0.000735	7.1e-06
298.15	0.2103	0.0007723	7.5e-06
298.15	0.3412	0.0008765	8.4e-06
298.15	0.404	0.0009244	8.8e-06
298.15	0.5249	0.0010424	9.8e-06
298.15	0.6397	0.0011716	1.09e-05
298.15	0.7489	0.0013122	1.21e-05
298.15	0.853	0.0014836	1.35e-05
298.15	0.9031	0.0015798	1.44e-05
303.15	0.1422	0.0006901	6.8e-06
303.15	0.2103	0.0007233	7.1e-06
303.15	0.3412	0.0008177	7.9e-06
303.15	0.404	0.0008618	8.2e-06
303.15	0.5249	0.0009677	9.1e-06
303.15	0.6397	0.0010893	1.02e-05
303.15	0.7489	0.0012183	1.13e-05
303.15	0.853	0.0013705	1.26e-05
303.15	0.9031	0.0014595	1.33e-05
308.15	0.1422	0.000649	6.4e-06
308.15	0.2103	0.0006777	6.7e-06
308.15	0.3412	0.0007653	7.4e-06
308.15	0.404	0.0008054	7.8e-06
308.15	0.5249	0.0009044	8.6e-06
308.15	0.6397	0.0010155	9.6e-06
308.15	0.7489	0.0011356	1.06e-05
308.15	0.853	0.0012725	1.17e-05
308.15	0.9031	0.0013535	1.24e-05

System: nitrobenzene + methylcyclohexane; phases: Liquid
Fixed: Pressure, kPa = 101
Property: Mass density, kg/m3 (Liquid); method: VIBTUB:UFactor:8
Temperature, K	Mole fraction of nitrobenzene	Mass density, kg/m3	uncertainty
293.15	0.1422	820.2	1.1
293.15	0.2103	845.2	1
293.15	0.3412	900.9	0.9
293.15	0.404	919.6	0.9
293.15	0.5249	973.2	0.8
293.15	0.6397	1027	0.8
293.15	0.7489	1075.7	0.9
293.15	0.853	1123.6	1
293.15	0.9031	1150.8	1.1
298.15	0.1422	816.2	1.1
298.15	0.2103	840.8	1
298.15	0.3412	897.5	0.9
298.15	0.404	915.6	0.9
298.15	0.5249	970.2	0.8
298.15	0.6397	1022.7	0.8
298.15	0.7489	1071.6	0.9
298.15	0.853	1119.2	1
298.15	0.9031	1146.3	1.1
303.15	0.1422	812.4	1.1
303.15	0.2103	837.4	1
303.15	0.3412	894.2	0.9
303.15	0.404	912.8	0.9
303.15	0.5249	965	0.8
303.15	0.6397	1019.6	0.8
303.15	0.7489	1067.8	0.9
303.15	0.853	1114.5	1
303.15	0.9031	1142	1.1
308.15	0.1422	808.2	1.1
308.15	0.2103	832.3	1
308.15	0.3412	891	0.9
308.15	0.404	909	0.9
308.15	0.5249	962.6	0.8
308.15	0.6397	1016	0.8
308.15	0.7489	1062.9	0.9
308.15	0.853	1111.5	1
308.15	0.9031	1137.5	1.1

System: methylcyclohexane + 1-bromobutane; phases: Liquid
Fixed: Pressure, kPa = 101
Property: Viscosity, Pa*s (Liquid); method: Capillary tube (Ostwald; Ubbelohde) method
Temperature, K	Mole fraction of methylcyclohexane	Viscosity, Pa*s	uncertainty
293.15	0.1014	0.0006398	6.3e-06
293.15	0.1535	0.0006402	6.3e-06
293.15	0.2607	0.0006441	6.4e-06
293.15	0.372	0.0006465	6.4e-06
293.15	0.4293	0.0006517	6.4e-06
293.15	0.5473	0.0006581	6.5e-06
293.15	0.608	0.0006622	6.5e-06
293.15	0.7979	0.0006877	6.7e-06
293.15	0.8639	0.0006993	6.8e-06
298.15	0.1014	0.0006033	6e-06
298.15	0.1535	0.0006034	6e-06
298.15	0.2607	0.0006066	6e-06
298.15	0.372	0.0006104	6.1e-06
298.15	0.4293	0.0006152	6.1e-06
298.15	0.5473	0.00062	6.2e-06
298.15	0.608	0.0006235	6.2e-06
298.15	0.7979	0.0006457	6.4e-06
298.15	0.8639	0.0006558	6.5e-06
303.15	0.1014	0.0005754	5.8e-06
303.15	0.1535	0.0005745	5.8e-06
303.15	0.2607	0.0005762	5.8e-06
303.15	0.372	0.000578	5.8e-06
303.15	0.4293	0.0005826	5.8e-06
303.15	0.5473	0.0005854	5.9e-06
303.15	0.608	0.0005882	5.9e-06
303.15	0.7979	0.0006074	6.1e-06
303.15	0.8639	0.0006166	6.1e-06
308.15	0.1014	0.0005463	5.5e-06
308.15	0.1535	0.0005458	5.5e-06
308.15	0.2607	0.0005462	5.5e-06
308.15	0.372	0.0005479	5.5e-06
308.15	0.4293	0.0005516	5.6e-06
308.15	0.5473	0.000554	5.6e-06
308.15	0.608	0.0005561	5.6e-06
308.15	0.7979	0.0005721	5.8e-06
308.15	0.8639	0.0005806	5.8e-06

System: methylcyclohexane + 1-bromobutane; phases: Liquid
Fixed: Pressure, kPa = 101
Property: Mass density, kg/m3 (Liquid); method: VIBTUB:UFactor:8
Temperature, K	Mole fraction of methylcyclohexane	Mass density, kg/m3	uncertainty
293.15	0.1014	1218.7	1.3
293.15	0.1535	1187.3	1.2
293.15	0.2607	1129.8	1
293.15	0.372	1071	0.9
293.15	0.4293	1041	0.8
293.15	0.5473	978.8	0.8
293.15	0.608	946.5	0.8
293.15	0.7979	858.3	1
293.15	0.8639	830	1
298.15	0.1014	1212.2	1.3
298.15	0.1535	1180.4	1.2
298.15	0.2607	1123	1
298.15	0.372	1064.8	0.9
298.15	0.4293	1035.5	0.8
298.15	0.5473	973.2	0.8
298.15	0.608	941.2	0.8
298.15	0.7979	853.5	1
298.15	0.8639	825.8	1.1
303.15	0.1014	1206.3	1.3
303.15	0.1535	1174.2	1.2
303.15	0.2607	1118.5	1
303.15	0.372	1059.4	0.9
303.15	0.4293	1029.9	0.8
303.15	0.5473	967.8	0.8
303.15	0.608	935.8	0.8
303.15	0.7979	849	1
303.15	0.8639	821.8	1.1
308.15	0.1014	1198.2	1.2
308.15	0.1535	1167.5	1.2
308.15	0.2607	1111	1
308.15	0.372	1053.2	0.9
308.15	0.4293	1024.4	0.8
308.15	0.5473	962.5	0.8
308.15	0.608	930.7	0.9
308.15	0.7979	843.8	1
308.15	0.8639	816.5	1.1

System: nitrobenzene + methylcyclohexane + 1-bromobutane; phases: Liquid
Fixed: Pressure, kPa = 101
Property: Viscosity, Pa*s (Liquid); method: Capillary tube (Ostwald; Ubbelohde) method
Temperature, K	Mole fraction of nitrobenzene	Mole fraction of methylcyclohexane	Viscosity, Pa*s	uncertainty
293.15	0	0.1014	0.0006398	6.3e-06
293.15	0	0.1535	0.0006402	6.3e-06
293.15	0	0.2607	0.0006441	6.4e-06
293.15	0	0.372	0.0006465	6.4e-06
293.15	0	0.4293	0.0006517	6.4e-06
293.15	0	0.5473	0.0006581	6.5e-06
293.15	0	0.608	0.0006622	6.5e-06
293.15	0	0.7979	0.0006877	6.7e-06
293.15	0	0.8639	0.0006993	6.8e-06
293.15	0.0184	0.1775	0.0006308	6.3e-06
293.15	0.0223	0.2151	0.0006312	6.3e-06
293.15	0.0255	0.2464	0.000638	6.3e-06
293.15	0.0283	0.2729	0.0006379	6.3e-06
293.15	0.0337	0.3254	0.0006492	6.4e-06
293.15	0.0387	0.3732	0.0006523	6.4e-06
293.15	0.0453	0.4376	0.0006587	6.5e-06
293.15	0.0532	0.1712	0.000658	6.5e-06
293.15	0.0611	0.5901	0.0006794	6.7e-06
293.15	0.064	0.2059	0.0006648	6.6e-06
293.15	0.0692	0.6678	0.0007273	7.1e-06
293.15	0.0729	0.2344	0.0006715	6.6e-06
293.15	0.0796	0.7689	0.0007046	6.9e-06
293.15	0.0803	0.2583	0.0006751	6.6e-06
293.15	0.0947	0.3048	0.000684	6.7e-06
293.15	0.101	0.1626	0.0006882	6.7e-06
293.15	0.1077	0.3464	0.0006927	6.8e-06
293.15	0.1203	0.1935	0.0007036	6.9e-06
293.15	0.123	0	0.0007256	7.1e-06
293.15	0.1247	0.4012	0.000708	6.9e-06
293.15	0.1303	0.1573	0.0007081	6.9e-06
293.15	0.1358	0.2185	0.000713	7e-06
293.15	0.1422	0.8578	0.000785	7.6e-06
293.15	0.1486	0.2391	0.000721	7e-06
293.15	0.1542	0.1861	0.000726	7.1e-06
293.15	0.1634	0.5259	0.000743	7.2e-06
293.15	0.1731	0.2785	0.0007433	7.2e-06
293.15	0.1732	0.2091	0.0007396	7.2e-06
293.15	0.1823	0.5866	0.0007565	7.3e-06
293.15	0.1835	0.1476	0.0007465	7.3e-06
293.15	0.1888	0.2278	0.0007511	7.3e-06
293.15	0.1944	0.3128	0.0007554	7.3e-06
293.15	0.2061	0.6633	0.0007818	7.6e-06
293.15	0.2103	0.7897	0.0008282	7.9e-06
293.15	0.2147	0.1728	0.000772	7.5e-06
293.15	0.2182	0.2633	0.0007724	7.5e-06
293.15	0.2193	0.1412	0.0007794	7.5e-06
293.15	0.2217	0.3567	0.0007765	7.5e-06
293.15	0.2391	0.1924	0.0007896	7.6e-06
293.15	0.2434	0.2937	0.0007916	7.6e-06
293.15	0.2445	0	0.0008243	7.9e-06
293.15	0.2521	0.1352	0.0008075	7.8e-06
293.15	0.2547	0.164	0.0008086	7.8e-06
293.15	0.2588	0.2082	0.000807	7.8e-06
293.15	0.2725	0.1315	0.0008203	8.2e-06
293.15	0.2753	0.3322	0.0008164	7.8e-06
293.15	0.2809	0.452	0.0008289	8e-06
293.15	0.2821	0.1815	0.0008317	8e-06
293.15	0.2909	0.156	0.0008397	8.3e-06
293.15	0.2918	0.1281	0.0007126	7.4e-06
293.15	0.2951	0.2374	0.000837	8e-06
293.15	0.3038	0.1955	0.0008517	8.1e-06
293.15	0.3084	0.4962	0.0008586	8.2e-06
293.15	0.3131	0.1511	0.0008575	8.2e-06
293.15	0.3189	0.1232	0.0008655	8.6e-06
293.15	0.3204	0.1718	0.0008618	8.2e-06
293.15	0.3255	0.2619	0.0008604	8.2e-06
293.15	0.3339	0.1465	0.0008736	8.3e-06
293.15	0.3412	0.6588	0.0009436	8.9e-06
293.15	0.3418	0.5499	0.0008935	8.5e-06
293.15	0.3425	0.4133	0.0008779	8.4e-06
293.15	0.3435	0.2211	0.0008843	8.4e-06
293.15	0.3437	0.1843	0.0008794	8.4e-06
293.15	0.3438	0.1659	0.0008899	8.5e-06
293.15	0.3629	0.1402	0.0009138	8.7e-06
293.15	0.3629	0.292	0.000894	8.5e-06
293.15	0.3645	0	0.0009397	8.9e-06
293.15	0.3656	0.1604	0.0009024	8.6e-06
293.15	0.3678	0.1775	0.0009157	8.7e-06
293.15	0.3728	0.4499	0.0009062	8.6e-06
293.15	0.3762	0.2422	0.0009145	8.7e-06
293.15	0.3857	0.2069	0.0009183	8.7e-06
293.15	0.3902	0.1712	0.0009184	8.7e-06
293.15	0.3957	0.1528	0.0009388	8.9e-06
293.15	0.404	0.596	0.0009971	9.4e-06
293.15	0.4091	0.4937	0.0009457	9e-06
293.15	0.4109	0.1984	0.0009526	9e-06
293.15	0.4159	0.2677	0.0009488	9e-06
293.15	0.4199	0.2252	0.0009547	9e-06
293.15	0.421	0.1626	0.0009549	9e-06
293.15	0.424	0	0.0009936	9.4e-06
293.15	0.4342	0.1905	0.0009616	9.1e-06
293.15	0.4386	0.3529	0.0009771	9.2e-06
293.15	0.4458	0.2152	0.0009791	9.2e-06
293.15	0.4608	0.2471	0.0009983	9.4e-06
293.15	0.4658	0.1799	0.0009994	9.4e-06
293.15	0.4694	0.206	0.0010143	9.5e-06
293.15	0.4714	0.3792	0.0010093	9.5e-06
293.15	0.487	0.2351	0.0010209	9.6e-06
293.15	0.4941	0.318	0.0010293	9.7e-06
293.15	0.5013	0.1936	0.0010363	9.7e-06
293.15	0.5094	0.4098	0.001058	9.9e-06
293.15	0.5109	0.2242	0.0010531	9.9e-06
293.15	0.5249	0.4751	0.001125	1.05e-05
293.15	0.5271	0.3393	0.0010686	1e-05
293.15	0.5396	0.2894	0.001087	1.02e-05
293.15	0.542	0	0.001131	1.05e-05
293.15	0.5427	0.2096	0.0010784	1.01e-05
293.15	0.5648	0.3635	0.001118	1.04e-05
293.15	0.5656	0.273	0.0011142	1.04e-05
293.15	0.5722	0.3069	0.0011276	1.05e-05
293.15	0.5889	0.2584	0.0011476	1.07e-05
293.15	0.5978	0.2886	0.0011715	1.09e-05
293.15	0.609	0.3266	0.0011771	1.09e-05
293.15	0.6194	0.2392	0.0012067	1.12e-05
293.15	0.6205	0.2723	0.0011888	1.1e-05
293.15	0.6338	0.3059	0.0012168	1.13e-05
293.15	0.6397	0.3603	0.0012662	1.17e-05
293.15	0.6501	0.251	0.0012212	1.13e-05
293.15	0.6556	0.2877	0.0012345	1.14e-05
293.15	0.6585	0	0.0012813	1.18e-05
293.15	0.6839	0.2641	0.001275	1.18e-05
293.15	0.7489	0.2511	0.0014157	1.3e-05
293.15	0.7737	0	0.0014768	1.35e-05
293.15	0.853	0.147	0.0016129	1.46e-05
293.15	0.8875	0	0.0017034	1.54e-05
293.15	0.9031	0.0969	0.0017185	1.55e-05
293.15	0.9439	0	0.0018355	1.65e-05
298.15	0	0.1014	0.0006033	6e-06
298.15	0	0.1535	0.0006034	6e-06
298.15	0	0.2607	0.0006066	6e-06
298.15	0	0.372	0.0006104	6.1e-06
298.15	0	0.4293	0.0006152	6.1e-06
298.15	0	0.5473	0.00062	6.2e-06
298.15	0	0.608	0.0006235	6.2e-06
298.15	0	0.7979	0.0006457	6.4e-06
298.15	0	0.8639	0.0006558	6.5e-06
298.15	0.0184	0.1775	0.0005968	6e-06
298.15	0.0223	0.2151	0.0005968	6e-06
298.15	0.0255	0.2464	0.0006032	6e-06
298.15	0.0283	0.2729	0.0006027	6e-06
298.15	0.0337	0.3254	0.0006129	6.1e-06
298.15	0.0387	0.3732	0.0006156	6.1e-06
298.15	0.0453	0.4376	0.0006237	6.2e-06
298.15	0.0532	0.1712	0.000622	6.2e-06
298.15	0.0611	0.5901	0.0006385	6.3e-06
298.15	0.064	0.2059	0.0006279	6.2e-06
298.15	0.0692	0.6678	0.000673	6.6e-06
298.15	0.0729	0.2344	0.0006335	6.3e-06
298.15	0.0796	0.7689	0.0006606	6.5e-06
298.15	0.0803	0.2583	0.0006374	6.3e-06
298.15	0.0947	0.3048	0.0006446	6.4e-06
298.15	0.101	0.1626	0.0006501	6.4e-06
298.15	0.1077	0.3464	0.0006525	6.4e-06
298.15	0.1203	0.1935	0.0006653	6.6e-06
298.15	0.123	0	0.0006851	6.7e-06
298.15	0.1247	0.4012	0.0006661	6.6e-06
298.15	0.1303	0.1573	0.0006674	6.6e-06
298.15	0.1358	0.2185	0.0006716	6.6e-06
298.15	0.1422	0.8578	0.000735	7.1e-06
298.15	0.1486	0.2391	0.0006792	6.7e-06
298.15	0.1542	0.1861	0.0006843	6.7e-06
298.15	0.1634	0.5259	0.0006973	6.8e-06
298.15	0.1731	0.2785	0.0006968	6.8e-06
298.15	0.1732	0.2091	0.0006968	6.8e-06
298.15	0.1823	0.5866	0.0007095	6.9e-06
298.15	0.1835	0.1476	0.0007037	6.9e-06
298.15	0.1888	0.2278	0.0007067	6.9e-06
298.15	0.1944	0.3128	0.0007106	6.9e-06
298.15	0.2061	0.6633	0.0007318	7.1e-06
298.15	0.2103	0.7897	0.0007723	7.5e-06
298.15	0.2147	0.1728	0.0007262	7.1e-06
298.15	0.2182	0.2633	0.0007267	7.1e-06
298.15	0.2193	0.1412	0.0007401	7.2e-06
298.15	0.2217	0.3567	0.0007295	7.1e-06
298.15	0.2391	0.1924	0.0007426	7.2e-06
298.15	0.2434	0.2937	0.000743	7.2e-06
298.15	0.2445	0	0.0007761	7.5e-06
298.15	0.2521	0.1352	0.0007594	7.4e-06
298.15	0.2547	0.164	0.0007607	7.4e-06
298.15	0.2588	0.2082	0.0007584	7.3e-06
298.15	0.2725	0.1315	0.000771	7.5e-06
298.15	0.2753	0.3322	0.0007659	7.4e-06
298.15	0.2809	0.452	0.0007762	7.5e-06
298.15	0.2821	0.1815	0.0007813	7.5e-06
298.15	0.2909	0.156	0.0007885	7.6e-06
298.15	0.2918	0.1281	0.0007465	7.3e-06
298.15	0.2951	0.2374	0.0007856	7.6e-06
298.15	0.3038	0.1955	0.0007989	7.7e-06
298.15	0.3084	0.4962	0.0008028	7.7e-06
298.15	0.3131	0.1511	0.0008054	7.7e-06
298.15	0.3189	0.1232	0.000812	7.9e-06
298.15	0.3204	0.1718	0.0008088	7.8e-06
298.15	0.3255	0.2619	0.0008067	7.8e-06
298.15	0.3339	0.1465	0.0008194	7.9e-06
298.15	0.3412	0.6588	0.0008765	8.4e-06
298.15	0.3418	0.5499	0.0008334	8e-06
298.15	0.3425	0.4133	0.0008204	7.9e-06
298.15	0.3435	0.2211	0.0008308	8e-06
298.15	0.3437	0.1843	0.0008253	7.9e-06
298.15	0.3438	0.1659	0.0008344	8e-06
298.15	0.3629	0.1402	0.0008556	8.2e-06
298.15	0.3629	0.292	0.0008371	8e-06
298.15	0.3645	0	0.0008811	8.4e-06
298.15	0.3656	0.1604	0.0008454	8.1e-06
298.15	0.3678	0.1775	0.0008575	8.2e-06
298.15	0.3728	0.4499	0.0008456	8.1e-06
298.15	0.3762	0.2422	0.0008562	8.2e-06
298.15	0.3857	0.2069	0.0008597	8.2e-06
298.15	0.3902	0.1712	0.0008606	8.2e-06
298.15	0.3957	0.1528	0.0008755	8.4e-06
298.15	0.404	0.596	0.0009244	8.8e-06
298.15	0.4091	0.4937	0.0008803	8.4e-06
298.15	0.4109	0.1984	0.0008838	8.4e-06
298.15	0.4159	0.2677	0.0008865	8.4e-06
298.15	0.4199	0.2252	0.0008945	8.5e-06
298.15	0.421	0.1626	0.0008898	8.5e-06
298.15	0.424	0	0.0009308	8.8e-06
298.15	0.4342	0.1905	0.0008989	8.6e-06
298.15	0.4386	0.3529	0.0009111	8.7e-06
298.15	0.4458	0.2152	0.0009146	8.7e-06
298.15	0.4608	0.2471	0.0009321	8.8e-06
298.15	0.4658	0.1799	0.0009334	8.9e-06
298.15	0.4694	0.206	0.0009463	9e-06
298.15	0.4714	0.3792	0.0009395	8.9e-06
298.15	0.487	0.2351	0.0009524	9e-06
298.15	0.4941	0.318	0.0009585	9.1e-06
298.15	0.5013	0.1936	0.0009655	9.1e-06
298.15	0.5094	0.4098	0.0009821	9.3e-06
298.15	0.5109	0.2242	0.0009811	9.3e-06
298.15	0.5249	0.4751	0.0010424	9.8e-06
298.15	0.5271	0.3393	0.0009937	9.4e-06
298.15	0.5396	0.2894	0.0010129	9.5e-06
298.15	0.542	0	0.0010546	9.9e-06
298.15	0.5427	0.2096	0.0010048	9.5e-06
298.15	0.5648	0.3635	0.0010357	9.7e-06
298.15	0.5656	0.273	0.0010377	9.7e-06
298.15	0.5722	0.3069	0.001044	9.8e-06
298.15	0.5889	0.2584	0.0010672	1e-05
298.15	0.5978	0.2886	0.0010909	1.02e-05
298.15	0.609	0.3266	0.0010879	1.02e-05
298.15	0.6194	0.2392	0.0011192	1.04e-05
298.15	0.6205	0.2723	0.001103	1.03e-05
298.15	0.6338	0.3059	0.0011277	1.05e-05
298.15	0.6397	0.3603	0.0011716	1.09e-05
298.15	0.6501	0.251	0.0011323	1.05e-05
298.15	0.6556	0.2877	0.0011432	1.06e-05
298.15	0.6585	0	0.0011897	1.1e-05
298.15	0.6839	0.2641	0.0011804	1.09e-05
298.15	0.7489	0.2511	0.0013122	1.21e-05
298.15	0.7737	0	0.0013639	1.25e-05
298.15	0.853	0.147	0.0014836	1.35e-05
298.15	0.8875	0	0.0015656	1.42e-05
298.15	0.9031	0.0969	0.0015798	1.44e-05
298.15	0.9439	0	0.0016816	1.52e-05
303.15	0	0.1014	0.0005754	5.8e-06
303.15	0	0.1535	0.0005745	5.8e-06
303.15	0	0.2607	0.0005762	5.8e-06
303.15	0	0.372	0.000578	5.8e-06
303.15	0	0.4293	0.0005826	5.8e-06
303.15	0	0.5473	0.0005854	5.9e-06
303.15	0	0.608	0.0005882	5.9e-06
303.15	0	0.7979	0.0006074	6.1e-06
303.15	0	0.8639	0.0006166	6.1e-06
303.15	0.0184	0.1775	0.0005671	5.7e-06
303.15	0.0223	0.2151	0.0005655	5.7e-06
303.15	0.0255	0.2464	0.0005716	5.8e-06
303.15	0.0283	0.2729	0.0005708	5.7e-06
303.15	0.0337	0.3254	0.0005798	5.8e-06
303.15	0.0387	0.3732	0.0005821	5.8e-06
303.15	0.0453	0.4376	0.0005863	5.9e-06
303.15	0.0532	0.1712	0.0005887	5.9e-06
303.15	0.0611	0.5901	0.0006014	6e-06
303.15	0.064	0.2059	0.0005945	6e-06
303.15	0.0692	0.6678	0.0006307	6.3e-06
303.15	0.0729	0.2344	0.0005996	6e-06
303.15	0.0796	0.7689	0.0006208	6.2e-06
303.15	0.0803	0.2583	0.0006033	6e-06
303.15	0.0947	0.3048	0.0006093	6.1e-06
303.15	0.101	0.1626	0.0006157	6.1e-06
303.15	0.1077	0.3464	0.0006162	6.1e-06
303.15	0.1203	0.1935	0.000628	6.2e-06
303.15	0.123	0	0.0006486	6.4e-06
303.15	0.1247	0.4012	0.0006284	6.2e-06
303.15	0.1303	0.1573	0.0006313	6.3e-06
303.15	0.1358	0.2185	0.0006345	6.3e-06
303.15	0.1422	0.8578	0.0006901	6.8e-06
303.15	0.1486	0.2391	0.0006411	6.3e-06
303.15	0.1542	0.1861	0.0006465	6.4e-06
303.15	0.1634	0.5259	0.0006561	6.5e-06
303.15	0.1731	0.2785	0.0006551	6.5e-06
303.15	0.1732	0.2091	0.0006581	6.5e-06
303.15	0.1823	0.5866	0.0006668	6.6e-06
303.15	0.1835	0.1476	0.0006642	6.5e-06
303.15	0.1888	0.2278	0.0006666	6.6e-06
303.15	0.1944	0.3128	0.0006697	6.6e-06
303.15	0.2061	0.6633	0.0006857	6.7e-06
303.15	0.2103	0.7897	0.0007233	7.1e-06
303.15	0.2147	0.1728	0.0006851	6.7e-06
303.15	0.2182	0.2633	0.0006878	6.7e-06
303.15	0.2193	0.1412	0.0006922	6.8e-06
303.15	0.2217	0.3567	0.0006867	6.7e-06
303.15	0.2391	0.1924	0.0006997	6.8e-06
303.15	0.2434	0.2937	0.0006997	6.8e-06
303.15	0.2445	0	0.0007321	7.1e-06
303.15	0.2521	0.1352	0.0007161	7e-06
303.15	0.2547	0.164	0.0007176	7e-06
303.15	0.2588	0.2082	0.0007146	7e-06
303.15	0.2725	0.1315	0.0007275	7.2e-06
303.15	0.2753	0.3322	0.0007204	7e-06
303.15	0.2809	0.452	0.0007289	7.1e-06
303.15	0.2821	0.1815	0.0007356	7.2e-06
303.15	0.2909	0.156	0.000743	7.2e-06
303.15	0.2918	0.1281	0.0007848	7.7e-06
303.15	0.2951	0.2374	0.0007391	7.2e-06
303.15	0.3038	0.1955	0.0007514	7.3e-06
303.15	0.3084	0.4962	0.0007531	7.3e-06
303.15	0.3131	0.1511	0.0007571	7.3e-06
303.15	0.3189	0.1232	0.0007646	7.4e-06
303.15	0.3204	0.1718	0.0007604	7.4e-06
303.15	0.3255	0.2619	0.0007585	7.4e-06
303.15	0.3339	0.1465	0.0007706	7.5e-06
303.15	0.3412	0.6588	0.0008177	7.9e-06
303.15	0.3418	0.5499	0.0007795	7.5e-06
303.15	0.3425	0.4133	0.0007691	7.4e-06
303.15	0.3435	0.2211	0.0007812	7.5e-06
303.15	0.3437	0.1843	0.0007777	7.5e-06
303.15	0.3438	0.1659	0.000784	7.6e-06
303.15	0.3629	0.1402	0.0008038	7.7e-06
303.15	0.3629	0.292	0.0007847	7.6e-06
303.15	0.3645	0	0.000828	7.9e-06
303.15	0.3656	0.1604	0.0007947	7.7e-06
303.15	0.3678	0.1775	0.0008048	7.7e-06
303.15	0.3728	0.4499	0.0007932	7.6e-06
303.15	0.3762	0.2422	0.0008042	7.7e-06
303.15	0.3857	0.2069	0.000807	7.8e-06
303.15	0.3902	0.1712	0.0008083	7.8e-06
303.15	0.3957	0.1528	0.0008209	7.9e-06
303.15	0.404	0.596	0.0008618	8.2e-06
303.15	0.4091	0.4937	0.0008225	7.9e-06
303.15	0.4109	0.1984	0.0008315	8e-06
303.15	0.4159	0.2677	0.0008309	8e-06
303.15	0.4199	0.2252	0.0008384	8e-06
303.15	0.421	0.1626	0.0008377	8e-06
303.15	0.424	0	0.0008743	8.3e-06
303.15	0.4342	0.1905	0.000843	8.1e-06
303.15	0.4386	0.3529	0.0008521	8.1e-06
303.15	0.4458	0.2152	0.0008566	8.2e-06
303.15	0.4608	0.2471	0.0008784	8.4e-06
303.15	0.4658	0.1799	0.0008745	8.3e-06
303.15	0.4694	0.206	0.0008887	8.5e-06
303.15	0.4714	0.3792	0.000878	8.4e-06
303.15	0.487	0.2351	0.0008905	8.5e-06
303.15	0.4941	0.318	0.0008958	8.5e-06
303.15	0.5013	0.1936	0.0009036	8.6e-06
303.15	0.5094	0.4098	0.0009153	8.7e-06
303.15	0.5109	0.2242	0.0009165	8.7e-06
303.15	0.5249	0.4751	0.0009677	9.1e-06
303.15	0.5271	0.3393	0.0009281	8.8e-06
303.15	0.5396	0.2894	0.0009429	8.9e-06
303.15	0.542	0	0.000986	9.3e-06
303.15	0.5427	0.2096	0.0009394	8.9e-06
303.15	0.5648	0.3635	0.0009653	9.1e-06
303.15	0.5656	0.273	0.0009658	9.1e-06
303.15	0.5722	0.3069	0.0009733	9.2e-06
303.15	0.5889	0.2584	0.0009931	9.4e-06
303.15	0.5978	0.2886	0.0010086	9.5e-06
303.15	0.609	0.3266	0.001017	9.6e-06
303.15	0.6194	0.2392	0.0010419	9.8e-06
303.15	0.6205	0.2723	0.0010263	9.6e-06
303.15	0.6338	0.3059	0.0010482	9.8e-06
303.15	0.6397	0.3603	0.0010893	1.02e-05
303.15	0.6501	0.251	0.0010534	9.9e-06
303.15	0.6556	0.2877	0.0010626	9.9e-06
303.15	0.6585	0	0.0011091	1.03e-05
303.15	0.6839	0.2641	0.0010953	1.02e-05
303.15	0.7489	0.2511	0.0012183	1.13e-05
303.15	0.7737	0	0.001266	1.17e-05
303.15	0.853	0.147	0.0013705	1.26e-05
303.15	0.8875	0	0.0014466	1.32e-05
303.15	0.9031	0.0969	0.0014595	1.33e-05
303.15	0.9439	0	0.0015479	1.41e-05
308.15	0	0.1014	0.0005463	5.5e-06
308.15	0	0.1535	0.0005458	5.5e-06
308.15	0	0.2607	0.0005462	5.5e-06
308.15	0	0.372	0.0005479	5.5e-06
308.15	0	0.4293	0.0005516	5.6e-06
308.15	0	0.5473	0.000554	5.6e-06
308.15	0	0.608	0.0005561	5.6e-06
308.15	0	0.7979	0.0005721	5.8e-06
308.15	0	0.8639	0.0005806	5.8e-06
308.15	0.0184	0.1775	0.0005372	5.5e-06
308.15	0.0223	0.2151	0.0005364	5.5e-06
308.15	0.0255	0.2464	0.0005423	5.5e-06
308.15	0.0283	0.2729	0.0005411	5.5e-06
308.15	0.0337	0.3254	0.000549	5.6e-06
308.15	0.0387	0.3732	0.000551	5.6e-06
308.15	0.0453	0.4376	0.0005551	5.6e-06
308.15	0.0532	0.1712	0.0005587	5.6e-06
308.15	0.0611	0.5901	0.0005677	5.7e-06
308.15	0.064	0.2059	0.0005633	5.7e-06
308.15	0.0692	0.6678	0.0005897	5.9e-06
308.15	0.0729	0.2344	0.0005681	5.7e-06
308.15	0.0796	0.7689	0.0005846	5.9e-06
308.15	0.0803	0.2583	0.0005713	5.8e-06
308.15	0.0947	0.3048	0.0005766	5.8e-06
308.15	0.101	0.1626	0.0005826	5.8e-06
308.15	0.1077	0.3464	0.000583	5.9e-06
308.15	0.1203	0.1935	0.0005954	6e-06
308.15	0.123	0	0.000615	6.1e-06
308.15	0.1247	0.4012	0.0005941	5.9e-06
308.15	0.1303	0.1573	0.0005977	6e-06
308.15	0.1358	0.2185	0.0006008	6e-06
308.15	0.1422	0.8578	0.000649	6.4e-06
308.15	0.1486	0.2391	0.0006064	6.1e-06
308.15	0.1542	0.1861	0.0006128	6.1e-06
308.15	0.1634	0.5259	0.0006191	6.2e-06
308.15	0.1731	0.2785	0.0006207	6.2e-06
308.15	0.1732	0.2091	0.0006226	6.2e-06
308.15	0.1823	0.5866	0.0006304	6.3e-06
308.15	0.1835	0.1476	0.0006291	6.2e-06
308.15	0.1888	0.2278	0.0006298	6.3e-06
308.15	0.1944	0.3128	0.0006318	6.3e-06
308.15	0.2061	0.6633	0.0006449	6.4e-06
308.15	0.2103	0.7897	0.0006777	6.7e-06
308.15	0.2147	0.1728	0.0006479	6.4e-06
308.15	0.2182	0.2633	0.0006466	6.4e-06
308.15	0.2193	0.1412	0.0006546	6.5e-06
308.15	0.2217	0.3567	0.0006484	6.4e-06
308.15	0.2391	0.1924	0.0006613	6.5e-06
308.15	0.2434	0.2937	0.0006603	6.5e-06
308.15	0.2445	0	0.000692	6.8e-06
308.15	0.2521	0.1352	0.0006787	6.7e-06
308.15	0.2547	0.164	0.000678	6.7e-06
308.15	0.2588	0.2082	0.0006753	6.6e-06
308.15	0.2725	0.1315	0.0006863	7.3e-06
308.15	0.2753	0.3322	0.0006794	6.7e-06
308.15	0.2809	0.452	0.000686	6.7e-06
308.15	0.2821	0.1815	0.000694	6.8e-06
308.15	0.2909	0.156	0.0007029	7.1e-06
308.15	0.2918	0.1281	0.0008271	8.5e-06
308.15	0.2951	0.2374	0.0006966	6.8e-06
308.15	0.3038	0.1955	0.0007089	6.9e-06
308.15	0.3084	0.4962	0.0007088	6.9e-06
308.15	0.3131	0.1511	0.0007144	7e-06
308.15	0.3189	0.1232	0.0007211	7.2e-06
308.15	0.3204	0.1718	0.0007166	7e-06
308.15	0.3255	0.2619	0.0007151	7e-06
308.15	0.3339	0.1465	0.0007265	7.1e-06
308.15	0.3412	0.6588	0.0007653	7.4e-06
308.15	0.3418	0.5499	0.0007317	7.1e-06
308.15	0.3425	0.4133	0.0007229	7e-06
308.15	0.3435	0.2211	0.0007361	7.2e-06
308.15	0.3437	0.1843	0.0007326	7.1e-06
308.15	0.3438	0.1659	0.0007386	7.2e-06
308.15	0.3629	0.1402	0.0007568	7.3e-06
308.15	0.3629	0.292	0.0007393	7.2e-06
308.15	0.3645	0	0.0007802	7.5e-06
308.15	0.3656	0.1604	0.0007488	7.3e-06
308.15	0.3678	0.1775	0.0007575	7.3e-06
308.15	0.3728	0.4499	0.0007446	7.2e-06
308.15	0.3762	0.2422	0.0007574	7.3e-06
308.15	0.3857	0.2069	0.0007604	7.4e-06
308.15	0.3902	0.1712	0.0007629	7.4e-06
308.15	0.3957	0.1528	0.0007724	7.5e-06
308.15	0.404	0.596	0.0008054	7.8e-06
308.15	0.4091	0.4937	0.0007706	7.5e-06
308.15	0.4109	0.1984	0.0007799	7.5e-06
308.15	0.4159	0.2677	0.0007811	7.5e-06
308.15	0.4199	0.2252	0.0007885	7.6e-06
308.15	0.421	0.1626	0.000788	7.6e-06
308.15	0.424	0	0.0008225	7.9e-06
308.15	0.4342	0.1905	0.0007927	7.6e-06
308.15	0.4386	0.3529	0.0007989	7.7e-06
308.15	0.4458	0.2152	0.0008049	7.7e-06
308.15	0.4608	0.2471	0.0008198	7.9e-06
308.15	0.4658	0.1799	0.0008213	7.9e-06
308.15	0.4694	0.206	0.0008329	8e-06
308.15	0.4714	0.3792	0.0008229	7.9e-06
308.15	0.487	0.2351	0.0008365	8e-06
308.15	0.4941	0.318	0.0008402	8.1e-06
308.15	0.5013	0.1936	0.0008479	8.1e-06
308.15	0.5094	0.4098	0.0008565	8.2e-06
308.15	0.5109	0.2242	0.000859	8.2e-06
308.15	0.5249	0.4751	0.0009044	8.6e-06
308.15	0.5271	0.3393	0.0008697	8.3e-06
308.15	0.5396	0.2894	0.0008833	8.4e-06
308.15	0.542	0	0.000925	8.8e-06
308.15	0.5427	0.2096	0.0008807	8.4e-06
308.15	0.5648	0.3635	0.0009023	8.6e-06
308.15	0.5656	0.273	0.0009042	8.6e-06
308.15	0.5722	0.3069	0.0009178	8.7e-06
308.15	0.5889	0.2584	0.0009289	8.8e-06
308.15	0.5978	0.2886	0.0009419	8.9e-06
308.15	0.609	0.3266	0.000954	9e-06
308.15	0.6194	0.2392	0.0009721	9.2e-06
308.15	0.6205	0.2723	0.000958	9e-06
308.15	0.6338	0.3059	0.0009783	9.2e-06
308.15	0.6397	0.3603	0.0010155	9.6e-06
308.15	0.6501	0.251	0.0009839	9.3e-06
308.15	0.6556	0.2877	0.000991	9e-06
308.15	0.6585	0	0.0010369	9.7e-06
308.15	0.6839	0.2641	0.0010207	9.6e-06
308.15	0.7489	0.2511	0.0011356	1.06e-05
308.15	0.7737	0	0.0011796	1.09e-05
308.15	0.853	0.147	0.0012725	1.17e-05
308.15	0.8875	0	0.0013404	1.23e-05
308.15	0.9031	0.0969	0.0013535	1.24e-05
308.15	0.9439	0	0.0014305	1.31e-05

System: nitrobenzene + methylcyclohexane + 1-bromobutane; phases: Liquid
Fixed: Pressure, kPa = 101
Property: Mass density, kg/m3 (Liquid); method: VIBTUB:UFactor:8
Temperature, K	Mole fraction of nitrobenzene	Mole fraction of methylcyclohexane	Mass density, kg/m3	uncertainty
293.15	0	0.1014	1218.7	1.3
293.15	0	0.1535	1187.3	1.2
293.15	0	0.2607	1129.8	1
293.15	0	0.372	1071	0.9
293.15	0	0.4293	1041	0.8
293.15	0	0.5473	978.8	0.8
293.15	0	0.608	946.5	0.8
293.15	0	0.7979	858.3	1
293.15	0	0.8639	830	1
293.15	0.0184	0.1775	1171.4	1.2
293.15	0.0223	0.2151	1147	1.1
293.15	0.0255	0.2464	1133.9	1.1
293.15	0.0283	0.2729	1118.2	1
293.15	0.0337	0.3254	1099.2	1
293.15	0.0387	0.3732	1072.2	0.9
293.15	0.0453	0.4376	1035.8	0.8
293.15	0.0532	0.1712	1181.6	1.2
293.15	0.0611	0.5901	957.1	0.8
293.15	0.064	0.2059	1161.8	1.1
293.15	0.0692	0.6678	920	0.9
293.15	0.0729	0.2344	1145.1	1.1
293.15	0.0796	0.7689	865.5	1
293.15	0.0803	0.2583	1130.8	1.1
293.15	0.0947	0.3048	1104.2	1
293.15	0.101	0.1626	1186.3	1.2
293.15	0.1077	0.3464	1080.2	0.9
293.15	0.1203	0.1935	1167.7	1.1
293.15	0.123	0	1270.9	1.4
293.15	0.1247	0.4012	1048.4	0.9
293.15	0.1303	0.1573	1186.8	1.2
293.15	0.1358	0.2185	1151.7	1.1
293.15	0.1422	0.8578	820.2	1.1
293.15	0.1486	0.2391	1138.6	1.1
293.15	0.1542	0.1861	1167.8	1.1
293.15	0.1634	0.5259	979.2	0.8
293.15	0.1731	0.2785	1115.2	1
293.15	0.1732	0.2091	1153	1.1
293.15	0.1823	0.5866	947.2	0.8
293.15	0.1835	0.1476	1191.6	1.2
293.15	0.1888	0.2278	1141	1.1
293.15	0.1944	0.3128	1094	1
293.15	0.2061	0.6633	907.7	0.9
293.15	0.2103	0.7897	845.2	1
293.15	0.2147	0.1728	1174.2	1.2
293.15	0.2182	0.2633	1117.6	1
293.15	0.2193	0.1412	1197	1.2
293.15	0.2217	0.3567	1066.8	0.9
293.15	0.2391	0.1924	1159.9	1.1
293.15	0.2434	0.2937	1098.5	1
293.15	0.2445	0	1262.8	1.4
293.15	0.2521	0.1352	1197.6	1.3
293.15	0.2547	0.164	1181.6	1.2
293.15	0.2588	0.2082	1148.1	1.1
293.15	0.2725	0.1315	1186.7	1.2
293.15	0.2753	0.3322	1072.8	0.9
293.15	0.2809	0.452	1010	0.8
293.15	0.2821	0.1815	1168.2	1.2
293.15	0.2909	0.156	1182.4	1.2
293.15	0.2918	0.1281	1191.9	1.2
293.15	0.2951	0.2374	1127.6	1.1
293.15	0.3038	0.1955	1157.5	1.1
293.15	0.3084	0.4962	983.8	0.8
293.15	0.3131	0.1511	1172	1.1
293.15	0.3189	0.1232	1191	1.2
293.15	0.3204	0.1718	1170.7	1.2
293.15	0.3255	0.2619	1110.9	1
293.15	0.3339	0.1465	1177.7	1.2
293.15	0.3412	0.6588	900.9	0.9
293.15	0.3418	0.5499	954.5	0.8
293.15	0.3425	0.4133	1020.8	0.8
293.15	0.3435	0.2211	1138.4	1.1
293.15	0.3437	0.1843	1157.2	1.1
293.15	0.3438	0.1659	1160.7	1.1
293.15	0.3629	0.1402	1177.3	1.2
293.15	0.3629	0.292	1090.9	1
293.15	0.3645	0	1253.7	1.4
293.15	0.3656	0.1604	1166.7	1.2
293.15	0.3678	0.1775	1152.1	1.1
293.15	0.3728	0.4499	998	0.8
293.15	0.3762	0.2422	1122	1
293.15	0.3857	0.2069	1140.6	1.1
293.15	0.3902	0.1712	1157.3	1.1
293.15	0.3957	0.1528	1166.8	1.1
293.15	0.404	0.596	919.6	0.9
293.15	0.4091	0.4937	972.8	0.8
293.15	0.4109	0.1984	1136.8	1.1
293.15	0.4159	0.2677	1101.1	1
293.15	0.4199	0.2252	1125.9	1
293.15	0.421	0.1626	1158.9	1.1
293.15	0.424	0	1249.7	1.4
293.15	0.4342	0.1905	1141	1.1
293.15	0.4386	0.3529	1048.2	0.9
293.15	0.4458	0.2152	1124	1
293.15	0.4608	0.2471	1108.5	1
293.15	0.4658	0.1799	1145	1.1
293.15	0.4694	0.206	1129.3	1.1
293.15	0.4714	0.3792	1030.6	0.8
293.15	0.487	0.2351	1108.7	1
293.15	0.4941	0.318	1063.9	0.9
293.15	0.5013	0.1936	1133.5	1.1
293.15	0.5094	0.4098	1009.8	0.8
293.15	0.5109	0.2242	1113.3	1
293.15	0.5249	0.4751	973.2	0.8
293.15	0.5271	0.3393	1047.5	0.9
293.15	0.5396	0.2894	1075.1	0.9
293.15	0.542	0	1240.8	1.3
293.15	0.5427	0.2096	1119.9	1
293.15	0.5648	0.3635	1028.9	0.8
293.15	0.5656	0.273	1079.9	0.9
293.15	0.5722	0.3069	1061.5	0.9
293.15	0.5889	0.2584	1086.4	0.9
293.15	0.5978	0.2886	1068.4	0.9
293.15	0.609	0.3266	1045.7	0.9
293.15	0.6194	0.2392	1095.6	1
293.15	0.6205	0.2723	1075.1	0.9
293.15	0.6338	0.3059	1055.2	0.9
293.15	0.6397	0.3603	1027	0.8
293.15	0.6501	0.251	1084.8	0.9
293.15	0.6556	0.2877	1062.8	0.9
293.15	0.6585	0	1229.4	1.3
293.15	0.6839	0.2641	1073.6	0.9
293.15	0.7489	0.2511	1075.7	0.9
293.15	0.7737	0	1220.6	1.3
293.15	0.853	0.147	1123.6	1
293.15	0.8875	0	1211.5	1.3
293.15	0.9031	0.0969	1150.8	1.1
293.15	0.9439	0	1206.7	1.2
298.15	0	0.1014	1212.2	1.3
298.15	0	0.1535	1180.4	1.2
298.15	0	0.2607	1123	1
298.15	0	0.372	1064.8	0.9
298.15	0	0.4293	1035.5	0.8
298.15	0	0.5473	973.2	0.8
298.15	0	0.608	941.2	0.8
298.15	0	0.7979	853.5	1
298.15	0	0.8639	825.8	1.1
298.15	0.0184	0.1775	1164.8	1.2
298.15	0.0223	0.2151	1140.9	1.1
298.15	0.0255	0.2464	1127.3	1
298.15	0.0283	0.2729	1111.9	1
298.15	0.0337	0.3254	1093	0.9
298.15	0.0387	0.3732	1066.1	0.9
298.15	0.0453	0.4376	1030.1	0.8
298.15	0.0532	0.1712	1175	1.2
298.15	0.0611	0.5901	951.8	0.8
298.15	0.064	0.2059	1155.3	1.1
298.15	0.0692	0.6678	915.4	0.9
298.15	0.0729	0.2344	1138.7	1.1
298.15	0.0796	0.7689	861	1
298.15	0.0803	0.2583	1124.6	1
298.15	0.0947	0.3048	1097.9	1
298.15	0.101	0.1626	1179.9	1.2
298.15	0.1077	0.3464	1074.1	0.9
298.15	0.1203	0.1935	1161	1.1
298.15	0.123	0	1263.5	1.4
298.15	0.1247	0.4012	1042.5	0.8
298.15	0.1303	0.1573	1180.5	1.2
298.15	0.1358	0.2185	1145.3	1.1
298.15	0.1422	0.8578	816.2	1.1
298.15	0.1486	0.2391	1132.6	1.1
298.15	0.1542	0.1861	1161.6	1.1
298.15	0.1634	0.5259	973.9	0.8
298.15	0.1731	0.2785	1109.2	1
298.15	0.1732	0.2091	1146.9	1.1
298.15	0.1823	0.5866	942.4	0.8
298.15	0.1835	0.1476	1185.3	1.2
298.15	0.1888	0.2278	1134.6	1.1
298.15	0.1944	0.3128	1088.3	0.9
298.15	0.2061	0.6633	903.5	0.9
298.15	0.2103	0.7897	840.8	1
298.15	0.2147	0.1728	1168	1.2
298.15	0.2182	0.2633	1111.9	1
298.15	0.2193	0.1412	1190.7	1.2
298.15	0.2217	0.3567	1061.3	0.9
298.15	0.2391	0.1924	1154.2	1.1
298.15	0.2434	0.2937	1092.5	1
298.15	0.2445	0	1256.6	1.4
298.15	0.2521	0.1352	1191.5	1.2
298.15	0.2547	0.164	1175.2	1.2
298.15	0.2588	0.2082	1142.2	1.1
298.15	0.2725	0.1315	1180.6	1.2
298.15	0.2753	0.3322	1067.6	0.9
298.15	0.2809	0.452	1005	0.8
298.15	0.2821	0.1815	1162.3	1.1
298.15	0.2909	0.156	1176	1.2
298.15	0.2918	0.1281	1185.3	1.2
298.15	0.2951	0.2374	1122	1
298.15	0.3038	0.1955	1151.8	1.1
298.15	0.3084	0.4962	979	0.8
298.15	0.3131	0.1511	1166	1.1
298.15	0.3189	0.1232	1184.8	1.2
298.15	0.3204	0.1718	1164.9	1.1
298.15	0.3255	0.2619	1105.4	1
298.15	0.3339	0.1465	1171.7	1.2
298.15	0.3412	0.6588	897.5	0.9
298.15	0.3418	0.5499	950	0.8
298.15	0.3425	0.4133	1015.6	0.8
298.15	0.3435	0.2211	1132.8	1.1
298.15	0.3437	0.1843	1152.2	1.1
298.15	0.3438	0.1659	1155.2	1.1
298.15	0.3629	0.1402	1171	1.2
298.15	0.3629	0.292	1086.2	0.9
298.15	0.3645	0	1247.1	1.4
298.15	0.3656	0.1604	1160.8	1.1
298.15	0.3678	0.1775	1146.4	1.1
298.15	0.3728	0.4499	993	0.8
298.15	0.3762	0.2422	1116.7	1
298.15	0.3857	0.2069	1135.2	1.1
298.15	0.3902	0.1712	1152.2	1.1
298.15	0.3957	0.1528	1161.6	1.1
298.15	0.404	0.596	915.6	0.9
298.15	0.4091	0.4937	967.9	0.8
298.15	0.4109	0.1984	1131.4	1
298.15	0.4159	0.2677	1096	1
298.15	0.4199	0.2252	1120.6	1
298.15	0.421	0.1626	1153.3	1.1
298.15	0.424	0	1244	1.3
298.15	0.4342	0.1905	1135.5	1.1
298.15	0.4386	0.3529	1043.3	0.8
298.15	0.4458	0.2152	1118.8	1
298.15	0.4608	0.2471	1103.5	1
298.15	0.4658	0.1799	1139.6	1.1
298.15	0.4694	0.206	1123.1	1
298.15	0.4714	0.3792	1025.4	0.8
298.15	0.487	0.2351	1103.7	1
298.15	0.4941	0.318	1058.7	0.9
298.15	0.5013	0.1936	1128.1	1.1
298.15	0.5094	0.4098	1005	0.8
298.15	0.5109	0.2242	1108.1	1
298.15	0.5249	0.4751	970.2	0.8
298.15	0.5271	0.3393	1042.6	0.9
298.15	0.5396	0.2894	1072	0.9
298.15	0.542	0	1234.4	1.3
298.15	0.5427	0.2096	1114.9	1
298.15	0.5648	0.3635	1024.2	0.8
298.15	0.5656	0.273	1075.1	0.9
298.15	0.5722	0.3069	1056.8	0.9
298.15	0.5889	0.2584	1082.6	0.9
298.15	0.5978	0.2886	1063.6	0.9
298.15	0.609	0.3266	1041	0.8
298.15	0.6194	0.2392	1090.5	1
298.15	0.6205	0.2723	1070.6	0.9
298.15	0.6338	0.3059	1050.5	0.9
298.15	0.6397	0.3603	1022.7	0.8
298.15	0.6501	0.251	1080.4	0.9
298.15	0.6556	0.2877	1057.8	0.9
298.15	0.6585	0	1223.8	1.3
298.15	0.6839	0.2641	1069.7	0.9
298.15	0.7489	0.2511	1071.6	0.9
298.15	0.7737	0	1214.7	1.3
298.15	0.853	0.147	1119.2	1
298.15	0.8875	0	1206.6	1.2
298.15	0.9031	0.0969	1146.3	1.1
298.15	0.9439	0	1201.6	1.2
303.15	0	0.1014	1206.3	1.3
303.15	0	0.1535	1174.2	1.2
303.15	0	0.2607	1118.5	1
303.15	0	0.372	1059.4	0.9
303.15	0	0.4293	1029.9	0.8
303.15	0	0.5473	967.8	0.8
303.15	0	0.608	935.8	0.8
303.15	0	0.7979	849	1
303.15	0	0.8639	821.8	1.1
303.15	0.0184	0.1775	1158	1.1
303.15	0.0223	0.2151	1134.6	1.1
303.15	0.0255	0.2464	1121.2	1
303.15	0.0283	0.2729	1106.1	1
303.15	0.0337	0.3254	1087.2	0.9
303.15	0.0387	0.3732	1060.4	0.9
303.15	0.0453	0.4376	1024.1	0.8
303.15	0.0532	0.1712	1168.1	1.1
303.15	0.0611	0.5901	946.4	0.8
303.15	0.064	0.2059	1149.2	1.1
303.15	0.0692	0.6678	910.3	0.9
303.15	0.0729	0.2344	1132.3	1.1
303.15	0.0796	0.7689	856.3	1
303.15	0.0803	0.2583	1118.8	1
303.15	0.0947	0.3048	1091.9	1
303.15	0.101	0.1626	1173.4	1.2
303.15	0.1077	0.3464	1068.2	0.9
303.15	0.1203	0.1935	1154.7	1.1
303.15	0.123	0	1256.5	1.4
303.15	0.1247	0.4012	1036.8	0.8
303.15	0.1303	0.1573	1174.1	1.2
303.15	0.1358	0.2185	1139.3	1.1
303.15	0.1422	0.8578	812.4	1.1
303.15	0.1486	0.2391	1126.4	1
303.15	0.1542	0.1861	1155.5	1.1
303.15	0.1634	0.5259	968.6	0.8
303.15	0.1731	0.2785	1100.9	1
303.15	0.1732	0.2091	1140.7	1.1
303.15	0.1823	0.5866	937.2	0.8
303.15	0.1835	0.1476	1179.2	1.2
303.15	0.1888	0.2278	1128.6	1
303.15	0.1944	0.3128	1082.3	0.9
303.15	0.2061	0.6633	898.7	0.9
303.15	0.2103	0.7897	837.4	1
303.15	0.2147	0.1728	1162.1	1.1
303.15	0.2182	0.2633	1106	1
303.15	0.2193	0.1412	1184.5	1.2
303.15	0.2217	0.3567	1055.5	0.9
303.15	0.2391	0.1924	1148.1	1.1
303.15	0.2434	0.2937	1086.7	0.9
303.15	0.2445	0	1249.8	1.4
303.15	0.2521	0.1352	1185.5	1.2
303.15	0.2547	0.164	1169	1.2
303.15	0.2588	0.2082	1136.4	1.1
303.15	0.2725	0.1315	1175.1	1.2
303.15	0.2753	0.3322	1062.1	0.9
303.15	0.2809	0.452	1000	0.8
303.15	0.2821	0.1815	1156.4	1.1
303.15	0.2909	0.156	1170.2	1.2
303.15	0.2918	0.1281	1179.7	1.2
303.15	0.2951	0.2374	1116.3	1
303.15	0.3038	0.1955	1145.9	1.1
303.15	0.3084	0.4962	974.1	0.8
303.15	0.3131	0.1511	1160.2	1.1
303.15	0.3189	0.1232	1179.7	1.2
303.15	0.3204	0.1718	1158.4	1.1
303.15	0.3255	0.2619	1099.9	1
303.15	0.3339	0.1465	1165.8	1.1
303.15	0.3412	0.6588	894.2	0.9
303.15	0.3418	0.5499	945.3	0.8
303.15	0.3425	0.4133	1010.7	0.8
303.15	0.3435	0.2211	1127.3	1
303.15	0.3437	0.1843	1147.2	1.1
303.15	0.3438	0.1659	1149.2	1.1
303.15	0.3629	0.1402	1165.4	1.1
303.15	0.3629	0.292	1079.9	0.9
303.15	0.3645	0	1240.8	1.3
303.15	0.3656	0.1604	1154.9	1.1
303.15	0.3678	0.1775	1140.6	1.1
303.15	0.3728	0.4499	988.1	0.8
303.15	0.3762	0.2422	1111.5	1
303.15	0.3857	0.2069	1129.7	1.1
303.15	0.3902	0.1712	1146.7	1.1
303.15	0.3957	0.1528	1155.7	1.1
303.15	0.404	0.596	912.8	0.9
303.15	0.4091	0.4937	963.6	0.8
303.15	0.4109	0.1984	1125.7	1
303.15	0.4159	0.2677	1090.7	1
303.15	0.4199	0.2252	1114.9	1
303.15	0.421	0.1626	1147.6	1.1
303.15	0.424	0	1238	1.3
303.15	0.4342	0.1905	1130.3	1.1
303.15	0.4386	0.3529	1038.4	0.8
303.15	0.4458	0.2152	1113.4	1
303.15	0.4608	0.2471	1098.2	1
303.15	0.4658	0.1799	1134	1.1
303.15	0.4694	0.206	1118	1
303.15	0.4714	0.3792	1020.6	0.8
303.15	0.487	0.2351	1098.3	1
303.15	0.4941	0.318	1053.9	0.9
303.15	0.5013	0.1936	1122.9	1
303.15	0.5094	0.4098	1000.4	0.8
303.15	0.5109	0.2242	1102.8	1
303.15	0.5249	0.4751	965	0.8
303.15	0.5271	0.3393	1037.8	0.8
303.15	0.5396	0.2894	1064.8	0.9
303.15	0.542	0	1228.2	1.3
303.15	0.5427	0.2096	1109.9	1
303.15	0.5648	0.3635	1020.3	0.8
303.15	0.5656	0.273	1070.3	0.9
303.15	0.5722	0.3069	1051.8	0.9
303.15	0.5889	0.2584	1076.5	0.9
303.15	0.5978	0.2886	1059.1	0.9
303.15	0.609	0.3266	1036.6	0.8
303.15	0.6194	0.2392	1085.4	0.9
303.15	0.6205	0.2723	1065.5	0.9
303.15	0.6338	0.3059	1045.8	0.8
303.15	0.6397	0.3603	1019.6	0.8
303.15	0.6501	0.251	1075.5	0.9
303.15	0.6556	0.2877	1053.2	0.9
303.15	0.6585	0	1218.5	1.3
303.15	0.6839	0.2641	1064.4	0.9
303.15	0.7489	0.2511	1067.8	0.9
303.15	0.7737	0	1209.9	1.2
303.15	0.853	0.147	1114.5	1
303.15	0.8875	0	1201.6	1.2
303.15	0.9031	0.0969	1142	1.1
303.15	0.9439	0	1196.5	1.2
308.15	0	0.1014	1198.2	1.2
308.15	0	0.1535	1167.5	1.2
308.15	0	0.2607	1111	1
308.15	0	0.372	1053.2	0.9
308.15	0	0.4293	1024.4	0.8
308.15	0	0.5473	962.5	0.8
308.15	0	0.608	930.7	0.9
308.15	0	0.7979	843.8	1
308.15	0	0.8639	816.5	1.1
308.15	0.0184	0.1775	1151.4	1.1
308.15	0.0223	0.2151	1127	1
308.15	0.0255	0.2464	1114.4	1
308.15	0.0283	0.2729	1099.5	1
308.15	0.0337	0.3254	1080.1	0.9
308.15	0.0387	0.3732	1053.9	0.9
308.15	0.0453	0.4376	1018.8	0.8
308.15	0.0532	0.1712	1161.9	1.1
308.15	0.0611	0.5901	941.1	0.8
308.15	0.064	0.2059	1142	1.1
308.15	0.0692	0.6678	905	0.9
308.15	0.0729	0.2344	1125.8	1
308.15	0.0796	0.7689	851.7	1
308.15	0.0803	0.2583	1112.1	1
308.15	0.0947	0.3048	1085.5	0.9
308.15	0.101	0.1626	1166.5	1.1
308.15	0.1077	0.3464	1062.4	0.9
308.15	0.1203	0.1935	1148.5	1.1
308.15	0.123	0	1249	1.4
308.15	0.1247	0.4012	1031.1	0.8
308.15	0.1303	0.1573	1167.5	1.1
308.15	0.1358	0.2185	1133.2	1.1
308.15	0.1422	0.8578	808.2	1.1
308.15	0.1486	0.2391	1120.2	1
308.15	0.1542	0.1861	1149.7	1.1
308.15	0.1634	0.5259	963.6	0.8
308.15	0.1731	0.2785	1097.5	1
308.15	0.1732	0.2091	1135	1.1
308.15	0.1823	0.5866	932.2	0.9
308.15	0.1835	0.1476	1173	1.2
308.15	0.1888	0.2278	1122.1	1
308.15	0.1944	0.3128	1076.2	0.9
308.15	0.2061	0.6633	894	0.9
308.15	0.2103	0.7897	832.3	1
308.15	0.2147	0.1728	1155.9	1.1
308.15	0.2182	0.2633	1100.2	1
308.15	0.2193	0.1412	1178.3	1.2
308.15	0.2217	0.3567	1050.4	0.9
308.15	0.2391	0.1924	1142.6	1.1
308.15	0.2434	0.2937	1080.6	0.9
308.15	0.2445	0	1242.4	1.3
308.15	0.2521	0.1352	1179.7	1.2
308.15	0.2547	0.164	1163.3	1.1
308.15	0.2588	0.2082	1131.1	1.1
308.15	0.2725	0.1315	1168.4	1.1
308.15	0.2753	0.3322	1056.9	0.9
308.15	0.2809	0.452	994.5	0.8
308.15	0.2821	0.1815	1151.2	1.1
308.15	0.2909	0.156	1164.7	1.1
308.15	0.2918	0.1281	1173.3	1.2
308.15	0.2951	0.2374	1110.1	1
308.15	0.3038	0.1955	1140.6	1.1
308.15	0.3084	0.4962	969.4	0.8
308.15	0.3131	0.1511	1154.8	1.1
308.15	0.3189	0.1232	1173.7	1.2
308.15	0.3204	0.1718	1151.5	1.1
308.15	0.3255	0.2619	1094.6	1
308.15	0.3339	0.1465	1160	1.1
308.15	0.3412	0.6588	891	0.9
308.15	0.3418	0.5499	940.7	0.8
308.15	0.3425	0.4133	1005.5	0.8
308.15	0.3435	0.2211	1122.1	1
308.15	0.3437	0.1843	1141.5	1.1
308.15	0.3438	0.1659	1143.6	1.1
308.15	0.3629	0.1402	1159.7	1.1
308.15	0.3629	0.292	1074.7	0.9
308.15	0.3645	0	1234.3	1.3
308.15	0.3656	0.1604	1149.3	1.1
308.15	0.3678	0.1775	1135.2	1.1
308.15	0.3728	0.4499	984	0.8
308.15	0.3762	0.2422	1106.2	1
308.15	0.3857	0.2069	1123.4	1
308.15	0.3902	0.1712	1140	1.1
308.15	0.3957	0.1528	1149.8	1.1
308.15	0.404	0.596	909	0.9
308.15	0.4091	0.4937	959	0.8
308.15	0.4109	0.1984	1120.7	1
308.15	0.4159	0.2677	1086.9	0.9
308.15	0.4199	0.2252	1109.3	1
308.15	0.421	0.1626	1142.3	1.1
308.15	0.424	0	1230.7	1.3
308.15	0.4342	0.1905	1125.1	1
308.15	0.4386	0.3529	1033	0.8
308.15	0.4458	0.2152	1108.3	1
308.15	0.4608	0.2471	1092.8	1
308.15	0.4658	0.1799	1128.5	1
308.15	0.4694	0.206	1112.3	1
308.15	0.4714	0.3792	1015.9	0.8
308.15	0.487	0.2351	1093.3	1
308.15	0.4941	0.318	1049.2	0.9
308.15	0.5013	0.1936	1117.6	1
308.15	0.5094	0.4098	996.3	0.8
308.15	0.5109	0.2242	1097.5	1
308.15	0.5249	0.4751	962.6	0.8
308.15	0.5271	0.3393	1033.4	0.8
308.15	0.5396	0.2894	1060.4	0.9
308.15	0.542	0	1222.2	1.3
308.15	0.5427	0.2096	1105	1
308.15	0.5648	0.3635	1015.8	0.8
308.15	0.5656	0.273	1065.5	0.9
308.15	0.5722	0.3069	1047.4	0.9
308.15	0.5889	0.2584	1072.1	0.9
308.15	0.5978	0.2886	1054	0.9
308.15	0.609	0.3266	1031.6	0.8
308.15	0.6194	0.2392	1080.2	0.9
308.15	0.6205	0.2723	1060.3	0.9
308.15	0.6338	0.3059	1041.4	0.8
308.15	0.6397	0.3603	1016	0.8
308.15	0.6501	0.251	1070.8	0.9
308.15	0.6556	0.2877	1048.8	0.9
308.15	0.6585	0	1212.4	1.3
308.15	0.6839	0.2641	1059.6	0.9
308.15	0.7489	0.2511	1062.9	0.9
308.15	0.7737	0	1205.1	1.2
308.15	0.853	0.147	1111.5	1
308.15	0.8875	0	1196	1.2
308.15	0.9031	0.0969	1137.5	1.1
308.15	0.9439	0	1191.2	1.2
