Measured thermophysical data. Determination of Gas Concentrations in Liquids by Nuclear Magnetic Resonance: Hydrogen in Organic Solvents
Source: J. Chem. Eng. Data, 2012, 10.1021/je2013582
Compound 1: hydrogen, H2, InChI=1S/H2/h1H, purity 99.999%
Compound 2: 1,2-dichloroethane, C2H4Cl2, InChI=1S/C2H4Cl2/c3-1-2-4/h1-2H2, purity 99%
Compound 3: dichloromethane, CH2Cl2, InChI=1S/CH2Cl2/c2-1-3/h1H2, purity 99%
Compound 4: ethanol, C2H6O, InChI=1S/C2H6O/c1-2-3/h3H,2H2,1H3, purity 99%
Compound 5: propan-2-ol, C3H8O, InChI=1S/C3H8O/c1-3(2)4/h3-4H,1-2H3, purity 99%
Compound 6: 2,2,2-trifluoroethanol, C2H3F3O, InChI=1S/C2H3F3O/c3-2(4,5)1-6/h6H,1H2, purity 99%
Compound 7: methanol, CH4O, InChI=1S/CH4O/c1-2/h2H,1H3, purity 99%
Compound 8: benzene, C6H6, InChI=1S/C6H6/c1-2-4-6-5-3-1/h1-6H, purity 99.7%
Compound 9: toluene, C7H8, InChI=1S/C7H8/c1-7-5-3-2-4-6-7/h2-6H,1H3

System: methanol + hydrogen; phases: Liquid, Gas
Property: Molality, mol/kg (Liquid); method: NMR
Pressure, kPa	Temperature, K	Molality, mol/kg	uncertainty
101	298.15	0.00423	0.00034

System: ethanol + hydrogen; phases: Liquid, Gas
Property: Molality, mol/kg (Liquid); method: NMR
Pressure, kPa	Temperature, K	Molality, mol/kg	uncertainty
101	298.15	0.00418	0.00025

System: propan-2-ol + hydrogen; phases: Liquid, Gas
Property: Molality, mol/kg (Liquid); method: NMR
Pressure, kPa	Temperature, K	Molality, mol/kg	uncertainty
101	298.15	0.00393	0.00039

System: 2,2,2-trifluoroethanol + hydrogen; phases: Liquid, Gas
Property: Molality, mol/kg (Liquid); method: NMR
Pressure, kPa	Temperature, K	Molality, mol/kg	uncertainty
101	298.15	0.00239	0.00029

System: benzene + hydrogen; phases: Liquid, Gas
Property: Molality, mol/kg (Liquid); method: NMR
Pressure, kPa	Temperature, K	Molality, mol/kg	uncertainty
101	298.15	0.00282	0.00028

System: dichloromethane + hydrogen; phases: Liquid, Gas
Property: Molality, mol/kg (Liquid); method: NMR
Pressure, kPa	Temperature, K	Molality, mol/kg	uncertainty
101	298.15	0.00115	9e-05

System: 1,2-dichloroethane + hydrogen; phases: Liquid, Gas
Property: Molality, mol/kg (Liquid); method: NMR
Pressure, kPa	Temperature, K	Molality, mol/kg	uncertainty
101	298.15	0.00167	0.0001

System: toluene + hydrogen; phases: Liquid, Gas
Property: Molality, mol/kg (Liquid); method: NMR
Temperature, K	Pressure, kPa	Molality, mol/kg	uncertainty
298.15	101	0.00327	0.0002
