Measured thermophysical data. Densities, Viscosities, Heat Capacities, and Vapor Liquid Equilibria of Ammonia + Sodium Thiocyanate Solutions at Several Temperatures
Source: J. Chem. Eng. Data, 2011, 10.1021/je200038n
Compound 1: ammonia, H3N, InChI=1S/H3N/h1H3, purity 99.98%
Compound 2: sodium thiocyanate, CNNaS, InChI=1S/CHNS.Na/c2-1-3;/h3H;/q;+1/p-1, purity 99%

System: ammonia; phases: Liquid
Fixed: Pressure, kPa = 3000
Property: Molar heat capacity at constant pressure, J/K/mol (Liquid); method: Flow calorimetry
Temperature, K	Molar heat capacity at constant pressure, J/K/mol	uncertainty
304.17	82.46197152	0.52794736
314.14	83.449744	0.52794736
324.11	85.8340224	0.52794736
334.09	89.35934832	0.52794736

System: sodium thiocyanate + ammonia; phases: Liquid
Fixed: Pressure, kPa = 3000
Property: Molar heat capacity at constant pressure, J/K/mol (Liquid); method: Flow calorimetry
Temperature, K	Mass fraction of ammonia	Molar heat capacity at constant pressure, J/K/mol	uncertainty
304.17	0.4992	63.4842	0.845
304.17	0.5988	72.5524	0.748
304.17	0.7013	76.7443	0.691
304.17	0.9	81.5279	0.573
304.17	1	82.462	0.528
314.14	0.4992	64.6113	0.845
314.14	0.5988	72.3031	0.748
314.14	0.7013	77.7251	0.691
314.14	0.7961	81.1402	0.629
314.14	0.9	81.9347	0.573
314.14	1	83.4497	0.528
324.11	0.4992	64.6395	0.845
324.11	0.5988	72.1286	0.748
324.11	0.7013	77.8588	0.691
324.11	0.7961	82.1553	0.629
324.11	0.9	83.7654	0.573
324.11	1	85.834	0.528
334.09	0.4992	65.2594	0.845
334.09	0.5988	72.4776	0.748
334.09	0.7013	78.1709	0.691
334.09	0.7961	82.8049	0.629
334.09	0.9	85.9288	0.573
334.09	1	89.3593	0.528
344.07	0.4992	65.9357	0.845
344.07	0.5988	73.3004	0.748
344.07	0.7013	79.1962	0.691
354.06	0.4992	67.2882	0.845
354.06	0.5988	74.1231	0.748
364.15	0.4992	70.3032	0.845

System: sodium thiocyanate + ammonia; phases: Liquid
Fixed: Pressure, kPa = 3000
Property: Viscosity, Pa*s (Liquid); method: Moving piston method
Temperature, K	Mass fraction of ammonia	Viscosity, Pa*s	uncertainty
269.8	0.8921	0.00027	5e-05
270.6	0.614	0.00141	5e-05
270.6	0.6824	0.00082	5e-05
270.8	0.4998	0.00347	5e-05
270.8	0.797	0.00044	5e-05
274.9	0.614	0.00127	5e-05
274.9	0.6824	0.00077	5e-05
275	0.4998	0.00308	5e-05
275	0.797	0.0004	5e-05
275.4	0.8921	0.00025	5e-05
279.4	0.614	0.00114	5e-05
279.4	0.6824	0.0007	5e-05
279.4	0.797	0.00037	5e-05
279.5	0.4998	0.00275	5e-05
284	0.614	0.00106	5e-05
284	0.6824	0.00065	5e-05
284.1	0.4998	0.00243	5e-05
284.1	0.797	0.00035	5e-05
284.3	0.8921	0.00022	5e-05
288.7	0.4998	0.0022	5e-05
288.7	0.6824	0.00061	5e-05
288.7	0.797	0.00033	5e-05
293.3	0.6824	0.00057	5e-05
293.4	0.4998	0.00195	5e-05
293.4	0.614	0.00089	5e-05
293.4	0.797	0.00031	5e-05
293.5	0.8921	0.0002	5e-05
298	0.614	0.00083	5e-05
298	0.6824	0.00052	5e-05
298.1	0.4998	0.00173	5e-05
302.7	0.797	0.00028	5e-05
302.8	0.614	0.00076	5e-05
302.8	0.6824	0.00049	5e-05
302.8	0.8921	0.00018	5e-05
302.9	0.4998	0.00157	5e-05
307.5	0.614	0.00071	5e-05
307.5	0.6824	0.00046	5e-05
307.5	0.797	0.00026	5e-05
307.6	0.4998	0.00141	5e-05
312.2	0.6824	0.00043	5e-05
312.2	0.797	0.00024	5e-05
312.2	0.8921	0.00016	5e-05
312.3	0.4998	0.00127	5e-05
312.3	0.614	0.00066	5e-05
316.8	0.797	0.00023	5e-05
317	0.614	0.00062	5e-05
317	0.6824	0.0004	5e-05
317.1	0.4998	0.00115	5e-05
321.5	0.797	0.00022	5e-05
321.6	0.8921	0.00015	5e-05
321.7	0.614	0.00057	5e-05
321.7	0.6824	0.00038	5e-05
321.8	0.4998	0.00106	5e-05
326.4	0.797	0.00021	5e-05
326.5	0.614	0.00053	5e-05
326.5	0.6824	0.00036	5e-05
326.6	0.4998	0.001	5e-05
331	0.8921	0.00013	5e-05
331.1	0.797	0.0002	5e-05
331.2	0.614	0.00051	5e-05
331.2	0.6824	0.00035	5e-05
331.4	0.4998	0.00092	5e-05
335.7	0.797	0.00019	5e-05
336	0.6824	0.00033	5e-05
336.1	0.614	0.00047	5e-05
336.3	0.4998	0.00087	5e-05
340.6	0.797	0.00018	5e-05
340.8	0.614	0.00046	5e-05
340.8	0.6824	0.00031	5e-05
341.1	0.4998	0.00082	5e-05
345.6	0.614	0.00043	5e-05
345.9	0.4998	0.00077	5e-05
350.2	0.614	0.0004	5e-05
350.4	0.4998	0.00073	5e-05
359.7	0.4998	0.00065	5e-05
369.5	0.4998	0.00058	5e-05

System: sodium thiocyanate + ammonia; phases: Liquid, Gas
Property: Vapor or sublimation pressure, kPa (Liquid); method: CCELL:UFactor:8
Temperature, K	Mass fraction of ammonia	Vapor or sublimation pressure, kPa	uncertainty
253.1	0.6062	112	4.3
253.1	0.7014	151.6	5.3
253.1	0.7216	156.6	5.5
253.1	0.8033	174.2	6.1
253.1	0.8978	185	6.2
263.1	0.6054	169.3	5.4
263.1	0.7017	230.7	6.9
263.1	0.7212	239.4	7.8
263.1	0.8065	267.4	8
263.1	0.8977	280.3	8.4
273.1	0.6044	252	8.1
273.1	0.7004	338.8	10
273.1	0.8012	392.4	11.5
273.1	0.8975	414.1	12.8
283.1	0.6987	491.2	14.1
283.1	0.7196	512	14.3
283.1	0.8047	565.1	16.8
293.1	0.3518	93	3.8
293.1	0.4198	185.5	5.7
293.1	0.5973	535.8	14.9
293.1	0.6349	608.8	18
293.1	0.6965	686.6	19.4
293.1	0.7185	718.1	20.1
293.1	0.7946	779.7	22.5
293.1	0.8971	825.2	22.6
303.1	0.3508	135.5	4.6
303.1	0.4185	254.2	7.3
303.1	0.4833	415.9	11.8
303.1	0.5357	582.2	16.5
303.1	0.5921	734.5	20.4
303.1	0.6334	836	23.1
303.1	0.6936	932.5	25.8
303.1	0.7172	968.1	26.7
303.1	0.7919	1052	28.2
303.1	0.8967	1124	31
313.1	0.3494	195	5.9
313.1	0.4168	351.2	10
313.1	0.4813	560.1	15.6
313.1	0.5341	761.1	21
313.1	0.5902	958	26
313.1	0.6317	1096	30
313.1	0.6882	1228.2	33.5
313.1	0.7156	1284	35
313.1	0.7828	1394.2	38.9
313.1	0.8964	1492.8	40.8
323.15	0.3476	271.2	7.8
323.15	0.4146	470.1	13.2
323.15	0.4789	732.2	20.1
323.15	0.5319	1015.1	27.8
323.15	0.5878	1248.9	33.7
323.15	0.6295	1438	38.9
323.15	0.684	1591	42.8
323.15	0.7135	1677	45.2
323.15	0.7775	1810.5	48.7
323.15	0.8959	1965.8	53
333.1	0.3456	361.2	10.2
333.1	0.412	619.8	17.3
333.1	0.476	943.5	25.8
333.1	0.5294	1305	35
333.1	0.5851	1582	42.7
333.1	0.6269	1840	49.2
333.1	0.679	2015	53.3
333.1	0.711	2145	57.2
333.1	0.7707	2312	60.7
333.1	0.8953	2518.8	67.2
343.1	0.3432	475.3	13.3
343.1	0.4085	816.8	22.6
343.1	0.4723	1209	32.7
343.1	0.5267	1625	42.9
343.1	0.5813	2026	54.3
343.1	0.6239	2308	60.8
343.1	0.6739	2457	64.5
343.1	0.7081	2695	71.3
343.1	0.7637	2890	75.3
343.1	0.8947	3192.8	84.5
353.1	0.3402	615.1	17.1
353.1	0.4046	1046.2	28.3
353.1	0.4681	1516.6	40.4
353.1	0.5238	1970	51.9
353.1	0.5771	2531	65.8
353.1	0.6207	2810	73
353.1	0.6654	3120	82.4
353.1	0.7046	3340	86.8
353.1	0.7549	3538	91.7
353.1	0.8939	3980	103.7
363.1	0.3369	776.5	21.2
363.1	0.4005	1287	34.1
363.1	0.4637	1848	48.9
373.1	0.3331	962	26
373.1	0.3967	1529	40.3
373.1	0.4585	2240	58.7
383.1	0.3287	1180	31.6
383.1	0.3918	1830	48
393.1	0.3242	1410	37.2
393.1	0.3867	2150	55.8

System: sodium thiocyanate + ammonia; phases: Liquid
Fixed: Pressure, kPa = 3000
Property: Mass density, kg/m3 (Liquid); method: Vibrating tube method
Temperature, K	Mass fraction of ammonia	Mass density, kg/m3	uncertainty
269.4	0.8921	707.7	2
270.4	0.614	896.5	2
270.4	0.6824	850	2
270.5	0.4998	965.7	2
270.5	0.797	772.7	2
274.8	0.614	892.6	2
274.8	0.797	767.4	2
274.9	0.6824	848	2
275	0.4998	962.2	2
275.2	0.8921	699.9	2
279.3	0.6824	844	2
279.4	0.614	888.8	2
279.4	0.797	761.7	2
279.5	0.4998	959.3	2
283.8	0.6824	839	2
283.9	0.797	756.4	2
284	0.614	884.9	2
284.1	0.4998	955.9	2
284.2	0.8921	686.6	2
288.6	0.614	881.6	2
288.6	0.6824	834	2
288.6	0.797	750.7	2
288.7	0.4998	952.2	2
293.3	0.614	878.3	2
293.3	0.6824	831	2
293.4	0.4998	948.2	2
293.4	0.797	745.1	2
293.5	0.8921	674	2
298	0.6824	828	2
298.1	0.614	875.8	2
298.2	0.4998	944.6	2
302.8	0.614	870	2
302.9	0.6824	821	2
302.9	0.797	734.7	2
303	0.4998	941	2
303	0.8921	660.5	2.1
307.6	0.614	866.2	2
307.6	0.6824	817	2
307.6	0.797	729.5	2
307.7	0.4998	937.1	2
312.3	0.6824	811	2
312.4	0.4998	933.3	2
312.4	0.614	862.3	2
312.4	0.797	724.2	2
312.4	0.8921	648.1	2.1
317	0.614	857.4	2
317.1	0.797	718.9	2
317.2	0.4998	929.3	2
317.2	0.6824	807	2
321.8	0.614	852.4	2
321.8	0.797	713.6	2
321.9	0.4998	925.5	2
321.9	0.6824	800.5	2
322	0.8921	635.4	2.1
326.6	0.614	846.9	2
326.6	0.797	708.4	2
326.7	0.4998	921.4	2
326.7	0.6824	795	2
331.4	0.614	843.1	2
331.4	0.6824	792	2
331.4	0.797	701	2.1
331.5	0.4998	917.4	2
336.2	0.614	838.1	2
336.2	0.797	692.7	2.1
336.3	0.4998	913.3	2
336.3	0.6824	783.1	2.1
341	0.797	686.7	2
341.1	0.614	832.6	2
341.1	0.6824	775.2	2
341.2	0.4998	909.2	2
346	0.4998	905.1	2.6
346	0.614	826.5	2.6
350.9	0.4998	900.9	2.6
