Measured thermophysical data. Solid Liquid Equilibrium of Binary Mixtures Containing Fatty Acids and Triacylglycerols
Source: J. Chem. Eng. Data, 2011, 10.1021/je200033b
Compound 1: glycerol trioctadecanoate, C57H110O6, InChI=1S/C57H110O6/c1-4-7-10-13-16-19-22-25-28-31-34-37-40-43-46-49-55(58)61-52-54(63-57(60)51-48-45-42-39-36-33-30-27-24-21-18-15-12-9-6-3)53-62-56(59)50-47-44-41-38-35-32-29-26-23-20-17-14-11-8-5-2/h54H,4-53H2,1-3H3
Compound 2: 1,2,3-propanetriyl tri(hexadecanoate), C51H98O6, InChI=1S/C51H98O6/c1-4-7-10-13-16-19-22-25-28-31-34-37-40-43-49(52)55-46-48(57-51(54)45-42-39-36-33-30-27-24-21-18-15-12-9-6-3)47-56-50(53)44-41-38-35-32-29-26-23-20-17-14-11-8-5-2/h48H,4-47H2,1-3H3
Compound 3: hexadecanoic acid, C16H32O2, InChI=1S/C16H32O2/c1-2-3-4-5-6-7-8-9-10-11-12-13-14-15-16(17)18/h2-15H2,1H3,(H,17,18)
Compound 4: (Z,Z)-9,12-octadecadienoic acid, C18H32O2, InChI=1S/C18H32O2/c1-2-3-4-5-6-7-8-9-10-11-12-13-14-15-16-17-18(19)20/h6-7,9-10H,2-5,8,11-17H2,1H3,(H,19,20)/b7-6-,10-9-
Compound 5: 1,2,3-tri(cis-9-octadecenoyl)glycerol, C57H104O6, InChI=1S/C57H104O6/c1-4-7-10-13-16-19-22-25-28-31-34-37-40-43-46-49-55(58)61-52-54(63-57(60)51-48-45-42-39-36-33-30-27-24-21-18-15-12-9-6-3)53-62-56(59)50-47-44-41-38-35-32-29-26-23-20-17-14-11-8-5-2/h25-30,54H,4-24,31-53H2,1-3H3/b28-25-,29-26-,30-27-

System: glycerol trioctadecanoate; phases: Crystal, Liquid, Air at 1 atmosphere
Property: Normal melting temperature, K (Crystal); method: DTA
Normal melting temperature, K	uncertainty
345.75	0.7

System: 1,2,3-propanetriyl tri(hexadecanoate); phases: Crystal, Liquid, Air at 1 atmosphere
Property: Normal melting temperature, K (Crystal); method: DTA
Normal melting temperature, K	uncertainty
338.82	0.7

System: hexadecanoic acid; phases: Crystal, Liquid, Air at 1 atmosphere
Property: Normal melting temperature, K (Crystal); method: DTA
Normal melting temperature, K	uncertainty
335.02	0.7

System: (Z,Z)-9,12-octadecadienoic acid; phases: Crystal, Liquid, Air at 1 atmosphere
Property: Normal melting temperature, K (Crystal); method: DTA
Normal melting temperature, K	uncertainty
267.83	0.7

System: 1,2,3-tri(cis-9-octadecenoyl)glycerol; phases: Crystal, Liquid, Air at 1 atmosphere
Property: Normal melting temperature, K (Crystal); method: DTA
Normal melting temperature, K	uncertainty
279.22	0.7

System: glycerol trioctadecanoate + 1,2,3-propanetriyl tri(hexadecanoate); phases: Liquid, Crystal
Fixed: Pressure, kPa = 101
Property: Solid-liquid equilibrium temperature, K (Liquid); method: DTA
Mole fraction of 1,2,3-propanetriyl tri(hexadecanoate)	Solid-liquid equilibrium temperature, K	uncertainty
0	345.75	0.7
0.1038	344.81	0.7
0.1992	344.09	0.7
0.3045	343.19	0.7
0.4003	342.23	0.7
0.4994	341.12	0.7
0.5997	339.7	0.7
0.6497	338.84	0.7
0.7	335.97	0.7

System: glycerol trioctadecanoate + 1,2,3-propanetriyl tri(hexadecanoate); phases: Liquid, Crystal
Fixed: Pressure, kPa = 101
Property: Solid-liquid equilibrium temperature, K (Liquid); method: DTA
Mole fraction of 1,2,3-propanetriyl tri(hexadecanoate)	Solid-liquid equilibrium temperature, K	uncertainty
0.7503	336.23	0.7
0.7992	336.69	0.7
0.8492	337.22	0.7
0.901	337.68	0.7
1	338.82	0.7

System: hexadecanoic acid + glycerol trioctadecanoate; phases: Liquid, Crystal
Fixed: Pressure, kPa = 101
Property: Solid-liquid equilibrium temperature, K (Liquid); method: DTA
Mole fraction of hexadecanoic acid	Solid-liquid equilibrium temperature, K	uncertainty
0	345.76	0.7
0.058	345.29	0.7
0.1463	344.75	0.7
0.2325	344.35	0.7
0.2998	344.07	0.7
0.3997	343.31	0.7
0.5004	342.36	0.7
0.5999	341.31	0.7
0.6992	340.08	0.7
0.7989	337.74	0.7

System: hexadecanoic acid + glycerol trioctadecanoate; phases: Liquid, Crystal
Fixed: Pressure, kPa = 101
Property: Solid-liquid equilibrium temperature, K (Liquid); method: DTA
Mole fraction of hexadecanoic acid	Solid-liquid equilibrium temperature, K	uncertainty
0.8999	334.02	0.7
0.951	334.48	0.7
1	335.02	0.7

System: (Z,Z)-9,12-octadecadienoic acid + glycerol trioctadecanoate; phases: Liquid, Crystal
Fixed: Pressure, kPa = 101
Property: Solid-liquid equilibrium temperature, K (Liquid); method: DTA
Mole fraction of (Z,Z)-9,12-octadecadienoic acid	Solid-liquid equilibrium temperature, K	uncertainty
0	345.76	0.7
0.1235	345.29	0.7
0.2076	344.84	0.7
0.3078	344.31	0.7
0.3977	343.84	0.7
0.4976	343.01	0.7
0.6032	342.06	0.7
0.7013	341	0.7
0.801	338.98	0.7
0.9019	334.77	0.7
0.991	323.73	0.7

System: (Z,Z)-9,12-octadecadienoic acid + glycerol trioctadecanoate; phases: Liquid, Crystal
Property: Solid-liquid equilibrium temperature, K (Liquid); method: DTA
Mole fraction of (Z,Z)-9,12-octadecadienoic acid	Pressure, kPa	Solid-liquid equilibrium temperature, K	uncertainty
1	101	267.83	0.7

System: 1,2,3-tri(cis-9-octadecenoyl)glycerol + 1,2,3-propanetriyl tri(hexadecanoate); phases: Liquid, Crystal
Fixed: Pressure, kPa = 101
Property: Solid-liquid equilibrium temperature, K (Liquid); method: DTA
Mole fraction of 1,2,3-tri(cis-9-octadecenoyl)glycerol	Solid-liquid equilibrium temperature, K	uncertainty
0	338.82	0.7
0.1141	338.29	0.7
0.2072	337.84	0.7
0.3038	337.31	0.7
0.4041	336.47	0.7
0.5013	335.45	0.7
0.5985	334.03	0.7
0.7011	332.15	0.7
0.8002	329.78	0.7
0.9005	326.02	0.7

System: 1,2,3-tri(cis-9-octadecenoyl)glycerol + 1,2,3-propanetriyl tri(hexadecanoate); phases: Liquid, Crystal
Property: Solid-liquid equilibrium temperature, K (Liquid); method: DTA
Mole fraction of 1,2,3-tri(cis-9-octadecenoyl)glycerol	Pressure, kPa	Solid-liquid equilibrium temperature, K	uncertainty
1	101	279.22	0.7
