Measured thermophysical data. Solubilities, Densities, and Refractive Indices for the Ternary Systems Glycerin + MCl + H2O (M = Na, K, Rb, Cs) at (298.15 and 308.15) K
Source: J. Chem. Eng. Data, 2011, 10.1021/je200443t
Compound 1: rubidium chloride, ClRb, InChI=1S/ClH.Rb/h1H;/q;+1/p-1, purity 99.5%
Compound 2: cesium chloride, ClCs, InChI=1S/ClH.Cs/h1H;/q;+1/p-1, purity 99.5%
Compound 3: glycerol, C3H8O3, InChI=1S/C3H8O3/c4-1-3(6)2-5/h3-6H,1-2H2, purity 99.8%
Compound 4: sodium chloride, ClNa, InChI=1S/ClH.Na/h1H;/q;+1/p-1, purity 99.5%
Compound 5: potassium chloride, ClK, InChI=1S/ClH.K/h1H;/q;+1/p-1, purity 99.5%
Compound 6: water, H2O, InChI=1S/H2O/h1H2, purity 99.9%

System: sodium chloride + water; phases: Liquid, Crystal
Fixed: Pressure, kPa = 101
Property: Refractive index (Na D-line) (Liquid); method: Standard Abbe refractometry
Temperature, K	Refractive index (Na D-line)	uncertainty
298.15	1.37958	0.00202
308.15	1.37822	0.00202

System: sodium chloride + water; phases: Liquid, Crystal
Fixed: Pressure, kPa = 101
Property: Mass density, kg/m3 (Liquid); method: Vibrating tube method
Temperature, K	Mass density, kg/m3	uncertainty
298.15	1197.91	3
308.15	1193.82	3

System: sodium chloride + water; phases: Liquid, Crystal
Fixed: Pressure, kPa = 101
Property: Mass fraction of sodium chloride (Liquid); method: Titration method
Temperature, K	Mass fraction of sodium chloride	uncertainty
298.15	0.2634	0.01
308.15	0.2653	0.01

System: glycerol + sodium chloride; phases: Liquid, Crystal
Fixed: Pressure, kPa = 101
Property: Mass fraction of sodium chloride (Liquid); method: Titration method
Temperature, K	Mass fraction of sodium chloride	uncertainty
298.15	0.0702	0.01
308.15	0.0752	0.01

System: potassium chloride + water; phases: Liquid, Crystal
Fixed: Pressure, kPa = 101
Property: Refractive index (Na D-line) (Liquid); method: Standard Abbe refractometry
Temperature, K	Refractive index (Na D-line)	uncertainty
298.15	1.36905	0.00202
308.15	1.36932	0.00202

System: potassium chloride + water; phases: Liquid, Crystal
Fixed: Pressure, kPa = 101
Property: Mass density, kg/m3 (Liquid); method: Vibrating tube method
Temperature, K	Mass density, kg/m3	uncertainty
298.15	1177.47	3
308.15	1183.36	3

System: potassium chloride + water; phases: Liquid, Crystal
Fixed: Pressure, kPa = 101
Property: Mass fraction of potassium chloride (Liquid); method: Titration method
Temperature, K	Mass fraction of potassium chloride	uncertainty
298.15	0.2605	0.01
308.15	0.2863	0.01

System: glycerol + potassium chloride; phases: Liquid, Crystal
Fixed: Pressure, kPa = 101
Property: Mass fraction of potassium chloride (Liquid); method: Titration method
Temperature, K	Mass fraction of potassium chloride	uncertainty
298.15	0.0696	0.01
308.15	0.0738	0.01

System: water + rubidium chloride; phases: Liquid, Crystal
Fixed: Pressure, kPa = 101
Property: Refractive index (Na D-line) (Liquid); method: Standard Abbe refractometry
Temperature, K	Refractive index (Na D-line)	uncertainty
298.15	1.38851	0.00202
308.15	1.38949	0.00202

System: water + rubidium chloride; phases: Liquid, Crystal
Fixed: Pressure, kPa = 101
Property: Mass density, kg/m3 (Liquid); method: Vibrating tube method
Temperature, K	Mass density, kg/m3	uncertainty
298.15	1500.84	3.01
308.15	1519.57	3.01

System: water + rubidium chloride; phases: Liquid, Crystal
Fixed: Pressure, kPa = 101
Property: Mass fraction of rubidium chloride (Liquid); method: Titration method
Temperature, K	Mass fraction of rubidium chloride	uncertainty
298.15	0.4854	0.0102
308.15	0.5049	0.0102

System: glycerol + rubidium chloride; phases: Liquid, Crystal
Fixed: Pressure, kPa = 101
Property: Mass fraction of rubidium chloride (Liquid); method: Titration method
Temperature, K	Mass fraction of rubidium chloride	uncertainty
298.15	0.142	0.01
308.15	0.1511	0.01

System: cesium chloride + water; phases: Liquid, Crystal
Fixed: Pressure, kPa = 101
Property: Refractive index (Na D-line) (Liquid); method: Standard Abbe refractometry
Temperature, K	Refractive index (Na D-line)	uncertainty
298.15	1.41963	0.00202
308.15	1.42093	0.00202

System: cesium chloride + water; phases: Liquid, Crystal
Fixed: Pressure, kPa = 101
Property: Mass density, kg/m3 (Liquid); method: Vibrating tube method
Temperature, K	Mass density, kg/m3	uncertainty
298.15	1924.28	3.03
308.15	1948.99	3.03

System: cesium chloride + water; phases: Liquid, Crystal
Fixed: Pressure, kPa = 101
Property: Mass fraction of cesium chloride (Liquid); method: Titration method
Temperature, K	Mass fraction of cesium chloride	uncertainty
298.15	0.6547	0.0108
308.15	0.6678	0.0109

System: glycerol + cesium chloride; phases: Liquid, Crystal
Fixed: Pressure, kPa = 101
Property: Mass fraction of cesium chloride (Liquid); method: Titration method
Temperature, K	Mass fraction of cesium chloride	uncertainty
298.15	0.2824	0.01
308.15	0.2847	0.01

System: glycerol + sodium chloride + water; phases: Liquid, Crystal
Fixed: Pressure, kPa = 101
Property: Refractive index (Na D-line) (Liquid); method: Standard Abbe refractometry
Temperature, K	Solvent: Mass fraction of glycerol	Refractive index (Na D-line)	uncertainty
298.15	0	1.37958	0.00202
298.15	0.1015	1.38651	0.00202
298.15	0.2002	1.39383	0.00202
298.15	0.3001	1.40177	0.00202
298.15	0.3785	1.40859	0.00202
298.15	0.5003	1.41996	0.00202
298.15	0.6005	1.42968	0.00202
298.15	0.6997	1.44084	0.00202
298.15	0.7996	1.45288	0.00202
298.15	0.8969	1.46521	0.00202
308.15	0	1.37822	0.00202
308.15	0.1017	1.3851	0.00202
308.15	0.2029	1.39239	0.00202
308.15	0.3045	1.40029	0.00202
308.15	0.4001	1.40887	0.00202
308.15	0.4983	1.41824	0.00202
308.15	0.6006	1.42819	0.00202
308.15	0.7003	1.43901	0.00202
308.15	0.7997	1.45044	0.00202
308.15	0.8994	1.46321	0.00202

System: glycerol + sodium chloride + water; phases: Liquid, Crystal
Fixed: Pressure, kPa = 101
Property: Mass density, kg/m3 (Liquid); method: Vibrating tube method
Temperature, K	Solvent: Mole fraction of glycerol	Mass density, kg/m3	uncertainty
298.15	0	1197.91	3
298.15	0.1015	1203.11	3.05
298.15	0.2002	1208.99	3.07
298.15	0.3001	1215.79	3.09
298.15	0.3785	1221.91	3.12
298.15	0.5003	1232.65	3.14
298.15	0.6005	1242.31	3.19
298.15	0.6997	1253.99	3.26
298.15	0.7996	1267.34	3.41
298.15	0.8969	1285.91	3.56
308.15	0	1193.82	3
308.15	0.1017	1198.97	3.05
308.15	0.2029	1204.75	3.07
308.15	0.3045	1211.6	3.09
308.15	0.4001	1219.19	3.12
308.15	0.4983	1227.8	3.14
308.15	0.6006	1237.73	3.18
308.15	0.7003	1248.9	3.23
308.15	0.7997	1261.43	3.3
308.15	0.8994	1275.91	3.34

System: glycerol + sodium chloride + water; phases: Liquid, Crystal
Fixed: Pressure, kPa = 101
Property: Mass fraction of sodium chloride (Liquid); method: Titration method
Temperature, K	Solvent: Mass fraction of glycerol	Mass fraction of sodium chloride	uncertainty
298.15	0	0.2634	0.01
298.15	0.1015	0.2394	0.0103
298.15	0.2002	0.2188	0.0102
298.15	0.3001	0.201	0.0102
298.15	0.3785	0.1839	0.0102
298.15	0.5003	0.1584	0.0102
298.15	0.6005	0.1421	0.0102
298.15	0.6997	0.1206	0.0102
298.15	0.7996	0.1035	0.0102
298.15	0.8969	0.0848	0.0101
298.15	1	0.0702	0.01
308.15	0	0.2653	0.01
308.15	0.1017	0.2476	0.0102
308.15	0.2029	0.2228	0.0102
308.15	0.3045	0.2054	0.0102
308.15	0.4001	0.1869	0.0103
308.15	0.4983	0.1622	0.0102
308.15	0.6006	0.1443	0.0102
308.15	0.7003	0.1197	0.0102
308.15	0.7997	0.1069	0.0101
308.15	0.8994	0.0915	0.0101
308.15	1	0.0752	0.01

System: glycerol + sodium chloride + water; phases: Liquid
Fixed: Pressure, kPa = 101
Property: Refractive index (Na D-line) (Liquid); method: Standard Abbe refractometry
Temperature, K	Mass fraction of glycerol	Mass fraction of sodium chloride	Refractive index (Na D-line)	uncertainty
298.15	0.0807	0.1927	1.37745	0.00203
298.15	0.0825	0.1711	1.37357	0.00203
298.15	0.0841	0.1613	1.37187	0.00204
298.15	0.0858	0.1443	1.3686	0.00203
298.15	0.0871	0.1273	1.36587	0.00203
298.15	0.0898	0.1072	1.36267	0.00203
298.15	0.0927	0.0872	1.35922	0.00203
298.15	0.0951	0.0692	1.35633	0.00203
298.15	0.0952	0.0465	1.35232	0.00203
298.15	0.0996	0.0239	1.34869	0.00203
298.15	0.2492	0.1691	1.39677	0.00204
298.15	0.2544	0.1526	1.39386	0.00204
298.15	0.2586	0.1379	1.39173	0.00203
298.15	0.263	0.1233	1.3896	0.00203
298.15	0.2679	0.1074	1.3872	0.00203
298.15	0.2729	0.0914	1.38459	0.00203
298.15	0.2774	0.074	1.38178	0.00203
298.15	0.2833	0.0566	1.37919	0.00203
298.15	0.2882	0.0388	1.37625	0.00204
298.15	0.2941	0.0199	1.37331	0.00203
298.15	0.4323	0.1364	1.41629	0.00204
298.15	0.4369	0.1262	1.41485	0.00204
298.15	0.4411	0.1177	1.41377	0.00204
298.15	0.4485	0.1032	1.41175	0.00204
298.15	0.4558	0.0879	1.40984	0.00204
298.15	0.4626	0.0744	1.40784	0.00204
298.15	0.468	0.0623	1.40616	0.00204
298.15	0.4765	0.0467	1.40369	0.00204
298.15	0.4825	0.0313	1.40165	0.00204
298.15	0.4922	0.0156	1.39981	0.00203
298.15	0.6245	0.1075	1.43961	0.00204
298.15	0.632	0.0976	1.43823	0.00204
298.15	0.6376	0.0883	1.43726	0.00204
298.15	0.6416	0.0817	1.43606	0.00205
298.15	0.6508	0.0699	1.4349	0.00204
298.15	0.659	0.0569	1.43279	0.00204
298.15	0.6675	0.0461	1.43193	0.00203
298.15	0.6756	0.0348	1.43075	0.00205
298.15	0.6824	0.0235	1.42893	0.00204
298.15	0.6905	0.0134	1.42817	0.00203
298.15	0.8276	0.0798	1.4646	0.00204
298.15	0.8373	0.068	1.46361	0.00204
298.15	0.8415	0.063	1.46317	0.00204
298.15	0.8506	0.0542	1.46253	0.00204
298.15	0.8554	0.0466	1.46164	0.00204
298.15	0.8642	0.0387	1.46115	0.00205
298.15	0.8717	0.0313	1.45999	0.00203
298.15	0.8787	0.0238	1.46001	0.00204
298.15	0.8828	0.0173	1.4591	0.00204
298.15	0.8907	0.0087	1.45809	0.00204
308.15	0.0801	0.2013	1.37712	0.00203
308.15	0.0829	0.1784	1.37423	0.00203
308.15	0.0843	0.1627	1.37142	0.00204
308.15	0.0857	0.1442	1.36688	0.00203
308.15	0.0875	0.1262	1.36501	0.00203
308.15	0.0892	0.1079	1.36112	0.00203
308.15	0.0945	0.0679	1.35459	0.00203
308.15	0.0953	0.0886	1.3591	0.00203
308.15	0.0967	0.0467	1.35155	0.00203
308.15	0.0975	0.0253	1.34715	0.00204
308.15	0.2492	0.1693	1.39566	0.00204
308.15	0.254	0.1525	1.39295	0.00203
308.15	0.2586	0.1384	1.39181	0.00203
308.15	0.2633	0.1234	1.38953	0.00204
308.15	0.2685	0.1081	1.38628	0.00204
308.15	0.2729	0.091	1.38376	0.00203
308.15	0.2783	0.0751	1.3813	0.002
308.15	0.2836	0.0565	1.37857	0.00203
308.15	0.2878	0.0391	1.37553	0.00203
308.15	0.2941	0.0207	1.37358	0.00203
308.15	0.43	0.1394	1.41499	0.00203
308.15	0.4426	0.1132	1.41282	0.00203
308.15	0.4499	0.1011	1.40992	0.00204
308.15	0.4557	0.0896	1.40942	0.00204
308.15	0.4615	0.0766	1.40636	0.00204
308.15	0.4692	0.0607	1.40549	0.00203
308.15	0.4758	0.0484	1.4025	0.00204
308.15	0.4866	0.0318	1.40208	0.00204
308.15	0.4918	0.0163	1.39811	0.00204
308.15	0.6352	0.0913	1.43742	0.00204
308.15	0.6456	0.0754	1.43528	0.00204
308.15	0.6632	0.0522	1.4323	0.00204
308.15	0.6659	0.0488	1.4309	0.00204
308.15	0.678	0.0305	1.42867	0.00204
308.15	0.6905	0.0116	1.42623	0.00204
308.15	0.8294	0.078	1.46437	0.00204
308.15	0.8388	0.0679	1.46354	0.00204
308.15	0.8456	0.0603	1.46288	0.00204
308.15	0.8566	0.0478	1.4617	0.00204
308.15	0.8616	0.042	1.46131	0.00204
308.15	0.8763	0.0256	1.4598	0.00205
308.15	0.884	0.0159	1.45841	0.00207
308.15	0.8918	0.0086	1.45645	0.00207

System: glycerol + sodium chloride + water; phases: Liquid
Fixed: Pressure, kPa = 101
Property: Mass density, kg/m3 (Liquid); method: Vibrating tube method
Temperature, K	Mass fraction of glycerol	Mass fraction of sodium chloride	Mass density, kg/m3	uncertainty
298.15	0.0807	0.1927	1162.51	9.08
298.15	0.0825	0.1711	1145.57	9.28
298.15	0.0841	0.1613	1137.91	9.25
298.15	0.0858	0.1443	1123.85	8.93
298.15	0.0871	0.1273	1111.81	8.4
298.15	0.0898	0.1072	1097.77	8.65
298.15	0.0927	0.0872	1082.76	8.66
298.15	0.0951	0.0692	1070.08	8.36
298.15	0.0952	0.0465	1053.61	8.35
298.15	0.0996	0.0239	1037.94	8.42
298.15	0.2492	0.1691	1191.41	9.85
298.15	0.2544	0.1526	1178.16	9.35
298.15	0.2586	0.1379	1167.96	8.65
298.15	0.263	0.1233	1158.1	8.78
298.15	0.2679	0.1074	1146.64	9.09
298.15	0.2729	0.0914	1134.88	8.99
298.15	0.2774	0.074	1122.48	8.77
298.15	0.2833	0.0566	1110.52	8.8
298.15	0.2882	0.0388	1097.83	8.73
298.15	0.2941	0.0199	1084.88	8.42
298.15	0.4323	0.1364	1214.64	9.16
298.15	0.4369	0.1262	1207.54	9.1
298.15	0.4411	0.1177	1202.09	9.1
298.15	0.4485	0.1032	1191.96	9.57
298.15	0.4558	0.0879	1180.88	9.1
298.15	0.4626	0.0744	1172.61	8.62
298.15	0.468	0.0623	1164.51	9.17
298.15	0.4765	0.0467	1153.42	8.89
298.15	0.4825	0.0313	1143.6	8.74
298.15	0.4922	0.0156	1133.89	8.63
298.15	0.6245	0.1075	1245.83	11.6
298.15	0.632	0.0976	1237.18	9.48
298.15	0.6376	0.0883	1233.17	9.6
298.15	0.6416	0.0817	1228.23	8.71
298.15	0.6508	0.0699	1221	9.86
298.15	0.659	0.0569	1210.88	9.27
298.15	0.6675	0.0461	1205.89	7.95
298.15	0.6756	0.0348	1198.84	9.74
298.15	0.6824	0.0235	1190.86	8.95
298.15	0.6905	0.0134	1185.55	8.28
298.15	0.8276	0.0798	1277.85	9.2
298.15	0.8373	0.068	1270.79	9.2
298.15	0.8415	0.063	1267.85	9.29
298.15	0.8506	0.0542	1262.89	9.41
298.15	0.8554	0.0466	1258.16	9.2
298.15	0.8642	0.0387	1253.77	9.23
298.15	0.8717	0.0313	1248.78	8.49
298.15	0.8787	0.0238	1245.58	9.46
298.15	0.8828	0.0173	1241.29	8.56
298.15	0.8907	0.0087	1236.03	8.42
308.15	0.0801	0.2013	1163.09	8.86
308.15	0.0829	0.1784	1145.81	8.87
308.15	0.0843	0.1627	1133.79	9.24
308.15	0.0857	0.1442	1118.24	8.77
308.15	0.0875	0.1262	1106.42	8.34
308.15	0.0892	0.1079	1092.79	8.51
308.15	0.0945	0.0679	1064.84	8.35
308.15	0.0953	0.0886	1080.25	8.36
308.15	0.0967	0.0467	1049.85	8.35
308.15	0.0975	0.0253	1034.23	8.4
308.15	0.2492	0.1693	1183.95	8.74
308.15	0.254	0.1525	1172.26	8.64
308.15	0.2586	0.1384	1163.23	8.71
308.15	0.2633	0.1234	1152.36	9.29
308.15	0.2685	0.1081	1140.63	8.92
308.15	0.2729	0.091	1129.23	8.62
308.15	0.2783	0.0751	1117.96	8.2
308.15	0.2836	0.0565	1107.31	8.54
308.15	0.2878	0.0391	1093.02	8.73
308.15	0.2941	0.0207	1082.46	8.04
308.15	0.43	0.1394	1211.13	9.22
308.15	0.4426	0.1132	1192.92	9.08
308.15	0.4499	0.1011	1185.8	9.38
308.15	0.4557	0.0896	1176.62	9.35
308.15	0.4615	0.0766	1168.5	9.26
308.15	0.4692	0.0607	1156.27	8.87
308.15	0.4758	0.0484	1149.85	7.67
308.15	0.4866	0.0318	1139.77	8.48
308.15	0.4918	0.0163	1128.95	8.17
308.15	0.6352	0.0913	1229.14	9.53
308.15	0.6456	0.0754	1218.45	9.57
308.15	0.6632	0.0522	1203.22	8.68
308.15	0.6659	0.0488	1202.49	8.94
308.15	0.678	0.0305	1190.9	9.16
308.15	0.6905	0.0116	1178.73	9.21
308.15	0.8294	0.078	1270.82	9.24
308.15	0.8388	0.0679	1265.01	9.24
308.15	0.8456	0.0603	1259.1	8.2
308.15	0.8566	0.0478	1253.22	8.15
308.15	0.8616	0.042	1249.76	8.99
308.15	0.8763	0.0256	1240.54	9
308.15	0.884	0.0159	1233.99	9.25
308.15	0.8918	0.0086	1230.57	8.22

System: glycerol + potassium chloride + water; phases: Liquid, Crystal
Fixed: Pressure, kPa = 101
Property: Refractive index (Na D-line) (Liquid); method: Standard Abbe refractometry
Temperature, K	Solvent: Mass fraction of glycerol	Refractive index (Na D-line)	uncertainty
298.15	0	1.36905	0.00202
298.15	0.1021	1.37615	0.00202
298.15	0.2001	1.38426	0.00202
298.15	0.2988	1.39282	0.00202
298.15	0.4003	1.40159	0.00202
298.15	0.5	1.41263	0.00202
298.15	0.6007	1.42382	0.00202
298.15	0.7001	1.43545	0.00202
298.15	0.8	1.44803	0.00202
298.15	0.8997	1.46192	0.00203
308.15	0	1.36932	0.00202
308.15	0.1	1.37627	0.00202
308.15	0.2005	1.38417	0.00202
308.15	0.3001	1.39263	0.00202
308.15	0.4001	1.40255	0.00202
308.15	0.4999	1.41208	0.00202
308.15	0.6008	1.42278	0.00202
308.15	0.7001	1.43457	0.00202
308.15	0.7998	1.4468	0.00202
308.15	0.8992	1.45948	0.00202

System: glycerol + potassium chloride + water; phases: Liquid, Crystal
Fixed: Pressure, kPa = 101
Property: Mass density, kg/m3 (Liquid); method: Vibrating tube method
Temperature, K	Solvent: Mole fraction of glycerol	Mass density, kg/m3	uncertainty
298.15	0	1177.47	3
298.15	0.1021	1182.84	3.06
298.15	0.2001	1188.98	3.07
298.15	0.2988	1195.51	3.07
298.15	0.4003	1202.23	3.15
298.15	0.5	1214.99	3.25
298.15	0.6007	1227.03	3.21
298.15	0.7001	1237.88	3.3
298.15	0.8	1254.41	3.43
298.15	0.8997	1270.92	3.43
308.15	0	1183.36	3
308.15	0.1	1189.58	3.04
308.15	0.2005	1192.66	3.06
308.15	0.3001	1201.57	3.11
308.15	0.4001	1209.13	3.1
308.15	0.4999	1217.26	3.15
308.15	0.6008	1227.98	3.21
308.15	0.7001	1240.08	3.27
308.15	0.7998	1253.63	3.32
308.15	0.8992	1268.25	3.34

System: glycerol + potassium chloride + water; phases: Liquid, Crystal
Fixed: Pressure, kPa = 101
Property: Mass fraction of potassium chloride (Liquid); method: Titration method
Temperature, K	Solvent: Mass fraction of glycerol	Mass fraction of potassium chloride	uncertainty
298.15	0	0.2605	0.01
298.15	0.1021	0.2388	0.0102
298.15	0.2001	0.219	0.0103
298.15	0.2988	0.1942	0.0104
298.15	0.4003	0.1657	0.0103
298.15	0.5	0.1493	0.0102
298.15	0.6007	0.1302	0.0102
298.15	0.7001	0.1089	0.0102
298.15	0.8	0.0909	0.0101
298.15	0.8997	0.0765	0.0101
298.15	1	0.0696	0.01
308.15	0	0.2863	0.01
308.15	0.1	0.2521	0.0104
308.15	0.2005	0.2307	0.0103
308.15	0.3001	0.2088	0.0103
308.15	0.4001	0.1802	0.0103
308.15	0.4999	0.1603	0.0102
308.15	0.6008	0.1371	0.0102
308.15	0.7001	0.1192	0.0102
308.15	0.7998	0.1	0.0101
308.15	0.8992	0.0856	0.0101
308.15	1	0.0738	0.01

System: glycerol + potassium chloride + water; phases: Liquid
Fixed: Pressure, kPa = 101
Property: Refractive index (Na D-line) (Liquid); method: Standard Abbe refractometry
Temperature, K	Mass fraction of glycerol	Mass fraction of potassium chloride	Refractive index (Na D-line)	uncertainty
298.15	0.0812	0.1924	1.3707	0.00203
298.15	0.0825	0.1778	1.36885	0.00203
298.15	0.0846	0.1612	1.36668	0.00203
298.15	0.0863	0.1442	1.36434	0.00203
298.15	0.0875	0.1257	1.36178	0.00203
298.15	0.0895	0.1072	1.35941	0.00203
298.15	0.0915	0.0877	1.35666	0.00203
298.15	0.0937	0.0676	1.35364	0.00203
298.15	0.0957	0.0454	1.35056	0.00203
298.15	0.1048	0.0233	1.34846	0.00203
298.15	0.2519	0.1625	1.39038	0.00203
298.15	0.2553	0.1494	1.38838	0.00203
298.15	0.2597	0.1349	1.38638	0.00203
298.15	0.2634	0.1189	1.38407	0.00203
298.15	0.2683	0.1079	1.38286	0.00203
298.15	0.2733	0.0894	1.38079	0.00203
298.15	0.2782	0.0724	1.37876	0.00203
298.15	0.2852	0.0553	1.37699	0.00203
298.15	0.2904	0.0378	1.37491	0.00203
298.15	0.2933	0.0194	1.3724	0.00203
298.15	0.4352	0.1296	1.41098	0.00203
298.15	0.443	0.1139	1.40959	0.00203
298.15	0.4483	0.1009	1.40781	0.00203
298.15	0.4561	0.0905	1.40711	0.00203
298.15	0.4603	0.0785	1.40567	0.00203
298.15	0.4672	0.0662	1.40431	0.00204
298.15	0.4732	0.054	1.4028	0.00203
298.15	0.4799	0.0408	1.40169	0.00203
298.15	0.4859	0.0278	1.39982	0.00203
298.15	0.4924	0.0148	1.39899	0.00203
298.15	0.6326	0.0976	1.43486	0.00203
298.15	0.6417	0.0833	1.43371	0.00203
298.15	0.648	0.0741	1.43275	0.00203
298.15	0.6537	0.0659	1.4327	0.00203
298.15	0.6587	0.0571	1.4316	0.00203
298.15	0.6654	0.0486	1.43124	0.00204
298.15	0.6705	0.0388	1.4301	0.00203
298.15	0.6789	0.0295	1.42937	0.00204
298.15	0.6851	0.0212	1.42887	0.00203
298.15	0.6925	0.0106	1.42804	0.00203
298.15	0.8359	0.0708	1.46186	0.00204
298.15	0.838	0.0686	1.46162	0.00204
298.15	0.8455	0.059	1.46116	0.00203
298.15	0.8524	0.0512	1.46079	0.00204
298.15	0.8588	0.0455	1.46036	0.00204
298.15	0.8668	0.0367	1.45989	0.00203
298.15	0.873	0.0299	1.45968	0.00203
298.15	0.8798	0.0224	1.45896	0.00203
298.15	0.8864	0.0152	1.45892	0.00204
298.15	0.8928	0.0079	1.45847	0.00204
308.15	0.0807	0.2	1.36909	0.00203
308.15	0.0833	0.1675	1.36461	0.00203
308.15	0.0862	0.1388	1.36125	0.00203
308.15	0.089	0.109	1.35714	0.00203
308.15	0.0927	0.0771	1.35289	0.00203
308.15	0.0963	0.04	1.34831	0.00203
308.15	0.2497	0.1692	1.38751	0.00203
308.15	0.2565	0.1463	1.38537	0.00203
308.15	0.2667	0.109	1.38068	0.00203
308.15	0.275	0.0867	1.37837	0.00203
308.15	0.2854	0.0498	1.37421	0.00203
308.15	0.293	0.0293	1.37099	0.00204
308.15	0.4281	0.1394	1.40922	0.00204
308.15	0.4369	0.1266	1.408	0.00203
308.15	0.4383	0.1061	1.40484	0.00203
308.15	0.4575	0.0849	1.404	0.00203
308.15	0.4714	0.0582	1.40132	0.00203
308.15	0.4865	0.0295	1.39832	0.00203
308.15	0.6478	0.0743	1.4313	0.00204
308.15	0.6483	0.0671	1.42982	0.00204
308.15	0.6592	0.0587	1.42967	0.00204
308.15	0.6652	0.0483	1.42866	0.00204
308.15	0.6789	0.0292	1.42733	0.00203
308.15	0.6859	0.0201	1.42648	0.00203
308.15	0.6922	0.0108	1.42604	0.00203
308.15	0.8238	0.0832	1.46019	0.00203
308.15	0.8308	0.0763	1.46002	0.00203
308.15	0.8384	0.0685	1.45983	0.00204
308.15	0.8433	0.0614	1.45919	0.00204
308.15	0.8521	0.0528	1.45875	0.00204
308.15	0.8762	0.0264	1.45828	0.00206
308.15	0.8832	0.0189	1.45649	0.00206
308.15	0.8899	0.0094	1.45585	0.00203

System: glycerol + potassium chloride + water; phases: Liquid
Fixed: Pressure, kPa = 101
Property: Mass density, kg/m3 (Liquid); method: Vibrating tube method
Temperature, K	Mass fraction of glycerol	Mass fraction of potassium chloride	Mass density, kg/m3	uncertainty
298.15	0.0812	0.1924	1150.99	8.14
298.15	0.0825	0.1778	1141.07	8.28
298.15	0.0846	0.1612	1129.49	8.39
298.15	0.0863	0.1442	1117.53	8.33
298.15	0.0875	0.1257	1104.31	8.06
298.15	0.0895	0.1072	1092.34	8
298.15	0.0915	0.0877	1078.87	8.35
298.15	0.0937	0.0676	1064.25	8.18
298.15	0.0957	0.0454	1049.61	7.84
298.15	0.1048	0.0233	1037.08	7.78
298.15	0.2519	0.1625	1177.1	10.18
298.15	0.2553	0.1494	1165.83	9.1
298.15	0.2597	0.1349	1156.58	8.68
298.15	0.2634	0.1189	1144.93	8.69
298.15	0.2683	0.1079	1138.1	8.63
298.15	0.2733	0.0894	1126.32	8.16
298.15	0.2782	0.0724	1115.42	8.22
298.15	0.2852	0.0553	1105.15	8.13
298.15	0.2904	0.0378	1094.24	8.14
298.15	0.2933	0.0194	1082.25	7.66
298.15	0.4352	0.1296	1202.66	8.45
298.15	0.443	0.1139	1193.31	8.8
298.15	0.4483	0.1009	1184.13	9.01
298.15	0.4561	0.0905	1178.29	8.87
298.15	0.4603	0.0785	1170.43	8.75
298.15	0.4672	0.0662	1162.57	9
298.15	0.4732	0.054	1154.7	8.5
298.15	0.4799	0.0408	1147.39	8.41
298.15	0.4859	0.0278	1138.52	8.25
298.15	0.4924	0.0148	1131.69	7.29
298.15	0.6326	0.0976	1233.72	8.85
298.15	0.6417	0.0833	1225.1	8.83
298.15	0.648	0.0741	1219.17	8.3
298.15	0.6537	0.0659	1215.64	8.28
298.15	0.6587	0.0571	1209.82	8.46
298.15	0.6654	0.0486	1205.43	9.25
298.15	0.6705	0.0388	1199.24	8.97
298.15	0.6789	0.0295	1193.96	8.25
298.15	0.6851	0.0212	1189.58	8.34
298.15	0.6925	0.0106	1183.67	8.58
298.15	0.8359	0.0708	1268.68	9.43
298.15	0.838	0.0686	1268.27	9.65
298.15	0.8455	0.059	1261.19	9.41
298.15	0.8524	0.0512	1256.97	8.37
298.15	0.8588	0.0455	1255.46	8
298.15	0.8668	0.0367	1250.14	8.31
298.15	0.873	0.0299	1247.16	8.73
298.15	0.8798	0.0224	1243.21	8.35
298.15	0.8864	0.0152	1239.44	8.7
298.15	0.8928	0.0079	1235.81	7.19
308.15	0.0807	0.2	1148.46	8.35
308.15	0.0833	0.1675	1125.44	8
308.15	0.0862	0.1388	1107.63	7.97
308.15	0.089	0.109	1086.89	8.12
308.15	0.0927	0.0771	1065.63	7.78
308.15	0.0963	0.04	1042.53	7.58
308.15	0.2497	0.1692	1171.91	7.74
308.15	0.2565	0.1463	1158.67	8.35
308.15	0.2667	0.109	1133.42	8.36
308.15	0.275	0.0867	1119.86	8.07
308.15	0.2854	0.0498	1097.21	8.31
308.15	0.293	0.0293	1082.71	8.67
308.15	0.4281	0.1394	1202.14	10.44
308.15	0.4369	0.1266	1192.47	8.65
308.15	0.4383	0.1061	1179.25	7.8
308.15	0.4575	0.0849	1168.76	8.48
308.15	0.4714	0.0582	1152.54	10.59
308.15	0.4865	0.0295	1123.73	9.56
308.15	0.6478	0.0743	1214.78	9.04
308.15	0.6483	0.0671	1208.11	8.82
308.15	0.6592	0.0587	1205.24	9.08
308.15	0.6652	0.0483	1198.08	9.4
308.15	0.6789	0.0292	1188.04	8.29
308.15	0.6859	0.0201	1181.6	8.77
308.15	0.6922	0.0108	1178.49	8.09
308.15	0.8238	0.0832	1266.82	7.3
308.15	0.8308	0.0763	1265.85	8.73
308.15	0.8384	0.0685	1261.72	7.45
308.15	0.8433	0.0614	1257.71	8.76
308.15	0.8521	0.0528	1253.32	8.77
308.15	0.8762	0.0264	1248.88	15.25
308.15	0.8832	0.0189	1233.28	9.28
308.15	0.8899	0.0094	1228.59	13.8

System: glycerol + water + rubidium chloride; phases: Liquid, Crystal
Fixed: Pressure, kPa = 101
Property: Refractive index (Na D-line) (Liquid); method: Standard Abbe refractometry
Temperature, K	Solvent: Mass fraction of glycerol	Refractive index (Na D-line)	uncertainty
298.15	0	1.38851	0.00202
298.15	0.1013	1.39396	0.00202
298.15	0.2015	1.40014	0.00202
298.15	0.3004	1.4065	0.00202
298.15	0.3999	1.41422	0.00202
298.15	0.4999	1.42266	0.00202
298.15	0.6001	1.43189	0.00202
298.15	0.7023	1.44173	0.00202
298.15	0.7973	1.45257	0.00202
298.15	0.8998	1.46477	0.00202
308.15	0	1.38949	0.00202
308.15	0.1002	1.39476	0.00202
308.15	0.2008	1.40025	0.00202
308.15	0.3001	1.40708	0.00202
308.15	0.4007	1.41395	0.00202
308.15	0.5027	1.42146	0.00202
308.15	0.6005	1.43104	0.00202
308.15	0.7007	1.44031	0.00202
308.15	0.7998	1.45134	0.00202
308.15	0.8988	1.46315	0.00202

System: glycerol + water + rubidium chloride; phases: Liquid, Crystal
Fixed: Pressure, kPa = 101
Property: Mass density, kg/m3 (Liquid); method: Vibrating tube method
Temperature, K	Solvent: Mole fraction of glycerol	Mass density, kg/m3	uncertainty
298.15	0	1500.84	3.01
298.15	0.1013	1484.6	3.41
298.15	0.2015	1468.68	3.4
298.15	0.3004	1453.11	3.41
298.15	0.3999	1436.74	3.4
298.15	0.4999	1421.7	3.36
298.15	0.6001	1406.61	3.31
298.15	0.7023	1393.81	3.21
298.15	0.7973	1384.67	3.15
298.15	0.8998	1375.4	3.14
308.15	0	1519.57	3.01
308.15	0.1002	1500.6	3.53
308.15	0.2008	1482.71	3.37
308.15	0.3001	1470.33	3.32
308.15	0.4007	1454.64	3.43
308.15	0.5027	1436.82	3.48
308.15	0.6005	1419.72	3.41
308.15	0.7007	1404.99	3.32
308.15	0.7998	1391.66	3.25
308.15	0.8988	1380.4	3.21

System: glycerol + water + rubidium chloride; phases: Liquid, Crystal
Fixed: Pressure, kPa = 101
Property: Mass fraction of rubidium chloride (Liquid); method: Titration method
Temperature, K	Solvent: Mass fraction of glycerol	Mass fraction of rubidium chloride	uncertainty
298.15	0	0.4854	0.0102
298.15	0.1013	0.4483	0.0106
298.15	0.2015	0.4258	0.0105
298.15	0.3004	0.3921	0.0107
298.15	0.3999	0.357	0.0106
298.15	0.4999	0.3247	0.0105
298.15	0.6001	0.2942	0.0107
298.15	0.7023	0.2502	0.0108
298.15	0.7973	0.2129	0.0107
298.15	0.8998	0.1783	0.0106
298.15	1	0.142	0.01
308.15	0	0.5049	0.0102
308.15	0.1002	0.4796	0.0107
308.15	0.2008	0.4368	0.0108
308.15	0.3001	0.4056	0.0107
308.15	0.4007	0.3658	0.0106
308.15	0.5027	0.3359	0.0105
308.15	0.6005	0.3045	0.0106
308.15	0.7007	0.2678	0.0108
308.15	0.7998	0.2238	0.0108
308.15	0.8988	0.1876	0.0107
308.15	1	0.1511	0.01

System: glycerol + water + rubidium chloride; phases: Liquid
Fixed: Pressure, kPa = 101
Property: Refractive index (Na D-line) (Liquid); method: Standard Abbe refractometry
Temperature, K	Mass fraction of glycerol	Mass fraction of rubidium chloride	Refractive index (Na D-line)	uncertainty
298.15	0.0692	0.3097	1.37546	0.00203
298.15	0.0724	0.2773	1.37203	0.00203
298.15	0.0811	0.1972	1.36361	0.00203
298.15	0.0865	0.1418	1.35764	0.00203
298.15	0.0932	0.0741	1.35133	0.00203
298.15	0.0976	0.0317	1.3473	0.00203
298.15	0.2151	0.2821	1.39477	0.00203
298.15	0.2271	0.2432	1.39173	0.00203
298.15	0.231	0.2318	1.39008	0.00203
298.15	0.2424	0.1937	1.38647	0.00203
298.15	0.2674	0.1074	1.37927	0.00203
298.15	0.2829	0.0582	1.37472	0.00203
298.15	0.3766	0.2467	1.41586	0.00203
298.15	0.393	0.2125	1.41311	0.00203
298.15	0.4165	0.1668	1.40966	0.00203
298.15	0.4324	0.1347	1.40722	0.00203
298.15	0.4536	0.0927	1.40437	0.00203
298.15	0.4746	0.0498	1.4012	0.00203
298.15	0.5832	0.1663	1.43677	0.00203
298.15	0.5918	0.1551	1.43616	0.00204
298.15	0.6025	0.1397	1.43427	0.00204
298.15	0.6241	0.1074	1.43289	0.00203
298.15	0.6473	0.0757	1.4314	0.00203
298.15	0.6727	0.0391	1.42969	0.00203
298.15	0.7615	0.1508	1.46381	0.00204
298.15	0.7792	0.1336	1.46335	0.00204
298.15	0.8011	0.1097	1.46232	0.00204
298.15	0.8215	0.0865	1.46138	0.00203
298.15	0.843	0.0618	1.45853	0.00204
298.15	0.8695	0.0297	1.45819	0.00203
308.15	0.0692	0.3074	1.37342	0.00203
308.15	0.0722	0.2762	1.37	0.00203
308.15	0.0758	0.2425	1.36658	0.00203
308.15	0.0811	0.1949	1.3614	0.00203
308.15	0.0872	0.1381	1.35587	0.00203
308.15	0.0926	0.0751	1.34977	0.00203
308.15	0.2158	0.2821	1.39327	0.00203
308.15	0.2275	0.2427	1.38933	0.00203
308.15	0.2389	0.2055	1.38591	0.00203
308.15	0.2518	0.1613	1.38178	0.00203
308.15	0.2671	0.1143	1.37794	0.00203
308.15	0.2824	0.0609	1.37351	0.00203
308.15	0.3761	0.2444	1.41363	0.00203
308.15	0.3965	0.2075	1.4109	0.00203
308.15	0.4158	0.1688	1.40795	0.00203
308.15	0.4331	0.1301	1.40485	0.00203
308.15	0.4548	0.0917	1.40243	0.00203
308.15	0.4755	0.0492	1.39925	0.00203
308.15	0.5601	0.2007	1.43717	0.00204
308.15	0.582	0.1684	1.43498	0.00203
308.15	0.6032	0.1381	1.43312	0.00204
308.15	0.6244	0.1083	1.43145	0.00203
308.15	0.6473	0.074	1.4291	0.00203
308.15	0.6721	0.0391	1.42728	0.00203
308.15	0.7636	0.1513	1.46226	0.00204
308.15	0.7726	0.1408	1.46188	0.00204
308.15	0.8025	0.1083	1.46054	0.00204
308.15	0.8236	0.0834	1.45908	0.00204
308.15	0.8478	0.0576	1.45819	0.00204
308.15	0.8687	0.0345	1.45675	0.00204

System: glycerol + water + rubidium chloride; phases: Liquid
Fixed: Pressure, kPa = 101
Property: Mass density, kg/m3 (Liquid); method: Vibrating tube method
Temperature, K	Mass fraction of glycerol	Mass fraction of rubidium chloride	Mass density, kg/m3	uncertainty
298.15	0.0692	0.3097	1300.44	11.48
298.15	0.0724	0.2773	1267.38	11.36
298.15	0.0811	0.1972	1187.23	10.98
298.15	0.0865	0.1418	1134.44	10.05
298.15	0.0932	0.0741	1078.12	9.34
298.15	0.0976	0.0317	1044.55	9.12
298.15	0.2151	0.2821	1321.04	11.72
298.15	0.2271	0.2432	1283.06	12.12
298.15	0.231	0.2318	1269.11	11.94
298.15	0.2424	0.1937	1232.67	10.78
298.15	0.2674	0.1074	1157.06	10.39
298.15	0.2829	0.0582	1115.24	10.26
298.15	0.3766	0.2467	1336.1	12.18
298.15	0.393	0.2125	1302.72	12.15
298.15	0.4165	0.1668	1261.07	11.62
298.15	0.4324	0.1347	1231.62	11.49
298.15	0.4536	0.0927	1196.66	10.68
298.15	0.4746	0.0498	1161.84	10.39
298.15	0.5832	0.1663	1313.8	12
298.15	0.5918	0.1551	1304	11.99
298.15	0.6025	0.1397	1288.37	12.93
298.15	0.6241	0.1074	1261.55	11.19
298.15	0.6473	0.0757	1236.49	10.91
298.15	0.6727	0.0391	1207.66	10.76
298.15	0.7615	0.1508	1352.66	15.28
298.15	0.7792	0.1336	1333.23	15.04
298.15	0.8011	0.1097	1317.87	11.7
298.15	0.8215	0.0865	1298.8	11.6
298.15	0.843	0.0618	1275.48	12.61
298.15	0.8695	0.0297	1253.23	10.07
308.15	0.0692	0.3074	1291.8	11.76
308.15	0.0722	0.2762	1259.17	11.41
308.15	0.0758	0.2425	1226.36	11.21
308.15	0.0811	0.1949	1178.3	10.69
308.15	0.0872	0.1381	1127.41	9.87
308.15	0.0926	0.0751	1074.47	9.54
308.15	0.2158	0.2821	1316.44	12.5
308.15	0.2275	0.2427	1274.8	11.99
308.15	0.2389	0.2055	1238.86	11.36
308.15	0.2518	0.1613	1197.28	10.67
308.15	0.2671	0.1143	1158.34	10.13
308.15	0.2824	0.0609	1113.76	10
308.15	0.3761	0.2444	1327.6	12.46
308.15	0.3965	0.2075	1291.79	12.05
308.15	0.4158	0.1688	1256.35	11.36
308.15	0.4331	0.1301	1221.74	10.77
308.15	0.4548	0.0917	1190.85	10.61
308.15	0.4755	0.0492	1155.98	10.33
308.15	0.5601	0.2007	1340.3	12.73
308.15	0.582	0.1684	1309.5	15.4
308.15	0.6032	0.1381	1271.66	10.23
308.15	0.6244	0.1083	1257.63	8.09
308.15	0.6473	0.074	1228.71	11.2
308.15	0.6721	0.0391	1201.7	11.57
308.15	0.7636	0.1513	1347.87	12.11
308.15	0.7726	0.1408	1339.69	12.11
308.15	0.8025	0.1083	1311.71	12.04
308.15	0.8236	0.0834	1290.08	11.89
308.15	0.8478	0.0576	1270.19	16.88
308.15	0.8687	0.0345	1236.68	16.88

System: glycerol + cesium chloride + water; phases: Liquid, Crystal
Fixed: Pressure, kPa = 101
Property: Refractive index (Na D-line) (Liquid); method: Standard Abbe refractometry
Temperature, K	Solvent: Mass fraction of glycerol	Refractive index (Na D-line)	uncertainty
298.15	0	1.41963	0.00202
298.15	0.1032	1.42306	0.00202
298.15	0.2006	1.42697	0.00202
298.15	0.3001	1.43148	0.00202
298.15	0.4003	1.43654	0.00202
298.15	0.4994	1.44242	0.00202
298.15	0.5984	1.44872	0.00202
298.15	0.6999	1.45639	0.00202
298.15	0.7973	1.46407	0.00202
298.15	0.8998	1.47261	0.00202
308.15	0	1.42093	0.00202
308.15	0.1001	1.42372	0.00202
308.15	0.2007	1.42727	0.00202
308.15	0.3	1.43177	0.00202
308.15	0.4002	1.4367	0.00202
308.15	0.5005	1.4424	0.00202
308.15	0.6004	1.44901	0.00202
308.15	0.7003	1.45599	0.00202
308.15	0.8001	1.46435	0.00202
308.15	0.9001	1.47366	0.00202

System: glycerol + cesium chloride + water; phases: Liquid, Crystal
Fixed: Pressure, kPa = 101
Property: Mass density, kg/m3 (Liquid); method: Vibrating tube method
Temperature, K	Solvent: Mole fraction of glycerol	Mass density, kg/m3	uncertainty
298.15	0	1924.28	3.03
298.15	0.1032	1891.74	4.53
298.15	0.2006	1856.74	4.7
298.15	0.3001	1820.94	4.86
298.15	0.4003	1780.82	5.04
298.15	0.4994	1740.53	5.14
298.15	0.5984	1698.44	5.3
298.15	0.6999	1653.21	5.28
298.15	0.7973	1612.34	5.09
298.15	0.8998	1571.32	5.01
308.15	0	1948.99	3.03
308.15	0.1001	1916.4	4.55
308.15	0.2007	1880.91	4.66
308.15	0.3	1845.73	4.85
308.15	0.4002	1805.25	5.18
308.15	0.5005	1761.48	5.33
308.15	0.6004	1717.35	5.4
308.15	0.7003	1672.06	5.62
308.15	0.8001	1622.7	5.7
308.15	0.9001	1575.4	5.61

System: glycerol + cesium chloride + water; phases: Liquid, Crystal
Fixed: Pressure, kPa = 101
Property: Mass fraction of cesium chloride (Liquid); method: Titration method
Temperature, K	Solvent: Mass fraction of glycerol	Mass fraction of cesium chloride	uncertainty
298.15	0	0.6547	0.0108
298.15	0.1032	0.6289	0.011
298.15	0.2006	0.5956	0.0109
298.15	0.3001	0.5684	0.0108
298.15	0.4003	0.5394	0.0108
298.15	0.4994	0.5056	0.0109
298.15	0.5984	0.4644	0.0111
298.15	0.6999	0.418	0.011
298.15	0.7973	0.3767	0.011
298.15	0.8998	0.3294	0.0111
298.15	1	0.2824	0.01
308.15	0	0.6678	0.0109
308.15	0.1001	0.6466	0.011
308.15	0.2007	0.6237	0.0109
308.15	0.3	0.594	0.0109
308.15	0.4002	0.565	0.0109
308.15	0.5005	0.5297	0.0111
308.15	0.6004	0.4826	0.0111
308.15	0.7003	0.4402	0.0112
308.15	0.8001	0.3883	0.0114
308.15	0.9001	0.3342	0.0113
308.15	1	0.2847	0.01

System: glycerol + cesium chloride + water; phases: Liquid
Fixed: Pressure, kPa = 101
Property: Refractive index (Na D-line) (Liquid); method: Standard Abbe refractometry
Temperature, K	Mass fraction of glycerol	Mass fraction of cesium chloride	Refractive index (Na D-line)	uncertainty
298.15	0.0618	0.3851	1.38236	0.00203
298.15	0.0649	0.3509	1.37786	0.00203
298.15	0.0672	0.3276	1.37506	0.00203
298.15	0.0701	0.3	1.3726	0.00203
298.15	0.0733	0.2662	1.36829	0.00203
298.15	0.0757	0.2436	1.36588	0.00203
298.15	0.0804	0.1956	1.36111	0.00203
298.15	0.089	0.1547	1.35783	0.00203
298.15	0.0911	0.1073	1.3533	0.00203
298.15	0.0939	0.0621	1.34926	0.00203
298.15	0.1915	0.3647	1.40226	0.00203
298.15	0.1983	0.3386	1.3992	0.00203
298.15	0.2048	0.3133	1.39634	0.00204
298.15	0.2148	0.2835	1.39333	0.00203
298.15	0.2241	0.2527	1.39039	0.00203
298.15	0.2335	0.2187	1.3875	0.00204
298.15	0.2466	0.1828	1.38119	0.00203
298.15	0.2584	0.1456	1.38436	0.00203
298.15	0.2699	0.105	1.37778	0.00203
298.15	0.284	0.0532	1.37382	0.00203
298.15	0.333	0.3366	1.42293	0.00203
298.15	0.3436	0.3117	1.4216	0.00203
298.15	0.3556	0.2865	1.41833	0.00204
298.15	0.3683	0.2624	1.41657	0.00203
298.15	0.3836	0.2325	1.41417	0.00204
298.15	0.3982	0.2022	1.41155	0.00204
298.15	0.414	0.1712	1.40933	0.00204
298.15	0.434	0.131	1.40647	0.00203
298.15	0.4545	0.0922	1.40364	0.00203
298.15	0.4745	0.0519	1.40101	0.00203
298.15	0.5007	0.2847	1.44503	0.00204
298.15	0.513	0.267	1.44362	0.00204
298.15	0.5281	0.2456	1.44292	0.00204
298.15	0.5465	0.2187	1.43988	0.00204
298.15	0.5622	0.1945	1.43879	0.00203
298.15	0.5807	0.1702	1.43838	0.00203
298.15	0.6014	0.1406	1.43681	0.00204
298.15	0.6225	0.1088	1.43392	0.00204
298.15	0.6469	0.0749	1.43277	0.00204
298.15	0.6684	0.0414	1.42893	0.00204
298.15	0.6721	0.2467	1.46932	0.00204
298.15	0.6951	0.2237	1.46845	0.00204
298.15	0.7149	0.2041	1.46782	0.00204
298.15	0.7299	0.1867	1.46641	0.00204
298.15	0.752	0.1636	1.46571	0.00204
298.15	0.7696	0.1439	1.46371	0.00204
298.15	0.7947	0.116	1.46305	0.00204
298.15	0.8189	0.0886	1.46157	0.00203
298.15	0.8449	0.0604	1.46016	0.00203
298.15	0.868	0.0344	1.45933	0.00203
308.15	0.0612	0.3933	1.37718	0.00203
308.15	0.0637	0.3708	1.37569	0.00203
308.15	0.0667	0.3395	1.37295	0.00203
308.15	0.0716	0.2841	1.36738	0.00203
308.15	0.0755	0.2466	1.36497	0.00203
308.15	0.0799	0.2015	1.35972	0.00203
308.15	0.0838	0.165	1.35609	0.00203
308.15	0.0881	0.119	1.35206	0.00203
308.15	0.094	0.0605	1.34765	0.00203
308.15	0.2014	0.3337	1.39513	0.00203
308.15	0.2145	0.2888	1.39172	0.00203
308.15	0.2216	0.2621	1.38746	0.00203
308.15	0.2325	0.2265	1.38531	0.00203
308.15	0.2429	0.1906	1.38173	0.00203
308.15	0.2544	0.1516	1.37991	0.00203
308.15	0.2684	0.105	1.37372	0.00203
308.15	0.2843	0.0557	1.37195	0.00203
308.15	0.3271	0.3458	1.42046	0.00203
308.15	0.3402	0.3175	1.41985	0.00204
308.15	0.3415	0.3168	1.41843	0.00204
308.15	0.3527	0.2929	1.41631	0.00204
308.15	0.3665	0.267	1.41564	0.00204
308.15	0.3787	0.2424	1.4118	0.00204
308.15	0.3963	0.2066	1.40919	0.00203
308.15	0.4135	0.1719	1.40831	0.00203
308.15	0.4309	0.1363	1.40105	0.00205
308.15	0.475	0.0521	1.3993	0.00203
308.15	0.4837	0.3084	1.44409	0.00204
308.15	0.5054	0.2777	1.44198	0.00204
308.15	0.5269	0.247	1.43961	0.00204
308.15	0.5627	0.1956	1.43622	0.00204
308.15	0.5972	0.1469	1.43253	0.00204
308.15	0.6474	0.0755	1.42921	0.00203
308.15	0.6707	0.2539	1.46734	0.00204
308.15	0.7056	0.2151	1.4655	0.00204
308.15	0.7435	0.1739	1.46369	0.00204
308.15	0.7761	0.1361	1.46141	0.00204
308.15	0.815	0.0938	1.45884	0.00204
308.15	0.8547	0.0497	1.45612	0.00204

System: glycerol + cesium chloride + water; phases: Liquid
Fixed: Pressure, kPa = 101
Property: Mass density, kg/m3 (Liquid); method: Vibrating tube method
Temperature, K	Mass fraction of glycerol	Mass fraction of cesium chloride	Mass density, kg/m3	uncertainty
298.15	0.0618	0.3851	1425.8	15.61
298.15	0.0649	0.3509	1376.71	15.16
298.15	0.0672	0.3276	1346.1	13.09
298.15	0.0701	0.3	1317.2	13.4
298.15	0.0733	0.2662	1271.93	13.86
298.15	0.0757	0.2436	1245.76	12.13
298.15	0.0804	0.1956	1194.76	11.57
298.15	0.089	0.1547	1154.79	10.79
298.15	0.0911	0.1073	1110.17	10.13
298.15	0.0939	0.0621	1070.45	9.82
298.15	0.1915	0.3647	1450	15.4
298.15	0.1983	0.3386	1415	15.15
298.15	0.2048	0.3133	1381.57	14.9
298.15	0.2148	0.2835	1344.62	13.38
298.15	0.2241	0.2527	1308.51	13.09
298.15	0.2335	0.2187	1272.4	12.52
298.15	0.2466	0.1828	1234.45	12.22
298.15	0.2584	0.1456	1197.42	11.58
298.15	0.2699	0.105	1159.2	10.69
298.15	0.284	0.0532	1113.93	10.24
298.15	0.333	0.3366	1465.02	13.87
298.15	0.3436	0.3117	1436.88	14.03
298.15	0.3556	0.2865	1382.95	17.35
298.15	0.3683	0.2624	1375.98	7.54
298.15	0.3836	0.2325	1342.3	13.79
298.15	0.3982	0.2022	1309.15	13.44
298.15	0.414	0.1712	1277.05	12.73
298.15	0.434	0.131	1238.61	12.26
298.15	0.4545	0.0922	1201.55	11.98
298.15	0.4745	0.0519	1166.51	10.84
298.15	0.5007	0.2847	1460.09	17.09
298.15	0.513	0.267	1438.73	15.55
298.15	0.5281	0.2456	1416.56	13.89
298.15	0.5465	0.2187	1382.95	14.06
298.15	0.5622	0.1945	1356.75	13.88
298.15	0.5807	0.1702	1335.1	13.32
298.15	0.6014	0.1406	1307.18	13.38
298.15	0.6225	0.1088	1272.3	13.66
298.15	0.6469	0.0749	1243.8	13.09
298.15	0.6684	0.0414	1211.84	12.36
298.15	0.6721	0.2467	1472.34	16.55
298.15	0.6951	0.2237	1444.54	15.06
298.15	0.7149	0.2041	1423.78	17.58
298.15	0.7299	0.1867	1399.18	17.58
298.15	0.752	0.1636	1380.83	14.2
298.15	0.7696	0.1439	1359.84	13.86
298.15	0.7947	0.116	1333.84	12.65
298.15	0.8189	0.0886	1308.7	12.4
298.15	0.8449	0.0604	1282.8	11.86
298.15	0.868	0.0344	1260.42	11.86
308.15	0.0612	0.3933	1390.51	11.46
308.15	0.0637	0.3708	1369.01	11.42
308.15	0.0667	0.3395	1339.07	12.3
308.15	0.0716	0.2841	1277.13	11.52
308.15	0.0755	0.2466	1246.61	11.37
308.15	0.0799	0.2015	1193.13	12.24
308.15	0.0838	0.165	1155.45	10.98
308.15	0.0881	0.119	1112.67	9.69
308.15	0.094	0.0605	1064.98	9.3
308.15	0.2014	0.3337	1390.5	13.16
308.15	0.2145	0.2888	1342.05	14.16
308.15	0.2216	0.2621	1302.62	13.75
308.15	0.2325	0.2265	1270.13	12.24
308.15	0.2429	0.1906	1230.38	11.61
308.15	0.2544	0.1516	1198.48	11.7
308.15	0.2684	0.105	1146.5	11.16
308.15	0.2843	0.0557	1110.37	8.86
308.15	0.3271	0.3458	1464.38	11.79
308.15	0.3402	0.3175	1441.63	14.83
308.15	0.3415	0.3168	1422.52	8.61
308.15	0.3527	0.2929	1411.62	8.89
308.15	0.3665	0.267	1377.85	15.48
308.15	0.3787	0.2424	1341.42	17.35
308.15	0.3963	0.2066	1304.27	11.12
308.15	0.4135	0.1719	1275.22	11.5
308.15	0.4309	0.1363	1224.55	16.62
308.15	0.475	0.0521	1161.67	9.91
308.15	0.4837	0.3084	1481.24	16.67
308.15	0.5054	0.2777	1444.31	16.13
308.15	0.5269	0.247	1404.67	16.21
308.15	0.5627	0.1956	1351.7	14.06
308.15	0.5972	0.1469	1300.15	14.27
308.15	0.6474	0.0755	1236.68	11.7
308.15	0.6707	0.2539	1471.08	15.43
308.15	0.7056	0.2151	1428.04	14.87
308.15	0.7435	0.1739	1385.09	13.87
308.15	0.7761	0.1361	1346.72	13.84
308.15	0.815	0.0938	1305.39	12.96
308.15	0.8547	0.0497	1264.62	12.48
