Measured thermophysical data. Partition Coefficients of Organic Compounds in Four New Tetraalkylammonium Bis(trifluoromethylsulfonyl)imide Ionic Liquids Using Inverse Gas Chromatography
Source: J. Chem. Eng. Data, 2011, 10.1021/je200637v
Compound 1: thiophene, C4H4S, InChI=1S/C4H4S/c1-2-4-5-3-1/h1-4H, purity 99.5%
Compound 2: tetraoctylammonium bis(trifluoromethylsulfonyl)amide, C34H68F6N2O4S2, InChI=1S/C32H68N.C2F6NO4S2/c1-5-9-13-17-21-25-29-33(30-26-22-18-14-10-6-2,31-27-23-19-15-11-7-3)32-28-24-20-16-12-8-4;3-1(4,5)14(10,11)9-15(12,13)2(6,7)8/h5-32H2,1-4H3;/q+1;-1, purity 99.8%
Compound 3: methanal, CH2O, InChI=1S/CH2O/c1-2/h1H2, purity 99.5%
Compound 4: propanal, C3H6O, InChI=1S/C3H6O/c1-2-3-4/h3H,2H2,1H3, purity 99.5%
Compound 5: methanol, CH4O, InChI=1S/CH4O/c1-2/h2H,1H3, purity 99.5%
Compound 6: N,N,N-Trimethyl-1-decanaminium bis[(trifluoromethyl)sulfonyl]imide, C15H30F6N2O4S2, InChI=1S/C13H30N.C2F6NO4S2/c1-5-6-7-8-9-10-11-12-13-14(2,3)4;3-1(4,5)14(10,11)9-15(12,13)2(6,7)8/h5-13H2,1-4H3;/q+1;-1, purity 99.8%
Compound 7: triethylamine, C6H15N, InChI=1S/C6H15N/c1-4-7(5-2)6-3/h4-6H2,1-3H3, purity 99.5%
Compound 8: butanal, C4H8O, InChI=1S/C4H8O/c1-2-3-4-5/h4H,2-3H2,1H3, purity 99.5%
Compound 9: pyridine, C5H5N, InChI=1S/C5H5N/c1-2-4-6-5-3-1/h1-5H, purity 99.5%
Compound 10: diethyl ether, C4H10O, InChI=1S/C4H10O/c1-3-5-4-2/h3-4H2,1-2H3, purity 99.5%
Compound 11: diisopropyl ether, C6H14O, InChI=1S/C6H14O/c1-5(2)7-6(3)4/h5-6H,1-4H3, purity 99.5%
Compound 12: trichloromethane, CHCl3, InChI=1S/CHCl3/c2-1(3)4/h1H, purity 99.5%
Compound 13: dichloromethane, CH2Cl2, InChI=1S/CH2Cl2/c2-1-3/h1H2, purity 99.5%
Compound 14: tetrachloromethane, CCl4, InChI=1S/CCl4/c2-1(3,4)5, purity 99.5%
Compound 15: acetonitrile, C2H3N, InChI=1S/C2H3N/c1-2-3/h1H3, purity 99.5%
Compound 16: nitromethane, CH3NO2, InChI=1S/CH3NO2/c1-2(3)4/h1H3, purity 99.5%
Compound 17: 1-nitropropane, C3H7NO2, InChI=1S/C3H7NO2/c1-2-3-4(5)6/h2-3H2,1H3, purity 99.5%
Compound 18: hexane, C6H14, InChI=1S/C6H14/c1-3-5-6-4-2/h3-6H2,1-2H3, purity 99.5%
Compound 19: tributylmethylammonium bis((trifluoromethyl)sulfonyl)imide, C15H30F6N2O4S2, InChI=1S/C13H30N.C2F6NO4S2/c1-5-8-11-14(4,12-9-6-2)13-10-7-3;3-1(4,5)14(10,11)9-15(12,13)2(6,7)8/h5-13H2,1-4H3;/q+1;-1, purity 99.8%
Compound 20: 3-methylpentane, C6H14, InChI=1S/C6H14/c1-4-6(3)5-2/h6H,4-5H2,1-3H3, purity 99.5%
Compound 21: heptane, C7H16, InChI=1S/C7H16/c1-3-5-7-6-4-2/h3-7H2,1-2H3, purity 99.5%
Compound 22: 2,2,4-trimethylpentane, C8H18, InChI=1S/C8H18/c1-7(2)6-8(3,4)5/h7H,6H2,1-5H3, purity 99.5%
Compound 23: octane, C8H18, InChI=1S/C8H18/c1-3-5-7-8-6-4-2/h3-8H2,1-2H3, purity 99.5%
Compound 24: nonane, C9H20, InChI=1S/C9H20/c1-3-5-7-9-8-6-4-2/h3-9H2,1-2H3, purity 99.5%
Compound 25: decane, C10H22, InChI=1S/C10H22/c1-3-5-7-9-10-8-6-4-2/h3-10H2,1-2H3, purity 99.5%
Compound 26: undecane, C11H24, InChI=1S/C11H24/c1-3-5-7-9-11-10-8-6-4-2/h3-11H2,1-2H3, purity 99.5%
Compound 27: dodecane, C12H26, InChI=1S/C12H26/c1-3-5-7-9-11-12-10-8-6-4-2/h3-12H2,1-2H3, purity 99.5%
Compound 28: methylcyclopentane, C6H12, InChI=1S/C6H12/c1-6-4-2-3-5-6/h6H,2-5H2,1H3, purity 99.5%
Compound 29: cyclohexane, C6H12, InChI=1S/C6H12/c1-2-4-6-5-3-1/h1-6H2, purity 99.5%
Compound 30: methylcyclohexane, C7H14, InChI=1S/C7H14/c1-7-5-3-2-4-6-7/h7H,2-6H2,1H3, purity 99.5%
Compound 31: cycloheptane, C7H14, InChI=1S/C7H14/c1-2-4-6-7-5-3-1/h1-7H2, purity 99.5%
Compound 32: benzene, C6H6, InChI=1S/C6H6/c1-2-4-6-5-3-1/h1-6H, purity 99.5%
Compound 33: toluene, C7H8, InChI=1S/C7H8/c1-7-5-3-2-4-6-7/h2-6H,1H3, purity 99.5%
Compound 34: ethylbenzene, C8H10, InChI=1S/C8H10/c1-2-8-6-4-3-5-7-8/h3-7H,2H2,1H3, purity 99.5%
Compound 35: 1,3-dimethylbenzene, C8H10, InChI=1S/C8H10/c1-7-4-3-5-8(2)6-7/h3-6H,1-2H3, purity 99.5%
Compound 36: 1,4-dimethylbenzene, C8H10, InChI=1S/C8H10/c1-7-3-5-8(2)6-4-7/h3-6H,1-2H3, purity 99.5%
Compound 37: 1,2-dimethylbenzene, C8H10, InChI=1S/C8H10/c1-7-5-3-4-6-8(7)2/h3-6H,1-2H3, purity 99.5%
Compound 38: hex-1-ene, C6H12, InChI=1S/C6H12/c1-3-5-6-4-2/h3H,1,4-6H2,2H3, purity 99.5%
Compound 39: 1-hexyne, C6H10, InChI=1S/C6H10/c1-3-5-6-4-2/h1H,4-6H2,2H3, purity 99.5%
Compound 40: 1-heptyne, C7H12, InChI=1S/C7H12/c1-3-5-7-6-4-2/h1H,4-7H2,2H3, purity 99.5%
Compound 41: butanone, C4H8O, InChI=1S/C4H8O/c1-3-4(2)5/h3H2,1-2H3, purity 99.5%
Compound 42: pentan-2-one, C5H10O, InChI=1S/C5H10O/c1-3-4-5(2)6/h3-4H2,1-2H3, purity 99.5%
Compound 43: pentan-3-one, C5H10O, InChI=1S/C5H10O/c1-3-5(6)4-2/h3-4H2,1-2H3, purity 99.5%
Compound 44: 1,4-dioxane, C4H8O2, InChI=1S/C4H8O2/c1-2-6-4-3-5-1/h1-4H2, purity 99.5%
Compound 45: ethanol, C2H6O, InChI=1S/C2H6O/c1-2-3/h3H,2H2,1H3, purity 99.5%
Compound 46: propan-1-ol, C3H8O, InChI=1S/C3H8O/c1-2-3-4/h4H,2-3H2,1H3, purity 99.5%
Compound 47: propan-2-ol, C3H8O, InChI=1S/C3H8O/c1-3(2)4/h3-4H,1-2H3, purity 99.5%
Compound 48: 2-methyl-1-propanol, C4H10O, InChI=1S/C4H10O/c1-4(2)3-5/h4-5H,3H2,1-2H3, purity 99.5%
Compound 49: 2,2,2-trifluoroethanol, C2H3F3O, InChI=1S/C2H3F3O/c3-2(4,5)1-6/h6H,1H2, purity 99.5%
Compound 50: trimethyloctylammonium bis[(trifluoromethyl)sulfonyl]imide, C13H26F6N2O4S2, InChI=1S/C11H26N.C2F6NO4S2/c1-5-6-7-8-9-10-11-12(2,3)4;3-1(4,5)14(10,11)9-15(12,13)2(6,7)8/h5-11H2,1-4H3;/q+1;-1, purity 99.8%
Compound 51: butan-1-ol, C4H10O, InChI=1S/C4H10O/c1-2-3-4-5/h5H,2-4H2,1H3, purity 99.5%

System: thiophene + tetraoctylammonium bis(trifluoromethylsulfonyl)amide; phases: Liquid, Air at 1 atmosphere
Fixed: Mole fraction of thiophene = 0
Property: Activity coefficient of thiophene (Liquid); method: Chromatography
Temperature, K	Activity coefficient of thiophene	uncertainty
322.85	0.4	0.03
332.65	0.4	0.03
343.15	0.41	0.03

System: methanal + tetraoctylammonium bis(trifluoromethylsulfonyl)amide; phases: Liquid, Air at 1 atmosphere
Fixed: Mole fraction of methanal = 0
Property: Activity coefficient of methanal (Liquid); method: Chromatography
Temperature, K	Activity coefficient of methanal	uncertainty
322.85	0.07	0.04
332.65	0.08	0.04
343.15	0.09	0.04

System: propanal + tetraoctylammonium bis(trifluoromethylsulfonyl)amide; phases: Liquid, Air at 1 atmosphere
Fixed: Mole fraction of propanal = 0
Property: Activity coefficient of propanal (Liquid); method: Chromatography
Temperature, K	Activity coefficient of propanal	uncertainty
322.85	0.25	0.04
332.65	0.35	0.04
343.15	0.35	0.04

System: methanol + N,N,N-Trimethyl-1-decanaminium bis[(trifluoromethyl)sulfonyl]imide; phases: Liquid, Air at 1 atmosphere
Fixed: Mole fraction of methanol = 0
Property: Activity coefficient of methanol (Liquid); method: Chromatography
Temperature, K	Activity coefficient of methanol	uncertainty
322.85	0.79	0.03
332.65	0.91	0.03
343.15	0.66	0.03

System: triethylamine + N,N,N-Trimethyl-1-decanaminium bis[(trifluoromethyl)sulfonyl]imide; phases: Liquid, Air at 1 atmosphere
Fixed: Mole fraction of triethylamine = 0
Property: Activity coefficient of triethylamine (Liquid); method: Chromatography
Temperature, K	Activity coefficient of triethylamine	uncertainty
322.85	2.17	0.1
332.65	2.4	0.11
343.15	2.31	0.1

System: butanal + N,N,N-Trimethyl-1-decanaminium bis[(trifluoromethyl)sulfonyl]imide; phases: Liquid, Air at 1 atmosphere
Fixed: Mole fraction of butanal = 0
Property: Activity coefficient of butanal (Liquid); method: Chromatography
Temperature, K	Activity coefficient of butanal	uncertainty
322.85	0.47	0.03
332.65	0.53	0.03
343.15	0.51	0.03

System: triethylamine + tetraoctylammonium bis(trifluoromethylsulfonyl)amide; phases: Liquid, Air at 1 atmosphere
Fixed: Mole fraction of triethylamine = 0
Property: Activity coefficient of triethylamine (Liquid); method: Chromatography
Temperature, K	Activity coefficient of triethylamine	uncertainty
322.85	1.03	0.03
332.65	1.05	0.03
343.15	1.02	0.03

System: butanal + tetraoctylammonium bis(trifluoromethylsulfonyl)amide; phases: Liquid, Air at 1 atmosphere
Property: Activity coefficient of butanal (Liquid); method: Chromatography
Temperature, K	Mole fraction of butanal	Activity coefficient of butanal	uncertainty
343.15	0	0.31	0.04

System: pyridine + tetraoctylammonium bis(trifluoromethylsulfonyl)amide; phases: Liquid, Air at 1 atmosphere
Fixed: Mole fraction of pyridine = 0
Property: Activity coefficient of pyridine (Liquid); method: Chromatography
Temperature, K	Activity coefficient of pyridine	uncertainty
322.85	0.33	0.04
332.65	0.33	0.04
343.15	0.34	0.04

System: diethyl ether + N,N,N-Trimethyl-1-decanaminium bis[(trifluoromethyl)sulfonyl]imide; phases: Liquid, Air at 1 atmosphere
Fixed: Mole fraction of diethyl ether = 0
Property: Activity coefficient of diethyl ether (Liquid); method: Chromatography
Temperature, K	Activity coefficient of diethyl ether	uncertainty
322.85	1.23	0.04
332.65	1.24	0.04
343.15	1.21	0.04

System: diisopropyl ether + N,N,N-Trimethyl-1-decanaminium bis[(trifluoromethyl)sulfonyl]imide; phases: Liquid, Air at 1 atmosphere
Fixed: Mole fraction of diisopropyl ether = 0
Property: Activity coefficient of diisopropyl ether (Liquid); method: Chromatography
Temperature, K	Activity coefficient of diisopropyl ether	uncertainty
322.85	2.19	0.1
332.65	2.32	0.11
343.15	2.3	0.1

System: trichloromethane + N,N,N-Trimethyl-1-decanaminium bis[(trifluoromethyl)sulfonyl]imide; phases: Liquid, Air at 1 atmosphere
Fixed: Mole fraction of trichloromethane = 0
Property: Activity coefficient of trichloromethane (Liquid); method: Chromatography
Temperature, K	Activity coefficient of trichloromethane	uncertainty
322.85	0.65	0.03
332.65	0.68	0.03
343.15	0.68	0.03

System: dichloromethane + N,N,N-Trimethyl-1-decanaminium bis[(trifluoromethyl)sulfonyl]imide; phases: Liquid, Air at 1 atmosphere
Fixed: Mole fraction of dichloromethane = 0
Property: Activity coefficient of dichloromethane (Liquid); method: Chromatography
Temperature, K	Activity coefficient of dichloromethane	uncertainty
322.85	0.51	0.03
332.65	0.55	0.03
343.15	0.56	0.03

System: tetrachloromethane + N,N,N-Trimethyl-1-decanaminium bis[(trifluoromethyl)sulfonyl]imide; phases: Liquid, Air at 1 atmosphere
Fixed: Mole fraction of tetrachloromethane = 0
Property: Activity coefficient of tetrachloromethane (Liquid); method: Chromatography
Temperature, K	Activity coefficient of tetrachloromethane	uncertainty
322.85	1.46	0.06
332.65	1.5	0.06
343.15	1.47	0.06

System: acetonitrile + N,N,N-Trimethyl-1-decanaminium bis[(trifluoromethyl)sulfonyl]imide; phases: Liquid, Air at 1 atmosphere
Fixed: Mole fraction of acetonitrile = 0
Property: Activity coefficient of acetonitrile (Liquid); method: Chromatography
Temperature, K	Activity coefficient of acetonitrile	uncertainty
322.85	0.44	0.03
332.65	0.44	0.03
343.15	0.42	0.03

System: nitromethane + N,N,N-Trimethyl-1-decanaminium bis[(trifluoromethyl)sulfonyl]imide; phases: Liquid, Air at 1 atmosphere
Fixed: Mole fraction of nitromethane = 0
Property: Activity coefficient of nitromethane (Liquid); method: Chromatography
Temperature, K	Activity coefficient of nitromethane	uncertainty
322.85	0.56	0.03
332.65	0.58	0.03
343.15	0.55	0.03

System: 1-nitropropane + N,N,N-Trimethyl-1-decanaminium bis[(trifluoromethyl)sulfonyl]imide; phases: Liquid, Air at 1 atmosphere
Fixed: Mole fraction of 1-nitropropane = 0
Property: Activity coefficient of 1-nitropropane (Liquid); method: Chromatography
Temperature, K	Activity coefficient of 1-nitropropane	uncertainty
322.85	0.59	0.03
332.65	0.59	0.03
343.15	0.57	0.03

System: pyridine + N,N,N-Trimethyl-1-decanaminium bis[(trifluoromethyl)sulfonyl]imide; phases: Liquid, Air at 1 atmosphere
Fixed: Mole fraction of pyridine = 0
Property: Activity coefficient of pyridine (Liquid); method: Chromatography
Temperature, K	Activity coefficient of pyridine	uncertainty
322.85	0.46	0.03
332.65	0.47	0.03
343.15	0.47	0.03

System: thiophene + N,N,N-Trimethyl-1-decanaminium bis[(trifluoromethyl)sulfonyl]imide; phases: Liquid, Air at 1 atmosphere
Fixed: Mole fraction of thiophene = 0
Property: Activity coefficient of thiophene (Liquid); method: Chromatography
Temperature, K	Activity coefficient of thiophene	uncertainty
322.85	0.65	0.03
332.65	0.7	0.03
343.15	0.68	0.03

System: methanal + N,N,N-Trimethyl-1-decanaminium bis[(trifluoromethyl)sulfonyl]imide; phases: Liquid, Air at 1 atmosphere
Fixed: Mole fraction of methanal = 0
Property: Activity coefficient of methanal (Liquid); method: Chromatography
Temperature, K	Activity coefficient of methanal	uncertainty
322.85	0.09	0.04
332.65	0.1	0.04
343.15	0.11	0.04

System: propanal + N,N,N-Trimethyl-1-decanaminium bis[(trifluoromethyl)sulfonyl]imide; phases: Liquid, Air at 1 atmosphere
Fixed: Mole fraction of propanal = 0
Property: Activity coefficient of propanal (Liquid); method: Chromatography
Temperature, K	Activity coefficient of propanal	uncertainty
322.85	0.4	0.03
332.65	0.42	0.03
343.15	0.41	0.03

System: hexane + tributylmethylammonium bis((trifluoromethyl)sulfonyl)imide; phases: Liquid, Air at 1 atmosphere
Fixed: Mole fraction of hexane = 0
Property: Activity coefficient of hexane (Liquid); method: Chromatography
Temperature, K	Activity coefficient of hexane	uncertainty
322.85	6.75	0.31
332.65	6.75	0.31
343.15	6.44	0.29

System: 3-methylpentane + tributylmethylammonium bis((trifluoromethyl)sulfonyl)imide; phases: Liquid, Air at 1 atmosphere
Fixed: Mole fraction of 3-methylpentane = 0
Property: Activity coefficient of 3-methylpentane (Liquid); method: Chromatography
Temperature, K	Activity coefficient of 3-methylpentane	uncertainty
322.85	6.1	0.28
332.65	6.17	0.28
343.15	5.86	0.27

System: heptane + tributylmethylammonium bis((trifluoromethyl)sulfonyl)imide; phases: Liquid, Air at 1 atmosphere
Fixed: Mole fraction of heptane = 0
Property: Activity coefficient of heptane (Liquid); method: Chromatography
Temperature, K	Activity coefficient of heptane	uncertainty
322.85	8.88	0.41
332.65	8.82	0.4
343.15	8.34	0.38

System: 2,2,4-trimethylpentane + tributylmethylammonium bis((trifluoromethyl)sulfonyl)imide; phases: Liquid, Air at 1 atmosphere
Fixed: Mole fraction of 2,2,4-trimethylpentane = 0
Property: Activity coefficient of 2,2,4-trimethylpentane (Liquid); method: Chromatography
Temperature, K	Activity coefficient of 2,2,4-trimethylpentane	uncertainty
322.85	8.87	0.41
332.65	8.91	0.41
343.15	8.42	0.39

System: octane + tributylmethylammonium bis((trifluoromethyl)sulfonyl)imide; phases: Liquid, Air at 1 atmosphere
Fixed: Mole fraction of octane = 0
Property: Activity coefficient of octane (Liquid); method: Chromatography
Temperature, K	Activity coefficient of octane	uncertainty
322.85	11.57	0.53
332.65	11.49	0.53
343.15	10.8	0.5

System: nonane + tributylmethylammonium bis((trifluoromethyl)sulfonyl)imide; phases: Liquid, Air at 1 atmosphere
Fixed: Mole fraction of nonane = 0
Property: Activity coefficient of nonane (Liquid); method: Chromatography
Temperature, K	Activity coefficient of nonane	uncertainty
322.85	16.54	0.76
332.65	16.13	0.74
343.15	14.97	0.69

System: decane + tributylmethylammonium bis((trifluoromethyl)sulfonyl)imide; phases: Liquid, Air at 1 atmosphere
Fixed: Mole fraction of decane = 0
Property: Activity coefficient of decane (Liquid); method: Chromatography
Temperature, K	Activity coefficient of decane	uncertainty
322.85	19.61	0.91
332.65	19.18	0.89
343.15	17.8	0.82

System: undecane + tributylmethylammonium bis((trifluoromethyl)sulfonyl)imide; phases: Liquid, Air at 1 atmosphere
Fixed: Mole fraction of undecane = 0
Property: Activity coefficient of undecane (Liquid); method: Chromatography
Temperature, K	Activity coefficient of undecane	uncertainty
322.85	25.74	1.19
332.65	24.81	1.15
343.15	22.8	1.06

System: dodecane + tributylmethylammonium bis((trifluoromethyl)sulfonyl)imide; phases: Liquid, Air at 1 atmosphere
Fixed: Mole fraction of dodecane = 0
Property: Activity coefficient of dodecane (Liquid); method: Chromatography
Temperature, K	Activity coefficient of dodecane	uncertainty
322.85	32.35	1.5
332.65	31.31	1.45
343.15	28.79	1.34

System: methylcyclopentane + tributylmethylammonium bis((trifluoromethyl)sulfonyl)imide; phases: Liquid, Air at 1 atmosphere
Fixed: Mole fraction of methylcyclopentane = 0
Property: Activity coefficient of methylcyclopentane (Liquid); method: Chromatography
Temperature, K	Activity coefficient of methylcyclopentane	uncertainty
322.85	4.75	0.22
332.65	4.74	0.22
343.15	4.5	0.21

System: cyclohexane + tributylmethylammonium bis((trifluoromethyl)sulfonyl)imide; phases: Liquid, Air at 1 atmosphere
Fixed: Mole fraction of cyclohexane = 0
Property: Activity coefficient of cyclohexane (Liquid); method: Chromatography
Temperature, K	Activity coefficient of cyclohexane	uncertainty
322.85	4.74	0.22
332.65	4.71	0.21
343.15	4.44	0.2

System: methylcyclohexane + tributylmethylammonium bis((trifluoromethyl)sulfonyl)imide; phases: Liquid, Air at 1 atmosphere
Fixed: Mole fraction of methylcyclohexane = 0
Property: Activity coefficient of methylcyclohexane (Liquid); method: Chromatography
Temperature, K	Activity coefficient of methylcyclohexane	uncertainty
322.85	5.92	0.27
332.65	5.91	0.27
343.15	5.58	0.26

System: cycloheptane + tributylmethylammonium bis((trifluoromethyl)sulfonyl)imide; phases: Liquid, Air at 1 atmosphere
Fixed: Mole fraction of cycloheptane = 0
Property: Activity coefficient of cycloheptane (Liquid); method: Chromatography
Temperature, K	Activity coefficient of cycloheptane	uncertainty
322.85	12.4	0.57
332.65	17.74	0.82
343.15	23.93	1.11

System: benzene + tributylmethylammonium bis((trifluoromethyl)sulfonyl)imide; phases: Liquid, Air at 1 atmosphere
Fixed: Mole fraction of benzene = 0
Property: Activity coefficient of benzene (Liquid); method: Chromatography
Temperature, K	Activity coefficient of benzene	uncertainty
322.85	0.9	0.03
332.65	0.93	0.03
343.15	0.92	0.03

System: toluene + tributylmethylammonium bis((trifluoromethyl)sulfonyl)imide; phases: Liquid, Air at 1 atmosphere
Fixed: Mole fraction of toluene = 0
Property: Activity coefficient of toluene (Liquid); method: Chromatography
Temperature, K	Activity coefficient of toluene	uncertainty
322.85	1.13	0.03
332.65	1.19	0.04
343.15	1.19	0.04

System: ethylbenzene + tributylmethylammonium bis((trifluoromethyl)sulfonyl)imide; phases: Liquid, Air at 1 atmosphere
Fixed: Mole fraction of ethylbenzene = 0
Property: Activity coefficient of ethylbenzene (Liquid); method: Chromatography
Temperature, K	Activity coefficient of ethylbenzene	uncertainty
322.85	1.56	0.06
332.65	1.64	0.07
343.15	1.63	0.07

System: 1,3-dimethylbenzene + tributylmethylammonium bis((trifluoromethyl)sulfonyl)imide; phases: Liquid, Air at 1 atmosphere
Fixed: Mole fraction of 1,3-dimethylbenzene = 0
Property: Activity coefficient of 1,3-dimethylbenzene (Liquid); method: Chromatography
Temperature, K	Activity coefficient of 1,3-dimethylbenzene	uncertainty
322.85	1.49	0.06
332.65	1.56	0.06
343.15	1.56	0.06

System: 1,4-dimethylbenzene + tributylmethylammonium bis((trifluoromethyl)sulfonyl)imide; phases: Liquid, Air at 1 atmosphere
Fixed: Mole fraction of 1,4-dimethylbenzene = 0
Property: Activity coefficient of 1,4-dimethylbenzene (Liquid); method: Chromatography
Temperature, K	Activity coefficient of 1,4-dimethylbenzene	uncertainty
322.85	1.51	0.06
332.65	1.62	0.07
343.15	1.56	0.06

System: 1,2-dimethylbenzene + tributylmethylammonium bis((trifluoromethyl)sulfonyl)imide; phases: Liquid, Air at 1 atmosphere
Fixed: Mole fraction of 1,2-dimethylbenzene = 0
Property: Activity coefficient of 1,2-dimethylbenzene (Liquid); method: Chromatography
Temperature, K	Activity coefficient of 1,2-dimethylbenzene	uncertainty
322.85	1.38	0.05
332.65	1.46	0.06
343.15	1.46	0.06

System: hex-1-ene + tributylmethylammonium bis((trifluoromethyl)sulfonyl)imide; phases: Liquid, Air at 1 atmosphere
Fixed: Mole fraction of hex-1-ene = 0
Property: Activity coefficient of hex-1-ene (Liquid); method: Chromatography
Temperature, K	Activity coefficient of hex-1-ene	uncertainty
322.85	4.31	0.2
332.65	4.4	0.2
343.15	4.25	0.19

System: 1-hexyne + tributylmethylammonium bis((trifluoromethyl)sulfonyl)imide; phases: Liquid, Air at 1 atmosphere
Fixed: Mole fraction of 1-hexyne = 0
Property: Activity coefficient of 1-hexyne (Liquid); method: Chromatography
Temperature, K	Activity coefficient of 1-hexyne	uncertainty
322.85	2.12	0.1
332.65	2.24	0.1
343.15	2.2	0.1

System: 1-heptyne + tributylmethylammonium bis((trifluoromethyl)sulfonyl)imide; phases: Liquid, Air at 1 atmosphere
Fixed: Mole fraction of 1-heptyne = 0
Property: Activity coefficient of 1-heptyne (Liquid); method: Chromatography
Temperature, K	Activity coefficient of 1-heptyne	uncertainty
322.85	2.79	0.13
332.65	2.89	0.13
343.15	2.85	0.13

System: butanone + tributylmethylammonium bis((trifluoromethyl)sulfonyl)imide; phases: Liquid, Air at 1 atmosphere
Fixed: Mole fraction of butanone = 0
Property: Activity coefficient of butanone (Liquid); method: Chromatography
Temperature, K	Activity coefficient of butanone	uncertainty
322.85	0.4	0.03
332.65	0.38	0.03
343.15	0.35	0.04

System: pentan-2-one + tributylmethylammonium bis((trifluoromethyl)sulfonyl)imide; phases: Liquid, Air at 1 atmosphere
Fixed: Mole fraction of pentan-2-one = 0
Property: Activity coefficient of pentan-2-one (Liquid); method: Chromatography
Temperature, K	Activity coefficient of pentan-2-one	uncertainty
322.85	0.55	0.03
332.65	0.58	0.03
343.15	0.59	0.03

System: pentan-3-one + tributylmethylammonium bis((trifluoromethyl)sulfonyl)imide; phases: Liquid, Air at 1 atmosphere
Fixed: Mole fraction of pentan-3-one = 0
Property: Activity coefficient of pentan-3-one (Liquid); method: Chromatography
Temperature, K	Activity coefficient of pentan-3-one	uncertainty
322.85	0.5	0.03
332.65	0.54	0.03
343.15	0.56	0.03

System: 1,4-dioxane + tributylmethylammonium bis((trifluoromethyl)sulfonyl)imide; phases: Liquid, Air at 1 atmosphere
Fixed: Mole fraction of 1,4-dioxane = 0
Property: Activity coefficient of 1,4-dioxane (Liquid); method: Chromatography
Temperature, K	Activity coefficient of 1,4-dioxane	uncertainty
322.85	0.61	0.03
332.65	0.67	0.03
343.15	0.67	0.03

System: methanol + tributylmethylammonium bis((trifluoromethyl)sulfonyl)imide; phases: Liquid, Air at 1 atmosphere
Fixed: Mole fraction of methanol = 0
Property: Activity coefficient of methanol (Liquid); method: Chromatography
Temperature, K	Activity coefficient of methanol	uncertainty
322.85	0.96	0.03
332.65	0.75	0.03
343.15	0.88	0.03

System: ethanol + tributylmethylammonium bis((trifluoromethyl)sulfonyl)imide; phases: Liquid, Air at 1 atmosphere
Fixed: Mole fraction of ethanol = 0
Property: Activity coefficient of ethanol (Liquid); method: Chromatography
Temperature, K	Activity coefficient of ethanol	uncertainty
322.85	1.53	0.06
332.65	1.4	0.05
343.15	1.27	0.04

System: propan-1-ol + tributylmethylammonium bis((trifluoromethyl)sulfonyl)imide; phases: Liquid, Air at 1 atmosphere
Fixed: Mole fraction of propan-1-ol = 0
Property: Activity coefficient of propan-1-ol (Liquid); method: Chromatography
Temperature, K	Activity coefficient of propan-1-ol	uncertainty
322.85	1.78	0.08
332.65	1.64	0.07
343.15	1.48	0.06

System: propan-2-ol + tributylmethylammonium bis((trifluoromethyl)sulfonyl)imide; phases: Liquid, Air at 1 atmosphere
Fixed: Mole fraction of propan-2-ol = 0
Property: Activity coefficient of propan-2-ol (Liquid); method: Chromatography
Temperature, K	Activity coefficient of propan-2-ol	uncertainty
322.85	1.67	0.07
332.65	1.54	0.06
343.15	1.4	0.05

System: 2-methyl-1-propanol + tributylmethylammonium bis((trifluoromethyl)sulfonyl)imide; phases: Liquid, Air at 1 atmosphere
Fixed: Mole fraction of 2-methyl-1-propanol = 0
Property: Activity coefficient of 2-methyl-1-propanol (Liquid); method: Chromatography
Temperature, K	Activity coefficient of 2-methyl-1-propanol	uncertainty
322.85	1.97	0.09
332.65	1.82	0.08
343.15	1.64	0.07

System: 2,2,2-trifluoroethanol + tributylmethylammonium bis((trifluoromethyl)sulfonyl)imide; phases: Liquid, Air at 1 atmosphere
Fixed: Mole fraction of 2,2,2-trifluoroethanol = 0
Property: Activity coefficient of 2,2,2-trifluoroethanol (Liquid); method: Chromatography
Temperature, K	Activity coefficient of 2,2,2-trifluoroethanol	uncertainty
322.85	0.5	0.03
332.65	0.48	0.03
343.15	0.45	0.03

System: diethyl ether + tributylmethylammonium bis((trifluoromethyl)sulfonyl)imide; phases: Liquid, Air at 1 atmosphere
Fixed: Mole fraction of diethyl ether = 0
Property: Activity coefficient of diethyl ether (Liquid); method: Chromatography
Temperature, K	Activity coefficient of diethyl ether	uncertainty
322.85	1.65	0.07
332.65	1.67	0.07
343.15	1.65	0.07

System: diisopropyl ether + tributylmethylammonium bis((trifluoromethyl)sulfonyl)imide; phases: Liquid, Air at 1 atmosphere
Fixed: Mole fraction of diisopropyl ether = 0
Property: Activity coefficient of diisopropyl ether (Liquid); method: Chromatography
Temperature, K	Activity coefficient of diisopropyl ether	uncertainty
322.85	3.31	0.15
332.65	3.35	0.15
343.15	3.35	0.15

System: trichloromethane + tributylmethylammonium bis((trifluoromethyl)sulfonyl)imide; phases: Liquid, Air at 1 atmosphere
Fixed: Mole fraction of trichloromethane = 0
Property: Activity coefficient of trichloromethane (Liquid); method: Chromatography
Temperature, K	Activity coefficient of trichloromethane	uncertainty
322.85	0.84	0.03
332.65	0.87	0.03
343.15	0.88	0.03

System: dichloromethane + tributylmethylammonium bis((trifluoromethyl)sulfonyl)imide; phases: Liquid, Air at 1 atmosphere
Fixed: Mole fraction of dichloromethane = 0
Property: Activity coefficient of dichloromethane (Liquid); method: Chromatography
Temperature, K	Activity coefficient of dichloromethane	uncertainty
322.85	0.66	0.03
332.65	0.69	0.03
343.15	0.7	0.03

System: tetrachloromethane + tributylmethylammonium bis((trifluoromethyl)sulfonyl)imide; phases: Liquid, Air at 1 atmosphere
Fixed: Mole fraction of tetrachloromethane = 0
Property: Activity coefficient of tetrachloromethane (Liquid); method: Chromatography
Temperature, K	Activity coefficient of tetrachloromethane	uncertainty
322.85	2.11	0.1
332.65	2.11	0.1
343.15	2.07	0.09

System: acetonitrile + tributylmethylammonium bis((trifluoromethyl)sulfonyl)imide; phases: Liquid, Air at 1 atmosphere
Fixed: Mole fraction of acetonitrile = 0
Property: Activity coefficient of acetonitrile (Liquid); method: Chromatography
Temperature, K	Activity coefficient of acetonitrile	uncertainty
322.85	0.49	0.03
332.65	0.5	0.03
343.15	0.48	0.03

System: nitromethane + tributylmethylammonium bis((trifluoromethyl)sulfonyl)imide; phases: Liquid, Air at 1 atmosphere
Fixed: Mole fraction of nitromethane = 0
Property: Activity coefficient of nitromethane (Liquid); method: Chromatography
Temperature, K	Activity coefficient of nitromethane	uncertainty
322.85	0.65	0.03
332.65	0.65	0.03
343.15	0.62	0.03

System: 1-nitropropane + tributylmethylammonium bis((trifluoromethyl)sulfonyl)imide; phases: Liquid, Air at 1 atmosphere
Fixed: Mole fraction of 1-nitropropane = 0
Property: Activity coefficient of 1-nitropropane (Liquid); method: Chromatography
Temperature, K	Activity coefficient of 1-nitropropane	uncertainty
322.85	0.68	0.03
332.65	0.7	0.03
343.15	0.68	0.03

System: pyridine + tributylmethylammonium bis((trifluoromethyl)sulfonyl)imide; phases: Liquid, Air at 1 atmosphere
Fixed: Mole fraction of pyridine = 0
Property: Activity coefficient of pyridine (Liquid); method: Chromatography
Temperature, K	Activity coefficient of pyridine	uncertainty
322.85	0.55	0.03
332.65	0.56	0.03
343.15	0.56	0.03

System: thiophene + tributylmethylammonium bis((trifluoromethyl)sulfonyl)imide; phases: Liquid, Air at 1 atmosphere
Fixed: Mole fraction of thiophene = 0
Property: Activity coefficient of thiophene (Liquid); method: Chromatography
Temperature, K	Activity coefficient of thiophene	uncertainty
322.85	0.86	0.03
332.65	0.88	0.03
343.15	0.87	0.03

System: methanal + tributylmethylammonium bis((trifluoromethyl)sulfonyl)imide; phases: Liquid, Air at 1 atmosphere
Fixed: Mole fraction of methanal = 0
Property: Activity coefficient of methanal (Liquid); method: Chromatography
Temperature, K	Activity coefficient of methanal	uncertainty
322.85	0.11	0.04
332.65	0.12	0.04
343.15	0.13	0.04

System: propanal + tributylmethylammonium bis((trifluoromethyl)sulfonyl)imide; phases: Liquid, Air at 1 atmosphere
Fixed: Mole fraction of propanal = 0
Property: Activity coefficient of propanal (Liquid); method: Chromatography
Temperature, K	Activity coefficient of propanal	uncertainty
322.85	0.49	0.03
332.65	0.49	0.03
343.15	0.5	0.03

System: hexane + trimethyloctylammonium bis[(trifluoromethyl)sulfonyl]imide; phases: Liquid, Air at 1 atmosphere
Fixed: Mole fraction of hexane = 0
Property: Activity coefficient of hexane (Liquid); method: Chromatography
Temperature, K	Activity coefficient of hexane	uncertainty
322.85	6.21	0.28
332.65	5.83	0.27
343.15	5.36	0.24

System: 3-methylpentane + trimethyloctylammonium bis[(trifluoromethyl)sulfonyl]imide; phases: Liquid, Air at 1 atmosphere
Fixed: Mole fraction of 3-methylpentane = 0
Property: Activity coefficient of 3-methylpentane (Liquid); method: Chromatography
Temperature, K	Activity coefficient of 3-methylpentane	uncertainty
322.85	5.62	0.26
332.65	5.24	0.24
343.15	4.87	0.22

System: heptane + trimethyloctylammonium bis[(trifluoromethyl)sulfonyl]imide; phases: Liquid, Air at 1 atmosphere
Fixed: Mole fraction of heptane = 0
Property: Activity coefficient of heptane (Liquid); method: Chromatography
Temperature, K	Activity coefficient of heptane	uncertainty
322.85	8.27	0.38
332.65	7.81	0.36
343.15	7.18	0.33

System: 2,2,4-trimethylpentane + trimethyloctylammonium bis[(trifluoromethyl)sulfonyl]imide; phases: Liquid, Air at 1 atmosphere
Fixed: Mole fraction of 2,2,4-trimethylpentane = 0
Property: Activity coefficient of 2,2,4-trimethylpentane (Liquid); method: Chromatography
Temperature, K	Activity coefficient of 2,2,4-trimethylpentane	uncertainty
322.85	8.1	0.37
332.65	7.66	0.35
343.15	7.14	0.33

System: octane + trimethyloctylammonium bis[(trifluoromethyl)sulfonyl]imide; phases: Liquid, Air at 1 atmosphere
Fixed: Mole fraction of octane = 0
Property: Activity coefficient of octane (Liquid); method: Chromatography
Temperature, K	Activity coefficient of octane	uncertainty
322.85	11	0.51
332.65	10.32	0.47
343.15	9.47	0.43

System: nonane + trimethyloctylammonium bis[(trifluoromethyl)sulfonyl]imide; phases: Liquid, Air at 1 atmosphere
Fixed: Mole fraction of nonane = 0
Property: Activity coefficient of nonane (Liquid); method: Chromatography
Temperature, K	Activity coefficient of nonane	uncertainty
322.85	15.95	0.74
332.65	14.81	0.68
343.15	13.36	0.62

System: decane + trimethyloctylammonium bis[(trifluoromethyl)sulfonyl]imide; phases: Liquid, Air at 1 atmosphere
Fixed: Mole fraction of decane = 0
Property: Activity coefficient of decane (Liquid); method: Chromatography
Temperature, K	Activity coefficient of decane	uncertainty
322.85	19.33	0.89
332.65	17.95	0.83
343.15	16.2	0.75

System: undecane + trimethyloctylammonium bis[(trifluoromethyl)sulfonyl]imide; phases: Liquid, Air at 1 atmosphere
Fixed: Mole fraction of undecane = 0
Property: Activity coefficient of undecane (Liquid); method: Chromatography
Temperature, K	Activity coefficient of undecane	uncertainty
322.85	25.83	1.2
332.65	23.68	1.1
343.15	21.1	0.98

System: dodecane + trimethyloctylammonium bis[(trifluoromethyl)sulfonyl]imide; phases: Liquid, Air at 1 atmosphere
Fixed: Mole fraction of dodecane = 0
Property: Activity coefficient of dodecane (Liquid); method: Chromatography
Temperature, K	Activity coefficient of dodecane	uncertainty
322.85	33.12	1.54
332.65	30.51	1.42
343.15	27.15	1.26

System: methylcyclopentane + trimethyloctylammonium bis[(trifluoromethyl)sulfonyl]imide; phases: Liquid, Air at 1 atmosphere
Fixed: Mole fraction of methylcyclopentane = 0
Property: Activity coefficient of methylcyclopentane (Liquid); method: Chromatography
Temperature, K	Activity coefficient of methylcyclopentane	uncertainty
322.85	4.18	0.19
332.65	3.95	0.18
343.15	3.67	0.17

System: cyclohexane + trimethyloctylammonium bis[(trifluoromethyl)sulfonyl]imide; phases: Liquid, Air at 1 atmosphere
Fixed: Mole fraction of cyclohexane = 0
Property: Activity coefficient of cyclohexane (Liquid); method: Chromatography
Temperature, K	Activity coefficient of cyclohexane	uncertainty
322.85	4.08	0.19
332.65	3.84	0.17
343.15	3.57	0.16

System: methylcyclohexane + trimethyloctylammonium bis[(trifluoromethyl)sulfonyl]imide; phases: Liquid, Air at 1 atmosphere
Fixed: Mole fraction of methylcyclohexane = 0
Property: Activity coefficient of methylcyclohexane (Liquid); method: Chromatography
Temperature, K	Activity coefficient of methylcyclohexane	uncertainty
322.85	5.23	0.24
332.65	4.93	0.23
343.15	4.6	0.21

System: cycloheptane + trimethyloctylammonium bis[(trifluoromethyl)sulfonyl]imide; phases: Liquid, Air at 1 atmosphere
Fixed: Mole fraction of cycloheptane = 0
Property: Activity coefficient of cycloheptane (Liquid); method: Chromatography
Temperature, K	Activity coefficient of cycloheptane	uncertainty
322.85	10.83	0.5
332.65	14.65	0.68
343.15	19.42	0.9

System: benzene + trimethyloctylammonium bis[(trifluoromethyl)sulfonyl]imide; phases: Liquid, Air at 1 atmosphere
Fixed: Mole fraction of benzene = 0
Property: Activity coefficient of benzene (Liquid); method: Chromatography
Temperature, K	Activity coefficient of benzene	uncertainty
322.85	0.73	0.03
332.65	0.74	0.03
343.15	0.73	0.03

System: toluene + trimethyloctylammonium bis[(trifluoromethyl)sulfonyl]imide; phases: Liquid, Air at 1 atmosphere
Fixed: Mole fraction of toluene = 0
Property: Activity coefficient of toluene (Liquid); method: Chromatography
Temperature, K	Activity coefficient of toluene	uncertainty
322.85	0.97	0.03
332.65	0.98	0.03
343.15	0.98	0.03

System: ethylbenzene + trimethyloctylammonium bis[(trifluoromethyl)sulfonyl]imide; phases: Liquid, Air at 1 atmosphere
Fixed: Mole fraction of ethylbenzene = 0
Property: Activity coefficient of ethylbenzene (Liquid); method: Chromatography
Temperature, K	Activity coefficient of ethylbenzene	uncertainty
322.85	1.39	0.05
332.65	1.4	0.05
343.15	1.38	0.05

System: 1,3-dimethylbenzene + trimethyloctylammonium bis[(trifluoromethyl)sulfonyl]imide; phases: Liquid, Air at 1 atmosphere
Fixed: Mole fraction of 1,3-dimethylbenzene = 0
Property: Activity coefficient of 1,3-dimethylbenzene (Liquid); method: Chromatography
Temperature, K	Activity coefficient of 1,3-dimethylbenzene	uncertainty
322.85	1.39	0.05
332.65	1.39	0.05
343.15	1.38	0.05

System: 1,4-dimethylbenzene + trimethyloctylammonium bis[(trifluoromethyl)sulfonyl]imide; phases: Liquid, Air at 1 atmosphere
Fixed: Mole fraction of 1,4-dimethylbenzene = 0
Property: Activity coefficient of 1,4-dimethylbenzene (Liquid); method: Chromatography
Temperature, K	Activity coefficient of 1,4-dimethylbenzene	uncertainty
322.85	1.38	0.05
332.65	1.39	0.05
343.15	1.37	0.05

System: 1,2-dimethylbenzene + trimethyloctylammonium bis[(trifluoromethyl)sulfonyl]imide; phases: Liquid, Air at 1 atmosphere
Fixed: Mole fraction of 1,2-dimethylbenzene = 0
Property: Activity coefficient of 1,2-dimethylbenzene (Liquid); method: Chromatography
Temperature, K	Activity coefficient of 1,2-dimethylbenzene	uncertainty
322.85	1.24	0.04
332.65	1.26	0.04
343.15	1.25	0.04

System: hex-1-ene + trimethyloctylammonium bis[(trifluoromethyl)sulfonyl]imide; phases: Liquid, Air at 1 atmosphere
Fixed: Mole fraction of hex-1-ene = 0
Property: Activity coefficient of hex-1-ene (Liquid); method: Chromatography
Temperature, K	Activity coefficient of hex-1-ene	uncertainty
322.85	3.99	0.18
332.65	3.8	0.17
343.15	3.6	0.16

System: 1-hexyne + trimethyloctylammonium bis[(trifluoromethyl)sulfonyl]imide; phases: Liquid, Air at 1 atmosphere
Fixed: Mole fraction of 1-hexyne = 0
Property: Activity coefficient of 1-hexyne (Liquid); method: Chromatography
Temperature, K	Activity coefficient of 1-hexyne	uncertainty
322.85	1.92	0.08
332.65	1.89	0.08
343.15	1.82	0.08

System: butan-1-ol + tributylmethylammonium bis((trifluoromethyl)sulfonyl)imide; phases: Liquid, Air at 1 atmosphere
Fixed: Mole fraction of butan-1-ol = 0
Property: Activity coefficient of butan-1-ol (Liquid); method: Chromatography
Temperature, K	Activity coefficient of butan-1-ol	uncertainty
322.85	2.1	0.1
332.65	1.89	0.08
343.15	1.73	0.07

System: 2,2,2-trifluoroethanol + trimethyloctylammonium bis[(trifluoromethyl)sulfonyl]imide; phases: Liquid, Air at 1 atmosphere
Fixed: Mole fraction of 2,2,2-trifluoroethanol = 0
Property: Activity coefficient of 2,2,2-trifluoroethanol (Liquid); method: Chromatography
Temperature, K	Activity coefficient of 2,2,2-trifluoroethanol	uncertainty
322.85	0.4	0.03
332.65	0.38	0.03
343.15	0.35	0.04

System: diethyl ether + trimethyloctylammonium bis[(trifluoromethyl)sulfonyl]imide; phases: Liquid, Air at 1 atmosphere
Fixed: Mole fraction of diethyl ether = 0
Property: Activity coefficient of diethyl ether (Liquid); method: Chromatography
Temperature, K	Activity coefficient of diethyl ether	uncertainty
322.85	1.6	0.06
332.65	1.57	0.06
343.15	1.53	0.06

System: diisopropyl ether + trimethyloctylammonium bis[(trifluoromethyl)sulfonyl]imide; phases: Liquid, Air at 1 atmosphere
Fixed: Mole fraction of diisopropyl ether = 0
Property: Activity coefficient of diisopropyl ether (Liquid); method: Chromatography
Temperature, K	Activity coefficient of diisopropyl ether	uncertainty
322.85	3.22	0.15
332.65	3.15	0.14
343.15	3.08	0.14

System: trichloromethane + trimethyloctylammonium bis[(trifluoromethyl)sulfonyl]imide; phases: Liquid, Air at 1 atmosphere
Fixed: Mole fraction of trichloromethane = 0
Property: Activity coefficient of trichloromethane (Liquid); method: Chromatography
Temperature, K	Activity coefficient of trichloromethane	uncertainty
322.85	0.63	0.03
332.65	0.65	0.03
343.15	0.66	0.03

System: dichloromethane + trimethyloctylammonium bis[(trifluoromethyl)sulfonyl]imide; phases: Liquid, Air at 1 atmosphere
Fixed: Mole fraction of dichloromethane = 0
Property: Activity coefficient of dichloromethane (Liquid); method: Chromatography
Temperature, K	Activity coefficient of dichloromethane	uncertainty
322.85	0.51	0.03
332.65	0.53	0.03
343.15	0.54	0.03

System: tetrachloromethane + trimethyloctylammonium bis[(trifluoromethyl)sulfonyl]imide; phases: Liquid, Air at 1 atmosphere
Fixed: Mole fraction of tetrachloromethane = 0
Property: Activity coefficient of tetrachloromethane (Liquid); method: Chromatography
Temperature, K	Activity coefficient of tetrachloromethane	uncertainty
322.85	1.63	0.07
332.65	1.63	0.07
343.15	1.6	0.06

System: acetonitrile + trimethyloctylammonium bis[(trifluoromethyl)sulfonyl]imide; phases: Liquid, Air at 1 atmosphere
Fixed: Mole fraction of acetonitrile = 0
Property: Activity coefficient of acetonitrile (Liquid); method: Chromatography
Temperature, K	Activity coefficient of acetonitrile	uncertainty
322.85	0.48	0.03
332.65	0.46	0.03
343.15	0.44	0.03

System: nitromethane + trimethyloctylammonium bis[(trifluoromethyl)sulfonyl]imide; phases: Liquid, Air at 1 atmosphere
Fixed: Mole fraction of nitromethane = 0
Property: Activity coefficient of nitromethane (Liquid); method: Chromatography
Temperature, K	Activity coefficient of nitromethane	uncertainty
322.85	0.6	0.03
332.65	0.58	0.03
343.15	0.55	0.03

System: 1-nitropropane + trimethyloctylammonium bis[(trifluoromethyl)sulfonyl]imide; phases: Liquid, Air at 1 atmosphere
Fixed: Mole fraction of 1-nitropropane = 0
Property: Activity coefficient of 1-nitropropane (Liquid); method: Chromatography
Temperature, K	Activity coefficient of 1-nitropropane	uncertainty
322.85	0.62	0.03
332.65	0.61	0.03
343.15	0.6	0.03

System: pyridine + trimethyloctylammonium bis[(trifluoromethyl)sulfonyl]imide; phases: Liquid, Air at 1 atmosphere
Fixed: Mole fraction of pyridine = 0
Property: Activity coefficient of pyridine (Liquid); method: Chromatography
Temperature, K	Activity coefficient of pyridine	uncertainty
322.85	0.45	0.03
332.65	0.44	0.03
343.15	0.43	0.03

System: thiophene + trimethyloctylammonium bis[(trifluoromethyl)sulfonyl]imide; phases: Liquid, Air at 1 atmosphere
Fixed: Mole fraction of thiophene = 0
Property: Activity coefficient of thiophene (Liquid); method: Chromatography
Temperature, K	Activity coefficient of thiophene	uncertainty
322.85	0.69	0.03
332.65	0.69	0.03
343.15	0.69	0.03

System: methanal + trimethyloctylammonium bis[(trifluoromethyl)sulfonyl]imide; phases: Liquid, Air at 1 atmosphere
Fixed: Mole fraction of methanal = 0
Property: Activity coefficient of methanal (Liquid); method: Chromatography
Temperature, K	Activity coefficient of methanal	uncertainty
322.85	0.1	0.04
332.65	0.11	0.04
343.15	0.12	0.04

System: propanal + trimethyloctylammonium bis[(trifluoromethyl)sulfonyl]imide; phases: Liquid, Air at 1 atmosphere
Fixed: Mole fraction of propanal = 0
Property: Activity coefficient of propanal (Liquid); method: Chromatography
Temperature, K	Activity coefficient of propanal	uncertainty
322.85	0.48	0.03
332.65	0.47	0.03
343.15	0.46	0.03

System: hexane + tetraoctylammonium bis(trifluoromethylsulfonyl)amide; phases: Liquid, Air at 1 atmosphere
Fixed: Mole fraction of hexane = 0
Property: Activity coefficient of hexane (Liquid); method: Chromatography
Temperature, K	Activity coefficient of hexane	uncertainty
322.85	1.3	0.04
332.65	1.29	0.04
343.15	1.28	0.04

System: 3-methylpentane + tetraoctylammonium bis(trifluoromethylsulfonyl)amide; phases: Liquid, Air at 1 atmosphere
Fixed: Mole fraction of 3-methylpentane = 0
Property: Activity coefficient of 3-methylpentane (Liquid); method: Chromatography
Temperature, K	Activity coefficient of 3-methylpentane	uncertainty
322.85	1.22	0.04
332.65	1.22	0.04
343.15	1.21	0.04

System: heptane + tetraoctylammonium bis(trifluoromethylsulfonyl)amide; phases: Liquid, Air at 1 atmosphere
Fixed: Mole fraction of heptane = 0
Property: Activity coefficient of heptane (Liquid); method: Chromatography
Temperature, K	Activity coefficient of heptane	uncertainty
322.85	1.5	0.06
332.65	1.48	0.06
343.15	1.47	0.06

System: 2,2,4-trimethylpentane + tetraoctylammonium bis(trifluoromethylsulfonyl)amide; phases: Liquid, Air at 1 atmosphere
Fixed: Mole fraction of 2,2,4-trimethylpentane = 0
Property: Activity coefficient of 2,2,4-trimethylpentane (Liquid); method: Chromatography
Temperature, K	Activity coefficient of 2,2,4-trimethylpentane	uncertainty
322.85	1.52	0.06
332.65	1.51	0.06
343.15	1.5	0.06

System: octane + tetraoctylammonium bis(trifluoromethylsulfonyl)amide; phases: Liquid, Air at 1 atmosphere
Fixed: Mole fraction of octane = 0
Property: Activity coefficient of octane (Liquid); method: Chromatography
Temperature, K	Activity coefficient of octane	uncertainty
322.85	1.73	0.07
332.65	1.71	0.07
343.15	1.69	0.07

System: nonane + tetraoctylammonium bis(trifluoromethylsulfonyl)amide; phases: Liquid, Air at 1 atmosphere
Fixed: Mole fraction of nonane = 0
Property: Activity coefficient of nonane (Liquid); method: Chromatography
Temperature, K	Activity coefficient of nonane	uncertainty
322.85	2.19	0.1
332.65	2.14	0.1
343.15	2.09	0.09

System: decane + tetraoctylammonium bis(trifluoromethylsulfonyl)amide; phases: Liquid, Air at 1 atmosphere
Fixed: Mole fraction of decane = 0
Property: Activity coefficient of decane (Liquid); method: Chromatography
Temperature, K	Activity coefficient of decane	uncertainty
322.85	2.3	0.1
332.65	2.32	0.11
343.15	2.21	0.1

System: undecane + tetraoctylammonium bis(trifluoromethylsulfonyl)amide; phases: Liquid, Air at 1 atmosphere
Property: Activity coefficient of undecane (Liquid); method: Chromatography
Temperature, K	Mole fraction of undecane	Activity coefficient of undecane	uncertainty
343.15	0	2.54	0.12

System: dodecane + tetraoctylammonium bis(trifluoromethylsulfonyl)amide; phases: Liquid, Air at 1 atmosphere
Property: Activity coefficient of dodecane (Liquid); method: Chromatography
Temperature, K	Mole fraction of dodecane	Activity coefficient of dodecane	uncertainty
343.15	0	2.72	0.12

System: methylcyclopentane + tetraoctylammonium bis(trifluoromethylsulfonyl)amide; phases: Liquid, Air at 1 atmosphere
Fixed: Mole fraction of methylcyclopentane = 0
Property: Activity coefficient of methylcyclopentane (Liquid); method: Chromatography
Temperature, K	Activity coefficient of methylcyclopentane	uncertainty
322.85	0.98	0.03
332.65	0.97	0.03
343.15	0.97	0.03

System: cyclohexane + tetraoctylammonium bis(trifluoromethylsulfonyl)amide; phases: Liquid, Air at 1 atmosphere
Fixed: Mole fraction of cyclohexane = 0
Property: Activity coefficient of cyclohexane (Liquid); method: Chromatography
Temperature, K	Activity coefficient of cyclohexane	uncertainty
322.85	0.95	0.03
332.65	0.94	0.03
343.15	0.92	0.03

System: methylcyclohexane + tetraoctylammonium bis(trifluoromethylsulfonyl)amide; phases: Liquid, Air at 1 atmosphere
Fixed: Mole fraction of methylcyclohexane = 0
Property: Activity coefficient of methylcyclohexane (Liquid); method: Chromatography
Temperature, K	Activity coefficient of methylcyclohexane	uncertainty
322.85	1.07	0.03
332.65	1.06	0.03
343.15	1.05	0.03

System: cycloheptane + tetraoctylammonium bis(trifluoromethylsulfonyl)amide; phases: Liquid, Air at 1 atmosphere
Fixed: Mole fraction of cycloheptane = 0
Property: Activity coefficient of cycloheptane (Liquid); method: Chromatography
Temperature, K	Activity coefficient of cycloheptane	uncertainty
322.85	2.21	0.1
332.65	3.16	0.14
343.15	4.37	0.2

System: benzene + tetraoctylammonium bis(trifluoromethylsulfonyl)amide; phases: Liquid, Air at 1 atmosphere
Fixed: Mole fraction of benzene = 0
Property: Activity coefficient of benzene (Liquid); method: Chromatography
Temperature, K	Activity coefficient of benzene	uncertainty
322.85	0.4	0.03
332.65	0.41	0.03
343.15	0.41	0.03

System: toluene + tetraoctylammonium bis(trifluoromethylsulfonyl)amide; phases: Liquid, Air at 1 atmosphere
Fixed: Mole fraction of toluene = 0
Property: Activity coefficient of toluene (Liquid); method: Chromatography
Temperature, K	Activity coefficient of toluene	uncertainty
322.85	0.47	0.03
332.65	0.48	0.03
343.15	0.49	0.03

System: ethylbenzene + tetraoctylammonium bis(trifluoromethylsulfonyl)amide; phases: Liquid, Air at 1 atmosphere
Fixed: Mole fraction of ethylbenzene = 0
Property: Activity coefficient of ethylbenzene (Liquid); method: Chromatography
Temperature, K	Activity coefficient of ethylbenzene	uncertainty
322.85	0.59	0.03
332.65	0.6	0.03
343.15	0.61	0.03

System: 1,3-dimethylbenzene + tetraoctylammonium bis(trifluoromethylsulfonyl)amide; phases: Liquid, Air at 1 atmosphere
Fixed: Mole fraction of 1,3-dimethylbenzene = 0
Property: Activity coefficient of 1,3-dimethylbenzene (Liquid); method: Chromatography
Temperature, K	Activity coefficient of 1,3-dimethylbenzene	uncertainty
332.65	0.6	0.03
343.15	0.62	0.03

System: 1,4-dimethylbenzene + tetraoctylammonium bis(trifluoromethylsulfonyl)amide; phases: Liquid, Air at 1 atmosphere
Fixed: Mole fraction of 1,4-dimethylbenzene = 0
Property: Activity coefficient of 1,4-dimethylbenzene (Liquid); method: Chromatography
Temperature, K	Activity coefficient of 1,4-dimethylbenzene	uncertainty
332.65	0.6	0.03
343.15	0.62	0.03

System: 1,2-dimethylbenzene + tetraoctylammonium bis(trifluoromethylsulfonyl)amide; phases: Liquid, Air at 1 atmosphere
Fixed: Mole fraction of 1,2-dimethylbenzene = 0
Property: Activity coefficient of 1,2-dimethylbenzene (Liquid); method: Chromatography
Temperature, K	Activity coefficient of 1,2-dimethylbenzene	uncertainty
332.65	0.57	0.03
343.15	0.58	0.03

System: hex-1-ene + tetraoctylammonium bis(trifluoromethylsulfonyl)amide; phases: Liquid, Air at 1 atmosphere
Fixed: Mole fraction of hex-1-ene = 0
Property: Activity coefficient of hex-1-ene (Liquid); method: Chromatography
Temperature, K	Activity coefficient of hex-1-ene	uncertainty
322.85	1.05	0.03
332.65	1.05	0.03
343.15	1.04	0.03

System: 1-hexyne + tetraoctylammonium bis(trifluoromethylsulfonyl)amide; phases: Liquid, Air at 1 atmosphere
Fixed: Mole fraction of 1-hexyne = 0
Property: Activity coefficient of 1-hexyne (Liquid); method: Chromatography
Temperature, K	Activity coefficient of 1-hexyne	uncertainty
322.85	0.75	0.03
332.65	0.76	0.03
343.15	0.76	0.03

System: 1-heptyne + tetraoctylammonium bis(trifluoromethylsulfonyl)amide; phases: Liquid, Air at 1 atmosphere
Fixed: Mole fraction of 1-heptyne = 0
Property: Activity coefficient of 1-heptyne (Liquid); method: Chromatography
Temperature, K	Activity coefficient of 1-heptyne	uncertainty
322.85	0.84	0.03
332.65	0.86	0.03
343.15	0.87	0.03

System: butanone + tetraoctylammonium bis(trifluoromethylsulfonyl)amide; phases: Liquid, Air at 1 atmosphere
Fixed: Mole fraction of butanone = 0
Property: Activity coefficient of butanone (Liquid); method: Chromatography
Temperature, K	Activity coefficient of butanone	uncertainty
322.85	0.29	0.04
332.65	0.28	0.04
343.15	0.26	0.04

System: pentan-2-one + tetraoctylammonium bis(trifluoromethylsulfonyl)amide; phases: Liquid, Air at 1 atmosphere
Fixed: Mole fraction of pentan-2-one = 0
Property: Activity coefficient of pentan-2-one (Liquid); method: Chromatography
Temperature, K	Activity coefficient of pentan-2-one	uncertainty
322.85	0.35	0.04
332.65	0.36	0.04
343.15	0.37	0.03

System: pentan-3-one + tetraoctylammonium bis(trifluoromethylsulfonyl)amide; phases: Liquid, Air at 1 atmosphere
Fixed: Mole fraction of pentan-3-one = 0
Property: Activity coefficient of pentan-3-one (Liquid); method: Chromatography
Temperature, K	Activity coefficient of pentan-3-one	uncertainty
322.85	0.32	0.04
332.65	0.33	0.04
343.15	0.35	0.04

System: 1,4-dioxane + tetraoctylammonium bis(trifluoromethylsulfonyl)amide; phases: Liquid, Air at 1 atmosphere
Fixed: Mole fraction of 1,4-dioxane = 0
Property: Activity coefficient of 1,4-dioxane (Liquid); method: Chromatography
Temperature, K	Activity coefficient of 1,4-dioxane	uncertainty
322.85	0.47	0.03
332.65	0.47	0.03
343.15	0.47	0.03

System: methanol + tetraoctylammonium bis(trifluoromethylsulfonyl)amide; phases: Liquid, Air at 1 atmosphere
Fixed: Mole fraction of methanol = 0
Property: Activity coefficient of methanol (Liquid); method: Chromatography
Temperature, K	Activity coefficient of methanol	uncertainty
322.85	0.65	0.03
332.65	0.76	0.03
343.15	0.82	0.03

System: ethanol + tetraoctylammonium bis(trifluoromethylsulfonyl)amide; phases: Liquid, Air at 1 atmosphere
Fixed: Mole fraction of ethanol = 0
Property: Activity coefficient of ethanol (Liquid); method: Chromatography
Temperature, K	Activity coefficient of ethanol	uncertainty
322.85	1.18	0.04
332.65	1.12	0.03
343.15	1.05	0.03

System: propan-1-ol + tetraoctylammonium bis(trifluoromethylsulfonyl)amide; phases: Liquid, Air at 1 atmosphere
Fixed: Mole fraction of propan-1-ol = 0
Property: Activity coefficient of propan-1-ol (Liquid); method: Chromatography
Temperature, K	Activity coefficient of propan-1-ol	uncertainty
322.85	1.22	0.04
332.65	1.14	0.03
343.15	1.04	0.03

System: propan-2-ol + tetraoctylammonium bis(trifluoromethylsulfonyl)amide; phases: Liquid, Air at 1 atmosphere
Fixed: Mole fraction of propan-2-ol = 0
Property: Activity coefficient of propan-2-ol (Liquid); method: Chromatography
Temperature, K	Activity coefficient of propan-2-ol	uncertainty
322.85	1.21	0.04
332.65	1.13	0.03
343.15	1.05	0.03

System: 2-methyl-1-propanol + tetraoctylammonium bis(trifluoromethylsulfonyl)amide; phases: Liquid, Air at 1 atmosphere
Fixed: Mole fraction of 2-methyl-1-propanol = 0
Property: Activity coefficient of 2-methyl-1-propanol (Liquid); method: Chromatography
Temperature, K	Activity coefficient of 2-methyl-1-propanol	uncertainty
322.85	1.17	0.04
332.65	1.09	0.03
343.15	1	0.03

System: butan-1-ol + tetraoctylammonium bis(trifluoromethylsulfonyl)amide; phases: Liquid, Air at 1 atmosphere
Fixed: Mole fraction of butan-1-ol = 0
Property: Activity coefficient of butan-1-ol (Liquid); method: Chromatography
Temperature, K	Activity coefficient of butan-1-ol	uncertainty
322.85	3.08	0.14
332.65	1.12	0.03
343.15	1.04	0.03

System: 2,2,2-trifluoroethanol + tetraoctylammonium bis(trifluoromethylsulfonyl)amide; phases: Liquid, Air at 1 atmosphere
Fixed: Mole fraction of 2,2,2-trifluoroethanol = 0
Property: Activity coefficient of 2,2,2-trifluoroethanol (Liquid); method: Chromatography
Temperature, K	Activity coefficient of 2,2,2-trifluoroethanol	uncertainty
322.85	0.48	0.03
332.65	0.37	0.03
343.15	0.36	0.04

System: diethyl ether + tetraoctylammonium bis(trifluoromethylsulfonyl)amide; phases: Liquid, Air at 1 atmosphere
Fixed: Mole fraction of diethyl ether = 0
Property: Activity coefficient of diethyl ether (Liquid); method: Chromatography
Temperature, K	Activity coefficient of diethyl ether	uncertainty
322.85	0.71	0.03
332.65	0.71	0.03
343.15	0.71	0.03

System: 1-heptyne + trimethyloctylammonium bis[(trifluoromethyl)sulfonyl]imide; phases: Liquid, Air at 1 atmosphere
Fixed: Mole fraction of 1-heptyne = 0
Property: Activity coefficient of 1-heptyne (Liquid); method: Chromatography
Temperature, K	Activity coefficient of 1-heptyne	uncertainty
322.85	2.48	0.11
332.65	2.46	0.11
343.15	2.39	0.11

System: diisopropyl ether + tetraoctylammonium bis(trifluoromethylsulfonyl)amide; phases: Liquid, Air at 1 atmosphere
Fixed: Mole fraction of diisopropyl ether = 0
Property: Activity coefficient of diisopropyl ether (Liquid); method: Chromatography
Temperature, K	Activity coefficient of diisopropyl ether	uncertainty
322.85	1.08	0.03
332.65	1.08	0.03
343.15	1.08	0.03

System: trichloromethane + tetraoctylammonium bis(trifluoromethylsulfonyl)amide; phases: Liquid, Air at 1 atmosphere
Fixed: Mole fraction of trichloromethane = 0
Property: Activity coefficient of trichloromethane (Liquid); method: Chromatography
Temperature, K	Activity coefficient of trichloromethane	uncertainty
322.85	0.34	0.04
332.65	0.35	0.04
343.15	0.36	0.04

System: dichloromethane + tetraoctylammonium bis(trifluoromethylsulfonyl)amide; phases: Liquid, Air at 1 atmosphere
Fixed: Mole fraction of dichloromethane = 0
Property: Activity coefficient of dichloromethane (Liquid); method: Chromatography
Temperature, K	Activity coefficient of dichloromethane	uncertainty
322.85	0.29	0.04
332.65	0.3	0.04
343.15	0.31	0.04

System: tetrachloromethane + tetraoctylammonium bis(trifluoromethylsulfonyl)amide; phases: Liquid, Air at 1 atmosphere
Fixed: Mole fraction of tetrachloromethane = 0
Property: Activity coefficient of tetrachloromethane (Liquid); method: Chromatography
Temperature, K	Activity coefficient of tetrachloromethane	uncertainty
322.85	0.63	0.03
332.65	0.64	0.03
343.15	0.64	0.03

System: acetonitrile + tetraoctylammonium bis(trifluoromethylsulfonyl)amide; phases: Liquid, Air at 1 atmosphere
Fixed: Mole fraction of acetonitrile = 0
Property: Activity coefficient of acetonitrile (Liquid); method: Chromatography
Temperature, K	Activity coefficient of acetonitrile	uncertainty
322.85	0.5	0.03
332.65	0.49	0.03
343.15	0.49	0.03

System: nitromethane + tetraoctylammonium bis(trifluoromethylsulfonyl)amide; phases: Liquid, Air at 1 atmosphere
Fixed: Mole fraction of nitromethane = 0
Property: Activity coefficient of nitromethane (Liquid); method: Chromatography
Temperature, K	Activity coefficient of nitromethane	uncertainty
322.85	0.63	0.03
332.65	0.61	0.03
343.15	0.59	0.03

System: 1-nitropropane + tetraoctylammonium bis(trifluoromethylsulfonyl)amide; phases: Liquid, Air at 1 atmosphere
Fixed: Mole fraction of 1-nitropropane = 0
Property: Activity coefficient of 1-nitropropane (Liquid); method: Chromatography
Temperature, K	Activity coefficient of 1-nitropropane	uncertainty
322.85	0.48	0.03
332.65	0.48	0.03
343.15	0.47	0.03

System: butanone + trimethyloctylammonium bis[(trifluoromethyl)sulfonyl]imide; phases: Liquid, Air at 1 atmosphere
Fixed: Mole fraction of butanone = 0
Property: Activity coefficient of butanone (Liquid); method: Chromatography
Temperature, K	Activity coefficient of butanone	uncertainty
322.85	0.41	0.03
332.65	0.38	0.03
343.15	0.34	0.04

System: pentan-2-one + trimethyloctylammonium bis[(trifluoromethyl)sulfonyl]imide; phases: Liquid, Air at 1 atmosphere
Fixed: Mole fraction of pentan-2-one = 0
Property: Activity coefficient of pentan-2-one (Liquid); method: Chromatography
Temperature, K	Activity coefficient of pentan-2-one	uncertainty
322.85	0.57	0.03
332.65	0.57	0.03
343.15	0.57	0.03

System: pentan-3-one + trimethyloctylammonium bis[(trifluoromethyl)sulfonyl]imide; phases: Liquid, Air at 1 atmosphere
Fixed: Mole fraction of pentan-3-one = 0
Property: Activity coefficient of pentan-3-one (Liquid); method: Chromatography
Temperature, K	Activity coefficient of pentan-3-one	uncertainty
322.85	0.52	0.03
332.65	0.53	0.03
343.15	0.54	0.03

System: 1,4-dioxane + trimethyloctylammonium bis[(trifluoromethyl)sulfonyl]imide; phases: Liquid, Air at 1 atmosphere
Fixed: Mole fraction of 1,4-dioxane = 0
Property: Activity coefficient of 1,4-dioxane (Liquid); method: Chromatography
Temperature, K	Activity coefficient of 1,4-dioxane	uncertainty
322.85	0.62	0.03
332.65	0.62	0.03
343.15	0.61	0.03

System: methanol + trimethyloctylammonium bis[(trifluoromethyl)sulfonyl]imide; phases: Liquid, Air at 1 atmosphere
Fixed: Mole fraction of methanol = 0
Property: Activity coefficient of methanol (Liquid); method: Chromatography
Temperature, K	Activity coefficient of methanol	uncertainty
322.85	0.92	0.03
332.65	0.78	0.03
343.15	0.81	0.03

System: ethanol + trimethyloctylammonium bis[(trifluoromethyl)sulfonyl]imide; phases: Liquid, Air at 1 atmosphere
Fixed: Mole fraction of ethanol = 0
Property: Activity coefficient of ethanol (Liquid); method: Chromatography
Temperature, K	Activity coefficient of ethanol	uncertainty
322.85	1.47	0.06
332.65	1.32	0.05
343.15	1.19	0.04

System: propan-1-ol + trimethyloctylammonium bis[(trifluoromethyl)sulfonyl]imide; phases: Liquid, Air at 1 atmosphere
Fixed: Mole fraction of propan-1-ol = 0
Property: Activity coefficient of propan-1-ol (Liquid); method: Chromatography
Temperature, K	Activity coefficient of propan-1-ol	uncertainty
322.85	1.7	0.07
332.65	1.55	0.06
343.15	1.37	0.05

System: propan-2-ol + trimethyloctylammonium bis[(trifluoromethyl)sulfonyl]imide; phases: Liquid, Air at 1 atmosphere
Fixed: Mole fraction of propan-2-ol = 0
Property: Activity coefficient of propan-2-ol (Liquid); method: Chromatography
Temperature, K	Activity coefficient of propan-2-ol	uncertainty
322.85	1.63	0.07
332.65	1.48	0.06
343.15	1.32	0.05

System: 2-methyl-1-propanol + trimethyloctylammonium bis[(trifluoromethyl)sulfonyl]imide; phases: Liquid, Air at 1 atmosphere
Fixed: Mole fraction of 2-methyl-1-propanol = 0
Property: Activity coefficient of 2-methyl-1-propanol (Liquid); method: Chromatography
Temperature, K	Activity coefficient of 2-methyl-1-propanol	uncertainty
322.85	1.87	0.08
332.65	1.7	0.07
343.15	1.51	0.06

System: butan-1-ol + trimethyloctylammonium bis[(trifluoromethyl)sulfonyl]imide; phases: Liquid, Air at 1 atmosphere
Fixed: Mole fraction of butan-1-ol = 0
Property: Activity coefficient of butan-1-ol (Liquid); method: Chromatography
Temperature, K	Activity coefficient of butan-1-ol	uncertainty
322.85	2.01	0.09
332.65	1.8	0.08
343.15	1.59	0.06

System: 3-methylpentane + N,N,N-Trimethyl-1-decanaminium bis[(trifluoromethyl)sulfonyl]imide; phases: Liquid, Air at 1 atmosphere
Fixed: Mole fraction of 3-methylpentane = 0
Property: Activity coefficient of 3-methylpentane (Liquid); method: Chromatography
Temperature, K	Activity coefficient of 3-methylpentane	uncertainty
322.85	3.88	0.18
332.65	3.78	0.17
343.15	3.62	0.16

System: heptane + N,N,N-Trimethyl-1-decanaminium bis[(trifluoromethyl)sulfonyl]imide; phases: Liquid, Air at 1 atmosphere
Fixed: Mole fraction of heptane = 0
Property: Activity coefficient of heptane (Liquid); method: Chromatography
Temperature, K	Activity coefficient of heptane	uncertainty
322.85	5.26	0.24
332.65	5.14	0.23
343.15	4.92	0.22

System: 2,2,4-trimethylpentane + N,N,N-Trimethyl-1-decanaminium bis[(trifluoromethyl)sulfonyl]imide; phases: Liquid, Air at 1 atmosphere
Fixed: Mole fraction of 2,2,4-trimethylpentane = 0
Property: Activity coefficient of 2,2,4-trimethylpentane (Liquid); method: Chromatography
Temperature, K	Activity coefficient of 2,2,4-trimethylpentane	uncertainty
322.85	5.41	0.25
332.65	5.29	0.24
343.15	4.92	0.22

System: octane + N,N,N-Trimethyl-1-decanaminium bis[(trifluoromethyl)sulfonyl]imide; phases: Liquid, Air at 1 atmosphere
Fixed: Mole fraction of octane = 0
Property: Activity coefficient of octane (Liquid); method: Chromatography
Temperature, K	Activity coefficient of octane	uncertainty
322.85	6.53	0.3
332.65	6.41	0.29
343.15	6.1	0.28

System: nonane + N,N,N-Trimethyl-1-decanaminium bis[(trifluoromethyl)sulfonyl]imide; phases: Liquid, Air at 1 atmosphere
Fixed: Mole fraction of nonane = 0
Property: Activity coefficient of nonane (Liquid); method: Chromatography
Temperature, K	Activity coefficient of nonane	uncertainty
322.85	8.87	0.41
332.65	8.63	0.4
343.15	7.61	0.35

System: decane + N,N,N-Trimethyl-1-decanaminium bis[(trifluoromethyl)sulfonyl]imide; phases: Liquid, Air at 1 atmosphere
Fixed: Mole fraction of decane = 0
Property: Activity coefficient of decane (Liquid); method: Chromatography
Temperature, K	Activity coefficient of decane	uncertainty
322.85	10.07	0.46
332.65	9.82	0.45
343.15	9.32	0.43

System: undecane + N,N,N-Trimethyl-1-decanaminium bis[(trifluoromethyl)sulfonyl]imide; phases: Liquid, Air at 1 atmosphere
Fixed: Mole fraction of undecane = 0
Property: Activity coefficient of undecane (Liquid); method: Chromatography
Temperature, K	Activity coefficient of undecane	uncertainty
322.85	12.45	0.57
332.65	12.19	0.56
343.15	11.41	0.52

System: dodecane + N,N,N-Trimethyl-1-decanaminium bis[(trifluoromethyl)sulfonyl]imide; phases: Liquid, Air at 1 atmosphere
Fixed: Mole fraction of dodecane = 0
Property: Activity coefficient of dodecane (Liquid); method: Chromatography
Temperature, K	Activity coefficient of dodecane	uncertainty
322.85	15.13	0.7
332.65	14.77	0.68
343.15	13.77	0.63

System: methylcyclopentane + N,N,N-Trimethyl-1-decanaminium bis[(trifluoromethyl)sulfonyl]imide; phases: Liquid, Air at 1 atmosphere
Fixed: Mole fraction of methylcyclopentane = 0
Property: Activity coefficient of methylcyclopentane (Liquid); method: Chromatography
Temperature, K	Activity coefficient of methylcyclopentane	uncertainty
322.85	2.99	0.14
332.65	2.99	0.14
343.15	2.83	0.13

System: cyclohexane + N,N,N-Trimethyl-1-decanaminium bis[(trifluoromethyl)sulfonyl]imide; phases: Liquid, Air at 1 atmosphere
Fixed: Mole fraction of cyclohexane = 0
Property: Activity coefficient of cyclohexane (Liquid); method: Chromatography
Temperature, K	Activity coefficient of cyclohexane	uncertainty
322.85	2.9	0.13
332.65	2.96	0.13
343.15	2.8	0.13

System: methylcyclohexane + N,N,N-Trimethyl-1-decanaminium bis[(trifluoromethyl)sulfonyl]imide; phases: Liquid, Air at 1 atmosphere
Fixed: Mole fraction of methylcyclohexane = 0
Property: Activity coefficient of methylcyclohexane (Liquid); method: Chromatography
Temperature, K	Activity coefficient of methylcyclohexane	uncertainty
322.85	3.57	0.16
332.65	3.57	0.16
343.15	3.39	0.15

System: cycloheptane + N,N,N-Trimethyl-1-decanaminium bis[(trifluoromethyl)sulfonyl]imide; phases: Liquid, Air at 1 atmosphere
Fixed: Mole fraction of cycloheptane = 0
Property: Activity coefficient of cycloheptane (Liquid); method: Chromatography
Temperature, K	Activity coefficient of cycloheptane	uncertainty
322.85	7.7	0.35
332.65	10.76	0.49
343.15	14.62	0.67

System: benzene + N,N,N-Trimethyl-1-decanaminium bis[(trifluoromethyl)sulfonyl]imide; phases: Liquid, Air at 1 atmosphere
Fixed: Mole fraction of benzene = 0
Property: Activity coefficient of benzene (Liquid); method: Chromatography
Temperature, K	Activity coefficient of benzene	uncertainty
322.85	0.71	0.03
332.65	0.73	0.03
343.15	0.72	0.03

System: hexane + N,N,N-Trimethyl-1-decanaminium bis[(trifluoromethyl)sulfonyl]imide; phases: Liquid, Air at 1 atmosphere
Fixed: Mole fraction of hexane = 0
Property: Activity coefficient of hexane (Liquid); method: Chromatography
Temperature, K	Activity coefficient of hexane	uncertainty
322.85	4.2	0.19
332.65	4.1	0.18
343.15	3.93	0.17

System: toluene + N,N,N-Trimethyl-1-decanaminium bis[(trifluoromethyl)sulfonyl]imide; phases: Liquid, Air at 1 atmosphere
Fixed: Mole fraction of toluene = 0
Property: Activity coefficient of toluene (Liquid); method: Chromatography
Temperature, K	Activity coefficient of toluene	uncertainty
322.85	0.84	0.03
332.65	0.89	0.03
343.15	0.89	0.03

System: ethylbenzene + N,N,N-Trimethyl-1-decanaminium bis[(trifluoromethyl)sulfonyl]imide; phases: Liquid, Air at 1 atmosphere
Fixed: Mole fraction of ethylbenzene = 0
Property: Activity coefficient of ethylbenzene (Liquid); method: Chromatography
Temperature, K	Activity coefficient of ethylbenzene	uncertainty
322.85	1.16	0.04
332.65	1.2	0.04
343.15	1.19	0.04

System: 1,3-dimethylbenzene + N,N,N-Trimethyl-1-decanaminium bis[(trifluoromethyl)sulfonyl]imide; phases: Liquid, Air at 1 atmosphere
Fixed: Mole fraction of 1,3-dimethylbenzene = 0
Property: Activity coefficient of 1,3-dimethylbenzene (Liquid); method: Chromatography
Temperature, K	Activity coefficient of 1,3-dimethylbenzene	uncertainty
322.85	1.11	0.03
332.65	1.14	0.03
343.15	1.11	0.03

System: 1,4-dimethylbenzene + N,N,N-Trimethyl-1-decanaminium bis[(trifluoromethyl)sulfonyl]imide; phases: Liquid, Air at 1 atmosphere
Fixed: Mole fraction of 1,4-dimethylbenzene = 0
Property: Activity coefficient of 1,4-dimethylbenzene (Liquid); method: Chromatography
Temperature, K	Activity coefficient of 1,4-dimethylbenzene	uncertainty
322.85	1.12	0.03
332.65	1.15	0.04
343.15	1.13	0.03

System: 1,2-dimethylbenzene + N,N,N-Trimethyl-1-decanaminium bis[(trifluoromethyl)sulfonyl]imide; phases: Liquid, Air at 1 atmosphere
Fixed: Mole fraction of 1,2-dimethylbenzene = 0
Property: Activity coefficient of 1,2-dimethylbenzene (Liquid); method: Chromatography
Temperature, K	Activity coefficient of 1,2-dimethylbenzene	uncertainty
322.85	1.03	0.03
332.65	1.07	0.03
343.15	1.07	0.03

System: hex-1-ene + N,N,N-Trimethyl-1-decanaminium bis[(trifluoromethyl)sulfonyl]imide; phases: Liquid, Air at 1 atmosphere
Fixed: Mole fraction of hex-1-ene = 0
Property: Activity coefficient of hex-1-ene (Liquid); method: Chromatography
Temperature, K	Activity coefficient of hex-1-ene	uncertainty
322.85	2.7	0.12
332.65	2.86	0.13
343.15	2.76	0.13

System: 1-hexyne + N,N,N-Trimethyl-1-decanaminium bis[(trifluoromethyl)sulfonyl]imide; phases: Liquid, Air at 1 atmosphere
Fixed: Mole fraction of 1-hexyne = 0
Property: Activity coefficient of 1-hexyne (Liquid); method: Chromatography
Temperature, K	Activity coefficient of 1-hexyne	uncertainty
322.85	1.61	0.06
332.65	1.63	0.07
343.15	1.57	0.06

System: 1-heptyne + N,N,N-Trimethyl-1-decanaminium bis[(trifluoromethyl)sulfonyl]imide; phases: Liquid, Air at 1 atmosphere
Fixed: Mole fraction of 1-heptyne = 0
Property: Activity coefficient of 1-heptyne (Liquid); method: Chromatography
Temperature, K	Activity coefficient of 1-heptyne	uncertainty
322.85	1.95	0.09
332.65	2.02	0.09
343.15	1.97	0.09

System: butanone + N,N,N-Trimethyl-1-decanaminium bis[(trifluoromethyl)sulfonyl]imide; phases: Liquid, Air at 1 atmosphere
Fixed: Mole fraction of butanone = 0
Property: Activity coefficient of butanone (Liquid); method: Chromatography
Temperature, K	Activity coefficient of butanone	uncertainty
322.85	0.33	0.04
332.65	0.32	0.04
343.15	0.29	0.04

System: pentan-2-one + N,N,N-Trimethyl-1-decanaminium bis[(trifluoromethyl)sulfonyl]imide; phases: Liquid, Air at 1 atmosphere
Fixed: Mole fraction of pentan-2-one = 0
Property: Activity coefficient of pentan-2-one (Liquid); method: Chromatography
Temperature, K	Activity coefficient of pentan-2-one	uncertainty
322.85	0.44	0.03
332.65	0.47	0.03
343.15	0.47	0.03

System: pentan-3-one + N,N,N-Trimethyl-1-decanaminium bis[(trifluoromethyl)sulfonyl]imide; phases: Liquid, Air at 1 atmosphere
Fixed: Mole fraction of pentan-3-one = 0
Property: Activity coefficient of pentan-3-one (Liquid); method: Chromatography
Temperature, K	Activity coefficient of pentan-3-one	uncertainty
322.85	0.41	0.03
332.65	0.43	0.03
343.15	0.44	0.03

System: 1,4-dioxane + N,N,N-Trimethyl-1-decanaminium bis[(trifluoromethyl)sulfonyl]imide; phases: Liquid, Air at 1 atmosphere
Fixed: Mole fraction of 1,4-dioxane = 0
Property: Activity coefficient of 1,4-dioxane (Liquid); method: Chromatography
Temperature, K	Activity coefficient of 1,4-dioxane	uncertainty
322.85	0.56	0.03
332.65	0.57	0.03
343.15	0.57	0.03

System: ethanol + N,N,N-Trimethyl-1-decanaminium bis[(trifluoromethyl)sulfonyl]imide; phases: Liquid, Air at 1 atmosphere
Fixed: Mole fraction of ethanol = 0
Property: Activity coefficient of ethanol (Liquid); method: Chromatography
Temperature, K	Activity coefficient of ethanol	uncertainty
322.85	1.29	0.04
332.65	1.19	0.04
343.15	1.07	0.03

System: propan-1-ol + N,N,N-Trimethyl-1-decanaminium bis[(trifluoromethyl)sulfonyl]imide; phases: Liquid, Air at 1 atmosphere
Fixed: Mole fraction of propan-1-ol = 0
Property: Activity coefficient of propan-1-ol (Liquid); method: Chromatography
Temperature, K	Activity coefficient of propan-1-ol	uncertainty
322.85	1.48	0.06
332.65	1.37	0.05
343.15	1.21	0.04

System: propan-2-ol + N,N,N-Trimethyl-1-decanaminium bis[(trifluoromethyl)sulfonyl]imide; phases: Liquid, Air at 1 atmosphere
Fixed: Mole fraction of propan-2-ol = 0
Property: Activity coefficient of propan-2-ol (Liquid); method: Chromatography
Temperature, K	Activity coefficient of propan-2-ol	uncertainty
322.85	1.38	0.05
332.65	1.28	0.04
343.15	1.15	0.04

System: 2-methyl-1-propanol + N,N,N-Trimethyl-1-decanaminium bis[(trifluoromethyl)sulfonyl]imide; phases: Liquid, Air at 1 atmosphere
Fixed: Mole fraction of 2-methyl-1-propanol = 0
Property: Activity coefficient of 2-methyl-1-propanol (Liquid); method: Chromatography
Temperature, K	Activity coefficient of 2-methyl-1-propanol	uncertainty
322.85	1.59	0.06
332.65	1.47	0.06
343.15	1.31	0.05

System: butan-1-ol + N,N,N-Trimethyl-1-decanaminium bis[(trifluoromethyl)sulfonyl]imide; phases: Liquid, Air at 1 atmosphere
Fixed: Mole fraction of butan-1-ol = 0
Property: Activity coefficient of butan-1-ol (Liquid); method: Chromatography
Temperature, K	Activity coefficient of butan-1-ol	uncertainty
322.85	1.7	0.07
332.65	1.55	0.06
343.15	1.38	0.05

System: 2,2,2-trifluoroethanol + N,N,N-Trimethyl-1-decanaminium bis[(trifluoromethyl)sulfonyl]imide; phases: Liquid, Air at 1 atmosphere
Fixed: Mole fraction of 2,2,2-trifluoroethanol = 0
Property: Activity coefficient of 2,2,2-trifluoroethanol (Liquid); method: Chromatography
Temperature, K	Activity coefficient of 2,2,2-trifluoroethanol	uncertainty
322.85	0.46	0.03
332.65	0.44	0.03
343.15	0.41	0.03
