Measured thermophysical data. Partial Molar Volumes of Selected Aliphatic Alcohols at Infinite Dilution in Water at Temperatures T = (278 to 573) K and Pressures up to 30 MPa
Source: J. Chem. Eng. Data, 2011, 10.1021/je200527t
Compound 1: 2,2-dimethyl-1-propanol, C5H12O, InChI=1S/C5H12O/c1-5(2,3)4-6/h6H,4H2,1-3H3, purity 99%
Compound 2: 2-methyl-1,3-propanediol, C4H10O2, InChI=1S/C4H10O2/c1-4(2-5)3-6/h4-6H,2-3H2,1H3, purity 99%
Compound 3: 1,1,1-trimethylolethane, C5H12O3, InChI=1S/C5H12O3/c1-5(2-6,3-7)4-8/h6-8H,2-4H2,1H3, purity 99%
Compound 4: 2-ethyl-2-(hydroxymethyl)-1,3-propanediol, C6H14O3, InChI=1S/C6H14O3/c1-2-6(3-7,4-8)5-9/h7-9H,2-5H2,1H3, purity 98%
Compound 5: 3,3,7,7-tetrakis(hydroxymethyl)-5-oxanonane, C12H26O5, InChI=1S/C12H26O5/c1-3-11(5-13,6-14)9-17-10-12(4-2,7-15)8-16/h13-16H,3-10H2,1-2H3, purity 97%
Compound 6: water, H2O, InChI=1S/H2O/h1H2

System: 2,2-dimethyl-1-propanol + water; phases: Liquid
Property: Mass density, kg/m3 (Liquid); method: VIBTUB:UFactor:0.5
Temperature, K	Pressure, kPa	Molality, mol/kg of 2,2-dimethyl-1-propanol	Mass density, kg/m3	uncertainty
278.15	100	0.048498	-0.611	0.02
278.15	100	0.099947	-1.226	0.02
278.15	100	0.147155	-1.786	0.02
278.15	100	0.199879	-2.375	0.021
278.15	100	0.048498	-0.609	0.02
278.15	100	0.099947	-1.222	0.02
278.15	100	0.147155	-1.781	0.02
278.15	100	0.199879	-2.368	0.021
283.15	100	0.048498	-0.622	0.02
283.15	100	0.099947	-1.256	0.02
283.15	100	0.147155	-1.826	0.02
283.15	100	0.199879	-2.432	0.021
283.15	100	0.048498	-0.619	0.02
283.15	100	0.099947	-1.249	0.02
283.15	100	0.147155	-1.815	0.02
283.15	100	0.199879	-2.418	0.021
288.15	100	0.048498	-0.63	0.02
288.15	100	0.099947	-1.277	0.02
288.15	100	0.147155	-1.853	0.021
288.15	100	0.199879	-2.476	0.022
288.15	100	0.048498	-0.628	0.02
288.15	100	0.099947	-1.272	0.02
288.15	100	0.147155	-1.847	0.021
288.15	100	0.199879	-2.465	0.022
293.15	100	0.048498	-0.644	0.021
293.15	100	0.099947	-1.307	0.021
293.15	100	0.147155	-1.899	0.021
293.15	100	0.199879	-2.539	0.021
293.15	100	0.048498	-0.642	0.021
293.15	100	0.099947	-1.302	0.021
293.15	100	0.147155	-1.892	0.021
293.15	100	0.199879	-2.531	0.021
298.15	100	0.048498	-0.654	0.019
298.15	100	0.099947	-1.342	0.021
298.15	100	0.147155	-1.935	0.021
298.15	100	0.199879	-2.592	0.021
298.15	100	0.048498	-0.653	0.019
298.15	100	0.099947	-1.327	0.021
298.15	100	0.147155	-1.931	0.021
298.15	100	0.199879	-2.59	0.02
298.19	510	0.050877	-0.6829	0.0206
298.19	510	0.099023	-1.3185	0.0206
298.19	510	0.149831	-1.9759	0.0211
298.19	510	0.194319	-2.5355	0.0212
298.19	15110	0.050877	-0.7198	0.0217
298.19	15110	0.099023	-1.3872	0.0223
298.19	15110	0.149831	-2.0743	0.0232
298.19	15110	0.194319	-2.6623	0.0246
298.19	510	0.050877	-0.6838	0.0205
298.19	510	0.099023	-1.3191	0.0206
298.19	510	0.149831	-1.9764	0.0211
298.19	510	0.194319	-2.5379	0.021
298.19	15110	0.050877	-0.7205	0.0217
298.19	15110	0.099023	-1.3878	0.0223
298.19	15110	0.149831	-2.0746	0.0232
298.19	15110	0.194319	-2.6616	0.0246
298.19	510	0.050877	-0.6834	0.0205
298.19	510	0.099023	-1.3196	0.0206
298.19	510	0.149831	-1.976	0.0211
298.19	510	0.194319	-2.5368	0.0211
298.19	15110	0.050877	-0.7205	0.0217
298.19	15110	0.099023	-1.3865	0.0223
298.19	15110	0.149831	-2.0755	0.0232
298.19	15110	0.194319	-2.6614	0.0246
298.22	30450	0.050877	-0.7488	0.0228
298.22	30450	0.099023	-1.4487	0.0242
298.22	30450	0.149831	-2.1663	0.0256
298.22	30450	0.194319	-2.7791	0.0275
298.22	30450	0.050877	-0.7525	0.0227
298.22	30450	0.099023	-1.4478	0.0242
298.22	30450	0.149831	-2.1663	0.0256
298.22	30450	0.194319	-2.7788	0.0275
298.22	30450	0.050877	-0.7522	0.0227
298.22	30450	0.099023	-1.4471	0.0242
298.22	30450	0.149831	-2.1653	0.0256
298.22	30450	0.194319	-2.7796	0.0276
308.15	100	0.048498	-0.672	0.021
308.15	100	0.099947	-1.361	0.021
308.15	100	0.147155	-2.004	0.021
308.15	100	0.199879	-2.689	0.022
308.15	100	0.048498	-0.669	0.021
308.15	100	0.099947	-1.356	0.021
308.15	100	0.147155	-1.993	0.021
308.15	100	0.199879	-2.676	0.022
318.15	100	0.048498	-0.693	0.019
318.15	100	0.099947	-1.406	0.021
318.15	100	0.147155	-2.073	0.022
318.15	100	0.199879	-2.788	0.02
318.15	100	0.048498	-0.689	0.019
318.15	100	0.099947	-1.414	0.021
318.15	100	0.147155	-2.063	0.022
318.15	100	0.199879	-2.777	0.019
318.21	530	0.050877	-0.7386	0.0213
318.21	530	0.099023	-1.4234	0.0215
318.21	530	0.149831	-2.1387	0.0222
318.21	530	0.194319	-2.7555	0.0196
318.21	15070	0.050877	-0.7553	0.0221
318.21	15070	0.099023	-1.4585	0.0229
318.21	15070	0.149831	-2.1901	0.0241
318.21	15070	0.194319	-2.8222	0.0257
318.21	29890	0.050877	-0.7755	0.0231
318.21	29890	0.099023	-1.4958	0.0245
318.21	29890	0.149831	-2.2426	0.0261
318.21	29890	0.194319	-2.8883	0.0282
318.21	530	0.050877	-0.7385	0.0213
318.21	530	0.099023	-1.4249	0.0215
318.21	530	0.149831	-2.1386	0.0222
318.21	530	0.194319	-2.7551	0.0196
318.21	15070	0.050877	-0.7551	0.0221
318.21	15070	0.099023	-1.4584	0.0229
318.21	15070	0.149831	-2.1893	0.0241
318.21	15070	0.194319	-2.8228	0.0257
318.21	29890	0.050877	-0.776	0.0231
318.21	29890	0.099023	-1.494	0.0245
318.21	29890	0.149831	-2.2428	0.0261
318.21	29890	0.194319	-2.8893	0.0282
318.21	530	0.050877	-0.7388	0.0213
318.21	530	0.099023	-1.4232	0.0215
318.21	530	0.149831	-2.1393	0.0222
318.21	530	0.194319	-2.7561	0.0196
318.21	15070	0.050877	-0.7559	0.0221
318.21	15070	0.099023	-1.4582	0.0229
318.21	15070	0.149831	-2.1907	0.0241
318.21	15070	0.194319	-2.8176	0.0257
318.21	29890	0.050877	-0.7756	0.0231
318.21	29890	0.099023	-1.4951	0.0245
318.21	29890	0.149831	-2.245	0.0261
318.21	29890	0.194319	-2.888	0.0282
338.21	520	0.050877	-0.7924	0.0221
338.21	520	0.099023	-1.5337	0.0223
338.21	520	0.149831	-2.3092	0.0233
338.21	520	0.194319	-2.9861	0.0248
338.21	15240	0.050877	-0.798	0.0228
338.21	15240	0.099023	-1.5463	0.0237
338.21	15240	0.149831	-2.3289	0.0251
338.21	15240	0.194319	-3.009	0.0269
338.21	30040	0.050877	-0.8055	0.0235
338.21	30040	0.099023	-1.5591	0.0251
338.21	30040	0.149831	-2.347	0.027
338.21	30040	0.194319	-3.0365	0.0295
338.21	520	0.050877	-0.7923	0.0221
338.21	520	0.099023	-1.5344	0.0223
338.21	520	0.149831	-2.3098	0.0233
338.21	520	0.194319	-2.9871	0.0248
338.21	15240	0.050877	-0.8	0.0228
338.21	15240	0.099023	-1.5457	0.0237
338.21	15240	0.149831	-2.3271	0.0251
338.21	15240	0.194319	-3.0118	0.0269
338.21	30040	0.050877	-0.8052	0.0235
338.21	30040	0.099023	-1.559	0.0251
338.21	30040	0.149831	-2.3468	0.027
338.21	30040	0.194319	-3.0382	0.0295
338.21	520	0.050877	-0.7925	0.0221
338.21	520	0.099023	-1.5329	0.0223
338.21	520	0.149831	-2.3098	0.0233
338.21	520	0.194319	-2.9879	0.0248
338.21	15240	0.050877	-0.7976	0.0228
338.21	15240	0.099023	-1.5458	0.0237
338.21	15240	0.149831	-2.3269	0.0251
338.21	15240	0.194319	-3.0117	0.0269
338.21	30040	0.050877	-0.804	0.0235
338.21	30040	0.099023	-1.5575	0.0251
338.21	30040	0.149831	-2.3473	0.027
338.21	30040	0.194319	-3.0379	0.0295
358.16	510	0.050877	-0.8529	0.023
358.16	510	0.099023	-1.6518	0.0233
358.16	510	0.149831	-2.4935	0.0247
358.16	510	0.194319	-3.2369	0.0262
358.16	29840	0.048498	-0.809	0.0243
358.16	29840	0.095647	-1.5888	0.0259
358.16	29840	0.147155	-2.4401	0.0278
358.16	29840	0.199879	-3.2854	0.0305
358.16	510	0.050877	-0.855	0.023
358.16	510	0.099023	-1.6538	0.0233
358.16	510	0.149831	-2.496	0.0247
358.16	510	0.194319	-3.2378	0.0262
358.16	29840	0.048498	-0.8095	0.0243
358.16	29840	0.095647	-1.5892	0.0259
358.16	29840	0.147155	-2.4406	0.0278
358.16	29840	0.199879	-3.2863	0.0305
358.16	510	0.050877	-0.8554	0.023
358.16	510	0.099023	-1.6536	0.0233
358.16	510	0.149831	-2.4963	0.0247
358.16	510	0.194319	-3.2373	0.0262
358.16	29840	0.048498	-0.8082	0.0243
358.16	29840	0.095647	-1.5876	0.0259
358.16	29840	0.147155	-2.4414	0.0278
358.16	29840	0.199879	-3.2858	0.0305
358.17	15110	0.048498	-0.8084	0.0235
358.17	15110	0.095647	-1.5835	0.0245
358.17	15110	0.147155	-2.4414	0.026
358.17	15110	0.199879	-3.2857	0.0282
358.17	15110	0.048498	-0.8101	0.0235
358.17	15110	0.095647	-1.5854	0.0245
358.17	15110	0.147155	-2.4402	0.026
358.17	15110	0.199879	-3.2872	0.0282
358.17	15110	0.147155	-2.4403	0.026
358.17	15110	0.199879	-3.2843	0.0282
373.15	520	0.048498	-0.852	0.0237
373.15	520	0.095647	-1.6724	0.0241
373.15	520	0.147155	-2.5838	0.0257
373.15	520	0.199879	-3.4823	0.0274
373.15	15070	0.048498	-0.844	0.0242
373.15	15070	0.095647	-1.651	0.0253
373.15	15070	0.147155	-2.5576	0.0269
373.15	15070	0.199879	-3.4425	0.0291
373.15	30030	0.048498	-0.8362	0.0248
373.15	30030	0.095647	-1.641	0.0266
373.15	30030	0.147155	-2.5359	0.0286
373.15	30030	0.199879	-3.4141	0.0314
373.15	520	0.048498	-0.8521	0.0237
373.15	520	0.095647	-1.673	0.0241
373.15	520	0.147155	-2.5849	0.0257
373.15	520	0.199879	-3.4832	0.0274
373.15	15070	0.048498	-0.8439	0.0242
373.15	15070	0.095647	-1.6536	0.0253
373.15	15070	0.147155	-2.557	0.0269
373.15	15070	0.199879	-3.442	0.0291
373.15	30030	0.048498	-0.8382	0.0248
373.15	30030	0.095647	-1.6406	0.0266
373.15	30030	0.147155	-2.538	0.0287
373.15	30030	0.199879	-3.4122	0.0314
373.15	520	0.048498	-0.8544	0.0237
373.15	520	0.095647	-1.673	0.0241
373.15	520	0.147155	-2.5852	0.0257
373.15	520	0.199879	-3.4866	0.0275
373.15	15070	0.048498	-0.8441	0.0242
373.15	15070	0.095647	-1.6532	0.0253
373.15	15070	0.147155	-2.5577	0.0269
373.15	15070	0.199879	-3.4417	0.0291
373.15	30030	0.048498	-0.8393	0.0248
373.15	30030	0.095647	-1.6404	0.0266
373.15	30030	0.147155	-2.5384	0.0287
373.15	30030	0.199879	-3.4127	0.0314
398.14	2030	0.050375	-0.9653	0.0257
398.14	2030	0.096569	-1.8584	0.0261
398.14	2030	0.147004	-2.8238	0.0275
398.14	2030	0.194287	-3.7051	0.0292
398.14	15040	0.050375	-0.9462	0.0262
398.14	15040	0.096569	-1.8273	0.027
398.14	15040	0.147004	-2.7731	0.0287
398.14	15040	0.194287	-3.6355	0.0309
398.14	30030	0.050375	-0.93	0.0267
398.14	30030	0.096569	-1.7937	0.0283
398.14	30030	0.147004	-2.7256	0.0304
398.14	30030	0.194287	-3.5694	0.033
398.14	2030	0.050375	-0.9652	0.0257
398.14	2030	0.096569	-1.8597	0.0261
398.14	2030	0.147004	-2.825	0.0275
398.14	2030	0.194287	-3.7055	0.0292
398.14	15040	0.050375	-0.9498	0.0262
398.14	15040	0.096569	-1.8279	0.027
398.14	15040	0.147004	-2.7735	0.0287
398.14	15040	0.194287	-3.6355	0.0309
398.14	30030	0.050375	-0.9317	0.0267
398.14	30030	0.096569	-1.7954	0.0283
398.14	30030	0.147004	-2.7247	0.0304
398.14	30030	0.194287	-3.5708	0.0331
398.14	2030	0.096569	-1.8599	0.0261
398.14	2030	0.147004	-2.8249	0.0275
398.14	2030	0.194287	-3.7049	0.0292
398.14	15040	0.050375	-0.9484	0.0262
398.14	15040	0.096569	-1.8281	0.027
398.14	15040	0.147004	-2.7733	0.0287
398.14	15040	0.194287	-3.6361	0.0309
398.14	30030	0.050375	-0.9304	0.0267
398.14	30030	0.096569	-1.7955	0.0283
398.14	30030	0.147004	-2.7245	0.0304
398.14	30030	0.194287	-3.5685	0.033
423.14	15010	0.050375	-1.0124	0.0281
423.14	15010	0.096569	-1.9556	0.029
423.14	15010	0.147004	-2.9657	0.0309
423.14	15010	0.194287	-3.8913	0.0332
423.14	15010	0.050375	-1.0128	0.0281
423.14	15010	0.096569	-1.9572	0.0291
423.14	15010	0.147004	-2.9675	0.0309
423.14	15010	0.194287	-3.8916	0.0332
423.14	15010	0.050375	-1.0131	0.0281
423.14	15010	0.096569	-1.9575	0.0291
423.14	15010	0.147004	-2.9675	0.0309
423.14	15010	0.194287	-3.8912	0.0332
423.15	2050	0.050375	-1.0444	0.0279
423.15	2050	0.096569	-2.0113	0.0282
423.15	2050	0.147004	-3.0521	0.0297
423.15	2050	0.194287	-4.0024	0.0315
423.15	30030	0.050375	-0.9855	0.0286
423.15	30030	0.096569	-1.9068	0.0303
423.15	30030	0.147004	-2.8893	0.0324
423.15	30030	0.194287	-3.7845	0.0353
423.15	2050	0.050375	-1.0443	0.0279
423.15	2050	0.096569	-2.0118	0.0282
423.15	2050	0.147004	-3.0522	0.0297
423.15	2050	0.194287	-4.0027	0.0315
423.15	30030	0.050375	-0.9867	0.0286
423.15	30030	0.096569	-1.9063	0.0303
423.15	30030	0.147004	-2.8904	0.0324
423.15	30030	0.194287	-3.7893	0.0353
423.15	2050	0.050375	-1.0442	0.0279
423.15	2050	0.096569	-2.0129	0.0282
423.15	2050	0.147004	-3.0526	0.0297
423.15	2050	0.194287	-4.0031	0.0315
423.15	30030	0.050375	-0.9856	0.0286
423.15	30030	0.096569	-1.9066	0.0303
423.15	30030	0.147004	-2.8894	0.0324
423.15	30030	0.194287	-3.7879	0.0353
448.15	2040	0.050106	-1.1088	0.0307
448.15	2040	0.096569	-2.1624	0.0307
448.15	2040	0.153762	-3.3758	0.0333
448.15	2040	0.194287	-4.297	0.0352
448.15	2040	0.050106	-1.108	0.0307
448.15	2040	0.096569	-2.1633	0.0307
448.15	2040	0.153762	-3.3757	0.0333
448.15	2040	0.194287	-4.2974	0.0352
448.15	2040	0.050106	-1.1093	0.0307
448.15	2040	0.096569	-2.1636	0.0307
448.15	2040	0.153762	-3.3763	0.0333
448.15	2040	0.194287	-4.2974	0.0352
448.16	15050	0.050106	-1.0691	0.0471
448.16	15050	0.050375	-1.0776	0.0479
448.16	15050	0.05064	-1.0927	0.0472
448.16	15050	0.096569	-2.0851	0.0267
448.16	15050	0.10261	-2.1654	0.0263
448.16	15050	0.147004	-3.1586	0.0288
448.16	15050	0.153762	-3.253	0.0301
448.16	15050	0.194287	-4.141	0.0366
448.16	15050	0.206104	-4.3451	0.0354
448.16	30060	0.05064	-1.0552	0.0312
448.16	30060	0.096569	-2.0112	0.0331
448.16	30060	0.147004	-3.0477	0.0352
448.16	30060	0.194287	-3.9896	0.0383
448.16	15050	0.050106	-1.069	0.0473
448.16	15050	0.096569	-2.0838	0.0267
448.16	15050	0.153762	-3.2543	0.0302
448.16	15050	0.194287	-4.1407	0.0366
448.16	30060	0.05064	-1.055	0.0312
448.16	30060	0.096569	-2.0122	0.0331
448.16	30060	0.147004	-3.048	0.0352
448.16	30060	0.194287	-3.9895	0.0383
448.16	15050	0.050106	-1.0688	0.0476
448.16	15050	0.096569	-2.0844	0.0267
448.16	15050	0.153762	-3.2539	0.0302
448.16	15050	0.194287	-4.1406	0.0366
448.16	30060	0.05064	-1.0554	0.0312
448.16	30060	0.096569	-2.0128	0.0331
448.16	30060	0.147004	-3.0482	0.0352
448.16	30060	0.194287	-3.9901	0.0383
473.15	2040	0.05064	-1.2188	0.0339
473.15	2040	0.111835	-2.705	0.0354
473.15	2040	0.147004	-3.5177	0.0368
473.15	2040	0.20065	-4.8285	0.0398
473.15	15110	0.05064	-1.1613	0.034
473.15	15110	0.111835	-2.5687	0.0366
473.15	15110	0.152397	-3.4989	0.0383
473.15	15110	0.20065	-4.5976	0.0413
473.15	2040	0.05064	-1.2209	0.0339
473.15	2040	0.111835	-2.7054	0.0354
473.15	2040	0.147004	-3.5168	0.0368
473.15	2040	0.20065	-4.8316	0.0398
473.15	15110	0.05064	-1.1604	0.034
473.15	15110	0.111835	-2.5682	0.0366
473.15	15110	0.152397	-3.4965	0.0383
473.15	15110	0.20065	-4.5984	0.0413
473.15	2040	0.05064	-1.2218	0.0339
473.15	2040	0.111835	-2.7052	0.0354
473.15	2040	0.147004	-3.5173	0.0368
473.15	2040	0.20065	-4.8189	0.0397
473.15	15110	0.05064	-1.1609	0.034
473.15	15110	0.111835	-2.5685	0.0366
473.15	15110	0.152397	-3.4977	0.0383
473.15	15110	0.20065	-4.5975	0.0413
473.16	30030	0.05064	-1.1103	0.0345
473.16	30030	0.111835	-2.458	0.0381
473.16	30030	0.152397	-3.344	0.04
473.16	30030	0.20065	-4.3926	0.0434
473.16	30030	0.05064	-1.1093	0.0345
473.16	30030	0.111835	-2.4574	0.0381
473.16	30030	0.152397	-3.3435	0.04
473.16	30030	0.20065	-4.3932	0.0434
473.16	30030	0.05064	-1.11	0.0345
473.16	30030	0.111835	-2.4574	0.0381
473.16	30030	0.152397	-3.3449	0.04
473.16	30030	0.20065	-4.3946	0.0435
498.13	3060	0.05064	-1.3029	0.0408
498.13	3060	0.111835	-2.8809	0.0417
498.13	3060	0.152397	-3.9379	0.0429
498.13	3060	0.20065	-5.1768	0.0453
498.13	3060	0.05064	-1.3047	0.0408
498.13	3060	0.111835	-2.8821	0.0417
498.13	3060	0.152397	-3.939	0.0429
498.13	3060	0.20065	-5.1757	0.0453
498.13	3060	0.05064	-1.3038	0.0408
498.13	3060	0.111835	-2.8829	0.0417
498.13	3060	0.152397	-3.9413	0.0429
498.13	3060	0.20065	-5.1766	0.0453
498.14	15100	0.05064	-1.2267	0.0407
498.14	15100	0.111835	-2.7099	0.0427
498.14	15100	0.152397	-3.7097	0.0439
498.14	15100	0.20065	-4.8714	0.0471
498.14	15100	0.05064	-1.2269	0.0407
498.14	15100	0.111835	-2.7103	0.0427
498.14	15100	0.152397	-3.7091	0.0439
498.14	15100	0.20065	-4.8715	0.0471
498.14	15100	0.05064	-1.2272	0.0407
498.14	15100	0.111835	-2.7113	0.0427
498.14	15100	0.152397	-3.7092	0.0439
498.14	15100	0.20065	-4.8728	0.0471
498.15	30010	0.05064	-1.1553	0.0409
498.15	30010	0.111835	-2.5483	0.0442
498.15	30010	0.152397	-3.4962	0.0464
498.15	30010	0.20065	-4.5923	0.0491
498.15	30010	0.05064	-1.157	0.0409
498.15	30010	0.111835	-2.5484	0.0442
498.15	30010	0.152397	-3.4973	0.0464
498.15	30010	0.20065	-4.593	0.0491
498.15	30010	0.05064	-1.157	0.0409
498.15	30010	0.111835	-2.5476	0.0442
498.15	30010	0.152397	-3.4968	0.0464
498.15	30010	0.20065	-4.5921	0.0491
523.15	30080	0.05064	-1.1985	0.0503
523.15	30080	0.111835	-2.6364	0.053
523.15	30080	0.152397	-3.6487	0.0555
523.15	30080	0.20065	-4.7889	0.0581
523.15	30080	0.05064	-1.1995	0.0503
523.15	30080	0.111835	-2.6388	0.053
523.15	30080	0.152397	-3.6473	0.0555
523.15	30080	0.20065	-4.7914	0.0581
523.15	30080	0.05064	-1.1997	0.0503
523.15	30080	0.111835	-2.6387	0.053
523.15	30080	0.152397	-3.6489	0.0555
523.15	30080	0.20065	-4.7916	0.0581
523.16	15040	0.05064	-1.2956	0.0509
523.16	15040	0.111835	-2.8482	0.0515
523.16	15040	0.152397	-3.9458	0.0531
523.16	15040	0.20065	-5.1871	0.0557
523.16	15040	0.05064	-1.2928	0.0509
523.16	15040	0.111835	-2.8475	0.0515
523.16	15040	0.152397	-3.9494	0.0531
523.16	15040	0.20065	-5.1813	0.0556
523.16	15040	0.05064	-1.2926	0.0509
523.16	15040	0.111835	-2.8458	0.0515
523.16	15040	0.152397	-3.9492	0.0531
523.16	15040	0.20065	-5.1849	0.0557
523.18	5090	0.05064	-1.389	0.0494
523.18	5090	0.111835	-3.0597	0.0508
523.18	5090	0.152397	-4.22	0.0516
523.18	5090	0.20065	-5.5497	0.0538
523.18	5090	0.05064	-1.3927	0.0494
523.18	5090	0.111835	-3.0704	0.0508
523.18	5090	0.152397	-4.2306	0.0516
523.18	5090	0.20065	-5.5564	0.0539
523.18	5090	0.05064	-1.3968	0.0493
523.18	5090	0.111835	-3.0744	0.0508
523.18	5090	0.152397	-4.2324	0.0516
523.18	5090	0.20065	-5.5579	0.0539
548.14	30030	0.049774	-1.2574	0.0618
548.14	30030	0.098054	-2.4874	0.0647
548.14	30030	0.147833	-3.7177	0.0677
548.14	30030	0.19815	-4.9662	0.0709
548.14	30030	0.049774	-1.2598	0.0618
548.14	30030	0.098054	-2.4844	0.0647
548.14	30030	0.147833	-3.7153	0.0677
548.14	30030	0.19815	-4.9654	0.0709
548.14	30030	0.049774	-1.2584	0.0618
548.14	30030	0.098054	-2.4882	0.0647
548.14	30030	0.147833	-3.7162	0.0677
548.14	30030	0.19815	-4.9627	0.0709
548.15	7020	0.049774	-1.5243	0.0624
548.15	7020	0.098054	-3.0053	0.0635
548.15	7020	0.147833	-4.5138	0.0647
548.15	7020	0.19815	-6.0328	0.066
548.15	14990	0.049774	-1.4078	0.0618
548.15	14990	0.098054	-2.7757	0.0638
548.15	14990	0.147833	-4.167	0.0656
548.15	14990	0.19815	-5.5589	0.068
548.15	7020	0.049774	-1.5225	0.0624
548.15	7020	0.098054	-3.0048	0.0635
548.15	7020	0.147833	-4.5195	0.0647
548.15	7020	0.19815	-6.0281	0.0659
548.15	14990	0.049774	-1.4066	0.0618
548.15	14990	0.098054	-2.7738	0.0638
548.15	14990	0.147833	-4.1685	0.0656
548.15	14990	0.19815	-5.5563	0.068
548.15	7020	0.049774	-1.5259	0.0624
548.15	7020	0.098054	-3.0091	0.0635
548.15	7020	0.147833	-4.5182	0.0647
548.15	7020	0.19815	-6.0279	0.0659
548.15	14990	0.049774	-1.4134	0.0618
548.15	14990	0.098054	-2.7739	0.0638
548.15	14990	0.147833	-4.1635	0.0656
548.15	14990	0.19815	-5.5584	0.068
573.15	10220	0.049774	-1.7017	0.08
573.15	10220	0.098054	-3.3583	0.0815
573.15	10220	0.147833	-4.9954	0.0832
573.15	10220	0.19815	-6.6876	0.0851
573.15	10220	0.049774	-1.7014	0.08
573.15	10220	0.098054	-3.3561	0.0815
573.15	10220	0.147833	-4.989	0.0832
573.15	10220	0.19815	-6.6996	0.0853
573.15	10220	0.049774	-1.6968	0.0801
573.15	10220	0.098054	-3.3539	0.0815
573.15	10220	0.147833	-4.9949	0.0832
573.15	10220	0.19815	-6.6866	0.0851
573.16	15180	0.049774	-1.568	0.0792
573.16	15180	0.098054	-3.1006	0.081
573.16	15180	0.147833	-4.5425	0.0831
573.16	15180	0.19815	-6.1144	0.0867
573.16	30080	0.049774	-1.3336	0.0787
573.16	30080	0.098054	-2.6358	0.0817
573.16	30080	0.147833	-3.8916	0.0849
573.16	30080	0.19815	-5.2121	0.0885
573.16	15180	0.049774	-1.57	0.0792
573.16	15180	0.098054	-3.0961	0.081
573.16	15180	0.147833	-4.5424	0.0831
573.16	15180	0.19815	-6.1069	0.0867
573.16	30080	0.049774	-1.3306	0.0787
573.16	30080	0.098054	-2.6323	0.0817
573.16	30080	0.147833	-3.8924	0.0849
573.16	30080	0.19815	-5.2163	0.0885
573.16	15180	0.049774	-1.5691	0.0792
573.16	15180	0.098054	-3.097	0.081
573.16	15180	0.147833	-4.5424	0.0831
573.16	15180	0.19815	-6.1067	0.0867
573.16	30080	0.049774	-1.3334	0.0787
573.16	30080	0.098054	-2.6347	0.0817
573.16	30080	0.147833	-3.892	0.0849
573.16	30080	0.19815	-5.2112	0.0885

System: 2-methyl-1,3-propanediol + water; phases: Liquid
Property: Mass density, kg/m3 (Liquid); method: VIBTUB:UFactor:0.5
Temperature, K	Pressure, kPa	Molality, mol/kg of 2-methyl-1,3-propanediol	Mass density, kg/m3	uncertainty
278.15	100	0.109745	0.363	0.016
278.15	100	0.199656	0.68	0.016
278.15	100	0.309109	1.082	0.016
278.15	100	0.398301	1.422	0.017
278.15	100	0.109745	0.367	0.016
278.15	100	0.199656	0.683	0.016
278.15	100	0.309109	1.085	0.016
278.15	100	0.398301	1.426	0.017
283.15	100	0.109745	0.352	0.016
283.15	100	0.199656	0.654	0.016
283.15	100	0.309109	1.039	0.016
283.15	100	0.398301	1.363	0.016
283.15	100	0.109745	0.354	0.016
283.15	100	0.199656	0.658	0.016
283.15	100	0.309109	1.043	0.016
283.15	100	0.398301	1.367	0.016
288.15	100	0.109745	0.342	0.016
288.15	100	0.199656	0.635	0.016
288.15	100	0.309109	1.004	0.016
288.15	100	0.398301	1.314	0.016
288.15	100	0.109745	0.342	0.016
288.15	100	0.199656	0.636	0.016
288.15	100	0.309109	1.005	0.016
288.15	100	0.398301	1.316	0.016
293.15	100	0.109745	0.332	0.016
293.15	100	0.199656	0.615	0.016
293.15	100	0.309109	0.971	0.016
293.15	100	0.398301	1.266	0.016
293.15	100	0.109745	0.332	0.016
293.15	100	0.199656	0.616	0.016
293.15	100	0.309109	0.972	0.016
293.15	100	0.398301	1.267	0.016
298.15	100	0.109745	0.322	0.016
298.15	100	0.199656	0.597	0.016
298.15	100	0.309109	0.939	0.016
298.15	100	0.398301	1.224	0.016
298.15	100	0.109745	0.323	0.016
298.15	100	0.199656	0.597	0.016
298.15	100	0.309109	0.94	0.016
298.15	100	0.398301	1.224	0.016
298.19	510	0.097412	0.2871	0.0159
298.19	510	0.219302	0.6564	0.0161
298.19	510	0.31127	0.9421	0.0162
298.19	510	0.40854	1.2499	0.0163
298.19	15120	0.097412	0.2433	0.0161
298.19	15120	0.219302	0.5609	0.0166
298.19	15120	0.31127	0.8092	0.017
298.19	15120	0.40854	1.0801	0.0174
298.19	510	0.097412	0.29	0.0158
298.19	510	0.219302	0.6569	0.0161
298.19	510	0.31127	0.9409	0.0162
298.19	510	0.40854	1.2492	0.0163
298.19	15120	0.097412	0.2448	0.0161
298.19	15120	0.219302	0.5603	0.0166
298.19	15120	0.31127	0.8103	0.017
298.19	15120	0.40854	1.0799	0.0174
298.19	510	0.097412	0.2891	0.0158
298.19	510	0.219302	0.6567	0.0161
298.19	510	0.31127	0.9357	0.0162
298.19	510	0.40854	1.2478	0.0163
298.19	15120	0.097412	0.242	0.0161
298.19	15120	0.219302	0.5606	0.0166
298.19	15120	0.31127	0.809	0.017
298.19	15120	0.40854	1.0792	0.0174
298.22	30470	0.097412	0.2061	0.0162
298.22	30470	0.219302	0.4707	0.0169
298.22	30470	0.31127	0.6851	0.0175
298.22	30470	0.40854	0.9183	0.0182
298.22	30470	0.097412	0.2054	0.0162
298.22	30470	0.219302	0.4731	0.0169
298.22	30470	0.31127	0.6848	0.0175
298.22	30470	0.40854	0.9189	0.0182
298.22	30470	0.097412	0.2043	0.0162
298.22	30470	0.219302	0.4737	0.0169
298.22	30470	0.31127	0.6858	0.0175
298.22	30470	0.40854	0.92	0.0182
308.15	100	0.109745	0.304	0.016
308.15	100	0.199656	0.56	0.016
308.15	100	0.309109	0.878	0.016
308.15	100	0.398301	1.139	0.016
308.15	100	0.109745	0.305	0.016
308.15	100	0.199656	0.561	0.016
308.15	100	0.309109	0.879	0.016
308.15	100	0.398301	1.141	0.016
318.15	100	0.109745	0.286	0.016
318.15	100	0.199656	0.526	0.016
318.15	100	0.309109	0.818	0.016
318.15	100	0.398301	1.06	0.016
318.15	100	0.109745	0.288	0.016
318.15	100	0.199656	0.525	0.016
318.15	100	0.309109	0.82	0.016
318.15	100	0.398301	1.06	0.016
318.21	530	0.097412	0.249	0.0159
318.21	530	0.219302	0.5675	0.016
318.21	530	0.31127	0.8115	0.0161
318.21	530	0.40854	1.0736	0.0161
318.21	15080	0.097412	0.224	0.016
318.21	15080	0.219302	0.511	0.0165
318.21	15080	0.31127	0.7317	0.0168
318.21	15080	0.40854	0.9683	0.0172
318.21	29900	0.097412	0.1993	0.0162
318.21	29900	0.219302	0.45	0.0168
318.21	29900	0.31127	0.6478	0.0174
318.21	29900	0.40854	0.8591	0.0179
318.21	530	0.097412	0.2503	0.0159
318.21	530	0.219302	0.5661	0.016
318.21	530	0.31127	0.8124	0.0161
318.21	530	0.40854	1.0715	0.016
318.21	15080	0.097412	0.224	0.016
318.21	15080	0.219302	0.5108	0.0165
318.21	15080	0.31127	0.7323	0.0168
318.21	15080	0.40854	0.9688	0.0172
318.21	29900	0.097412	0.1956	0.0162
318.21	29900	0.219302	0.4517	0.0168
318.21	29900	0.31127	0.6491	0.0174
318.21	29900	0.40854	0.8618	0.018
318.21	530	0.097412	0.2506	0.0159
318.21	530	0.219302	0.5691	0.016
318.21	530	0.31127	0.8113	0.0161
318.21	530	0.40854	1.0723	0.0161
318.21	15080	0.097412	0.2245	0.016
318.21	15080	0.219302	0.51	0.0165
318.21	15080	0.31127	0.7318	0.0168
318.21	15080	0.40854	0.9679	0.0172
318.21	29900	0.097412	0.1961	0.0162
318.21	29900	0.219302	0.4511	0.0168
318.21	29900	0.31127	0.6506	0.0174
318.21	29900	0.40854	0.8609	0.018
338.21	520	0.097412	0.2142	0.0158
338.21	520	0.219302	0.4825	0.0159
338.21	520	0.31127	0.6852	0.016
338.21	520	0.40854	0.9003	0.0161
338.21	15240	0.097412	0.1975	0.0159
338.21	15240	0.219302	0.442	0.0163
338.21	15240	0.31127	0.6292	0.0166
338.21	15240	0.40854	0.8362	0.017
338.21	30030	0.097412	0.1834	0.0161
338.21	30030	0.219302	0.4096	0.0167
338.21	30030	0.31127	0.584	0.0172
338.21	30030	0.40854	0.7699	0.0177
338.21	520	0.097412	0.2137	0.0158
338.21	520	0.219302	0.482	0.0159
338.21	520	0.31127	0.6852	0.016
338.21	520	0.40854	0.9	0.0161
338.21	15240	0.097412	0.1987	0.0159
338.21	15240	0.219302	0.4501	0.0163
338.21	15240	0.31127	0.6364	0.0166
338.21	15240	0.40854	0.8419	0.017
338.21	30030	0.097412	0.1811	0.0161
338.21	30030	0.219302	0.4111	0.0167
338.21	30030	0.31127	0.5837	0.0172
338.21	30030	0.40854	0.7694	0.0177
338.21	520	0.097412	0.2136	0.0158
338.21	520	0.219302	0.4817	0.0159
338.21	520	0.31127	0.686	0.016
338.21	520	0.40854	0.8998	0.0161
338.21	15240	0.219302	0.445	0.0163
338.21	15240	0.31127	0.6346	0.0166
338.21	15240	0.40854	0.8349	0.017
338.21	30030	0.097412	0.1819	0.0161
338.21	30030	0.219302	0.4096	0.0167
338.21	30030	0.31127	0.5836	0.0172
338.21	30030	0.40854	0.7691	0.0177
358.16	510	0.097412	0.1721	0.0158
358.16	510	0.219302	0.385	0.0159
358.16	510	0.31127	0.5495	0.016
358.16	510	0.40854	0.7194	0.016
358.16	29850	0.109745	0.1727	0.0162
358.16	29850	0.199656	0.315	0.0165
358.16	29850	0.309109	0.4909	0.017
358.16	29850	0.398301	0.6337	0.0174
358.16	510	0.097412	0.1694	0.0158
358.16	510	0.219302	0.3868	0.0159
358.16	510	0.31127	0.5488	0.016
358.16	510	0.40854	0.7191	0.016
358.16	29850	0.109745	0.1718	0.0162
358.16	29850	0.199656	0.3156	0.0165
358.16	29850	0.309109	0.4912	0.017
358.16	29850	0.398301	0.6327	0.0174
358.16	510	0.097412	0.1703	0.0158
358.16	510	0.219302	0.386	0.0159
358.16	510	0.31127	0.5498	0.016
358.16	510	0.40854	0.7185	0.016
358.16	29850	0.109745	0.1738	0.0162
358.16	29850	0.199656	0.3168	0.0165
358.16	29850	0.309109	0.4926	0.017
358.16	29850	0.398301	0.6351	0.0174
358.17	15100	0.109745	0.1822	0.016
358.17	15100	0.199656	0.3283	0.0162
358.17	15100	0.309109	0.517	0.0165
358.17	15100	0.398301	0.67	0.0167
358.17	15100	0.109745	0.1841	0.016
358.17	15100	0.199656	0.3341	0.0162
358.17	15100	0.309109	0.5213	0.0165
358.17	15100	0.398301	0.6679	0.0167
358.17	15100	0.109745	0.1813	0.016
373.15	520	0.109745	0.1593	0.0159
373.15	520	0.199656	0.2905	0.016
373.15	520	0.309109	0.4466	0.0161
373.15	520	0.398301	0.5728	0.0161
373.15	15080	0.109745	0.1564	0.0161
373.15	15080	0.199656	0.2852	0.0163
373.15	15080	0.309109	0.439	0.0165
373.15	15080	0.398301	0.5636	0.0167
373.15	30060	0.109745	0.1523	0.0163
373.15	30060	0.199656	0.2752	0.0166
373.15	30060	0.309109	0.4254	0.017
373.15	30060	0.398301	0.5478	0.0173
373.15	520	0.109745	0.1592	0.0159
373.15	520	0.199656	0.2899	0.016
373.15	520	0.309109	0.4462	0.0161
373.15	520	0.398301	0.5729	0.0161
373.15	15080	0.109745	0.1566	0.0161
373.15	15080	0.199656	0.284	0.0163
373.15	15080	0.309109	0.4382	0.0165
373.15	15080	0.398301	0.5631	0.0167
373.15	30060	0.109745	0.1505	0.0163
373.15	30060	0.199656	0.2757	0.0166
373.15	30060	0.309109	0.4256	0.017
373.15	30060	0.398301	0.546	0.0173
373.15	520	0.109745	0.1583	0.0159
373.15	520	0.199656	0.2886	0.016
373.15	520	0.309109	0.4461	0.0161
373.15	520	0.398301	0.5731	0.0161
373.15	15080	0.109745	0.1568	0.0161
373.15	15080	0.199656	0.2852	0.0163
373.15	15080	0.309109	0.4383	0.0165
373.15	15080	0.398301	0.5626	0.0167
373.15	30060	0.109745	0.1512	0.0163
373.15	30060	0.199656	0.2747	0.0166
373.15	30060	0.398301	0.547	0.0173
398.14	2030	0.102008	0.0962	0.0165
398.14	2030	0.224345	0.21	0.0166
398.14	2030	0.315402	0.2909	0.0166
398.14	2030	0.406582	0.3731	0.0167
398.14	15040	0.102008	0.1006	0.0167
398.14	15040	0.224345	0.2192	0.0168
398.14	15040	0.315402	0.3064	0.017
398.14	15040	0.406582	0.3925	0.0171
398.14	30040	0.102008	0.1057	0.0168
398.14	30040	0.224345	0.2306	0.0171
398.14	30040	0.315402	0.3193	0.0173
398.14	30040	0.406582	0.408	0.0176
398.14	2030	0.102008	0.0967	0.0165
398.14	2030	0.224345	0.209	0.0166
398.14	2030	0.315402	0.2916	0.0166
398.14	2030	0.406582	0.3727	0.0167
398.14	15040	0.102008	0.1005	0.0167
398.14	15040	0.224345	0.2183	0.0168
398.14	15040	0.315402	0.3063	0.017
398.14	15040	0.406582	0.3923	0.0171
398.14	30040	0.102008	0.1037	0.0168
398.14	30040	0.224345	0.2282	0.0171
398.14	30040	0.315402	0.3176	0.0173
398.14	30040	0.406582	0.4104	0.0176
398.14	2030	0.224345	0.2092	0.0166
398.14	2030	0.315402	0.2913	0.0166
398.14	2030	0.406582	0.3715	0.0167
398.14	15040	0.224345	0.2211	0.0168
398.14	15040	0.315402	0.3047	0.017
398.14	15040	0.406582	0.3916	0.0171
398.14	30040	0.102008	0.1056	0.0168
398.14	30040	0.224345	0.2283	0.0171
398.14	30040	0.315402	0.3173	0.0173
398.14	30040	0.406582	0.4084	0.0176
423.15	2050	0.102008	0.0415	0.0179
423.15	2050	0.224345	0.0954	0.0179
423.15	2050	0.315402	0.1334	0.0179
423.15	2050	0.406582	0.1705	0.0179
423.15	15010	0.102008	0.0583	0.0179
423.15	15010	0.224345	0.1263	0.018
423.15	15010	0.315402	0.1757	0.0181
423.15	15010	0.406582	0.2242	0.0182
423.15	30030	0.102008	0.0701	0.018
423.15	30030	0.224345	0.1494	0.0183
423.15	30030	0.315402	0.2106	0.0184
423.15	30030	0.406582	0.2678	0.0186
423.15	2050	0.102008	0.0437	0.0179
423.15	2050	0.224345	0.0953	0.0179
423.15	2050	0.315402	0.1329	0.0179
423.15	2050	0.406582	0.1706	0.0179
423.15	15010	0.102008	0.0577	0.0179
423.15	15010	0.224345	0.126	0.018
423.15	15010	0.315402	0.1756	0.0181
423.15	15010	0.406582	0.2236	0.0182
423.15	30030	0.102008	0.0691	0.018
423.15	30030	0.224345	0.1504	0.0183
423.15	30030	0.315402	0.2101	0.0184
423.15	30030	0.406582	0.2679	0.0186
423.15	2050	0.102008	0.0426	0.0179
423.15	2050	0.224345	0.0953	0.0179
423.15	2050	0.315402	0.1333	0.0179
423.15	2050	0.406582	0.1709	0.0179
423.15	15010	0.102008	0.0583	0.0179
423.15	15010	0.224345	0.1265	0.018
423.15	15010	0.315402	0.1757	0.0181
423.15	15010	0.406582	0.2243	0.0182
423.15	30030	0.102008	0.0697	0.018
423.15	30030	0.224345	0.15	0.0183
423.15	30030	0.315402	0.2092	0.0184
423.15	30030	0.406582	0.2674	0.0186
448.15	2040	0.102008	-0.0018	0.0204
448.15	2040	0.224345	-0.006	0.0204
448.15	2040	0.315402	-0.0071	0.0204
448.15	2040	0.406582	-0.0101	0.0204
448.15	2040	0.102008	-0.0027	0.0204
448.15	2040	0.224345	-0.0048	0.0204
448.15	2040	0.315402	-0.0082	0.0204
448.15	2040	0.406582	-0.01	0.0204
448.15	2040	0.102008	-0.0034	0.0204
448.15	2040	0.224345	-0.0054	0.0204
448.15	2040	0.315402	-0.0085	0.0204
448.15	2040	0.406582	-0.0107	0.0204
448.16	15050	0.102008	0.0199	0.0204
448.16	15050	0.224345	0.0418	0.0204
448.16	15050	0.315402	0.0588	0.0204
448.16	15050	0.406582	0.0747	0.0205
448.16	30070	0.102008	0.0394	0.0205
448.16	30070	0.224345	0.0839	0.0206
448.16	30070	0.315402	0.1162	0.0207
448.16	30070	0.406582	0.1496	0.0208
448.16	15050	0.102008	0.02	0.0204
448.16	15050	0.224345	0.0415	0.0204
448.16	15050	0.315402	0.0582	0.0204
448.16	15050	0.406582	0.0738	0.0205
448.16	30070	0.102008	0.0373	0.0205
448.16	30070	0.224345	0.0825	0.0206
448.16	30070	0.315402	0.1156	0.0207
448.16	30070	0.406582	0.1484	0.0208
448.16	15050	0.102008	0.0195	0.0204
448.16	15050	0.224345	0.041	0.0204
448.16	15050	0.315402	0.0577	0.0204
448.16	15050	0.406582	0.074	0.0205
448.16	30070	0.102008	0.038	0.0205
448.16	30070	0.224345	0.0833	0.0206
448.16	30070	0.315402	0.1157	0.0207
448.16	30070	0.406582	0.1467	0.0208
473.15	2040	0.102008	-0.0492	0.0245
473.15	2040	0.224345	-0.1026	0.0246
473.15	2040	0.315402	-0.1429	0.0246
473.15	2040	0.406582	-0.1806	0.0246
473.15	15110	0.104802	-0.0172	0.0245
473.15	15110	0.203594	-0.0304	0.0245
473.15	15110	0.293742	-0.0427	0.0246
473.15	15110	0.403245	-0.0556	0.0246
473.15	2040	0.102008	-0.0488	0.0245
473.15	2040	0.224345	-0.1034	0.0246
473.15	2040	0.315402	-0.1429	0.0246
473.15	2040	0.406582	-0.1808	0.0246
473.15	15110	0.104802	-0.0176	0.0245
473.15	15110	0.203594	-0.0314	0.0245
473.15	15110	0.293742	-0.0418	0.0246
473.15	15110	0.403245	-0.0554	0.0246
473.15	2040	0.102008	-0.0488	0.0245
473.15	2040	0.224345	-0.1049	0.0246
473.15	2040	0.315402	-0.1437	0.0246
473.15	2040	0.406582	-0.1806	0.0246
473.15	15110	0.104802	-0.0182	0.0245
473.15	15110	0.203594	-0.0303	0.0245
473.15	15110	0.293742	-0.0419	0.0246
473.15	15110	0.403245	-0.0559	0.0246
473.16	30030	0.104802	0.0108	0.0245
473.16	30030	0.203594	0.0251	0.0246
473.16	30030	0.293742	0.0373	0.0246
473.16	30030	0.403245	0.0516	0.0246
473.16	30030	0.104802	0.0115	0.0245
473.16	30030	0.203594	0.0245	0.0246
473.16	30030	0.293742	0.0372	0.0246
473.16	30030	0.403245	0.0524	0.0246
473.16	30030	0.104802	0.0116	0.0245
473.16	30030	0.203594	0.025	0.0246
473.16	30030	0.293742	0.0379	0.0246
473.16	30030	0.403245	0.0521	0.0246
498.13	3060	0.104802	-0.0854	0.0309
498.13	3060	0.203594	-0.1658	0.0309
498.13	3060	0.293742	-0.2346	0.031
498.13	3060	0.403245	-0.3175	0.031
498.13	3060	0.104802	-0.0859	0.0309
498.13	3060	0.203594	-0.1676	0.0309
498.13	3060	0.293742	-0.236	0.031
498.13	3060	0.403245	-0.3191	0.031
498.13	3060	0.104802	-0.0869	0.0309
498.13	3060	0.203594	-0.166	0.0309
498.13	3060	0.293742	-0.237	0.031
498.13	3060	0.403245	-0.318	0.031
498.14	15110	0.104802	-0.0465	0.0309
498.14	15110	0.203594	-0.0779	0.031
498.14	15110	0.293742	-0.1136	0.031
498.14	15110	0.403245	-0.155	0.0311
498.14	15110	0.104802	-0.0415	0.0309
498.14	15110	0.203594	-0.081	0.031
498.14	15110	0.293742	-0.1148	0.031
498.14	15110	0.403245	-0.1538	0.0311
498.14	15110	0.104802	-0.0424	0.0309
498.14	15110	0.203594	-0.0816	0.031
498.14	15110	0.293742	-0.1191	0.031
498.14	15110	0.403245	-0.1548	0.0311
498.15	30020	0.104802	-0.0026	0.0308
498.15	30020	0.203594	-0.0078	0.0309
498.15	30020	0.293742	-0.0076	0.0309
498.15	30020	0.403245	-0.0103	0.0309
498.15	30020	0.104802	-0.005	0.0309
498.15	30020	0.203594	-0.008	0.0309
498.15	30020	0.293742	-0.0087	0.0309
498.15	30020	0.403245	-0.0081	0.0309
498.15	30020	0.104802	-0.0035	0.0308
498.15	30020	0.203594	-0.0073	0.0309
498.15	30020	0.293742	-0.0093	0.0309
498.15	30020	0.403245	-0.0091	0.0309
523.16	15040	0.104802	-0.0651	0.0402
523.16	15040	0.203594	-0.1241	0.0403
523.16	15040	0.293742	-0.1731	0.0403
523.16	15040	0.403245	-0.2328	0.0404
523.16	30080	0.104802	-0.01	0.0401
523.16	30080	0.203594	-0.0192	0.0401
523.16	30080	0.293742	-0.0227	0.0401
523.16	30080	0.403245	-0.028	0.0401
523.16	15040	0.104802	-0.0649	0.0402
523.16	15040	0.203594	-0.124	0.0403
523.16	15040	0.293742	-0.1763	0.0403
523.16	15040	0.403245	-0.2348	0.0404
523.16	30080	0.104802	-0.009	0.0401
523.16	30080	0.203594	-0.0169	0.0401
523.16	30080	0.293742	-0.0246	0.0401
523.16	30080	0.403245	-0.0301	0.0402
523.16	15040	0.104802	-0.0643	0.0402
523.16	15040	0.203594	-0.1248	0.0403
523.16	15040	0.293742	-0.1742	0.0403
523.16	15040	0.403245	-0.233	0.0404
523.16	30080	0.104802	-0.0112	0.0401
523.16	30080	0.203594	-0.0157	0.0401
523.16	30080	0.293742	-0.0229	0.0401
523.16	30080	0.403245	-0.0272	0.0401
523.18	5090	0.104802	-0.1123	0.0402
523.18	5090	0.203594	-0.2147	0.0403
523.18	5090	0.293742	-0.3122	0.0403
523.18	5090	0.403245	-0.4185	0.0404
523.18	5090	0.104802	-0.1131	0.0402
523.18	5090	0.203594	-0.2209	0.0403
523.18	5090	0.293742	-0.3156	0.0403
523.18	5090	0.403245	-0.4216	0.0404
523.18	5090	0.104802	-0.1161	0.0402
523.18	5090	0.203594	-0.2199	0.0403
523.18	5090	0.293742	-0.3141	0.0403
523.18	5090	0.403245	-0.4257	0.0404
548.14	30030	0.12338	-0.0114	0.053
548.14	30030	0.213961	-0.0143	0.053
548.14	30030	0.308207	-0.0142	0.053
548.14	30030	0.405687	-0.0133	0.053
548.14	30030	0.12338	-0.0122	0.053
548.14	30030	0.213961	-0.0158	0.053
548.14	30030	0.308207	-0.0176	0.053
548.14	30030	0.405687	-0.0151	0.053
548.14	30030	0.213961	-0.014	0.053
548.14	30030	0.308207	-0.0188	0.053
548.14	30030	0.405687	-0.011	0.053
548.15	7020	0.12338	-0.1618	0.0531
548.15	7020	0.213961	-0.2917	0.0532
548.15	7020	0.308207	-0.4062	0.0533
548.15	7020	0.405687	-0.5242	0.0534
548.15	14990	0.12338	-0.1	0.0531
548.15	14990	0.213961	-0.1645	0.0532
548.15	14990	0.308207	-0.2344	0.0533
548.15	14990	0.405687	-0.2968	0.0534
548.15	7020	0.12338	-0.1753	0.0531
548.15	7020	0.213961	-0.2908	0.0532
548.15	7020	0.308207	-0.4076	0.0533
548.15	7020	0.405687	-0.526	0.0534
548.15	14990	0.12338	-0.1034	0.0531
548.15	14990	0.213961	-0.1678	0.0532
548.15	14990	0.308207	-0.2331	0.0533
548.15	14990	0.405687	-0.297	0.0534
548.15	7020	0.12338	-0.1709	0.0531
548.15	7020	0.213961	-0.2911	0.0532
548.15	7020	0.308207	-0.4072	0.0533
548.15	7020	0.405687	-0.5212	0.0534
548.15	14990	0.12338	-0.1023	0.0531
548.15	14990	0.213961	-0.1734	0.0532
548.15	14990	0.308207	-0.2369	0.0533
548.15	14990	0.405687	-0.2959	0.0534
573.15	10220	0.12338	-0.1837	0.0705
573.15	10220	0.213961	-0.3151	0.0707
573.15	10220	0.308207	-0.4453	0.0708
573.15	10220	0.405687	-0.5625	0.071
573.15	10220	0.12338	-0.1894	0.0705
573.15	10220	0.213961	-0.3175	0.0707
573.15	10220	0.308207	-0.442	0.0708
573.15	10220	0.405687	-0.5591	0.071
573.15	10220	0.12338	-0.1882	0.0705
573.15	10220	0.213961	-0.3172	0.0707
573.15	10220	0.308207	-0.4421	0.0708
573.15	10220	0.405687	-0.5566	0.071
573.16	15190	0.12338	-0.1197	0.0705
573.16	15190	0.213961	-0.2045	0.0706
573.16	15190	0.308207	-0.281	0.0708
573.16	15190	0.405687	-0.3436	0.0709
573.16	30080	0.12338	0.0052	0.0703
573.16	30080	0.213961	0.0142	0.0704
573.16	30080	0.308207	0.0314	0.0704
573.16	30080	0.405687	0.0584	0.0705
573.16	15190	0.12338	-0.1262	0.0705
573.16	15190	0.213961	-0.2044	0.0706
573.16	15190	0.308207	-0.2811	0.0708
573.16	15190	0.405687	-0.3451	0.0709
573.16	30080	0.12338	0.0068	0.0703
573.16	30080	0.213961	0.0158	0.0704
573.16	30080	0.308207	0.0288	0.0704
573.16	30080	0.405687	0.0613	0.0705
573.16	15190	0.12338	-0.1201	0.0705
573.16	15190	0.213961	-0.2091	0.0706
573.16	15190	0.308207	-0.2818	0.0708
573.16	15190	0.405687	-0.347	0.0709
573.16	30080	0.12338	0.0063	0.0703
573.16	30080	0.213961	0.0174	0.0704
573.16	30080	0.308207	0.0329	0.0704
573.16	30080	0.405687	0.0577	0.0705

System: 1,1,1-trimethylolethane + water; phases: Liquid
Property: Mass density, kg/m3 (Liquid); method: VIBTUB:UFactor:0.5
Temperature, K	Pressure, kPa	Molality, mol/kg of 1,1,1-trimethylolethane	Mass density, kg/m3	uncertainty
278.15	100	0.099952	1.883	0.025
278.15	100	0.198504	3.722	0.028
278.15	100	0.290953	5.425	0.033
278.15	100	0.392296	7.271	0.038
278.15	100	0.496187	9.142	0.044
278.15	100	0.604245	11.042	0.051
278.15	100	0.099952	1.886	0.025
278.15	100	0.198504	3.726	0.028
278.15	100	0.290953	5.428	0.033
278.15	100	0.392296	7.277	0.038
278.15	100	0.496187	9.149	0.044
278.15	100	0.604245	11.048	0.051
283.15	100	0.099952	1.857	0.025
283.15	100	0.198504	3.667	0.028
283.15	100	0.290953	5.344	0.032
283.15	100	0.392296	7.159	0.038
283.15	100	0.496187	8.998	0.044
283.15	100	0.604245	10.862	0.05
283.15	100	0.099952	1.86	0.025
283.15	100	0.198504	3.671	0.028
283.15	100	0.290953	5.348	0.032
283.15	100	0.392296	7.165	0.038
283.15	100	0.496187	9.004	0.044
283.15	100	0.604245	10.868	0.05
288.15	100	0.099952	1.835	0.025
288.15	100	0.198504	3.623	0.028
288.15	100	0.290953	5.274	0.032
288.15	100	0.392296	7.066	0.037
288.15	100	0.496187	8.879	0.043
288.15	100	0.604245	10.714	0.05
288.15	100	0.099952	1.837	0.025
288.15	100	0.198504	3.624	0.028
288.15	100	0.290953	5.276	0.032
288.15	100	0.392296	7.068	0.037
288.15	100	0.496187	8.881	0.043
288.15	100	0.604245	10.717	0.05
293.15	100	0.099952	1.815	0.024
293.15	100	0.198504	3.581	0.028
293.15	100	0.290953	5.214	0.032
293.15	100	0.392296	6.988	0.037
293.15	100	0.496187	8.769	0.043
293.15	100	0.604245	10.579	0.049
293.15	100	0.099952	1.816	0.024
293.15	100	0.198504	3.582	0.028
293.15	100	0.290953	5.215	0.032
293.15	100	0.392296	6.99	0.037
293.15	100	0.496187	8.772	0.043
293.15	100	0.604245	10.582	0.049
298.15	100	0.099952	1.798	0.024
298.15	100	0.198504	3.546	0.027
298.15	100	0.290953	5.159	0.031
298.15	100	0.392296	6.907	0.036
298.15	100	0.496187	8.675	0.042
298.15	100	0.604245	10.46	0.048
298.15	100	0.099952	1.799	0.024
298.15	100	0.198504	3.548	0.027
298.15	100	0.290953	5.162	0.031
298.15	100	0.392296	6.91	0.036
298.15	100	0.496187	8.679	0.042
298.15	100	0.604245	10.464	0.048
298.19	510	0.099549	1.7862	0.0242
298.19	510	0.198164	3.5295	0.0274
298.19	510	0.300427	5.309	0.0318
298.19	510	0.400621	7.0259	0.0369
298.19	510	0.493004	8.583	0.0421
298.19	510	0.596095	10.2952	0.0479
298.19	15130	0.099549	1.7382	0.0251
298.19	15130	0.198164	3.4366	0.029
298.19	15130	0.300427	5.1703	0.0342
298.19	15130	0.400621	6.8391	0.0399
298.19	15130	0.493004	8.3585	0.0454
298.19	15130	0.596095	10.0269	0.0518
298.19	510	0.099549	1.7863	0.0242
298.19	510	0.198164	3.5288	0.0274
298.19	510	0.300427	5.3087	0.0318
298.19	510	0.400621	7.0243	0.0369
298.19	510	0.493004	8.5836	0.0421
298.19	510	0.596095	10.2946	0.0479
298.19	15130	0.099549	1.7386	0.0251
298.19	15130	0.198164	3.4352	0.029
298.19	15130	0.300427	5.1686	0.0342
298.19	15130	0.400621	6.8411	0.0399
298.19	15130	0.493004	8.359	0.0454
298.19	15130	0.596095	10.0285	0.0518
298.19	510	0.099549	1.7854	0.0242
298.19	510	0.198164	3.5287	0.0274
298.19	510	0.300427	5.3077	0.0318
298.19	510	0.400621	7.0239	0.0369
298.19	510	0.493004	8.5824	0.0421
298.19	510	0.596095	10.2938	0.0479
298.19	15130	0.099549	1.7387	0.0251
298.19	15130	0.198164	3.4344	0.029
298.19	15130	0.300427	5.1687	0.0342
298.19	15130	0.400621	6.8402	0.0399
298.19	15130	0.493004	8.3582	0.0454
298.19	15130	0.596095	10.0285	0.0518
298.22	30470	0.099549	1.6898	0.0262
298.22	30470	0.198164	3.3411	0.031
298.22	30470	0.300427	5.0285	0.0373
298.22	30470	0.400621	6.6568	0.0438
298.22	30470	0.493004	8.1344	0.05
298.22	30470	0.596095	9.7605	0.0571
298.22	30470	0.099549	1.6914	0.0262
298.22	30470	0.198164	3.3443	0.031
298.22	30470	0.300427	5.0275	0.0373
298.22	30470	0.400621	6.6554	0.0438
298.22	30470	0.493004	8.1344	0.05
298.22	30470	0.596095	9.7595	0.0571
298.22	30470	0.099549	1.6901	0.0262
298.22	30470	0.198164	3.3392	0.031
298.22	30470	0.300427	5.0263	0.0373
298.22	30470	0.400621	6.6544	0.0438
298.22	30470	0.493004	8.1339	0.05
298.22	30470	0.596095	9.7599	0.0571
308.15	100	0.099952	1.767	0.024
308.15	100	0.198504	3.484	0.027
308.15	100	0.290953	5.07	0.031
308.15	100	0.392296	6.781	0.036
308.15	100	0.496187	8.517	0.042
308.15	100	0.604245	10.264	0.048
308.15	100	0.099952	1.768	0.024
308.15	100	0.198504	3.486	0.027
308.15	100	0.290953	5.071	0.031
308.15	100	0.392296	6.782	0.036
308.15	100	0.496187	8.518	0.042
308.15	100	0.604245	10.266	0.048
318.15	100	0.099952	1.744	0.024
318.15	100	0.198504	3.433	0.027
318.15	100	0.290953	4.99	0.031
318.15	100	0.392296	6.676	0.035
318.15	100	0.496187	8.371	0.041
318.15	100	0.604245	10.085	0.047
318.15	100	0.099952	1.738	0.024
318.15	100	0.198504	3.435	0.027
318.15	100	0.290953	4.992	0.031
318.15	100	0.392296	6.677	0.035
318.15	100	0.496187	8.373	0.041
318.15	100	0.604245	10.087	0.047
318.21	29960	0.099549	1.6613	0.0259
318.21	29960	0.198164	3.2873	0.0306
318.21	29960	0.300427	4.9396	0.0366
318.21	29960	0.400621	6.5308	0.043
318.21	29960	0.493004	7.9763	0.049
318.21	29960	0.596095	9.5628	0.0559
318.21	29960	0.099549	1.6654	0.0259
318.21	29960	0.198164	3.285	0.0306
318.21	29960	0.300427	4.9405	0.0366
318.21	29960	0.400621	6.5318	0.043
318.21	29960	0.493004	7.977	0.049
318.21	29960	0.596095	9.5638	0.0559
318.21	29960	0.099549	1.6629	0.0259
318.21	29960	0.198164	3.2862	0.0306
318.21	29960	0.300427	4.94	0.0366
318.21	29960	0.400621	6.5321	0.043
318.21	29960	0.493004	7.9775	0.049
318.21	29960	0.596095	9.5607	0.0559
318.22	520	0.099549	1.7304	0.0236
318.22	520	0.198164	3.4145	0.0268
318.22	520	0.300427	5.1329	0.031
318.22	520	0.400621	6.7856	0.0359
318.22	520	0.493004	8.2841	0.0407
318.22	520	0.596095	9.928	0.0464
318.22	15070	0.099549	1.6988	0.0247
318.22	15070	0.198164	3.3515	0.0285
318.22	15070	0.300427	5.0391	0.0336
318.22	15070	0.400621	6.6637	0.0391
318.22	15070	0.493004	8.1357	0.0444
318.22	15070	0.596095	9.7531	0.0505
318.22	520	0.099549	1.7301	0.0236
318.22	520	0.198164	3.4147	0.0268
318.22	520	0.300427	5.1323	0.031
318.22	520	0.400621	6.7857	0.0359
318.22	520	0.493004	8.2854	0.0407
318.22	520	0.596095	9.9282	0.0464
318.22	15070	0.099549	1.698	0.0247
318.22	15070	0.198164	3.353	0.0285
318.22	15070	0.300427	5.039	0.0336
318.22	15070	0.400621	6.6642	0.0391
318.22	15070	0.493004	8.1371	0.0444
318.22	15070	0.596095	9.7521	0.0505
318.22	520	0.099549	1.7306	0.0236
318.22	520	0.198164	3.4146	0.0268
318.22	520	0.300427	5.1332	0.031
318.22	520	0.400621	6.7853	0.0359
318.22	520	0.493004	8.2843	0.0407
318.22	520	0.596095	9.9284	0.0464
318.22	15070	0.099549	1.6982	0.0247
318.22	15070	0.198164	3.3537	0.0285
318.22	15070	0.300427	5.0388	0.0336
318.22	15070	0.400621	6.6635	0.0391
318.22	15070	0.493004	8.1366	0.0444
318.22	15070	0.596095	9.7523	0.0505
338.21	520	0.099549	1.6865	0.0233
338.21	520	0.198164	3.3259	0.0262
338.21	520	0.300427	4.9952	0.0303
338.21	520	0.400621	6.6002	0.0351
338.21	520	0.493004	8.0534	0.0397
338.21	520	0.596095	9.6456	0.0454
338.21	15200	0.099549	1.661	0.0244
338.21	15200	0.198164	3.2802	0.0281
338.21	15200	0.300427	4.9257	0.033
338.21	15200	0.400621	6.5073	0.0384
338.21	15200	0.493004	7.9408	0.0435
338.21	15200	0.596095	9.5145	0.0496
338.21	30140	0.099549	1.641	0.0257
338.21	30140	0.198164	3.2332	0.0303
338.21	30140	0.300427	4.8554	0.0362
338.21	30140	0.400621	6.4209	0.0425
338.21	30140	0.493004	7.8279	0.0484
338.21	30140	0.596095	9.3801	0.0552
338.21	520	0.099549	1.6859	0.0233
338.21	520	0.198164	3.3257	0.0262
338.21	520	0.300427	4.9947	0.0303
338.21	520	0.400621	6.5996	0.0351
338.21	520	0.493004	8.0538	0.0397
338.21	520	0.596095	9.646	0.0454
338.21	15200	0.099549	1.6618	0.0244
338.21	15200	0.198164	3.2787	0.0281
338.21	15200	0.300427	4.9249	0.033
338.21	15200	0.400621	6.5057	0.0384
338.21	15200	0.493004	7.9363	0.0435
338.21	15200	0.596095	9.5105	0.0495
338.21	30140	0.099549	1.6397	0.0257
338.21	30140	0.198164	3.232	0.0303
338.21	30140	0.300427	4.8574	0.0362
338.21	30140	0.400621	6.4162	0.0425
338.21	30140	0.493004	7.8315	0.0484
338.21	30140	0.596095	9.3809	0.0552
338.21	520	0.099549	1.6847	0.0233
338.21	520	0.198164	3.326	0.0262
338.21	520	0.300427	4.9951	0.0303
338.21	520	0.400621	6.5994	0.0351
338.21	520	0.493004	8.0527	0.0397
338.21	520	0.596095	9.646	0.0454
338.21	15200	0.099549	1.6613	0.0244
338.21	15200	0.198164	3.2776	0.0281
338.21	15200	0.300427	4.9243	0.033
338.21	15200	0.400621	6.5049	0.0384
338.21	15200	0.493004	7.9406	0.0435
338.21	15200	0.596095	9.5114	0.0495
338.21	30140	0.099549	1.637	0.0257
338.21	30140	0.198164	3.2332	0.0303
338.21	30140	0.300427	4.8558	0.0362
338.21	30140	0.400621	6.4164	0.0425
338.21	30140	0.493004	7.8303	0.0484
338.21	30140	0.596095	9.3807	0.0552
358.16	15090	0.099952	1.6377	0.0243
358.16	15090	0.198504	3.2334	0.0279
358.16	15090	0.290953	4.6991	0.0322
358.16	15090	0.392296	6.2729	0.0375
358.16	15090	0.496187	7.8687	0.0432
358.16	15090	0.604245	9.4815	0.0493
358.16	30070	0.099952	1.6253	0.0257
358.16	30070	0.198504	3.2023	0.0301
358.16	30070	0.290953	4.6487	0.0354
358.16	30070	0.392296	6.2111	0.0416
358.16	30070	0.496187	7.788	0.0482
358.16	30070	0.604245	9.3824	0.0551
358.16	15090	0.099952	1.6402	0.0243
358.16	15090	0.198504	3.2335	0.0279
358.16	15090	0.290953	4.6972	0.0322
358.16	15090	0.392296	6.2725	0.0375
358.16	15090	0.496187	7.8677	0.0432
358.16	15090	0.604245	9.4795	0.0492
358.16	30070	0.099952	1.6243	0.0257
358.16	30070	0.198504	3.2021	0.0301
358.16	30070	0.290953	4.648	0.0354
358.16	30070	0.392296	6.2112	0.0416
358.16	30070	0.496187	7.7876	0.0482
358.16	30070	0.604245	9.3832	0.0551
358.16	15090	0.099952	1.6398	0.0243
358.16	15090	0.198504	3.2342	0.0279
358.16	15090	0.290953	4.6966	0.0322
358.16	15090	0.392296	6.2727	0.0375
358.16	15090	0.496187	7.8685	0.0432
358.16	15090	0.604245	9.4792	0.0492
358.16	30070	0.099952	1.6237	0.0257
358.16	30070	0.198504	3.2002	0.0301
358.16	30070	0.290953	4.6485	0.0354
358.16	30070	0.392296	6.2102	0.0416
358.16	30070	0.496187	7.7869	0.0482
358.16	30070	0.604245	9.382	0.0551
358.17	520	0.099549	1.6442	0.023
358.17	520	0.198164	3.2476	0.0259
358.17	520	0.300427	4.8773	0.0298
358.17	520	0.400621	6.4424	0.0344
358.17	520	0.493004	7.8598	0.039
358.17	520	0.604245	9.5379	0.0448
358.17	520	0.099549	1.6444	0.023
358.17	520	0.198164	3.2478	0.0259
358.17	520	0.300427	4.8764	0.0298
358.17	520	0.400621	6.4426	0.0344
358.17	520	0.493004	7.8588	0.039
358.17	520	0.604245	9.5382	0.0448
358.17	520	0.099549	1.6439	0.023
358.17	520	0.198164	3.2467	0.0259
358.17	520	0.300427	4.8759	0.0298
358.17	520	0.400621	6.4412	0.0344
358.17	520	0.493004	7.8586	0.039
358.17	520	0.604245	9.5377	0.0448
373.14	15060	0.099952	1.617	0.0242
373.14	15060	0.198504	3.1838	0.0277
373.14	15060	0.290953	4.6203	0.0319
373.14	15060	0.392296	6.1702	0.0371
373.14	15060	0.496187	7.7374	0.0427
373.14	15060	0.604245	9.3216	0.0487
373.14	30060	0.099952	1.6031	0.0256
373.14	30060	0.198504	3.1556	0.03
373.14	30060	0.290953	4.5795	0.0351
373.14	30060	0.392296	6.1158	0.0412
373.14	30060	0.496187	7.6693	0.0477
373.14	30060	0.604245	9.2423	0.0546
373.14	15060	0.099952	1.6166	0.0242
373.14	15060	0.198504	3.1833	0.0277
373.14	15060	0.290953	4.6204	0.0319
373.14	15060	0.392296	6.1701	0.0371
373.14	15060	0.496187	7.7379	0.0427
373.14	15060	0.604245	9.3211	0.0487
373.14	30060	0.099952	1.6024	0.0256
373.14	30060	0.198504	3.1553	0.03
373.14	30060	0.290953	4.5795	0.0351
373.14	30060	0.392296	6.1158	0.0412
373.14	30060	0.496187	7.6692	0.0477
373.14	30060	0.604245	9.2431	0.0546
373.14	15060	0.099952	1.6164	0.0242
373.14	15060	0.198504	3.1826	0.0277
373.14	15060	0.290953	4.6197	0.0319
373.14	15060	0.392296	6.1695	0.0371
373.14	15060	0.496187	7.7379	0.0427
373.14	15060	0.604245	9.3212	0.0487
373.14	30060	0.099952	1.6021	0.0256
373.14	30060	0.198504	3.1552	0.03
373.14	30060	0.290953	4.5794	0.0351
373.14	30060	0.392296	6.1163	0.0412
373.14	30060	0.496187	7.6687	0.0477
373.14	30060	0.604245	9.242	0.0546
373.15	520	0.099952	1.6294	0.023
373.15	520	0.198504	3.2083	0.0257
373.15	520	0.290953	4.657	0.0292
373.15	520	0.392296	6.2169	0.0337
373.15	520	0.496187	7.7973	0.0388
373.15	520	0.604245	9.3935	0.0442
373.15	520	0.099952	1.6284	0.023
373.15	520	0.198504	3.209	0.0257
373.15	520	0.290953	4.6562	0.0292
373.15	520	0.392296	6.2171	0.0337
373.15	520	0.496187	7.7979	0.0388
373.15	520	0.604245	9.3933	0.0442
373.15	520	0.099952	1.6262	0.023
373.15	520	0.198504	3.2083	0.0257
373.15	520	0.290953	4.6587	0.0292
373.15	520	0.392296	6.2166	0.0337
373.15	520	0.496187	7.7968	0.0388
373.15	520	0.604245	9.3934	0.0442
398.14	2030	0.097479	1.5571	0.0233
398.14	2030	0.200908	3.174	0.026
398.14	2030	0.295574	4.628	0.0296
398.14	2030	0.392457	6.0865	0.0338
398.14	2030	0.492849	7.5685	0.0385
398.14	2030	0.597191	9.089	0.0438
398.14	2030	0.097479	1.5558	0.0233
398.14	2030	0.200908	3.1731	0.026
398.14	2030	0.295574	4.6265	0.0296
398.14	2030	0.392457	6.0857	0.0338
398.14	2030	0.492849	7.5675	0.0385
398.14	2030	0.597191	9.0877	0.0438
398.14	2030	0.097479	1.5567	0.0233
398.14	2030	0.200908	3.1737	0.026
398.14	2030	0.295574	4.627	0.0296
398.14	2030	0.392457	6.0838	0.0338
398.14	2030	0.492849	7.5671	0.0385
398.14	2030	0.597191	9.088	0.0438
398.15	15040	0.097479	1.5497	0.0245
398.15	15040	0.200908	3.162	0.0279
398.15	15040	0.295574	4.6101	0.0322
398.15	15040	0.392457	6.0627	0.037
398.15	15040	0.492849	7.542	0.0422
398.15	15040	0.597191	9.0559	0.048
398.15	29990	0.097479	1.5396	0.0258
398.15	29990	0.200908	3.1424	0.0302
398.15	29990	0.295574	4.5816	0.0355
398.15	29990	0.392457	6.0265	0.0412
398.15	29990	0.492849	7.4952	0.0473
398.15	29990	0.597191	9.0011	0.0538
398.15	15040	0.097479	1.5489	0.0245
398.15	15040	0.200908	3.1627	0.0279
398.15	15040	0.295574	4.6104	0.0322
398.15	15040	0.392457	6.0631	0.037
398.15	15040	0.492849	7.5411	0.0422
398.15	15040	0.597191	9.055	0.048
398.15	29990	0.097479	1.5399	0.0258
398.15	29990	0.200908	3.1422	0.0302
398.15	29990	0.295574	4.5826	0.0355
398.15	29990	0.392457	6.0254	0.0412
398.15	29990	0.492849	7.4969	0.0473
398.15	29990	0.597191	9.0017	0.0539
398.15	15040	0.097479	1.55	0.0245
398.15	15040	0.200908	3.1605	0.0279
398.15	15040	0.295574	4.6095	0.0322
398.15	15040	0.392457	6.0612	0.037
398.15	15040	0.492849	7.5407	0.0422
398.15	15040	0.597191	9.0552	0.048
398.15	29990	0.097479	1.5405	0.0258
398.15	29990	0.200908	3.1421	0.0302
398.15	29990	0.295574	4.5823	0.0355
398.15	29990	0.392457	6.0254	0.0412
398.15	29990	0.492849	7.4957	0.0473
398.15	29990	0.597191	9.0015	0.0539
423.15	2050	0.097479	1.5295	0.0242
423.15	2050	0.200908	3.1242	0.0266
423.15	2050	0.295574	4.5558	0.03
423.15	2050	0.392457	5.9902	0.0341
423.15	2050	0.492849	7.4515	0.0387
423.15	2050	0.597191	8.9489	0.0439
423.15	15000	0.097479	1.5292	0.0254
423.15	15000	0.200908	3.1208	0.0286
423.15	15000	0.295574	4.5499	0.0327
423.15	15000	0.392457	5.9838	0.0374
423.15	15000	0.492849	7.4419	0.0426
423.15	15000	0.597191	8.9378	0.0482
423.15	30060	0.097479	1.5237	0.0268
423.15	30060	0.200908	3.1086	0.031
423.15	30060	0.295574	4.5366	0.0362
423.15	30060	0.392457	5.963	0.0418
423.15	30060	0.492849	7.4174	0.0478
423.15	30060	0.597191	8.9087	0.0543
423.15	2050	0.097479	1.5314	0.0242
423.15	2050	0.200908	3.1235	0.0266
423.15	2050	0.295574	4.5557	0.03
423.15	2050	0.392457	5.9908	0.0341
423.15	2050	0.492849	7.4519	0.0387
423.15	2050	0.597191	8.949	0.0439
423.15	15000	0.097479	1.5302	0.0254
423.15	15000	0.200908	3.1196	0.0286
423.15	15000	0.295574	4.5504	0.0327
423.15	15000	0.392457	5.9824	0.0374
423.15	15000	0.492849	7.4406	0.0426
423.15	15000	0.597191	8.9368	0.0482
423.15	30060	0.097479	1.5241	0.0268
423.15	30060	0.200908	3.1094	0.031
423.15	30060	0.295574	4.5369	0.0362
423.15	30060	0.392457	5.9644	0.0418
423.15	30060	0.492849	7.4183	0.0479
423.15	30060	0.597191	8.9106	0.0543
423.15	2050	0.097479	1.5305	0.0242
423.15	2050	0.200908	3.123	0.0266
423.15	2050	0.295574	4.5562	0.03
423.15	2050	0.392457	5.991	0.0341
423.15	2050	0.492849	7.4511	0.0387
423.15	2050	0.597191	8.9487	0.0439
423.15	15000	0.097479	1.529	0.0254
423.15	15000	0.200908	3.1194	0.0286
423.15	15000	0.295574	4.5506	0.0327
423.15	15000	0.392457	5.9826	0.0374
423.15	15000	0.492849	7.4406	0.0426
423.15	15000	0.597191	8.9366	0.0482
423.15	30060	0.097479	1.5246	0.0268
423.15	30060	0.200908	3.1108	0.031
423.15	30060	0.295574	4.5362	0.0362
423.15	30060	0.392457	5.9648	0.0418
423.15	30060	0.492849	7.4187	0.0479
423.15	30060	0.597191	8.9088	0.0543
448.15	2040	0.097479	1.5181	0.0261
448.15	2040	0.200908	3.0986	0.0281
448.15	2040	0.295574	4.5208	0.0313
448.15	2040	0.392457	5.9435	0.0352
448.15	2040	0.492849	7.3944	0.0397
448.15	2040	0.597191	8.8825	0.0447
448.15	15060	0.097479	1.5193	0.0274
448.15	15060	0.200908	3.0993	0.0302
448.15	15060	0.295574	4.5232	0.0342
448.15	15060	0.392457	5.9461	0.0388
448.15	15060	0.492849	7.3972	0.0439
448.15	15060	0.597191	8.8863	0.0494
448.15	2040	0.097479	1.5175	0.0261
448.15	2040	0.200908	3.0972	0.0281
448.15	2040	0.295574	4.521	0.0313
448.15	2040	0.392457	5.9427	0.0352
448.15	2040	0.492849	7.395	0.0397
448.15	2040	0.597191	8.8819	0.0447
448.15	15060	0.097479	1.5181	0.0274
448.15	15060	0.200908	3.0996	0.0302
448.15	15060	0.295574	4.523	0.0342
448.15	15060	0.392457	5.946	0.0388
448.15	15060	0.492849	7.3984	0.0439
448.15	15060	0.597191	8.8871	0.0494
448.15	2040	0.097479	1.5177	0.0261
448.15	2040	0.200908	3.0966	0.0281
448.15	2040	0.295574	4.5205	0.0313
448.15	2040	0.392457	5.9432	0.0352
448.15	2040	0.492849	7.3942	0.0397
448.15	2040	0.597191	8.8814	0.0447
448.15	15060	0.097479	1.5185	0.0274
448.15	15060	0.200908	3.0991	0.0302
448.15	15060	0.295574	4.5281	0.0343
448.15	15060	0.392457	5.946	0.0388
448.15	15060	0.492849	7.3971	0.0439
448.15	15060	0.597191	8.8872	0.0494
448.16	30040	0.097479	1.5192	0.0288
448.16	30040	0.200908	3.0992	0.0328
448.16	30040	0.295574	4.5226	0.0379
448.16	30040	0.392457	5.9444	0.0434
448.16	30040	0.492849	7.3954	0.0494
448.16	30040	0.597191	8.8827	0.0558
448.16	30040	0.097479	1.5193	0.0288
448.16	30040	0.200908	3.0988	0.0328
448.16	30040	0.295574	4.5218	0.0379
448.16	30040	0.392457	5.9431	0.0434
448.16	30040	0.492849	7.3952	0.0494
448.16	30040	0.597191	8.8829	0.0558
448.16	30040	0.097479	1.5187	0.0288
448.16	30040	0.200908	3.0983	0.0328
448.16	30040	0.295574	4.5218	0.0379
448.16	30040	0.392457	5.9437	0.0434
448.16	30040	0.492849	7.3949	0.0494
448.16	30040	0.597191	8.8827	0.0558
473.15	2050	0.096773	1.5069	0.0296
473.15	2050	0.203084	3.1297	0.031
473.15	2050	0.289934	4.4348	0.0337
473.15	2050	0.403292	6.1039	0.0381
473.15	2050	0.497975	7.4725	0.0422
473.15	2050	0.599726	8.9167	0.0468
473.15	15100	0.096773	1.5104	0.0309
473.15	15100	0.203084	3.1384	0.0333
473.15	15100	0.289934	4.4449	0.0369
473.15	15100	0.403292	6.1194	0.0422
473.15	15100	0.497975	7.4886	0.0468
473.15	15100	0.599726	8.9383	0.0521
473.15	29950	0.096773	1.5109	0.0324
473.15	29950	0.203084	3.1365	0.0363
473.15	29950	0.289934	4.4454	0.0406
473.15	29950	0.403292	6.1193	0.0471
473.15	29950	0.497975	7.493	0.0527
473.15	29950	0.599726	8.9391	0.0589
473.15	2050	0.096773	1.5068	0.0296
473.15	2050	0.203084	3.1308	0.031
473.15	2050	0.289934	4.4343	0.0337
473.15	2050	0.403292	6.1051	0.0381
473.15	2050	0.497975	7.4731	0.0422
473.15	2050	0.599726	8.916	0.0468
473.15	15100	0.096773	1.5102	0.0309
473.15	15100	0.203084	3.1378	0.0333
473.15	15100	0.289934	4.445	0.0369
473.15	15100	0.403292	6.1199	0.0422
473.15	15100	0.497975	7.491	0.0468
473.15	15100	0.599726	8.9389	0.0521
473.15	29950	0.096773	1.5104	0.0324
473.15	29950	0.203084	3.1387	0.0363
473.15	29950	0.289934	4.4456	0.0406
473.15	29950	0.403292	6.1209	0.0471
473.15	29950	0.497975	7.4927	0.0527
473.15	29950	0.599726	8.9389	0.0589
473.15	2050	0.096773	1.5061	0.0296
473.15	2050	0.203084	3.1318	0.031
473.15	2050	0.289934	4.4342	0.0337
473.15	2050	0.403292	6.1038	0.0381
473.15	2050	0.497975	7.4718	0.0422
473.15	2050	0.599726	8.9163	0.0468
473.15	15100	0.096773	1.5104	0.0309
473.15	15100	0.203084	3.138	0.0333
473.15	15100	0.289934	4.4448	0.0369
473.15	15100	0.403292	6.1196	0.0422
473.15	15100	0.497975	7.4906	0.0468
473.15	15100	0.599726	8.9377	0.0521
473.15	29950	0.096773	1.5103	0.0324
473.15	29950	0.203084	3.1377	0.0363
473.15	29950	0.289934	4.4453	0.0406
473.15	29950	0.403292	6.1215	0.0471
473.15	29950	0.497975	7.4917	0.0527
473.15	29950	0.599726	8.9414	0.0589
498.14	3050	0.096773	1.518	0.0353
498.14	3050	0.203084	3.1613	0.0362
498.14	3050	0.289934	4.4818	0.0386
498.14	3050	0.403292	6.1743	0.0428
498.14	3050	0.497975	7.558	0.0467
498.14	3050	0.599726	9.0263	0.0512
498.14	15150	0.096773	1.5242	0.0366
498.14	15150	0.203084	3.1709	0.039
498.14	15150	0.289934	4.4923	0.0417
498.14	15150	0.403292	6.1882	0.0469
498.14	15150	0.497975	7.5763	0.0514
498.14	15150	0.599726	9.0459	0.0566
498.14	3050	0.096773	1.5207	0.0353
498.14	3050	0.203084	3.1606	0.0362
498.14	3050	0.289934	4.48	0.0386
498.14	3050	0.403292	6.172	0.0428
498.14	3050	0.497975	7.5576	0.0467
498.14	3050	0.599726	9.0241	0.0512
498.14	15150	0.096773	1.5257	0.0366
498.14	15150	0.203084	3.1698	0.0389
498.14	15150	0.289934	4.4919	0.0417
498.14	15150	0.403292	6.1883	0.0469
498.14	15150	0.497975	7.5775	0.0514
498.14	15150	0.599726	9.0475	0.0567
498.14	3050	0.096773	1.5201	0.0353
498.14	3050	0.203084	3.1636	0.0362
498.14	3050	0.289934	4.4815	0.0386
498.14	3050	0.403292	6.172	0.0428
498.14	3050	0.497975	7.5585	0.0467
498.14	3050	0.599726	9.0256	0.0512
498.14	15150	0.096773	1.5273	0.0366
498.14	15150	0.203084	3.1693	0.0389
498.14	15150	0.289934	4.4923	0.0417
498.14	15150	0.403292	6.19	0.0469
498.14	15150	0.497975	7.5777	0.0514
498.14	15150	0.599726	9.0468	0.0566
498.16	30030	0.096773	1.5263	0.0382
498.16	30030	0.203084	3.1741	0.0424
498.16	30030	0.289934	4.498	0.0458
498.16	30030	0.403292	6.1981	0.0522
498.16	30030	0.497975	7.5837	0.0577
498.16	30030	0.599726	9.0557	0.064
498.16	30030	0.096773	1.5265	0.0382
498.16	30030	0.203084	3.1743	0.0424
498.16	30030	0.289934	4.4993	0.0458
498.16	30030	0.403292	6.197	0.0522
498.16	30030	0.497975	7.5865	0.0578
498.16	30030	0.599726	9.0559	0.064
498.16	30030	0.096773	1.5287	0.0382
498.16	30030	0.203084	3.173	0.0424
498.16	30030	0.289934	4.4993	0.0458
498.16	30030	0.403292	6.1966	0.0522
498.16	30030	0.497975	7.5858	0.0578
498.16	30030	0.599726	9.0551	0.064
523.16	15030	0.096773	1.5588	0.0453
523.16	15030	0.203084	3.247	0.0478
523.16	15030	0.289934	4.6037	0.0497
523.16	15030	0.403292	6.3425	0.0543
523.16	15030	0.497975	7.7649	0.0588
523.16	15030	0.599726	9.2806	0.064
523.16	30020	0.096773	1.5618	0.047
523.16	30020	0.203084	3.2472	0.0514
523.16	30020	0.289934	4.6046	0.0548
523.16	30020	0.403292	6.3466	0.0601
523.16	30020	0.497975	7.7684	0.0656
523.16	30020	0.599726	9.2798	0.0719
523.16	15030	0.096773	1.5627	0.0453
523.16	15030	0.203084	3.2477	0.0478
523.16	15030	0.289934	4.6027	0.0497
523.16	15030	0.403292	6.3474	0.0543
523.16	15030	0.497975	7.7664	0.0588
523.16	15030	0.599726	9.2791	0.064
523.16	30020	0.096773	1.5626	0.047
523.16	30020	0.203084	3.2499	0.0514
523.16	30020	0.289934	4.6042	0.0548
523.16	30020	0.403292	6.3453	0.0601
523.16	30020	0.497975	7.7653	0.0656
523.16	30020	0.599726	9.279	0.0719
523.16	15030	0.096773	1.5589	0.0453
523.16	15030	0.203084	3.2483	0.0478
523.16	15030	0.289934	4.6023	0.0497
523.16	15030	0.403292	6.3501	0.0543
523.16	15030	0.497975	7.7664	0.0588
523.16	15030	0.599726	9.2805	0.064
523.16	30020	0.203084	3.2461	0.0514
523.16	30020	0.289934	4.6013	0.0548
523.16	30020	0.403292	6.3428	0.0601
523.18	5100	0.096773	1.5587	0.0442
523.18	5100	0.203084	3.2426	0.0454
523.18	5100	0.289934	4.5993	0.0466
523.18	5100	0.403292	6.3401	0.0506
523.18	5100	0.497975	7.7585	0.0544
523.18	5100	0.599726	9.2767	0.0589
523.18	5100	0.096773	1.5563	0.0442
523.18	5100	0.203084	3.245	0.0454
523.18	5100	0.289934	4.5999	0.0466
523.18	5100	0.403292	6.3408	0.0506
523.18	5100	0.497975	7.7626	0.0544
523.18	5100	0.599726	9.276	0.0589
523.18	5100	0.096773	1.5608	0.0442
523.18	5100	0.203084	3.2422	0.0454
523.18	5100	0.289934	4.5996	0.0466
523.18	5100	0.403292	6.3385	0.0506
523.18	5100	0.497975	7.7595	0.0544
523.18	5100	0.599726	9.2737	0.0589
548.14	15000	0.097121	1.6294	0.0578
548.14	15000	0.194655	3.2405	0.0602
548.14	15000	0.298875	4.9446	0.0627
548.14	15000	0.400416	6.5753	0.0653
548.14	15000	0.500117	8.1456	0.0699
548.14	15000	0.591585	9.5788	0.0745
548.14	30020	0.097121	1.6219	0.0596
548.14	30020	0.194655	3.227	0.0638
548.14	30020	0.298875	4.9208	0.0682
548.14	30020	0.400416	6.538	0.0724
548.14	30020	0.500117	8.1008	0.0773
548.14	30020	0.591585	9.5165	0.0828
548.14	15000	0.097121	1.6261	0.0578
548.14	15000	0.194655	3.245	0.0602
548.14	15000	0.298875	4.9464	0.0627
548.14	15000	0.400416	6.5709	0.0653
548.14	15000	0.500117	8.1523	0.07
548.14	15000	0.591585	9.5821	0.0745
548.14	30020	0.097121	1.6235	0.0596
548.14	30020	0.194655	3.232	0.0638
548.14	30020	0.298875	4.9211	0.0682
548.14	30020	0.400416	6.541	0.0724
548.14	30020	0.500117	8.1038	0.0773
548.14	30020	0.591585	9.5163	0.0828
548.14	15000	0.097121	1.6302	0.0578
548.14	15000	0.194655	3.248	0.0602
548.14	15000	0.298875	4.949	0.0627
548.14	15000	0.400416	6.5763	0.0653
548.14	15000	0.500117	8.1542	0.07
548.14	15000	0.591585	9.5787	0.0745
548.14	30020	0.097121	1.6255	0.0596
548.14	30020	0.194655	3.2314	0.0638
548.14	30020	0.298875	4.9229	0.0682
548.14	30020	0.400416	6.5388	0.0724
548.14	30020	0.500117	8.1044	0.0773
548.14	30020	0.591585	9.5179	0.0828
548.16	7000	0.097121	1.6304	0.057
548.16	7000	0.194655	3.2593	0.0584
548.16	7000	0.289934	4.8221	0.0597
548.16	7000	0.403292	6.6603	0.0623
548.16	7000	0.497975	8.1559	0.0661
548.16	7000	0.591585	9.6249	0.0701
548.16	7000	0.097121	1.6355	0.057
548.16	7000	0.194655	3.2614	0.0584
548.16	7000	0.289934	4.826	0.0597
548.16	7000	0.403292	6.6553	0.0623
548.16	7000	0.497975	8.1559	0.0661
548.16	7000	0.591585	9.6242	0.0701
548.16	7000	0.194655	3.2616	0.0584
548.16	7000	0.289934	4.8293	0.0597
548.16	7000	0.403292	6.6656	0.0623
548.16	7000	0.497975	8.1565	0.0661
548.16	7000	0.591585	9.6349	0.0702
548.16	7000	0.194655	3.255	0.0584
548.16	7000	0.194655	3.2615	0.0584
573.15	10260	0.096271	1.7488	0.0746
573.15	10260	0.194655	3.5155	0.0766
573.15	10260	0.298875	5.3761	0.0787
573.15	10260	0.400416	7.1513	0.0807
573.15	10260	0.500117	8.8714	0.0836
573.15	10260	0.591585	10.4358	0.0879
573.15	15210	0.097121	1.7402	0.0751
573.15	15210	0.194655	3.4621	0.0778
573.15	15210	0.298875	5.2994	0.0805
573.15	15210	0.400416	7.0476	0.0831
573.15	15210	0.500117	8.7567	0.086
573.15	15210	0.591585	10.2946	0.0906
573.15	30000	0.194655	3.4022	0.0814
573.15	30000	0.298875	5.192	0.0861
573.15	30000	0.400416	6.905	0.0906
573.15	30000	0.500117	8.5648	0.095
573.15	30000	0.591585	10.0696	0.0992
573.15	10260	0.096271	1.7539	0.0746
573.15	10260	0.194655	3.5173	0.0766
573.15	10260	0.298875	5.3769	0.0787
573.15	10260	0.400416	7.1573	0.0807
573.15	10260	0.500117	8.8756	0.0836
573.15	10260	0.591585	10.4428	0.0879
573.15	15210	0.194655	3.4706	0.0778
573.15	15210	0.298875	5.308	0.0805
573.15	15210	0.400416	7.0615	0.0832
573.15	15210	0.500117	8.7638	0.086
573.15	15210	0.591585	10.2989	0.0907
573.15	30000	0.194655	3.4055	0.0814
573.15	30000	0.298875	5.197	0.0861
573.15	30000	0.400416	6.9132	0.0906
573.15	30000	0.500117	8.5723	0.095
573.15	30000	0.591585	10.0751	0.0992
573.15	10260	0.096271	1.7523	0.0746
573.15	10260	0.194655	3.5221	0.0766
573.15	10260	0.298875	5.3781	0.0787
573.15	10260	0.400416	7.16	0.0807
573.15	10260	0.500117	8.8791	0.0837
573.15	10260	0.591585	10.4461	0.088
573.15	15210	0.194655	3.4728	0.0778
573.15	15210	0.298875	5.31	0.0805
573.15	15210	0.400416	7.0634	0.0832
573.15	15210	0.500117	8.766	0.086
573.15	15210	0.591585	10.3056	0.0907
573.15	30000	0.194655	3.4088	0.0814
573.15	30000	0.298875	5.197	0.0861
573.15	30000	0.400416	6.9156	0.0906
573.15	30000	0.500117	8.574	0.095
573.15	30000	0.591585	10.0642	0.0991

System: 2-ethyl-2-(hydroxymethyl)-1,3-propanediol + water; phases: Liquid
Property: Mass density, kg/m3 (Liquid); method: VIBTUB:UFactor:0.5
Temperature, K	Pressure, kPa	Molality, mol/kg of 2-ethyl-2-(hydroxymethyl)-1,3-propanediol	Mass density, kg/m3	uncertainty
278.15	100	0.099736	1.981	0.026
278.15	100	0.19981	3.928	0.029
278.15	100	0.299981	5.863	0.034
278.15	100	0.396143	7.696	0.04
278.15	100	0.504794	9.739	0.047
278.15	100	0.099736	1.984	0.026
278.15	100	0.19981	3.931	0.029
278.15	100	0.299981	5.866	0.034
278.15	100	0.396143	7.699	0.04
278.15	100	0.504794	9.745	0.047
283.15	100	0.099736	1.942	0.025
283.15	100	0.19981	3.849	0.029
283.15	100	0.299981	5.741	0.034
283.15	100	0.396143	7.534	0.039
283.15	100	0.504794	9.53	0.046
283.15	100	0.099736	1.946	0.025
283.15	100	0.19981	3.853	0.029
283.15	100	0.299981	5.747	0.034
283.15	100	0.396143	7.54	0.039
283.15	100	0.504794	9.536	0.046
288.15	100	0.099736	1.91	0.025
288.15	100	0.19981	3.781	0.029
288.15	100	0.299981	5.638	0.033
288.15	100	0.396143	7.394	0.039
288.15	100	0.504794	9.35	0.045
288.15	100	0.099736	1.911	0.025
288.15	100	0.19981	3.783	0.029
288.15	100	0.299981	5.64	0.033
288.15	100	0.396143	7.397	0.039
288.15	100	0.504794	9.354	0.045
293.15	100	0.099736	1.88	0.025
293.15	100	0.19981	3.72	0.028
293.15	100	0.299981	5.545	0.033
293.15	100	0.396143	7.268	0.038
293.15	100	0.504794	9.185	0.045
293.15	100	0.099736	1.881	0.025
293.15	100	0.19981	3.721	0.028
293.15	100	0.299981	5.545	0.033
293.15	100	0.396143	7.27	0.038
293.15	100	0.504794	9.187	0.045
298.15	100	0.099736	1.851	0.025
298.15	100	0.19981	3.665	0.028
298.15	100	0.299981	5.46	0.032
298.15	100	0.396143	7.153	0.038
298.15	100	0.504794	9.038	0.044
298.15	100	0.099736	1.853	0.025
298.15	100	0.19981	3.667	0.028
298.15	100	0.299981	5.462	0.032
298.15	100	0.396143	7.156	0.038
298.15	100	0.504794	9.04	0.044
298.19	510	0.098944	1.8233	0.0246
298.19	510	0.199354	3.6449	0.0279
298.19	510	0.303779	5.5079	0.0327
298.19	510	0.401223	7.2182	0.0378
298.19	510	0.486542	8.6929	0.0427
298.19	15120	0.098944	1.7632	0.0253
298.19	15120	0.199354	3.526	0.0295
298.19	15120	0.303779	5.332	0.035
298.19	15120	0.401223	6.9882	0.0406
298.19	15120	0.486542	8.42	0.0458
298.19	510	0.098944	1.8228	0.0246
298.19	510	0.199354	3.6435	0.0279
298.19	510	0.303779	5.5073	0.0327
298.19	510	0.401223	7.2177	0.0378
298.19	510	0.486542	8.6922	0.0427
298.19	15120	0.098944	1.7636	0.0253
298.19	15120	0.199354	3.5261	0.0295
298.19	15120	0.303779	5.3312	0.0349
298.19	15120	0.401223	6.991	0.0406
298.19	15120	0.486542	8.4193	0.0458
298.19	510	0.098944	1.8217	0.0246
298.19	510	0.199354	3.6439	0.0279
298.19	510	0.303779	5.5068	0.0326
298.19	510	0.401223	7.2178	0.0378
298.19	510	0.486542	8.6924	0.0427
298.19	15120	0.098944	1.761	0.0253
298.19	15120	0.199354	3.5265	0.0295
298.19	15120	0.303779	5.3314	0.0349
298.19	15120	0.401223	6.9908	0.0406
298.19	15120	0.486542	8.4188	0.0458
298.22	30480	0.098944	1.7022	0.0264
298.22	30480	0.199354	3.4082	0.0314
298.22	30480	0.303779	5.1539	0.0379
298.22	30480	0.401223	6.759	0.0443
298.22	30480	0.486542	8.1453	0.0502
298.22	30480	0.098944	1.7028	0.0264
298.22	30480	0.199354	3.407	0.0314
298.22	30480	0.303779	5.1525	0.0379
298.22	30480	0.401223	6.7593	0.0443
298.22	30480	0.486542	8.1446	0.0502
298.22	30480	0.098944	1.7021	0.0264
298.22	30480	0.199354	3.4071	0.0314
298.22	30480	0.303779	5.1524	0.0379
298.22	30480	0.401223	6.7595	0.0443
298.22	30480	0.486542	8.1449	0.0502
308.15	100	0.099736	1.806	0.024
308.15	100	0.19981	3.568	0.027
308.15	100	0.299981	5.311	0.032
308.15	100	0.396143	6.954	0.037
308.15	100	0.504794	8.776	0.043
308.15	100	0.099736	1.804	0.024
308.15	100	0.19981	3.567	0.027
308.15	100	0.299981	5.31	0.032
308.15	100	0.396143	6.955	0.037
308.15	100	0.504794	8.777	0.043
318.15	100	0.099736	1.762	0.024
318.15	100	0.19981	3.481	0.027
318.15	100	0.299981	5.177	0.031
318.15	100	0.396143	6.774	0.036
318.15	100	0.504794	8.543	0.042
318.15	100	0.099736	1.764	0.024
318.15	100	0.19981	3.481	0.027
318.15	100	0.299981	5.178	0.031
318.15	100	0.396143	6.775	0.036
318.15	100	0.504794	8.545	0.042
318.21	15080	0.098944	1.6949	0.0247
318.21	15080	0.199354	3.3816	0.0286
318.21	15080	0.303779	5.1041	0.0338
318.21	15080	0.401223	6.6835	0.0391
318.21	15080	0.486542	8.0381	0.0441
318.21	29950	0.098944	1.6527	0.0258
318.21	29950	0.199354	3.3005	0.0306
318.21	29950	0.303779	4.9841	0.0368
318.21	29950	0.401223	6.5256	0.0429
318.21	29950	0.486542	7.8546	0.0485
318.21	15080	0.098944	1.6934	0.0247
318.21	15080	0.199354	3.3821	0.0286
318.21	15080	0.303779	5.1045	0.0338
318.21	15080	0.401223	6.6837	0.0391
318.21	15080	0.486542	8.0368	0.0441
318.21	29950	0.098944	1.6525	0.0258
318.21	29950	0.199354	3.3021	0.0306
318.21	29950	0.303779	4.9839	0.0368
318.21	29950	0.401223	6.5256	0.0429
318.21	29950	0.486542	7.8525	0.0485
318.21	15080	0.098944	1.6933	0.0247
318.21	15080	0.199354	3.3819	0.0286
318.21	15080	0.303779	5.1041	0.0338
318.21	15080	0.401223	6.6842	0.0391
318.21	15080	0.486542	8.0363	0.0441
318.21	29950	0.098944	1.6537	0.0258
318.21	29950	0.199354	3.3002	0.0306
318.21	29950	0.303779	4.9832	0.0368
318.21	29950	0.401223	6.5259	0.043
318.21	29950	0.486542	7.853	0.0485
318.22	520	0.098944	1.7331	0.0237
318.22	520	0.199354	3.4592	0.0269
318.22	520	0.303779	5.2183	0.0313
318.22	520	0.401223	6.83	0.036
318.22	520	0.486542	8.2135	0.0407
318.22	520	0.098944	1.7329	0.0237
318.22	520	0.199354	3.4586	0.0269
318.22	520	0.303779	5.2195	0.0313
318.22	520	0.401223	6.8304	0.036
318.22	520	0.486542	8.2119	0.0407
318.22	520	0.098944	1.7332	0.0237
318.22	520	0.199354	3.4588	0.0269
318.22	520	0.303779	5.2186	0.0313
318.22	520	0.401223	6.8305	0.036
318.22	520	0.486542	8.2138	0.0407
338.21	520	0.098944	1.6577	0.0231
338.21	520	0.199354	3.3026	0.026
338.21	520	0.303779	4.9776	0.0301
338.21	520	0.401223	6.5091	0.0346
338.21	520	0.486542	7.8195	0.0389
338.21	15210	0.098944	1.627	0.0242
338.21	15210	0.199354	3.2513	0.0279
338.21	15210	0.303779	4.8943	0.0328
338.21	15210	0.401223	6.4075	0.0379
338.21	15210	0.486542	7.6943	0.0426
338.21	30150	0.098944	1.6033	0.0254
338.21	30150	0.199354	3.1952	0.03
338.21	30150	0.303779	4.8158	0.0359
338.21	30150	0.401223	6.3	0.0419
338.21	30150	0.486542	7.5707	0.0473
338.21	520	0.098944	1.6576	0.0231
338.21	520	0.199354	3.3023	0.026
338.21	520	0.303779	4.9777	0.0301
338.21	520	0.401223	6.509	0.0346
338.21	520	0.486542	7.8187	0.0389
338.21	15210	0.098944	1.6292	0.0242
338.21	15210	0.199354	3.2499	0.0279
338.21	15210	0.303779	4.8954	0.0328
338.21	15210	0.401223	6.4064	0.0379
338.21	15210	0.486542	7.692	0.0426
338.21	30150	0.098944	1.6027	0.0254
338.21	30150	0.199354	3.1957	0.03
338.21	30150	0.303779	4.8162	0.0359
338.21	30150	0.401223	6.3009	0.0419
338.21	30150	0.486542	7.5727	0.0473
338.21	520	0.098944	1.6574	0.0231
338.21	520	0.199354	3.3032	0.026
338.21	520	0.303779	4.9772	0.0301
338.21	520	0.401223	6.5073	0.0346
338.21	520	0.486542	7.8191	0.0389
338.21	15210	0.098944	1.6298	0.0242
338.21	15210	0.199354	3.2494	0.0279
338.21	15210	0.303779	4.8955	0.0328
338.21	15210	0.401223	6.4055	0.0379
338.21	15210	0.486542	7.6902	0.0426
338.21	30150	0.098944	1.6017	0.0254
338.21	30150	0.199354	3.1945	0.03
338.21	30150	0.303779	4.8166	0.0359
338.21	30150	0.401223	6.3007	0.0419
338.21	30150	0.486542	7.5709	0.0473
358.16	15080	0.100236	1.5954	0.0239
358.16	15080	0.19981	3.1499	0.0273
358.16	15080	0.299981	4.676	0.0318
358.16	15080	0.396143	6.1056	0.0366
358.16	15080	0.504794	7.6967	0.0424
358.16	30090	0.100236	1.5773	0.0252
358.16	30090	0.19981	3.1133	0.0295
358.16	30090	0.299981	4.6244	0.035
358.16	30090	0.396143	6.0409	0.0406
358.16	30090	0.504794	7.6129	0.0473
358.16	15080	0.100236	1.5949	0.0239
358.16	15080	0.19981	3.1488	0.0273
358.16	15080	0.299981	4.6753	0.0318
358.16	15080	0.396143	6.1056	0.0366
358.16	15080	0.504794	7.6961	0.0423
358.16	30090	0.100236	1.5779	0.0252
358.16	30090	0.19981	3.114	0.0295
358.16	30090	0.299981	4.6232	0.035
358.16	30090	0.396143	6.0412	0.0406
358.16	30090	0.504794	7.6118	0.0473
358.16	15080	0.100236	1.5959	0.0239
358.16	15080	0.19981	3.1471	0.0273
358.16	15080	0.299981	4.6759	0.0318
358.16	15080	0.396143	6.1055	0.0366
358.16	15080	0.504794	7.696	0.0423
358.16	30090	0.100236	1.5781	0.0252
358.16	30090	0.19981	3.1124	0.0295
358.16	30090	0.299981	4.6249	0.035
358.16	30090	0.396143	6.0396	0.0406
358.16	30090	0.504794	7.6123	0.0473
358.17	520	0.098944	1.5853	0.0226
358.17	520	0.199354	3.1609	0.0253
358.17	520	0.303779	4.7611	0.0292
358.17	520	0.401223	6.2258	0.0335
358.17	520	0.486542	7.4731	0.0375
358.17	520	0.098944	1.5847	0.0226
358.17	520	0.199354	3.1606	0.0253
358.17	520	0.303779	4.7618	0.0292
358.17	520	0.401223	6.2271	0.0335
358.17	520	0.486542	7.4724	0.0374
358.17	520	0.098944	1.5847	0.0226
358.17	520	0.199354	3.1596	0.0253
358.17	520	0.303779	4.7628	0.0292
358.17	520	0.401223	6.2263	0.0335
358.17	520	0.486542	7.4725	0.0374
373.14	15060	0.100236	1.5504	0.0237
373.14	15060	0.19981	3.0577	0.0269
373.14	15060	0.299981	4.5376	0.0313
373.14	15060	0.396143	5.9236	0.0359
373.14	15060	0.504794	7.4649	0.0414
373.14	30060	0.100236	1.5366	0.025
373.14	30060	0.19981	3.0305	0.0291
373.14	30060	0.299981	4.4993	0.0345
373.14	30060	0.396143	5.8752	0.0399
373.14	30060	0.504794	7.4054	0.0464
373.14	15060	0.100236	1.5502	0.0237
373.14	15060	0.19981	3.0581	0.0269
373.14	15060	0.299981	4.5378	0.0313
373.14	15060	0.396143	5.9241	0.0359
373.14	15060	0.504794	7.4661	0.0415
373.14	30060	0.100236	1.5362	0.025
373.14	30060	0.19981	3.031	0.0291
373.14	30060	0.299981	4.499	0.0345
373.14	30060	0.396143	5.8752	0.0399
373.14	30060	0.504794	7.4044	0.0464
373.14	15060	0.100236	1.5495	0.0237
373.14	15060	0.19981	3.0571	0.0269
373.14	15060	0.299981	4.5374	0.0313
373.14	15060	0.396143	5.9229	0.0359
373.14	15060	0.504794	7.4643	0.0414
373.14	30060	0.100236	1.5361	0.025
373.14	30060	0.19981	3.0305	0.0291
373.14	30060	0.299981	4.498	0.0345
373.14	30060	0.396143	5.8742	0.0399
373.14	30060	0.504794	7.4045	0.0464
373.15	520	0.100236	1.5615	0.0224
373.15	520	0.19981	3.0801	0.025
373.15	520	0.299981	4.5692	0.0285
373.15	520	0.396143	5.966	0.0326
373.15	520	0.504794	7.5145	0.0383
373.15	520	0.100236	1.5616	0.0224
373.15	520	0.19981	3.0791	0.025
373.15	520	0.299981	4.5697	0.0285
373.15	520	0.396143	5.9646	0.0326
373.15	520	0.504794	7.5148	0.0383
373.15	520	0.100236	1.5613	0.0224
373.15	520	0.19981	3.0796	0.025
373.15	520	0.299981	4.5697	0.0285
373.15	520	0.396143	5.9632	0.0326
373.15	520	0.504794	7.5149	0.0383
398.14	2030	0.100381	1.4961	0.0225
398.14	2030	0.200127	2.9382	0.0248
398.14	2030	0.30574	4.4458	0.0285
398.14	2030	0.404088	5.8097	0.0324
398.14	2030	0.493147	7.0176	0.0363
398.14	2030	0.100381	1.4957	0.0225
398.14	2030	0.200127	2.9379	0.0248
398.14	2030	0.30574	4.4452	0.0285
398.14	2030	0.404088	5.8085	0.0324
398.14	2030	0.493147	7.0164	0.0362
398.14	2030	0.100381	1.4951	0.0225
398.14	2030	0.200127	2.938	0.0248
398.14	2030	0.30574	4.4444	0.0285
398.14	2030	0.404088	5.8094	0.0324
398.14	2030	0.493147	7.0159	0.0362
398.15	15040	0.100381	1.4933	0.0237
398.15	15040	0.200127	2.9331	0.0267
398.15	15040	0.30574	4.4406	0.0311
398.15	15040	0.404088	5.8042	0.0356
398.15	15040	0.493147	7.011	0.0399
398.15	29980	0.100381	1.4875	0.025
398.15	29980	0.200127	2.9224	0.0289
398.15	29980	0.30574	4.4229	0.0344
398.15	29980	0.404088	5.7823	0.0398
398.15	29980	0.493147	6.9861	0.0448
398.15	15040	0.100381	1.4934	0.0237
398.15	15040	0.200127	2.933	0.0267
398.15	15040	0.30574	4.4383	0.0311
398.15	15040	0.404088	5.7988	0.0356
398.15	15040	0.493147	7.0108	0.0399
398.15	29980	0.100381	1.4869	0.025
398.15	29980	0.200127	2.9224	0.0289
398.15	29980	0.30574	4.4223	0.0344
398.15	29980	0.404088	5.7827	0.0398
398.15	29980	0.493147	6.9853	0.0448
398.15	15040	0.100381	1.4927	0.0237
398.15	15040	0.200127	2.9327	0.0267
398.15	15040	0.30574	4.4394	0.0311
398.15	15040	0.404088	5.8011	0.0356
398.15	15040	0.493147	7.0096	0.0399
398.15	29980	0.100381	1.4868	0.025
398.15	29980	0.200127	2.9227	0.0289
398.15	29980	0.30574	4.4239	0.0344
398.15	29980	0.404088	5.7824	0.0398
398.15	29980	0.493147	6.9861	0.0448
423.15	2050	0.100381	1.4374	0.0232
423.15	2050	0.200127	2.8265	0.0251
423.15	2050	0.30574	4.2784	0.0286
423.15	2050	0.404088	5.5935	0.0322
423.15	2050	0.493147	6.7578	0.036
423.15	15000	0.100381	1.4443	0.0244
423.15	15000	0.200127	2.8373	0.0271
423.15	15000	0.30574	4.2939	0.0313
423.15	15000	0.404088	5.6142	0.0356
423.15	15000	0.493147	6.7821	0.0398
423.15	30060	0.100381	1.4447	0.0258
423.15	30060	0.200127	2.8392	0.0294
423.15	30060	0.30574	4.2982	0.0348
423.15	30060	0.404088	5.6218	0.04
423.15	30060	0.493147	6.7922	0.0449
423.15	2050	0.100381	1.4373	0.0232
423.15	2050	0.200127	2.8265	0.0251
423.15	2050	0.30574	4.2787	0.0286
423.15	2050	0.404088	5.5935	0.0322
423.15	2050	0.493147	6.7575	0.036
423.15	15000	0.100381	1.444	0.0244
423.15	15000	0.200127	2.837	0.0271
423.15	15000	0.30574	4.2942	0.0313
423.15	15000	0.404088	5.6137	0.0356
423.15	15000	0.493147	6.7819	0.0398
423.15	30060	0.100381	1.4451	0.0258
423.15	30060	0.200127	2.8398	0.0294
423.15	30060	0.30574	4.2994	0.0348
423.15	30060	0.404088	5.6221	0.04
423.15	30060	0.493147	6.7924	0.0449
423.15	2050	0.100381	1.4384	0.0232
423.15	2050	0.200127	2.8274	0.0251
423.15	2050	0.30574	4.2779	0.0286
423.15	2050	0.404088	5.5939	0.0322
423.15	2050	0.493147	6.757	0.036
423.15	15000	0.100381	1.4441	0.0244
423.15	15000	0.200127	2.8365	0.0271
423.15	15000	0.30574	4.2933	0.0313
423.15	15000	0.404088	5.6144	0.0356
423.15	15000	0.493147	6.7815	0.0398
423.15	30060	0.100381	1.4461	0.0258
423.15	30060	0.200127	2.8392	0.0294
423.15	30060	0.30574	4.2997	0.0348
423.15	30060	0.404088	5.6215	0.04
423.15	30060	0.493147	6.7922	0.0449
448.15	2040	0.100381	1.3963	0.0251
448.15	2040	0.200127	2.7455	0.0264
448.15	2040	0.30574	4.1567	0.0296
448.15	2040	0.404088	5.4365	0.033
448.15	2040	0.493147	6.5702	0.0366
448.15	15050	0.100381	1.4077	0.0263
448.15	15050	0.200127	2.7663	0.0285
448.15	15050	0.30574	4.1912	0.0326
448.15	15050	0.404088	5.482	0.0367
448.15	15050	0.493147	6.6251	0.0407
448.15	2040	0.100381	1.3967	0.0251
448.15	2040	0.200127	2.7443	0.0264
448.15	2040	0.30574	4.1565	0.0296
448.15	2040	0.404088	5.4361	0.033
448.15	2040	0.493147	6.5704	0.0366
448.15	15050	0.100381	1.4085	0.0263
448.15	15050	0.200127	2.7678	0.0285
448.15	15050	0.30574	4.1928	0.0326
448.15	15050	0.404088	5.4821	0.0367
448.15	15050	0.493147	6.6257	0.0407
448.15	2040	0.100381	1.396	0.0251
448.15	2040	0.200127	2.7444	0.0264
448.15	2040	0.30574	4.1568	0.0296
448.15	2040	0.404088	5.4364	0.033
448.15	2040	0.493147	6.5707	0.0366
448.15	15050	0.100381	1.4075	0.0263
448.15	15050	0.200127	2.7667	0.0285
448.15	15050	0.30574	4.1909	0.0326
448.15	15050	0.404088	5.4819	0.0367
448.15	15050	0.493147	6.6255	0.0407
448.16	30040	0.100381	1.4167	0.0278
448.16	30040	0.200127	2.787	0.0311
448.16	30040	0.30574	4.2177	0.0361
448.16	30040	0.404088	5.5182	0.0412
448.16	30040	0.493147	6.6697	0.046
448.16	30040	0.100381	1.4179	0.0278
448.16	30040	0.200127	2.7857	0.0311
448.16	30040	0.30574	4.2165	0.0361
448.16	30040	0.404088	5.5184	0.0412
448.16	30040	0.493147	6.6688	0.046
448.16	30040	0.100381	1.4161	0.0278
448.16	30040	0.200127	2.7856	0.0311
448.16	30040	0.30574	4.2184	0.0362
448.16	30040	0.404088	5.5177	0.0412
448.16	30040	0.493147	6.6688	0.046
473.15	2050	0.101338	1.3814	0.0286
473.15	2050	0.198413	2.6764	0.0292
473.15	2050	0.296636	3.9624	0.0318
473.15	2050	0.398426	5.2671	0.0351
473.15	2050	0.495765	6.4904	0.0386
473.15	15100	0.101338	1.4006	0.0299
473.15	15100	0.198413	2.7158	0.0317
473.15	15100	0.296636	4.018	0.0349
473.15	15100	0.398426	5.3415	0.039
473.15	15100	0.495765	6.5804	0.0432
473.15	29940	0.101338	1.4168	0.0314
473.15	29940	0.198413	2.7398	0.0347
473.15	29940	0.296636	4.0593	0.0386
473.15	29940	0.398426	5.3919	0.0437
473.15	29940	0.495765	6.646	0.0488
473.15	2050	0.101338	1.3805	0.0286
473.15	2050	0.198413	2.679	0.0292
473.15	2050	0.296636	3.9623	0.0318
473.15	2050	0.398426	5.2676	0.0351
473.15	2050	0.495765	6.4908	0.0386
473.15	15100	0.101338	1.4009	0.0299
473.15	15100	0.198413	2.7146	0.0317
473.15	15100	0.296636	4.0182	0.0349
473.15	15100	0.398426	5.3398	0.039
473.15	15100	0.495765	6.5806	0.0432
473.15	29940	0.101338	1.4128	0.0314
473.15	29940	0.198413	2.7419	0.0347
473.15	29940	0.296636	4.0577	0.0386
473.15	29940	0.398426	5.3929	0.0437
473.15	29940	0.495765	6.6442	0.0488
473.15	2050	0.101338	1.3812	0.0286
473.15	2050	0.198413	2.6763	0.0292
473.15	2050	0.296636	3.9618	0.0318
473.15	2050	0.398426	5.2666	0.0351
473.15	2050	0.495765	6.4902	0.0386
473.15	15100	0.101338	1.4014	0.0299
473.15	15100	0.198413	2.7134	0.0317
473.15	15100	0.296636	4.0195	0.0349
473.15	15100	0.398426	5.3397	0.039
473.15	15100	0.495765	6.5804	0.0432
473.15	29940	0.101338	1.4136	0.0314
473.15	29940	0.198413	2.7406	0.0347
473.15	29940	0.296636	4.0573	0.0386
473.15	29940	0.398426	5.3929	0.0437
473.15	29940	0.495765	6.6445	0.0488
498.14	3050	0.101338	1.3705	0.0344
498.14	3050	0.198413	2.6594	0.0351
498.14	3050	0.296636	3.9387	0.0366
498.14	3050	0.398426	5.2377	0.0396
498.14	3050	0.495765	6.4607	0.0429
498.14	15140	0.101338	1.3921	0.0357
498.14	15140	0.198413	2.7056	0.0375
498.14	15140	0.296636	4.0089	0.0397
498.14	15140	0.398426	5.3328	0.0436
498.14	15140	0.495765	6.5705	0.0476
498.14	3050	0.101338	1.3673	0.0344
498.14	3050	0.198413	2.6576	0.0351
498.14	3050	0.296636	3.937	0.0366
498.14	3050	0.398426	5.2395	0.0396
498.14	3050	0.495765	6.4612	0.0429
498.14	15140	0.101338	1.3947	0.0357
498.14	15140	0.198413	2.7061	0.0375
498.14	15140	0.296636	4.0076	0.0397
498.14	15140	0.398426	5.3304	0.0436
498.14	15140	0.495765	6.5716	0.0476
498.14	3050	0.101338	1.3687	0.0344
498.14	3050	0.198413	2.6581	0.0351
498.14	3050	0.296636	3.9386	0.0366
498.14	3050	0.398426	5.2394	0.0396
498.14	3050	0.495765	6.4601	0.0429
498.14	15140	0.101338	1.3934	0.0357
498.14	15140	0.198413	2.7061	0.0375
498.14	15140	0.296636	4.007	0.0397
498.14	15140	0.398426	5.3301	0.0436
498.14	15140	0.495765	6.5707	0.0476
498.16	30030	0.101338	1.4153	0.0373
498.16	30030	0.198413	2.7463	0.0406
498.16	30030	0.296636	4.0665	0.0439
498.16	30030	0.398426	5.4075	0.0486
498.16	30030	0.495765	6.6661	0.0537
498.16	30030	0.101338	1.4164	0.0373
498.16	30030	0.198413	2.7469	0.0406
498.16	30030	0.296636	4.0661	0.0439
498.16	30030	0.398426	5.4081	0.0486
498.16	30030	0.495765	6.6637	0.0537
498.16	30030	0.101338	1.4147	0.0373
498.16	30030	0.198413	2.7453	0.0406
498.16	30030	0.296636	4.0645	0.0439
498.16	30030	0.398426	5.4068	0.0486
498.16	30030	0.495765	6.6643	0.0537
523.16	15030	0.101338	1.4058	0.0444
523.16	15030	0.198413	2.7398	0.0464
523.16	15030	0.296636	4.0597	0.0482
523.16	15030	0.398426	5.4028	0.0509
523.16	15030	0.495765	6.6657	0.0548
523.16	30020	0.101338	1.4342	0.0461
523.16	30020	0.198413	2.7911	0.0496
523.16	30020	0.296636	4.1313	0.053
523.16	30020	0.398426	5.5002	0.0566
523.16	30020	0.495765	6.7811	0.0614
523.16	15030	0.101338	1.4092	0.0444
523.16	15030	0.198413	2.7386	0.0464
523.16	15030	0.296636	4.0587	0.0482
523.16	15030	0.398426	5.4022	0.0509
523.16	15030	0.495765	6.6667	0.0548
523.16	30020	0.101338	1.4344	0.0461
523.16	30020	0.198413	2.7856	0.0496
523.16	30020	0.296636	4.1326	0.053
523.16	30020	0.398426	5.4995	0.0566
523.16	30020	0.495765	6.7844	0.0614
523.16	15030	0.101338	1.4073	0.0444
523.16	15030	0.198413	2.7407	0.0464
523.16	15030	0.296636	4.0591	0.0482
523.16	15030	0.398426	5.4026	0.0509
523.16	15030	0.495765	6.6651	0.0548
523.16	30020	0.101338	1.4341	0.0461
523.16	30020	0.198413	2.7907	0.0496
523.16	30020	0.296636	4.1357	0.053
523.16	30020	0.398426	5.4995	0.0566
523.16	30020	0.495765	6.7806	0.0614
523.18	5110	0.101338	1.3807	0.0433
523.18	5110	0.198413	2.6891	0.0442
523.18	5110	0.296636	3.9882	0.0451
523.18	5110	0.398426	5.3087	0.0474
523.18	5110	0.495765	6.5495	0.0505
523.18	5110	0.101338	1.3817	0.0433
523.18	5110	0.198413	2.6873	0.0442
523.18	5110	0.296636	3.9875	0.0451
523.18	5110	0.398426	5.3079	0.0474
523.18	5110	0.495765	6.5505	0.0505
523.18	5110	0.101338	1.3817	0.0433
523.18	5110	0.198413	2.6899	0.0442
523.18	5110	0.296636	3.985	0.0451
523.18	5110	0.398426	5.3081	0.0474
523.18	5110	0.495765	6.5487	0.0505
548.14	15000	0.101212	1.4458	0.0569
548.14	15000	0.200274	2.8397	0.059
548.14	15000	0.274755	3.8733	0.0605
548.14	15000	0.400246	5.5901	0.0631
548.14	15000	0.497326	6.8974	0.0658
548.14	30020	0.101212	1.4793	0.0587
548.14	30020	0.200274	2.9006	0.0625
548.14	30020	0.274755	3.9531	0.0652
548.14	30020	0.400246	5.6954	0.0698
548.14	30020	0.497326	7.0263	0.0734
548.14	15000	0.101212	1.4554	0.0569
548.14	15000	0.200274	2.8432	0.059
548.14	15000	0.274755	3.8765	0.0605
548.14	15000	0.400246	5.594	0.0631
548.14	15000	0.497326	6.9065	0.0658
548.14	30020	0.101212	1.4856	0.0587
548.14	30020	0.200274	2.9017	0.0625
548.14	30020	0.274755	3.9549	0.0652
548.14	30020	0.400246	5.6941	0.0698
548.14	30020	0.497326	7.0281	0.0734
548.14	15000	0.101212	1.4422	0.0569
548.14	15000	0.200274	2.8449	0.059
548.14	15000	0.274755	3.8765	0.0605
548.14	15000	0.400246	5.5967	0.0631
548.14	15000	0.497326	6.9062	0.0658
548.14	30020	0.101212	1.4857	0.0587
548.14	30020	0.200274	2.9017	0.0625
548.14	30020	0.274755	3.9537	0.0652
548.14	30020	0.400246	5.6974	0.0698
548.14	30020	0.497326	7.0288	0.0734
548.16	7000	0.101338	1.4242	0.056
548.16	7000	0.200274	2.8011	0.0572
548.16	7000	0.296636	4.1263	0.0584
548.16	7000	0.398426	5.4971	0.0596
548.16	7000	0.495765	6.7932	0.062
548.16	7000	0.101338	1.428	0.056
548.16	7000	0.200274	2.7985	0.0572
548.16	7000	0.296636	4.1264	0.0584
548.16	7000	0.398426	5.494	0.0596
548.16	7000	0.495765	6.7921	0.062
548.16	7000	0.101338	1.4243	0.056
548.16	7000	0.200274	2.8012	0.0572
548.16	7000	0.296636	4.1322	0.0584
548.16	7000	0.398426	5.5017	0.0596
548.16	7000	0.495765	6.7948	0.062
573.15	10260	0.101212	1.5082	0.0736
573.15	10260	0.200274	2.9776	0.0753
573.15	10260	0.274755	4.0701	0.0765
573.15	10260	0.400246	5.8797	0.0786
573.15	10260	0.497326	7.2827	0.0802
573.15	15210	0.101212	1.5204	0.0742
573.15	15210	0.200274	3.0034	0.0765
573.15	15210	0.274755	4.0964	0.0781
573.15	15210	0.400246	5.9126	0.0809
573.15	15210	0.497326	7.3171	0.083
573.15	29990	0.101212	1.5443	0.076
573.15	29990	0.200274	3.0423	0.08
573.15	29990	0.274755	4.1427	0.0828
573.15	29990	0.400246	5.9822	0.0877
573.15	29990	0.497326	7.3942	0.0915
573.15	10260	0.101212	1.5115	0.0736
573.15	10260	0.200274	2.9833	0.0753
573.15	10260	0.274755	4.0683	0.0765
573.15	10260	0.400246	5.8906	0.0786
573.15	10260	0.497326	7.287	0.0802
573.15	15210	0.101212	1.5196	0.0742
573.15	15210	0.200274	3	0.0765
573.15	15210	0.274755	4.1009	0.0781
573.15	15210	0.400246	5.9154	0.0809
573.15	15210	0.497326	7.325	0.083
573.15	29990	0.101212	1.5452	0.076
573.15	29990	0.200274	3.0459	0.08
573.15	29990	0.274755	4.1498	0.0829
573.15	29990	0.400246	5.9876	0.0878
573.15	29990	0.497326	7.3958	0.0915
573.15	10260	0.200274	2.9855	0.0753
573.15	10260	0.274755	4.0722	0.0765
573.15	10260	0.400246	5.8914	0.0786
573.15	10260	0.497326	7.2907	0.0802
573.15	15210	0.200274	2.9986	0.0765
573.15	15210	0.274755	4.1074	0.0781
573.15	15210	0.400246	5.9227	0.0809
573.15	15210	0.497326	7.3248	0.083
573.15	29990	0.200274	3.0459	0.08
573.15	29990	0.274755	4.1503	0.0829
573.15	29990	0.400246	5.9919	0.0878
573.15	29990	0.497326	7.3942	0.0915

System: water + 3,3,7,7-tetrakis(hydroxymethyl)-5-oxanonane; phases: Liquid
Property: Mass density, kg/m3 (Liquid); method: VIBTUB:UFactor:0.5
Temperature, K	Pressure, kPa	Molality, mol/kg of 3,3,7,7-tetrakis(hydroxymethyl)-5-oxanonane	Mass density, kg/m3	uncertainty
278.15	100	0.019719	0.68	0.038
278.15	100	0.04105	1.415	0.038
278.15	100	0.060452	2.079	0.038
278.15	100	0.079001	2.712	0.039
278.15	100	0.019719	0.682	0.038
278.15	100	0.04105	1.416	0.038
278.15	100	0.060452	2.081	0.038
278.15	100	0.079001	2.714	0.039
283.15	100	0.019719	0.666	0.037
283.15	100	0.04105	1.383	0.037
283.15	100	0.060452	2.032	0.037
283.15	100	0.079001	2.649	0.038
283.15	100	0.019719	0.667	0.037
283.15	100	0.04105	1.384	0.037
283.15	100	0.060452	2.034	0.037
283.15	100	0.079001	2.652	0.038
288.15	100	0.019719	0.654	0.036
288.15	100	0.04105	1.357	0.037
288.15	100	0.060452	1.991	0.037
288.15	100	0.079001	2.596	0.037
288.15	100	0.019719	0.653	0.036
288.15	100	0.04105	1.356	0.037
288.15	100	0.060452	1.992	0.037
288.15	100	0.079001	2.597	0.037
293.15	100	0.019719	0.641	0.036
293.15	100	0.04105	1.329	0.036
293.15	100	0.060452	1.952	0.036
293.15	100	0.079001	2.544	0.037
293.15	100	0.019719	0.641	0.036
293.15	100	0.04105	1.33	0.036
293.15	100	0.060452	1.952	0.036
293.15	100	0.079001	2.546	0.037
298.15	100	0.019719	0.629	0.035
298.15	100	0.04105	1.306	0.035
298.15	100	0.060452	1.917	0.036
298.15	100	0.079001	2.496	0.036
298.15	100	0.019719	0.63	0.035
298.15	100	0.04105	1.306	0.035
298.15	100	0.060452	1.918	0.036
298.15	100	0.079001	2.496	0.036
298.19	510	0.019922	0.6395	0.0353
298.19	510	0.040225	1.2818	0.0354
298.19	510	0.060282	1.9132	0.0355
298.19	510	0.079007	2.4968	0.0361
298.19	15110	0.019922	0.614	0.0346
298.19	15110	0.040225	1.2347	0.0351
298.19	15110	0.060282	1.8437	0.0354
298.19	15110	0.079007	2.4093	0.0364
298.19	510	0.019922	0.64	0.0353
298.19	510	0.040225	1.2806	0.0354
298.19	510	0.060282	1.9127	0.0355
298.19	510	0.079007	2.496	0.0361
298.19	15110	0.019922	0.6137	0.0346
298.19	15110	0.040225	1.2349	0.0351
298.19	15110	0.060282	1.8436	0.0354
298.19	15110	0.079007	2.4101	0.0364
298.19	510	0.019922	0.6396	0.0353
298.19	510	0.040225	1.2803	0.0354
298.19	510	0.060282	1.9112	0.0356
298.19	510	0.079007	2.4966	0.0361
298.19	15110	0.040225	1.2344	0.0351
298.19	15110	0.060282	1.8439	0.0354
298.19	15110	0.079007	2.409	0.0364
298.22	30440	0.019922	0.5938	0.034
298.22	30440	0.040225	1.1913	0.0349
298.22	30440	0.060282	1.782	0.0356
298.22	30440	0.079007	2.3249	0.0364
298.22	30440	0.019922	0.5921	0.0341
298.22	30440	0.040225	1.1917	0.0349
298.22	30440	0.060282	1.7809	0.0356
298.22	30440	0.079007	2.326	0.0365
298.22	30440	0.019922	0.5929	0.0341
298.22	30440	0.040225	1.1913	0.0349
298.22	30440	0.060282	1.7772	0.0356
298.22	30440	0.079007	2.3278	0.0365
308.15	100	0.019719	0.61	0.036
308.15	100	0.04105	1.265	0.035
308.15	100	0.060452	1.857	0.035
308.15	100	0.079001	2.42	0.035
308.15	100	0.019719	0.611	0.036
308.15	100	0.04105	1.266	0.035
308.15	100	0.060452	1.858	0.035
308.15	100	0.079001	2.421	0.035
318.15	100	0.019719	0.591	0.034
318.15	100	0.04105	1.226	0.034
318.15	100	0.060452	1.799	0.034
318.15	100	0.079001	2.344	0.034
318.15	100	0.019719	0.592	0.034
318.15	100	0.04105	1.228	0.034
318.15	100	0.060452	1.801	0.034
318.15	100	0.079001	2.345	0.034
318.21	530	0.019922	0.5942	0.0335
318.21	530	0.040225	1.1984	0.0336
318.21	530	0.060282	1.7881	0.0334
318.21	530	0.079007	2.3343	0.0343
318.21	15070	0.019922	0.5828	0.0334
318.21	15070	0.040225	1.1735	0.0337
318.21	15070	0.060282	1.7508	0.034
318.21	15070	0.079007	2.2854	0.0347
318.21	29890	0.019922	0.5665	0.0331
318.21	29890	0.040225	1.1423	0.0339
318.21	29890	0.060282	1.7103	0.0345
318.21	29890	0.079007	2.2311	0.0352
318.21	530	0.019922	0.5936	0.0335
318.21	530	0.040225	1.1962	0.0336
318.21	530	0.060282	1.7882	0.0334
318.21	530	0.079007	2.3315	0.0343
318.21	15070	0.019922	0.5825	0.0334
318.21	15070	0.040225	1.1723	0.0337
318.21	15070	0.060282	1.7503	0.034
318.21	15070	0.079007	2.2856	0.0347
318.21	29890	0.019922	0.5669	0.0331
318.21	29890	0.040225	1.1419	0.0339
318.21	29890	0.060282	1.7071	0.0345
318.21	29890	0.079007	2.23	0.0352
318.21	530	0.019922	0.5932	0.0335
318.21	530	0.040225	1.1969	0.0336
318.21	530	0.060282	1.7875	0.0334
318.21	530	0.079007	2.3336	0.0343
318.21	15070	0.019922	0.5821	0.0334
318.21	15070	0.040225	1.1714	0.0337
318.21	15070	0.060282	1.7506	0.034
318.21	15070	0.079007	2.2846	0.0347
318.21	29890	0.019922	0.5679	0.033
318.21	29890	0.040225	1.1418	0.0339
318.21	29890	0.060282	1.7067	0.0345
318.21	29890	0.079007	2.2304	0.0352
338.21	520	0.019922	0.5622	0.0321
338.21	520	0.040225	1.1308	0.0322
338.21	520	0.060282	1.6882	0.0321
338.21	520	0.079007	2.2037	0.0328
338.21	15240	0.019922	0.5551	0.0321
338.21	15240	0.040225	1.1166	0.0325
338.21	15240	0.060282	1.6657	0.0328
338.21	15240	0.079007	2.1745	0.0334
338.21	30040	0.019922	0.5486	0.0322
338.21	30040	0.040225	1.1004	0.0328
338.21	30040	0.060282	1.6413	0.0335
338.21	30040	0.079007	2.143	0.0343
338.21	520	0.019922	0.562	0.0321
338.21	520	0.040225	1.13	0.0322
338.21	520	0.060282	1.6887	0.0321
338.21	520	0.079007	2.2033	0.0328
338.21	15240	0.019922	0.5565	0.0321
338.21	15240	0.040225	1.1171	0.0325
338.21	15240	0.060282	1.6648	0.0328
338.21	15240	0.079007	2.1733	0.0334
338.21	30040	0.019922	0.5472	0.0322
338.21	30040	0.040225	1.1013	0.0328
338.21	30040	0.060282	1.6417	0.0335
338.21	30040	0.079007	2.1429	0.0343
338.21	520	0.019922	0.5615	0.0322
338.21	520	0.040225	1.1302	0.0322
338.21	520	0.060282	1.6885	0.0321
338.21	520	0.079007	2.2028	0.0328
338.21	15240	0.019922	0.5552	0.0321
338.21	15240	0.040225	1.1165	0.0325
338.21	15240	0.060282	1.6662	0.0328
338.21	15240	0.079007	2.1738	0.0334
338.21	30040	0.019922	0.5467	0.0322
338.21	30040	0.040225	1.0991	0.0328
338.21	30040	0.060282	1.6382	0.0335
338.21	30040	0.079007	2.143	0.0343
358.16	510	0.019922	0.5294	0.031
358.16	510	0.040225	1.0729	0.031
358.16	510	0.060282	1.5989	0.0308
358.16	510	0.079007	2.0877	0.0315
358.16	29830	0.019719	0.5181	0.0311
358.16	29830	0.04105	1.0753	0.032
358.16	29830	0.060452	1.5806	0.0326
358.16	29830	0.079001	2.0572	0.0335
358.16	510	0.019922	0.5309	0.0309
358.16	510	0.040225	1.0707	0.031
358.16	510	0.060282	1.5966	0.0308
358.16	510	0.079007	2.0873	0.0315
358.16	29830	0.019719	0.5172	0.0311
358.16	29830	0.04105	1.0742	0.032
358.16	29830	0.060452	1.5802	0.0326
358.16	29830	0.079001	2.0544	0.0335
358.16	510	0.019922	0.5298	0.031
358.16	510	0.040225	1.0702	0.031
358.16	510	0.060282	1.5987	0.0308
358.16	510	0.079007	2.086	0.0315
358.16	29830	0.019719	0.5174	0.0311
358.16	29830	0.04105	1.0749	0.032
358.16	29830	0.060452	1.5803	0.0326
358.16	29830	0.079001	2.0579	0.0335
358.17	15110	0.019719	0.5216	0.0311
358.17	15110	0.04105	1.0866	0.0315
358.17	15110	0.060452	1.594	0.0318
358.17	15110	0.079001	2.0766	0.0323
358.17	15110	0.019719	0.5204	0.0311
358.17	15110	0.04105	1.0822	0.0315
358.17	15110	0.060452	1.5915	0.0318
358.17	15110	0.079001	2.075	0.0323
358.17	15110	0.019719	0.5224	0.0311
358.17	15110	0.04105	1.0843	0.0315
358.17	15110	0.060452	1.5937	0.0318
358.17	15110	0.079001	2.0746	0.0323
373.15	520	0.019719	0.5084	0.0302
373.15	520	0.04105	1.0548	0.0303
373.15	520	0.060452	1.5492	0.0302
373.15	520	0.079001	2.0164	0.0305
373.15	15070	0.019719	0.5093	0.0304
373.15	15070	0.04105	1.0529	0.0309
373.15	15070	0.060452	1.5471	0.0312
373.15	15070	0.079001	2.0169	0.0317
373.15	30020	0.019719	0.505	0.0307
373.15	30020	0.04105	1.0482	0.0315
373.15	30020	0.060452	1.5401	0.0322
373.15	30020	0.079001	2.0072	0.0329
373.15	520	0.019719	0.5085	0.0302
373.15	520	0.04105	1.0543	0.0303
373.15	520	0.060452	1.5477	0.0302
373.15	520	0.079001	2.0158	0.0305
373.15	15070	0.019719	0.5084	0.0304
373.15	15070	0.04105	1.0525	0.0309
373.15	15070	0.060452	1.5467	0.0312
373.15	15070	0.079001	2.0169	0.0317
373.15	30020	0.019719	0.5059	0.0307
373.15	30020	0.04105	1.0478	0.0315
373.15	30020	0.060452	1.5403	0.0322
373.15	30020	0.079001	2.0056	0.0329
373.15	520	0.019719	0.507	0.0303
373.15	520	0.04105	1.0536	0.0303
373.15	520	0.060452	1.5483	0.0302
373.15	520	0.079001	2.015	0.0304
373.15	15070	0.019719	0.5077	0.0305
373.15	15070	0.04105	1.0525	0.0309
373.15	15070	0.060452	1.5469	0.0312
373.15	15070	0.079001	2.0153	0.0317
373.15	30020	0.019719	0.5059	0.0307
373.15	30020	0.04105	1.0469	0.0315
373.15	30020	0.060452	1.5409	0.0322
373.15	30020	0.079001	2.0059	0.0329
398.14	2030	0.017958	0.4399	0.0295
398.14	2030	0.03827	0.9336	0.0296
398.14	2030	0.055262	1.3439	0.0296
398.14	2030	0.079096	1.9156	0.0298
398.14	15030	0.017958	0.4412	0.0298
398.14	15030	0.03827	0.9365	0.0302
398.14	15030	0.055262	1.3505	0.0304
398.14	15030	0.079096	1.9213	0.0315
398.14	30030	0.017958	0.444	0.0302
398.14	30030	0.03827	0.9408	0.0309
398.14	30030	0.055262	1.3535	0.0314
398.14	30030	0.079096	1.9255	0.033
398.14	2030	0.017958	0.4403	0.0295
398.14	2030	0.03827	0.9329	0.0296
398.14	2030	0.055262	1.3432	0.0296
398.14	2030	0.079096	1.9122	0.0297
398.14	15030	0.017958	0.4413	0.0298
398.14	15030	0.03827	0.9364	0.0302
398.14	15030	0.055262	1.3485	0.0304
398.14	15030	0.079096	1.9212	0.0315
398.14	30030	0.017958	0.4424	0.0302
398.14	30030	0.03827	0.938	0.0309
398.14	30030	0.055262	1.3536	0.0314
398.14	30030	0.079096	1.927	0.0331
398.14	2030	0.017958	0.4384	0.0295
398.14	2030	0.055262	1.3431	0.0296
398.14	2030	0.079096	1.9118	0.0297
398.14	15030	0.017958	0.4404	0.0298
398.14	15030	0.03827	0.9367	0.0302
398.14	15030	0.055262	1.3493	0.0304
398.14	15030	0.079096	1.9208	0.0315
398.14	30030	0.017958	0.4436	0.0302
398.14	30030	0.03827	0.9406	0.0309
398.14	30030	0.055262	1.3532	0.0314
398.14	30030	0.079096	1.9257	0.033
423.14	15010	0.017958	0.4261	0.03
423.14	15010	0.03827	0.9044	0.0303
423.14	15010	0.055262	1.301	0.0305
423.14	15010	0.079096	1.8529	0.0311
423.14	15010	0.017958	0.4254	0.03
423.14	15010	0.03827	0.9032	0.0303
423.14	15010	0.055262	1.3009	0.0305
423.14	15010	0.079096	1.8522	0.0311
423.14	15010	0.017958	0.4246	0.03
423.14	15010	0.03827	0.903	0.0303
423.14	15010	0.055262	1.3004	0.0305
423.14	15010	0.079096	1.8519	0.0311
423.15	2050	0.017958	0.4176	0.0293
423.15	2050	0.03827	0.8911	0.0296
423.15	2050	0.055262	1.2826	0.0296
423.15	2050	0.079096	1.8325	0.03
423.15	30020	0.017958	0.4299	0.0303
423.15	30020	0.03827	0.9122	0.0312
423.15	30020	0.055262	1.3131	0.0317
423.15	30020	0.079096	1.8693	0.0329
423.15	2050	0.017958	0.4182	0.0293
423.15	2050	0.03827	0.8905	0.0296
423.15	2050	0.055262	1.2833	0.0296
423.15	2050	0.079096	1.8267	0.03
423.15	30020	0.017958	0.4301	0.0303
423.15	30020	0.03827	0.9122	0.0312
423.15	30020	0.055262	1.3125	0.0317
423.15	30020	0.079096	1.8696	0.0329
423.15	2050	0.017958	0.417	0.0294
423.15	2050	0.03827	0.8899	0.0296
423.15	2050	0.055262	1.2822	0.0296
423.15	2050	0.079096	1.8287	0.03
423.15	30020	0.017958	0.4303	0.0303
423.15	30020	0.03827	0.9111	0.0312
423.15	30020	0.055262	1.3121	0.0317
423.15	30020	0.079096	1.8691	0.0329
448.15	2040	0.017958	0.4065	0.0305
448.15	2040	0.03827	0.8645	0.0307
448.15	2040	0.055262	1.2455	0.0306
448.15	2040	0.079096	1.7736	0.031
448.15	2040	0.017958	0.4052	0.0306
448.15	2040	0.03827	0.8638	0.0307
448.15	2040	0.055262	1.2444	0.0306
448.15	2040	0.079096	1.7736	0.031
448.15	2040	0.017958	0.405	0.0306
448.15	2040	0.03827	0.8639	0.0307
448.15	2040	0.055262	1.2424	0.0306
448.15	2040	0.079096	1.7736	0.031
448.16	15040	0.017958	0.4153	0.0311
448.16	15040	0.03827	0.8801	0.0316
448.16	15040	0.055262	1.2681	0.0318
448.16	15040	0.079096	1.8042	0.0324
448.16	30060	0.017958	0.4211	0.0317
448.16	30060	0.03827	0.8948	0.0326
448.16	30060	0.055262	1.2886	0.0332
448.16	30060	0.079096	1.8365	0.0344
448.16	15040	0.017958	0.4144	0.0311
448.16	15040	0.03827	0.8796	0.0316
448.16	15040	0.055262	1.2687	0.0318
448.16	15040	0.079096	1.8049	0.0324
448.16	30060	0.017958	0.4217	0.0317
448.16	30060	0.03827	0.8939	0.0326
448.16	30060	0.055262	1.2877	0.0332
448.16	30060	0.079096	1.836	0.0344
448.16	15040	0.017958	0.4146	0.0311
448.16	15040	0.03827	0.8799	0.0316
448.16	15040	0.055262	1.2683	0.0318
448.16	15040	0.079096	1.8072	0.0324
448.16	30060	0.017958	0.4204	0.0317
448.16	30060	0.03827	0.8941	0.0326
448.16	30060	0.055262	1.2871	0.0332
448.16	30060	0.079096	1.8357	0.0344
473.15	2040	0.03827	0.8437	0.0332
473.15	2040	0.055262	1.2165	0.0334
473.15	2040	0.079096	1.7394	0.0336
473.15	15110	0.021381	0.4836	0.034
473.15	15110	0.040814	0.9249	0.0344
473.15	15110	0.059935	1.3534	0.0347
473.15	15110	0.079846	1.7968	0.0354
473.15	2040	0.03827	0.8417	0.0333
473.15	2040	0.055262	1.2169	0.0334
473.15	2040	0.079096	1.7368	0.0335
473.15	15110	0.021381	0.4833	0.034
473.15	15110	0.040814	0.9228	0.0344
473.15	15110	0.059935	1.3525	0.0347
473.15	15110	0.079846	1.797	0.0354
473.15	2040	0.03827	0.8427	0.0333
473.15	2040	0.055262	1.2157	0.0334
473.15	2040	0.079096	1.7378	0.0335
473.15	15110	0.021381	0.4822	0.0341
473.15	15110	0.040814	0.9229	0.0344
473.15	15110	0.059935	1.3535	0.0347
473.15	15110	0.079846	1.7978	0.0354
473.16	30030	0.021381	0.4949	0.0347
473.16	30030	0.040814	0.9445	0.0355
473.16	30030	0.059935	1.3821	0.0363
473.16	30030	0.079846	1.8362	0.0376
473.16	30030	0.021381	0.4945	0.0347
473.16	30030	0.040814	0.9438	0.0355
473.16	30030	0.059935	1.3818	0.0363
473.16	30030	0.079846	1.8357	0.0376
473.16	30030	0.021381	0.4934	0.0347
473.16	30030	0.040814	0.9439	0.0355
473.16	30030	0.059935	1.3809	0.0363
473.16	30030	0.079846	1.8387	0.0376
498.13	3060	0.021381	0.4701	0.0381
498.13	3060	0.040814	0.896	0.0383
498.13	3060	0.059935	1.3151	0.0384
498.13	3060	0.079846	1.7456	0.0386
498.13	15100	0.021381	0.4868	0.0389
498.13	15100	0.040814	0.9274	0.0394
498.13	15100	0.059935	1.359	0.0398
498.13	15100	0.079846	1.8019	0.0404
498.13	3060	0.021381	0.4695	0.0381
498.13	3060	0.040814	0.8958	0.0383
498.13	3060	0.059935	1.3138	0.0384
498.13	3060	0.079846	1.7446	0.0385
498.13	15100	0.021381	0.4867	0.0389
498.13	15100	0.040814	0.9273	0.0394
498.13	15100	0.059935	1.3583	0.0398
498.13	15100	0.079846	1.8032	0.0404
498.13	3060	0.021381	0.4708	0.038
498.13	3060	0.040814	0.8961	0.0383
498.13	3060	0.059935	1.3149	0.0384
498.13	3060	0.079846	1.7454	0.0385
498.13	15100	0.021381	0.487	0.0389
498.13	15100	0.040814	0.9261	0.0394
498.13	15100	0.059935	1.3576	0.0398
498.13	15100	0.079846	1.8019	0.0404
498.15	30010	0.021381	0.4984	0.0396
498.15	30010	0.040814	0.9512	0.0407
498.15	30010	0.059935	1.3939	0.0416
498.15	30010	0.079846	1.8503	0.0429
498.15	30010	0.021381	0.4982	0.0396
498.15	30010	0.040814	0.9507	0.0407
498.15	30010	0.059935	1.394	0.0416
498.15	30010	0.079846	1.8498	0.0429
498.15	30010	0.021381	0.4983	0.0396
498.15	30010	0.040814	0.9507	0.0407
498.15	30010	0.059935	1.3918	0.0416
498.15	30010	0.079846	1.8481	0.0428
523.15	30080	0.021381	0.5153	0.0478
523.15	30080	0.040814	0.9773	0.0489
523.15	30080	0.059935	1.4329	0.0499
523.15	30080	0.079846	1.8985	0.0512
523.15	30080	0.021381	0.5143	0.0478
523.15	30080	0.040814	0.9778	0.0489
523.15	30080	0.059935	1.4313	0.0499
523.15	30080	0.079846	1.8957	0.0512
523.15	30080	0.021381	0.5148	0.0478
523.15	30080	0.040814	0.9751	0.0489
523.15	30080	0.059935	1.4319	0.0499
523.15	30080	0.079846	1.8949	0.0511
523.16	15030	0.021381	0.4977	0.0469
523.16	15030	0.040814	0.9457	0.0475
523.16	15030	0.059935	1.3835	0.048
523.16	15030	0.079846	1.8361	0.0487
523.16	15030	0.021381	0.4975	0.0469
523.16	15030	0.040814	0.9448	0.0475
523.16	15030	0.059935	1.3801	0.048
523.16	15030	0.079846	1.8375	0.0487
523.16	15030	0.021381	0.4963	0.0469
523.16	15030	0.040814	0.9431	0.0475
523.16	15030	0.059935	1.3837	0.048
523.16	15030	0.079846	1.8356	0.0487
523.18	5090	0.021381	0.4824	0.0462
523.18	5090	0.040814	0.9152	0.0464
523.18	5090	0.059935	1.3385	0.0467
523.18	5090	0.079846	1.7797	0.047
523.18	5090	0.021381	0.4778	0.0463
523.18	5090	0.040814	0.915	0.0464
523.18	5090	0.059935	1.3401	0.0467
523.18	5090	0.079846	1.7767	0.0469
523.18	5090	0.021381	0.48	0.0462
523.18	5090	0.040814	0.9128	0.0464
523.18	5090	0.059935	1.3385	0.0467
523.18	5090	0.079846	1.7774	0.047
548.14	30030	0.020189	0.5036	0.0597
548.14	30030	0.040107	0.9997	0.0609
548.14	30030	0.059998	1.4918	0.0621
548.14	30030	0.080104	1.9872	0.0636
548.14	30030	0.020189	0.5036	0.0597
548.14	30030	0.040107	1	0.0609
548.14	30030	0.059998	1.4895	0.0621
548.14	30030	0.080104	1.9853	0.0636
548.14	30030	0.020189	0.5077	0.0597
548.14	30030	0.040107	0.9957	0.0609
548.14	30030	0.059998	1.4895	0.0621
548.15	7030	0.021381	0.4993	0.0581
548.15	7030	0.040107	0.9284	0.0586
548.15	7030	0.059935	1.3948	0.059
548.15	7030	0.079846	1.855	0.0594
548.15	14990	0.021381	0.5154	0.0589
548.15	14990	0.040107	0.9646	0.0595
548.15	14990	0.059935	1.4387	0.0601
548.15	14990	0.079846	1.9123	0.0608
548.15	7030	0.021381	0.4945	0.0582
548.15	7030	0.040107	0.9333	0.0586
548.15	7030	0.059935	1.3895	0.059
548.15	7030	0.079846	1.8523	0.0593
548.15	14990	0.021381	0.5176	0.0589
548.15	14990	0.040107	0.9613	0.0595
548.15	14990	0.059935	1.4393	0.0601
548.15	14990	0.079846	1.9125	0.0608
548.15	7030	0.021381	0.496	0.0582
548.15	7030	0.040107	0.9318	0.0586
548.15	7030	0.059935	1.3981	0.059
548.15	7030	0.079846	1.8478	0.0592
548.15	14990	0.021381	0.5167	0.0589
548.15	14990	0.040107	0.9675	0.0595
548.15	14990	0.059935	1.4415	0.0601
548.15	14990	0.079846	1.9071	0.0608
573.15	10220	0.020189	0.4954	0.0754
573.15	10220	0.040107	1.0064	0.0759
573.15	10220	0.059998	1.505	0.0763
573.15	10220	0.080104	2.0058	0.0768
573.15	10220	0.020189	0.5021	0.0753
573.15	10220	0.040107	0.9989	0.0758
573.15	10220	0.059998	1.5018	0.0763
573.15	10220	0.080104	2.0099	0.0769
573.15	10220	0.020189	0.5007	0.0753
573.15	10220	0.040107	1.0025	0.0759
573.15	10220	0.059998	1.4989	0.0763
573.15	10220	0.080104	2.0071	0.0768
573.16	15190	0.020189	0.5112	0.0756
573.16	15190	0.040107	1.0198	0.0763
573.16	15190	0.059998	1.5327	0.0771
573.16	15190	0.080104	2.0425	0.0777
573.16	30080	0.020189	0.5325	0.0765
573.16	30080	0.040107	1.061	0.0779
573.16	30080	0.059998	1.5891	0.0792
573.16	30080	0.080104	2.1182	0.0805
573.16	15190	0.020189	0.5098	0.0756
573.16	15190	0.040107	1.0208	0.0763
573.16	15190	0.059998	1.5351	0.0771
573.16	15190	0.080104	2.0437	0.0777
573.16	30080	0.020189	0.5334	0.0765
573.16	30080	0.040107	1.0617	0.0779
573.16	30080	0.059998	1.5871	0.0792
573.16	30080	0.080104	2.1186	0.0805
573.16	15190	0.020189	0.5108	0.0756
573.16	15190	0.040107	1.0189	0.0763
573.16	15190	0.059998	1.5313	0.0771
573.16	15190	0.080104	2.0468	0.0777
573.16	30080	0.020189	0.5338	0.0765
573.16	30080	0.040107	1.0596	0.0779
573.16	30080	0.059998	1.5868	0.0792
573.16	30080	0.080104	2.119	0.0805
