Measured thermophysical data. Crystal Structures and Thermochemical Properties of n-Nonylammonium Dihydrogen Phosphate C9H19NH3*H2PO4(s) and n-Octylammonium Dihydrogen Phosphate C8H17NH3 *H 2PO4(s)
Source: J. Chem. Eng. Data, 2011, 10.1021/je200352g
Compound 1: water, H2O, InChI=1S/H2O/h1H2, purity 99.8%
Compound 2: 1-octanaminium dihydrogen phosphate, C8H22NO4P, InChI=1S/C8H19N.H3O4P/c1-2-3-4-5-6-7-8-9;1-5(2,3)4/h2-9H2,1H3;(H3,1,2,3,4)
Compound 3: 1-nonylammonium dihydrogen phosphate, C9H24NO4P, InChI=1S/C9H21N.H3O4P/c1-2-3-4-5-6-7-8-9-10;1-5(2,3)4/h2-10H2,1H3;(H3,1,2,3,4)

System: 1-octanaminium dihydrogen phosphate; phases: Crystal
Property: Mass density, kg/m3 (Crystal); method: X-ray diffraction
Temperature, K	Pressure, kPa	Mass density, kg/m3	uncertainty
298	101.325	1282	2

System: 1-nonylammonium dihydrogen phosphate; phases: Crystal
Property: Mass density, kg/m3 (Crystal); method: X-ray diffraction
Temperature, K	Pressure, kPa	Mass density, kg/m3	uncertainty
298	101.325	1268	2

System: water + 1-nonylammonium dihydrogen phosphate; phases: Liquid
Fixed: Pressure, kPa = 101
Fixed: Temperature, K = 298.15
Property: Molar enthalpy of solution, kJ/mol (Liquid); method: ISOPERIBOL
Molality, mol/kg of 1-nonylammonium dihydrogen phosphate	Molar enthalpy of solution, kJ/mol	uncertainty
0.829	32.987	0.257
1.25	32.245	0.25
1.67	31.553	0.244
2.1	30.851	0.244
2.49	30.36	0.235
2.92	29.892	0.239
3.73	29.345	0.227
4.47	28.972	0.224
4.57	28.768	0.223
4.98	28.637	0.222
5.4	28.515	0.221
5.83	28.424	0.22
6.22	28.363	0.22
6.66	28.282	0.219
7.06	28.205	0.218
7.88	28.144	0.218
8.31	28.102	0.218

System: water + 1-octanaminium dihydrogen phosphate; phases: Liquid
Fixed: Pressure, kPa = 101
Fixed: Temperature, K = 298.15
Property: Molar enthalpy of solution, kJ/mol (Liquid); method: ISOPERIBOL
Molality, mol/kg of 1-octanaminium dihydrogen phosphate	Molar enthalpy of solution, kJ/mol	uncertainty
0.00134	21.116	0.164
0.00177	20.803	0.161
0.0022	20.486	0.167
0.00265	20.199	0.156
0.00308	19.963	0.163
0.00399	19.633	0.167
0.00442	19.489	0.151
0.00485	19.362	0.162
0.00533	19.212	0.149
0.00572	19.117	0.148
0.00617	19.018	0.147
0.00662	18.942	0.147
0.0075	18.838	0.146
0.00794	18.789	0.151
0.00837	18.753	0.145
0.00882	18.725	0.145
