Measured thermophysical data. Estimation of Physicochemical Properties of Ionic Liquids [H2N-C2mim][BF4] and [H2N-C3mim][BF4]
Source: J. Chem. Eng. Data, 2011, 10.1021/je200068x
Compound 1: 3-(2-aminoethyl)-1-methyl-1H-imidazolium tetrafluoroborate, C6H12BF4N3, InChI=1S/C6H12N3.BF4/c1-8-4-5-9(6-8)3-2-7;2-1(3,4)5/h4-6H,2-3,7H2,1H3;/q+1;-1
Compound 2: 1-(3-aminopropyl)-3-methyl-1H-imidazolium tetrafluoroborate, C7H14BF4N3, InChI=1S/C7H14N3.BF4/c1-9-5-6-10(7-9)4-2-3-8;2-1(3,4)5/h5-7H,2-4,8H2,1H3;/q+1;-1

System: 3-(2-aminoethyl)-1-methyl-1H-imidazolium tetrafluoroborate; phases: Liquid, Gas
Property: Surface tension liquid-gas, N/m (Liquid); method: Drop weight
Temperature, K	Surface tension liquid-gas, N/m	uncertainty
293.15	0.0538	0.0005
298.15	0.0535	0.0005
303.15	0.0532	0.0005
308.15	0.0524	0.0005
313.15	0.052	0.0005
318.15	0.0515	0.0005
323.15	0.0513	0.0005
328.15	0.0508	0.0005
333.15	0.0503	0.0005
338.15	0.0502	0.0005
343.15	0.0498	0.0005
348.15	0.0494	0.0005
353.15	0.0488	0.0005

System: 3-(2-aminoethyl)-1-methyl-1H-imidazolium tetrafluoroborate; phases: Liquid
Fixed: Pressure, kPa = 101.325
Property: Mass density, kg/m3 (Liquid); method: VIBTUB:UFactor:8
Temperature, K	Mass density, kg/m3	uncertainty
293.15	1427.12	2.01
298.15	1422.31	2
303.15	1418.96	1.98
308.15	1413.23	1.96
313.15	1409.18	1.95
318.15	1404.69	1.93
323.15	1401.78	1.92
328.15	1395.42	1.9
333.15	1391.77	1.89
338.15	1388.54	1.87
343.15	1384.79	1.86
348.15	1380.94	1.85
353.15	1375.11	1.83

System: 1-(3-aminopropyl)-3-methyl-1H-imidazolium tetrafluoroborate; phases: Liquid, Gas
Property: Surface tension liquid-gas, N/m (Liquid); method: Drop weight
Temperature, K	Surface tension liquid-gas, N/m	uncertainty
293.15	0.0472	0.0005
298.15	0.0471	0.0005
303.15	0.0464	0.0005
308.15	0.0462	0.0005
313.15	0.0461	0.0005
318.15	0.0454	0.0005
323.15	0.0452	0.0005
328.15	0.0448	0.0005
333.15	0.0446	0.0005
338.15	0.0441	0.0005
343.15	0.0438	0.0005
348.15	0.0434	0.0005
353.15	0.0431	0.0005

System: 1-(3-aminopropyl)-3-methyl-1H-imidazolium tetrafluoroborate; phases: Liquid
Fixed: Pressure, kPa = 101.325
Property: Mass density, kg/m3 (Liquid); method: VIBTUB:UFactor:8
Temperature, K	Mass density, kg/m3	uncertainty
293.15	1358.01	1.75
298.15	1354.6	1.74
303.15	1349.29	1.72
308.15	1345.68	1.71
313.15	1343.18	1.7
318.15	1336.97	1.68
323.15	1333.57	1.67
328.15	1328.96	1.65
333.15	1325.35	1.64
338.15	1321.05	1.62
343.15	1317.25	1.61
348.15	1313.04	1.59
353.15	1309.44	1.58
