Measured thermophysical data. Experimental Determination of Quaternary and Ternary Isobaric Vapor Liquid Liquid Equilibrium and Vapor Liquid Equilibrium for the Systems Water Ethanol Hexane Toluene and Water Hexane Toluene at 101.3 kPa
Source: J. Chem. Eng. Data, 2011, 10.1021/je2002072
Compound 1: water, H2O, InChI=1S/H2O/h1H2
Compound 2: hexane, C6H14, InChI=1S/C6H14/c1-3-5-6-4-2/h3-6H2,1-2H3, purity 99%
Compound 3: toluene, C7H8, InChI=1S/C7H8/c1-7-5-3-2-4-6-7/h2-6H,1H3, purity 99%

System: toluene + hexane + water; phases: Liquid mixture 2, Liquid mixture 1, Gas
Fixed: Pressure, kPa = 101.3
Property: Mole fraction of toluene (Liquid mixture 2); method: Chromatography
Property: Mole fraction of toluene (Liquid mixture 1); method: Chromatography
Property: Mole fraction of toluene (Gas); method: Chromatography
Property: Mole fraction of water (Liquid mixture 2); method: Chromatography
Property: Mole fraction of water (Liquid mixture 1); method: Chromatography
Property: Mole fraction of water (Gas); method: Chromatography
Temperature, K	Mole fraction of toluene	uncertainty	Mole fraction of toluene	uncertainty	Mole fraction of toluene	uncertainty	Mole fraction of water	uncertainty	Mole fraction of water	uncertainty	Mole fraction of water	uncertainty
338.65	0.2662	0.0047	0.0002	0.0002	0.071	0.004	0.0013	0.0013	0.999	0.001	0.237	0.004
341.8	0.4932	0.0055	0.0004	0.0004	0.128	0.004	0.0022	0.0022	0.999	0.001	0.28	0.005
344.92	0.7351	0.0045	0.0004	0.0004	0.186	0.004	0.0038	0.0038	0.999	0.001	0.337	0.005
351.65	0.9076	0.0041	0.0005	0.0004	0.265	0.004	0.0067	0.004	0.999	0.001	0.395	0.005
