Measured thermophysical data. Speed of sound of liquid water from (253.15 to 348.15) K and pressures up  to 700 MPa
Source: J. Chem. Eng. Data, 2011, 10.1021/je200668a
Compound 1: water, H2O, InChI=1S/H2O/h1H2

System: water; phases: Liquid
Property: Speed of sound, m/s (Liquid); method: Pulse Transmission
Pressure, kPa	Temperature, K	Speed of sound, m/s	uncertainty
100	273.05	1399.3	2
100	273.09	1399.8	2
100	273.1	1398.7	2
100	278.05	1425.1	2
100	278.15	1424.8	2
100	278.24	1425.6	2
100	288.08	1463.4	1.9
100	288.11	1461.4	2
100	288.13	1462.4	2
100	297.9	1493.8	1.9
100	298.35	1492.8	1.9
100	298.37	1492.2	2
100	308.11	1515.3	2
100	308.15	1514.3	2
100	317.92	1530.3	2
100	318.16	1530.9	2
100	318.21	1530.2	2
100	328.19	1541.1	2.2
100	328.27	1542.1	2.1
100	328.76	1543.9	2.1
100	338.02	1547.4	1.8
100	349.19	1549	1.8
100	308.15	1514.1	2
48300	278.13	1506	2
49100	318.26	1621.2	1.9
49200	273.07	1484	2
49200	278.09	1507.3	2
49300	273.01	1483.9	2
49900	349.18	1647.8	2
50000	318.17	1622.5	1.9
50100	298.2	1580.4	2
50100	337.87	1643.6	2
50200	298.34	1580.9	2
50300	273.03	1485.7	2.5
50300	308.17	1604.9	2
50400	318.12	1623.1	1.9
50600	278.21	1510.2	2
50600	297.88	1580.3	2.2
50600	308.22	1605.5	2
50600	328.17	1636.4	2.3
50800	288.08	1549.6	2
50900	288.09	1549.8	2
50900	288.15	1550.1	2
50900	328.14	1636.9	2.2
50900	328.73	1637.5	2
51000	308.13	1606	2
98500	267.81	1551.2	2.3
99500	297.99	1660.6	2.6
99500	318.07	1705.7	2.3
99600	278.15	1597.6	2.3
99700	288.17	1633.2	2.2
99700	308.14	1690.4	2.3
99700	318.21	1706.9	2.3
99800	273.18	1577.5	2.3
99800	288.16	1631.8	2.2
99800	308.17	1690	2.3
99800	328.49	1720.6	2.4
99900	278.16	1599.9	2.3
100000	273.09	1578.3	2.3
100100	328.12	1720.7	2.3
100400	298.31	1662.8	2.3
100400	298.36	1664.2	2.3
100400	349.41	1737.3	2.1
100500	267.84	1554.9	2.3
100500	273.1	1579.6	2.3
100500	337.95	1731.6	2.1
100800	267.78	1554.9	2.3
109200	278.19	1614.9	2.3
109200	328.08	1735.6	2.4
110900	288.09	1650.2	2.3
111000	308.16	1706.1	2.3
111200	318.14	1725.7	2.4
124100	262.74	1574.1	2.5
126300	262.77	1578.6	2.4
148400	262.76	1623.4	2.6
149600	267.79	1649.8	2.6
149600	267.79	1648.8	2.6
149800	262.81	1626.1	2.6
149800	288.08	1717.5	2.4
149900	308.12	1766.1	2.5
150000	328.1	1799.2	2.5
150000	337.66	1810.9	2.3
150100	278.13	1688.3	2.4
150100	278.14	1689.2	2.4
150100	318.11	1787.1	2.5
150100	328.83	1799.9	2.4
150200	273.09	1671.7	2.5
150200	273.13	1672.1	2.5
150300	288.14	1718.5	2.4
150300	308.14	1766.1	2.5
150400	273.09	1671.6	2.5
150400	318.22	1788.9	2.5
150700	262.76	1629.8	2.6
150700	298.27	1743.9	2.5
150700	349.22	1818.4	2.3
150800	267.88	1652.5	2.5
150800	298.3	1745	2.5
151000	297.88	1743.2	2.6
159900	278.19	1705.3	2.4
159900	328.16	1816	2.6
160100	288.09	1733.4	2.5
160100	308.11	1781.2	2.5
160100	318.11	1802.4	2.5
174800	262.77	1677.2	2.6
174800	262.77	1676.9	2.6
175100	257.6	1654.5	2.6
176200	257.7	1657.4	2.6
176400	257.69	1657.4	2.6
198900	252.57	1683.1	2.7
199400	252.57	1684.1	2.7
199500	257.61	1703.9	2.7
199500	267.77	1744.1	2.6
199500	267.84	1744.6	2.6
199600	257.69	1704.5	2.7
199800	262.74	1725.4	2.8
199800	262.76	1724.8	2.8
199800	298.34	1820.7	2.6
199900	257.66	1705.5	2.6
199900	267.89	1745.2	2.6
200100	252.53	1685.4	2.7
200100	278.13	1776.7	2.6
200100	328.72	1874.3	2.7
200200	288.16	1800.9	2.6
200200	297.84	1819.5	2.7
200200	318.19	1861.8	2.7
200200	328.13	1875.4	2.6
200300	273.11	1762.7	2.6
200300	278.08	1775.7	2.6
200300	288.12	1800.1	2.6
200300	308.17	1839.8	2.7
200400	308.12	1840.6	2.7
200400	318.1	1860.8	2.7
200500	273.02	1762.6	2.6
200500	337.75	1886	2.3
200600	318.02	1860.6	2.7
200700	273.08	1763.5	2.6
200700	308.12	1840.1	2.7
200700	349.68	1892.8	2.4
200800	262.81	1728.7	2.8
200800	278.12	1777.1	2.6
200800	288.11	1799.7	2.6
200800	298.16	1821.6	2.5
200900	328.17	1876.4	2.6
204800	252.53	1695.3	2.7
204900	252.56	1695.4	2.7
205200	252.5	1695.9	2.7
209900	252.5	1705.2	2.8
210100	252.52	1705.8	2.8
210100	252.52	1706	2.8
215100	252.47	1715.3	2.8
215300	252.5	1716.8	2.8
215300	252.53	1716.3	2.8
220000	252.47	1725.1	2.8
220200	252.51	1726.7	2.8
220300	252.61	1726.3	2.8
224100	257.65	1752.6	2.8
224600	257.7	1754	2.8
224600	262.76	1772.3	2.7
224800	262.65	1771.8	2.7
225000	252.55	1736.1	2.8
225100	252.53	1735.1	2.8
225100	252.59	1735.8	2.8
225300	257.59	1755	2.7
229900	252.57	1744.6	2.8
230000	252.53	1745	2.8
230000	252.53	1745.4	2.8
235100	252.51	1754.9	2.9
235200	252.54	1755.1	2.9
235200	252.57	1754.8	2.9
239200	252.54	1762.7	2.8
240000	252.5	1764.3	2.8
240100	252.53	1764.5	2.8
244900	252.52	1773.9	2.8
245000	252.54	1774.1	2.8
245400	252.51	1774.8	2.8
249200	298.29	1894.6	2.8
249400	257.67	1799.8	2.8
249400	267.8	1833.6	2.9
249500	257.69	1800.5	2.8
249600	267.87	1835	2.9
249700	262.73	1816.5	2.8
250000	288.12	1878.5	2.7
250000	318.15	1930.6	2.8
250100	278.13	1859.7	2.8
250100	328.9	1944.4	2.9
250200	257.64	1801.3	2.6
250200	278.12	1858.4	2.8
250300	273.11	1848.4	2.8
250300	297.79	1895.5	2.9
250300	338.15	1956.7	2.5
250400	318.13	1930.2	2.8
250500	288.08	1878.9	2.8
250500	308.1	1913.4	2.8
250500	308.19	1913.9	2.8
250600	262.68	1820.4	2.9
250600	273.11	1848.7	2.8
250600	278.13	1859.7	2.8
250600	318.11	1930.2	2.8
250700	273.1	1849	2.8
250700	298.31	1897.4	2.8
250700	328.18	1946.5	2.8
250700	328.19	1947.4	2.9
250800	308.15	1913.1	2.8
250900	288.13	1878.5	2.7
250900	349.3	1965	2.5
251000	262.76	1819.5	2.8
251100	267.87	1837.5	2.9
274400	257.62	1845.4	2.9
274500	262.75	1860.6	2.9
274600	262.72	1861.2	2.9
275200	257.61	1847.7	2.6
276100	257.65	1848.6	2.9
299000	298.3	1965.7	3
299400	262.73	1903.1	3
299400	267.85	1918.6	3
299400	318.1	1995.8	2.9
299600	262.74	1903.2	3
299600	267.88	1919.3	3
299700	257.67	1889.4	3
299800	262.63	1906	3
299800	288.11	1952.9	2.9
299900	257.66	1889.6	3
299900	273.11	1929.5	2.9
299900	278.1	1938.9	2.9
299900	278.12	1939.6	2.9
299900	308.1	1983.2	2.9
299900	308.12	1984.1	2.9
299900	318.12	1996.4	2.9
300000	273.12	1929.7	2.9
300000	328.15	2015.6	3.2
300000	328.69	2012.1	3.4
300100	318.1	1998.9	2.9
300200	257.67	1890.9	2.6
300300	297.83	1967.2	3
300400	267.78	1918.4	3
300400	288.13	1955.1	2.9
300400	349.22	2029.7	2.6
300500	278.16	1940	2.9
300500	298.16	1968.4	3
300500	308.08	1983.1	2.9
300600	273.08	1930.8	2.9
300700	288.07	1953.9	2.9
300700	337.85	2024	2.6
300800	328.14	2013.9	3.2
324500	262.71	1944.4	3.1
324600	262.73	1945.1	3.1
325000	257.7	1928.5	2.6
325400	257.68	1932.5	3.1
325400	257.7	1932.5	3.1
349200	288.15	2025.9	3
349200	298.05	2035.4	3
349300	257.69	1972.1	3.2
349300	278.07	2013.6	3
349400	262.71	1982.7	3.2
349400	273.09	2006.9	3.2
349400	308.09	2048.7	3.1
349500	267.88	1996.1	3.2
349600	262.73	1984.2	3.2
349600	278.08	2014.7	3
349600	288.09	2026.1	3
349600	318.09	2062.1	3.1
349600	318.1	2061	3.1
349700	267.78	1997.2	3.2
349700	267.87	1997.5	3.2
349700	273.13	2007	3.1
349800	278.17	2017.6	3
349800	308.13	2049.7	3.1
349800	349.32	2091.6	2.7
350000	257.69	1972.9	3.2
350400	273.1	2009	3.2
350500	337.69	2086.1	2.7
350600	262.76	1986.4	3.2
350600	298.12	2038.7	3.1
350700	328.08	2075.4	3.1
350800	288.08	2026.4	3
350800	318.02	2062	3.1
350900	298.28	2038.4	3
350900	308.1	2048.9	3.1
350900	328.77	2076.6	3.1
351700	328.16	2077.1	3.1
374300	262.72	2023.2	3.2
374600	257.67	2011.2	3.3
375100	262.76	2023	3.2
375300	257.68	2012.5	3.3
399100	337.69	2142.9	2.8
399300	262.76	2058.1	3.3
399600	267.79	2070.9	3.2
399600	273.12	2079.5	3.1
399600	318.13	2121.7	3.2
399700	262.78	2061.2	3.3
399700	267.86	2071.2	3.2
399700	273.08	2080.1	3.1
399700	318.06	2122.5	3.2
399700	328.16	2133	3.7
399800	288.12	2094.8	3.3
399900	262.71	2060	3.3
400000	267.82	2071.6	3.2
400000	278.08	2086.4	3.1
400000	278.09	2087.5	3.1
400000	308.09	2112.1	3.2
400100	328.22	2137.3	3.6
400300	288.08	2094.6	3.3
400300	297.89	2101.3	3.2
400400	298.24	2102.3	3.2
400400	308.06	2112.6	3.2
400500	278.1	2089.8	3.2
400500	298.15	2103.8	3.2
400500	328.72	2138.4	3.2
400700	308.12	2110.8	3.2
400700	349.28	2153	2.9
401000	273.12	2081.2	3.1
401300	288.17	2098	3.3
401300	318.16	2123.6	3.2
424300	262.72	2095.3	3.4
425600	262.74	2097.8	3.4
449200	267.87	2142.4	3.5
449200	328.74	2194.3	3.8
449300	267.8	2141.5	3.5
449300	273.12	2149.5	3.3
449300	308.07	2173.3	3.3
449400	262.74	2130.8	3.5
449700	278.09	2155.5	3.4
449700	318.14	2182.1	3.3
449800	318.1	2181.8	3.3
449800	328.21	2189.2	4.3
449900	298.42	2165.5	3.3
449900	308.14	2171.7	3.3
450200	273.12	2149.8	3.3
450300	288	2162.1	3.3
450300	298.18	2167.6	3.3
450500	262.74	2133	3.5
450500	273.1	2150.3	3.3
450500	297.9	2165.2	3.4
450600	318.18	2183.6	3.3
450700	267.84	2144.1	3.4
450800	278.12	2157.8	3.4
450800	349.35	2209.4	3
450900	278.08	2156.9	3.3
450900	308.15	2174.9	3.3
450900	328.14	2192	4.3
451000	338.12	2203.4	2.9
499100	318.17	2239.1	3.5
499400	308.15	2232.5	3.4
499400	328.16	2246.5	3.7
499400	328.92	2250.4	3.6
499500	288.1	2226.5	3.4
499500	297.8	2225.4	3.4
499500	308.09	2230.5	3.4
499600	328.08	2246.7	3.7
499700	288.1	2225.7	3.4
499700	298.43	2225.8	3.4
499700	308.21	2232.3	3.4
499800	273.07	2214.4	3.4
499800	288.15	2225.2	3.4
499800	318.17	2240.9	3.5
499900	273.13	2214.6	3.4
499900	318.19	2239.9	3.5
500000	298.15	2229.8	3.4
500100	267.84	2209.7	3.5
500300	278.05	2220.9	3.4
500400	267.79	2208.8	3.5
500400	273.1	2215.2	3.4
500400	278.1	2223.3	3.4
500500	278.09	2221.3	3.4
500600	349.12	2267.1	3
501100	337.8	2260	3
549200	298.43	2287.7	3.6
549200	318.16	2297.1	3.6
549200	349.27	2313.8	3.1
549400	318.17	2295.5	3.6
549600	308.19	2291	3.6
549600	338.22	2309.8	3.1
549700	297.79	2286.1	3.7
549700	308.17	2292.4	3.6
550200	273.11	2281.4	3.5
550300	273.12	2276.8	3.5
550500	273.1	2281.3	3.5
550600	278.13	2284.7	3.5
550700	328.07	2301.2	3.7
550800	278.09	2286.8	3.6
551000	328.72	2304.7	3.7
551300	298.11	2287	3.6
559300	318.16	2305.4	3.6
559700	308.09	2301.4	3.6
560500	327.96	2312.8	3.6
561300	288.17	2300.1	3.6
561500	278.11	2297.2	3.6
599100	318.12	2350.3	3.7
599200	298.1	2344.5	3.7
599300	278.17	2344.6	3.7
599500	273.12	2342	3.7
599500	288.09	2345.8	3.7
599600	308.13	2344.5	3.8
599600	308.22	2346.6	3.7
599600	318.12	2346.3	3.7
599900	288.11	2344.8	3.7
600700	278.12	2347.6	3.7
600900	288.07	2346.8	3.7
601100	338.04	2360.1	3.2
601200	328.16	2355.9	3.7
601300	328.76	2354.9	3.7
601700	297.82	2346.1	3.8
601700	308.1	2349.8	3.8
601700	349.03	2366	3.2
601800	298.45	2347.7	3.7
601900	328.16	2353.3	3.7
602100	273.1	2345.3	3.7
602100	278.08	2346.8	3.7
602100	318.21	2348.1	3.7
639800	308.16	2388.9	3.8
640200	278.11	2390.8	3.8
640700	288.17	2391.2	3.8
641400	327.92	2396.1	3.8
641800	318.12	2388.1	3.8
650000	278.12	2402.2	3.8
650600	338.07	2410.2	3.3
650700	308.11	2402.3	3.8
650700	328.66	2404.5	3.8
650800	308.09	2402.2	3.8
651000	318.15	2405.8	3.8
651200	318.19	2401.2	3.8
651400	349.59	2412.5	3.3
651700	298.41	2400.7	3.8
651900	278.17	2402.7	3.8
652700	328.21	2406.9	3.8
653200	297.78	2402.2	3.8
659800	298.09	2412.6	3.8
698500	308.1	2446.7	3.9
699000	298.38	2448	3.9
699800	288.08	2453.6	4
699900	298.07	2450.3	3.9
700100	328.16	2453.2	4
700200	278.09	2439.8	4.9
700400	328.77	2453.8	4
700600	278.19	2446.5	3.9
700800	288.11	2455.2	4.1
700800	338.22	2455.7	3.4
701000	288.13	2453.9	4
701300	278.17	2451	4.9
701600	308.14	2447.4	3.9
701700	318.19	2454.7	3.9
701700	327.97	2451.4	4
701800	318.14	2454.2	3.9
702200	297.74	2448.7	3.9
702400	318.18	2453.8	3.9
703600	308.09	2441.6	4
704500	349.72	2445.1	3.4
