Measured thermophysical data. Experimental Measurement and Equation of State Modeling of Liquid  Saturated Properties (Solubility, Density, and Viscosity) of (Ethane + n-  Octadecane) Binary Systems
Source: J. Chem. Eng. Data, 2012, 10.1021/je200787v
Compound 1: ethane, C2H6, InChI=1S/C2H6/c1-2/h1-2H3, purity 99.999%
Compound 2: octadecane, C18H38, InChI=1S/C18H38/c1-3-5-7-9-11-13-15-17-18-16-14-12-10-8-6-4-2/h3-18H2,1-2H3, purity 99%

System: octadecane; phases: Liquid, Gas
Property: Mass density, kg/m3 (Liquid); method: VIBTUB:UFactor:32
Temperature, K	Mass density, kg/m3	uncertainty
323.1	755	4
323.1	756	4
323.1	757	4
323.1	758	4
323.3	756	4
323.3	757	4
372.8	730	5
372.8	731	5
372.8	731	5
372.8	733	5
372.8	733	5
372.8	734	5
372.8	735	5
372.8	736	5
422.5	703	5
422.5	704	5
422.6	695	5
422.6	697	5
422.6	699	5
422.6	700	5
422.6	701	5
422.6	702	5

System: ethane + octadecane; phases: Liquid, Gas
Property: Viscosity, Pa*s (Liquid); method: Falling or rolling sphere viscometry
Temperature, K	Mole fraction of ethane	Viscosity, Pa*s	uncertainty
323.1	0.27	0.00159	0.00016
323.1	0.415	0.00109	0.00011
323.1	0.789	0.00031	3e-05
323.1	0.844	0.00023	2e-05
323.3	0.546	0.00081	8e-05
323.3	0.654	0.00055	6e-05
372.8	0.127	0.00087	9e-05
372.8	0.298	0.0007	7e-05
372.8	0.372	0.00062	6e-05
372.8	0.474	0.00052	5e-05
372.8	0.536	0.00046	5e-05
372.8	0.599	0.00039	4e-05
372.8	0.666	0.00032	3e-05
372.8	0.701	0.00029	3e-05
422.5	0.547	0.00029	3e-05
422.5	0.588	0.00027	3e-05
422.6	0.096	0.00055	6e-05
422.6	0.194	0.00049	5e-05
422.6	0.296	0.00043	4e-05
422.6	0.365	0.0004	4e-05
422.6	0.427	0.00037	4e-05
422.6	0.477	0.00033	3e-05

System: ethane + octadecane; phases: Liquid, Gas
Property: Vapor or sublimation pressure, kPa (Liquid); method: CCELL:UFactor:8
Temperature, K	Mole fraction of ethane	Vapor or sublimation pressure, kPa	uncertainty
323.1	0.27	1150	40
323.1	0.415	1950	50
323.1	0.789	5230	130
323.1	0.844	5890	150
323.3	0.546	3010	80
323.3	0.654	3970	100
372.8	0.127	940	30
372.8	0.298	2180	60
372.8	0.372	2920	80
372.8	0.474	4080	100
372.8	0.536	4940	130
372.8	0.599	5980	150
372.8	0.666	7120	180
372.8	0.701	7980	200
422.5	0.547	7160	180
422.5	0.588	8170	210
422.6	0.096	950	40
422.6	0.194	1930	50
422.6	0.296	3060	80
422.6	0.365	3970	100
422.6	0.427	5000	130
422.6	0.477	5940	150

System: ethane + octadecane; phases: Liquid, Gas
Property: Mass density, kg/m3 (Liquid); method: Vibrating tube method
Temperature, K	Mole fraction of ethane	Mass density, kg/m3	uncertainty
323.1	0.27	732	2
323.1	0.415	715	2
323.1	0.789	606	2
323.1	0.844	572	2
323.3	0.546	691	2
323.3	0.654	662	2
372.8	0.127	719	2
372.8	0.298	703	2
372.8	0.372	692	2
372.8	0.474	676	2
372.8	0.536	664	2
372.8	0.599	648	2
372.8	0.666	628	2
372.8	0.701	614	2
422.5	0.547	624	2
422.5	0.588	613	2
422.6	0.096	688	2
422.6	0.194	679	2
422.6	0.296	667	2
422.6	0.365	659	2
422.6	0.427	648	2
422.6	0.477	640	2
