Measured thermophysical data. Densities, Refractive Indices and Excess Properties of  Binary Mixtures of 1-Butyl-3-Methylimidazolium  Tetraflouroborate with Water and Monoethanolamine
Source: J. Chem. Eng. Data, 2012, 10.1021/je2007204
Compound 1: 1-butyl-3-methylimidazolium tetrafluoroborate, C8H15BF4N2, InChI=1S/C8H15N2.BF4/c1-3-4-5-10-7-6-9(2)8-10;2-1(3,4)5/h6-8H,3-5H2,1-2H3;/q+1;-1, purity 99%
Compound 2: 2-aminoethan-1-ol, C2H7NO, InChI=1S/C2H7NO/c3-1-2-4/h4H,1-3H2, purity 99%
Compound 3: water, H2O, InChI=1S/H2O/h1H2, purity 99.9%

System: 1-butyl-3-methylimidazolium tetrafluoroborate; phases: Liquid
Fixed: Pressure, kPa = 101.325
Property: Refractive index (Na D-line) (Liquid); method: ABBE:UFactor:2
Temperature, K	Refractive index (Na D-line)	uncertainty
293.15	1.42592	0.00065
298.15	1.42475	0.00065
303.15	1.42369	0.00065
313.15	1.42128	0.00065
323.15	1.419	0.00065
333.15	1.41656	0.00065
343.15	1.41388	0.00065
353.15	1.41135	0.00065

System: 1-butyl-3-methylimidazolium tetrafluoroborate; phases: Liquid
Fixed: Pressure, kPa = 101
Property: Mass density, kg/m3 (Liquid); method: VIBTUB:UFactor:4
Temperature, K	Mass density, kg/m3	uncertainty
293.15	1204.16	0.73
298.15	1200.57	0.72
303.15	1196.98	0.72
313.15	1189.86	0.7
323.15	1182.81	0.69
333.15	1175.83	0.67
343.15	1168.9	0.66
353.15	1162.04	0.65

System: 2-aminoethan-1-ol; phases: Liquid
Fixed: Pressure, kPa = 101.325
Property: Refractive index (Na D-line) (Liquid); method: ABBE:UFactor:2
Temperature, K	Refractive index (Na D-line)	uncertainty
293.15	1.45601	0.00065
298.15	1.45432	0.00065
303.15	1.45273	0.00065
313.15	1.44913	0.00065
323.15	1.44561	0.00065
333.15	1.44213	0.00065
343.15	1.43862	0.00065
353.15	1.43472	0.00065

System: 2-aminoethan-1-ol; phases: Liquid
Fixed: Pressure, kPa = 101
Property: Mass density, kg/m3 (Liquid); method: VIBTUB:UFactor:4
Temperature, K	Mass density, kg/m3	uncertainty
293.15	1016.43	0.35
298.15	1013.01	0.35
303.15	1009.7	0.34
313.15	1002.47	0.33
323.15	994.8	0.33
333.15	986.75	0.34
343.15	978.62	0.35
353.15	970.4	0.36

System: water; phases: Liquid
Fixed: Pressure, kPa = 101.325
Property: Refractive index (Na D-line) (Liquid); method: ABBE:UFactor:2
Temperature, K	Refractive index (Na D-line)	uncertainty
293.15	1.33693	0.00062
298.15	1.33607	0.00062
303.15	1.33549	0.00062
313.15	1.33422	0.00062
323.15	1.33264	0.00062
333.15	1.33085	0.00062
343.15	1.32881	0.00062
353.15	1.32665	0.00062

System: water; phases: Liquid
Fixed: Pressure, kPa = 101
Property: Mass density, kg/m3 (Liquid); method: VIBTUB::UFactor:4
Temperature, K	Mass density, kg/m3	uncertainty
293.15	998.22	0.14
298.15	997.05	0.14
303.15	995.7	0.15
313.15	992.2	0.15
323.15	988.1	0.15
333.15	983.2	0.16
343.15	977.8	0.17
353.15	971.8	0.18

System: water + 1-butyl-3-methylimidazolium tetrafluoroborate; phases: Liquid
Fixed: Pressure, kPa = 101
Property: Refractive index (Na D-line) (Liquid); method: ABBE:UFactor:2
Temperature, K	Mole fraction of 1-butyl-3-methylimidazolium tetrafluoroborate	Refractive index (Na D-line)	uncertainty
293.15	0	1.33693	0.00062
293.15	0.1	1.38272	0.00064
293.15	0.2	1.3991	0.00062
293.15	0.295	1.40761	0.00062
293.15	0.4016	1.41358	0.00063
293.15	0.5002	1.41743	0.00063
293.15	0.5963	1.42022	0.00063
293.15	0.6997	1.42207	0.00064
293.15	0.8014	1.4237	0.00064
293.15	0.8988	1.42561	0.00065
293.15	1	1.42592	0.00065
298.15	0	1.33607	0.00062
298.15	0.1	1.38145	0.00062
298.15	0.2	1.39788	0.00062
298.15	0.295	1.40608	0.00063
298.15	0.4016	1.41195	0.00063
298.15	0.5002	1.41595	0.00063
298.15	0.5963	1.41855	0.00063
298.15	0.6997	1.4207	0.00064
298.15	0.8014	1.42246	0.00064
298.15	0.8988	1.42423	0.00065
298.15	1	1.42475	0.00065
303.15	0	1.33549	0.00062
303.15	0.1	1.38027	0.00062
303.15	0.2	1.39671	0.00062
303.15	0.295	1.40456	0.00062
303.15	0.4016	1.41044	0.00063
303.15	0.5002	1.4146	0.00063
303.15	0.5963	1.41703	0.00063
303.15	0.6997	1.41934	0.00064
303.15	0.8014	1.4212	0.00064
303.15	0.8988	1.42291	0.00065
303.15	1	1.42369	0.00065
313.15	0	1.33422	0.00062
313.15	0.1	1.37772	0.00062
313.15	0.2	1.39427	0.00062
313.15	0.295	1.40199	0.00062
313.15	0.4016	1.40774	0.00063
313.15	0.5002	1.41185	0.00063
313.15	0.5963	1.41448	0.00063
313.15	0.6997	1.41686	0.00064
313.15	0.8014	1.41879	0.00064
313.15	0.8988	1.42027	0.00065
313.15	1	1.42128	0.00065
323.15	0	1.33264	0.00062
323.15	0.1	1.37539	0.00062
323.15	0.2	1.39171	0.00062
323.15	0.295	1.39962	0.00062
323.15	0.4016	1.40524	0.00063
323.15	0.5002	1.40933	0.00063
323.15	0.5963	1.41195	0.00063
323.15	0.6997	1.41433	0.00064
323.15	0.8014	1.41642	0.00064
323.15	0.8988	1.41763	0.00065
323.15	1	1.419	0.00065
333.15	0	1.33085	0.00062
333.15	0.1	1.373	0.00062
333.15	0.2	1.3888	0.00062
333.15	0.295	1.39679	0.00062
333.15	0.4016	1.40255	0.00063
333.15	0.5002	1.40661	0.00063
333.15	0.5963	1.40958	0.00063
333.15	0.6997	1.4118	0.00064
333.15	0.8014	1.41396	0.00064
333.15	0.8988	1.41509	0.00065
333.15	1	1.41656	0.00065
343.15	0	1.32881	0.00062
343.15	0.1	1.37053	0.00062
343.15	0.2	1.386	0.00062
343.15	0.295	1.39386	0.00063
343.15	0.4016	1.39999	0.00063
343.15	0.5002	1.404	0.00063
343.15	0.5963	1.40693	0.00063
343.15	0.6997	1.4093	0.00064
343.15	0.8014	1.41123	0.00064
343.15	0.8988	1.41244	0.00065
343.15	1	1.41388	0.00065
353.15	0	1.32665	0.00062
353.15	0.1	1.36796	0.00063
353.15	0.2	1.38301	0.00062
353.15	0.295	1.39093	0.00063
353.15	0.4016	1.39746	0.00063
353.15	0.5002	1.40138	0.00063
353.15	0.5963	1.40435	0.00063
353.15	0.6997	1.40688	0.00064
353.15	0.8014	1.40884	0.00064
353.15	0.8988	1.41003	0.00065
353.15	1	1.41135	0.00065

System: water + 1-butyl-3-methylimidazolium tetrafluoroborate; phases: Liquid
Fixed: Pressure, kPa = 101
Property: Mass density, kg/m3 (Liquid); method: VIBTUB:UFactor:4
Temperature, K	Mole fraction of 1-butyl-3-methylimidazolium tetrafluoroborate	Mass density, kg/m3	uncertainty
293.15	0	998.22	0.14
293.15	0.1	1103.69	0.31
293.15	0.2	1140.95	0.37
293.15	0.295	1159.58	0.41
293.15	0.4016	1172.98	0.45
293.15	0.5002	1181.6	0.49
293.15	0.5963	1188.01	0.53
293.15	0.6997	1193.37	0.58
293.15	0.8014	1197.82	0.62
293.15	0.8988	1201.32	0.67
293.15	1	1204.16	0.73
298.15	0	997.05	0.14
298.15	0.1	1100.4	0.3
298.15	0.2	1137.32	0.36
298.15	0.295	1155.86	0.41
298.15	0.4016	1169.24	0.45
298.15	0.5002	1177.93	0.49
298.15	0.5963	1184.35	0.52
298.15	0.6997	1189.7	0.57
298.15	0.8014	1194.22	0.62
298.15	0.8988	1197.72	0.67
298.15	1	1200.57	0.72
303.15	0	995.7	0.15
303.15	0.1	1097.03	0.29
303.15	0.2	1133.42	0.36
303.15	0.295	1152.11	0.4
303.15	0.4016	1165.47	0.44
303.15	0.5002	1174.25	0.48
303.15	0.5963	1180.72	0.52
303.15	0.6997	1186.07	0.56
303.15	0.8014	1190.61	0.61
303.15	0.8988	1194.12	0.66
303.15	1	1196.98	0.72
313.15	0	992.2	0.15
313.15	0.1	1090.58	0.28
313.15	0.2	1126.58	0.35
313.15	0.295	1145.11	0.39
313.15	0.4016	1158.53	0.43
313.15	0.5002	1167.1	0.47
313.15	0.5963	1173.45	0.51
313.15	0.6997	1178.9	0.55
313.15	0.8014	1183.45	0.6
313.15	0.8988	1186.99	0.65
313.15	1	1189.86	0.7
323.15	0	988.1	0.15
323.15	0.1	1083.38	0.27
323.15	0.2	1119.48	0.34
323.15	0.295	1137.93	0.38
323.15	0.4016	1151.47	0.42
323.15	0.5002	1159.87	0.46
323.15	0.5963	1166.22	0.49
323.15	0.6997	1171.68	0.54
323.15	0.8014	1176.35	0.58
323.15	0.8988	1179.92	0.63
323.15	1	1182.81	0.69
333.15	0	983.2	0.16
333.15	0.1	1076.05	0.26
333.15	0.2	1112.33	0.32
333.15	0.295	1130.8	0.37
333.15	0.4016	1144.35	0.41
333.15	0.5002	1152.77	0.44
333.15	0.5963	1159.03	0.48
333.15	0.6997	1164.61	0.52
333.15	0.8014	1169.29	0.57
333.15	0.8988	1172.91	0.62
333.15	1	1175.83	0.67
343.15	0	977.8	0.17
343.15	0.1	1068.66	0.25
343.15	0.2	1105.12	0.31
343.15	0.295	1123.82	0.35
343.15	0.4016	1137.32	0.4
343.15	0.5002	1145.79	0.43
343.15	0.5963	1152.06	0.47
343.15	0.6997	1157.55	0.51
343.15	0.8014	1162.29	0.56
343.15	0.8988	1165.95	0.61
343.15	1	1168.9	0.66
353.15	0	971.8	0.18
353.15	0.1	1061.4	0.24
353.15	0.2	1097.86	0.3
353.15	0.295	1116.77	0.34
353.15	0.4016	1130.24	0.38
353.15	0.5002	1138.72	0.42
353.15	0.5963	1144.99	0.46
353.15	0.6997	1150.52	0.5
353.15	0.8014	1155.34	0.55
353.15	0.8988	1159.04	0.59
353.15	1	1162.04	0.65

System: 2-aminoethan-1-ol + 1-butyl-3-methylimidazolium tetrafluoroborate; phases: Liquid
Fixed: Pressure, kPa = 101
Property: Refractive index (Na D-line) (Liquid); method: ABBE:UFactor:2
Temperature, K	Mole fraction of 1-butyl-3-methylimidazolium tetrafluoroborate	Refractive index (Na D-line)	uncertainty
293.15	0	1.45601	0.00065
293.15	0.0999	1.44991	0.00065
293.15	0.2001	1.44389	0.00065
293.15	0.2994	1.4394	0.00065
293.15	0.4004	1.43589	0.00065
293.15	0.4999	1.43332	0.00065
293.15	0.5994	1.43129	0.00065
293.15	0.7005	1.42954	0.00065
293.15	0.7992	1.4282	0.00065
293.15	0.9002	1.42712	0.00065
293.15	1	1.42592	0.00065
298.15	0	1.45432	0.00065
298.15	0.0999	1.44855	0.00065
298.15	0.2001	1.44225	0.00065
298.15	0.2994	1.43802	0.00065
298.15	0.4004	1.43458	0.00065
298.15	0.4999	1.43184	0.00065
298.15	0.5994	1.4299	0.00065
298.15	0.7005	1.42799	0.00065
298.15	0.7992	1.42688	0.00065
298.15	0.9002	1.42585	0.00065
298.15	1	1.42475	0.00065
303.15	0	1.45273	0.00065
303.15	0.0999	1.44655	0.00065
303.15	0.2001	1.44075	0.00065
303.15	0.2994	1.43648	0.00065
303.15	0.4004	1.43322	0.00065
303.15	0.4999	1.43027	0.00065
303.15	0.5994	1.42855	0.00065
303.15	0.7005	1.42689	0.00065
303.15	0.7992	1.42559	0.00065
303.15	0.9002	1.42429	0.00065
303.15	1	1.42369	0.00065
313.15	0	1.44913	0.00065
313.15	0.0999	1.44309	0.00065
313.15	0.2001	1.43765	0.00065
313.15	0.2994	1.43333	0.00065
313.15	0.4004	1.43025	0.00065
313.15	0.4999	1.42753	0.00065
313.15	0.5994	1.42573	0.00065
313.15	0.7005	1.42416	0.00065
313.15	0.7992	1.42296	0.00065
313.15	0.9002	1.42206	0.00065
313.15	1	1.42128	0.00065
323.15	0	1.44561	0.00065
323.15	0.0999	1.43978	0.00065
323.15	0.2001	1.43437	0.00065
323.15	0.2994	1.4302	0.00065
323.15	0.4004	1.42717	0.00065
323.15	0.4999	1.42445	0.00065
323.15	0.5994	1.42292	0.00065
323.15	0.7005	1.42148	0.00065
323.15	0.7992	1.42032	0.00065
323.15	0.9002	1.41932	0.00065
323.15	1	1.419	0.00065
333.15	0	1.44213	0.00065
333.15	0.0999	1.43631	0.00065
333.15	0.2001	1.43077	0.00065
333.15	0.2994	1.4275	0.00065
333.15	0.4004	1.42422	0.00065
333.15	0.4999	1.42184	0.00065
333.15	0.5994	1.42014	0.00065
333.15	0.7005	1.4188	0.00065
333.15	0.7992	1.41775	0.00065
333.15	0.9002	1.41707	0.00065
333.15	1	1.41656	0.00065
343.15	0	1.43862	0.00065
343.15	0.0999	1.43291	0.00065
343.15	0.2001	1.42766	0.00065
343.15	0.2994	1.4241	0.00065
343.15	0.4004	1.4213	0.00065
343.15	0.4999	1.41904	0.00065
343.15	0.5994	1.41739	0.00065
343.15	0.7005	1.41605	0.00065
343.15	0.7992	1.4153	0.00065
343.15	0.9002	1.41397	0.00065
343.15	1	1.41388	0.00065
353.15	0	1.43472	0.00065
353.15	0.0999	1.4297	0.00065
353.15	0.2001	1.42456	0.00065
353.15	0.2994	1.42104	0.00065
353.15	0.4004	1.41839	0.00065
353.15	0.4999	1.41617	0.00065
353.15	0.5994	1.4149	0.00065
353.15	0.7005	1.41357	0.00065
353.15	0.7992	1.41267	0.00065
353.15	0.9002	1.41202	0.00065
353.15	1	1.41135	0.00065

System: 2-aminoethan-1-ol + 1-butyl-3-methylimidazolium tetrafluoroborate; phases: Liquid
Fixed: Pressure, kPa = 101
Property: Mass density, kg/m3 (Liquid); method: VIBTUB:UFactor:4
Temperature, K	Mole fraction of 1-butyl-3-methylimidazolium tetrafluoroborate	Mass density, kg/m3	uncertainty
293.15	0	1016.43	0.35
293.15	0.0999	1064.67	0.45
293.15	0.2001	1096.43	0.52
293.15	0.2994	1122.25	0.57
293.15	0.4004	1141.93	0.61
293.15	0.4999	1156.55	0.64
293.15	0.5994	1169.02	0.66
293.15	0.7005	1179.49	0.68
293.15	0.7992	1188.1	0.7
293.15	0.9002	1196.52	0.71
293.15	1	1204.16	0.73
298.15	0	1013.01	0.35
298.15	0.0999	1060.78	0.44
298.15	0.2001	1092.38	0.51
298.15	0.2994	1118.37	0.56
298.15	0.4004	1138.1	0.6
298.15	0.4999	1152.55	0.63
298.15	0.5994	1164.95	0.65
298.15	0.7005	1175.54	0.67
298.15	0.7992	1184.12	0.69
298.15	0.9002	1192.89	0.71
298.15	1	1200.57	0.72
303.15	0	1009.7	0.34
303.15	0.0999	1056.87	0.44
303.15	0.2001	1088.49	0.5
303.15	0.2994	1114.47	0.55
303.15	0.4004	1134.29	0.59
303.15	0.4999	1148.67	0.62
303.15	0.5994	1160.91	0.64
303.15	0.7005	1171.48	0.66
303.15	0.7992	1180.17	0.68
303.15	0.9002	1189.25	0.7
303.15	1	1196.98	0.72
313.15	0	1002.47	0.33
313.15	0.0999	1049.01	0.42
313.15	0.2001	1080.64	0.48
313.15	0.2994	1106.67	0.54
313.15	0.4004	1126.56	0.58
313.15	0.4999	1141	0.61
313.15	0.5994	1153.35	0.63
313.15	0.7005	1163.93	0.65
313.15	0.7992	1172.72	0.67
313.15	0.9002	1182.05	0.69
313.15	1	1189.86	0.7
323.15	0	994.8	0.33
323.15	0.0999	1041.11	0.4
323.15	0.2001	1072.78	0.47
323.15	0.2994	1098.87	0.52
323.15	0.4004	1119.05	0.56
323.15	0.4999	1133.47	0.59
323.15	0.5994	1145.85	0.61
323.15	0.7005	1156.34	0.63
323.15	0.7992	1165.25	0.65
323.15	0.9002	1174.92	0.67
323.15	1	1182.81	0.69
333.15	0	986.75	0.34
333.15	0.0999	1033.18	0.39
333.15	0.2001	1064.89	0.45
333.15	0.2994	1091.18	0.51
333.15	0.4004	1111.56	0.55
333.15	0.4999	1126.18	0.58
333.15	0.5994	1138.4	0.6
333.15	0.7005	1148.82	0.62
333.15	0.7992	1157.95	0.64
333.15	0.9002	1167.85	0.66
333.15	1	1175.83	0.67
343.15	0	978.62	0.35
343.15	0.0999	1025.21	0.37
343.15	0.2001	1056.98	0.44
343.15	0.2994	1083.58	0.49
343.15	0.4004	1104.01	0.53
343.15	0.4999	1118.83	0.56
343.15	0.5994	1131	0.58
343.15	0.7005	1141.37	0.6
343.15	0.7992	1150.51	0.62
343.15	0.9002	1160.85	0.64
343.15	1	1168.9	0.66
353.15	0	970.4	0.36
353.15	0.0999	1017.17	0.36
353.15	0.2001	1049.06	0.42
353.15	0.2994	1075.91	0.48
353.15	0.4004	1096.67	0.52
353.15	0.4999	1111.53	0.55
353.15	0.5994	1123.65	0.57
353.15	0.7005	1134.16	0.59
353.15	0.7992	1143.22	0.61
353.15	0.9002	1153.9	0.63
353.15	1	1162.04	0.65
