Measured thermophysical data. Antisolvent Precipitation of Vitamin B6: A Thermodynamic Study
Source: J. Chem. Eng. Data, 2011, 10.1021/je200853g
Compound 1: 5-hydroxy-6-methyl-3,4-pyridinedimethanol, C8H11NO3, InChI=1S/C8H11NO3/c1-5-8(12)7(4-11)6(3-10)2-9-5/h2,10-12H,3-4H2,1H3, purity 98%
Compound 2: tetrahydrofuran, C4H8O, InChI=1S/C4H8O/c1-2-4-5-3-1/h1-4H2
Compound 3: acetone, C3H6O, InChI=1S/C3H6O/c1-3(2)4/h1-2H3
Compound 4: ethanol, C2H6O, InChI=1S/C2H6O/c1-2-3/h3H,2H2,1H3
Compound 5: methanol, CH4O, InChI=1S/CH4O/c1-2/h2H,1H3

System: 5-hydroxy-6-methyl-3,4-pyridinedimethanol; phases: Crystal, Liquid, Air at 1 atmosphere
Property: Molar enthalpy of transition or fusion, kJ/mol (Crystal); method: DSC
Molar enthalpy of transition or fusion, kJ/mol	uncertainty
31.15	0.91

System: 5-hydroxy-6-methyl-3,4-pyridinedimethanol; phases: Crystal, Liquid, Air at 1 atmosphere
Property: Triple point temperature, K (Crystal); method: DTA
Triple point temperature, K	uncertainty
433.18	0.5

System: 5-hydroxy-6-methyl-3,4-pyridinedimethanol + tetrahydrofuran; phases: Liquid, Crystal
Fixed: Pressure, kPa = 101
Property: Mole fraction of 5-hydroxy-6-methyl-3,4-pyridinedimethanol (Liquid); method: spectrophotometrically
Temperature, K	Mole fraction of 5-hydroxy-6-methyl-3,4-pyridinedimethanol	uncertainty
298	0.0024	0.00017
308	0.00249	0.00018
310	0.00253	0.00018
313	0.00271	0.00019

System: 5-hydroxy-6-methyl-3,4-pyridinedimethanol + acetone; phases: Liquid, Crystal
Fixed: Pressure, kPa = 101
Property: Mole fraction of 5-hydroxy-6-methyl-3,4-pyridinedimethanol (Liquid); method: spectrophotometer
Temperature, K	Mole fraction of 5-hydroxy-6-methyl-3,4-pyridinedimethanol	uncertainty
298	0.00127	9e-05
308	0.00131	9e-05
310	0.00135	0.0001
313	0.00136	0.0001

System: ethanol + 5-hydroxy-6-methyl-3,4-pyridinedimethanol; phases: Liquid, Crystal
Fixed: Pressure, kPa = 101
Property: Mole fraction of 5-hydroxy-6-methyl-3,4-pyridinedimethanol (Liquid); method: spectrophotometer
Temperature, K	Mole fraction of 5-hydroxy-6-methyl-3,4-pyridinedimethanol	uncertainty
298	0.00363	0.00026
308	0.0038	0.00027
310	0.00384	0.00027
313	0.00396	0.00028

System: 5-hydroxy-6-methyl-3,4-pyridinedimethanol + methanol; phases: Liquid, Crystal
Fixed: Pressure, kPa = 101
Property: Mole fraction of 5-hydroxy-6-methyl-3,4-pyridinedimethanol (Liquid); method: spectrophotometer
Temperature, K	Mole fraction of 5-hydroxy-6-methyl-3,4-pyridinedimethanol	uncertainty
298	0.01585	0.00113
308	0.02447	0.00175
310	0.02468	0.00177
313	0.02517	0.0018
