Measured thermophysical data. Vapor-Liquid Equilibria of Binary Mixtures Containing 1-Butanol and Hydrocarbons at 313.15 K
Source: J. Chem. Eng. Data, 2012, 10.1021/je200840e
Compound 1: butan-1-ol, C4H10O, InChI=1S/C4H10O/c1-2-3-4-5/h5H,2-4H2,1H3, purity 99.8%
Compound 2: heptane, C7H16, InChI=1S/C7H16/c1-3-5-7-6-4-2/h3-7H2,1-2H3, purity 99.8%
Compound 3: cyclohexane, C6H12, InChI=1S/C6H12/c1-2-4-6-5-3-1/h1-6H2, purity 99.9%
Compound 4: toluene, C7H8, InChI=1S/C7H8/c1-7-5-3-2-4-6-7/h2-6H,1H3, purity 99.9%
Compound 5: 2,2,4-trimethylpentane, C8H18, InChI=1S/C8H18/c1-7(2)6-8(3,4)5/h7H,6H2,1-5H3, purity 99.7%
Compound 6: dodecane, C12H26, InChI=1S/C12H26/c1-3-5-7-9-11-12-10-8-6-4-2/h3-12H2,1-2H3, purity 99.7%

System: butan-1-ol; phases: Liquid, Gas
Fixed: Temperature, K = 313.15
Property: Vapor or sublimation pressure, kPa (Liquid); method: Closed cell (Static) method
Vapor or sublimation pressure, kPa	uncertainty
2.514	0.024
2.547	0.024
2.496	0.024
2.507	0.024
2.492	0.024

System: heptane; phases: Liquid, Gas
Property: Vapor or sublimation pressure, kPa (Liquid); method: Closed cell (Static) method
Temperature, K	Vapor or sublimation pressure, kPa	uncertainty
313.15	12.326	0.055

System: cyclohexane; phases: Liquid, Gas
Property: Vapor or sublimation pressure, kPa (Liquid); method: Closed cell (Static) method
Temperature, K	Vapor or sublimation pressure, kPa	uncertainty
313.15	24.634	0.095

System: toluene; phases: Liquid, Gas
Property: Vapor or sublimation pressure, kPa (Liquid); method: Closed cell (Static) method
Temperature, K	Vapor or sublimation pressure, kPa	uncertainty
313.15	7.877	0.041

System: 2,2,4-trimethylpentane; phases: Liquid, Gas
Property: Vapor or sublimation pressure, kPa (Liquid); method: Closed cell (Static) method
Temperature, K	Vapor or sublimation pressure, kPa	uncertainty
313.15	13.009	0.058

System: dodecane; phases: Liquid, Gas
Property: Vapor or sublimation pressure, kPa (Liquid); method: Closed cell (Static) method
Temperature, K	Vapor or sublimation pressure, kPa	uncertainty
313.15	0.058	0.01

System: butan-1-ol + heptane; phases: Liquid, Gas
Fixed: Temperature, K = 313.15
Property: Vapor or sublimation pressure, kPa (Liquid); method: Closed cell (Static) method
Mole fraction of butan-1-ol	Vapor or sublimation pressure, kPa	uncertainty
0	12.326	0.055
0.0518	13.155	0.058
0.0958	13.222	0.058
0.1459	13.2	0.058
0.1945	13.15	0.058
0.2437	13.089	0.058
0.2939	12.988	0.057
0.3433	12.883	0.057
0.3933	12.76	0.057
0.4	12.755	0.057
0.4432	12.62	0.056
0.4501	12.613	0.056
0.4932	12.451	0.056
0.4964	12.459	0.056
0.5436	12.258	0.055
0.5504	12.253	0.055
0.5934	12.019	0.054
0.6003	11.995	0.054
0.6507	11.659	0.053
0.7004	11.228	0.052
0.7509	10.651	0.05
0.8011	9.87	0.047
0.8513	8.806	0.044
0.9017	7.337	0.04
0.9519	5.284	0.034
1	2.514	0.024

System: butan-1-ol + 2,2,4-trimethylpentane; phases: Liquid, Gas
Fixed: Temperature, K = 313.15
Property: Vapor or sublimation pressure, kPa (Liquid); method: Closed cell (Static) method
Mole fraction of butan-1-ol	Vapor or sublimation pressure, kPa	uncertainty
0	13.009	0.058
0.0509	13.662	0.06
0.0981	13.709	0.06
0.1495	13.662	0.06
0.1993	13.624	0.06
0.2497	13.522	0.059
0.2992	13.423	0.059
0.3499	13.298	0.059
0.4003	13.147	0.058
0.4007	13.17	0.058
0.4501	12.965	0.058
0.451	13.019	0.058
0.5008	12.756	0.057
0.5012	12.83	0.057
0.5504	12.538	0.056
0.5524	12.581	0.056
0.6002	12.283	0.055
0.6339	12.035	0.054
0.6508	11.934	0.054
0.7005	11.474	0.053
0.7511	10.866	0.051
0.7999	10.105	0.048
0.8493	9.092	0.045
0.8969	7.735	0.041
0.9528	5.389	0.034
1	2.547	0.024

System: butan-1-ol + dodecane; phases: Liquid, Gas
Fixed: Temperature, K = 313.15
Property: Vapor or sublimation pressure, kPa (Liquid); method: Closed cell (Static) method
Mole fraction of butan-1-ol	Vapor or sublimation pressure, kPa	uncertainty
0	0.058	0.01
0.1125	1.612	0.021
0.1644	1.757	0.022
0.2005	1.822	0.022
0.25	1.893	0.022
0.2837	1.934	0.022
0.3162	1.965	0.022
0.3718	2.015	0.022
0.3806	2.028	0.022
0.4043	2.04	0.022
0.4295	2.059	0.022
0.4497	2.071	0.022
0.4793	2.091	0.023
0.4995	2.097	0.023
0.5298	2.116	0.023
0.5504	2.125	0.023
0.5803	2.141	0.023
0.5998	2.152	0.023
0.631	2.165	0.023
0.6828	2.194	0.023
0.7346	2.223	0.023
0.7861	2.253	0.023
0.8388	2.296	0.023
0.8926	2.34	0.023
0.9503	2.415	0.023
1	2.496	0.024

System: butan-1-ol + cyclohexane; phases: Liquid, Gas
Fixed: Temperature, K = 313.15
Property: Vapor or sublimation pressure, kPa (Liquid); method: Closed cell (Static) method
Mole fraction of butan-1-ol	Vapor or sublimation pressure, kPa	uncertainty
0	24.634	0.095
0.0276	24.833	0.096
0.1002	24.658	0.095
0.1495	24.471	0.095
0.1988	24.306	0.094
0.2495	24.038	0.093
0.299	23.722	0.092
0.3491	23.359	0.091
0.3988	22.966	0.09
0.3995	22.935	0.09
0.4487	22.459	0.088
0.4496	22.417	0.088
0.5001	21.832	0.086
0.5014	21.82	0.086
0.5493	21.1	0.084
0.5497	21.105	0.084
0.5991	20.308	0.081
0.6002	20.3	0.081
0.6484	19.332	0.078
0.7006	18.161	0.074
0.7504	16.842	0.07
0.8001	15.216	0.065
0.8513	13.086	0.059
0.8972	10.538	0.051
0.9533	6.539	0.04
1	2.507	0.024

System: butan-1-ol + toluene; phases: Liquid, Gas
Fixed: Temperature, K = 313.15
Property: Vapor or sublimation pressure, kPa (Liquid); method: Closed cell (Static) method
Mole fraction of butan-1-ol	Vapor or sublimation pressure, kPa	uncertainty
0	7.877	0.041
0.0491	8.297	0.042
0.1441	8.394	0.042
0.1804	8.376	0.042
0.2213	8.347	0.042
0.2591	8.305	0.042
0.2984	8.251	0.042
0.3479	8.167	0.042
0.3987	8.048	0.041
0.3987	8.064	0.041
0.4488	7.93	0.041
0.449	7.938	0.041
0.4986	7.786	0.04
0.4991	7.767	0.04
0.5487	7.599	0.04
0.5494	7.588	0.04
0.5987	7.377	0.039
0.5993	7.381	0.039
0.6497	7.113	0.038
0.6983	6.799	0.037
0.7493	6.402	0.036
0.7988	5.933	0.035
0.8435	5.418	0.033
0.8935	4.698	0.031
0.9491	3.692	0.028
1	2.492	0.024
