Measured thermophysical data. Activity Coefficients at Infinite Dilution of Alkanes, Alkenes, and Alkyl Benzenes in 1-Ethyl-3-methylimidazolium Diethylphosphate Using Gas Liquid Chromatography
Source: J. Chem. Eng. Data, 2011, 10.1021/je200266f
Compound 1: 1-ethyl-3-methylimidazolium diethyl phosphate, C10H21N2O4P, InChI=1S/C6H11N2.C4H11O4P/c1-3-8-5-4-7(2)6-8;1-3-7-9(5,6)8-4-2/h4-6H,3H2,1-2H3;3-4H2,1-2H3,(H,5,6)/q+1;/p-1, purity 99%
Compound 2: pentane, C5H12, InChI=1S/C5H12/c1-3-5-4-2/h3-5H2,1-2H3, purity 99%
Compound 3: hexane, C6H14, InChI=1S/C6H14/c1-3-5-6-4-2/h3-6H2,1-2H3, purity 99%
Compound 4: heptane, C7H16, InChI=1S/C7H16/c1-3-5-7-6-4-2/h3-7H2,1-2H3, purity 99%
Compound 5: octane, C8H18, InChI=1S/C8H18/c1-3-5-7-8-6-4-2/h3-8H2,1-2H3, purity 99%
Compound 6: nonane, C9H20, InChI=1S/C9H20/c1-3-5-7-9-8-6-4-2/h3-9H2,1-2H3, purity 99%
Compound 7: decane, C10H22, InChI=1S/C10H22/c1-3-5-7-9-10-8-6-4-2/h3-10H2,1-2H3, purity 99%
Compound 8: cyclohexane, C6H12, InChI=1S/C6H12/c1-2-4-6-5-3-1/h1-6H2, purity 99%
Compound 9: methylcyclohexane, C7H14, InChI=1S/C7H14/c1-7-5-3-2-4-6-7/h7H,2-6H2,1H3, purity 99%
Compound 10: 2,2,4-trimethylpentane, C8H18, InChI=1S/C8H18/c1-7(2)6-8(3,4)5/h7H,6H2,1-5H3, purity 99%
Compound 11: cyclohexene, C6H10, InChI=1S/C6H10/c1-2-4-6-5-3-1/h1-2H,3-6H2, purity 99%
Compound 12: styrene, C8H8, InChI=1S/C8H8/c1-2-8-6-4-3-5-7-8/h2-7H,1H2, purity 99%
Compound 13: benzene, C6H6, InChI=1S/C6H6/c1-2-4-6-5-3-1/h1-6H, purity 99%
Compound 14: toluene, C7H8, InChI=1S/C7H8/c1-7-5-3-2-4-6-7/h2-6H,1H3, purity 99%
Compound 15: 1,2-dimethylbenzene, C8H10, InChI=1S/C8H10/c1-7-5-3-4-6-8(7)2/h3-6H,1-2H3, purity 99%
Compound 16: 1,3-dimethylbenzene, C8H10, InChI=1S/C8H10/c1-7-4-3-5-8(2)6-7/h3-6H,1-2H3, purity 99%
Compound 17: 1,4-dimethylbenzene, C8H10, InChI=1S/C8H10/c1-7-3-5-8(2)6-4-7/h3-6H,1-2H3, purity 99%

System: pentane + 1-ethyl-3-methylimidazolium diethyl phosphate; phases: Liquid
Fixed: Pressure, kPa = 101
Fixed: Mole fraction of pentane = 0
Property: Activity coefficient of pentane (Liquid); method: Chromatography
Temperature, K	Activity coefficient of pentane	uncertainty
303.15	46.84	2.8
313.15	43.53	2.61
323.15	40.88	2.45
333.15	38.62	2.31
343.15	36.26	2.17

System: hexane + 1-ethyl-3-methylimidazolium diethyl phosphate; phases: Liquid
Fixed: Pressure, kPa = 101
Fixed: Mole fraction of hexane = 0
Property: Activity coefficient of hexane (Liquid); method: Chromatography
Temperature, K	Activity coefficient of hexane	uncertainty
303.15	77.98	4.68
313.15	71.39	4.28
323.15	67.85	4.07
333.15	62.97	3.77
343.15	58.28	3.49

System: heptane + 1-ethyl-3-methylimidazolium diethyl phosphate; phases: Liquid
Fixed: Pressure, kPa = 101
Fixed: Mole fraction of heptane = 0
Property: Activity coefficient of heptane (Liquid); method: Chromatography
Temperature, K	Activity coefficient of heptane	uncertainty
303.15	125.1	7.5
313.15	115.9	7
323.15	105.2	6.3
333.15	97.04	5.82
343.15	88.45	5.31

System: octane + 1-ethyl-3-methylimidazolium diethyl phosphate; phases: Liquid
Fixed: Pressure, kPa = 101
Fixed: Mole fraction of octane = 0
Property: Activity coefficient of octane (Liquid); method: Chromatography
Temperature, K	Activity coefficient of octane	uncertainty
303.15	177.4	10.7
313.15	160.9	9.7
323.15	142.2	8.5
333.15	125.8	7.6
343.15	109.5	6.6

System: nonane + 1-ethyl-3-methylimidazolium diethyl phosphate; phases: Liquid
Fixed: Pressure, kPa = 101
Fixed: Mole fraction of nonane = 0
Property: Activity coefficient of nonane (Liquid); method: Chromatography
Temperature, K	Activity coefficient of nonane	uncertainty
303.15	256.9	15.5
313.15	234.5	14.1
323.15	218.4	13.1
333.15	203.7	12.2
343.15	190.8	11.5

System: decane + 1-ethyl-3-methylimidazolium diethyl phosphate; phases: Liquid
Fixed: Pressure, kPa = 101
Fixed: Mole fraction of decane = 0
Property: Activity coefficient of decane (Liquid); method: Chromatography
Temperature, K	Activity coefficient of decane	uncertainty
303.15	401.8	24.2
313.15	365.3	22
323.15	337.8	20.3
333.15	310.1	18.7
343.15	291.2	17.5

System: cyclohexane + 1-ethyl-3-methylimidazolium diethyl phosphate; phases: Liquid
Fixed: Pressure, kPa = 101
Fixed: Mole fraction of cyclohexane = 0
Property: Activity coefficient of cyclohexane (Liquid); method: Chromatography
Temperature, K	Activity coefficient of cyclohexane	uncertainty
303.15	38.64	2.31
313.15	35.34	2.11
323.15	32.85	1.97
333.15	30.17	1.8
343.15	28.96	1.73

System: methylcyclohexane + 1-ethyl-3-methylimidazolium diethyl phosphate; phases: Liquid
Fixed: Pressure, kPa = 101
Fixed: Mole fraction of methylcyclohexane = 0
Property: Activity coefficient of methylcyclohexane (Liquid); method: Chromatography
Temperature, K	Activity coefficient of methylcyclohexane	uncertainty
303.15	55.98	3.35
313.15	52.39	3.14
323.15	50.05	3
333.15	47.37	2.84
343.15	44.87	2.69

System: 2,2,4-trimethylpentane + 1-ethyl-3-methylimidazolium diethyl phosphate; phases: Liquid
Fixed: Pressure, kPa = 101
Fixed: Mole fraction of 2,2,4-trimethylpentane = 0
Property: Activity coefficient of 2,2,4-trimethylpentane (Liquid); method: Chromatography
Temperature, K	Activity coefficient of 2,2,4-trimethylpentane	uncertainty
303.15	161	9.7
313.15	146.9	8.8
323.15	128.7	7.7
333.15	107.9	6.5
343.15	93.67	5.62

System: cyclohexene + 1-ethyl-3-methylimidazolium diethyl phosphate; phases: Liquid
Fixed: Pressure, kPa = 101
Fixed: Mole fraction of cyclohexene = 0
Property: Activity coefficient of cyclohexene (Liquid); method: Chromatography
Temperature, K	Activity coefficient of cyclohexene	uncertainty
303.15	17.89	1.07
313.15	16.07	0.96
323.15	14.25	0.85
333.15	12.79	0.76
343.15	11.23	0.67

System: styrene + 1-ethyl-3-methylimidazolium diethyl phosphate; phases: Liquid
Fixed: Pressure, kPa = 101
Fixed: Mole fraction of styrene = 0
Property: Activity coefficient of styrene (Liquid); method: Chromatography
Temperature, K	Activity coefficient of styrene	uncertainty
303.15	5.002	0.298
313.15	4.986	0.297
323.15	4.962	0.295
333.15	4.938	0.294
343.15	4.911	0.292

System: benzene + 1-ethyl-3-methylimidazolium diethyl phosphate; phases: Liquid
Fixed: Pressure, kPa = 101
Fixed: Mole fraction of benzene = 0
Property: Activity coefficient of benzene (Liquid); method: Chromatography
Temperature, K	Activity coefficient of benzene	uncertainty
303.15	2.516	0.149
313.15	2.479	0.147
323.15	2.433	0.145
333.15	2.397	0.142
343.15	2.361	0.14

System: toluene + 1-ethyl-3-methylimidazolium diethyl phosphate; phases: Liquid
Fixed: Pressure, kPa = 101
Fixed: Mole fraction of toluene = 0
Property: Activity coefficient of toluene (Liquid); method: Chromatography
Temperature, K	Activity coefficient of toluene	uncertainty
303.15	4.734	0.282
313.15	4.571	0.272
323.15	4.403	0.262
333.15	4.298	0.256
343.15	4.105	0.244

System: 1,2-dimethylbenzene + 1-ethyl-3-methylimidazolium diethyl phosphate; phases: Liquid
Fixed: Pressure, kPa = 101
Fixed: Mole fraction of 1,2-dimethylbenzene = 0
Property: Activity coefficient of 1,2-dimethylbenzene (Liquid); method: Chromatography
Temperature, K	Activity coefficient of 1,2-dimethylbenzene	uncertainty
303.15	6.524	0.389
313.15	6.389	0.38
323.15	6.256	0.373
333.15	6.138	0.366
343.15	6.046	0.36

System: 1,3-dimethylbenzene + 1-ethyl-3-methylimidazolium diethyl phosphate; phases: Liquid
Fixed: Pressure, kPa = 101
Fixed: Mole fraction of 1,3-dimethylbenzene = 0
Property: Activity coefficient of 1,3-dimethylbenzene (Liquid); method: Chromatography
Temperature, K	Activity coefficient of 1,3-dimethylbenzene	uncertainty
303.15	7.169	0.427
313.15	7.105	0.423
323.15	7.057	0.42
333.15	6.969	0.415
343.15	6.912	0.412

System: 1,4-dimethylbenzene + 1-ethyl-3-methylimidazolium diethyl phosphate; phases: Liquid
Fixed: Pressure, kPa = 101
Fixed: Mole fraction of 1,4-dimethylbenzene = 0
Property: Activity coefficient of 1,4-dimethylbenzene (Liquid); method: Chromatography
Temperature, K	Activity coefficient of 1,4-dimethylbenzene	uncertainty
303.15	6.835	0.407
313.15	6.698	0.399
323.15	6.583	0.392
333.15	6.404	0.381
343.15	6.287	0.374
