Measured thermophysical data. Phase solubility studies of poorly soluble drug molecules by  using O-phosphorylated calixarenes as drug solubilizing  agents
Source: J. Chem. Eng. Data, 2012, 10.1021/je200992c
Compound 1: 5-(aminosulfonyl)-4-chloro-2-[(2-furanylmethyl)amino]benzoic acid, C12H11ClN2O5S, InChI=1S/C12H11ClN2O5S/c13-9-5-10(15-6-7-2-1-3-20-7)8(12(16)17)4-11(9)21(14,18)19/h1-5,15H,6H2,(H,16,17)(H2,14,18,19), purity 98%
Compound 2: water, H2O, InChI=1S/H2O/h1H2, purity 98%
Compound 3: tetrasodium 1(5),3(5),5(5),7(5)-tetra-tert-butyl-1,3,5,7(1,3)-tetrabenzenacyclooctaphane-1(2),3(2),5(2),7(2)-tetrayl tetrakis(hydrogen phosphate), C44H56Na4O16P4, InChI=1S/C44H60O16P4.4Na/c1-41(2,3)33-17-25-13-27-19-34(42(4,5)6)21-29(38(27)58-62(48,49)50)15-31-23-36(44(10,11)12)24-32(40(31)60-64(54,55)56)16-30-22-35(43(7,8)9)20-28(39(30)59-63(51,52)53)14-26(18-33)37(25)57-61(45,46)47;;;;/h17-24H,13-16H2,1-12H3,(H2,45,46,47)(H2,48,49,50)(H2,51,52,53)(H2,54,55,56);;;;/q;4*+1/p-4, purity 98%
Compound 4: tetrasodium 1,3,5,7(1,3)-tetrabenzenacyclooctaphane-1(2),3(2),5(2),7(2)-tetrayl tetrakis(hydrogen phosphate), C28H24Na4O16P4, InChI=1S/C28H28O16P4.4Na/c29-45(30,31)41-25-17-5-1-6-18(25)14-20-8-3-10-22(27(20)43-47(35,36)37)16-24-12-4-11-23(28(24)44-48(38,39)40)15-21-9-2-7-19(13-17)26(21)42-46(32,33)34;;;;/h1-12H,13-16H2,(H2,29,30,31)(H2,32,33,34)(H2,35,36,37)(H2,38,39,40);;;;/q;4*+1/p-4, purity 98%
Compound 5: disodium 1(5),3(5),5(5),7(5)-tetra-tert-butyl-3(2),7(2)-dihydroxy-1,3,5,7(1,3)-tetrabenzenacyclooctaphane-1(2),5(2)-diyl bis(hydrogen phosphate), C44H56Na2O10P2, InChI=1S/C44H58O10P2.2Na/c1-41(2,3)33-17-25-13-29-21-35(43(7,8)9)23-31(39(29)53-55(47,48)49)15-27-19-34(42(4,5)6)20-28(38(27)46)16-32-24-36(44(10,11)12)22-30(14-26(18-33)37(25)45)40(32)54-56(50,51)52;;/h17-24,45-46H,13-16H2,1-12H3,(H2,47,48,49)(H2,50,51,52);;/q;2*+1/p-2, purity 98%
Compound 6: disodium 3(2),7(2)-dihydroxy-1,3,5,7(1,3)-tetrabenzenacyclooctaphane-1(2),5(2)-diyl bis(hydrogen phosphate), C28H24Na2O10P2, InChI=1S/C28H26O10P2.2Na/c29-25-17-5-1-6-18(25)14-22-10-4-12-24(28(22)38-40(34,35)36)16-20-8-2-7-19(26(20)30)15-23-11-3-9-21(13-17)27(23)37-39(31,32)33;;/h1-12,29-30H,13-16H2,(H2,31,32,33)(H2,34,35,36);;/q;2*+1/p-2, purity 98%
Compound 7: octasodium 1(5),3(5),5(5),7(5),9(5),11(5),13(5),155-octa-tert-butyl-1,3,5,7,9,11,13,15(1,3)-octabenzenacyclohexadecaphane-1(2),3(2),5(2),7(2),9(2),11(2),13(2),15(2)-octayl octakis(hydrogen phosphate), C88H112Na8O32P8, InChI=1S/C88H120O32P8.8Na/c1-81(2,3)65-33-49-25-51-35-66(82(4,5)6)37-53(74(51)114-122(92,93)94)27-55-39-68(84(10,11)12)41-57(76(55)116-124(98,99)100)29-59-43-70(86(16,17)18)45-61(78(59)118-126(104,105)106)31-63-47-72(88(22,23)24)48-64(80(63)120-128(110,111)112)32-62-46-71(87(19,20)21)44-60(79(62)119-127(107,108)109)30-58-42-69(85(13,14)15)40-56(77(58)117-125(101,102)103)28-54-38-67(83(7,8)9)36-52(75(54)115-123(95,96)97)26-50(34-65)73(49)113-121(89,90)91;;;;;;;;/h33-48H,25-32H2,1-24H3,(H2,89,90,91)(H2,92,93,94)(H2,95,96,97)(H2,98,99,100)(H2,101,102,103)(H2,104,105,106)(H2,107,108,109)(H2,110,111,112);;;;;;;;/q;8*+1/p-8, purity 98%
Compound 8: dimethyl 4-(2-nitrophenyl)-2,6-dimethyl-1,4-dihydropyridine-3,5-dicarboxylate, C17H18N2O6, InChI=1S/C17H18N2O6/c1-9-13(16(20)24-3)15(14(10(2)18-9)17(21)25-4)11-7-5-6-8-12(11)19(22)23/h5-8,15,18H,1-4H3, purity 98%
Compound 9: 5-chloro-N-(2-chloro-4-nitrophenyl)-2-hydroxybenzamide, C13H8Cl2N2O4, InChI=1S/C13H8Cl2N2O4/c14-7-1-4-12(18)9(5-7)13(19)16-11-3-2-8(17(20)21)6-10(11)15/h1-6,18H,(H,16,19), purity 98%

System: 5-(aminosulfonyl)-4-chloro-2-[(2-furanylmethyl)amino]benzoic acid + water + tetrasodium 1(5),3(5),5(5),7(5)-tetra-tert-butyl-1,3,5,7(1,3)-tetrabenzenacyclooctaphane-1(2),3(2),5(2),7(2)-tetrayl tetrakis(hydrogen phosphate); phases: Liquid, Crystal
Fixed: Temperature, K = 298.15
Fixed: Pressure, kPa = 101
Property: Molality, mol/kg of 5-(aminosulfonyl)-4-chloro-2-[(2-furanylmethyl)amino]benzoic acid (Liquid); method: HPLC
Molality, mol/kg of tetrasodium 1(5),3(5),5(5),7(5)-tetra-tert-butyl-1,3,5,7(1,3)-tetrabenzenacyclooctaphane-1(2),3(2),5(2),7(2)-tetrayl tetrakis(hydrogen phosphate)	Molality, mol/kg of 5-(aminosulfonyl)-4-chloro-2-[(2-furanylmethyl)amino]benzoic acid	uncertainty
0.001	2.44	0.06
0.003	4.66	0.08
0.005	7.04	0.08
0.007	9.11	0.08

System: 5-(aminosulfonyl)-4-chloro-2-[(2-furanylmethyl)amino]benzoic acid + water + tetrasodium 1,3,5,7(1,3)-tetrabenzenacyclooctaphane-1(2),3(2),5(2),7(2)-tetrayl tetrakis(hydrogen phosphate); phases: Liquid, Crystal
Fixed: Temperature, K = 298.15
Fixed: Pressure, kPa = 101
Property: Molality, mol/kg of 5-(aminosulfonyl)-4-chloro-2-[(2-furanylmethyl)amino]benzoic acid (Liquid); method: HPLC
Molality, mol/kg of tetrasodium 1,3,5,7(1,3)-tetrabenzenacyclooctaphane-1(2),3(2),5(2),7(2)-tetrayl tetrakis(hydrogen phosphate)	Molality, mol/kg of 5-(aminosulfonyl)-4-chloro-2-[(2-furanylmethyl)amino]benzoic acid	uncertainty
0.001	1.34	0.06
0.003	3.21	0.08
0.005	5.22	0.08
0.007	7.32	0.06

System: 5-(aminosulfonyl)-4-chloro-2-[(2-furanylmethyl)amino]benzoic acid + water + disodium 1(5),3(5),5(5),7(5)-tetra-tert-butyl-3(2),7(2)-dihydroxy-1,3,5,7(1,3)-tetrabenzenacyclooctaphane-1(2),5(2)-diyl bis(hydrogen phosphate); phases: Liquid, Crystal
Fixed: Temperature, K = 298.15
Fixed: Pressure, kPa = 101
Property: Molality, mol/kg of 5-(aminosulfonyl)-4-chloro-2-[(2-furanylmethyl)amino]benzoic acid (Liquid); method: HPLC
Molality, mol/kg of disodium 1(5),3(5),5(5),7(5)-tetra-tert-butyl-3(2),7(2)-dihydroxy-1,3,5,7(1,3)-tetrabenzenacyclooctaphane-1(2),5(2)-diyl bis(hydrogen phosphate)	Molality, mol/kg of 5-(aminosulfonyl)-4-chloro-2-[(2-furanylmethyl)amino]benzoic acid	uncertainty
0.001	1.52	0.06
0.003	3.74	0.08
0.005	5.93	0.08
0.007	7.91	0.06

System: 5-(aminosulfonyl)-4-chloro-2-[(2-furanylmethyl)amino]benzoic acid + water + disodium 3(2),7(2)-dihydroxy-1,3,5,7(1,3)-tetrabenzenacyclooctaphane-1(2),5(2)-diyl bis(hydrogen phosphate); phases: Liquid, Crystal
Fixed: Temperature, K = 298.15
Fixed: Pressure, kPa = 101
Property: Molality, mol/kg of 5-(aminosulfonyl)-4-chloro-2-[(2-furanylmethyl)amino]benzoic acid (Liquid); method: HPLC
Molality, mol/kg of disodium 3(2),7(2)-dihydroxy-1,3,5,7(1,3)-tetrabenzenacyclooctaphane-1(2),5(2)-diyl bis(hydrogen phosphate)	Molality, mol/kg of 5-(aminosulfonyl)-4-chloro-2-[(2-furanylmethyl)amino]benzoic acid	uncertainty
0.001	0.92	0.06
0.003	2.89	0.08
0.005	4.64	0.08
0.007	6.22	0.08

System: 5-(aminosulfonyl)-4-chloro-2-[(2-furanylmethyl)amino]benzoic acid + water + octasodium 1(5),3(5),5(5),7(5),9(5),11(5),13(5),155-octa-tert-butyl-1,3,5,7,9,11,13,15(1,3)-octabenzenacyclohexadecaphane-1(2),3(2),5(2),7(2),9(2),11(2),13(2),15(2)-octayl octakis(hydrogen phosphate); phases: Liquid, Crystal
Fixed: Temperature, K = 298.15
Fixed: Pressure, kPa = 101
Property: Molality, mol/kg of 5-(aminosulfonyl)-4-chloro-2-[(2-furanylmethyl)amino]benzoic acid (Liquid); method: HPLC
Molality, mol/kg of octasodium 1(5),3(5),5(5),7(5),9(5),11(5),13(5),155-octa-tert-butyl-1,3,5,7,9,11,13,15(1,3)-octabenzenacyclohexadecaphane-1(2),3(2),5(2),7(2),9(2),11(2),13(2),15(2)-octayl octakis(hydrogen phosphate)	Molality, mol/kg of 5-(aminosulfonyl)-4-chloro-2-[(2-furanylmethyl)amino]benzoic acid	uncertainty
0.001	2.78	0.08
0.003	5.38	0.08
0.005	7.81	0.08
0.007	10.11	0.06

System: water + dimethyl 4-(2-nitrophenyl)-2,6-dimethyl-1,4-dihydropyridine-3,5-dicarboxylate + tetrasodium 1(5),3(5),5(5),7(5)-tetra-tert-butyl-1,3,5,7(1,3)-tetrabenzenacyclooctaphane-1(2),3(2),5(2),7(2)-tetrayl tetrakis(hydrogen phosphate); phases: Liquid, Crystal
Fixed: Temperature, K = 298.15
Fixed: Pressure, kPa = 101
Property: Molality, mol/kg of dimethyl 4-(2-nitrophenyl)-2,6-dimethyl-1,4-dihydropyridine-3,5-dicarboxylate (Liquid); method: HPLC
Molality, mol/kg of tetrasodium 1(5),3(5),5(5),7(5)-tetra-tert-butyl-1,3,5,7(1,3)-tetrabenzenacyclooctaphane-1(2),3(2),5(2),7(2)-tetrayl tetrakis(hydrogen phosphate)	Molality, mol/kg of dimethyl 4-(2-nitrophenyl)-2,6-dimethyl-1,4-dihydropyridine-3,5-dicarboxylate	uncertainty
0.001	5.92	0.06
0.003	7.87	0.08
0.005	9.52	0.08
0.007	11.2	0.08

System: water + dimethyl 4-(2-nitrophenyl)-2,6-dimethyl-1,4-dihydropyridine-3,5-dicarboxylate + tetrasodium 1,3,5,7(1,3)-tetrabenzenacyclooctaphane-1(2),3(2),5(2),7(2)-tetrayl tetrakis(hydrogen phosphate); phases: Liquid, Crystal
Fixed: Temperature, K = 298.15
Fixed: Pressure, kPa = 101
Property: Molality, mol/kg of dimethyl 4-(2-nitrophenyl)-2,6-dimethyl-1,4-dihydropyridine-3,5-dicarboxylate (Liquid); method: HPLC
Molality, mol/kg of tetrasodium 1,3,5,7(1,3)-tetrabenzenacyclooctaphane-1(2),3(2),5(2),7(2)-tetrayl tetrakis(hydrogen phosphate)	Molality, mol/kg of dimethyl 4-(2-nitrophenyl)-2,6-dimethyl-1,4-dihydropyridine-3,5-dicarboxylate	uncertainty
0.001	3.84	0.08
0.003	4.51	0.06
0.005	5.22	0.08
0.007	6.32	0.08

System: water + dimethyl 4-(2-nitrophenyl)-2,6-dimethyl-1,4-dihydropyridine-3,5-dicarboxylate + disodium 1(5),3(5),5(5),7(5)-tetra-tert-butyl-3(2),7(2)-dihydroxy-1,3,5,7(1,3)-tetrabenzenacyclooctaphane-1(2),5(2)-diyl bis(hydrogen phosphate); phases: Liquid, Crystal
Fixed: Temperature, K = 298.15
Fixed: Pressure, kPa = 101
Property: Molality, mol/kg of dimethyl 4-(2-nitrophenyl)-2,6-dimethyl-1,4-dihydropyridine-3,5-dicarboxylate (Liquid); method: HPLC
Molality, mol/kg of disodium 1(5),3(5),5(5),7(5)-tetra-tert-butyl-3(2),7(2)-dihydroxy-1,3,5,7(1,3)-tetrabenzenacyclooctaphane-1(2),5(2)-diyl bis(hydrogen phosphate)	Molality, mol/kg of dimethyl 4-(2-nitrophenyl)-2,6-dimethyl-1,4-dihydropyridine-3,5-dicarboxylate	uncertainty
0.001	3.52	0.06
0.003	4.34	0.06
0.005	4.93	0.08
0.007	5.11	0.08

System: water + dimethyl 4-(2-nitrophenyl)-2,6-dimethyl-1,4-dihydropyridine-3,5-dicarboxylate + disodium 3(2),7(2)-dihydroxy-1,3,5,7(1,3)-tetrabenzenacyclooctaphane-1(2),5(2)-diyl bis(hydrogen phosphate); phases: Liquid, Crystal
Fixed: Temperature, K = 298.15
Fixed: Pressure, kPa = 101
Property: Molality, mol/kg of dimethyl 4-(2-nitrophenyl)-2,6-dimethyl-1,4-dihydropyridine-3,5-dicarboxylate (Liquid); method: HPLC
Molality, mol/kg of disodium 3(2),7(2)-dihydroxy-1,3,5,7(1,3)-tetrabenzenacyclooctaphane-1(2),5(2)-diyl bis(hydrogen phosphate)	Molality, mol/kg of dimethyl 4-(2-nitrophenyl)-2,6-dimethyl-1,4-dihydropyridine-3,5-dicarboxylate	uncertainty
0.001	3.79	0.06
0.003	4.11	0.06
0.005	4.34	0.08
0.007	4.72	0.08

System: water + dimethyl 4-(2-nitrophenyl)-2,6-dimethyl-1,4-dihydropyridine-3,5-dicarboxylate + octasodium 1(5),3(5),5(5),7(5),9(5),11(5),13(5),155-octa-tert-butyl-1,3,5,7,9,11,13,15(1,3)-octabenzenacyclohexadecaphane-1(2),3(2),5(2),7(2),9(2),11(2),13(2),15(2)-octayl octakis(hydrogen phosphate); phases: Liquid, Crystal
Fixed: Temperature, K = 298.15
Fixed: Pressure, kPa = 101
Property: Molality, mol/kg of dimethyl 4-(2-nitrophenyl)-2,6-dimethyl-1,4-dihydropyridine-3,5-dicarboxylate (Liquid); method: HPLC
Molality, mol/kg of octasodium 1(5),3(5),5(5),7(5),9(5),11(5),13(5),155-octa-tert-butyl-1,3,5,7,9,11,13,15(1,3)-octabenzenacyclohexadecaphane-1(2),3(2),5(2),7(2),9(2),11(2),13(2),15(2)-octayl octakis(hydrogen phosphate)	Molality, mol/kg of dimethyl 4-(2-nitrophenyl)-2,6-dimethyl-1,4-dihydropyridine-3,5-dicarboxylate	uncertainty
0.001	4.64	0.08
0.003	5.94	0.08
0.005	6.98	0.08
0.007	8.11	0.08

System: 5-chloro-N-(2-chloro-4-nitrophenyl)-2-hydroxybenzamide + water + tetrasodium 1(5),3(5),5(5),7(5)-tetra-tert-butyl-1,3,5,7(1,3)-tetrabenzenacyclooctaphane-1(2),3(2),5(2),7(2)-tetrayl tetrakis(hydrogen phosphate); phases: Liquid, Crystal
Fixed: Temperature, K = 298.15
Fixed: Pressure, kPa = 101
Property: Molality, mol/kg of 5-chloro-N-(2-chloro-4-nitrophenyl)-2-hydroxybenzamide (Liquid); method: HPLC
Molality, mol/kg of tetrasodium 1(5),3(5),5(5),7(5)-tetra-tert-butyl-1,3,5,7(1,3)-tetrabenzenacyclooctaphane-1(2),3(2),5(2),7(2)-tetrayl tetrakis(hydrogen phosphate)	Molality, mol/kg of 5-chloro-N-(2-chloro-4-nitrophenyl)-2-hydroxybenzamide	uncertainty
0.001	2.21	0.08
0.003	3.44	0.08
0.005	4.64	0.08
0.007	4.37	0.08

System: 5-chloro-N-(2-chloro-4-nitrophenyl)-2-hydroxybenzamide + water + tetrasodium 1,3,5,7(1,3)-tetrabenzenacyclooctaphane-1(2),3(2),5(2),7(2)-tetrayl tetrakis(hydrogen phosphate); phases: Liquid, Crystal
Fixed: Temperature, K = 298.15
Fixed: Pressure, kPa = 101
Property: Molality, mol/kg of 5-chloro-N-(2-chloro-4-nitrophenyl)-2-hydroxybenzamide (Liquid); method: HPLC
Molality, mol/kg of tetrasodium 1,3,5,7(1,3)-tetrabenzenacyclooctaphane-1(2),3(2),5(2),7(2)-tetrayl tetrakis(hydrogen phosphate)	Molality, mol/kg of 5-chloro-N-(2-chloro-4-nitrophenyl)-2-hydroxybenzamide	uncertainty
0.001	1.84	0.08
0.003	2.51	0.08
0.005	3.22	0.08
0.007	3.32	0.08

System: 5-chloro-N-(2-chloro-4-nitrophenyl)-2-hydroxybenzamide + water + disodium 1(5),3(5),5(5),7(5)-tetra-tert-butyl-3(2),7(2)-dihydroxy-1,3,5,7(1,3)-tetrabenzenacyclooctaphane-1(2),5(2)-diyl bis(hydrogen phosphate); phases: Liquid, Crystal
Fixed: Temperature, K = 298.15
Fixed: Pressure, kPa = 101
Property: Molality, mol/kg of 5-chloro-N-(2-chloro-4-nitrophenyl)-2-hydroxybenzamide (Liquid); method: HPLC
Molality, mol/kg of disodium 1(5),3(5),5(5),7(5)-tetra-tert-butyl-3(2),7(2)-dihydroxy-1,3,5,7(1,3)-tetrabenzenacyclooctaphane-1(2),5(2)-diyl bis(hydrogen phosphate)	Molality, mol/kg of 5-chloro-N-(2-chloro-4-nitrophenyl)-2-hydroxybenzamide	uncertainty
0.001	1.52	0.08
0.003	2.34	0.08
0.005	2.93	0.08
0.007	3.11	0.08

System: 5-chloro-N-(2-chloro-4-nitrophenyl)-2-hydroxybenzamide + water + disodium 3(2),7(2)-dihydroxy-1,3,5,7(1,3)-tetrabenzenacyclooctaphane-1(2),5(2)-diyl bis(hydrogen phosphate); phases: Liquid, Crystal
Fixed: Temperature, K = 298.15
Fixed: Pressure, kPa = 101
Property: Molality, mol/kg of 5-chloro-N-(2-chloro-4-nitrophenyl)-2-hydroxybenzamide (Liquid); method: HPLC
Molality, mol/kg of disodium 3(2),7(2)-dihydroxy-1,3,5,7(1,3)-tetrabenzenacyclooctaphane-1(2),5(2)-diyl bis(hydrogen phosphate)	Molality, mol/kg of 5-chloro-N-(2-chloro-4-nitrophenyl)-2-hydroxybenzamide	uncertainty
0.001	1.79	0.08
0.003	2.31	0.08
0.005	3.04	0.08
0.007	2.72	0.08

System: 5-chloro-N-(2-chloro-4-nitrophenyl)-2-hydroxybenzamide + water + octasodium 1(5),3(5),5(5),7(5),9(5),11(5),13(5),155-octa-tert-butyl-1,3,5,7,9,11,13,15(1,3)-octabenzenacyclohexadecaphane-1(2),3(2),5(2),7(2),9(2),11(2),13(2),15(2)-octayl octakis(hydrogen phosphate); phases: Liquid, Crystal
Fixed: Temperature, K = 298.15
Fixed: Pressure, kPa = 101
Property: Molality, mol/kg of 5-chloro-N-(2-chloro-4-nitrophenyl)-2-hydroxybenzamide (Liquid); method: HPLC
Molality, mol/kg of octasodium 1(5),3(5),5(5),7(5),9(5),11(5),13(5),155-octa-tert-butyl-1,3,5,7,9,11,13,15(1,3)-octabenzenacyclohexadecaphane-1(2),3(2),5(2),7(2),9(2),11(2),13(2),15(2)-octayl octakis(hydrogen phosphate)	Molality, mol/kg of 5-chloro-N-(2-chloro-4-nitrophenyl)-2-hydroxybenzamide	uncertainty
0.001	1.78	0.08
0.003	3.18	0.08
0.005	4.41	0.08
0.007	4.11	0.08
