Measured thermophysical data. Organic Salt Effect of Tetramethylammonium Bicarbonate on the Vapor Liquid Equilibrium of the Methanol Water System
Source: J. Chem. Eng. Data, 2011, 10.1021/je200341c
Compound 1: methanol, CH4O, InChI=1S/CH4O/c1-2/h2H,1H3, purity 99.9%
Compound 2: water, H2O, InChI=1S/H2O/h1H2, purity 99.9%
Compound 3: tetramethylammonium bicarbonate, C5H13NO3, InChI=1S/C4H12N.CH2O3/c1-5(2,3)4;2-1(3)4/h1-4H3;(H2,2,3,4)/q+1;/p-1, purity 98%

System: methanol; phases: Liquid, Gas
Property: Vapor or sublimation pressure, kPa (Liquid); method: EBULLIO:UFactor:4
Temperature, K	Vapor or sublimation pressure, kPa	uncertainty
337.84	101.32	0.57

System: water; phases: Liquid, Gas
Property: Vapor or sublimation pressure, kPa (Liquid); method: EBULLIO:UFactor:4
Temperature, K	Vapor or sublimation pressure, kPa	uncertainty
373.15	101.32	1.72

System: methanol + water; phases: Liquid, Gas
Fixed: Pressure, kPa = 101.32
Property: Boiling temperature at pressure P, K (Liquid); method: EBULLIO:UFactor:4
Mole fraction of methanol	Boiling temperature at pressure P, K	uncertainty
0	373.15	0.34
0.005	372.02	0.42
0.023	370.18	0.42
0.038	367.85	0.46
0.104	360.15	0.39
0.152	356.57	0.35
0.339	350.12	0.35
0.392	348.75	0.34
0.483	346.6	0.34
0.591	344.58	0.34
0.732	341.72	0.34
0.833	340.31	0.34
0.894	339.29	0.34
0.969	338.45	0.34
1	337.84	0.34

System: methanol + water; phases: Gas, Liquid
Fixed: Pressure, kPa = 101.32
Property: Mole fraction of methanol (Gas); method: Chromatography
Mole fraction of methanol	Mole fraction of methanol	uncertainty
0	0	
0.005	0.024	0.01
0.023	0.113	0.01
0.038	0.183	0.01
0.104	0.439	0.007
0.152	0.526	0.005
0.339	0.687	0.004
0.392	0.721	0.003
0.483	0.776	0.003
0.591	0.836	0.003
0.732	0.898	0.002
0.833	0.936	0.002
0.894	0.958	0.002
0.969	0.987	0.002
1	1	

System: methanol + tetramethylammonium bicarbonate; phases: Liquid, Gas
Fixed: Pressure, kPa = 101.32
Property: Boiling temperature at pressure P, K (Liquid); method: EBULLIO:UFactor:4
Mole fraction of tetramethylammonium bicarbonate	Boiling temperature at pressure P, K	uncertainty
0.0756	343.55	0.44
0.0758	343.55	0.44
0.0914	345.02	0.44
0.1133	347.1	0.44
0.1136	347.11	0.44
0.136	349.45	0.44
0.1586	352.6	0.44
0.1588	351.88	0.44
0.1752	353.6	0.44

System: water + tetramethylammonium bicarbonate; phases: Liquid, Gas
Fixed: Pressure, kPa = 101.32
Property: Boiling temperature at pressure P, K (Liquid); method: EBULLIO:UFactor:4
Mole fraction of tetramethylammonium bicarbonate	Boiling temperature at pressure P, K	uncertainty
0.0758	378.1	0.43
0.0758	379.1	0.37
0.0931	380.35	0.42
0.1136	382.9	0.43
0.1586	388.9	0.44
0.1586	388.65	0.44
0.1848	393	0.46
0.203	395.65	0.45

System: methanol + water + tetramethylammonium bicarbonate; phases: Liquid, Gas
Fixed: Pressure, kPa = 101.32
Property: Boiling temperature at pressure P, K (Liquid); method: EBULLIO:UFactor:32
Mole fraction of tetramethylammonium bicarbonate	Solvent: Mole fraction of methanol	Boiling temperature at pressure P, K	uncertainty
0.0758	0	379.1	3.52
0.0758	0.05	371.45	3.52
0.0758	0.1	366.45	3.52
0.0758	0.1429	362.06	3.52
0.0758	0.2	359.15	3.52
0.0758	0.25	357.86	3.52
0.0758	0.3333	355.4	3.52
0.0758	0.5	352.34	3.52
0.0758	0.6667	350.09	3.52
0.0758	0.8	346.92	3.52
0.0758	1	343.55	3.52
0.1136	0	382.9	3.52
0.1136	0.05	373.15	3.52
0.1136	0.1	366.65	3.52
0.1136	0.1429	363.03	3.52
0.1136	0.2	360.95	3.52
0.1136	0.25	359.16	3.52
0.1136	0.3333	357.74	3.52
0.1136	0.5	354.45	3.52
0.1136	0.6667	353.35	3.52
0.1136	0.8	351.8	3.52
0.1136	1	347.11	3.52
0.1586	0	388.65	3.52
0.1586	0.05	374.65	3.52
0.1586	0.1	368.05	3.52
0.1586	0.1429	365.42	3.52
0.1586	0.2	363.85	3.52
0.1586	0.25	363.65	3.52
0.1586	0.3333	362.4	3.52
0.1586	0.5	359.95	3.52
0.1586	0.6667	358.24	3.52
0.1586	0.8	355.43	3.52
0.1586	1	352.6	3.5

System: methanol + water + tetramethylammonium bicarbonate; phases: Gas, Liquid
Fixed: Pressure, kPa = 101.32
Property: Mole fraction of methanol (Gas); method: Chromatography
Mole fraction of tetramethylammonium bicarbonate	Solvent: Mole fraction of methanol	Mole fraction of methanol	uncertainty
0.0758	0	0	
0.0758	0.05	0.3642	0.0234
0.0758	0.1	0.5382	0.0212
0.0758	0.1429	0.6057	0.0205
0.0758	0.2	0.6661	0.0203
0.0758	0.25	0.7204	0.0203
0.0758	0.3333	0.7759	0.0202
0.0758	0.5	0.8576	0.0201
0.0758	0.6667	0.9199	0.02
0.0758	0.8	0.9427	0.02
0.0758	1	1	
0.1136	0	0	
0.1136	0.05	0.3901	0.0232
0.1136	0.1	0.5586	0.021
0.1136	0.1429	0.6186	0.0205
0.1136	0.2	0.6745	0.0204
0.1136	0.25	0.7401	0.0202
0.1136	0.3333	0.7984	0.0201
0.1136	0.5	0.8672	0.0201
0.1136	0.6667	0.9219	0.02
0.1136	0.8	0.943	0.02
0.1136	1	1	
0.1586	0	0	
0.1586	0.05	0.4079	0.0235
0.1586	0.1	0.5765	0.0211
0.1586	0.1429	0.655	0.0204
0.1586	0.2	0.7023	0.0203
0.1586	0.25	0.7533	0.0202
0.1586	0.3333	0.8193	0.0201
0.1586	0.5	0.8804	0.02
0.1586	0.6667	0.9213	0.02
0.1586	0.8	0.9441	0.02
0.1586	1	1	
