Measured thermophysical data. Isobaric Vapor Liquid Equilibrium of 3-Methyl-1-butanol + Ethyl Lactate and 1-Pentanol + Ethyl Lactate at (13.0 and 101.3) kPa
Source: J. Chem. Eng. Data, 2011, 10.1021/je200111a
Compound 1: (S)-(-)-ethyl lactate, C5H10O3, InChI=1S/C5H10O3/c1-3-8-5(7)4(2)6/h4,6H,3H2,1-2H3/t4-/m0/s1, purity 99%
Compound 2: 3-methylbutan-1-ol, C5H12O, InChI=1S/C5H12O/c1-5(2)3-4-6/h5-6H,3-4H2,1-2H3, purity 99%
Compound 3: pentan-1-ol, C5H12O, InChI=1S/C5H12O/c1-2-3-4-5-6/h6H,2-5H2,1H3, purity 99%

System: (S)-(-)-ethyl lactate; phases: Liquid
Property: Refractive index (Na D-line) (Liquid); method: Standard Abbe refractometry
Temperature, K	Pressure, kPa	Refractive index (Na D-line)	uncertainty
298.15	101.325	1.41057	0.00072

System: (S)-(-)-ethyl lactate; phases: Liquid
Property: Mass density, kg/m3 (Liquid); method: VIBTUB:UFactor:4
Temperature, K	Pressure, kPa	Mass density, kg/m3	uncertainty
298.15	101.325	1028.6	0.2

System: (S)-(-)-ethyl lactate; phases: Liquid, Gas
Property: Vapor or sublimation pressure, kPa (Liquid); method: Ebulliometric method (Recirculating still)
Temperature, K	Vapor or sublimation pressure, kPa	uncertainty
366.55	13	0.195
366.65	13	0.195
427.62	101.3	2.026
427.65	101.3	2.026

System: 3-methylbutan-1-ol; phases: Liquid
Property: Refractive index (Na D-line) (Liquid); method: Standard Abbe refractometry
Temperature, K	Pressure, kPa	Refractive index (Na D-line)	uncertainty
298.15	101.325	1.4051	0.0007

System: 3-methylbutan-1-ol; phases: Liquid
Property: Mass density, kg/m3 (Liquid); method: VIBTUB:UFactor:4
Temperature, K	Pressure, kPa	Mass density, kg/m3	uncertainty
298.15	101.325	807.6	0.4

System: 3-methylbutan-1-ol; phases: Liquid, Gas
Property: Vapor or sublimation pressure, kPa (Liquid); method: Ebulliometric method (Recirculating still)
Temperature, K	Vapor or sublimation pressure, kPa	uncertainty
353.75	13	0.1625
403.75	101.3	1.67145

System: pentan-1-ol; phases: Liquid
Property: Refractive index (Na D-line) (Liquid); method: Standard Abbe refractometry
Temperature, K	Pressure, kPa	Refractive index (Na D-line)	uncertainty
298.15	101.325	1.4077	0.0007

System: pentan-1-ol; phases: Liquid
Property: Mass density, kg/m3 (Liquid); method: VIBTUB:UFactor:4
Temperature, K	Pressure, kPa	Mass density, kg/m3	uncertainty
298.15	101.325	811.2	0.4

System: pentan-1-ol; phases: Liquid, Gas
Property: Vapor or sublimation pressure, kPa (Liquid); method: Ebulliometric method (Recirculating still)
Temperature, K	Vapor or sublimation pressure, kPa	uncertainty
358.35	13	0.169
411.05	101.3	1.77275

System: pentan-1-ol + (S)-(-)-ethyl lactate; phases: Liquid, Gas
Property: Boiling temperature at pressure P, K (Liquid); method: Ebulliometric method (Recirculating still)
Mole fraction of pentan-1-ol	Pressure, kPa	Boiling temperature at pressure P, K	uncertainty
0	13	366.65	0.3
0	101.3	427.62	0.4
0.013	13	366.25	0.3
0.032	101.3	426.35	0.4
0.038	101.3	426.15	0.4
0.041	13	365.45	0.3
0.043	101.3	426.05	0.4
0.054	101.3	425.55	0.4
0.055	13	365.25	0.3
0.067	101.3	425.15	0.4
0.085	101.3	424.45	0.4
0.096	13	364.35	0.29
0.099	101.3	424.15	0.4
0.105	101.3	423.95	0.39
0.111	13	364.05	0.29
0.118	101.3	423.75	0.4
0.128	13	363.65	0.3
0.138	101.3	422.95	0.4
0.139	13	363.35	0.29
0.151	101.3	422.65	0.39
0.162	13	363.15	0.29
0.168	101.3	422.15	0.39
0.197	101.3	421.65	0.39
0.21	101.3	421.25	0.39
0.214	13	362.45	0.29
0.24	101.3	420.55	0.39
0.282	13	361.75	0.28
0.283	101.3	419.85	0.38
0.322	101.3	419.15	0.38
0.371	13	360.85	0.28
0.375	101.3	418.05	0.38
0.412	101.3	417.45	0.37
0.444	13	360.45	0.28
0.473	101.3	416.75	0.37
0.552	13	359.85	0.27
0.593	101.3	415.05	0.37
0.653	13	359.35	0.27
0.663	101.3	414.25	0.36
0.74	101.3	413.35	0.36
0.789	13	358.95	0.27
0.816	101.3	412.55	0.36
0.893	101.3	412.05	0.35
0.895	101.3	411.95	0.35
0.912	13	358.65	0.26
0.934	101.3	411.55	0.35
0.957	13	358.45	0.26
0.972	101.3	411.35	0.35
0.993	101.3	411.15	0.35
1	13	358.35	0.26
1	101.3	411.05	0.35

System: pentan-1-ol + (S)-(-)-ethyl lactate; phases: Gas, Liquid
Property: Mole fraction of pentan-1-ol (Gas); method: Index of refraction calibration data
Mole fraction of pentan-1-ol	Pressure, kPa	Mole fraction of pentan-1-ol	uncertainty
0	13	0	
0	101.3	0	
0.013	13	0.028	0.005
0.032	101.3	0.066	0.004
0.038	101.3	0.077	0.004
0.041	13	0.084	0.004
0.043	101.3	0.087	0.004
0.054	101.3	0.106	0.004
0.055	13	0.107	0.004
0.067	101.3	0.13	0.004
0.085	101.3	0.159	0.004
0.096	13	0.17	0.004
0.099	101.3	0.181	0.004
0.105	101.3	0.191	0.004
0.111	13	0.19	0.003
0.118	101.3	0.211	0.004
0.128	13	0.215	0.003
0.138	101.3	0.241	0.004
0.139	13	0.223	0.003
0.151	101.3	0.258	0.003
0.162	13	0.253	0.003
0.168	101.3	0.281	0.003
0.197	101.3	0.32	0.003
0.21	101.3	0.334	0.003
0.214	13	0.312	0.003
0.24	101.3	0.369	0.003
0.282	13	0.382	0.003
0.283	101.3	0.416	0.003
0.322	101.3	0.457	0.003
0.371	13	0.464	0.003
0.375	101.3	0.508	0.003
0.412	101.3	0.544	0.003
0.444	13	0.526	0.003
0.473	101.3	0.596	0.003
0.552	13	0.614	0.003
0.593	101.3	0.694	0.003
0.653	13	0.696	0.003
0.663	101.3	0.751	0.003
0.74	101.3	0.81	0.003
0.789	13	0.813	0.003
0.816	101.3	0.865	0.003
0.893	101.3	0.922	0.003
0.895	101.3	0.924	0.003
0.912	13	0.919	0.003
0.934	101.3	0.952	0.003
0.957	13	0.96	0.003
0.972	101.3	0.979	0.003
0.993	101.3	0.995	0.003
1	13	1	
1	101.3	1	

System: 3-methylbutan-1-ol + (S)-(-)-ethyl lactate; phases: Liquid, Gas
Property: Boiling temperature at pressure P, K (Liquid); method: Ebulliometric method (Recirculating still)
Mole fraction of 3-methylbutan-1-ol	Pressure, kPa	Boiling temperature at pressure P, K	uncertainty
0	13	366.55	0.3
0	101.3	427.65	0.4
0.024	101.3	426.25	0.41
0.036	13	365.45	0.3
0.063	13	364.75	0.3
0.066	101.3	424.25	0.4
0.093	13	363.85	0.29
0.112	101.3	422.25	0.39
0.124	13	363.05	0.29
0.128	101.3	421.65	0.39
0.149	101.3	420.85	0.39
0.186	13	361.85	0.28
0.197	101.3	419.15	0.39
0.238	101.3	417.85	0.38
0.251	101.3	417.35	0.38
0.271	13	360.15	0.28
0.284	101.3	416.55	0.38
0.314	101.3	415.75	0.37
0.328	101.3	415.25	0.37
0.329	13	359.25	0.28
0.363	101.3	414.35	0.37
0.407	101.3	413.25	0.37
0.425	13	357.85	0.27
0.458	101.3	412.35	0.36
0.47	13	357.45	0.27
0.517	101.3	411.05	0.36
0.542	13	356.85	0.27
0.568	13	356.45	0.26
0.604	101.3	409.35	0.36
0.649	101.3	408.55	0.35
0.658	13	355.65	0.26
0.707	101.3	407.75	0.35
0.759	13	354.95	0.26
0.785	101.3	406.55	0.34
0.806	13	354.65	0.26
0.862	101.3	405.45	0.34
0.875	13	354.35	0.25
0.933	101.3	404.55	0.33
0.966	101.3	404.05	0.33
0.984	13	353.85	0.25
0.997	101.3	403.85	0.33
1	13	353.75	0.25
1	101.3	403.75	0.33

System: 3-methylbutan-1-ol + (S)-(-)-ethyl lactate; phases: Gas, Liquid
Property: Mole fraction of 3-methylbutan-1-ol (Gas); method: Index of refraction calibration data
Mole fraction of 3-methylbutan-1-ol	Pressure, kPa	Mole fraction of 3-methylbutan-1-ol	uncertainty
0	13	0	
0	101.3	0	
0.024	101.3	0.057	0.005
0.036	13	0.077	0.005
0.063	13	0.129	0.004
0.066	101.3	0.147	0.005
0.093	13	0.181	0.004
0.112	101.3	0.233	0.004
0.124	13	0.234	0.004
0.128	101.3	0.261	0.004
0.149	101.3	0.295	0.004
0.186	13	0.321	0.003
0.197	101.3	0.365	0.004
0.238	101.3	0.421	0.003
0.251	101.3	0.434	0.003
0.271	13	0.426	0.003
0.284	101.3	0.476	0.003
0.314	101.3	0.509	0.003
0.328	101.3	0.526	0.003
0.329	13	0.485	0.003
0.363	101.3	0.559	0.003
0.407	101.3	0.602	0.003
0.425	13	0.576	0.003
0.458	101.3	0.646	0.003
0.47	13	0.612	0.003
0.517	101.3	0.691	0.003
0.542	13	0.667	0.003
0.568	13	0.688	0.003
0.604	101.3	0.756	0.003
0.649	101.3	0.786	0.002
0.658	13	0.754	0.003
0.707	101.3	0.822	0.002
0.759	13	0.821	0.003
0.785	101.3	0.872	0.002
0.806	13	0.854	0.003
0.862	101.3	0.918	0.002
0.875	13	0.904	0.003
0.933	101.3	0.961	0.002
0.966	101.3	0.98	0.002
0.984	13	0.987	0.003
0.997	101.3	0.998	0.002
1	13	1	
1	101.3	1	
