Measured thermophysical data. Heat Capacity of alpha,omega-Bromochloroalkanes and ?,?-Dibromoalkanes: Their Dependence on the Hydrocarbon Chain Length and Temperature (285.15 to 355.15) K
Source: J. Chem. Eng. Data, 2012, 10.1021/je201002j
Compound 1: 1,2-dibromoethane, C2H4Br2, InChI=1S/C2H4Br2/c3-1-2-4/h1-2H2, purity 99%
Compound 2: 1,3-dibromopropane, C3H6Br2, InChI=1S/C3H6Br2/c4-2-1-3-5/h1-3H2, purity 99%
Compound 3: 1,4-dibromobutane, C4H8Br2, InChI=1S/C4H8Br2/c5-3-1-2-4-6/h1-4H2, purity 99%
Compound 4: 1,5-dibromopentane, C5H10Br2, InChI=1S/C5H10Br2/c6-4-2-1-3-5-7/h1-5H2, purity 98%
Compound 5: 1,6-dibromohexane, C6H12Br2, InChI=1S/C6H12Br2/c7-5-3-1-2-4-6-8/h1-6H2, purity 97%
Compound 6: 1,8-dibromooctane, C8H16Br2, InChI=1S/C8H16Br2/c9-7-5-3-1-2-4-6-8-10/h1-8H2, purity 98%
Compound 7: 1,9-dibromononane, C9H18Br2, InChI=1S/C9H18Br2/c10-8-6-4-2-1-3-5-7-9-11/h1-9H2, purity 97%
Compound 8: 1,11-dibromoundecane, C11H22Br2, InChI=1S/C11H22Br2/c12-10-8-6-4-2-1-3-5-7-9-11-13/h1-11H2, purity 98%
Compound 9: 1,12-dibromododecane, C12H24Br2, InChI=1S/C12H24Br2/c13-11-9-7-5-3-1-2-4-6-8-10-12-14/h1-12H2, purity 98%
Compound 10: 1-bromo-2-chloroethane, C2H4BrCl, InChI=1S/C2H4BrCl/c3-1-2-4/h1-2H2, purity 98%
Compound 11: 1-bromo-3-chloropropane, C3H6BrCl, InChI=1S/C3H6BrCl/c4-2-1-3-5/h1-3H2, purity 99%
Compound 12: 1-bromo-4-chlorobutane, C4H8BrCl, InChI=1S/C4H8BrCl/c5-3-1-2-4-6/h1-4H2, purity 99%
Compound 13: 1-bromo-5-chloropentane, C5H10BrCl, InChI=1S/C5H10BrCl/c6-4-2-1-3-5-7/h1-5H2, purity 98%
Compound 14: 1-bromo-6-chlorohexane, C6H12BrCl, InChI=1S/C6H12BrCl/c7-5-3-1-2-4-6-8/h1-6H2, purity 97%

System: 1,2-dibromoethane; phases: Liquid
Fixed: Pressure, kPa = 101.325
Property: Molar heat capacity at constant pressure, J/K/mol (Liquid); method: Small sample (50 mg) DSC
Temperature, K	Molar heat capacity at constant pressure, J/K/mol	uncertainty
285.15	136.31	2.36
286.65	136.37	2.36
288.15	136.43	2.36
289.65	136.5	2.36
291.15	136.56	2.37
292.65	136.63	2.37
294.15	136.7	2.37
295.65	136.77	2.37
297.15	136.84	2.37
298.15	136.89	2.37
298.65	136.92	2.37
300.15	136.99	2.37
301.65	137.07	2.37
303.15	137.15	2.38
304.65	137.23	2.38
306.15	137.31	2.38
307.65	137.39	2.38
309.15	137.48	2.38
310.65	137.57	2.38
312.15	137.66	2.38
313.65	137.75	2.39
315.15	137.84	2.39
316.65	137.93	2.39
318.15	138.03	2.39
319.65	138.13	2.39
321.15	138.22	2.39
322.65	138.33	2.4
324.15	138.43	2.4
325.65	138.53	2.4
327.15	138.64	2.4
328.65	138.74	2.4
330.15	138.85	2.4
331.65	138.96	2.41
333.15	139.07	2.41
334.65	139.19	2.41
336.15	139.3	2.41
337.65	139.42	2.41
339.15	139.54	2.42
340.65	139.66	2.42
342.15	139.78	2.42
343.65	139.9	2.42
345.15	140.03	2.43
346.65	140.16	2.43
348.15	140.29	2.43
349.65	140.42	2.43
351.15	140.55	2.43
352.65	140.68	2.44
354.15	140.82	2.44
355.15	140.91	2.44

System: 1,3-dibromopropane; phases: Liquid
Fixed: Pressure, kPa = 101.325
Property: Molar heat capacity at constant pressure, J/K/mol (Liquid); method: Small sample (50 mg) DSC
Temperature, K	Molar heat capacity at constant pressure, J/K/mol	uncertainty
285.15	162.24	2.81
286.65	162.41	2.81
288.15	162.57	2.82
289.65	162.74	2.82
291.15	162.92	2.82
292.65	163.09	2.82
294.15	163.26	2.83
295.65	163.44	2.83
297.15	163.62	2.83
298.15	163.73	2.84
298.65	163.79	2.84
300.15	163.97	2.84
301.65	164.15	2.84
303.15	164.34	2.85
304.65	164.52	2.85
306.15	164.71	2.85
307.65	164.89	2.86
309.15	165.08	2.86
310.65	165.27	2.86
312.15	165.46	2.87
313.65	165.65	2.87
315.15	165.85	2.87
316.65	166.04	2.88
318.15	166.24	2.88
319.65	166.43	2.88
321.15	166.63	2.89
322.65	166.83	2.89
324.15	167.04	2.89
325.65	167.24	2.9
327.15	167.44	2.9
328.65	167.65	2.9
330.15	167.86	2.91
331.65	168.06	2.91
333.15	168.27	2.91
334.65	168.49	2.92
336.15	168.7	2.92
337.65	168.91	2.93
339.15	169.13	2.93
340.65	169.35	2.93
342.15	169.56	2.94
343.65	169.78	2.94
345.15	170	2.94
346.65	170.23	2.95
348.15	170.45	2.95
349.65	170.68	2.96
351.15	170.9	2.96
352.65	171.13	2.96
354.15	171.36	2.97
355.15	171.51	2.97

System: 1,4-dibromobutane; phases: Liquid
Fixed: Pressure, kPa = 101.325
Property: Molar heat capacity at constant pressure, J/K/mol (Liquid); method: Small sample (50 mg) DSC
Temperature, K	Molar heat capacity at constant pressure, J/K/mol	uncertainty
285.15	189.62	3.28
286.65	189.85	3.29
288.15	190.08	3.29
289.65	190.32	3.3
291.15	190.55	3.3
292.65	190.79	3.3
294.15	191.03	3.31
295.65	191.27	3.31
297.15	191.52	3.32
298.15	191.68	3.32
298.65	191.76	3.32
300.15	192.01	3.33
301.65	192.26	3.33
303.15	192.51	3.33
304.65	192.76	3.34
306.15	193.01	3.34
307.65	193.26	3.35
309.15	193.52	3.35
310.65	193.78	3.36
312.15	194.04	3.36
313.65	194.3	3.37
315.15	194.56	3.37
316.65	194.82	3.37
318.15	195.09	3.38
319.65	195.35	3.38
321.15	195.62	3.39
322.65	195.89	3.39
324.15	196.16	3.4
325.65	196.44	3.4
327.15	196.71	3.41
328.65	196.99	3.41
330.15	197.27	3.42
331.65	197.55	3.42
333.15	197.83	3.43
334.65	198.11	3.43
336.15	198.4	3.44
337.65	198.68	3.44
339.15	198.97	3.45
340.65	199.26	3.45
342.15	199.55	3.46
343.65	199.84	3.46
345.15	200.14	3.47
346.65	200.43	3.47
348.15	200.73	3.48
349.65	201.03	3.48
351.15	201.33	3.49
352.65	201.63	3.49
354.15	201.93	3.5
355.15	202.14	3.5

System: 1,5-dibromopentane; phases: Liquid
Fixed: Pressure, kPa = 101.325
Property: Molar heat capacity at constant pressure, J/K/mol (Liquid); method: Small sample (50 mg) DSC
Temperature, K	Molar heat capacity at constant pressure, J/K/mol	uncertainty
285.15	217.95	3.78
286.65	218.27	3.78
288.15	218.58	3.79
289.65	218.9	3.79
291.15	219.22	3.8
292.65	219.54	3.8
294.15	219.86	3.81
295.65	220.18	3.81
297.15	220.5	3.82
298.15	220.72	3.82
298.65	220.83	3.82
300.15	221.16	3.83
301.65	221.49	3.84
303.15	221.82	3.84
304.65	222.15	3.85
306.15	222.48	3.85
307.65	222.82	3.86
309.15	223.16	3.87
310.65	223.5	3.87
312.15	223.84	3.88
313.65	224.18	3.88
315.15	224.52	3.89
316.65	224.87	3.89
318.15	225.21	3.9
319.65	225.56	3.91
321.15	225.91	3.91
322.65	226.26	3.92
324.15	226.62	3.93
325.65	226.97	3.93
327.15	227.33	3.94
328.65	227.69	3.94
330.15	228.05	3.95
331.65	228.41	3.96
333.15	228.77	3.96
334.65	229.13	3.97
336.15	229.5	3.98
337.65	229.87	3.98
339.15	230.24	3.99
340.65	230.61	3.99
342.15	230.98	4
343.65	231.36	4.01
345.15	231.73	4.01
346.65	232.11	4.02
348.15	232.49	4.03
349.65	232.87	4.03
351.15	233.25	4.04
352.65	233.63	4.05
354.15	234.02	4.05
355.15	234.28	4.06

System: 1,6-dibromohexane; phases: Liquid
Fixed: Pressure, kPa = 101.325
Property: Molar heat capacity at constant pressure, J/K/mol (Liquid); method: Small sample (50 mg) DSC
Temperature, K	Molar heat capacity at constant pressure, J/K/mol	uncertainty
285.15	244.06	4.23
286.65	244.45	4.23
288.15	244.84	4.24
289.65	245.23	4.25
291.15	245.62	4.25
292.65	246.01	4.26
294.15	246.41	4.27
295.65	246.8	4.27
297.15	247.2	4.28
298.15	247.47	4.29
298.65	247.6	4.29
300.15	248.01	4.3
301.65	248.41	4.3
303.15	248.82	4.31
304.65	249.23	4.32
306.15	249.64	4.32
307.65	250.05	4.33
309.15	250.47	4.34
310.65	250.88	4.35
312.15	251.3	4.35
313.65	251.72	4.36
315.15	252.15	4.37
316.65	252.57	4.37
318.15	253	4.38
319.65	253.42	4.39
321.15	253.85	4.4
322.65	254.29	4.4
324.15	254.72	4.41
325.65	255.16	4.42
327.15	255.59	4.43
328.65	256.03	4.43
330.15	256.48	4.44
331.65	256.92	4.45
333.15	257.37	4.46
334.65	257.81	4.47
336.15	258.26	4.47
337.65	258.71	4.48
339.15	259.17	4.49
340.65	259.62	4.5
342.15	260.08	4.5
343.65	260.54	4.51
345.15	261	4.52
346.65	261.46	4.53
348.15	261.93	4.54
349.65	262.4	4.54
351.15	262.86	4.55
352.65	263.34	4.56
354.15	263.81	4.57
355.15	264.12	4.57

System: 1,8-dibromooctane; phases: Liquid
Fixed: Pressure, kPa = 101.325
Property: Molar heat capacity at constant pressure, J/K/mol (Liquid); method: Small sample (50 mg) DSC
Temperature, K	Molar heat capacity at constant pressure, J/K/mol	uncertainty
288.15	302.23	5.23
289.65	302.83	5.25
291.15	303.43	5.26
292.65	304.03	5.27
294.15	304.63	5.28
295.65	305.23	5.29
297.15	305.83	5.3
298.15	306.23	5.3
298.65	306.43	5.31
300.15	307.03	5.32
301.65	307.63	5.33
303.15	308.23	5.34
304.65	308.82	5.35
306.15	309.42	5.36
307.65	310.02	5.37
309.15	310.61	5.38
310.65	311.21	5.39
312.15	311.8	5.4
313.65	312.39	5.41
315.15	312.99	5.42
316.65	313.58	5.43
318.15	314.17	5.44
319.65	314.76	5.45
321.15	315.35	5.46
322.65	315.94	5.47
324.15	316.53	5.48
325.65	317.12	5.49
327.15	317.71	5.5
328.65	318.3	5.51
330.15	318.88	5.52
331.65	319.47	5.53
333.15	320.05	5.54
334.65	320.64	5.55
336.15	321.22	5.56
337.65	321.81	5.57
339.15	322.39	5.58
340.65	322.97	5.59
342.15	323.56	5.6
343.65	324.14	5.61
345.15	324.72	5.62
346.65	325.3	5.63
348.15	325.88	5.64
349.65	326.46	5.65
351.15	327.04	5.66
352.65	327.62	5.67
354.15	328.19	5.68
355.15	328.58	5.69

System: 1,9-dibromononane; phases: Liquid
Fixed: Pressure, kPa = 101.325
Property: Molar heat capacity at constant pressure, J/K/mol (Liquid); method: Small sample (50 mg) DSC
Temperature, K	Molar heat capacity at constant pressure, J/K/mol	uncertainty
286.65	330.9	5.73
288.15	331.44	5.74
289.65	332	5.75
291.15	332.56	5.76
292.65	333.14	5.77
294.15	333.72	5.78
295.65	334.3	5.79
297.15	334.9	5.8
298.15	335.29	5.81
298.65	335.5	5.81
300.15	336.1	5.82
301.65	336.72	5.83
303.15	337.34	5.84
304.65	337.96	5.85
306.15	338.59	5.86
307.65	339.23	5.88
309.15	339.87	5.89
310.65	340.52	5.9
312.15	341.17	5.91
313.65	341.83	5.92
315.15	342.49	5.93
316.65	343.16	5.94
318.15	343.83	5.96
319.65	344.5	5.97
321.15	345.18	5.98
322.65	345.86	5.99
324.15	346.54	6
325.65	347.22	6.01
327.15	347.91	6.03
328.65	348.6	6.04
330.15	349.3	6.05
331.65	349.99	6.06
333.15	350.69	6.07
334.65	351.39	6.09
336.15	352.08	6.1
337.65	352.78	6.11
339.15	353.49	6.12
340.65	354.19	6.13
342.15	354.89	6.15
343.65	355.59	6.16
345.15	356.29	6.17
346.65	356.99	6.18
348.15	357.69	6.2
349.65	358.39	6.21
351.15	359.09	6.22
352.65	359.79	6.23
354.15	360.49	6.24
355.15	360.95	6.25

System: 1,11-dibromoundecane; phases: Liquid
Fixed: Pressure, kPa = 101.325
Property: Molar heat capacity at constant pressure, J/K/mol (Liquid); method: Small sample (50 mg) DSC
Temperature, K	Molar heat capacity at constant pressure, J/K/mol	uncertainty
285.15	389.4	6.74
286.65	389.99	6.75
288.15	390.59	6.77
289.65	391.2	6.78
291.15	391.83	6.79
292.65	392.47	6.8
294.15	393.12	6.81
295.65	393.79	6.82
297.15	394.47	6.83
298.15	394.92	6.84
298.65	395.16	6.84
300.15	395.85	6.86
301.65	396.56	6.87
303.15	397.28	6.88
304.65	398.01	6.89
306.15	398.75	6.91
307.65	399.5	6.92
309.15	400.25	6.93
310.65	401.02	6.95
312.15	401.79	6.96
313.65	402.57	6.97
315.15	403.35	6.99
316.65	404.15	7
318.15	404.94	7.01
319.65	405.75	7.03
321.15	406.56	7.04
322.65	407.37	7.06
324.15	408.19	7.07
325.65	409.01	7.08
327.15	409.84	7.1
328.65	410.67	7.11
330.15	411.5	7.13
331.65	412.33	7.14
333.15	413.17	7.16
334.65	414.01	7.17
336.15	414.84	7.19
337.65	415.68	7.2
339.15	416.53	7.21
340.65	417.37	7.23
342.15	418.21	7.24
343.65	419.04	7.26
345.15	419.88	7.27
346.65	420.72	7.29
348.15	421.55	7.3
349.65	422.38	7.32
351.15	423.21	7.33
352.65	424.04	7.34
354.15	424.86	7.36
355.15	425.41	7.37

System: 1,12-dibromododecane; phases: Liquid
Fixed: Pressure, kPa = 101.325
Property: Molar heat capacity at constant pressure, J/K/mol (Liquid); method: Small sample (50 mg) DSC
Temperature, K	Molar heat capacity at constant pressure, J/K/mol	uncertainty
310.65	432.62	7.49
312.15	433.39	7.51
313.65	434.17	7.52
315.15	434.98	7.53
316.65	435.79	7.55
318.15	436.62	7.56
319.65	437.46	7.58
321.15	438.31	7.59
322.65	439.17	7.61
324.15	440.04	7.62
325.65	440.91	7.64
327.15	441.8	7.65
328.65	442.68	7.67
330.15	443.57	7.68
331.65	444.47	7.7
333.15	445.36	7.71
334.65	446.26	7.73
336.15	447.15	7.74
337.65	448.04	7.76
339.15	448.93	7.78
340.65	449.82	7.79
342.15	450.69	7.81
343.65	451.57	7.82
345.15	452.43	7.84
346.65	453.29	7.85
348.15	454.13	7.87
349.65	454.96	7.88
351.15	455.78	7.89
352.65	456.59	7.91
354.15	457.38	7.92
355.15	457.9	7.93

System: 1-bromo-2-chloroethane; phases: Liquid
Fixed: Pressure, kPa = 101.325
Property: Molar heat capacity at constant pressure, J/K/mol (Liquid); method: Small sample (50 mg) DSC
Temperature, K	Molar heat capacity at constant pressure, J/K/mol	uncertainty
285.15	136.31	2.36
286.65	136.37	2.36
288.15	136.43	2.36
289.65	136.5	2.36
291.15	136.56	2.37
292.65	136.63	2.37
294.15	136.7	2.37
295.65	136.77	2.37
297.15	136.84	2.37
298.15	136.89	2.37
298.65	136.92	2.37
300.15	136.99	2.37
301.65	137.07	2.37
303.15	137.15	2.38
304.65	137.23	2.38
306.15	137.31	2.38
307.65	137.39	2.38
309.15	137.48	2.38
310.65	137.57	2.38
312.15	137.66	2.38
313.65	137.75	2.39
315.15	137.84	2.39
316.65	137.93	2.39
318.15	138.03	2.39
319.65	138.13	2.39
321.15	138.22	2.39
322.65	138.33	2.4
324.15	138.43	2.4
325.65	138.53	2.4
327.15	138.64	2.4
328.65	138.74	2.4
330.15	138.85	2.4
331.65	138.96	2.41
333.15	139.07	2.41
334.65	139.19	2.41
336.15	139.3	2.41
337.65	139.42	2.41
339.15	139.54	2.42
340.65	139.66	2.42
342.15	139.78	2.42
343.65	139.9	2.42
345.15	140.03	2.43
346.65	140.16	2.43
348.15	140.29	2.43
349.65	140.42	2.43
351.15	140.55	2.43
352.65	140.68	2.44
354.15	140.82	2.44
355.15	140.91	2.44

System: 1-bromo-2-chloroethane; phases: Liquid
Fixed: Pressure, kPa = 101.325
Property: Mass density, kg/m3 (Liquid); method: Vibrating tube method
Temperature, K	Mass density, kg/m3	uncertainty
288.15	1742.45	2.78
298.15	1726.56	2.73
308.15	1710.57	2.68
318.15	1693.61	2.62

System: 1-bromo-3-chloropropane; phases: Liquid
Fixed: Pressure, kPa = 101.325
Property: Molar heat capacity at constant pressure, J/K/mol (Liquid); method: Small sample (50 mg) DSC
Temperature, K	Molar heat capacity at constant pressure, J/K/mol	uncertainty
285.15	162.24	2.81
286.65	162.41	2.81
288.15	162.57	2.82
289.65	162.74	2.82
291.15	162.92	2.82
292.65	163.09	2.82
294.15	163.26	2.83
295.65	163.44	2.83
297.15	163.62	2.83
298.15	163.73	2.84
298.65	163.79	2.84
300.15	163.97	2.84
301.65	164.15	2.84
303.15	164.34	2.85
304.65	164.52	2.85
306.15	164.71	2.85
307.65	164.89	2.86
309.15	165.08	2.86
310.65	165.27	2.86
312.15	165.46	2.87
313.65	165.65	2.87
315.15	165.85	2.87
316.65	166.04	2.88
318.15	166.24	2.88
319.65	166.43	2.88
321.15	166.63	2.89
322.65	166.83	2.89
324.15	167.04	2.89
325.65	167.24	2.9
327.15	167.44	2.9
328.65	167.65	2.9
330.15	167.86	2.91
331.65	168.06	2.91
333.15	168.27	2.91
334.65	168.49	2.92
336.15	168.7	2.92
337.65	168.91	2.93
339.15	169.13	2.93
340.65	169.35	2.93
342.15	169.56	2.94
343.65	169.78	2.94
345.15	170	2.94
346.65	170.23	2.95
348.15	170.45	2.95
349.65	170.68	2.96
351.15	170.9	2.96
352.65	171.13	2.96
354.15	171.36	2.97
355.15	171.51	2.97

System: 1-bromo-3-chloropropane; phases: Liquid
Fixed: Pressure, kPa = 101.325
Property: Mass density, kg/m3 (Liquid); method: Vibrating tube method
Temperature, K	Mass density, kg/m3	uncertainty
288.15	1601.96	0.78
298.15	1588.17	0.77
308.15	1574.87	0.75
318.15	1560.65	0.74

System: 1-bromo-4-chlorobutane; phases: Liquid
Fixed: Pressure, kPa = 101.325
Property: Molar heat capacity at constant pressure, J/K/mol (Liquid); method: Small sample (50 mg) DSC
Temperature, K	Molar heat capacity at constant pressure, J/K/mol	uncertainty
285.15	189.62	3.28
286.65	189.85	3.29
288.15	190.08	3.29
289.65	190.32	3.3
291.15	190.55	3.3
292.65	190.79	3.3
294.15	191.03	3.31
295.65	191.27	3.31
297.15	191.52	3.32
298.15	191.68	3.32
298.65	191.76	3.32
300.15	192.01	3.33
301.65	192.26	3.33
303.15	192.51	3.33
304.65	192.76	3.34
306.15	193.01	3.34
307.65	193.26	3.35
309.15	193.52	3.35
310.65	193.78	3.36
312.15	194.04	3.36
313.65	194.3	3.37
315.15	194.56	3.37
316.65	194.82	3.37
318.15	195.09	3.38
319.65	195.35	3.38
321.15	195.62	3.39
322.65	195.89	3.39
324.15	196.16	3.4
325.65	196.44	3.4
327.15	196.71	3.41
328.65	196.99	3.41
330.15	197.27	3.42
331.65	197.55	3.42
333.15	197.83	3.43
334.65	198.11	3.43
336.15	198.4	3.44
337.65	198.68	3.44
339.15	198.97	3.45
340.65	199.26	3.45
342.15	199.55	3.46
343.65	199.84	3.46
345.15	200.14	3.47
346.65	200.43	3.47
348.15	200.73	3.48
349.65	201.03	3.48
351.15	201.33	3.49
352.65	201.63	3.49
354.15	201.93	3.5
355.15	202.14	3.5

System: 1-bromo-4-chlorobutane; phases: Liquid
Fixed: Pressure, kPa = 101.325
Property: Mass density, kg/m3 (Liquid); method: Vibrating tube method
Temperature, K	Mass density, kg/m3	uncertainty
288.15	1496.19	0.67
298.15	1485.12	0.66
308.15	1473.33	0.65
318.15	1460.96	0.64

System: 1-bromo-5-chloropentane; phases: Liquid
Fixed: Pressure, kPa = 101.325
Property: Molar heat capacity at constant pressure, J/K/mol (Liquid); method: Small sample (50 mg) DSC
Temperature, K	Molar heat capacity at constant pressure, J/K/mol	uncertainty
285.15	217.95	3.78
286.65	218.27	3.78
288.15	218.58	3.79
289.65	218.9	3.79
291.15	219.22	3.8
292.65	219.54	3.8
294.15	219.86	3.81
295.65	220.18	3.81
297.15	220.5	3.82
298.15	220.72	3.82
298.65	220.83	3.82
300.15	221.16	3.83
301.65	221.49	3.84
303.15	221.82	3.84
304.65	222.15	3.85
306.15	222.48	3.85
307.65	222.82	3.86
309.15	223.16	3.87
310.65	223.5	3.87
312.15	223.84	3.88
313.65	224.18	3.88
315.15	224.52	3.89
316.65	224.87	3.89
318.15	225.21	3.9
319.65	225.56	3.91
321.15	225.91	3.91
322.65	226.26	3.92
324.15	226.62	3.93
325.65	226.97	3.93
327.15	227.33	3.94
328.65	227.69	3.94
330.15	228.05	3.95
331.65	228.41	3.96
333.15	228.77	3.96
334.65	229.13	3.97
336.15	229.5	3.98
337.65	229.87	3.98
339.15	230.24	3.99
340.65	230.61	3.99
342.15	230.98	4
343.65	231.36	4.01
345.15	231.73	4.01
346.65	232.11	4.02
348.15	232.49	4.03
349.65	232.87	4.03
351.15	233.25	4.04
352.65	233.63	4.05
354.15	234.02	4.05
355.15	234.28	4.06

System: 1-bromo-5-chloropentane; phases: Liquid
Fixed: Pressure, kPa = 101.325
Property: Mass density, kg/m3 (Liquid); method: Vibrating tube method
Temperature, K	Mass density, kg/m3	uncertainty
288.15	1409.7	1.8
298.15	1399.37	1.77
308.15	1388.77	1.74
318.15	1377.96	1.71

System: 1-bromo-6-chlorohexane; phases: Liquid
Fixed: Pressure, kPa = 101.325
Property: Molar heat capacity at constant pressure, J/K/mol (Liquid); method: Small sample (50 mg) DSC
Temperature, K	Molar heat capacity at constant pressure, J/K/mol	uncertainty
285.15	244.06	4.23
286.65	244.45	4.23
288.15	244.84	4.24
289.65	245.23	4.25
291.15	245.62	4.25
292.65	246.01	4.26
294.15	246.41	4.27
295.65	246.8	4.27
297.15	247.2	4.28
298.15	247.47	4.29
298.65	247.6	4.29
300.15	248.01	4.3
301.65	248.41	4.3
303.15	248.82	4.31
304.65	249.23	4.32
306.15	249.64	4.32
307.65	250.05	4.33
309.15	250.47	4.34
310.65	250.88	4.35
312.15	251.3	4.35
313.65	251.72	4.36
315.15	252.15	4.37
316.65	252.57	4.37
318.15	253	4.38
319.65	253.42	4.39
321.15	253.85	4.4
322.65	254.29	4.4
324.15	254.72	4.41
325.65	255.16	4.42
327.15	255.59	4.43
328.65	256.03	4.43
330.15	256.48	4.44
331.65	256.92	4.45
333.15	257.37	4.46
334.65	257.81	4.47
336.15	258.26	4.47
337.65	258.71	4.48
339.15	259.17	4.49
340.65	259.62	4.5
342.15	260.08	4.5
343.65	260.54	4.51
345.15	261	4.52
346.65	261.46	4.53
348.15	261.93	4.54
349.65	262.4	4.54
351.15	262.86	4.55
352.65	263.34	4.56
354.15	263.81	4.57
355.15	264.12	4.57

System: 1-bromo-6-chlorohexane; phases: Liquid
Fixed: Pressure, kPa = 101.325
Property: Mass density, kg/m3 (Liquid); method: Vibrating tube method
Temperature, K	Mass density, kg/m3	uncertainty
288.15	1345.17	3.52
298.15	1336.47	3.47
308.15	1327.17	3.42
318.15	1316.45	3.37
