Measured thermophysical data. Solid Liquid Equilibria of the Ternary Sodium 3-Nitrobenzenesulfonate + Sodium 4-Nitrobenzenesulfonate + Water System
Source: J. Chem. Eng. Data, 2011, 10.1021/je200202g
Compound 1: sodium 3-nitrobenzenesulfonate, C6H4NNaO5S, InChI=1S/C6H5NO5S.Na/c8-7(9)5-2-1-3-6(4-5)13(10,11)12;/h1-4H,(H,10,11,12);/q;+1/p-1, purity 99.5%
Compound 2: sodium 4-nitrobenzenesulfonate, C6H4NNaO5S, InChI=1S/C6H5NO5S.Na/c8-7(9)5-1-3-6(4-2-5)13(10,11)12;/h1-4H,(H,10,11,12);/q;+1/p-1, purity 99.5%
Compound 3: water, H2O, InChI=1S/H2O/h1H2, purity 99.9%

System: sodium 3-nitrobenzenesulfonate + sodium 4-nitrobenzenesulfonate + water; phases: Liquid, Crystal
Fixed: Temperature, K = 283.15
Fixed: Pressure, kPa = 101
Property: Mass density, kg/m3 (Liquid); method: Pycnometric method
Mass fraction of sodium 4-nitrobenzenesulfonate	Mass density, kg/m3	uncertainty
0	1053.2	1
0.0251	1070	1
0.0526	1104.6	1.1
0.0677	1136.1	1.1

System: sodium 3-nitrobenzenesulfonate + sodium 4-nitrobenzenesulfonate + water; phases: Liquid, Crystal, Crystal
Property: Mass density, kg/m3 (Liquid); method: Pycnometric method
Temperature, K	Pressure, kPa	Mass density, kg/m3	uncertainty
283.15	101	1159.4	1.1

System: sodium 3-nitrobenzenesulfonate + sodium 4-nitrobenzenesulfonate + water; phases: Liquid, Crystal
Fixed: Temperature, K = 283.15
Fixed: Pressure, kPa = 101
Property: Mass density, kg/m3 (Liquid); method: Pycnometric method
Mass fraction of sodium 4-nitrobenzenesulfonate	Mass density, kg/m3	uncertainty
0.0732	1164.2	1.6
0.0767	1110.9	1.3
0.0832	1071.9	1.1
0.0949	1060.2	1
0.1097	1055	1
0.1231	1050.3	1
0.1417	1048.6	1

System: sodium 3-nitrobenzenesulfonate + sodium 4-nitrobenzenesulfonate + water; phases: Liquid, Crystal of intercomponent compound 1, Crystal
Property: Mass density, kg/m3 (Liquid); method: Pycnometric method
Temperature, K	Pressure, kPa	Mass density, kg/m3	uncertainty
323.15	101	1185.8	1.1

System: sodium 3-nitrobenzenesulfonate + sodium 4-nitrobenzenesulfonate + water; phases: Liquid, Crystal, Crystal
Property: Mass density, kg/m3 (Liquid); method: Pycnometric method
Temperature, K	Pressure, kPa	Mass density, kg/m3	uncertainty
303.15	101	1143.5	1.1

System: sodium 3-nitrobenzenesulfonate + sodium 4-nitrobenzenesulfonate + water; phases: Liquid, Crystal
Fixed: Temperature, K = 283.15
Fixed: Pressure, kPa = 101
Property: Mass density, kg/m3 (Liquid); method: Pycnometric method
Mass fraction of sodium 4-nitrobenzenesulfonate	Mass density, kg/m3	uncertainty
0.1642	1133.4	1.1
0.1738	1125	1.1
0.1834	1115.4	1.1
0.1924	1112.2	1.1
0.2042	1108.3	1.1
0.2184	1104.1	1.1
0.2325	1099.1	1.1
0.246	1096.3	1.1
0.2662	1094.2	1.1

System: sodium 3-nitrobenzenesulfonate + sodium 4-nitrobenzenesulfonate + water; phases: Liquid, Crystal
Fixed: Temperature, K = 323.15
Fixed: Pressure, kPa = 101
Property: Mass density, kg/m3 (Liquid); method: Pycnometric method
Mass fraction of sodium 4-nitrobenzenesulfonate	Mass density, kg/m3	uncertainty
0	1108.6	1.1
0.0207	1124.5	1.1
0.0346	1144.2	1.1
0.0626	1190.2	1.2

System: sodium 3-nitrobenzenesulfonate + sodium 4-nitrobenzenesulfonate + water; phases: Liquid, Crystal
Fixed: Temperature, K = 323.15
Fixed: Pressure, kPa = 101
Property: Mass density, kg/m3 (Liquid); method: Pycnometric method
Mass fraction of sodium 4-nitrobenzenesulfonate	Mass density, kg/m3	uncertainty
0.3402	1300.1	3
0.3471	1245.2	2.1
0.3572	1215.7	1.4
0.3768	1180.7	1.2
0.3955	1165	1.2
0.4137	1157.4	1.1

System: sodium 3-nitrobenzenesulfonate + sodium 4-nitrobenzenesulfonate + water; phases: Liquid, Crystal
Fixed: Temperature, K = 303.15
Fixed: Pressure, kPa = 101
Property: Mass density, kg/m3 (Liquid); method: Pycnometric method
Mass fraction of sodium 4-nitrobenzenesulfonate	Mass density, kg/m3	uncertainty
0	1082.3	1
0.0198	1085.4	1
0.0429	1090.3	1
0.0666	1095.8	1.1
0.0897	1103.3	1.1
0.1151	1112.5	1.1
0.1396	1124.5	1.1

System: sodium 3-nitrobenzenesulfonate + sodium 4-nitrobenzenesulfonate + water; phases: Liquid, Crystal of intercomponent compound 1, Crystal
Property: Mass density, kg/m3 (Liquid); method: Pycnometric method
Temperature, K	Pressure, kPa	Mass density, kg/m3	uncertainty
323.15	101	1356.4	1.3

System: sodium 3-nitrobenzenesulfonate + sodium 4-nitrobenzenesulfonate + water; phases: Liquid, Crystal of intercomponent compound 1
Fixed: Temperature, K = 323.15
Fixed: Pressure, kPa = 101
Property: Mass density, kg/m3 (Liquid); method: Pycnometric method
Mass fraction of sodium 4-nitrobenzenesulfonate	Mass density, kg/m3	uncertainty
0.0969	1217.1	1.2
0.1646	1287.6	1.2
0.245	1336.6	1.3
0.3073	1371	1.3
0.332	1371.4	1.3

System: sodium 3-nitrobenzenesulfonate + sodium 4-nitrobenzenesulfonate + water; phases: Liquid, Crystal
Fixed: Pressure, kPa = 101
Fixed: Temperature, K = 283.15
Property: Mass fraction of sodium 3-nitrobenzenesulfonate (Liquid); method: Chromatography
Mass fraction of sodium 4-nitrobenzenesulfonate	Mass fraction of sodium 3-nitrobenzenesulfonate	uncertainty
0	0.1913	0.0007
0.0251	0.1879	0.0007
0.0526	0.187	0.0007
0.0677	0.1875	0.0007

System: sodium 3-nitrobenzenesulfonate + sodium 4-nitrobenzenesulfonate + water; phases: Liquid, Crystal, Crystal
Property: Mass fraction of sodium 3-nitrobenzenesulfonate (Liquid); method: Chromatography
Temperature, K	Pressure, kPa	Mass fraction of sodium 3-nitrobenzenesulfonate	uncertainty
283.15	101	0.1879	0.0007

System: sodium 3-nitrobenzenesulfonate + sodium 4-nitrobenzenesulfonate + water; phases: Liquid, Crystal
Fixed: Pressure, kPa = 101
Fixed: Temperature, K = 283.15
Property: Mass fraction of sodium 3-nitrobenzenesulfonate (Liquid); method: Chromatography
Mass fraction of sodium 4-nitrobenzenesulfonate	Mass fraction of sodium 3-nitrobenzenesulfonate	uncertainty
0.0732	0.1831	0.0007
0.0767	0.1602	0.0006
0.0832	0.1327	0.0005
0.0949	0.0908	0.0003
0.1097	0.0531	0.0002
0.1231	0.0293	0.0001
0.1417	0	

System: sodium 3-nitrobenzenesulfonate + sodium 4-nitrobenzenesulfonate + water; phases: Liquid, Crystal
Fixed: Pressure, kPa = 101
Fixed: Temperature, K = 303.15
Property: Mass fraction of sodium 3-nitrobenzenesulfonate (Liquid); method: Chromatography
Mass fraction of sodium 4-nitrobenzenesulfonate	Mass fraction of sodium 3-nitrobenzenesulfonate	uncertainty
0	0.2651	0.0011
0.0198	0.2607	0.0011
0.0429	0.2562	0.001
0.0666	0.2537	0.001
0.0897	0.2528	0.001
0.1151	0.2534	0.001
0.1396	0.2558	0.001

System: sodium 3-nitrobenzenesulfonate + sodium 4-nitrobenzenesulfonate + water; phases: Liquid, Crystal, Crystal
Property: Mass fraction of sodium 3-nitrobenzenesulfonate (Liquid); method: Chromatography
Temperature, K	Pressure, kPa	Mass fraction of sodium 3-nitrobenzenesulfonate	uncertainty
303.15	101	0.2584	0.001

System: sodium 3-nitrobenzenesulfonate + sodium 4-nitrobenzenesulfonate + water; phases: Liquid, Crystal
Fixed: Pressure, kPa = 101
Fixed: Temperature, K = 303.15
Property: Mass fraction of sodium 3-nitrobenzenesulfonate (Liquid); method: Chromatography
Mass fraction of sodium 4-nitrobenzenesulfonate	Mass fraction of sodium 3-nitrobenzenesulfonate	uncertainty
0.1642	0.2279	0.0009
0.1738	0.1952	0.0007
0.1834	0.1625	0.0006
0.1924	0.1275	0.0004
0.2042	0.0993	0.0003
0.2184	0.0716	0.0002
0.2325	0.0457	0.0002
0.246	0.0225	0.0001
0.2662	0	

System: sodium 3-nitrobenzenesulfonate + sodium 4-nitrobenzenesulfonate + water; phases: Liquid, Crystal
Fixed: Pressure, kPa = 101
Fixed: Temperature, K = 323.15
Property: Mass fraction of sodium 3-nitrobenzenesulfonate (Liquid); method: Chromatography
Mass fraction of sodium 4-nitrobenzenesulfonate	Mass fraction of sodium 3-nitrobenzenesulfonate	uncertainty
0	0.41	0.0021
0.0207	0.3924	0.0019
0.0346	0.3842	0.0019
0.0626	0.3724	0.0018

System: sodium 3-nitrobenzenesulfonate + sodium 4-nitrobenzenesulfonate + water; phases: Liquid, Crystal
Fixed: Pressure, kPa = 101
Fixed: Temperature, K = 323.15
Property: Mass fraction of sodium 3-nitrobenzenesulfonate (Liquid); method: Chromatography
Mass fraction of sodium 4-nitrobenzenesulfonate	Mass fraction of sodium 3-nitrobenzenesulfonate	uncertainty
0.3402	0.252	0.001
0.3471	0.2069	0.0008
0.3572	0.1552	0.0006
0.3768	0.0891	0.0003
0.3955	0.045	0.0002
0.4137	0	

System: sodium 3-nitrobenzenesulfonate + sodium 4-nitrobenzenesulfonate + water; phases: Liquid, Crystal of intercomponent compound 1, Crystal
Property: Mass fraction of sodium 3-nitrobenzenesulfonate (Liquid); method: Chromatography
Temperature, K	Pressure, kPa	Mass fraction of sodium 3-nitrobenzenesulfonate	uncertainty
323.15	101	0.3723	0.0018

System: sodium 3-nitrobenzenesulfonate + sodium 4-nitrobenzenesulfonate + water; phases: Liquid, Crystal of intercomponent compound 1, Crystal
Property: Mass fraction of sodium 3-nitrobenzenesulfonate (Liquid); method: Chromatography
Temperature, K	Pressure, kPa	Mass fraction of sodium 3-nitrobenzenesulfonate	uncertainty
323.15	101	0.2589	0.001

System: sodium 3-nitrobenzenesulfonate + sodium 4-nitrobenzenesulfonate + water; phases: Liquid, Crystal of intercomponent compound 1
Fixed: Pressure, kPa = 101
Fixed: Temperature, K = 323.15
Property: Mass fraction of sodium 3-nitrobenzenesulfonate (Liquid); method: Chromatography
Mass fraction of sodium 4-nitrobenzenesulfonate	Mass fraction of sodium 3-nitrobenzenesulfonate	uncertainty
0.0969	0.3688	0.0018
0.1646	0.3643	0.0017
0.245	0.3471	0.0016
0.3073	0.3116	0.0014
0.332	0.273	0.0011

System: sodium 3-nitrobenzenesulfonate + sodium 4-nitrobenzenesulfonate + water; phases: Liquid, Crystal, Crystal
Property: Mass fraction of sodium 4-nitrobenzenesulfonate (Liquid); method: Chromatography
Temperature, K	Pressure, kPa	Mass fraction of sodium 4-nitrobenzenesulfonate	uncertainty
283.15	101	0.0712	0.0002

System: sodium 3-nitrobenzenesulfonate + sodium 4-nitrobenzenesulfonate + water; phases: Liquid, Crystal, Crystal
Property: Mass fraction of sodium 4-nitrobenzenesulfonate (Liquid); method: Chromatography
Temperature, K	Pressure, kPa	Mass fraction of sodium 4-nitrobenzenesulfonate	uncertainty
303.15	101	0.1574	0.0006

System: sodium 3-nitrobenzenesulfonate + sodium 4-nitrobenzenesulfonate + water; phases: Liquid, Crystal of intercomponent compound 1, Crystal
Property: Mass fraction of sodium 4-nitrobenzenesulfonate (Liquid); method: Chromatography
Temperature, K	Pressure, kPa	Mass fraction of sodium 4-nitrobenzenesulfonate	uncertainty
323.15	101	0.0691	0.0002

System: sodium 3-nitrobenzenesulfonate + sodium 4-nitrobenzenesulfonate + water; phases: Liquid, Crystal of intercomponent compound 1, Crystal
Property: Mass fraction of sodium 4-nitrobenzenesulfonate (Liquid); method: Chromatography
Temperature, K	Pressure, kPa	Mass fraction of sodium 4-nitrobenzenesulfonate	uncertainty
323.15	101	0.339	0.0015
