Measured thermophysical data. Absorption Data for Carbon Dioxide in Aqueous Blends of  Methyl-Diethanolamine (MDEA) and Diethanol Amine (DEA):  25% MDEA + 25% DEA and 30 % MDEA + 20% DEA
Source: J. Chem. Eng. Data, 2012, 10.1021/je201132d
Compound 1: diethanolamine, C4H11NO2, InChI=1S/C4H11NO2/c6-3-1-5-2-4-7/h5-7H,1-4H2, purity 99%
Compound 2: water, H2O, InChI=1S/H2O/h1H2, purity 99.99%
Compound 3: carbon dioxide, CO2, InChI=1S/CO2/c2-1-3

System: diethanolamine + carbon dioxide + water; phases: Liquid, Gas
Fixed: Temperature, K = 392.1
Fixed: Mass fraction of diethanolamine = 0.5
Property: Mole fraction of carbon dioxide (Liquid); method: Chromatography
Pressure, kPa	Mole fraction of carbon dioxide	uncertainty
150	0.084	0.003
450	0.219	0.009
1050	0.294	0.012
