Measured thermophysical data. Activity Coefficients at Infinite Dilution of Organic Compounds in Four New Imidazolium-Based Ionic Liquids
Source: J. Chem. Eng. Data, 2011, 10.1021/je200195q
Compound 1: hexane, C6H14, InChI=1S/C6H14/c1-3-5-6-4-2/h3-6H2,1-2H3
Compound 2: 1-hexyl-3-methylimidazolium tris(pentafluoroethyl)trifluorophosphate, C16H19F18N2P, InChI=1S/C10H19N2.C6F18P/c1-3-4-5-6-7-12-9-8-11(2)10-12;7-1(8,9)4(16,17)25(22,23,24,5(18,19)2(10,11)12)6(20,21)3(13,14)15/h8-10H,3-7H2,1-2H3;/q+1;-1
Compound 3: 3-methylpentane, C6H14, InChI=1S/C6H14/c1-4-6(3)5-2/h6H,4-5H2,1-3H3
Compound 4: heptane, C7H16, InChI=1S/C7H16/c1-3-5-7-6-4-2/h3-7H2,1-2H3
Compound 5: 2,2,4-trimethylpentane, C8H18, InChI=1S/C8H18/c1-7(2)6-8(3,4)5/h7H,6H2,1-5H3
Compound 6: octane, C8H18, InChI=1S/C8H18/c1-3-5-7-8-6-4-2/h3-8H2,1-2H3
Compound 7: nonane, C9H20, InChI=1S/C9H20/c1-3-5-7-9-8-6-4-2/h3-9H2,1-2H3
Compound 8: decane, C10H22, InChI=1S/C10H22/c1-3-5-7-9-10-8-6-4-2/h3-10H2,1-2H3
Compound 9: undecane, C11H24, InChI=1S/C11H24/c1-3-5-7-9-11-10-8-6-4-2/h3-11H2,1-2H3
Compound 10: dodecane, C12H26, InChI=1S/C12H26/c1-3-5-7-9-11-12-10-8-6-4-2/h3-12H2,1-2H3
Compound 11: methylcyclopentane, C6H12, InChI=1S/C6H12/c1-6-4-2-3-5-6/h6H,2-5H2,1H3
Compound 12: cyclohexane, C6H12, InChI=1S/C6H12/c1-2-4-6-5-3-1/h1-6H2
Compound 13: methylcyclohexane, C7H14, InChI=1S/C7H14/c1-7-5-3-2-4-6-7/h7H,2-6H2,1H3
Compound 14: cycloheptane, C7H14, InChI=1S/C7H14/c1-2-4-6-7-5-3-1/h1-7H2
Compound 15: benzene, C6H6, InChI=1S/C6H6/c1-2-4-6-5-3-1/h1-6H
Compound 16: toluene, C7H8, InChI=1S/C7H8/c1-7-5-3-2-4-6-7/h2-6H,1H3
Compound 17: ethylbenzene, C8H10, InChI=1S/C8H10/c1-2-8-6-4-3-5-7-8/h3-7H,2H2,1H3
Compound 18: 1,3-dimethylbenzene, C8H10, InChI=1S/C8H10/c1-7-4-3-5-8(2)6-7/h3-6H,1-2H3
Compound 19: 1,4-dimethylbenzene, C8H10, InChI=1S/C8H10/c1-7-3-5-8(2)6-4-7/h3-6H,1-2H3
Compound 20: 1,2-dimethylbenzene, C8H10, InChI=1S/C8H10/c1-7-5-3-4-6-8(7)2/h3-6H,1-2H3
Compound 21: hex-1-ene, C6H12, InChI=1S/C6H12/c1-3-5-6-4-2/h3H,1,4-6H2,2H3
Compound 22: 1-hexyne, C6H10, InChI=1S/C6H10/c1-3-5-6-4-2/h1H,4-6H2,2H3
Compound 23: 1-heptyne, C7H12, InChI=1S/C7H12/c1-3-5-7-6-4-2/h1H,4-7H2,2H3
Compound 24: butanone, C4H8O, InChI=1S/C4H8O/c1-3-4(2)5/h3H2,1-2H3
Compound 25: pentan-2-one, C5H10O, InChI=1S/C5H10O/c1-3-4-5(2)6/h3-4H2,1-2H3
Compound 26: pentan-3-one, C5H10O, InChI=1S/C5H10O/c1-3-5(6)4-2/h3-4H2,1-2H3
Compound 27: 1,4-dioxane, C4H8O2, InChI=1S/C4H8O2/c1-2-6-4-3-5-1/h1-4H2
Compound 28: methanol, CH4O, InChI=1S/CH4O/c1-2/h2H,1H3
Compound 29: ethanol, C2H6O, InChI=1S/C2H6O/c1-2-3/h3H,2H2,1H3
Compound 30: propan-1-ol, C3H8O, InChI=1S/C3H8O/c1-2-3-4/h4H,2-3H2,1H3
Compound 31: propan-2-ol, C3H8O, InChI=1S/C3H8O/c1-3(2)4/h3-4H,1-2H3
Compound 32: 2-methyl-1-propanol, C4H10O, InChI=1S/C4H10O/c1-4(2)3-5/h4-5H,3H2,1-2H3
Compound 33: butan-1-ol, C4H10O, InChI=1S/C4H10O/c1-2-3-4-5/h5H,2-4H2,1H3
Compound 34: 2,2,2-trifluoroethanol, C2H3F3O, InChI=1S/C2H3F3O/c3-2(4,5)1-6/h6H,1H2
Compound 35: diethyl ether, C4H10O, InChI=1S/C4H10O/c1-3-5-4-2/h3-4H2,1-2H3
Compound 36: diisopropyl ether, C6H14O, InChI=1S/C6H14O/c1-5(2)7-6(3)4/h5-6H,1-4H3
Compound 37: trichloromethane, CHCl3, InChI=1S/CHCl3/c2-1(3)4/h1H
Compound 38: dichloromethane, CH2Cl2, InChI=1S/CH2Cl2/c2-1-3/h1H2
Compound 39: tetrachloromethane, CCl4, InChI=1S/CCl4/c2-1(3,4)5
Compound 40: acetonitrile, C2H3N, InChI=1S/C2H3N/c1-2-3/h1H3
Compound 41: nitromethane, CH3NO2, InChI=1S/CH3NO2/c1-2(3)4/h1H3
Compound 42: 1-nitropropane, C3H7NO2, InChI=1S/C3H7NO2/c1-2-3-4(5)6/h2-3H2,1H3
Compound 43: triethylamine, C6H15N, InChI=1S/C6H15N/c1-4-7(5-2)6-3/h4-6H2,1-3H3
Compound 44: pyridine, C5H5N, InChI=1S/C5H5N/c1-2-4-6-5-3-1/h1-5H
Compound 45: thiophene, C4H4S, InChI=1S/C4H4S/c1-2-4-5-3-1/h1-4H
Compound 46: methanal, CH2O, InChI=1S/CH2O/c1-2/h1H2
Compound 47: propanal, C3H6O, InChI=1S/C3H6O/c1-2-3-4/h3H,2H2,1H3
Compound 48: 1-butyl-3-methylimidazolium bis(perfluoroethylsulfonyl)imide, C12H15F10N3O4S2, InChI=1S/C8H15N2.C4F10NO4S2/c1-3-4-5-10-7-6-9(2)8-10;5-1(6,7)3(11,12)20(16,17)15-21(18,19)4(13,14)2(8,9)10/h6-8H,3-5H2,1-2H3;/q+1;-1, purity 99.9%
Compound 49: 1,3-didecyl-2-methyl-1H-imidazolium bis(trifluoromethylsulfonyl)amide, C26H47F6N3O4S2, InChI=1S/C24H47N2.C2F6NO4S2/c1-4-6-8-10-12-14-16-18-20-25-22-23-26(24(25)3)21-19-17-15-13-11-9-7-5-2;3-1(4,5)14(10,11)9-15(12,13)2(6,7)8/h22-23H,4-21H2,1-3H3;/q+1;-1
Compound 50: 1-ethyl-3-methylimidazolium methanesulfonate, C7H14N2O3S, InChI=1S/C6H11N2.CH4O3S/c1-3-8-5-4-7(2)6-8;1-5(2,3)4/h4-6H,3H2,1-2H3;1H3,(H,2,3,4)/q+1;/p-1, purity 99%
Compound 51: tridecane, C13H28, InChI=1S/C13H28/c1-3-5-7-9-11-13-12-10-8-6-4-2/h3-13H2,1-2H3, purity 99.5%
Compound 52: tetradecane, C14H30, InChI=1S/C14H30/c1-3-5-7-9-11-13-14-12-10-8-6-4-2/h3-14H2,1-2H3, purity 99.5%
Compound 53: butanal, C4H8O, InChI=1S/C4H8O/c1-2-3-4-5/h4H,2-3H2,1H3, purity 99.5%

System: hexane + 1-hexyl-3-methylimidazolium tris(pentafluoroethyl)trifluorophosphate; phases: Liquid
Fixed: Pressure, kPa = 101
Fixed: Mole fraction of hexane = 0
Property: Activity coefficient of hexane (Liquid); method: Chromatography
Temperature, K	Activity coefficient of hexane	uncertainty
312.8	6.393	0.436
332.85	5.693	0.388
354.65	4.409	0.3

System: 3-methylpentane + 1-hexyl-3-methylimidazolium tris(pentafluoroethyl)trifluorophosphate; phases: Liquid
Fixed: Pressure, kPa = 101
Fixed: Mole fraction of 3-methylpentane = 0
Property: Activity coefficient of 3-methylpentane (Liquid); method: Chromatography
Temperature, K	Activity coefficient of 3-methylpentane	uncertainty
312.8	5.629	0.384
332.85	5.055	0.344
354.65	4.43	0.302

System: heptane + 1-hexyl-3-methylimidazolium tris(pentafluoroethyl)trifluorophosphate; phases: Liquid
Fixed: Pressure, kPa = 101
Fixed: Mole fraction of heptane = 0
Property: Activity coefficient of heptane (Liquid); method: Chromatography
Temperature, K	Activity coefficient of heptane	uncertainty
312.8	8.844	0.603
332.85	7.733	0.527
354.65	6.624	0.452

System: 2,2,4-trimethylpentane + 1-hexyl-3-methylimidazolium tris(pentafluoroethyl)trifluorophosphate; phases: Liquid
Fixed: Pressure, kPa = 101
Fixed: Mole fraction of 2,2,4-trimethylpentane = 0
Property: Activity coefficient of 2,2,4-trimethylpentane (Liquid); method: Chromatography
Temperature, K	Activity coefficient of 2,2,4-trimethylpentane	uncertainty
312.8	7.982	0.544
332.85	7.13	0.486
354.65	6.18	0.421

System: octane + 1-hexyl-3-methylimidazolium tris(pentafluoroethyl)trifluorophosphate; phases: Liquid
Fixed: Pressure, kPa = 101
Fixed: Mole fraction of octane = 0
Property: Activity coefficient of octane (Liquid); method: Chromatography
Temperature, K	Activity coefficient of octane	uncertainty
312.8	12.207	0.833
332.85	10.534	0.719
354.65	8.867	0.605

System: nonane + 1-hexyl-3-methylimidazolium tris(pentafluoroethyl)trifluorophosphate; phases: Liquid
Fixed: Pressure, kPa = 101
Fixed: Mole fraction of nonane = 0
Property: Activity coefficient of nonane (Liquid); method: Chromatography
Temperature, K	Activity coefficient of nonane	uncertainty
312.8	17.681	1.208
332.85	15.467	1.056
354.65	12.441	0.849

System: decane + 1-hexyl-3-methylimidazolium tris(pentafluoroethyl)trifluorophosphate; phases: Liquid
Fixed: Pressure, kPa = 101
Fixed: Mole fraction of decane = 0
Property: Activity coefficient of decane (Liquid); method: Chromatography
Temperature, K	Activity coefficient of decane	uncertainty
312.8	22.707	1.552
332.85	19.044	1.301
354.65	15.263	1.042

System: undecane + 1-hexyl-3-methylimidazolium tris(pentafluoroethyl)trifluorophosphate; phases: Liquid
Fixed: Pressure, kPa = 101
Fixed: Mole fraction of undecane = 0
Property: Activity coefficient of undecane (Liquid); method: Chromatography
Temperature, K	Activity coefficient of undecane	uncertainty
312.8	30.977	2.119
332.85	25.474	1.741
354.65	19.895	1.359

System: dodecane + 1-hexyl-3-methylimidazolium tris(pentafluoroethyl)trifluorophosphate; phases: Liquid
Fixed: Pressure, kPa = 101
Fixed: Mole fraction of dodecane = 0
Property: Activity coefficient of dodecane (Liquid); method: Chromatography
Temperature, K	Activity coefficient of dodecane	uncertainty
312.8	39.253	2.686
332.85	33.077	2.263
354.65	25.673	1.755

System: methylcyclopentane + 1-hexyl-3-methylimidazolium tris(pentafluoroethyl)trifluorophosphate; phases: Liquid
Fixed: Pressure, kPa = 101
Fixed: Mole fraction of methylcyclopentane = 0
Property: Activity coefficient of methylcyclopentane (Liquid); method: Chromatography
Temperature, K	Activity coefficient of methylcyclopentane	uncertainty
312.8	4.58	0.312
332.85	4.086	0.278
354.65	3.522	0.24

System: cyclohexane + 1-hexyl-3-methylimidazolium tris(pentafluoroethyl)trifluorophosphate; phases: Liquid
Fixed: Pressure, kPa = 101
Fixed: Mole fraction of cyclohexane = 0
Property: Activity coefficient of cyclohexane (Liquid); method: Chromatography
Temperature, K	Activity coefficient of cyclohexane	uncertainty
312.8	4.782	0.326
332.85	4.166	0.284
354.65	3.615	0.246

System: methylcyclohexane + 1-hexyl-3-methylimidazolium tris(pentafluoroethyl)trifluorophosphate; phases: Liquid
Fixed: Pressure, kPa = 101
Fixed: Mole fraction of methylcyclohexane = 0
Property: Activity coefficient of methylcyclohexane (Liquid); method: Chromatography
Temperature, K	Activity coefficient of methylcyclohexane	uncertainty
312.8	5.886	0.401
332.85	5.231	0.356
354.65	4.494	0.306

System: cycloheptane + 1-hexyl-3-methylimidazolium tris(pentafluoroethyl)trifluorophosphate; phases: Liquid
Fixed: Pressure, kPa = 101
Fixed: Mole fraction of cycloheptane = 0
Property: Activity coefficient of cycloheptane (Liquid); method: Chromatography
Temperature, K	Activity coefficient of cycloheptane	uncertainty
312.8	9.005	0.614
332.85	13.241	0.904
354.65	28.671	1.961

System: benzene + 1-hexyl-3-methylimidazolium tris(pentafluoroethyl)trifluorophosphate; phases: Liquid
Fixed: Pressure, kPa = 101
Fixed: Mole fraction of benzene = 0
Property: Activity coefficient of benzene (Liquid); method: Chromatography
Temperature, K	Activity coefficient of benzene	uncertainty
312.8	0.517	0.039
332.85	0.552	0.04
354.65	0.564	0.041

System: toluene + 1-hexyl-3-methylimidazolium tris(pentafluoroethyl)trifluorophosphate; phases: Liquid
Fixed: Pressure, kPa = 101
Fixed: Mole fraction of toluene = 0
Property: Activity coefficient of toluene (Liquid); method: Chromatography
Temperature, K	Activity coefficient of toluene	uncertainty
312.8	0.674	0.046
332.85	0.727	0.048
354.65	0.753	0.05

System: ethylbenzene + 1-hexyl-3-methylimidazolium tris(pentafluoroethyl)trifluorophosphate; phases: Liquid
Fixed: Pressure, kPa = 101
Fixed: Mole fraction of ethylbenzene = 0
Property: Activity coefficient of ethylbenzene (Liquid); method: Chromatography
Temperature, K	Activity coefficient of ethylbenzene	uncertainty
312.8	0.956	0.06
332.85	1.032	0.065
354.65	1.043	0.066

System: 1,3-dimethylbenzene + 1-hexyl-3-methylimidazolium tris(pentafluoroethyl)trifluorophosphate; phases: Liquid
Fixed: Pressure, kPa = 101
Fixed: Mole fraction of 1,3-dimethylbenzene = 0
Property: Activity coefficient of 1,3-dimethylbenzene (Liquid); method: Chromatography
Temperature, K	Activity coefficient of 1,3-dimethylbenzene	uncertainty
312.8	0.939	0.059
332.85	0.997	0.062
354.65	1.01	0.063

System: 1,4-dimethylbenzene + 1-hexyl-3-methylimidazolium tris(pentafluoroethyl)trifluorophosphate; phases: Liquid
Fixed: Pressure, kPa = 101
Fixed: Mole fraction of 1,4-dimethylbenzene = 0
Property: Activity coefficient of 1,4-dimethylbenzene (Liquid); method: Chromatography
Temperature, K	Activity coefficient of 1,4-dimethylbenzene	uncertainty
312.8	0.992	0.062
332.85	1.034	0.065
354.65	1	0.063

System: 1,2-dimethylbenzene + 1-hexyl-3-methylimidazolium tris(pentafluoroethyl)trifluorophosphate; phases: Liquid
Fixed: Pressure, kPa = 101
Fixed: Mole fraction of 1,2-dimethylbenzene = 0
Property: Activity coefficient of 1,2-dimethylbenzene (Liquid); method: Chromatography
Temperature, K	Activity coefficient of 1,2-dimethylbenzene	uncertainty
312.8	0.888	0.057
332.85	0.947	0.06
354.65	0.957	0.06

System: hex-1-ene + 1-hexyl-3-methylimidazolium tris(pentafluoroethyl)trifluorophosphate; phases: Liquid
Fixed: Pressure, kPa = 101
Fixed: Mole fraction of hex-1-ene = 0
Property: Activity coefficient of hex-1-ene (Liquid); method: Chromatography
Temperature, K	Activity coefficient of hex-1-ene	uncertainty
312.8	3.668	0.25
332.85	3.422	0.233
354.65	3.142	0.214

System: 1-hexyne + 1-hexyl-3-methylimidazolium tris(pentafluoroethyl)trifluorophosphate; phases: Liquid
Fixed: Pressure, kPa = 101
Fixed: Mole fraction of 1-hexyne = 0
Property: Activity coefficient of 1-hexyne (Liquid); method: Chromatography
Temperature, K	Activity coefficient of 1-hexyne	uncertainty
312.8	1.938	0.131
332.85	1.886	0.127
354.65	1.755	0.118

System: 1-heptyne + 1-hexyl-3-methylimidazolium tris(pentafluoroethyl)trifluorophosphate; phases: Liquid
Fixed: Pressure, kPa = 101
Fixed: Mole fraction of 1-heptyne = 0
Property: Activity coefficient of 1-heptyne (Liquid); method: Chromatography
Temperature, K	Activity coefficient of 1-heptyne	uncertainty
312.8	2.545	0.173
332.85	2.501	0.17
354.65	2.318	0.158

System: butanone + 1-hexyl-3-methylimidazolium tris(pentafluoroethyl)trifluorophosphate; phases: Liquid
Fixed: Pressure, kPa = 101
Fixed: Mole fraction of butanone = 0
Property: Activity coefficient of butanone (Liquid); method: Chromatography
Temperature, K	Activity coefficient of butanone	uncertainty
312.8	0.204	0.029
332.85	0.195	0.029
354.65	0.171	0.029

System: pentan-2-one + 1-hexyl-3-methylimidazolium tris(pentafluoroethyl)trifluorophosphate; phases: Liquid
Fixed: Pressure, kPa = 101
Fixed: Mole fraction of pentan-2-one = 0
Property: Activity coefficient of pentan-2-one (Liquid); method: Chromatography
Temperature, K	Activity coefficient of pentan-2-one	uncertainty
312.8	0.271	0.03
332.85	0.298	0.031
354.65	0.311	0.031

System: pentan-3-one + 1-hexyl-3-methylimidazolium tris(pentafluoroethyl)trifluorophosphate; phases: Liquid
Fixed: Pressure, kPa = 101
Fixed: Mole fraction of pentan-3-one = 0
Property: Activity coefficient of pentan-3-one (Liquid); method: Chromatography
Temperature, K	Activity coefficient of pentan-3-one	uncertainty
312.8	0.236	0.029
332.85	0.28	0.03
354.65	0.301	0.031

System: 1,4-dioxane + 1-hexyl-3-methylimidazolium tris(pentafluoroethyl)trifluorophosphate; phases: Liquid
Fixed: Pressure, kPa = 101
Fixed: Mole fraction of 1,4-dioxane = 0
Property: Activity coefficient of 1,4-dioxane (Liquid); method: Chromatography
Temperature, K	Activity coefficient of 1,4-dioxane	uncertainty
312.8	0.273	0.03
332.85	0.327	0.032
354.65	0.339	0.032

System: methanol + 1-hexyl-3-methylimidazolium tris(pentafluoroethyl)trifluorophosphate; phases: Liquid
Fixed: Pressure, kPa = 101
Fixed: Mole fraction of methanol = 0
Property: Activity coefficient of methanol (Liquid); method: Chromatography
Temperature, K	Activity coefficient of methanol	uncertainty
312.8	1.571	0.104
332.85	2.006	0.136
354.65	1.581	0.105

System: ethanol + 1-hexyl-3-methylimidazolium tris(pentafluoroethyl)trifluorophosphate; phases: Liquid
Fixed: Pressure, kPa = 101
Fixed: Mole fraction of ethanol = 0
Property: Activity coefficient of ethanol (Liquid); method: Chromatography
Temperature, K	Activity coefficient of ethanol	uncertainty
312.8	2.095	0.142
332.85	1.688	0.113
354.65	1.312	0.085

System: propan-1-ol + 1-hexyl-3-methylimidazolium tris(pentafluoroethyl)trifluorophosphate; phases: Liquid
Fixed: Pressure, kPa = 101
Fixed: Mole fraction of propan-1-ol = 0
Property: Activity coefficient of propan-1-ol (Liquid); method: Chromatography
Temperature, K	Activity coefficient of propan-1-ol	uncertainty
312.8	2.467	0.168
332.85	1.958	0.133
354.65	1.466	0.096

System: propan-2-ol + 1-hexyl-3-methylimidazolium tris(pentafluoroethyl)trifluorophosphate; phases: Liquid
Fixed: Pressure, kPa = 101
Fixed: Mole fraction of propan-2-ol = 0
Property: Activity coefficient of propan-2-ol (Liquid); method: Chromatography
Temperature, K	Activity coefficient of propan-2-ol	uncertainty
312.8	2.061	0.14
332.85	1.622	0.108
354.65	1.259	0.081

System: 2-methyl-1-propanol + 1-hexyl-3-methylimidazolium tris(pentafluoroethyl)trifluorophosphate; phases: Liquid
Fixed: Pressure, kPa = 101
Fixed: Mole fraction of 2-methyl-1-propanol = 0
Property: Activity coefficient of 2-methyl-1-propanol (Liquid); method: Chromatography
Temperature, K	Activity coefficient of 2-methyl-1-propanol	uncertainty
312.8	2.772	0.189
332.85	2.134	0.145
354.65	1.621	0.108

System: butan-1-ol + 1-hexyl-3-methylimidazolium tris(pentafluoroethyl)trifluorophosphate; phases: Liquid
Fixed: Pressure, kPa = 101
Fixed: Mole fraction of butan-1-ol = 0
Property: Activity coefficient of butan-1-ol (Liquid); method: Chromatography
Temperature, K	Activity coefficient of butan-1-ol	uncertainty
312.8	4.903	0.334
332.85	2.324	0.158
354.65	1.756	0.118

System: 2,2,2-trifluoroethanol + 1-hexyl-3-methylimidazolium tris(pentafluoroethyl)trifluorophosphate; phases: Liquid
Fixed: Pressure, kPa = 101
Fixed: Mole fraction of 2,2,2-trifluoroethanol = 0
Property: Activity coefficient of 2,2,2-trifluoroethanol (Liquid); method: Chromatography
Temperature, K	Activity coefficient of 2,2,2-trifluoroethanol	uncertainty
312.8	0.987	0.062
332.85	0.891	0.057
354.65	0.728	0.048

System: diethyl ether + 1-hexyl-3-methylimidazolium tris(pentafluoroethyl)trifluorophosphate; phases: Liquid
Fixed: Pressure, kPa = 101
Fixed: Mole fraction of diethyl ether = 0
Property: Activity coefficient of diethyl ether (Liquid); method: Chromatography
Temperature, K	Activity coefficient of diethyl ether	uncertainty
312.8	0.837	0.054
332.85	0.866	0.055
354.65	0.897	0.057

System: diisopropyl ether + 1-hexyl-3-methylimidazolium tris(pentafluoroethyl)trifluorophosphate; phases: Liquid
Fixed: Pressure, kPa = 101
Fixed: Mole fraction of diisopropyl ether = 0
Property: Activity coefficient of diisopropyl ether (Liquid); method: Chromatography
Temperature, K	Activity coefficient of diisopropyl ether	uncertainty
312.8	1.591	0.105
332.85	1.696	0.113
354.65	1.719	0.115

System: trichloromethane + 1-hexyl-3-methylimidazolium tris(pentafluoroethyl)trifluorophosphate; phases: Liquid
Fixed: Pressure, kPa = 101
Fixed: Mole fraction of trichloromethane = 0
Property: Activity coefficient of trichloromethane (Liquid); method: Chromatography
Temperature, K	Activity coefficient of trichloromethane	uncertainty
312.8	1.092	0.069
332.85	1.09	0.069
354.65	1.054	0.066

System: dichloromethane + 1-hexyl-3-methylimidazolium tris(pentafluoroethyl)trifluorophosphate; phases: Liquid
Fixed: Pressure, kPa = 101
Fixed: Mole fraction of dichloromethane = 0
Property: Activity coefficient of dichloromethane (Liquid); method: Chromatography
Temperature, K	Activity coefficient of dichloromethane	uncertainty
312.8	0.66	0.045
332.85	0.699	0.047
354.65	0.707	0.047

System: tetrachloromethane + 1-hexyl-3-methylimidazolium tris(pentafluoroethyl)trifluorophosphate; phases: Liquid
Fixed: Pressure, kPa = 101
Fixed: Mole fraction of tetrachloromethane = 0
Property: Activity coefficient of tetrachloromethane (Liquid); method: Chromatography
Temperature, K	Activity coefficient of tetrachloromethane	uncertainty
312.8	2.191	0.149
332.85	2.078	0.141
354.65	1.939	0.131

System: acetonitrile + 1-hexyl-3-methylimidazolium tris(pentafluoroethyl)trifluorophosphate; phases: Liquid
Fixed: Pressure, kPa = 101
Fixed: Mole fraction of acetonitrile = 0
Property: Activity coefficient of acetonitrile (Liquid); method: Chromatography
Temperature, K	Activity coefficient of acetonitrile	uncertainty
312.8	0.295	0.031
332.85	0.295	0.031
354.65	0.292	0.031

System: nitromethane + 1-hexyl-3-methylimidazolium tris(pentafluoroethyl)trifluorophosphate; phases: Liquid
Fixed: Pressure, kPa = 101
Fixed: Mole fraction of nitromethane = 0
Property: Activity coefficient of nitromethane (Liquid); method: Chromatography
Temperature, K	Activity coefficient of nitromethane	uncertainty
312.8	0.452	0.036
332.85	0.438	0.035
354.65	0.41	0.034

System: 1-nitropropane + 1-hexyl-3-methylimidazolium tris(pentafluoroethyl)trifluorophosphate; phases: Liquid
Fixed: Pressure, kPa = 101
Fixed: Mole fraction of 1-nitropropane = 0
Property: Activity coefficient of 1-nitropropane (Liquid); method: Chromatography
Temperature, K	Activity coefficient of 1-nitropropane	uncertainty
312.8	0.452	0.036
332.85	0.451	0.036
354.65	0.436	0.035

System: triethylamine + 1-hexyl-3-methylimidazolium tris(pentafluoroethyl)trifluorophosphate; phases: Liquid
Fixed: Pressure, kPa = 101
Fixed: Mole fraction of triethylamine = 0
Property: Activity coefficient of triethylamine (Liquid); method: Chromatography
Temperature, K	Activity coefficient of triethylamine	uncertainty
312.8	2.093	0.142
332.85	1.955	0.132
354.65	1.758	0.118

System: pyridine + 1-hexyl-3-methylimidazolium tris(pentafluoroethyl)trifluorophosphate; phases: Liquid
Fixed: Pressure, kPa = 101
Fixed: Mole fraction of pyridine = 0
Property: Activity coefficient of pyridine (Liquid); method: Chromatography
Temperature, K	Activity coefficient of pyridine	uncertainty
312.8	0.302	0.031
332.85	0.326	0.032
354.65	0.331	0.032

System: thiophene + 1-hexyl-3-methylimidazolium tris(pentafluoroethyl)trifluorophosphate; phases: Liquid
Fixed: Pressure, kPa = 101
Fixed: Mole fraction of thiophene = 0
Property: Activity coefficient of thiophene (Liquid); method: Chromatography
Temperature, K	Activity coefficient of thiophene	uncertainty
312.8	0.577	0.041
332.85	0.602	0.042
354.65	0.604	0.042

System: methanal + 1-hexyl-3-methylimidazolium tris(pentafluoroethyl)trifluorophosphate; phases: Liquid
Fixed: Pressure, kPa = 101
Fixed: Mole fraction of methanal = 0
Property: Activity coefficient of methanal (Liquid); method: Chromatography
Temperature, K	Activity coefficient of methanal	uncertainty
312.8	0.096	0.03
332.85	0.134	0.029
354.65	0.146	0.029

System: propanal + 1-hexyl-3-methylimidazolium tris(pentafluoroethyl)trifluorophosphate; phases: Liquid
Fixed: Pressure, kPa = 101
Fixed: Mole fraction of propanal = 0
Property: Activity coefficient of propanal (Liquid); method: Chromatography
Temperature, K	Activity coefficient of propanal	uncertainty
312.8	0.274	0.03
332.85	0.283	0.03
354.65	0.285	0.031

System: hexane + 1-butyl-3-methylimidazolium bis(perfluoroethylsulfonyl)imide; phases: Liquid
Fixed: Pressure, kPa = 101
Fixed: Mole fraction of hexane = 0
Property: Activity coefficient of hexane (Liquid); method: Chromatography
Temperature, K	Activity coefficient of hexane	uncertainty
322.55	9.49	0.647
342.75	8.798	0.6
362.65	8.43	0.575

System: 3-methylpentane + 1-butyl-3-methylimidazolium bis(perfluoroethylsulfonyl)imide; phases: Liquid
Fixed: Pressure, kPa = 101
Fixed: Mole fraction of 3-methylpentane = 0
Property: Activity coefficient of 3-methylpentane (Liquid); method: Chromatography
Temperature, K	Activity coefficient of 3-methylpentane	uncertainty
322.55	8.232	0.561
342.75	7.793	0.531
362.65	7.616	0.519

System: heptane + 1-butyl-3-methylimidazolium bis(perfluoroethylsulfonyl)imide; phases: Liquid
Fixed: Pressure, kPa = 101
Fixed: Mole fraction of heptane = 0
Property: Activity coefficient of heptane (Liquid); method: Chromatography
Temperature, K	Activity coefficient of heptane	uncertainty
322.55	13.633	0.931
342.75	12.37	0.844
362.65	11.625	0.793

System: 2,2,4-trimethylpentane + 1-butyl-3-methylimidazolium bis(perfluoroethylsulfonyl)imide; phases: Liquid
Fixed: Pressure, kPa = 101
Fixed: Mole fraction of 2,2,4-trimethylpentane = 0
Property: Activity coefficient of 2,2,4-trimethylpentane (Liquid); method: Chromatography
Temperature, K	Activity coefficient of 2,2,4-trimethylpentane	uncertainty
322.55	13.282	0.907
342.75	11.712	0.799
362.65	10.496	0.716

System: octane + 1-butyl-3-methylimidazolium bis(perfluoroethylsulfonyl)imide; phases: Liquid
Fixed: Pressure, kPa = 101
Fixed: Mole fraction of octane = 0
Property: Activity coefficient of octane (Liquid); method: Chromatography
Temperature, K	Activity coefficient of octane	uncertainty
322.55	20.374	1.392
342.75	17.316	1.183
362.65	15.542	1.061

System: nonane + 1-butyl-3-methylimidazolium bis(perfluoroethylsulfonyl)imide; phases: Liquid
Fixed: Pressure, kPa = 101
Fixed: Mole fraction of nonane = 0
Property: Activity coefficient of nonane (Liquid); method: Chromatography
Temperature, K	Activity coefficient of nonane	uncertainty
322.55	31.509	2.155
342.75	25.997	1.777
362.65	21.805	1.49

System: decane + 1-butyl-3-methylimidazolium bis(perfluoroethylsulfonyl)imide; phases: Liquid
Fixed: Pressure, kPa = 101
Fixed: Mole fraction of decane = 0
Property: Activity coefficient of decane (Liquid); method: Chromatography
Temperature, K	Activity coefficient of decane	uncertainty
322.55	37.382	2.558
342.75	33.298	2.278
362.65	27.989	1.914

System: undecane + 1-butyl-3-methylimidazolium bis(perfluoroethylsulfonyl)imide; phases: Liquid
Fixed: Pressure, kPa = 101
Fixed: Mole fraction of undecane = 0
Property: Activity coefficient of undecane (Liquid); method: Chromatography
Temperature, K	Activity coefficient of undecane	uncertainty
322.55	57.328	3.926
342.75	45.877	3.14
362.65	37.821	2.588

System: dodecane + 1-butyl-3-methylimidazolium bis(perfluoroethylsulfonyl)imide; phases: Liquid
Fixed: Pressure, kPa = 101
Fixed: Mole fraction of dodecane = 0
Property: Activity coefficient of dodecane (Liquid); method: Chromatography
Temperature, K	Activity coefficient of dodecane	uncertainty
322.55	77.801	5.332
342.75	62.004	4.247
362.65	50.931	3.487

System: methylcyclopentane + 1-butyl-3-methylimidazolium bis(perfluoroethylsulfonyl)imide; phases: Liquid
Fixed: Pressure, kPa = 101
Fixed: Mole fraction of methylcyclopentane = 0
Property: Activity coefficient of methylcyclopentane (Liquid); method: Chromatography
Temperature, K	Activity coefficient of methylcyclopentane	uncertainty
322.55	6.847	0.467
342.75	6.055	0.413
362.65	5.792	0.395

System: cyclohexane + 1-butyl-3-methylimidazolium bis(perfluoroethylsulfonyl)imide; phases: Liquid
Fixed: Pressure, kPa = 101
Fixed: Mole fraction of cyclohexane = 0
Property: Activity coefficient of cyclohexane (Liquid); method: Chromatography
Temperature, K	Activity coefficient of cyclohexane	uncertainty
322.55	7.002	0.477
342.75	6.121	0.417
362.65	5.405	0.368

System: methylcyclohexane + 1-butyl-3-methylimidazolium bis(perfluoroethylsulfonyl)imide; phases: Liquid
Fixed: Pressure, kPa = 101
Fixed: Mole fraction of methylcyclohexane = 0
Property: Activity coefficient of methylcyclohexane (Liquid); method: Chromatography
Temperature, K	Activity coefficient of methylcyclohexane	uncertainty
322.55	9.09	0.62
342.75	7.96	0.543
362.65	7.065	0.482

System: cycloheptane + 1-butyl-3-methylimidazolium bis(perfluoroethylsulfonyl)imide; phases: Liquid
Fixed: Pressure, kPa = 101
Fixed: Mole fraction of cycloheptane = 0
Property: Activity coefficient of cycloheptane (Liquid); method: Chromatography
Temperature, K	Activity coefficient of cycloheptane	uncertainty
322.55	19.825	1.355
342.75	35.188	2.407
362.65	56.459	3.866

System: benzene + 1-butyl-3-methylimidazolium bis(perfluoroethylsulfonyl)imide; phases: Liquid
Fixed: Pressure, kPa = 101
Fixed: Mole fraction of benzene = 0
Property: Activity coefficient of benzene (Liquid); method: Chromatography
Temperature, K	Activity coefficient of benzene	uncertainty
322.55	1.012	0.063
342.75	1.016	0.064
362.65	1.029	0.065

System: toluene + 1-butyl-3-methylimidazolium bis(perfluoroethylsulfonyl)imide; phases: Liquid
Fixed: Pressure, kPa = 101
Fixed: Mole fraction of toluene = 0
Property: Activity coefficient of toluene (Liquid); method: Chromatography
Temperature, K	Activity coefficient of toluene	uncertainty
322.55	1.397	0.091
342.75	1.417	0.093
362.65	1.456	0.096

System: ethylbenzene + 1-butyl-3-methylimidazolium bis(perfluoroethylsulfonyl)imide; phases: Liquid
Fixed: Pressure, kPa = 101
Fixed: Mole fraction of ethylbenzene = 0
Property: Activity coefficient of ethylbenzene (Liquid); method: Chromatography
Temperature, K	Activity coefficient of ethylbenzene	uncertainty
322.55	2.043	0.139
342.75	2.052	0.14
362.65	2.062	0.14

System: 1,3-dimethylbenzene + 1-butyl-3-methylimidazolium bis(perfluoroethylsulfonyl)imide; phases: Liquid
Fixed: Pressure, kPa = 101
Fixed: Mole fraction of 1,3-dimethylbenzene = 0
Property: Activity coefficient of 1,3-dimethylbenzene (Liquid); method: Chromatography
Temperature, K	Activity coefficient of 1,3-dimethylbenzene	uncertainty
322.55	2.024	0.138
342.75	2.026	0.138
362.65	2.09	0.142

System: 1,4-dimethylbenzene + 1-butyl-3-methylimidazolium bis(perfluoroethylsulfonyl)imide; phases: Liquid
Fixed: Pressure, kPa = 101
Fixed: Mole fraction of 1,4-dimethylbenzene = 0
Property: Activity coefficient of 1,4-dimethylbenzene (Liquid); method: Chromatography
Temperature, K	Activity coefficient of 1,4-dimethylbenzene	uncertainty
322.55	2.049	0.139
342.75	2.034	0.138
362.65	2.002	0.136

System: 1,2-dimethylbenzene + 1-butyl-3-methylimidazolium bis(perfluoroethylsulfonyl)imide; phases: Liquid
Fixed: Pressure, kPa = 101
Fixed: Mole fraction of 1,2-dimethylbenzene = 0
Property: Activity coefficient of 1,2-dimethylbenzene (Liquid); method: Chromatography
Temperature, K	Activity coefficient of 1,2-dimethylbenzene	uncertainty
322.55	1.873	0.126
342.75	1.89	0.128
362.65	1.965	0.133

System: hex-1-ene + 1-butyl-3-methylimidazolium bis(perfluoroethylsulfonyl)imide; phases: Liquid
Fixed: Pressure, kPa = 101
Fixed: Mole fraction of hex-1-ene = 0
Property: Activity coefficient of hex-1-ene (Liquid); method: Chromatography
Temperature, K	Activity coefficient of hex-1-ene	uncertainty
322.55	6.065	0.413
342.75	5.546	0.378
362.65	5.242	0.357

System: 1-hexyne + 1-butyl-3-methylimidazolium bis(perfluoroethylsulfonyl)imide; phases: Liquid
Fixed: Pressure, kPa = 101
Fixed: Mole fraction of 1-hexyne = 0
Property: Activity coefficient of 1-hexyne (Liquid); method: Chromatography
Temperature, K	Activity coefficient of 1-hexyne	uncertainty
322.55	2.859	0.195
342.75	2.729	0.186
362.65	2.639	0.18

System: 1-heptyne + 1-butyl-3-methylimidazolium bis(perfluoroethylsulfonyl)imide; phases: Liquid
Fixed: Pressure, kPa = 101
Fixed: Mole fraction of 1-heptyne = 0
Property: Activity coefficient of 1-heptyne (Liquid); method: Chromatography
Temperature, K	Activity coefficient of 1-heptyne	uncertainty
322.55	3.914	0.267
342.75	3.761	0.256
362.65	3.576	0.243

System: butanone + 1-butyl-3-methylimidazolium bis(perfluoroethylsulfonyl)imide; phases: Liquid
Fixed: Pressure, kPa = 101
Fixed: Mole fraction of butanone = 0
Property: Activity coefficient of butanone (Liquid); method: Chromatography
Temperature, K	Activity coefficient of butanone	uncertainty
322.55	0.453	0.036
342.75	0.389	0.034
362.65	0.351	0.032

System: pentan-2-one + 1-butyl-3-methylimidazolium bis(perfluoroethylsulfonyl)imide; phases: Liquid
Fixed: Pressure, kPa = 101
Fixed: Mole fraction of pentan-2-one = 0
Property: Activity coefficient of pentan-2-one (Liquid); method: Chromatography
Temperature, K	Activity coefficient of pentan-2-one	uncertainty
322.55	0.666	0.045
342.75	0.686	0.046
362.65	0.701	0.047

System: pentan-3-one + 1-butyl-3-methylimidazolium bis(perfluoroethylsulfonyl)imide; phases: Liquid
Fixed: Pressure, kPa = 101
Fixed: Mole fraction of pentan-3-one = 0
Property: Activity coefficient of pentan-3-one (Liquid); method: Chromatography
Temperature, K	Activity coefficient of pentan-3-one	uncertainty
322.55	0.624	0.043
342.75	0.656	0.045
362.65	0.695	0.047

System: 1,4-dioxane + 1-butyl-3-methylimidazolium bis(perfluoroethylsulfonyl)imide; phases: Liquid
Fixed: Pressure, kPa = 101
Fixed: Mole fraction of 1,4-dioxane = 0
Property: Activity coefficient of 1,4-dioxane (Liquid); method: Chromatography
Temperature, K	Activity coefficient of 1,4-dioxane	uncertainty
322.55	0.429	0.035
342.75	0.607	0.042
362.65	0.576	0.041

System: methanol + 1-butyl-3-methylimidazolium bis(perfluoroethylsulfonyl)imide; phases: Liquid
Fixed: Pressure, kPa = 101
Fixed: Mole fraction of methanol = 0
Property: Activity coefficient of methanol (Liquid); method: Chromatography
Temperature, K	Activity coefficient of methanol	uncertainty
322.55	1.234	0.079
342.75	0.997	0.062
362.65	0.942	0.059

System: ethanol + 1-butyl-3-methylimidazolium bis(perfluoroethylsulfonyl)imide; phases: Liquid
Fixed: Pressure, kPa = 101
Fixed: Mole fraction of ethanol = 0
Property: Activity coefficient of ethanol (Liquid); method: Chromatography
Temperature, K	Activity coefficient of ethanol	uncertainty
322.55	1.647	0.11
342.75	1.367	0.089
362.65	1.179	0.075

System: propan-1-ol + 1-butyl-3-methylimidazolium bis(perfluoroethylsulfonyl)imide; phases: Liquid
Fixed: Pressure, kPa = 101
Fixed: Mole fraction of propan-1-ol = 0
Property: Activity coefficient of propan-1-ol (Liquid); method: Chromatography
Temperature, K	Activity coefficient of propan-1-ol	uncertainty
322.55	1.991	0.135
342.75	1.622	0.108
362.65	1.349	0.088

System: propan-2-ol + 1-butyl-3-methylimidazolium bis(perfluoroethylsulfonyl)imide; phases: Liquid
Fixed: Pressure, kPa = 101
Fixed: Mole fraction of propan-2-ol = 0
Property: Activity coefficient of propan-2-ol (Liquid); method: Chromatography
Temperature, K	Activity coefficient of propan-2-ol	uncertainty
322.55	1.766	0.118
342.75	1.456	0.096
362.65	1.249	0.08

System: 2-methyl-1-propanol + 1-butyl-3-methylimidazolium bis(perfluoroethylsulfonyl)imide; phases: Liquid
Fixed: Pressure, kPa = 101
Fixed: Mole fraction of 2-methyl-1-propanol = 0
Property: Activity coefficient of 2-methyl-1-propanol (Liquid); method: Chromatography
Temperature, K	Activity coefficient of 2-methyl-1-propanol	uncertainty
322.55	2.264	0.154
342.75	1.838	0.124
362.65	1.574	0.104

System: butan-1-ol + 1-butyl-3-methylimidazolium bis(perfluoroethylsulfonyl)imide; phases: Liquid
Fixed: Pressure, kPa = 101
Fixed: Mole fraction of butan-1-ol = 0
Property: Activity coefficient of butan-1-ol (Liquid); method: Chromatography
Temperature, K	Activity coefficient of butan-1-ol	uncertainty
322.55	2.493	0.17
342.75	1.997	0.136
362.65	1.704	0.114

System: 2,2,2-trifluoroethanol + 1-butyl-3-methylimidazolium bis(perfluoroethylsulfonyl)imide; phases: Liquid
Fixed: Pressure, kPa = 101
Fixed: Mole fraction of 2,2,2-trifluoroethanol = 0
Property: Activity coefficient of 2,2,2-trifluoroethanol (Liquid); method: Chromatography
Temperature, K	Activity coefficient of 2,2,2-trifluoroethanol	uncertainty
322.55	0.457	0.036
342.75	0.412	0.034
362.65	0.373	0.033

System: diethyl ether + 1-butyl-3-methylimidazolium bis(perfluoroethylsulfonyl)imide; phases: Liquid
Fixed: Pressure, kPa = 101
Fixed: Mole fraction of diethyl ether = 0
Property: Activity coefficient of diethyl ether (Liquid); method: Chromatography
Temperature, K	Activity coefficient of diethyl ether	uncertainty
322.55	1.715	0.115
342.75	1.704	0.114
362.65	1.653	0.11

System: diisopropyl ether + 1-butyl-3-methylimidazolium bis(perfluoroethylsulfonyl)imide; phases: Liquid
Fixed: Pressure, kPa = 101
Fixed: Mole fraction of diisopropyl ether = 0
Property: Activity coefficient of diisopropyl ether (Liquid); method: Chromatography
Temperature, K	Activity coefficient of diisopropyl ether	uncertainty
322.55	3.462	0.236
342.75	3.458	0.235
362.65	3.427	0.233

System: trichloromethane + 1-butyl-3-methylimidazolium bis(perfluoroethylsulfonyl)imide; phases: Liquid
Fixed: Pressure, kPa = 101
Fixed: Mole fraction of trichloromethane = 0
Property: Activity coefficient of trichloromethane (Liquid); method: Chromatography
Temperature, K	Activity coefficient of trichloromethane	uncertainty
322.55	0.613	0.043
342.75	0.74	0.049
362.65	0.79	0.051

System: dichloromethane + 1-butyl-3-methylimidazolium bis(perfluoroethylsulfonyl)imide; phases: Liquid
Fixed: Pressure, kPa = 101
Fixed: Mole fraction of dichloromethane = 0
Property: Activity coefficient of dichloromethane (Liquid); method: Chromatography
Temperature, K	Activity coefficient of dichloromethane	uncertainty
322.55	0.356	0.033
342.75	0.436	0.035
362.65	0.539	0.039

System: tetrachloromethane + 1-butyl-3-methylimidazolium bis(perfluoroethylsulfonyl)imide; phases: Liquid
Fixed: Pressure, kPa = 101
Fixed: Mole fraction of tetrachloromethane = 0
Property: Activity coefficient of tetrachloromethane (Liquid); method: Chromatography
Temperature, K	Activity coefficient of tetrachloromethane	uncertainty
322.55	2.403	0.163
342.75	2.349	0.16
362.65	2.33	0.159

System: acetonitrile + 1-butyl-3-methylimidazolium bis(perfluoroethylsulfonyl)imide; phases: Liquid
Fixed: Pressure, kPa = 101
Fixed: Mole fraction of acetonitrile = 0
Property: Activity coefficient of acetonitrile (Liquid); method: Chromatography
Temperature, K	Activity coefficient of acetonitrile	uncertainty
322.55	0.528	0.039
342.75	0.514	0.038
362.65	0.504	0.038

System: nitromethane + 1-butyl-3-methylimidazolium bis(perfluoroethylsulfonyl)imide; phases: Liquid
Fixed: Pressure, kPa = 101
Fixed: Mole fraction of nitromethane = 0
Property: Activity coefficient of nitromethane (Liquid); method: Chromatography
Temperature, K	Activity coefficient of nitromethane	uncertainty
322.55	0.625	0.043
342.75	0.682	0.046
362.65	0.699	0.047

System: 1-nitropropane + 1-butyl-3-methylimidazolium bis(perfluoroethylsulfonyl)imide; phases: Liquid
Fixed: Pressure, kPa = 101
Fixed: Mole fraction of 1-nitropropane = 0
Property: Activity coefficient of 1-nitropropane (Liquid); method: Chromatography
Temperature, K	Activity coefficient of 1-nitropropane	uncertainty
322.55	0.769	0.05
342.75	0.821	0.053
362.65	0.756	0.05

System: triethylamine + 1-butyl-3-methylimidazolium bis(perfluoroethylsulfonyl)imide; phases: Liquid
Fixed: Pressure, kPa = 101
Fixed: Mole fraction of triethylamine = 0
Property: Activity coefficient of triethylamine (Liquid); method: Chromatography
Temperature, K	Activity coefficient of triethylamine	uncertainty
322.55	2.735	0.186
342.75	3.614	0.246
362.65	3.268	0.222

System: pyridine + 1-butyl-3-methylimidazolium bis(perfluoroethylsulfonyl)imide; phases: Liquid
Fixed: Pressure, kPa = 101
Fixed: Mole fraction of pyridine = 0
Property: Activity coefficient of pyridine (Liquid); method: Chromatography
Temperature, K	Activity coefficient of pyridine	uncertainty
322.55	0.386	0.033
342.75	0.429	0.035
362.65	0.45	0.036

System: thiophene + 1-butyl-3-methylimidazolium bis(perfluoroethylsulfonyl)imide; phases: Liquid
Fixed: Pressure, kPa = 101
Fixed: Mole fraction of thiophene = 0
Property: Activity coefficient of thiophene (Liquid); method: Chromatography
Temperature, K	Activity coefficient of thiophene	uncertainty
322.55	0.977	0.061
342.75	0.973	0.061
362.65	0.981	0.062

System: methanal + 1-butyl-3-methylimidazolium bis(perfluoroethylsulfonyl)imide; phases: Liquid
Fixed: Pressure, kPa = 101
Fixed: Mole fraction of methanal = 0
Property: Activity coefficient of methanal (Liquid); method: Chromatography
Temperature, K	Activity coefficient of methanal	uncertainty
322.55	0.134	0.029
342.75	0.155	0.029
362.65	0.164	0.029

System: propanal + 1-butyl-3-methylimidazolium bis(perfluoroethylsulfonyl)imide; phases: Liquid
Fixed: Pressure, kPa = 101
Fixed: Mole fraction of propanal = 0
Property: Activity coefficient of propanal (Liquid); method: Chromatography
Temperature, K	Activity coefficient of propanal	uncertainty
322.55	0.539	0.039
342.75	0.533	0.039
362.65	0.522	0.039

System: hexane + 1,3-didecyl-2-methyl-1H-imidazolium bis(trifluoromethylsulfonyl)amide; phases: Liquid
Fixed: Pressure, kPa = 101
Fixed: Mole fraction of hexane = 0
Property: Activity coefficient of hexane (Liquid); method: Chromatography
Temperature, K	Activity coefficient of hexane	uncertainty
323.1	1.825	0.123
333.15	1.792	0.12
343.15	1.756	0.118

System: 3-methylpentane + 1,3-didecyl-2-methyl-1H-imidazolium bis(trifluoromethylsulfonyl)amide; phases: Liquid
Fixed: Pressure, kPa = 101
Fixed: Mole fraction of 3-methylpentane = 0
Property: Activity coefficient of 3-methylpentane (Liquid); method: Chromatography
Temperature, K	Activity coefficient of 3-methylpentane	uncertainty
323.1	1.708	0.114
333.15	1.675	0.112
343.15	1.633	0.109

System: heptane + 1,3-didecyl-2-methyl-1H-imidazolium bis(trifluoromethylsulfonyl)amide; phases: Liquid
Fixed: Pressure, kPa = 101
Fixed: Mole fraction of heptane = 0
Property: Activity coefficient of heptane (Liquid); method: Chromatography
Temperature, K	Activity coefficient of heptane	uncertainty
323.1	2.531	0.172
333.15	2.111	0.144
343.15	2.077	0.141

System: octane + 1,3-didecyl-2-methyl-1H-imidazolium bis(trifluoromethylsulfonyl)amide; phases: Liquid
Fixed: Pressure, kPa = 101
Fixed: Mole fraction of octane = 0
Property: Activity coefficient of octane (Liquid); method: Chromatography
Temperature, K	Activity coefficient of octane	uncertainty
323.1	2.538	0.173
333.15	2.484	0.169
343.15	2.448	0.167

System: nonane + 1,3-didecyl-2-methyl-1H-imidazolium bis(trifluoromethylsulfonyl)amide; phases: Liquid
Fixed: Pressure, kPa = 101
Fixed: Mole fraction of nonane = 0
Property: Activity coefficient of nonane (Liquid); method: Chromatography
Temperature, K	Activity coefficient of nonane	uncertainty
323.1	3.306	0.225
333.15	3.172	0.216
343.15	3.448	0.235

System: decane + 1,3-didecyl-2-methyl-1H-imidazolium bis(trifluoromethylsulfonyl)amide; phases: Liquid
Fixed: Pressure, kPa = 101
Fixed: Mole fraction of decane = 0
Property: Activity coefficient of decane (Liquid); method: Chromatography
Temperature, K	Activity coefficient of decane	uncertainty
323.1	3.562	0.243
333.15	3.461	0.236
343.15	3.328	0.227

System: methylcyclopentane + 1,3-didecyl-2-methyl-1H-imidazolium bis(trifluoromethylsulfonyl)amide; phases: Liquid
Fixed: Pressure, kPa = 101
Fixed: Mole fraction of methylcyclopentane = 0
Property: Activity coefficient of methylcyclopentane (Liquid); method: Chromatography
Temperature, K	Activity coefficient of methylcyclopentane	uncertainty
323.1	1.354	0.088
333.15	1.326	0.086
343.15	1.301	0.084

System: cyclohexane + 1,3-didecyl-2-methyl-1H-imidazolium bis(trifluoromethylsulfonyl)amide; phases: Liquid
Fixed: Pressure, kPa = 101
Fixed: Mole fraction of cyclohexane = 0
Property: Activity coefficient of cyclohexane (Liquid); method: Chromatography
Temperature, K	Activity coefficient of cyclohexane	uncertainty
323.1	1.318	0.085
333.15	1.285	0.083
343.15	1.256	0.081

System: methylcyclohexane + 1,3-didecyl-2-methyl-1H-imidazolium bis(trifluoromethylsulfonyl)amide; phases: Liquid
Fixed: Pressure, kPa = 101
Fixed: Mole fraction of methylcyclohexane = 0
Property: Activity coefficient of methylcyclohexane (Liquid); method: Chromatography
Temperature, K	Activity coefficient of methylcyclohexane	uncertainty
323.1	1.517	0.1
333.15	1.484	0.098
343.15	1.454	0.095

System: cycloheptane + 1,3-didecyl-2-methyl-1H-imidazolium bis(trifluoromethylsulfonyl)amide; phases: Liquid
Fixed: Pressure, kPa = 101
Fixed: Mole fraction of cycloheptane = 0
Property: Activity coefficient of cycloheptane (Liquid); method: Chromatography
Temperature, K	Activity coefficient of cycloheptane	uncertainty
323.1	3.167	0.216
333.15	4.458	0.304
343.15	6.093	0.415

System: benzene + 1,3-didecyl-2-methyl-1H-imidazolium bis(trifluoromethylsulfonyl)amide; phases: Liquid
Fixed: Pressure, kPa = 101
Fixed: Mole fraction of benzene = 0
Property: Activity coefficient of benzene (Liquid); method: Chromatography
Temperature, K	Activity coefficient of benzene	uncertainty
323.1	0.429	0.035
333.15	0.431	0.035
343.15	0.434	0.035

System: toluene + 1,3-didecyl-2-methyl-1H-imidazolium bis(trifluoromethylsulfonyl)amide; phases: Liquid
Fixed: Pressure, kPa = 101
Fixed: Mole fraction of toluene = 0
Property: Activity coefficient of toluene (Liquid); method: Chromatography
Temperature, K	Activity coefficient of toluene	uncertainty
323.1	0.512	0.038
333.15	0.52	0.039
343.15	0.527	0.039

System: ethylbenzene + 1,3-didecyl-2-methyl-1H-imidazolium bis(trifluoromethylsulfonyl)amide; phases: Liquid
Fixed: Pressure, kPa = 101
Fixed: Mole fraction of ethylbenzene = 0
Property: Activity coefficient of ethylbenzene (Liquid); method: Chromatography
Temperature, K	Activity coefficient of ethylbenzene	uncertainty
323.1	0.652	0.045
333.15	0.662	0.045
343.15	0.689	0.046

System: 1,3-dimethylbenzene + 1,3-didecyl-2-methyl-1H-imidazolium bis(trifluoromethylsulfonyl)amide; phases: Liquid
Fixed: Pressure, kPa = 101
Fixed: Mole fraction of 1,3-dimethylbenzene = 0
Property: Activity coefficient of 1,3-dimethylbenzene (Liquid); method: Chromatography
Temperature, K	Activity coefficient of 1,3-dimethylbenzene	uncertainty
323.1	0.645	0.044
333.15	0.653	0.045
343.15	0.663	0.045

System: 1,4-dimethylbenzene + 1,3-didecyl-2-methyl-1H-imidazolium bis(trifluoromethylsulfonyl)amide; phases: Liquid
Fixed: Pressure, kPa = 101
Fixed: Mole fraction of 1,4-dimethylbenzene = 0
Property: Activity coefficient of 1,4-dimethylbenzene (Liquid); method: Chromatography
Temperature, K	Activity coefficient of 1,4-dimethylbenzene	uncertainty
323.1	0.647	0.044
333.15	0.66	0.045
343.15	0.657	0.045

System: 1,2-dimethylbenzene + 1,3-didecyl-2-methyl-1H-imidazolium bis(trifluoromethylsulfonyl)amide; phases: Liquid
Fixed: Pressure, kPa = 101
Fixed: Mole fraction of 1,2-dimethylbenzene = 0
Property: Activity coefficient of 1,2-dimethylbenzene (Liquid); method: Chromatography
Temperature, K	Activity coefficient of 1,2-dimethylbenzene	uncertainty
323.1	0.626	0.043
333.15	0.616	0.043
343.15	0.603	0.042

System: hex-1-ene + 1,3-didecyl-2-methyl-1H-imidazolium bis(trifluoromethylsulfonyl)amide; phases: Liquid
Fixed: Pressure, kPa = 101
Fixed: Mole fraction of hex-1-ene = 0
Property: Activity coefficient of hex-1-ene (Liquid); method: Chromatography
Temperature, K	Activity coefficient of hex-1-ene	uncertainty
323.1	1.393	0.091
333.15	1.376	0.09
343.15	1.364	0.089

System: 1-hexyne + 1,3-didecyl-2-methyl-1H-imidazolium bis(trifluoromethylsulfonyl)amide; phases: Liquid
Fixed: Pressure, kPa = 101
Fixed: Mole fraction of 1-hexyne = 0
Property: Activity coefficient of 1-hexyne (Liquid); method: Chromatography
Temperature, K	Activity coefficient of 1-hexyne	uncertainty
323.1	0.925	0.058
333.15	0.917	0.058
343.15	0.899	0.057

System: 1-heptyne + 1,3-didecyl-2-methyl-1H-imidazolium bis(trifluoromethylsulfonyl)amide; phases: Liquid
Fixed: Pressure, kPa = 101
Fixed: Mole fraction of 1-heptyne = 0
Property: Activity coefficient of 1-heptyne (Liquid); method: Chromatography
Temperature, K	Activity coefficient of 1-heptyne	uncertainty
323.1	1.065	0.067
333.15	1.06	0.067
343.15	1.061	0.067

System: butanone + 1,3-didecyl-2-methyl-1H-imidazolium bis(trifluoromethylsulfonyl)amide; phases: Liquid
Fixed: Pressure, kPa = 101
Fixed: Mole fraction of butanone = 0
Property: Activity coefficient of butanone (Liquid); method: Chromatography
Temperature, K	Activity coefficient of butanone	uncertainty
323.1	0.318	0.031
333.15	0.292	0.031
343.15	0.264	0.03

System: pentan-2-one + 1,3-didecyl-2-methyl-1H-imidazolium bis(trifluoromethylsulfonyl)amide; phases: Liquid
Fixed: Pressure, kPa = 101
Fixed: Mole fraction of pentan-2-one = 0
Property: Activity coefficient of pentan-2-one (Liquid); method: Chromatography
Temperature, K	Activity coefficient of pentan-2-one	uncertainty
323.1	0.397	0.034
333.15	0.404	0.034
343.15	0.407	0.034

System: pentan-3-one + 1,3-didecyl-2-methyl-1H-imidazolium bis(trifluoromethylsulfonyl)amide; phases: Liquid
Fixed: Pressure, kPa = 101
Fixed: Mole fraction of pentan-3-one = 0
Property: Activity coefficient of pentan-3-one (Liquid); method: Chromatography
Temperature, K	Activity coefficient of pentan-3-one	uncertainty
323.1	0.37	0.03
333.15	0.378	0.033
343.15	0.386	0.033

System: 1,4-dioxane + 1,3-didecyl-2-methyl-1H-imidazolium bis(trifluoromethylsulfonyl)amide; phases: Liquid
Fixed: Pressure, kPa = 101
Fixed: Mole fraction of 1,4-dioxane = 0
Property: Activity coefficient of 1,4-dioxane (Liquid); method: Chromatography
Temperature, K	Activity coefficient of 1,4-dioxane	uncertainty
323.1	0.463	0.036
333.15	0.46	0.036
343.15	0.453	0.036

System: methanol + 1,3-didecyl-2-methyl-1H-imidazolium bis(trifluoromethylsulfonyl)amide; phases: Liquid
Fixed: Pressure, kPa = 101
Fixed: Mole fraction of methanol = 0
Property: Activity coefficient of methanol (Liquid); method: Chromatography
Temperature, K	Activity coefficient of methanol	uncertainty
323.1	0.963	0.061
333.15	0.857	0.055
343.15	0.755	0.05

System: ethanol + 1,3-didecyl-2-methyl-1H-imidazolium bis(trifluoromethylsulfonyl)amide; phases: Liquid
Fixed: Pressure, kPa = 101
Fixed: Mole fraction of ethanol = 0
Property: Activity coefficient of ethanol (Liquid); method: Chromatography
Temperature, K	Activity coefficient of ethanol	uncertainty
323.1	1.271	0.082
333.15	1.15	0.073
343.15	1.041	0.065

System: propan-1-ol + 1,3-didecyl-2-methyl-1H-imidazolium bis(trifluoromethylsulfonyl)amide; phases: Liquid
Fixed: Pressure, kPa = 101
Fixed: Mole fraction of propan-1-ol = 0
Property: Activity coefficient of propan-1-ol (Liquid); method: Chromatography
Temperature, K	Activity coefficient of propan-1-ol	uncertainty
323.1	1.307	0.085
333.15	1.16	0.074
343.15	1.061	0.067

System: propan-2-ol + 1,3-didecyl-2-methyl-1H-imidazolium bis(trifluoromethylsulfonyl)amide; phases: Liquid
Fixed: Pressure, kPa = 101
Fixed: Mole fraction of propan-2-ol = 0
Property: Activity coefficient of propan-2-ol (Liquid); method: Chromatography
Temperature, K	Activity coefficient of propan-2-ol	uncertainty
323.1	1.267	0.082
333.15	1.14	0.073
343.15	1.035	0.065

System: 2-methyl-1-propanol + 1,3-didecyl-2-methyl-1H-imidazolium bis(trifluoromethylsulfonyl)amide; phases: Liquid
Fixed: Pressure, kPa = 101
Fixed: Mole fraction of 2-methyl-1-propanol = 0
Property: Activity coefficient of 2-methyl-1-propanol (Liquid); method: Chromatography
Temperature, K	Activity coefficient of 2-methyl-1-propanol	uncertainty
323.1	1.3	0.084
333.15	1.171	0.075
343.15	1.062	0.067

System: butan-1-ol + 1,3-didecyl-2-methyl-1H-imidazolium bis(trifluoromethylsulfonyl)amide; phases: Liquid
Fixed: Pressure, kPa = 101
Fixed: Mole fraction of butan-1-ol = 0
Property: Activity coefficient of butan-1-ol (Liquid); method: Chromatography
Temperature, K	Activity coefficient of butan-1-ol	uncertainty
323.1	1.376	0.09
333.15	1.202	0.077
343.15	1.117	0.071

System: 2,2,2-trifluoroethanol + 1,3-didecyl-2-methyl-1H-imidazolium bis(trifluoromethylsulfonyl)amide; phases: Liquid
Fixed: Pressure, kPa = 101
Fixed: Mole fraction of 2,2,2-trifluoroethanol = 0
Property: Activity coefficient of 2,2,2-trifluoroethanol (Liquid); method: Chromatography
Temperature, K	Activity coefficient of 2,2,2-trifluoroethanol	uncertainty
323.1	0.399	0.034
333.15	0.379	0.033
343.15	0.355	0.032

System: diethyl ether + 1,3-didecyl-2-methyl-1H-imidazolium bis(trifluoromethylsulfonyl)amide; phases: Liquid
Fixed: Pressure, kPa = 101
Fixed: Mole fraction of diethyl ether = 0
Property: Activity coefficient of diethyl ether (Liquid); method: Chromatography
Temperature, K	Activity coefficient of diethyl ether	uncertainty
323.1	0.746	0.049
333.15	0.771	0.05
343.15	0.773	0.051

System: diisopropyl ether + 1,3-didecyl-2-methyl-1H-imidazolium bis(trifluoromethylsulfonyl)amide; phases: Liquid
Fixed: Pressure, kPa = 101
Fixed: Mole fraction of diisopropyl ether = 0
Property: Activity coefficient of diisopropyl ether (Liquid); method: Chromatography
Temperature, K	Activity coefficient of diisopropyl ether	uncertainty
323.1	1.122	0.071
333.15	1.232	0.079
343.15	1.233	0.079

System: trichloromethane + 1,3-didecyl-2-methyl-1H-imidazolium bis(trifluoromethylsulfonyl)amide; phases: Liquid
Fixed: Pressure, kPa = 101
Fixed: Mole fraction of trichloromethane = 0
Property: Activity coefficient of trichloromethane (Liquid); method: Chromatography
Temperature, K	Activity coefficient of trichloromethane	uncertainty
323.1	0.374	0.033
333.15	0.395	0.034
343.15	0.402	0.034

System: dichloromethane + 1,3-didecyl-2-methyl-1H-imidazolium bis(trifluoromethylsulfonyl)amide; phases: Liquid
Fixed: Pressure, kPa = 101
Fixed: Mole fraction of dichloromethane = 0
Property: Activity coefficient of dichloromethane (Liquid); method: Chromatography
Temperature, K	Activity coefficient of dichloromethane	uncertainty
323.1	0.33	0.032
333.15	0.341	0.032
343.15	0.351	0.032

System: tetrachloromethane + 1,3-didecyl-2-methyl-1H-imidazolium bis(trifluoromethylsulfonyl)amide; phases: Liquid
Fixed: Pressure, kPa = 101
Fixed: Mole fraction of tetrachloromethane = 0
Property: Activity coefficient of tetrachloromethane (Liquid); method: Chromatography
Temperature, K	Activity coefficient of tetrachloromethane	uncertainty
323.1	0.776	0.051
333.15	0.777	0.051
343.15	0.777	0.051

System: acetonitrile + 1,3-didecyl-2-methyl-1H-imidazolium bis(trifluoromethylsulfonyl)amide; phases: Liquid
Fixed: Pressure, kPa = 101
Fixed: Mole fraction of acetonitrile = 0
Property: Activity coefficient of acetonitrile (Liquid); method: Chromatography
Temperature, K	Activity coefficient of acetonitrile	uncertainty
323.1	0.47	0.037
333.15	0.453	0.036
343.15	0.44	0.035

System: nitromethane + 1,3-didecyl-2-methyl-1H-imidazolium bis(trifluoromethylsulfonyl)amide; phases: Liquid
Fixed: Pressure, kPa = 101
Fixed: Mole fraction of nitromethane = 0
Property: Activity coefficient of nitromethane (Liquid); method: Chromatography
Temperature, K	Activity coefficient of nitromethane	uncertainty
323.1	0.596	0.042
333.15	0.559	0.04
343.15	0.536	0.039

System: 1-nitropropane + 1,3-didecyl-2-methyl-1H-imidazolium bis(trifluoromethylsulfonyl)amide; phases: Liquid
Fixed: Pressure, kPa = 101
Fixed: Mole fraction of 1-nitropropane = 0
Property: Activity coefficient of 1-nitropropane (Liquid); method: Chromatography
Temperature, K	Activity coefficient of 1-nitropropane	uncertainty
323.1	0.504	0.038
333.15	0.487	0.037
343.15	0.479	0.037

System: triethylamine + 1,3-didecyl-2-methyl-1H-imidazolium bis(trifluoromethylsulfonyl)amide; phases: Liquid
Fixed: Pressure, kPa = 101
Fixed: Mole fraction of triethylamine = 0
Property: Activity coefficient of triethylamine (Liquid); method: Chromatography
Temperature, K	Activity coefficient of triethylamine	uncertainty
323.1	3.672	0.25
333.15	3.174	0.216
343.15	2.863	0.195

System: pyridine + 1,3-didecyl-2-methyl-1H-imidazolium bis(trifluoromethylsulfonyl)amide; phases: Liquid
Fixed: Pressure, kPa = 101
Fixed: Mole fraction of pyridine = 0
Property: Activity coefficient of pyridine (Liquid); method: Chromatography
Temperature, K	Activity coefficient of pyridine	uncertainty
323.1	0.328	0.032
333.15	0.331	0.032
343.15	0.334	0.032

System: thiophene + 1,3-didecyl-2-methyl-1H-imidazolium bis(trifluoromethylsulfonyl)amide; phases: Liquid
Fixed: Pressure, kPa = 101
Fixed: Mole fraction of thiophene = 0
Property: Activity coefficient of thiophene (Liquid); method: Chromatography
Temperature, K	Activity coefficient of thiophene	uncertainty
323.1	0.422	0.035
333.15	0.423	0.035
343.15	0.424	0.035

System: methanal + 1,3-didecyl-2-methyl-1H-imidazolium bis(trifluoromethylsulfonyl)amide; phases: Liquid
Fixed: Pressure, kPa = 101
Fixed: Mole fraction of methanal = 0
Property: Activity coefficient of methanal (Liquid); method: Chromatography
Temperature, K	Activity coefficient of methanal	uncertainty
323.1	0.074	0.03
333.15	0.08	0.03
343.15	0.085	0.03

System: hexane + 1-ethyl-3-methylimidazolium methanesulfonate; phases: Liquid
Fixed: Pressure, kPa = 101
Fixed: Mole fraction of hexane = 0
Property: Activity coefficient of hexane (Liquid); method: Chromatography
Temperature, K	Activity coefficient of hexane	uncertainty
312.55	206.773	14.2
322.45	189.568	13.016
332.45	152.483	10.465

System: 3-methylpentane + 1-ethyl-3-methylimidazolium methanesulfonate; phases: Liquid
Fixed: Pressure, kPa = 101
Fixed: Mole fraction of 3-methylpentane = 0
Property: Activity coefficient of 3-methylpentane (Liquid); method: Chromatography
Temperature, K	Activity coefficient of 3-methylpentane	uncertainty
312.55	156.837	10.764
322.45	135.415	9.291
332.45	115.201	7.901

System: heptane + 1-ethyl-3-methylimidazolium methanesulfonate; phases: Liquid
Fixed: Pressure, kPa = 101
Fixed: Mole fraction of heptane = 0
Property: Activity coefficient of heptane (Liquid); method: Chromatography
Temperature, K	Activity coefficient of heptane	uncertainty
312.55	432.487	29.751
322.45	2232.657	154.169
332.45	496.685	34.177

System: 2,2,4-trimethylpentane + 1-ethyl-3-methylimidazolium methanesulfonate; phases: Liquid
Fixed: Pressure, kPa = 101
Fixed: Mole fraction of 2,2,4-trimethylpentane = 0
Property: Activity coefficient of 2,2,4-trimethylpentane (Liquid); method: Chromatography
Temperature, K	Activity coefficient of 2,2,4-trimethylpentane	uncertainty
312.55	445.177	30.626
322.45	386.576	26.586
332.45	333.734	22.944

System: octane + 1-ethyl-3-methylimidazolium methanesulfonate; phases: Liquid
Fixed: Pressure, kPa = 101
Fixed: Mole fraction of octane = 0
Property: (Relative) activity of octane (Liquid); method: Chromatography
Temperature, K	(Relative) activity of octane	uncertainty
312.55	588.387	40.503
322.45	556.416	38.298
332.45	184.45	12.664

System: nonane + 1-ethyl-3-methylimidazolium methanesulfonate; phases: Liquid
Fixed: Pressure, kPa = 101
Fixed: Mole fraction of nonane = 0
Property: (Relative) activity of nonane (Liquid); method: Chromatography
Temperature, K	(Relative) activity of nonane	uncertainty
312.55	1047.037	72.171
322.45	925.051	63.745
332.45	483.466	33.266

System: decane + 1-ethyl-3-methylimidazolium methanesulfonate; phases: Liquid
Fixed: Pressure, kPa = 101
Fixed: Mole fraction of decane = 0
Property: (Relative) activity of decane (Liquid); method: Chromatography
Temperature, K	(Relative) activity of decane	uncertainty
312.55	1408.052	97.123
322.45	1303.804	89.916
332.45	1158.638	79.883

System: undecane + 1-ethyl-3-methylimidazolium methanesulfonate; phases: Liquid
Fixed: Pressure, kPa = 101
Fixed: Mole fraction of undecane = 0
Property: (Relative) activity of undecane (Liquid); method: Chromatography
Temperature, K	(Relative) activity of undecane	uncertainty
312.55	2011.8	138.884
322.45	1893.008	130.664
332.45	1717.795	118.543

System: dodecane + 1-ethyl-3-methylimidazolium methanesulfonate; phases: Liquid
Fixed: Pressure, kPa = 101
Fixed: Mole fraction of dodecane = 0
Property: (Relative) activity of dodecane (Liquid); method: Chromatography
Temperature, K	(Relative) activity of dodecane	uncertainty
312.55	2552.251	176.293
322.45	2422.466	167.308
332.45	2292.163	158.288

System: methylcyclopentane + 1-ethyl-3-methylimidazolium methanesulfonate; phases: Liquid
Fixed: Pressure, kPa = 101
Fixed: Mole fraction of methylcyclopentane = 0
Property: (Relative) activity of methylcyclopentane (Liquid); method: Chromatography
Temperature, K	(Relative) activity of methylcyclopentane	uncertainty
312.55	102.064	6.998
322.45	95.8	6.568
332.45	79.455	5.445

System: cyclohexane + 1-ethyl-3-methylimidazolium methanesulfonate; phases: Liquid
Fixed: Pressure, kPa = 101
Fixed: Mole fraction of cyclohexane = 0
Property: (Relative) activity of cyclohexane (Liquid); method: Chromatography
Temperature, K	(Relative) activity of cyclohexane	uncertainty
312.55	96.795	6.636
322.45	88.264	6.05
332.45	76.345	5.232

System: methylcyclohexane + 1-ethyl-3-methylimidazolium methanesulfonate; phases: Liquid
Fixed: Pressure, kPa = 101
Fixed: Mole fraction of methylcyclohexane = 0
Property: (Relative) activity of methylcyclohexane (Liquid); method: Chromatography
Temperature, K	(Relative) activity of methylcyclohexane	uncertainty
312.55	169.213	11.616
322.45	131.109	8.995
332.45	130.385	8.945

System: cycloheptane + 1-ethyl-3-methylimidazolium methanesulfonate; phases: Liquid
Fixed: Pressure, kPa = 101
Fixed: Mole fraction of cycloheptane = 0
Property: (Relative) activity of cycloheptane (Liquid); method: Chromatography
Temperature, K	(Relative) activity of cycloheptane	uncertainty
312.55	194.19	13.334
322.45	250.689	17.224
332.45	322.731	22.186

System: benzene + 1-ethyl-3-methylimidazolium methanesulfonate; phases: Liquid
Fixed: Pressure, kPa = 101
Fixed: Mole fraction of benzene = 0
Property: (Relative) activity of benzene (Liquid); method: Chromatography
Temperature, K	(Relative) activity of benzene	uncertainty
312.55	4.306	0.293
322.45	4.271	0.291
332.45	4.235	0.288

System: toluene + 1-ethyl-3-methylimidazolium methanesulfonate; phases: Liquid
Fixed: Pressure, kPa = 101
Fixed: Mole fraction of toluene = 0
Property: (Relative) activity of toluene (Liquid); method: Chromatography
Temperature, K	(Relative) activity of toluene	uncertainty
312.55	13.109	0.895
322.45	8.735	0.596
332.45	8.569	0.584

System: ethylbenzene + 1-ethyl-3-methylimidazolium methanesulfonate; phases: Liquid
Fixed: Pressure, kPa = 101
Fixed: Mole fraction of ethylbenzene = 0
Property: (Relative) activity of ethylbenzene (Liquid); method: Chromatography
Temperature, K	(Relative) activity of ethylbenzene	uncertainty
312.55	23.694	1.62
322.45	16.842	1.15
332.45	16.47	1.125

System: 1,3-dimethylbenzene + 1-ethyl-3-methylimidazolium methanesulfonate; phases: Liquid
Fixed: Pressure, kPa = 101
Fixed: Mole fraction of 1,3-dimethylbenzene = 0
Property: (Relative) activity of 1,3-dimethylbenzene (Liquid); method: Chromatography
Temperature, K	(Relative) activity of 1,3-dimethylbenzene	uncertainty
312.55	19.28	1.317
322.45	18.753	1.281
332.45	18.224	1.245

System: 1,4-dimethylbenzene + 1-ethyl-3-methylimidazolium methanesulfonate; phases: Liquid
Fixed: Pressure, kPa = 101
Fixed: Mole fraction of 1,4-dimethylbenzene = 0
Property: (Relative) activity of 1,4-dimethylbenzene (Liquid); method: Chromatography
Temperature, K	(Relative) activity of 1,4-dimethylbenzene	uncertainty
312.55	18.073	1.235
322.45	17.795	1.216
332.45	17.311	1.182

System: 1,2-dimethylbenzene + 1-ethyl-3-methylimidazolium methanesulfonate; phases: Liquid
Fixed: Pressure, kPa = 101
Fixed: Mole fraction of 1,2-dimethylbenzene = 0
Property: (Relative) activity of 1,2-dimethylbenzene (Liquid); method: Chromatography
Temperature, K	(Relative) activity of 1,2-dimethylbenzene	uncertainty
312.55	14.725	1.005
322.45	14.514	0.991
332.45	14.256	0.973

System: hex-1-ene + 1-ethyl-3-methylimidazolium methanesulfonate; phases: Liquid
Fixed: Pressure, kPa = 101
Fixed: Mole fraction of hex-1-ene = 0
Property: (Relative) activity of hex-1-ene (Liquid); method: Chromatography
Temperature, K	(Relative) activity of hex-1-ene	uncertainty
312.55	86.953	5.96
322.45	83.446	5.719
332.45	68.874	4.719

System: 1-hexyne + 1-ethyl-3-methylimidazolium methanesulfonate; phases: Liquid
Fixed: Pressure, kPa = 101
Fixed: Mole fraction of 1-hexyne = 0
Property: (Relative) activity of 1-hexyne (Liquid); method: Chromatography
Temperature, K	(Relative) activity of 1-hexyne	uncertainty
312.55	10.621	0.725
322.45	10.699	0.73
332.45	10.664	0.728

System: 1-heptyne + 1-ethyl-3-methylimidazolium methanesulfonate; phases: Liquid
Fixed: Pressure, kPa = 101
Fixed: Mole fraction of 1-heptyne = 0
Property: (Relative) activity of 1-heptyne (Liquid); method: Chromatography
Temperature, K	(Relative) activity of 1-heptyne	uncertainty
312.55	19.195	1.311
322.45	19.396	1.325
332.45	19.386	1.325

System: butanone + 1-ethyl-3-methylimidazolium methanesulfonate; phases: Liquid
Fixed: Pressure, kPa = 101
Fixed: Mole fraction of butanone = 0
Property: (Relative) activity of butanone (Liquid); method: Chromatography
Temperature, K	(Relative) activity of butanone	uncertainty
312.55	3.93	0.268
322.45	3.686	0.251
332.45	3.348	0.228

System: pentan-2-one + 1-ethyl-3-methylimidazolium methanesulfonate; phases: Liquid
Fixed: Pressure, kPa = 101
Fixed: Mole fraction of pentan-2-one = 0
Property: Activity coefficient of pentan-2-one (Liquid); method: Chromatography
Temperature, K	Activity coefficient of pentan-2-one	uncertainty
312.55	7.789	0.531
322.45	7.704	0.525
332.45	7.571	0.516

System: pentan-3-one + 1-ethyl-3-methylimidazolium methanesulfonate; phases: Liquid
Fixed: Pressure, kPa = 101
Fixed: Mole fraction of pentan-3-one = 0
Property: Activity coefficient of pentan-3-one (Liquid); method: Chromatography
Temperature, K	Activity coefficient of pentan-3-one	uncertainty
312.55	7.576	0.517
322.45	7.451	0.508
332.45	7.371	0.503

System: 1,4-dioxane + 1-ethyl-3-methylimidazolium methanesulfonate; phases: Liquid
Fixed: Pressure, kPa = 101
Fixed: Mole fraction of 1,4-dioxane = 0
Property: Activity coefficient of 1,4-dioxane (Liquid); method: Chromatography
Temperature, K	Activity coefficient of 1,4-dioxane	uncertainty
312.55	2.675	0.182
322.45	2.666	0.181
332.45	2.66	0.181

System: methanol + 1-ethyl-3-methylimidazolium methanesulfonate; phases: Liquid
Fixed: Pressure, kPa = 101
Fixed: Mole fraction of methanol = 0
Property: Activity coefficient of methanol (Liquid); method: Chromatography
Temperature, K	Activity coefficient of methanol	uncertainty
312.55	0.249	0.03
322.45	0.254	0.03
332.45	0.264	0.03

System: ethanol + 1-ethyl-3-methylimidazolium methanesulfonate; phases: Liquid
Fixed: Pressure, kPa = 101
Fixed: Mole fraction of ethanol = 0
Property: Activity coefficient of ethanol (Liquid); method: Chromatography
Temperature, K	Activity coefficient of ethanol	uncertainty
312.55	0.438	0.035
322.45	0.418	0.035
332.45	0.405	0.034

System: propan-1-ol + 1-ethyl-3-methylimidazolium methanesulfonate; phases: Liquid
Fixed: Pressure, kPa = 101
Fixed: Mole fraction of propan-1-ol = 0
Property: Activity coefficient of propan-1-ol (Liquid); method: Chromatography
Temperature, K	Activity coefficient of propan-1-ol	uncertainty
312.55	0.742	0.049
322.45	0.734	0.049
332.45	0.722	0.048

System: propan-2-ol + 1-ethyl-3-methylimidazolium methanesulfonate; phases: Liquid
Fixed: Pressure, kPa = 101
Fixed: Mole fraction of propan-2-ol = 0
Property: Activity coefficient of propan-2-ol (Liquid); method: Chromatography
Temperature, K	Activity coefficient of propan-2-ol	uncertainty
312.55	0.924	0.058
322.45	0.907	0.058
332.45	0.877	0.056

System: diethyl ether + 1-ethyl-3-methylimidazolium methanesulfonate; phases: Liquid
Fixed: Pressure, kPa = 101
Fixed: Mole fraction of diethyl ether = 0
Property: Activity coefficient of diethyl ether (Liquid); method: Chromatography
Temperature, K	Activity coefficient of diethyl ether	uncertainty
312.55	21.818	1.491
322.45	20.373	1.392
332.45	18.006	1.23

System: diisopropyl ether + 1-ethyl-3-methylimidazolium methanesulfonate; phases: Liquid
Fixed: Pressure, kPa = 101
Fixed: Mole fraction of diisopropyl ether = 0
Property: Activity coefficient of diisopropyl ether (Liquid); method: Chromatography
Temperature, K	Activity coefficient of diisopropyl ether	uncertainty
312.55	84.519	5.793
322.45	74.151	5.081
332.45	67.694	4.638

System: trichloromethane + 1-ethyl-3-methylimidazolium methanesulfonate; phases: Liquid
Fixed: Pressure, kPa = 101
Fixed: Mole fraction of trichloromethane = 0
Property: Activity coefficient of trichloromethane (Liquid); method: Chromatography
Temperature, K	Activity coefficient of trichloromethane	uncertainty
312.55	0.563	0.04
322.45	0.479	0.037
332.45	1.418	0.093

System: dichloromethane + 1-ethyl-3-methylimidazolium methanesulfonate; phases: Liquid
Fixed: Pressure, kPa = 101
Fixed: Mole fraction of dichloromethane = 0
Property: Activity coefficient of dichloromethane (Liquid); method: Chromatography
Temperature, K	Activity coefficient of dichloromethane	uncertainty
312.55	0.471	0.037
322.45	0.531	0.039
332.45	1.299	0.084

System: tetrachloromethane + 1-ethyl-3-methylimidazolium methanesulfonate; phases: Liquid
Fixed: Pressure, kPa = 101
Fixed: Mole fraction of tetrachloromethane = 0
Property: Activity coefficient of tetrachloromethane (Liquid); method: Chromatography
Temperature, K	Activity coefficient of tetrachloromethane	uncertainty
312.55	4.572	0.311
322.45	4.793	0.327
332.45	0.669	0.045

System: acetonitrile + 1-ethyl-3-methylimidazolium methanesulfonate; phases: Liquid
Fixed: Pressure, kPa = 101
Fixed: Mole fraction of acetonitrile = 0
Property: Activity coefficient of acetonitrile (Liquid); method: Chromatography
Temperature, K	Activity coefficient of acetonitrile	uncertainty
312.55	1.263	0.081
322.45	0.818	0.053
332.45	0.836	0.054

System: nitromethane + 1-ethyl-3-methylimidazolium methanesulfonate; phases: Liquid
Fixed: Pressure, kPa = 101
Fixed: Mole fraction of nitromethane = 0
Property: Activity coefficient of nitromethane (Liquid); method: Chromatography
Temperature, K	Activity coefficient of nitromethane	uncertainty
312.55	2.057	0.14
322.45	1.261	0.081
332.45	0.801	0.052

System: 1-nitropropane + 1-ethyl-3-methylimidazolium methanesulfonate; phases: Liquid
Fixed: Pressure, kPa = 101
Fixed: Mole fraction of 1-nitropropane = 0
Property: Activity coefficient of 1-nitropropane (Liquid); method: Chromatography
Temperature, K	Activity coefficient of 1-nitropropane	uncertainty
312.55	4.19	0.285
322.45	2.702	0.184
332.45	1.726	0.115

System: triethylamine + 1-ethyl-3-methylimidazolium methanesulfonate; phases: Liquid
Fixed: Pressure, kPa = 101
Fixed: Mole fraction of triethylamine = 0
Property: Activity coefficient of triethylamine (Liquid); method: Chromatography
Temperature, K	Activity coefficient of triethylamine	uncertainty
312.55	8.322	0.568
322.45	14.329	0.978
332.45	18.845	1.287

System: thiophene + 1-ethyl-3-methylimidazolium methanesulfonate; phases: Liquid
Fixed: Pressure, kPa = 101
Fixed: Mole fraction of thiophene = 0
Property: Activity coefficient of thiophene (Liquid); method: Chromatography
Temperature, K	Activity coefficient of thiophene	uncertainty
312.55	1.871	0.126
322.45	1.905	0.129
332.45	1.951	0.132

System: methanal + 1-ethyl-3-methylimidazolium methanesulfonate; phases: Liquid
Fixed: Pressure, kPa = 101
Fixed: Mole fraction of methanal = 0
Property: Activity coefficient of methanal (Liquid); method: Chromatography
Temperature, K	Activity coefficient of methanal	uncertainty
312.55	0.615	0.043
322.45	0.656	0.045
332.45	0.691	0.046

System: propanal + 1-ethyl-3-methylimidazolium methanesulfonate; phases: Liquid
Fixed: Pressure, kPa = 101
Fixed: Mole fraction of propanal = 0
Property: Activity coefficient of propanal (Liquid); method: Chromatography
Temperature, K	Activity coefficient of propanal	uncertainty
312.55	2.756	0.188
322.45	2.714	0.185
332.45	2.652	0.18

System: tridecane + 1-butyl-3-methylimidazolium bis(perfluoroethylsulfonyl)imide; phases: Liquid
Fixed: Pressure, kPa = 101
Fixed: Mole fraction of tridecane = 0
Property: Activity coefficient of tridecane (Liquid); method: Chromatography
Temperature, K	Activity coefficient of tridecane	uncertainty
322.55	111.158	7.623
342.75	78.063	5.35
363.65	68.856	4.717

System: tridecane + 1-ethyl-3-methylimidazolium methanesulfonate; phases: Liquid
Fixed: Pressure, kPa = 101
Fixed: Mole fraction of tridecane = 0
Property: Activity coefficient of tridecane (Liquid); method: Chromatography
Temperature, K	Activity coefficient of tridecane	uncertainty
312.55	3376.144	233.358
322.45	3276.796	226.475
332.45	3068.67	212.057

System: tetradecane + 1-butyl-3-methylimidazolium bis(perfluoroethylsulfonyl)imide; phases: Liquid
Fixed: Pressure, kPa = 101
Fixed: Mole fraction of tetradecane = 0
Property: Activity coefficient of tetradecane (Liquid); method: Chromatography
Temperature, K	Activity coefficient of tetradecane	uncertainty
322.55	153.275	10.519
342.75	112.679	7.728
362.65	91.528	6.274

System: tetradecane + 1-ethyl-3-methylimidazolium methanesulfonate; phases: Liquid
Fixed: Pressure, kPa = 101
Fixed: Mole fraction of tetradecane = 0
Property: Activity coefficient of tetradecane (Liquid); method: Chromatography
Temperature, K	Activity coefficient of tetradecane	uncertainty
312.55	4065.351	281.12
322.45	4003.456	276.83
332.45	3828.889	264.731

System: butanal + 1-ethyl-3-methylimidazolium methanesulfonate; phases: Liquid
Fixed: Pressure, kPa = 101
Fixed: Mole fraction of butanal = 0
Property: Activity coefficient of butanal (Liquid); method: Chromatography
Temperature, K	Activity coefficient of butanal	uncertainty
312.55	4.869	0.332
322.45	4.947	0.337
332.45	3.509	0.239
