Measured thermophysical data. Isobaric Vapor Liquid Equilibria for the Extractive Distillation of Ethanol + Water Mixtures Using 1-Ethyl-3-methylimidazolium Dicyanamide
Source: J. Chem. Eng. Data, 2011, 10.1021/je200816z
Compound 1: ethanol, C2H6O, InChI=1S/C2H6O/c1-2-3/h3H,2H2,1H3, purity 99.9%
Compound 2: 1-ethyl-3-methylimidazolium dicyanamide, C8H11N5, InChI=1S/C6H11N2.C2N3/c1-3-8-5-4-7(2)6-8;3-1-5-2-4/h4-6H,3H2,1-2H3;/q+1;-1, purity 98%
Compound 3: water, H2O, InChI=1S/H2O/h1H2, purity 99.9%

System: ethanol; phases: Liquid, Gas
Property: Vapor or sublimation pressure, kPa (Liquid); method: EBULLIO:UFactor:2
Temperature, K	Vapor or sublimation pressure, kPa	uncertainty
351.21	100	0.9

System: ethanol + 1-ethyl-3-methylimidazolium dicyanamide; phases: Liquid, Gas
Fixed: Pressure, kPa = 100
Property: Boiling temperature at pressure P, K (Liquid); method: EBULLIO:UFactor:2
Mole fraction of 1-ethyl-3-methylimidazolium dicyanamide	Boiling temperature at pressure P, K	uncertainty
0	351.21	0.19
0.0146	351.58	0.19
0.0155	351.6	0.19
0.0298	351.95	0.19
0.0313	351.98	0.19
0.0449	352.28	0.19
0.0466	352.34	0.19
0.0566	352.67	0.19
0.0719	353.15	0.19
0.0976	353.93	0.19
0.1095	354.46	0.19
0.1209	354.77	0.19
0.1339	355.28	0.19
0.1597	356.39	0.19
0.1791	357.14	0.19
0.1912	357.7	0.19
0.2031	358.32	0.19
0.2033	358.24	0.19
0.2148	358.85	0.19
0.2248	359.2	0.19
0.2465	360.28	0.19
0.2479	360.5	0.19
0.2534	360.69	0.19
0.2628	361.25	0.19
0.2737	361.75	0.19
0.2854	362.43	0.19
0.2934	362.82	0.19
0.3036	363.41	0.19
0.3221	364.45	0.19
0.3596	366.66	0.19
0.3732	367.56	0.19
0.3832	368.21	0.19
0.3941	368.83	0.19
0.4037	369.45	0.19
0.4377	371.7	0.19
0.4453	372.13	0.19
0.4534	372.83	0.19
0.4782	374.5	0.19
0.4927	375.43	0.19

System: water + 1-ethyl-3-methylimidazolium dicyanamide; phases: Liquid, Gas
Fixed: Pressure, kPa = 100
Property: Boiling temperature at pressure P, K (Liquid); method: EBULLIO:UFactor:2
Mole fraction of 1-ethyl-3-methylimidazolium dicyanamide	Boiling temperature at pressure P, K	uncertainty
0	372.77	0.19
0.0049	373.08	0.19
0.0101	373.26	0.19
0.0189	373.58	0.19
0.0278	373.86	0.19
0.0349	374.11	0.19
0.0447	374.42	0.19
0.0531	374.69	0.19
0.0622	375.02	0.19
0.0707	375.38	0.19
0.0801	375.73	0.19
0.0899	376.16	0.19
0.0989	376.59	0.19
0.1082	377	0.19
0.1184	377.56	0.19
0.1276	377.98	0.19
0.1371	378.56	0.19
0.1478	379.2	0.19
0.1562	379.7	0.19
0.165	380.28	0.19
0.1793	381.21	0.19
0.1862	381.62	0.19
0.1939	382.2	0.19
0.2019	382.72	0.19
0.2091	383.36	0.19
0.2175	384.01	0.19
0.224	384.47	0.19
0.2384	385.7	0.19
0.2467	386.45	0.19
0.2669	388.19	0.19

System: ethanol + water + 1-ethyl-3-methylimidazolium dicyanamide; phases: Liquid, Gas
Fixed: Pressure, kPa = 100
Property: Boiling temperature at pressure P, K (Liquid); method: EBULLIO:UFactor:2
Mole fraction of 1-ethyl-3-methylimidazolium dicyanamide	Solvent: Mole fraction of ethanol	Boiling temperature at pressure P, K	uncertainty
0.0527	1	352.55	0.2
0.053	0.953	352.46	0.2
0.0531	0	374.69	0.21
0.0536	0.901	352.49	0.2
0.054	0.84	352.57	0.2
0.0544	0.775	352.75	0.2
0.0548	0.716	352.91	0.2
0.0554	0.654	353.19	0.2
0.0559	0.583	353.55	0.2
0.0561	0.507	354.08	0.21
0.0565	0.444	354.63	0.21
0.0566	0.036	369.03	0.31
0.0568	0.39	355.16	0.21
0.0569	0.338	355.9	0.21
0.057	0.08	364.77	0.27
0.0571	0.271	357.01	0.22
0.0572	0.204	358.71	0.23
0.0575	0.135	361.41	0.24
0.1273	1	354.97	0.21
0.1276	0	377.98	0.24
0.1281	0.959	355.12	0.21
0.1292	0.917	355.27	0.21
0.1302	0.877	355.44	0.21
0.1315	0.823	355.55	0.21
0.132	0.754	355.76	0.21
0.133	0.682	356.12	0.21
0.1343	0.633	356.41	0.21
0.1351	0.036	373.49	0.31
0.1353	0.501	357.4	0.21
0.1353	0.561	356.82	0.21
0.1359	0.443	357.94	0.22
0.1361	0.372	358.98	0.22
0.1363	0.076	370.22	0.29
0.1364	0.288	360.82	0.23
0.1366	0.132	366.59	0.26
0.1367	0.208	363.18	0.24
0.2152	1	359.25	0.21
0.216	0.957	359.32	0.21
0.2179	0.923	359.47	0.21
0.2202	0.888	359.64	0.21
0.2221	0.84	359.88	0.21
0.2234	0.78	360.15	0.21
0.224	0	384.47	0.25
0.224	0.707	360.56	0.21
0.2253	0.636	361.11	0.22
0.226	0.414	364	0.23
0.226	0.485	362.83	0.22
0.2261	0.336	365.62	0.23
0.2262	0.56	361.84	0.22
0.2287	0.178	371.27	0.25
0.2308	0.251	368.36	0.25
0.2323	0.033	381.22	0.28
0.2331	0.067	378.36	0.29
0.2332	0.114	375.07	0.27

System: ethanol + water + 1-ethyl-3-methylimidazolium dicyanamide; phases: Gas, Liquid
Fixed: Pressure, kPa = 100
Property: Mole fraction of ethanol (Gas); method: Chromatography
Mole fraction of 1-ethyl-3-methylimidazolium dicyanamide	Solvent: Mole fraction of ethanol	Mole fraction of ethanol	uncertainty
0.0527	1	1	
0.053	0.953	0.96	0.003
0.0531	0	0	
0.0536	0.901	0.919	0.003
0.054	0.84	0.877	0.003
0.0544	0.775	0.835	0.003
0.0548	0.716	0.796	0.003
0.0554	0.654	0.762	0.003
0.0559	0.583	0.724	0.003
0.0561	0.507	0.684	0.004
0.0565	0.444	0.662	0.004
0.0566	0.036	0.202	0.007
0.0568	0.39	0.636	0.004
0.0569	0.338	0.609	0.004
0.057	0.08	0.336	0.006
0.0571	0.271	0.568	0.004
0.0572	0.204	0.52	0.005
0.0575	0.135	0.442	0.005
0.1273	1	1	
0.1276	0	0	
0.1281	0.959	0.972	0.002
0.1292	0.917	0.945	0.002
0.1302	0.877	0.921	0.003
0.1315	0.823	0.889	0.003
0.132	0.754	0.851	0.003
0.133	0.682	0.812	0.003
0.1343	0.633	0.784	0.003
0.1351	0.036	0.163	0.007
0.1353	0.501	0.714	0.004
0.1353	0.561	0.745	0.003
0.1359	0.443	0.679	0.004
0.1361	0.372	0.636	0.004
0.1363	0.076	0.293	0.006
0.1364	0.288	0.575	0.005
0.1366	0.132	0.409	0.005
0.1367	0.208	0.513	0.005
0.2152	1	1	
0.216	0.957	0.977	0.002
0.2179	0.923	0.959	0.002
0.2202	0.888	0.942	0.002
0.2221	0.84	0.918	0.003
0.2234	0.78	0.889	0.003
0.224	0	0	
0.224	0.707	0.856	0.003
0.2253	0.636	0.82	0.003
0.226	0.414	0.697	0.004
0.226	0.485	0.739	0.004
0.2261	0.336	0.638	0.004
0.2262	0.56	0.783	0.003
0.2287	0.178	0.467	0.005
0.2308	0.251	0.559	0.005
0.2323	0.033	0.14	0.011
0.2331	0.067	0.253	0.006
0.2332	0.114	0.355	0.005
