Measured thermophysical data. Solubilities of Fatty Acids and Triglycerides in 1-Bromopropane
Source: J. Chem. Eng. Data, 2012, 10.1021/je201181k
Compound 1: tetradecanoic acid, C14H28O2, InChI=1S/C14H28O2/c1-2-3-4-5-6-7-8-9-10-11-12-13-14(15)16/h2-13H2,1H3,(H,15,16), purity 99%
Compound 2: hexadecanoic acid, C16H32O2, InChI=1S/C16H32O2/c1-2-3-4-5-6-7-8-9-10-11-12-13-14-15-16(17)18/h2-15H2,1H3,(H,17,18), purity 98%
Compound 3: octadecanoic acid, C18H36O2, InChI=1S/C18H36O2/c1-2-3-4-5-6-7-8-9-10-11-12-13-14-15-16-17-18(19)20/h2-17H2,1H3,(H,19,20), purity 98%
Compound 4: 1,2,3-propanetriyl tridodecanoate, C39H74O6, InChI=1S/C39H74O6/c1-4-7-10-13-16-19-22-25-28-31-37(40)43-34-36(45-39(42)33-30-27-24-21-18-15-12-9-6-3)35-44-38(41)32-29-26-23-20-17-14-11-8-5-2/h36H,4-35H2,1-3H3, purity 99%
Compound 5: 1,2,3-propanetriyl tri(tetradecanoate), C45H86O6, InChI=1S/C45H86O6/c1-4-7-10-13-16-19-22-25-28-31-34-37-43(46)49-40-42(51-45(48)39-36-33-30-27-24-21-18-15-12-9-6-3)41-50-44(47)38-35-32-29-26-23-20-17-14-11-8-5-2/h42H,4-41H2,1-3H3, purity 99%
Compound 6: 1,2,3-propanetriyl tri(hexadecanoate), C51H98O6, InChI=1S/C51H98O6/c1-4-7-10-13-16-19-22-25-28-31-34-37-40-43-49(52)55-46-48(57-51(54)45-42-39-36-33-30-27-24-21-18-15-12-9-6-3)47-56-50(53)44-41-38-35-32-29-26-23-20-17-14-11-8-5-2/h48H,4-47H2,1-3H3, purity 99%
Compound 7: glycerol trioctadecanoate, C57H110O6, InChI=1S/C57H110O6/c1-4-7-10-13-16-19-22-25-28-31-34-37-40-43-46-49-55(58)61-52-54(63-57(60)51-48-45-42-39-36-33-30-27-24-21-18-15-12-9-6-3)53-62-56(59)50-47-44-41-38-35-32-29-26-23-20-17-14-11-8-5-2/h54H,4-53H2,1-3H3, purity 99%
Compound 8: 1-bromopropane, C3H7Br, InChI=1S/C3H7Br/c1-2-3-4/h2-3H2,1H3, purity 99%

System: 1-bromopropane + tetradecanoic acid; phases: Liquid, Crystal
Fixed: Pressure, kPa = 101
Property: Solid-liquid equilibrium temperature, K (Liquid); method: VISOBS
Mole fraction of tetradecanoic acid	Solid-liquid equilibrium temperature, K	uncertainty
0.0285	285.1	0.4
0.0415	288.5	0.3
0.0679	292.7	0.3
0.092	295.4	0.3
0.1246	298.9	0.3
0.1685	302.1	0.3
0.1836	302.9	0.3
0.2026	303.9	0.3
0.2503	306.9	0.3
0.28	308.6	0.3
0.3292	310.8	0.3
0.499	316.5	0.3
0.5171	316.9	0.3
0.5599	317.9	0.3
0.6112	319.4	0.3

System: hexadecanoic acid + 1-bromopropane; phases: Liquid, Crystal
Fixed: Pressure, kPa = 101
Property: Solid-liquid equilibrium temperature, K (Liquid); method: VISOBS
Mole fraction of hexadecanoic acid	Solid-liquid equilibrium temperature, K	uncertainty
0.073	301.9	0.3
0.124	307.1	0.3
0.1758	311.2	0.3
0.2235	314.1	0.3
0.2726	316.8	0.3
0.3234	319.3	0.3
0.3585	320.6	0.3
0.4048	322.3	0.3
0.5141	325.8	0.3
0.5698	327.4	0.3
0.6644	329.7	0.3
0.6825	330	0.3
0.7362	331.1	0.3

System: octadecanoic acid + 1-bromopropane; phases: Liquid, Crystal
Fixed: Pressure, kPa = 101
Property: Solid-liquid equilibrium temperature, K (Liquid); method: VISOBS
Mole fraction of octadecanoic acid	Solid-liquid equilibrium temperature, K	uncertainty
0.0247	301.3	0.4
0.033	303.4	0.3
0.0462	306	0.3
0.0556	307.4	0.3
0.0663	308.9	0.3
0.0729	309.7	0.3
0.0889	311.3	0.3
0.0969	312.2	0.3
0.129	315	0.3
0.1575	317.1	0.3
0.1873	319	0.3
0.2293	321.6	0.3
0.3179	325.7	0.3
0.3607	327.5	0.3
0.4044	329.3	0.3
0.4805	331.8	0.3
0.6711	336.6	0.3

System: 1-bromopropane + 1,2,3-propanetriyl tridodecanoate; phases: Liquid, Crystal
Fixed: Pressure, kPa = 101
Property: Solid-liquid equilibrium temperature, K (Liquid); method: VISOBS
Mole fraction of 1,2,3-propanetriyl tridodecanoate	Solid-liquid equilibrium temperature, K	uncertainty
0.0475	289.6	0.3
0.0572	291.4	0.3
0.0773	294	0.3
0.1246	299.3	0.3
0.2225	306.1	0.3
0.2819	308.8	0.3
0.3638	311.5	0.3
0.4123	312.8	0.3
0.5179	314.8	0.3
0.6323	316.6	0.3
0.7686	318.1	0.3

System: 1-bromopropane + 1,2,3-propanetriyl tri(tetradecanoate); phases: Liquid, Crystal
Fixed: Pressure, kPa = 101
Property: Solid-liquid equilibrium temperature, K (Liquid); method: VISOBS
Mole fraction of 1,2,3-propanetriyl tri(tetradecanoate)	Solid-liquid equilibrium temperature, K	uncertainty
0.0297	296.7	0.4
0.0363	298.6	0.4
0.0466	301.2	0.3
0.0539	302.2	0.3
0.0611	303.6	0.3
0.0744	305.7	0.3
0.0788	306.7	0.3
0.0834	307.2	0.3
0.1046	309.8	0.3
0.1844	316.4	0.3
0.2204	318.2	0.3
0.244	319.1	0.3
0.3749	323.1	0.3
0.5421	326	0.3

System: 1-bromopropane + 1,2,3-propanetriyl tri(hexadecanoate); phases: Liquid, Crystal
Fixed: Pressure, kPa = 101
Property: Solid-liquid equilibrium temperature, K (Liquid); method: VISOBS
Mole fraction of 1,2,3-propanetriyl tri(hexadecanoate)	Solid-liquid equilibrium temperature, K	uncertainty
0.0243	303.5	0.4
0.051	310.7	0.3
0.0778	315.4	0.3
0.1092	319.7	0.3
0.1781	325.5	0.3
0.227	328.2	0.3
0.3294	331.4	0.3
0.4208	333.4	0.3
0.5614	335.4	0.3
0.6916	336.7	0.3

System: 1-bromopropane + glycerol trioctadecanoate; phases: Liquid, Crystal
Fixed: Pressure, kPa = 101
Property: Solid-liquid equilibrium temperature, K (Liquid); method: VISOBS
Mole fraction of glycerol trioctadecanoate	Solid-liquid equilibrium temperature, K	uncertainty
0.0132	308.1	0.5
0.0239	312.2	0.4
0.0347	315.2	0.4
0.0472	318.2	0.3
0.0549	319.6	0.3
0.0661	321.8	0.3
0.0765	323.1	0.3
0.1158	327.9	0.3
0.175	332.6	0.3
0.2953	337.7	0.3
0.3867	340	0.3
0.4762	341.5	0.3
0.5864	342.9	0.3
0.6352	343.3	0.3
