Measured thermophysical data. Measurement and Correlation of the Thermal Conductivity of 2,3,3,3-Tetrafluoroprop-1-ene (R1234yf) and trans-1,3,3,3-Tetrafluoropropene (R1234ze(E))
Source: J. Chem. Eng. Data, 2011, 10.1021/je200811n
Compound 1: trans-1,3,3,3-tetrafluoropropene, C3H2F4, InChI=1S/C3H2F4/c4-2-1-3(5,6)7/h1-2H/b2-1+, purity 99.993%
Compound 2: 2,3,3,3-tetrafluoro-1-propene, C3H2F4, InChI=1S/C3H2F4/c1-2(4)3(5,6)7/h1H2, purity 99.96%

System: trans-1,3,3,3-tetrafluoropropene; phases: Liquid, Gas
Property: Thermal conductivity, W/m/K (Liquid); method: Hot wire method
Temperature, K	Thermal conductivity, W/m/K	uncertainty
203.15	0.11011	0.00064
213.15	0.10638	0.00063
223.15	0.1024	0.0006
233.15	0.098404	0.000595
243.15	0.094477	0.000579
253.15	0.090635	0.000564
263.15	0.086881	0.000549
273.15	0.083212	0.000534
283.15	0.079624	0.00052
293.15	0.076113	0.000506
303.15	0.072675	0.000492
313.15	0.069316	0.000478
323.15	0.06606	0.00047
333.15	0.062929	0.000453
343.15	0.059929	0.000441

System: trans-1,3,3,3-tetrafluoropropene; phases: Gas
Property: Thermal conductivity, W/m/K (Gas); method: Hot wire method
Pressure, kPa	Temperature, K	Thermal conductivity, W/m/K	uncertainty
41	251.743	0.01015	0.00035
41	251.997	0.01005	0.00035
42	251.514	0.01026	0.00036
62	252.004	0.01009	0.00035
62	253.558	0.01022	0.00036
62	253.558	0.01022	0.00036
63	251.521	0.01037	0.00036
63	251.756	0.01019	0.00035
63	252.023	0.01	0.00035
63	252.362	0.01014	0.00035
63	252.734	0.01019	0.00035
63	253.131	0.01017	0.00035
63	252.023	0.01	0.00035
63	252.362	0.01014	0.00035
63	252.734	0.01019	0.00035
63	253.131	0.01017	0.00035
73	273.306	0.01134	0.00039
73	275.554	0.01186	0.00041
73	275.554	0.01186	0.00041
74	273.031	0.01133	0.00039
75	275.033	0.01176	0.0004
75	275.033	0.01176	0.0004
76	272.758	0.01132	0.00039
77	274.538	0.01173	0.0004
77	274.538	0.01173	0.0004
78	272.507	0.01132	0.00039
78	274.079	0.01173	0.0004
78	274.079	0.01173	0.0004
80	261.505	0.01109	0.00038
80	261.726	0.01096	0.00038
80	261.962	0.01086	0.00038
80	262.648	0.01085	0.00037
80	263.038	0.01079	0.00037
80	263.452	0.01089	0.00038
80	272.272	0.01132	0.00039
80	262.648	0.01085	0.00037
80	263.038	0.01079	0.00037
80	263.452	0.01089	0.00038
81	262.301	0.01082	0.00037
81	262.301	0.01082	0.00037
82	261.972	0.01083	0.00037
82	261.972	0.01083	0.00037
84	273.645	0.01168	0.0004
84	273.645	0.01168	0.0004
86	251.537	0.01039	0.00036
86	251.77	0.01024	0.00036
86	252.007	0.01018	0.00035
86	252.652	0.01016	0.00035
86	253.035	0.01015	0.00035
86	253.459	0.01017	0.00035
86	252.652	0.01016	0.00035
86	253.035	0.01015	0.00035
86	253.459	0.01017	0.00035
87	251.784	0.01029	0.00036
87	251.975	0.01006	0.00035
87	252.034	0.01018	0.00035
87	252.305	0.01004	0.00035
87	252.669	0.01008	0.00035
87	253.069	0.01011	0.00035
87	253.477	0.01016	0.00035
87	251.975	0.01006	0.00035
87	252.305	0.01004	0.00035
87	252.669	0.01008	0.00035
87	253.069	0.01011	0.00035
87	253.477	0.01016	0.00035
88	251.999	0.01003	0.00035
88	252.33	0.01011	0.00035
88	251.999	0.01003	0.00035
88	252.33	0.01011	0.00035
89	273.291	0.01139	0.00039
90	273.001	0.01144	0.00039
90	275.532	0.0118	0.0004
90	275.532	0.0118	0.0004
91	275.006	0.01175	0.0004
91	275.006	0.01175	0.0004
92	272.726	0.01149	0.00039
92	274.521	0.01174	0.0004
92	274.521	0.01174	0.0004
93	272.219	0.01165	0.0004
93	272.467	0.01156	0.0004
93	274.067	0.01171	0.0004
93	274.067	0.01171	0.0004
94	273.621	0.01167	0.0004
94	292.064	0.01276	0.00043
94	273.621	0.01167	0.0004
95	291.522	0.01287	0.00044
95	291.787	0.01281	0.00044
95	293.298	0.01322	0.00045
95	293.769	0.0133	0.00045
95	294.269	0.01329	0.00045
95	293.298	0.01322	0.00045
95	293.769	0.0133	0.00045
95	294.269	0.01329	0.00045
96	291.265	0.013	0.001
96	292.849	0.01324	0.00045
96	321.228	0.01565	0.00053
96	321.454	0.01549	0.00052
96	321.685	0.01537	0.00052
96	321.933	0.01526	0.00051
96	322.99	0.01599	0.00054
96	323.414	0.0162	0.00054
96	323.861	0.01599	0.00054
96	324.327	0.01609	0.00054
96	331.175	0.01637	0.00055
96	331.405	0.0162	0.0005
96	331.645	0.01611	0.00054
96	331.901	0.01602	0.00054
96	332.703	0.01695	0.00057
96	333.126	0.017	0.00057
96	333.564	0.01706	0.00057
96	334.023	0.01704	0.00057
96	334.513	0.01712	0.00057
96	340.702	0.01742	0.00058
96	341.145	0.01698	0.00057
96	341.375	0.01689	0.00057
96	342.041	0.0178	0.00059
96	343.278	0.01785	0.0006
96	292.849	0.01324	0.00045
96	322.99	0.01599	0.00054
96	323.414	0.0162	0.00054
96	323.861	0.01599	0.00054
96	324.327	0.01609	0.00054
96	332.703	0.01695	0.00057
96	333.126	0.017	0.00057
96	333.564	0.01706	0.00057
96	334.023	0.01704	0.00057
96	334.513	0.01712	0.00057
96	342.041	0.0178	0.00059
96	343.278	0.01785	0.0006
97	261.255	0.0104	0.0004
97	261.446	0.01036	0.00036
97	261.55	0.01112	0.00038
97	261.775	0.01098	0.00038
97	262.008	0.0109	0.0004
97	262.671	0.01087	0.00038
97	263.02	0.01085	0.00037
97	263.425	0.01089	0.00038
97	284.623	0.0125	0.00043
97	291.026	0.01317	0.00045
97	292.436	0.01319	0.00045
97	340.916	0.01718	0.00057
97	342.442	0.01786	0.0006
97	342.848	0.01784	0.0006
97	262.671	0.01087	0.00038
97	263.02	0.01085	0.00037
97	263.425	0.01089	0.00038
97	284.623	0.0125	0.00043
97	292.436	0.01319	0.00045
97	342.442	0.01786	0.0006
97	342.848	0.01784	0.0006
98	261.645	0.01034	0.00036
98	261.863	0.01037	0.00036
98	261.997	0.01084	0.00037
98	262.093	0.01037	0.00036
98	262.303	0.01082	0.00037
98	262.317	0.01085	0.00037
98	262.635	0.01084	0.00037
98	263.05	0.01086	0.00038
98	263.455	0.01081	0.00037
98	282.134	0.01208	0.00041
98	284.114	0.01249	0.00043
98	261.997	0.01084	0.00037
98	262.303	0.01082	0.00037
98	262.317	0.01085	0.00037
98	262.635	0.01084	0.00037
98	263.05	0.01086	0.00038
98	263.455	0.01081	0.00037
98	284.114	0.01249	0.00043
99	261.978	0.01077	0.00037
99	281.86	0.01213	0.00042
99	261.978	0.01077	0.00037
100	283.635	0.01246	0.00043
100	283.635	0.01246	0.00043
101	281.611	0.01221	0.00042
101	283.188	0.01241	0.00042
101	301.504	0.01387	0.00047
101	301.732	0.01377	0.00047
101	301.977	0.01368	0.00046
101	302.507	0.01358	0.00046
101	303.295	0.01415	0.00048
101	304.657	0.0142	0.00048
101	311.909	0.01455	0.00049
101	312.158	0.01449	0.00049
101	312.429	0.0144	0.0005
101	314.083	0.01511	0.00051
101	314.557	0.01518	0.00051
101	283.188	0.01241	0.00042
101	303.295	0.01415	0.00048
101	304.657	0.0142	0.00048
101	314.083	0.01511	0.00051
101	314.557	0.01518	0.00051
102	281.367	0.01233	0.00042
102	302.236	0.01362	0.00046
102	304.18	0.01422	0.00048
102	311.436	0.01483	0.0005
102	311.668	0.01465	0.00049
102	312.796	0.01504	0.00051
102	313.202	0.01509	0.00051
102	313.637	0.01508	0.00051
102	304.18	0.01422	0.00048
102	312.796	0.01504	0.00051
102	313.202	0.01509	0.00051
102	313.637	0.01508	0.00051
103	262.018	0.01092	0.00038
103	282.76	0.01237	0.00042
103	282.76	0.01237	0.00042
104	263.418	0.01088	0.00038
104	263.418	0.01088	0.00038
105	261.778	0.01104	0.00038
106	263.01	0.01081	0.00037
106	263.01	0.01081	0.00037
107	261.559	0.0112	0.0004
107	262.625	0.01086	0.00038
107	262.625	0.01086	0.00038
109	262.286	0.01076	0.00037
109	262.286	0.01076	0.00037
112	261.967	0.01074	0.00037
112	273.296	0.01142	0.00039
112	261.967	0.01074	0.00037
113	275.432	0.01179	0.0004
113	275.432	0.01179	0.0004
114	273.007	0.01146	0.00039
115	274.922	0.01175	0.0004
115	274.922	0.01175	0.0004
116	272.737	0.0115	0.0004
116	274.45	0.01173	0.0004
116	274.45	0.01173	0.0004
117	272.474	0.01157	0.0004
118	262.032	0.01094	0.00038
118	272.233	0.01168	0.0004
118	274.002	0.01166	0.0004
118	274.002	0.01166	0.0004
119	263.389	0.01089	0.00038
119	273.58	0.01167	0.0004
119	263.389	0.01089	0.00038
119	273.58	0.01167	0.0004
120	261.793	0.01105	0.00038
121	262.985	0.0108	0.00037
121	262.985	0.0108	0.00037
122	261.57	0.01124	0.00039
123	262.606	0.01085	0.00037
123	262.606	0.01085	0.00037
128	261.959	0.01078	0.00037
128	261.959	0.01078	0.00037
138	282.403	0.01213	0.00042
139	284.446	0.01242	0.00042
139	284.446	0.01242	0.00042
140	282.131	0.01217	0.00042
140	283.963	0.01236	0.00042
140	283.963	0.01236	0.00042
141	281.861	0.01223	0.00042
142	281.613	0.0123	0.0004
142	283.5	0.01236	0.00042
142	283.5	0.01236	0.00042
143	283.069	0.01233	0.00042
143	283.069	0.01233	0.00042
144	281.374	0.01241	0.00042
145	282.668	0.01228	0.00042
145	282.668	0.01228	0.00042
154	273.28	0.01152	0.0004
154	291.048	0.0132	0.0005
154	291.279	0.01305	0.00044
154	292.325	0.01313	0.00045
154	292.718	0.01308	0.00044
154	293.14	0.01304	0.00044
154	292.325	0.01313	0.00045
154	292.718	0.01308	0.00044
154	293.14	0.01304	0.00044
155	275.269	0.01171	0.0004
155	291.524	0.01297	0.00044
155	291.791	0.01291	0.00044
155	292.055	0.01287	0.00044
155	293.576	0.01322	0.00045
155	294.043	0.01319	0.00045
155	275.269	0.01171	0.0004
155	293.576	0.01322	0.00045
155	294.043	0.01319	0.00045
157	272.992	0.01156	0.0004
158	274.779	0.01168	0.0004
158	274.779	0.01168	0.0004
159	272.729	0.01161	0.0004
160	274.318	0.01166	0.0004
160	274.318	0.01166	0.0004
162	272.468	0.01169	0.0004
163	273.885	0.0116	0.0004
163	273.885	0.0116	0.0004
164	272.23	0.01178	0.0004
166	273.483	0.0116	0.0004
166	273.483	0.0116	0.0004
170	272.235	0.01181	0.00041
172	273.473	0.01157	0.0004
172	273.473	0.01157	0.0004
173	272.011	0.01193	0.00041
175	273.095	0.01153	0.0004
175	273.095	0.01153	0.0004
177	272.739	0.01151	0.0004
177	272.739	0.01151	0.0004
180	272.439	0.01146	0.00039
180	272.439	0.01146	0.00039
193	321.244	0.01579	0.00053
193	321.459	0.01564	0.00053
193	321.687	0.01553	0.00052
193	321.938	0.01541	0.00052
193	322.19	0.01534	0.00052
193	322.805	0.01577	0.00053
193	323.189	0.01574	0.00053
193	323.606	0.01581	0.00053
193	324.051	0.01583	0.00053
193	322.805	0.01577	0.00053
193	323.189	0.01574	0.00053
193	323.606	0.01581	0.00053
193	324.051	0.01583	0.00053
194	340.732	0.01765	0.00059
194	340.94	0.0174	0.0006
194	341.164	0.01722	0.00058
194	341.398	0.01707	0.00057
194	341.64	0.01696	0.00057
194	341.912	0.01763	0.00059
194	342.264	0.01748	0.00058
194	342.647	0.01771	0.00059
194	343.057	0.01766	0.00059
194	343.484	0.01763	0.00059
194	341.912	0.01763	0.00059
194	342.264	0.01748	0.00058
194	342.647	0.01771	0.00059
194	343.057	0.01766	0.00059
194	343.484	0.01763	0.00059
197	331.65	0.01629	0.00055
197	331.907	0.01618	0.00054
197	333.736	0.01673	0.00056
197	334.194	0.01672	0.00056
197	333.736	0.01673	0.00056
197	334.194	0.01672	0.00056
198	331.187	0.01658	0.00056
198	331.415	0.01638	0.00055
198	332.167	0.01612	0.00054
198	332.516	0.0166	0.00056
198	332.897	0.01664	0.00056
198	333.306	0.01672	0.00056
198	332.516	0.0166	0.00056
198	332.897	0.01664	0.00056
198	333.306	0.01672	0.00056
199	281.371	0.01253	0.00043
199	281.599	0.01245	0.00043
199	282.954	0.01234	0.00042
199	283.369	0.01232	0.00042
199	282.954	0.01234	0.00042
199	283.369	0.01232	0.00042
200	281.84	0.01237	0.00042
200	282.1	0.01234	0.00042
200	282.364	0.0123	0.0004
200	282.581	0.01226	0.00042
200	283.81	0.01236	0.00042
200	284.262	0.01238	0.00042
200	311.429	0.01495	0.0005
200	311.655	0.01482	0.0005
200	311.889	0.0147	0.0005
200	312.143	0.01462	0.00049
200	312.402	0.01456	0.00049
200	312.615	0.0149	0.0005
200	312.98	0.01488	0.0005
200	313.388	0.01487	0.0005
200	313.807	0.01496	0.0005
200	314.255	0.01496	0.0005
200	282.581	0.01226	0.00042
200	283.81	0.01236	0.00042
200	284.262	0.01238	0.00042
200	312.615	0.0149	0.0005
200	312.98	0.01488	0.0005
200	313.388	0.01487	0.0005
200	313.807	0.01496	0.0005
200	314.255	0.01496	0.0005
201	301.48	0.01405	0.00048
201	301.704	0.01393	0.00047
201	301.95	0.01381	0.00047
201	302.201	0.01376	0.00047
201	302.464	0.01371	0.00046
201	303.063	0.01387	0.00047
201	303.458	0.01405	0.00048
201	303.89	0.01411	0.00048
201	304.339	0.01397	0.00047
201	303.063	0.01387	0.00047
201	303.458	0.01405	0.00048
201	303.89	0.01411	0.00048
201	304.339	0.01397	0.00047
231	292.025	0.01307	0.00044
231	293.85	0.01317	0.00045
231	293.85	0.01317	0.00045
232	291.761	0.01312	0.00045
233	293.406	0.01314	0.00045
233	293.406	0.01314	0.00045
234	291.512	0.01316	0.00045
235	292.983	0.01313	0.00045
235	292.983	0.01313	0.00045
236	291.28	0.01323	0.00045
236	292.587	0.01303	0.00044
236	292.587	0.01303	0.00044
237	291.058	0.01331	0.00045
238	292.211	0.01305	0.00044
238	292.211	0.01305	0.00044
242	281.819	0.01258	0.00043
242	282.059	0.01258	0.00043
242	282.306	0.01258	0.00043
242	283.299	0.01229	0.00042
242	283.731	0.01238	0.00042
242	284.179	0.01239	0.00042
242	283.299	0.01229	0.00042
242	283.731	0.01238	0.00042
242	284.179	0.01239	0.00042
243	281.586	0.01263	0.00043
243	282.902	0.01231	0.00042
243	282.902	0.01231	0.00042
244	281.371	0.01266	0.00043
245	282.519	0.01231	0.00042
245	282.519	0.01231	0.00042
267	302.989	0.01402	0.00047
270	302.741	0.01405	0.00048
273	302.507	0.01407	0.00048
278	302.278	0.01416	0.00048
280	283.256	0.01243	0.00042
280	283.638	0.0125	0.00043
280	284.059	0.01255	0.00043
280	283.256	0.01243	0.00042
280	283.638	0.0125	0.00043
280	284.059	0.01255	0.00043
283	302.069	0.01426	0.00048
296	342.557	0.01736	0.00058
296	342.56	0.01734	0.00058
296	342.944	0.0174	0.00058
296	342.945	0.01739	0.00058
296	343.347	0.01753	0.00059
296	342.557	0.01736	0.00058
296	342.56	0.01734	0.00058
296	342.944	0.0174	0.00058
296	342.945	0.01739	0.00058
296	343.347	0.01753	0.00059
297	341.869	0.0174	0.00058
297	342.194	0.0174	0.00058
297	342.197	0.01731	0.00058
297	341.869	0.0174	0.00058
297	342.194	0.0174	0.00058
297	342.197	0.01731	0.00058
298	331.215	0.01665	0.00056
298	331.43	0.01653	0.00055
298	331.666	0.0164	0.0006
298	331.903	0.01635	0.00055
298	332.159	0.01629	0.00055
298	332.421	0.01634	0.00055
298	333.6	0.01659	0.00056
298	334.022	0.01661	0.00056
298	332.421	0.01634	0.00055
298	333.6	0.01659	0.00056
298	334.022	0.01661	0.00056
301	321.476	0.01576	0.00053
301	321.691	0.01571	0.00053
301	321.933	0.0156	0.0005
301	322.18	0.01554	0.00052
301	322.689	0.01554	0.00052
301	323.071	0.01559	0.00052
301	323.459	0.01566	0.00053
301	323.881	0.01569	0.00053
301	322.689	0.01554	0.00052
301	323.071	0.01559	0.00052
301	323.459	0.01566	0.00053
301	323.881	0.01569	0.00053
302	321.256	0.01598	0.00054
302	322.341	0.01575	0.00053
302	322.341	0.01575	0.00053
303	293.727	0.01311	0.00045
303	293.727	0.01311	0.00045
306	293.302	0.0131	0.00045
306	293.302	0.0131	0.00045
308	292.875	0.01303	0.00044
308	292.875	0.01303	0.00044
311	292.496	0.01305	0.00044
311	292.496	0.01305	0.00044
314	292.13	0.01299	0.00044
314	292.13	0.01299	0.00044
321	302.943	0.01444	0.00049
325	311.612	0.01511	0.00051
325	311.829	0.01504	0.00051
325	312.063	0.015	0.001
325	312.308	0.01497	0.0005
325	312.829	0.01474	0.0005
325	313.202	0.01472	0.0005
325	313.6	0.01477	0.0005
325	314.02	0.01482	0.0005
325	312.829	0.01474	0.0005
325	313.202	0.01472	0.0005
325	313.6	0.01477	0.0005
325	314.02	0.01482	0.0005
326	311.408	0.01522	0.00051
326	312.479	0.01471	0.0005
326	312.479	0.01471	0.0005
327	293.72	0.01313	0.00045
327	293.72	0.01313	0.00045
330	293.293	0.01314	0.00045
330	293.293	0.01314	0.00045
333	292.889	0.01312	0.00045
333	292.889	0.01312	0.00045
336	292.508	0.0131	0.00045
336	292.508	0.0131	0.00045
343	294.449	0.01318	0.00045
343	294.449	0.01318	0.00045
345	294.056	0.01312	0.00045
345	302.506	0.01391	0.00047
345	302.859	0.01388	0.00047
345	303.235	0.01392	0.00047
345	303.635	0.01394	0.00047
345	304.063	0.01397	0.00047
345	294.056	0.01312	0.00045
345	302.506	0.01391	0.00047
345	302.859	0.01388	0.00047
345	303.235	0.01392	0.00047
345	303.635	0.01394	0.00047
345	304.063	0.01397	0.00047
347	293.678	0.01318	0.00045
347	293.678	0.01318	0.00045
349	293.324	0.01317	0.00045
349	293.324	0.01317	0.00045
400	293.538	0.01316	0.00045
400	293.901	0.01318	0.00045
400	293.538	0.01316	0.00045
400	293.901	0.01318	0.00045
428	313.104	0.01481	0.0005
428	313.884	0.01479	0.0005
428	313.104	0.01481	0.0005
428	313.884	0.01479	0.0005
429	313.488	0.01476	0.0005
429	323.707	0.01566	0.00053
429	313.488	0.01476	0.0005
429	323.707	0.01566	0.00053
430	312.725	0.01467	0.0005
430	323.299	0.01563	0.00053
430	312.725	0.01467	0.0005
430	323.299	0.01563	0.00053
431	312.41	0.01481	0.0005
431	322.932	0.01557	0.00052
431	312.41	0.01481	0.0005
431	322.932	0.01557	0.00052
432	322.25	0.01554	0.00052
432	322.573	0.01556	0.00052
432	322.25	0.01554	0.00052
432	322.573	0.01556	0.00052
434	332.456	0.01674	0.00056
434	332.802	0.01674	0.00056
434	332.456	0.01674	0.00056
434	332.802	0.01674	0.00056
435	333.979	0.01662	0.00056
435	333.979	0.01662	0.00056
441	303.795	0.01404	0.00048
441	304.176	0.01406	0.00048
441	333.824	0.01653	0.00055
441	303.795	0.01404	0.00048
441	304.176	0.01406	0.00048
441	333.824	0.01653	0.00055
442	304.567	0.01401	0.00047
442	332.304	0.01671	0.00056
442	332.649	0.01674	0.00056
442	304.567	0.01401	0.00047
442	332.304	0.01671	0.00056
442	332.649	0.01674	0.00056
443	303.096	0.01398	0.00047
443	303.44	0.01405	0.00048
443	303.096	0.01398	0.00047
443	303.44	0.01405	0.00048
444	333.006	0.01648	0.00055
444	333.006	0.01648	0.00055
449	341.771	0.01756	0.00059
449	341.771	0.01756	0.00059
450	341.767	0.01753	0.00059
450	342.089	0.0176	0.00059
450	342.095	0.01757	0.00059
450	342.424	0.01758	0.00059
450	342.789	0.01763	0.00059
450	341.767	0.01753	0.00059
450	342.089	0.0176	0.00059
450	342.095	0.01757	0.00059
450	342.424	0.01758	0.00059
450	342.789	0.01763	0.00059
451	342.426	0.01761	0.00059
451	342.791	0.01763	0.00059
451	342.426	0.01761	0.00059
451	342.791	0.01763	0.00059
514	304.526	0.01408	0.00048
514	304.571	0.0141	0.00048
514	304.526	0.01408	0.00048
514	304.571	0.0141	0.00048
515	303.092	0.01405	0.00048
515	303.422	0.01408	0.00048
515	303.77	0.01408	0.00048
515	303.82	0.01409	0.00048
515	304.144	0.01407	0.00048
515	303.092	0.01405	0.00048
515	303.422	0.01408	0.00048
515	303.77	0.01408	0.00048
515	303.82	0.01409	0.00048
515	304.144	0.01407	0.00048
581	312.252	0.01478	0.0005
581	312.252	0.01478	0.0005
582	312.571	0.01477	0.0005
582	312.571	0.01477	0.0005
584	312.918	0.01483	0.0005
584	332.708	0.0167	0.00056
584	312.918	0.01483	0.0005
584	332.708	0.0167	0.00056
585	313.274	0.01483	0.0005
585	323.547	0.01566	0.00053
585	332.38	0.01673	0.00056
585	313.274	0.01483	0.0005
585	323.547	0.01566	0.00053
585	332.38	0.01673	0.00056
586	313.665	0.01487	0.0005
586	323.176	0.01563	0.00053
586	313.665	0.01487	0.0005
586	323.176	0.01563	0.00053
587	322.821	0.01562	0.00053
587	322.821	0.01562	0.00053
588	322.482	0.01563	0.00053
588	322.482	0.01563	0.00053
598	332.754	0.01664	0.00056
598	332.754	0.01664	0.00056
600	332.429	0.0167	0.00056
600	332.429	0.0167	0.00056
666	343.073	0.01736	0.00058
666	343.073	0.01736	0.00058
667	343.08	0.01735	0.00058
667	343.08	0.01735	0.00058
668	342.715	0.01733	0.00058
668	342.715	0.01733	0.00058
669	342.363	0.01728	0.00058
669	342.363	0.01728	0.00058
670	342.374	0.01729	0.00058
670	342.374	0.01729	0.00058
671	342.04	0.01723	0.00058
671	342.04	0.01723	0.00058
673	341.724	0.01756	0.00059
673	341.749	0.01724	0.00058
673	341.724	0.01756	0.00059
673	341.749	0.01724	0.00058
707	323.364	0.01574	0.00053
707	323.364	0.01574	0.00053
710	323.005	0.01574	0.00053
710	323.005	0.01574	0.00053
713	322.647	0.01571	0.00053
713	322.647	0.01571	0.00053
715	322.32	0.01567	0.00053
715	322.32	0.01567	0.00053
717	322.009	0.01564	0.00053
717	322.009	0.01564	0.00053
813	332.326	0.0168	0.00056
813	332.635	0.01684	0.00056
813	332.972	0.01681	0.00056
813	332.326	0.0168	0.00056
813	332.635	0.01684	0.00056
813	332.972	0.01681	0.00056
856	323.233	0.01588	0.00053
856	323.233	0.01588	0.00053
858	322.887	0.01585	0.00053
858	322.887	0.01585	0.00053
859	322.545	0.01582	0.00053
859	322.545	0.01582	0.00053
861	322.233	0.01583	0.00053
861	322.233	0.01583	0.00053
862	321.936	0.01585	0.00053
862	343.052	0.01767	0.00059
862	321.936	0.01585	0.00053
862	343.052	0.01767	0.00059
863	343.045	0.0177	0.00059
863	343.045	0.0177	0.00059
864	342.711	0.01769	0.00059
864	342.711	0.01769	0.00059
865	342.717	0.01767	0.00059
865	342.717	0.01767	0.00059
866	342.382	0.01767	0.00059
866	342.382	0.01767	0.00059
867	342.393	0.01765	0.00059
867	342.393	0.01765	0.00059
868	333.256	0.01661	0.00056
868	342.09	0.01764	0.00059
868	333.256	0.01661	0.00056
868	342.09	0.01764	0.00059
870	342.083	0.01766	0.00059
870	342.083	0.01766	0.00059
871	332.907	0.01664	0.00056
871	332.907	0.01664	0.00056
882	323.262	0.01587	0.00053
882	323.262	0.01587	0.00053
884	322.912	0.01588	0.00053
884	322.912	0.01588	0.00053
886	322.58	0.01586	0.00053
886	322.58	0.01586	0.00053
889	322.273	0.01589	0.00053
889	322.273	0.01589	0.00053
1043	343.321	0.01783	0.00032
1043	343.321	0.01783	0.00032
1044	342.971	0.01783	0.00032
1044	342.981	0.01784	0.00032
1044	342.971	0.01783	0.00032
1044	342.981	0.01784	0.00032
1045	342.644	0.01782	0.00032
1045	342.644	0.01782	0.00032
1046	342.642	0.01782	0.00032
1046	342.642	0.01782	0.00032
1047	342.326	0.01784	0.00032
1047	342.326	0.01784	0.00032
1048	342.327	0.01781	0.00032
1048	342.327	0.01781	0.00032
1049	342.036	0.01784	0.00032
1049	342.036	0.01784	0.00032
1050	342.037	0.01784	0.00032
1050	342.037	0.01784	0.00032
1075	333.461	0.01692	0.0003
1075	333.461	0.01692	0.0003
1077	333.114	0.0169	0.0003
1077	333.114	0.0169	0.0003
1079	332.788	0.01686	0.0003
1079	332.788	0.01686	0.0003
1082	332.474	0.01688	0.0003
1082	332.474	0.01688	0.0003
1084	332.18	0.01688	0.0003
1084	332.18	0.01688	0.0003
1165	333.423	0.01702	0.0003
1165	333.423	0.01702	0.0003
1166	332.174	0.01695	0.0003
1166	332.46	0.01705	0.00031
1166	332.758	0.01708	0.00031
1166	333.079	0.01705	0.00031
1166	332.174	0.01695	0.0003
1166	332.46	0.01705	0.00031
1166	332.758	0.01708	0.00031
1166	333.079	0.01705	0.00031
1249	342.56	0.01814	0.00032
1249	342.56	0.01814	0.00032
1250	342.254	0.01811	0.00032
1250	342.254	0.01811	0.00032
1251	341.972	0.01812	0.00032
1251	341.972	0.01812	0.00032
1255	343.245	0.01787	0.00032
1255	343.245	0.01787	0.00032
1260	342.591	0.01776	0.00032
1260	342.591	0.01776	0.00032
1405	343.161	0.01819	0.00032
1405	343.161	0.01819	0.00032
1411	342.546	0.01807	0.00032
1411	342.546	0.01807	0.00032
1414	342.265	0.01822	0.00032
1414	342.265	0.01822	0.00032
1416	341.835	0.01808	0.00032
1416	341.835	0.01808	0.00032

System: trans-1,3,3,3-tetrafluoropropene; phases: Liquid
Property: Thermal conductivity, W/m/K (Liquid); method: Hot wire method
Pressure, kPa	Temperature, K	Thermal conductivity, W/m/K	uncertainty
424	283.154	0.0789	0.00088
425	283.043	0.07934	0.00088
428	282.628	0.07955	0.00088
431	282.541	0.07937	0.00088
434	282.143	0.07983	0.00089
438	282.07	0.07934	0.00088
445	281.699	0.08035	0.00092
458	281.268	0.08057	0.0009
461	221.659	0.10314	0.00115
463	221.761	0.10362	0.00113
464	222.057	0.10216	0.00111
465	222.188	0.10301	0.00112
468	222.654	0.10272	0.00112
469	223.176	0.10207	0.00111
470	222.499	0.10229	0.00111
470	222.996	0.1026	0.00111
474	223.75	0.10218	0.00111
488	262.03	0.08756	0.00096
488	262.417	0.08745	0.00096
488	262.558	0.08718	0.00096
488	262.977	0.08717	0.00095
488	263.157	0.08692	0.00095
488	263.592	0.08681	0.00095
488	263.802	0.08652	0.00095
489	261.482	0.08806	0.00097
489	261.565	0.0878	0.00096
489	261.913	0.08776	0.00096
491	281.193	0.08061	0.00089
586	241.995	0.09528	0.00104
603	241.661	0.09528	0.00104
614	241.561	0.09561	0.00105
615	243.173	0.09437	0.00103
619	242.468	0.095	0.00104
622	242.995	0.09406	0.00104
624	242.113	0.09501	0.00104
642	242.625	0.09474	0.00103
643	243.575	0.09442	0.00103
649	243.786	0.09402	0.00103
711	203.177	0.11065	0.0012
719	205.132	0.10884	0.00119
727	204.122	0.10984	0.00119
727	204.42	0.10997	0.00119
729	203.682	0.10998	0.00119
733	203.968	0.11023	0.00119
736	204.616	0.10937	0.00119
739	203.283	0.11034	0.00119
744	204.916	0.1095	0.00119
747	203.55	0.11041	0.0012
810	301.407	0.07351	0.00082
812	301.499	0.07342	0.00082
820	301.921	0.07315	0.00081
835	302.28	0.07308	0.00081
847	302.776	0.07298	0.00081
858	302.4	0.07303	0.00081
867	302.258	0.07328	0.00082
868	301.023	0.07405	0.00082
868	302.799	0.07244	0.00082
871	301.905	0.07331	0.00081
873	301.093	0.07375	0.00082
875	301.797	0.07346	0.00081
877	301.386	0.07371	0.00082
877	301.473	0.07359	0.00082
1065	322.79	0.06618	0.00074
1067	321.872	0.06647	0.00074
1067	322.38	0.06625	0.00074
1068	321.775	0.06659	0.00075
1068	322.252	0.06595	0.00074
1070	321.426	0.06675	0.00075
1071	321.354	0.06648	0.00075
1073	321.058	0.06692	0.00075
1074	321	0.06717	0.00076
1560	340.918	0.06043	0.00068
1561	340.855	0.06064	0.00069
1563	340.646	0.06068	0.00068
1563	341.128	0.06043	0.00068
1565	340.597	0.06077	0.00069
1573	341.201	0.06027	0.00068
1581	341.448	0.06025	0.00068
1585	341.543	0.05998	0.00068
1588	341.81	0.06	0.00068
3022	341.757	0.0618	0.0007
3025	341.498	0.06178	0.0007
3026	341.401	0.06202	0.0007
3028	341.172	0.06204	0.0007
3029	341.089	0.06217	0.0007
3031	340.878	0.06222	0.0007
3032	340.821	0.06247	0.00071
3034	340.626	0.06242	0.0007
3036	340.582	0.06257	0.0007
5172	341.584	0.06405	0.00072
5173	341.967	0.06395	0.00072
5174	341.153	0.06431	0.00072
5174	341.485	0.06424	0.00072
5175	341.072	0.06447	0.00073
5176	340.778	0.06447	0.00072
5177	340.727	0.06477	0.00073
5187	342.09	0.06375	0.00072
5291	263.769	0.08901	0.00098
5297	263.563	0.08933	0.00098
5298	261.93	0.09023	0.00099
5298	262.555	0.08972	0.00098
5299	263.13	0.08937	0.00098
5301	262.041	0.08998	0.00098
5301	262.419	0.08997	0.00098
5302	261.583	0.09026	0.00099
5304	242.92	0.09701	0.00106
5304	262.962	0.0897	0.00098
5306	261.505	0.09055	0.00099
5308	242.413	0.09704	0.00106
5308	242.557	0.09697	0.00106
5316	243.101	0.09673	0.00106
5317	243.711	0.09606	0.00105
5317	302.836	0.07599	0.00085
5318	241.525	0.09771	0.00107
5319	302.668	0.07625	0.00085
5325	241.62	0.09743	0.00106
5327	243.493	0.09667	0.00106
5328	241.945	0.0974	0.00106
5328	302.308	0.07627	0.00084
5336	302.17	0.0765	0.00085
5338	301.72	0.07673	0.00085
5339	242.059	0.097	0.00106
5339	301.831	0.07652	0.00085
5340	301.412	0.07676	0.00085
5341	301.326	0.07696	0.00085
5347	283.411	0.08183	0.0009
5351	282.937	0.08227	0.00091
5351	283.616	0.08173	0.0009
5352	282.325	0.08296	0.00091
5352	282.774	0.08245	0.00091
5352	321.858	0.07024	0.00078
5353	321.977	0.07002	0.00078
5355	281.274	0.08361	0.00092
5355	321.499	0.07013	0.00078
5357	322.371	0.07003	0.00078
5358	321.405	0.07043	0.00078
5360	321.081	0.07051	0.00078
5363	282.203	0.08314	0.00092
5363	321.008	0.07064	0.00079
5368	322.52	0.06983	0.00078
5372	281.802	0.08315	0.00091
5376	322.942	0.06973	0.00078
5379	281.707	0.08327	0.00091
5380	281.342	0.08336	0.00092
5404	222.077	0.10494	0.00114
5431	221.763	0.10481	0.00114
5436	222.191	0.10455	0.00114
5442	322.354	0.07009	0.00078
5442	322.91	0.06937	0.00078
5443	322.746	0.07003	0.00079
5446	321.869	0.07039	0.00078
5447	322.236	0.07031	0.00078
5449	321.443	0.07064	0.00079
5449	321.768	0.07051	0.00078
5451	321.371	0.07074	0.00079
5467	222.496	0.105	0.00114
5467	222.652	0.10461	0.00113
5469	221.672	0.10467	0.00114
5475	223.516	0.10495	0.00114
5476	223.164	0.10425	0.00113
5478	222.987	0.10376	0.00113
5485	223.726	0.10399	0.00113
5515	205.102	0.1111	0.0012
5522	203.175	0.11245	0.00122
5524	204.896	0.11148	0.00121
5526	203.543	0.11218	0.00121
5527	203.673	0.11176	0.00121
5531	203.285	0.11204	0.00121
5532	204.41	0.11177	0.00121
5536	203.962	0.11193	0.00121
5538	204.11	0.1115	0.00121
5544	204.592	0.11141	0.0012
8113	342.559	0.06632	0.00074
8117	342.401	0.06658	0.00074
8119	342.004	0.06663	0.00074
8122	341.884	0.06684	0.00075
8125	341.524	0.0669	0.00075
8129	341.421	0.06706	0.00075
8133	341.102	0.06713	0.00075
8138	341.029	0.06739	0.00075
8139	340.746	0.06735	0.00075
8190	342.458	0.06655	0.00074
8193	342.064	0.0666	0.00074
8199	340.748	0.06725	0.00075
8199	341.938	0.0668	0.00075
8202	340.8	0.06713	0.00075
8204	341.081	0.06709	0.00076
8204	341.581	0.06619	0.00074
8206	341.16	0.06693	0.00076
10232	321.877	0.07374	0.00082
10233	321.421	0.07383	0.00082
10233	321.765	0.07335	0.00081
10233	322.802	0.07327	0.00081
10234	322.398	0.07347	0.00082
10235	321.322	0.07406	0.00083
10235	322.246	0.0737	0.00082
10238	321.013	0.07408	0.00082
10241	320.946	0.07419	0.00082
10264	302.772	0.079	0.00087
10265	302.127	0.07959	0.00088
10265	302.614	0.07929	0.00088
10266	302.259	0.07933	0.00088
10267	301.399	0.07978	0.00088
10267	301.695	0.07986	0.00088
10267	301.805	0.07952	0.00088
10268	301.316	0.07996	0.00088
10277	283.326	0.08464	0.00094
10279	283.525	0.08429	0.00093
10282	281.32	0.08605	0.00094
10284	281.762	0.08598	0.00094
10284	282.862	0.08516	0.00094
10286	281.253	0.08621	0.00094
10286	282.144	0.08591	0.00094
10287	282.705	0.0852	0.00094
10288	282.282	0.08566	0.00094
10293	222.498	0.1066	0.00115
10355	241.901	0.09967	0.00108
10369	241.59	0.0996	0.00108
10370	222.181	0.10667	0.00116
10375	242.017	0.09936	0.00108
10375	242.359	0.09945	0.00108
10379	241.494	0.09991	0.00109
10385	242.854	0.09922	0.00108
10391	242.501	0.09913	0.00108
10393	243.419	0.09892	0.00108
10394	223.145	0.10613	0.00116
10395	243.044	0.09886	0.00107
10402	243.634	0.09852	0.00107
10404	261.883	0.09272	0.00101
10407	222.491	0.10723	0.00116
10408	223.701	0.10576	0.00115
10410	221.764	0.10677	0.00116
10410	261.553	0.09274	0.00101
10411	222.639	0.10645	0.00115
10412	261.996	0.0925	0.00101
10413	222.972	0.10651	0.00116
10413	261.471	0.09305	0.00102
10415	263.48	0.09186	0.001
10416	222.061	0.10706	0.00116
10416	262.356	0.09243	0.00101
10416	262.888	0.0922	0.00101
10416	263.065	0.09188	0.001
10416	263.679	0.09153	0.001
10417	262.494	0.09221	0.00101
10437	204.882	0.11311	0.00122
10439	223.488	0.10545	0.00115
10456	205.086	0.11267	0.00122
10459	203.18	0.11401	0.00123
10465	204.398	0.11334	0.00123
10469	203.544	0.11374	0.00123
10470	203.955	0.11361	0.00123
10473	203.282	0.11369	0.00123
10473	204.572	0.11301	0.00122
10474	204.106	0.11332	0.00123
10483	203.671	0.11347	0.00123
10573	221.881	0.10694	0.00116
10660	222.299	0.10659	0.00115
12116	342.982	0.06939	0.00077
12118	342.581	0.06949	0.00077
12120	342.425	0.06971	0.00078
12122	342.041	0.06981	0.00078
12126	341.917	0.06996	0.00078
12127	341.579	0.07002	0.00079
12128	341.484	0.07023	0.00079
12132	341.169	0.07036	0.00078
12136	341.101	0.07037	0.00078
15223	281.216	0.08878	0.00097
15223	282.214	0.08817	0.00096
15226	281.72	0.08837	0.00097
15228	282.637	0.08812	0.00097
15228	283.438	0.08686	0.00096
15230	281.288	0.0886	0.00097
15232	281.63	0.08862	0.00097
15232	282.789	0.0878	0.00096
15235	283.231	0.08758	0.00097
15321	322.897	0.07653	0.00085
15322	322.344	0.0768	0.00086
15322	322.728	0.07671	0.00085
15324	321.315	0.07738	0.00087
15324	322.201	0.07701	0.00087
15325	321.853	0.077	0.00086
15326	321.394	0.07727	0.00086
15326	321.728	0.07718	0.00085
15328	321.004	0.07747	0.00086
15330	320.948	0.07758	0.00086
15332	203.184	0.1155	0.00126
15343	204.102	0.11464	0.00124
15354	203.295	0.11516	0.00126
15357	203.953	0.11495	0.00124
15367	242.025	0.10137	0.0011
15368	241.6	0.10143	0.00111
15371	203.547	0.11529	0.00125
15372	242.498	0.10115	0.0011
15372	322.253	0.07646	0.00086
15376	242.862	0.10113	0.0011
15378	242.355	0.10152	0.0011
15379	204.386	0.11463	0.00124
15379	241.506	0.10178	0.00111
15379	321.894	0.07673	0.00085
15381	204.556	0.11454	0.00124
15383	243.024	0.10089	0.0011
15385	243.401	0.10105	0.0011
15386	241.909	0.10157	0.0011
15389	321.775	0.07714	0.00086
15392	203.67	0.1149	0.00124
15397	243.604	0.10063	0.00109
15398	320.998	0.07709	0.00085
15400	321.063	0.07715	0.00085
15400	321.446	0.07716	0.00085
15404	321.359	0.0766	0.00088
15407	205.063	0.11429	0.00123
15409	204.865	0.11472	0.00124
15419	303.223	0.08081	0.00089
15420	303.03	0.08154	0.00091
15424	302.056	0.08252	0.00091
15424	302.522	0.08203	0.00091
15424	302.675	0.08166	0.00091
15425	301.738	0.08254	0.00091
15430	301.638	0.0828	0.00091
15433	301.271	0.08285	0.00091
15435	301.348	0.08267	0.00092
15436	301.358	0.08267	0.00092
15438	301.283	0.08293	0.00102
15438	301.75	0.08085	0.00089
15440	302.909	0.08218	0.0009
15441	302.428	0.08206	0.00091
15446	263.001	0.0942	0.00103
15447	263.402	0.0942	0.00103
15449	261.517	0.09503	0.00104
15452	262.446	0.09456	0.00103
15453	261.846	0.09507	0.00104
15453	261.96	0.09468	0.00103
15455	262.839	0.09447	0.00103
15455	263.601	0.09401	0.00103
15456	261.443	0.09523	0.00104
15456	262.316	0.09473	0.00103
15715	223.55	0.10811	0.00117
15721	221.761	0.10892	0.00118
15723	222.148	0.10876	0.00118
15726	221.858	0.10866	0.00118
15726	222.271	0.10852	0.00118
15727	223.044	0.10831	0.00117
15728	223.218	0.108	0.00117
15729	223.765	0.10773	0.00117
15730	222.716	0.10821	0.00117
15731	222.574	0.10853	0.00117
16352	343.025	0.07225	0.0008
16357	342.85	0.07241	0.0008
16363	342.456	0.07249	0.0008
16372	342.325	0.07244	0.0008
16381	341.961	0.07254	0.0008
16385	341.843	0.0727	0.00081
16388	341.512	0.07271	0.00081
16390	341.423	0.07285	0.00081
16392	341.116	0.07302	0.00081
16393	341.056	0.07294	0.00081
20059	342.275	0.07476	0.00083
20063	341.919	0.07481	0.00083
20066	341.807	0.07498	0.00083
20072	341.475	0.07503	0.00083
20073	342.783	0.07479	0.00083
20076	341.395	0.07508	0.00083
20077	342.961	0.07456	0.00083
20086	341.101	0.07523	0.00083
20095	341.038	0.07528	0.00083
20203	281.684	0.09077	0.00099
20208	281.59	0.09091	0.00099
20215	282.582	0.09057	0.00099
20222	282.057	0.09082	0.00099
20222	283.169	0.08992	0.00099
20224	282.17	0.09064	0.00099
20227	282.73	0.09025	0.00099
20230	283.349	0.08937	0.00099
20239	281.259	0.09104	0.001
20251	281.193	0.09143	0.001
20693	243.588	0.1027	0.00111
20695	243.017	0.10293	0.00112
20699	243.386	0.10317	0.00112
20701	242.85	0.10317	0.00112
20702	241.522	0.10424	0.00113
20709	241.612	0.1038	0.00113
20709	242.36	0.10349	0.00113
20710	241.914	0.10392	0.00113
20712	242.503	0.10336	0.00112
20714	242.033	0.10365	0.00113
20780	203.291	0.11688	0.00126
20781	203.555	0.11695	0.00127
20782	203.184	0.11727	0.00127
20820	203.674	0.11665	0.00128
20822	203.942	0.11681	0.00126
20832	204.096	0.11645	0.00126
20839	204.378	0.11663	0.00126
20849	204.556	0.11627	0.00126
20860	204.852	0.11644	0.00126
20874	205.046	0.11599	0.00125
21000	303.502	0.08483	0.00093
21003	302.995	0.08496	0.00093
21005	302.836	0.08503	0.00093
21010	302.376	0.0851	0.00094
21022	302.234	0.08536	0.00094
21026	301.709	0.08586	0.00094
21030	301.321	0.08586	0.00094
21035	301.816	0.08546	0.00094
21041	301.248	0.08609	0.00095
21214	262.794	0.0972	0.00106
21219	263.356	0.09681	0.00106
21219	263.546	0.09652	0.00105
21223	262.417	0.09713	0.00106
21225	262.959	0.09681	0.00105
21227	261.928	0.09748	0.00106
21229	262.287	0.09748	0.00106
21233	261.829	0.09783	0.00107
21238	261.434	0.09804	0.00107
21243	261.515	0.09768	0.00106
21421	223.504	0.11014	0.00119
21423	222.537	0.11065	0.0012
21432	222.682	0.11029	0.00119
21432	223.709	0.10977	0.00119
21441	222.123	0.11089	0.0012
21442	222.239	0.1106	0.0012
21443	223.175	0.11005	0.00119
21446	222.999	0.11043	0.0012
21448	221.839	0.11081	0.0012
21449	221.744	0.11109	0.0012
21602	322.863	0.08015	0.00088
21605	322.7	0.08035	0.00089
21607	322.324	0.08044	0.00089
21613	322.194	0.0806	0.00089
21616	321.741	0.08084	0.00089
21616	321.85	0.08065	0.00089
21621	321.427	0.08087	0.00089
21627	321.341	0.08112	0.00089
21630	321.058	0.08106	0.00089
21637	320.995	0.08122	0.00089
21968	341.086	0.07668	0.00085
21974	341.147	0.07662	0.00085
21977	342.43	0.07598	0.00084
21978	342.806	0.07589	0.00084
21978	342.974	0.07571	0.00084
21979	341.436	0.07653	0.00085
21979	341.949	0.07618	0.00084
21979	342.295	0.07611	0.00084
21981	341.519	0.07638	0.00085
21982	341.844	0.07632	0.00084
23287	281.572	0.09254	0.00101
23293	281.248	0.09262	0.00101
23299	282.035	0.09237	0.00101
23303	282.694	0.09187	0.001
23304	282.149	0.09213	0.00101
23307	281.665	0.09249	0.00101
23312	282.543	0.09188	0.001
23323	283.131	0.0916	0.001

System: 2,3,3,3-tetrafluoro-1-propene; phases: Liquid, Gas
Property: Thermal conductivity, W/m/K (Liquid); method: Hot wire method
Temperature, K	Thermal conductivity, W/m/K	uncertainty
243.15	0.081887	0.000529
253.15	0.078359	0.000515
263.15	0.07493	0.0005
273.15	0.071592	0.000487
283.15	0.068334	0.000474
293.15	0.065151	0.000462
303.15	0.062036	0.000449
313.15	0.058994	0.000437
323.15	0.056055	0.000425
333.15	0.053294	0.000414
343.15	0.050907	0.000404

System: 2,3,3,3-tetrafluoro-1-propene; phases: Gas
Property: Thermal conductivity, W/m/K (Gas); method: Hot wire method
Pressure, kPa	Temperature, K	Thermal conductivity, W/m/K	uncertainty
68	242.545	0.00927	0.00033
68	242.906	0.0093	0.00033
69	241.939	0.00942	0.00033
69	242.194	0.00931	0.00033
69	242.467	0.00926	0.00033
69	243.315	0.00933	0.00033
69	243.754	0.00935	0.00033
69	244.223	0.00937	0.00033
76	242.537	0.00929	0.00033
77	241.952	0.00944	0.00033
77	242.896	0.00929	0.00033
77	243.299	0.0093	0.00033
78	242.204	0.00934	0.00033
78	242.475	0.00926	0.00033
78	243.73	0.00931	0.00033
78	244.197	0.00935	0.00033
86	241.966	0.00944	0.00033
86	243.275	0.00928	0.00033
86	243.699	0.00931	0.00033
86	244.16	0.00935	0.00033
86	281.66	0.01256	0.00043
86	283.329	0.01249	0.00043
87	242.219	0.00935	0.00033
87	242.495	0.00928	0.00033
87	242.518	0.00925	0.00032
87	242.875	0.00926	0.00033
87	281.893	0.01239	0.00042
87	282.924	0.01242	0.00042
88	282.128	0.01231	0.00042
88	283.753	0.0125	0.00043
89	284.198	0.01254	0.00043
90	282.38	0.01224	0.00042
91	282.642	0.01218	0.00042
91	284.67	0.01256	0.00043
93	263.414	0.01084	0.00037
94	262.867	0.01103	0.00038
94	263.104	0.01092	0.00038
94	263.356	0.01083	0.00037
94	263.757	0.01087	0.00038
94	264.132	0.01089	0.00038
94	264.546	0.01091	0.00038
94	264.989	0.01095	0.00038
95	301.411	0.01419	0.00048
95	301.644	0.01403	0.00047
95	301.884	0.01395	0.00047
95	302.145	0.01385	0.00047
95	302.415	0.01379	0.00047
95	302.78	0.01418	0.00048
95	303.622	0.01418	0.00048
95	304.069	0.01428	0.00048
95	304.548	0.01429	0.00048
97	311.207	0.01495	0.0005
97	311.437	0.01475	0.0005
97	311.917	0.01463	0.00049
97	312.183	0.01458	0.00049
97	312.568	0.01511	0.00051
97	312.967	0.01513	0.00051
97	313.833	0.01516	0.00051
97	314.295	0.01518	0.00051
98	311.67	0.01469	0.0005
98	313.386	0.01515	0.00051
100	251.398	0.0102	0.00035
100	251.644	0.01009	0.00035
100	251.908	0.01002	0.00035
100	251.933	0.00998	0.00035
100	252.281	0.01003	0.00035
100	252.672	0.01006	0.00035
100	253.086	0.01007	0.00035
100	253.526	0.0101	0.00035
101	331.069	0.01664	0.00056
101	331.288	0.0165	0.00055
101	331.529	0.01639	0.00055
101	332.952	0.01705	0.00057
101	333.376	0.01705	0.00057
102	331.776	0.01632	0.00055
102	332.035	0.01627	0.00055
102	332.553	0.01703	0.00057
102	333.832	0.0171	0.00057
102	334.309	0.01716	0.00057
102	341.279	0.01759	0.00059
102	341.491	0.01745	0.00058
102	342.749	0.01803	0.0006
102	343.146	0.01805	0.0006
102	343.561	0.01807	0.0006
103	321.313	0.01573	0.00053
103	321.541	0.01562	0.00052
103	321.782	0.01553	0.00052
103	322.042	0.01545	0.00052
103	322.33	0.01529	0.00051
103	322.813	0.01605	0.00054
103	323.218	0.01607	0.00054
103	323.65	0.01611	0.00054
103	324.121	0.01612	0.00054
103	324.618	0.01618	0.00054
103	341.725	0.01734	0.00058
103	341.964	0.01726	0.00058
103	342.211	0.01718	0.00057
103	343.996	0.01811	0.0006
103	344.461	0.01816	0.00061
104	272.289	0.01154	0.0004
104	273.866	0.01165	0.0004
105	272.041	0.01163	0.0004
105	273.445	0.01163	0.0004
106	271.813	0.01176	0.0004
106	273.038	0.01162	0.0004
107	272.673	0.01162	0.0004
108	272.338	0.01153	0.0004
109	291.152	0.01341	0.00046
109	291.369	0.01324	0.00045
109	291.599	0.01311	0.00045
109	291.848	0.01303	0.00044
109	292.102	0.01299	0.00044
109	292.361	0.0132	0.00045
109	292.74	0.01324	0.00045
109	293.145	0.01331	0.00045
109	293.573	0.01327	0.00045
109	294.027	0.01333	0.00045
121	251.41	0.01025	0.00036
121	251.651	0.01014	0.00035
121	251.899	0.00997	0.00035
121	251.906	0.01007	0.00035
121	252.231	0.00999	0.00035
121	253.009	0.01006	0.00035
121	253.447	0.01008	0.00035
122	252.604	0.01002	0.00035
129	251.419	0.01024	0.00036
129	251.658	0.01016	0.00035
129	251.917	0.01009	0.00035
129	253.001	0.01005	0.00035
129	253.426	0.01006	0.00035
130	251.908	0.01	0.00035
130	252.234	0.00999	0.00035
130	252.6	0.01	0.00035
137	263.349	0.01093	0.00038
138	264.832	0.01094	0.00038
139	263.103	0.01099	0.00038
140	264.412	0.01091	0.00038
141	262.87	0.01112	0.00038
141	264.026	0.01087	0.00038
141	272.3	0.01161	0.0004
142	273.764	0.01165	0.0004
143	263.661	0.01082	0.00037
143	272.051	0.0117	0.0004
144	271.824	0.01183	0.00041
144	273.354	0.01162	0.0004
145	263.329	0.01079	0.00037
145	272.971	0.0116	0.0004
146	272.604	0.01157	0.0004
148	272.29	0.01151	0.0004
176	263.339	0.01103	0.00038
177	264.745	0.01092	0.00038
178	263.1	0.01109	0.00038
179	264.342	0.01089	0.00038
180	262.869	0.01121	0.00039
181	263.966	0.01086	0.00038
184	263.611	0.01083	0.00037
186	263.297	0.01073	0.00037
196	282.605	0.01241	0.00042
197	284.311	0.01245	0.00043
198	282.352	0.01243	0.00042
199	283.876	0.01243	0.00042
199	301.388	0.01436	0.00049
199	301.619	0.0142	0.00048
199	301.855	0.0141	0.00048
199	302.106	0.01401	0.00047
199	302.366	0.01396	0.00047
199	302.563	0.01413	0.00048
199	302.934	0.01415	0.00048
199	303.329	0.01417	0.00048
199	303.762	0.01415	0.00048
199	304.204	0.0142	0.00048
199	342.018	0.01743	0.00058
199	342.268	0.01735	0.00058
199	344.23	0.01797	0.0006
200	271.828	0.01195	0.00041
200	272.039	0.01186	0.00041
200	272.239	0.01151	0.0004
200	272.276	0.01178	0.0004
200	272.542	0.01154	0.0004
200	272.89	0.01156	0.0004
200	273.262	0.0116	0.0004
200	273.639	0.0116	0.0004
200	282.112	0.0125	0.00043
200	311.192	0.01522	0.00051
200	311.407	0.01508	0.00051
200	311.645	0.01494	0.0005
200	311.886	0.01484	0.0005
200	312.144	0.01477	0.0005
200	312.355	0.01491	0.0005
200	312.717	0.01494	0.0005
200	313.107	0.01497	0.0005
200	313.526	0.015	0.00051
200	321.314	0.01591	0.00053
200	321.543	0.01577	0.00053
200	321.787	0.01566	0.00053
200	322.032	0.0156	0.00052
200	322.294	0.01556	0.00052
200	323.002	0.01592	0.00053
200	323.403	0.01592	0.00053
200	323.832	0.01593	0.00053
200	324.289	0.01599	0.00054
200	341.56	0.01761	0.00059
200	341.786	0.0175	0.00058
200	343.397	0.01785	0.0006
200	343.804	0.0179	0.0006
201	283.463	0.01238	0.00042
201	313.964	0.01503	0.00051
201	322.636	0.01586	0.00053
201	341.349	0.01779	0.00059
201	342.634	0.01782	0.00059
201	343.006	0.01784	0.0006
202	281.882	0.01259	0.00043
202	331.088	0.01678	0.00056
202	331.303	0.0167	0.00056
202	331.541	0.01658	0.00056
202	331.784	0.0165	0.00055
202	332.043	0.01642	0.00055
202	332.38	0.0168	0.00056
202	332.753	0.01687	0.00056
202	333.15	0.01686	0.00056
202	333.568	0.01692	0.00057
202	334.016	0.01695	0.00057
203	283.075	0.01237	0.00042
204	281.657	0.01278	0.00044
204	282.71	0.0124	0.00042
238	292.069	0.01328	0.00045
239	293.7	0.01323	0.00045
240	291.827	0.01331	0.00045
241	293.284	0.01321	0.00045
242	291.594	0.01339	0.00045
243	292.884	0.01315	0.00045
244	291.372	0.01349	0.00046
245	292.51	0.01312	0.00045
246	272.216	0.01157	0.0004
246	291.168	0.01364	0.00046
247	272.845	0.01156	0.0004
247	273.194	0.01159	0.0004
248	273.576	0.01163	0.0004
253	274.203	0.01169	0.0004
255	273.818	0.01165	0.0004
258	273.459	0.01159	0.0004
261	273.137	0.01159	0.0004
263	272.84	0.01161	0.0004
271	272.218	0.01155	0.0004
272	272.498	0.01161	0.0004
272	272.828	0.0116	0.0004
273	273.172	0.01162	0.0004
274	273.55	0.01163	0.0004
298	311.394	0.01522	0.00051
298	311.605	0.01516	0.00051
298	311.844	0.01507	0.00051
298	312.09	0.01504	0.00051
298	312.245	0.01491	0.0005
298	312.582	0.01491	0.0005
298	312.963	0.01498	0.0005
298	313.358	0.01497	0.0005
298	313.784	0.01501	0.00051
299	331.123	0.01699	0.00057
299	331.337	0.01685	0.00056
299	332.309	0.01673	0.00056
299	332.673	0.01675	0.00056
299	333.041	0.01681	0.00056
300	331.562	0.01677	0.00056
300	331.796	0.0167	0.00056
300	332.047	0.01662	0.00056
300	333.446	0.01686	0.00056
300	333.868	0.01688	0.00056
302	321.312	0.01608	0.00054
302	321.541	0.01588	0.00053
302	321.762	0.01587	0.00053
302	322.006	0.01579	0.00053
302	322.254	0.01579	0.00053
302	322.509	0.01582	0.00053
302	322.878	0.01585	0.00053
302	323.277	0.0159	0.00053
302	323.694	0.01592	0.00053
302	324.105	0.01598	0.00054
302	341.817	0.01766	0.00059
302	342.05	0.01758	0.00059
302	342.29	0.0175	0.00058
302	342.914	0.01773	0.00059
302	343.293	0.01776	0.00059
302	343.686	0.01781	0.00059
302	344.089	0.01783	0.00059
303	341.389	0.01795	0.0006
303	341.597	0.01775	0.00059
303	342.562	0.01766	0.00059
308	282.607	0.01242	0.00042
309	282.942	0.01248	0.00043
309	283.3	0.01244	0.00042
309	283.685	0.01251	0.00043
309	284.096	0.01245	0.00043
342	292.101	0.01323	0.00045
342	292.428	0.01327	0.00045
343	292.781	0.01325	0.00045
343	293.147	0.01331	0.00045
343	293.548	0.01331	0.00045
349	303.927	0.01413	0.00048
350	302.385	0.01405	0.00048
350	302.74	0.01409	0.00048
350	303.105	0.01412	0.00048
350	303.508	0.01407	0.00048
395	282.56	0.01244	0.00042
395	283.976	0.01256	0.00043
396	282.873	0.01251	0.00043
396	283.218	0.01252	0.00043
396	283.588	0.01244	0.00042
408	312.488	0.01491	0.0005
408	312.846	0.01492	0.0005
408	313.227	0.01499	0.00051
409	312.161	0.0149	0.0005
409	313.622	0.01501	0.00051
428	292.727	0.01333	0.00045
428	293.078	0.01323	0.00045
428	293.461	0.01337	0.00045
429	292.387	0.01328	0.00045
432	292.067	0.01333	0.00045
453	322.726	0.01585	0.00053
453	323.103	0.0159	0.00053
453	323.492	0.01593	0.00053
453	323.91	0.01589	0.00053
454	322.382	0.01579	0.00053
458	342.663	0.01768	0.00059
458	343.024	0.0177	0.00059
459	342.324	0.01763	0.00059
459	343.408	0.01776	0.00059
459	343.801	0.0178	0.00059
460	333.295	0.01681	0.00056
460	333.693	0.01685	0.00056
461	332.917	0.01677	0.00056
463	332.555	0.01674	0.00056
465	332.215	0.01667	0.00056
509	303.31	0.01414	0.00048
509	303.708	0.0142	0.00048
510	302.257	0.01411	0.00048
510	302.591	0.01416	0.00048
510	302.94	0.01416	0.00048
532	293.375	0.01333	0.00045
536	293.03	0.01339	0.00045
538	292.674	0.01326	0.00045
605	342.258	0.01764	0.00059
606	343.293	0.01775	0.00059
606	343.675	0.0178	0.00059
607	313.014	0.01512	0.00051
608	312.657	0.01506	0.00051
608	313.384	0.01508	0.00051
610	312.006	0.01499	0.00051
610	312.314	0.01511	0.00051
612	323.733	0.01601	0.00054
614	323.341	0.01597	0.00054
616	322.978	0.01592	0.00053
617	322.276	0.01584	0.00053
617	322.621	0.01591	0.00053
624	333.562	0.01687	0.00056
625	333.178	0.01682	0.00056
626	332.464	0.01677	0.00056
626	332.814	0.01677	0.00056
627	332.127	0.01673	0.00056
634	302.824	0.01428	0.00048
635	302.478	0.01423	0.00048
638	303.173	0.01429	0.00048
638	303.55	0.01428	0.00048
648	302.16	0.0142	0.00048
672	313.34	0.01515	0.00051
673	312.621	0.01513	0.00051
673	312.973	0.01511	0.00051
675	312.297	0.01513	0.00051
676	311.987	0.01501	0.00051
718	323.657	0.01605	0.00054
719	323.274	0.016	0.00054
720	322.564	0.01597	0.00054
720	322.912	0.01599	0.00054
721	322.242	0.01595	0.00054
809	343.549	0.01783	0.0006
810	343.187	0.0178	0.00059
812	342.827	0.01775	0.00059
813	342.5	0.01767	0.00059
814	342.188	0.0177	0.00059
817	333.414	0.01696	0.00057
818	333.052	0.01692	0.00057
819	332.694	0.0169	0.00057
820	332.362	0.01686	0.00056
821	332.057	0.01681	0.00056
858	323.547	0.01618	0.00054
859	323.178	0.01617	0.00054
860	322.82	0.01612	0.00054
861	322.495	0.01614	0.00054
862	322.179	0.0161	0.00054
872	313.149	0.01537	0.00052
873	312.797	0.01537	0.00052
875	312.46	0.01532	0.00052
876	312.153	0.01537	0.00052
877	311.865	0.01518	0.00051
937	343.554	0.01797	0.0006
938	343.197	0.0179	0.0006
939	342.54	0.01779	0.00059
939	342.863	0.01784	0.0006
945	343.483	0.01791	0.0006
946	343.12	0.01784	0.0006
948	342.785	0.01785	0.0006
949	342.469	0.01781	0.00059
951	342.169	0.01775	0.00059
956	323.464	0.01625	0.00055
957	323.113	0.01622	0.00054
958	322.447	0.01621	0.00054
958	322.762	0.01622	0.00054
959	322.142	0.01623	0.00054
972	332.957	0.01706	0.00057
972	333.306	0.01708	0.00057
973	332.619	0.01704	0.00057
974	332.296	0.01699	0.00057
975	331.997	0.01697	0.00057
1071	333.257	0.0172	0.00031
1072	332.906	0.01718	0.00031
1073	332.582	0.01716	0.00031
1074	332.27	0.01714	0.00031
1075	331.979	0.01717	0.00031
1093	343.489	0.01807	0.00032
1094	343.141	0.01802	0.00032
1095	342.818	0.01798	0.00032
1096	342.496	0.01796	0.00032
1114	322.668	0.01646	0.0003
1114	323.014	0.01647	0.0003
1115	321.754	0.0164	0.0003
1115	322.044	0.01641	0.0003
1115	322.351	0.01644	0.0003
1199	322.11	0.01674	0.0003
1199	322.39	0.01671	0.0003
1199	322.686	0.01673	0.0003
1199	322.997	0.01678	0.0003
1199	323.334	0.01671	0.0003
1232	333.14	0.01741	0.00031
1233	332.484	0.01739	0.00031
1233	332.81	0.01741	0.00031
1235	332.19	0.01737	0.00031
1236	331.905	0.01732	0.00031
1239	343.429	0.01822	0.00032
1240	343.095	0.01819	0.00032
1241	342.78	0.01818	0.00032
1242	342.474	0.01809	0.00032
1384	333.036	0.0177	0.00031
1385	332.709	0.0177	0.00031
1386	332.411	0.01772	0.00032
1388	332.119	0.01774	0.00032
1389	331.855	0.0177	0.00031
1401	343.351	0.01847	0.00033
1402	343.031	0.01843	0.00033
1403	342.717	0.01842	0.00033
1404	342.429	0.01834	0.00032
1405	342.157	0.01818	0.00032
1511	331.796	0.01797	0.00032
1511	332.054	0.01807	0.00032
1511	332.329	0.01806	0.00032
1511	332.619	0.01806	0.00032
1511	332.914	0.01803	0.00032
1570	343.21	0.01879	0.00033
1571	342.894	0.01877	0.00033
1572	342.61	0.01878	0.00033
1573	342.337	0.01875	0.00033
1574	342.072	0.01854	0.00033
1733	343.118	0.0192	0.00034
1734	342.826	0.01925	0.00034
1735	342.554	0.01923	0.00034
1736	342.289	0.01924	0.00034
1737	342.035	0.0191	0.00034
1840	343.062	0.01962	0.00034
1841	342.519	0.01962	0.00034
1841	342.784	0.01962	0.00034
1842	342.027	0.01945	0.00034
1842	342.267	0.01963	0.00034
1903	342.289	0.01966	0.00034
1903	342.769	0.01985	0.00035
1903	343.034	0.01984	0.00035
1904	342.034	0.01996	0.00035
1904	342.267	0.01971	0.00034
1904	342.508	0.01989	0.00035
1904	342.525	0.01982	0.00035
1904	342.792	0.01984	0.00035
1904	343.064	0.01984	0.00035

System: 2,3,3,3-tetrafluoro-1-propene; phases: Liquid
Property: Thermal conductivity, W/m/K (Liquid); method: Hot wire method
Pressure, kPa	Temperature, K	Thermal conductivity, W/m/K	uncertainty
830	283.526	0.06815	0.00077
832	282.933	0.06832	0.00076
832	283.303	0.06845	0.00076
834	282.755	0.06855	0.00076
838	281.36	0.06988	0.00082
841	281.461	0.06981	0.00083
841	282.233	0.06878	0.00077
841	282.397	0.06858	0.00076
843	281.895	0.06853	0.00078
855	283.555	0.06813	0.00078
857	283.33	0.0685	0.00076
859	281.793	0.06833	0.00077
859	282.958	0.06843	0.00076
860	281.379	0.06977	0.00085
860	282.773	0.06866	0.00077
861	281.927	0.06844	0.00077
861	304.236	0.06192	0.0007
861	304.495	0.06141	0.00072
862	281.481	0.06968	0.00086
863	303.581	0.06214	0.0007
863	303.798	0.06166	0.00069
864	282.412	0.0687	0.00077
864	303.159	0.0621	0.0007
865	302.578	0.06226	0.0007
865	302.978	0.0622	0.0007
866	282.256	0.06872	0.00077
867	302.061	0.06223	0.0007
868	301.95	0.06212	0.0007
868	302.434	0.06253	0.0007
880	242.005	0.08218	0.00091
883	242.342	0.08243	0.00091
886	242.475	0.08219	0.0009
891	242.846	0.08226	0.0009
892	242.999	0.082	0.0009
894	243.382	0.08224	0.0009
898	243.574	0.08198	0.0009
898	243.982	0.08174	0.0009
900	244.214	0.08153	0.0009
977	263.594	0.0751	0.00083
978	263.829	0.07472	0.00084
981	262.948	0.07547	0.00083
981	263.144	0.07525	0.00083
983	261.964	0.07514	0.00084
984	262.514	0.07532	0.00083
987	261.84	0.07643	0.00085
990	262.366	0.0754	0.00084
992	261.478	0.07655	0.00085
995	261.384	0.07662	0.00085
996	261.399	0.07661	0.00085
996	261.477	0.07656	0.00089
999	262.378	0.07563	0.00084
1000	262.968	0.07554	0.00084
1002	263.612	0.07516	0.00083
1003	262.529	0.0754	0.00083
1003	263.835	0.0748	0.00084
1005	261.973	0.07519	0.00084
1006	263.146	0.07526	0.00083
1447	321.816	0.05704	0.00065
1447	323.344	0.05607	0.00066
1448	323.134	0.05646	0.00064
1449	321.457	0.05663	0.00065
1449	321.558	0.05669	0.00064
1449	321.946	0.05672	0.00064
1450	322.22	0.05677	0.00064
1450	322.655	0.05654	0.00064
1450	322.839	0.05629	0.00064
1451	322.372	0.05654	0.00064
2090	343.987	0.05015	0.00058
2091	343.723	0.05023	0.00058
2092	343.395	0.05007	0.00058
2093	343.17	0.05051	0.00059
2094	342.664	0.05079	0.00058
2096	342.342	0.05065	0.00058
2098	342.187	0.05099	0.00058
2100	341.893	0.05083	0.00059
2101	341.766	0.05131	0.00059
5174	343.767	0.05432	0.00065
5176	343.214	0.05461	0.00062
5176	343.532	0.05477	0.00062
5178	343.008	0.05499	0.00063
5181	342.522	0.05511	0.00063
5181	342.695	0.05482	0.00062
5183	342.218	0.05512	0.00063
5185	342.083	0.0553	0.00063
5187	341.799	0.05524	0.00063
5189	341.693	0.05547	0.00063
5724	304.389	0.06553	0.00077
5725	303.127	0.06595	0.00074
5727	302.446	0.06616	0.00074
5727	302.58	0.06624	0.00074
5727	302.958	0.06618	0.00074
5727	303.731	0.06571	0.00073
5727	304.148	0.06587	0.00074
5728	302.09	0.0658	0.00074
5728	303.526	0.06591	0.00074
5731	301.981	0.06593	0.00074
5763	282.399	0.07193	0.0008
5763	282.743	0.07185	0.0008
5763	283.281	0.07184	0.0008
5764	282.26	0.07204	0.0008
5765	282.923	0.07169	0.0008
5765	283.492	0.07154	0.00081
5767	281.93	0.07189	0.00081
5779	281.414	0.07285	0.00083
5779	281.506	0.07276	0.00083
6082	243.935	0.08438	0.00093
6084	243.349	0.08459	0.00093
6085	241.917	0.08525	0.00094
6086	242.828	0.08481	0.00093
6086	242.982	0.08445	0.00093
6087	242.346	0.08514	0.00093
6087	242.465	0.08483	0.00093
6087	243.534	0.0843	0.00092
6088	242.015	0.08496	0.00093
6088	244.16	0.08418	0.00092
6306	263.113	0.07818	0.00086
6308	262.506	0.07834	0.00086
6308	262.933	0.07833	0.00086
6309	261.499	0.07953	0.0009
6309	262.361	0.0784	0.00086
6310	263.552	0.07796	0.00086
6311	261.412	0.07964	0.00089
6311	261.969	0.07846	0.00087
6312	263.768	0.07776	0.00086
6313	261.852	0.07948	0.00089
6351	323.087	0.06135	0.00069
6351	323.281	0.06102	0.00069
6353	322.633	0.06144	0.00069
6353	322.801	0.06127	0.00069
6358	322.37	0.06119	0.00069
6361	322.224	0.06113	0.00069
6367	321.968	0.06142	0.00069
8186	343.577	0.0576	0.00067
8188	343.358	0.05795	0.00066
8190	343.047	0.05781	0.00065
8191	342.857	0.05808	0.00066
8193	342.56	0.05802	0.00066
8195	342.4	0.05822	0.00066
8197	342.112	0.05815	0.00066
8198	341.7	0.05823	0.00066
8198	341.975	0.05827	0.00066
8202	341.598	0.05839	0.00066
10741	304.332	0.069	0.00078
10744	304.097	0.06936	0.00077
10745	303.697	0.06899	0.00077
10746	303.126	0.06929	0.00077
10746	303.508	0.06924	0.00077
10747	302.96	0.06954	0.00077
10751	302.598	0.06953	0.00077
10752	302.029	0.06904	0.00078
10752	302.127	0.06936	0.00078
10752	302.468	0.06961	0.00077
10934	281.945	0.07471	0.00084
10934	283.453	0.07455	0.00084
10935	281.827	0.07514	0.00085
10935	282.264	0.07477	0.00083
10935	282.402	0.07479	0.00083
10936	283.245	0.07481	0.00083
10938	282.895	0.07473	0.00083
10939	281.541	0.07609	0.00091
10939	282.735	0.07487	0.00083
10941	281.445	0.07602	0.00087
10976	241.924	0.08707	0.00096
10979	244.113	0.08646	0.00096
10980	243.896	0.0868	0.00095
10981	242.013	0.08718	0.00096
10983	243.503	0.08672	0.00095
10985	242.337	0.08732	0.00096
10985	242.955	0.08695	0.00095
10986	242.813	0.08711	0.00095
10987	243.321	0.08693	0.00095
10989	242.466	0.08709	0.00095
11126	323.081	0.06485	0.00073
11126	323.262	0.06472	0.00073
11128	322.81	0.06487	0.00073
11130	322.657	0.06486	0.00073
11134	322.394	0.06479	0.00073
11135	322.015	0.06547	0.00074
11135	322.264	0.06468	0.00073
11443	264.424	0.08017	0.00088
11444	262.899	0.08074	0.00089
11445	261.866	0.08189	0.00093
11445	262.347	0.08085	0.00089
11446	261.974	0.0813	0.00091
11446	262.493	0.08082	0.00089
11446	263.511	0.08071	0.00089
11446	264.182	0.08043	0.00089
11447	263.083	0.08051	0.00089
11448	263.717	0.08052	0.00089
12104	343.411	0.06108	0.00069
12105	343.199	0.06126	0.00069
12107	342.905	0.06122	0.00069
12110	342.728	0.06135	0.00069
12111	342.283	0.06144	0.00069
12112	342.44	0.06137	0.00069
12114	342.009	0.06141	0.00069
12117	341.88	0.06141	0.00069
12120	341.625	0.06114	0.00069
12122	341.52	0.06134	0.00069
15749	243.32	0.0891	0.00097
15750	242.811	0.08896	0.00097
15753	242.016	0.08918	0.00098
15753	243.872	0.08885	0.00097
15754	242.458	0.08876	0.00097
15756	242.942	0.08889	0.00097
15756	243.472	0.08884	0.00097
15757	242.34	0.08916	0.00098
15757	244.067	0.08866	0.00097
15764	241.931	0.08965	0.00099
15949	282.901	0.07751	0.00086
15950	281.98	0.07767	0.00086
15950	283.241	0.07752	0.00086
15951	282.735	0.07763	0.00086
15951	283.426	0.07738	0.00085
15954	282.268	0.07706	0.00085
15954	282.414	0.07738	0.00085
15962	283.462	0.07733	0.00085
15963	283.263	0.07747	0.00086
15964	282.006	0.07708	0.00085
15964	282.766	0.07774	0.00086
15964	282.927	0.07755	0.00086
15965	282.309	0.0773	0.00086
15967	282.443	0.07756	0.00086
16011	304.295	0.07229	0.00081
16013	303.687	0.0724	0.0008
16014	304.073	0.07249	0.0008
16015	303.495	0.07239	0.0008
16018	302.974	0.07247	0.0008
16018	303.129	0.0723	0.0008
16020	302.624	0.0724	0.0008
16021	302.182	0.0724	0.0008
16022	302.495	0.07296	0.00081
16026	302.08	0.07261	0.0008
16390	323.972	0.068	0.00076
16392	323.754	0.06817	0.00076
16393	323.341	0.06817	0.00076
16394	322.759	0.06823	0.00076
16396	322.603	0.06784	0.00076
16396	323.149	0.06821	0.00076
16399	322.153	0.06904	0.0008
16399	322.262	0.06856	0.0008
16435	262.348	0.08308	0.00091
16435	264.375	0.08267	0.00091
16436	263.678	0.08284	0.00091
16439	263.055	0.0831	0.00091
16440	264.136	0.08287	0.00091
16441	262.487	0.08301	0.00091
16441	262.887	0.0831	0.00091
16441	263.473	0.08318	0.00091
17149	343.246	0.06474	0.00073
17151	343.053	0.06493	0.00073
17154	342.769	0.06488	0.00073
17155	342.603	0.06501	0.00073
17157	342.325	0.06503	0.00073
17158	342.183	0.06504	0.00073
17160	341.92	0.06488	0.00073
17162	341.801	0.0647	0.00073
17165	341.454	0.0645	0.00072
17165	341.553	0.06461	0.00073
20546	304.278	0.07468	0.00083
20550	303.155	0.07489	0.00083
20551	304.072	0.07457	0.00082
20552	303.509	0.07485	0.00083
20552	303.699	0.07462	0.00083
20553	303.006	0.07485	0.00083
20555	302.661	0.07461	0.00083
20560	302.541	0.07444	0.00083
20585	282.814	0.07986	0.00088
20587	282.66	0.07986	0.00088
20587	283.257	0.07981	0.00088
20590	282.245	0.0797	0.00088
20590	283.449	0.07959	0.00088
20590	283.927	0.07977	0.00088
20592	284.147	0.07943	0.00089
20954	243.839	0.09109	0.00099
20966	243.296	0.09102	0.001
20976	242.803	0.09105	0.00099
20980	242.348	0.09106	0.001
20987	241.95	0.09158	0.00101
21009	243.847	0.09114	0.001
21014	243.293	0.09132	0.001
21021	242.805	0.09106	0.001
21022	242.349	0.09102	0.00099
21259	324	0.07084	0.00079
21262	323.795	0.07093	0.00079
21264	323.397	0.07095	0.00079
21266	323.229	0.07101	0.00079
21270	322.842	0.07095	0.00079
21274	322.709	0.0708	0.00079
21276	322.364	0.07119	0.00082
21278	322.25	0.07192	0.00083
21622	264.327	0.08504	0.00094
21625	263.449	0.0853	0.00094
21626	264.096	0.08524	0.00093
21628	263.647	0.08509	0.00093
21629	263.038	0.08528	0.00093
21630	262.484	0.08542	0.00094
21632	262.352	0.08538	0.00094
21632	262.874	0.08568	0.00094
21635	261.983	0.08614	0.00098
21642	261.883	0.0867	0.00099
21706	343.252	0.06757	0.00075
21708	342.785	0.06775	0.00076
21708	343.058	0.06763	0.00075
21712	342.626	0.06777	0.00076
21715	342.36	0.06785	0.00076
21716	342.222	0.0677	0.00076
21718	341.964	0.06759	0.00075
21720	341.853	0.06741	0.00075
21724	341.614	0.06756	0.00075
21726	341.523	0.06742	0.00075
