Measured thermophysical data. Vapor Liquid Equilibria of Binary Mixtures Containing 2-Butanol and Hydrocarbons at 313.15 K
Source: J. Chem. Eng. Data, 2012, 10.1021/je201284y
Compound 1: butan-2-ol, C4H10O, InChI=1S/C4H10O/c1-3-4(2)5/h4-5H,3H2,1-2H3, purity 99.9%
Compound 2: heptane, C7H16, InChI=1S/C7H16/c1-3-5-7-6-4-2/h3-7H2,1-2H3, purity 99.8%
Compound 3: cyclohexane, C6H12, InChI=1S/C6H12/c1-2-4-6-5-3-1/h1-6H2, purity 99.9%
Compound 4: toluene, C7H8, InChI=1S/C7H8/c1-7-5-3-2-4-6-7/h2-6H,1H3, purity 99.9%
Compound 5: 2,2,4-trimethylpentane, C8H18, InChI=1S/C8H18/c1-7(2)6-8(3,4)5/h7H,6H2,1-5H3, purity 99.7%
Compound 6: dodecane, C12H26, InChI=1S/C12H26/c1-3-5-7-9-11-12-10-8-6-4-2/h3-12H2,1-2H3, purity 99.7%

System: butan-2-ol; phases: Liquid, Gas
Fixed: Temperature, K = 313.15
Property: Vapor or sublimation pressure, kPa (Liquid); method: Closed cell (Static) method
Vapor or sublimation pressure, kPa	uncertainty
6.061	0.035
6.057	0.035
6.06	0.035
6.058	0.035
6.055	0.035

System: heptane; phases: Liquid, Gas
Property: Vapor or sublimation pressure, kPa (Liquid); method: Closed cell (Static) method
Temperature, K	Vapor or sublimation pressure, kPa	uncertainty
313.15	12.327	0.055

System: cyclohexane; phases: Liquid, Gas
Property: Vapor or sublimation pressure, kPa (Liquid); method: Closed cell (Static) method
Temperature, K	Vapor or sublimation pressure, kPa	uncertainty
313.15	24.623	0.095

System: toluene; phases: Liquid, Gas
Property: Vapor or sublimation pressure, kPa (Liquid); method: Closed cell (Static) method
Temperature, K	Vapor or sublimation pressure, kPa	uncertainty
313.15	7.876	0.041

System: 2,2,4-trimethylpentane; phases: Liquid, Gas
Property: Vapor or sublimation pressure, kPa (Liquid); method: Closed cell (Static) method
Temperature, K	Vapor or sublimation pressure, kPa	uncertainty
313.15	12.962	0.058

System: dodecane; phases: Liquid, Gas
Property: Vapor or sublimation pressure, kPa (Liquid); method: Closed cell (Static) method
Temperature, K	Vapor or sublimation pressure, kPa	uncertainty
313.15	0.059	0.01

System: butan-2-ol + heptane; phases: Liquid, Gas
Fixed: Temperature, K = 313.15
Property: Vapor or sublimation pressure, kPa (Liquid); method: Closed cell (Static) method
Mole fraction of butan-2-ol	Vapor or sublimation pressure, kPa	uncertainty
0	12.327	0.055
0.0492	14.175	0.062
0.1001	14.612	0.063
0.1477	14.758	0.063
0.1989	14.832	0.063
0.2505	14.848	0.063
0.2996	14.826	0.063
0.3397	14.788	0.063
0.3998	14.696	0.063
0.3999	14.694	0.063
0.4495	14.588	0.063
0.45	14.581	0.063
0.4993	14.453	0.062
0.4999	14.457	0.062
0.5498	14.283	0.062
0.55	14.277	0.062
0.6001	14.06	0.061
0.6004	14.061	0.061
0.6502	13.789	0.06
0.7005	13.431	0.059
0.7571	12.891	0.057
0.8004	12.334	0.055
0.8505	11.464	0.053
0.9003	10.259	0.049
0.9501	8.544	0.044
1	6.061	0.035

System: butan-2-ol + cyclohexane; phases: Liquid, Gas
Fixed: Temperature, K = 313.15
Property: Vapor or sublimation pressure, kPa (Liquid); method: Closed cell (Static) method
Mole fraction of butan-2-ol	Vapor or sublimation pressure, kPa	uncertainty
0	24.623	0.095
0.0498	26.004	0.1
0.0999	26.172	0.1
0.1501	26.134	0.1
0.2002	26.021	0.1
0.2499	25.835	0.099
0.3002	25.586	0.098
0.35	25.295	0.097
0.4	24.953	0.096
0.4003	24.933	0.096
0.4502	24.554	0.095
0.4503	24.553	0.095
0.5002	24.08	0.093
0.5004	24.093	0.093
0.5502	23.537	0.092
0.5506	23.537	0.092
0.6001	22.862	0.089
0.6006	22.862	0.089
0.6508	22.028	0.087
0.7009	21.001	0.083
0.7508	19.716	0.079
0.8007	18.105	0.074
0.8504	16.089	0.068
0.9001	13.498	0.06
0.9497	10.221	0.051
1	6.057	0.035

System: butan-2-ol + toluene; phases: Liquid, Gas
Fixed: Temperature, K = 313.15
Property: Vapor or sublimation pressure, kPa (Liquid); method: Closed cell (Static) method
Mole fraction of butan-2-ol	Vapor or sublimation pressure, kPa	uncertainty
0	7.876	0.041
0.0494	8.994	0.044
0.0986	9.528	0.046
0.1492	9.801	0.047
0.1991	9.952	0.047
0.2485	10.037	0.048
0.2985	10.089	0.048
0.3486	10.104	0.048
0.3983	10.097	0.048
0.3987	10.102	0.048
0.4485	10.069	0.048
0.4487	10.077	0.048
0.4983	10.014	0.048
0.4993	10.028	0.048
0.5484	9.937	0.047
0.5495	9.948	0.047
0.5985	9.839	0.047
0.5996	9.843	0.047
0.6491	9.705	0.047
0.699	9.526	0.046
0.7492	9.29	0.045
0.8002	8.98	0.044
0.8498	8.592	0.043
0.9016	8.072	0.041
0.9501	7.399	0.039
1	6.06	0.035

System: butan-2-ol + 2,2,4-trimethylpentane; phases: Liquid, Gas
Fixed: Temperature, K = 313.15
Property: Vapor or sublimation pressure, kPa (Liquid); method: Closed cell (Static) method
Mole fraction of butan-2-ol	Vapor or sublimation pressure, kPa	uncertainty
0	12.962	0.058
0.0494	14.744	0.064
0.1001	15.171	0.065
0.1493	15.323	0.065
0.1997	15.38	0.065
0.2494	15.384	0.065
0.2988	15.352	0.065
0.3493	15.29	0.065
0.3992	15.198	0.065
0.4003	15.2	0.065
0.4496	15.077	0.064
0.4504	15.076	0.064
0.4997	14.926	0.064
0.5003	14.927	0.064
0.5497	14.739	0.063
0.5506	14.738	0.063
0.5954	14.528	0.062
0.5997	14.509	0.062
0.6519	14.204	0.061
0.7006	13.832	0.06
0.7506	13.344	0.059
0.8007	12.672	0.056
0.8508	11.765	0.054
0.9002	10.505	0.05
0.9507	8.669	0.044
1	6.058	0.035

System: butan-2-ol + dodecane; phases: Liquid, Gas
Fixed: Temperature, K = 313.15
Property: Vapor or sublimation pressure, kPa (Liquid); method: Closed cell (Static) method
Mole fraction of butan-2-ol	Vapor or sublimation pressure, kPa	uncertainty
0	0.059	0.01
0.05	2.449	0.024
0.1006	3.208	0.026
0.149	3.601	0.027
0.1989	3.901	0.028
0.2489	4.138	0.029
0.2986	4.331	0.029
0.3489	4.498	0.03
0.3995	4.631	0.03
0.4102	4.658	0.03
0.4485	4.752	0.031
0.4488	4.763	0.031
0.499	4.875	0.031
0.5008	4.867	0.031
0.5494	4.977	0.031
0.5551	4.973	0.031
0.5996	5.073	0.032
0.6008	5.063	0.032
0.6504	5.149	0.032
0.7009	5.232	0.032
0.7504	5.324	0.032
0.8008	5.422	0.033
0.8508	5.534	0.033
0.9003	5.667	0.034
0.9505	5.837	0.034
1	6.055	0.035
