Measured thermophysical data. Odd Even Effects in the Static Dielectric Permittivity of a Homologous Series of Liquid Cycloalkanones, (CH2)n-1C-O, n = 4 to 8
Source: J. Chem. Eng. Data, 2011, 10.1021/je200682t
Compound 1: cyclobutanone, C4H6O, InChI=1S/C4H6O/c5-4-2-1-3-4/h1-3H2
Compound 2: cyclopentanone, C5H8O, InChI=1S/C5H8O/c6-5-3-1-2-4-5/h1-4H2
Compound 3: cyclohexanone, C6H10O, InChI=1S/C6H10O/c7-6-4-2-1-3-5-6/h1-5H2
Compound 4: cycloheptanone, C7H12O, InChI=1S/C7H12O/c8-7-5-3-1-2-4-6-7/h1-6H2
Compound 5: cyclooctanone, C8H14O, InChI=1S/C8H14O/c9-8-6-4-2-1-3-5-7-8/h1-7H2

System: cyclobutanone; phases: Liquid
Fixed: Pressure, kPa = 101.325
Property: Relative permittivity at zero frequency (Liquid); method: Parallel plate capacitor
Temperature, K	Relative permittivity at zero frequency	uncertainty
243.15	17.96	0.02
245.65	17.81	0.02
248.15	17.66	0.02
250.65	17.51	0.02
253.15	17.37	0.02
255.65	17.22	0.02
258.15	17.07	0.02
260.65	16.93	0.02
263.15	16.79	0.02
265.65	16.65	0.02
268.15	16.51	0.02
270.65	16.37	0.02
273.15	16.24	0.02
275.65	16.11	0.02
278.15	15.98	0.02
280.65	15.85	0.02
283.15	15.72	0.02
285.65	15.58	0.02
288.15	15.46	0.02
290.65	15.33	0.02
293.15	15.2	0.02
295.65	15.08	0.02
298.15	14.96	0.02
300.65	14.84	0.02
303.15	14.72	0.02
305.65	14.6	0.02
308.15	14.48	0.02
310.65	14.37	0.02
313.15	14.25	0.02

System: cyclopentanone; phases: Liquid
Fixed: Pressure, kPa = 101.325
Property: Relative permittivity at zero frequency (Liquid); method: Parallel plate capacitor
Temperature, K	Relative permittivity at zero frequency	uncertainty
243.15	15.66	0.04
245.65	15.56	0.04
248.15	15.46	0.04
250.65	15.36	0.04
253.15	15.26	0.04
255.65	15.15	0.04
258.15	15.05	0.04
260.65	14.95	0.04
263.15	14.85	0.04
265.65	14.75	0.04
268.15	14.65	0.04
270.65	14.55	0.04
273.15	14.45	0.04
275.65	14.35	0.04
278.15	14.25	0.04
280.65	14.15	0.04
283.15	14.06	0.04
285.65	13.96	0.04
288.15	13.86	0.04
290.65	13.77	0.04
293.15	13.67	0.04
295.65	13.58	0.04
298.15	13.49	0.04
300.65	13.39	0.04
303.15	13.3	0.04
305.65	13.22	0.04
308.15	13.13	0.04
310.65	13.04	0.04
313.15	12.95	0.04

System: cyclohexanone; phases: Liquid
Fixed: Pressure, kPa = 101.325
Property: Relative permittivity at zero frequency (Liquid); method: Parallel plate capacitor
Temperature, K	Relative permittivity at zero frequency	uncertainty
243.15	19.75	0.02
245.65	19.54	0.02
248.15	19.34	0.02
250.65	19.13	0.02
253.15	18.93	0.02
255.65	18.73	0.02
258.15	18.54	0.02
260.65	18.34	0.02
263.15	18.15	0.02
265.65	17.96	0.02
268.15	17.78	0.02
270.65	17.6	0.02
273.15	17.42	0.02
275.65	17.24	0.02
278.15	17.07	0.02
280.65	16.9	0.02
283.15	16.73	0.02
285.65	16.56	0.02
288.15	16.4	0.02
290.65	16.24	0.02
293.15	16.08	0.02
295.65	15.92	0.02
298.15	15.77	0.02
300.65	15.62	0.02
303.15	15.46	0.02
305.65	15.32	0.02
308.15	15.17	0.02
310.65	15.03	0.02
313.15	14.89	0.02

System: cycloheptanone; phases: Liquid
Fixed: Pressure, kPa = 101.325
Property: Relative permittivity at zero frequency (Liquid); method: Parallel plate capacitor
Temperature, K	Relative permittivity at zero frequency	uncertainty
245.65	15.35	0.02
248.15	15.22	0.02
250.65	15.09	0.02
253.15	14.97	0.02
255.65	14.85	0.02
258.15	14.72	0.02
260.65	14.57	0.02
263.15	14.47	0.02
265.65	14.36	0.02
268.15	14.25	0.02
270.65	14.14	0.02
273.15	14.03	0.02
275.65	13.91	0.02
278.15	13.8	0.02
280.65	13.69	0.02
283.15	13.58	0.02
285.65	13.46	0.02
288.15	13.35	0.02
290.65	13.25	0.02
293.15	13.14	0.02
295.65	13.03	0.02
298.15	12.92	0.02
300.65	12.82	0.02
303.15	12.72	0.02
305.65	12.62	0.02
308.15	12.51	0.02
310.65	12.41	0.02
313.15	12.32	0.02

System: cyclooctanone; phases: Liquid
Fixed: Pressure, kPa = 101.325
Property: Relative permittivity at zero frequency (Liquid); method: Parallel plate capacitor
Temperature, K	Relative permittivity at zero frequency	uncertainty
298.15	14.54	0.04
303.15	14.22	0.04
305.65	14.05	0.04
308.15	13.89	0.04
310.65	13.74	0.04
313.15	13.57	0.04
315.65	13.42	0.04
318.15	13.27	0.04
320.65	13.14	0.04
323.15	12.99	0.04
325.65	12.85	0.04
328.15	12.71	0.04
330.65	12.58	0.04
333.15	12.44	0.04
335.65	12.3	0.04
338.15	12.17	0.04
340.65	12.04	0.04
343.15	11.9	0.04
