Measured thermophysical data. Equilibrium Phase Densities, Vapor Phase Compositions, and Interfacial Tensions for the Methane + Ethane + n-Pentane System at 294.15 K
Source: J. Chem. Eng. Data, 2011, 10.1021/je200316w
Compound 1: methane, CH4, InChI=1S/CH4/h1H4, purity 99.9%
Compound 2: ethane, C2H6, InChI=1S/C2H6/c1-2/h1-2H3, purity 99.9%
Compound 3: pentane, C5H12, InChI=1S/C5H12/c1-3-5-4-2/h3-5H2,1-2H3, purity 99%

System: methane + ethane + pentane; phases: Liquid, Gas
Fixed: Temperature, K = 294.15
Property: Surface tension liquid-gas, N/m (Liquid); method: Pendant drop shape
Pressure, kPa	Mole fraction of ethane	Surface tension liquid-gas, N/m	uncertainty
1611	0.058	0.0128	0.0008
1869	0.0565	0.0126	0.0008
2025	0.0532	0.0124	0.0008
3596	0.0692	0.0099	0.0007
4066	0.0667	0.0093	0.0006
4354	0.0635	0.0088	0.0006
6395	0.0802	0.0059	0.0004
7021	0.0789	0.0051	0.0004
7762	0.0743	0.0043	0.0003

System: methane + ethane + pentane; phases: Liquid, Gas
Fixed: Temperature, K = 294.15
Property: Mass density, kg/m3 (Liquid); method: Vibrating tube method
Pressure, kPa	Mole fraction of ethane	Mass density, kg/m3	uncertainty
1611	0.058	606.1	8.6
1869	0.0565	603.3	8.6
2025	0.0532	601.8	8.6
3596	0.0692	582.6	8.7
4066	0.0667	577.3	8.7
4354	0.0635	574.4	8.6
6395	0.0802	544	11.1
7021	0.0789	544	29.9
7762	0.0743	525.5	10.9

System: methane + ethane + pentane; phases: Gas, Liquid
Fixed: Temperature, K = 294.15
Property: Mass density, kg/m3 (Gas); method: Vibrating tube method
Pressure, kPa	Mole fraction of ethane	Mass density, kg/m3	uncertainty
1611	0.058	13.6	8.8
1869	0.0565	15.5	8.8
2025	0.0532	16.9	8.8
3596	0.0692	30	8.8
4066	0.0667	34.1	8.8
4354	0.0635	36.9	8.8
6395	0.0802	58.7	8.8
7021	0.0789	65	9
7762	0.0743	73.8	8.8

System: methane + ethane + pentane; phases: Gas, Liquid
Fixed: Temperature, K = 294.15
Property: Mole fraction of ethane (Gas); method: Chromatography
Pressure, kPa	Mole fraction of methane	Mole fraction of ethane	uncertainty
1611	0.8946	0.058	0.0129
1869	0.9002	0.0565	0.0188
2025	0.9065	0.0532	0.0187
3596	0.9024	0.0692	0.0538
4066	0.906	0.0667	0.0359
4354	0.9098	0.0635	0.0361
6395	0.8937	0.0802	0.0318
7021	0.8943	0.0789	0.0318
7762	0.8976	0.0743	0.0508
