Measured thermophysical data. Vapor Liquid Equilibria and Interfacial Tensions of the System Ethanol + 2-Methoxy-2-methylbutane
Source: J. Chem. Eng. Data, 2011, 10.1021/je200215d
Compound 1: ethanol, C2H6O, InChI=1S/C2H6O/c1-2-3/h3H,2H2,1H3, purity 99.9%
Compound 2: 2-methoxy-2-methylbutane, C6H14O, InChI=1S/C6H14O/c1-5-6(2,3)7-4/h5H2,1-4H3, purity 99.7%

System: ethanol; phases: Liquid
Property: Refractive index (Na D-line) (Liquid); method: Standard Abbe refractometry
Temperature, K	Pressure, kPa	Refractive index (Na D-line)	uncertainty
298.15	101.325	1.36068	0.00072

System: ethanol; phases: Liquid
Property: Mass density, kg/m3 (Liquid); method: Vibrating tube method
Temperature, K	Pressure, kPa	Mass density, kg/m3	uncertainty
298.15	101.325	785.05	0.16

System: ethanol; phases: Liquid, Gas
Property: Surface tension liquid-gas, N/m (Liquid); method: Maximal bubble pressure
Temperature, K	Surface tension liquid-gas, N/m	uncertainty
298.15	0.0217	0.00023

System: ethanol; phases: Liquid, Gas
Property: Vapor or sublimation pressure, kPa (Liquid); method: Ebulliometric method (Recirculating still)
Temperature, K	Vapor or sublimation pressure, kPa	uncertainty
351.45	101.33	0.21

System: 2-methoxy-2-methylbutane; phases: Liquid
Property: Refractive index (Na D-line) (Liquid); method: Standard Abbe refractometry
Temperature, K	Pressure, kPa	Refractive index (Na D-line)	uncertainty
298.15	101.325	1.38712	0.00072

System: 2-methoxy-2-methylbutane; phases: Liquid
Property: Mass density, kg/m3 (Liquid); method: Vibrating tube method
Temperature, K	Pressure, kPa	Mass density, kg/m3	uncertainty
298.15	101.325	765.8	0.18

System: 2-methoxy-2-methylbutane; phases: Liquid, Gas
Property: Surface tension liquid-gas, N/m (Liquid); method: Maximal bubble pressure
Temperature, K	Surface tension liquid-gas, N/m	uncertainty
298.15	0.022	0.00023

System: 2-methoxy-2-methylbutane; phases: Liquid, Gas
Property: Vapor or sublimation pressure, kPa (Liquid); method: Ebulliometric method (Recirculating still)
Temperature, K	Vapor or sublimation pressure, kPa	uncertainty
359.52	101.33	0.21

System: ethanol + 2-methoxy-2-methylbutane; phases: Liquid, Gas
Fixed: Temperature, K = 303.15
Property: Surface tension liquid-gas, N/m (Liquid); method: Maximal bubble pressure
Mole fraction of ethanol	Surface tension liquid-gas, N/m	uncertainty
0	0.022	0.00026
0.04	0.02197	0.00026
0.071	0.02195	0.00026
0.137	0.02193	0.00026
0.198	0.0219	0.00026
0.252	0.02188	0.00026
0.303	0.02186	0.00026
0.41	0.02184	0.00026
0.508	0.02181	0.00026
0.611	0.02178	0.00026
0.708	0.02176	0.00026
0.803	0.02173	0.00026
0.898	0.02171	0.00026
1	0.0217	0.00026

System: ethanol + 2-methoxy-2-methylbutane; phases: Liquid, Gas
Property: Azeotropic temperature, K (Liquid); method: By T(X) extreme
Pressure, kPa	Azeotropic temperature, K	uncertainty
50	328.63	0.3
75	338.76	0.3
94	344.66	0.3

System: ethanol + 2-methoxy-2-methylbutane; phases: Liquid, Gas
Property: Azeotropic composition: mole fraction of ethanol (Liquid); method: By T or P extreme
Pressure, kPa	Azeotropic composition: mole fraction of ethanol	uncertainty
50	0.503	0.007
75	0.554	0.006
94	0.583	0.006

System: ethanol + 2-methoxy-2-methylbutane; phases: Liquid, Gas
Property: Boiling temperature at pressure P, K (Liquid); method: Ebulliometric method (Recirculating still)
Mole fraction of ethanol	Pressure, kPa	Boiling temperature at pressure P, K	uncertainty
0	50	337.44	0.12
0	75	349.59	0.15
0	94	356.84	0.16
0.039	94	353.67	0.21
0.041	75	346.63	0.19
0.042	50	334.86	0.16
0.078	94	351.3	0.18
0.079	75	344.48	0.17
0.081	50	333.02	0.14
0.114	94	349.73	0.16
0.117	75	343.01	0.15
0.118	50	331.78	0.12
0.166	94	348.13	0.15
0.167	75	341.63	0.14
0.171	50	330.68	0.11
0.21	75	340.64	0.14
0.21	94	346.99	0.15
0.215	50	329.88	0.11
0.257	94	346.32	0.14
0.259	75	340.06	0.13
0.26	50	329.41	0.11
0.319	94	345.64	0.14
0.322	75	339.44	0.13
0.324	50	328.99	0.1
0.37	94	345.25	0.13
0.373	75	339.16	0.13
0.376	50	328.8	0.1
0.416	94	345.05	0.13
0.419	75	338.99	0.13
0.422	50	328.72	0.1
0.467	94	344.89	0.13
0.469	75	338.89	0.13
0.471	50	328.66	0.1
0.523	94	344.81	0.13
0.525	75	338.84	0.12
0.528	50	328.66	0.1
0.576	75	338.83	0.12
0.577	94	344.78	0.13
0.578	50	328.7	0.1
0.629	75	338.89	0.12
0.63	94	344.81	0.13
0.631	50	328.87	0.1
0.678	94	344.85	0.13
0.679	75	339.01	0.12
0.681	50	329.1	0.1
0.728	75	339.1	0.12
0.729	50	329.39	0.1
0.729	94	345	0.13
0.778	75	339.48	0.12
0.779	94	345.33	0.13
0.78	50	329.83	0.1
0.829	50	330.43	0.1
0.829	75	340.12	0.12
0.83	94	345.79	0.12
0.879	75	340.65	0.12
0.88	94	346.37	0.13
0.881	50	331.25	0.1
0.931	94	347.35	0.14
0.932	75	341.74	0.13
0.933	50	332.42	0.11
1	50	334.57	0.1
1	75	344.02	0.11
1	94	349.56	0.12

System: ethanol + 2-methoxy-2-methylbutane; phases: Gas, Liquid
Property: Mole fraction of ethanol (Gas); method: Chromatography
Mole fraction of ethanol	Pressure, kPa	Mole fraction of ethanol	uncertainty
0	50	0	
0	75	0	
0	94	0	
0.039	94	0.132	0.006
0.041	75	0.133	0.006
0.042	50	0.132	0.006
0.078	94	0.222	0.005
0.079	75	0.223	0.005
0.081	50	0.216	0.005
0.114	94	0.279	0.004
0.117	75	0.281	0.004
0.118	50	0.276	0.004
0.166	94	0.342	0.004
0.167	75	0.341	0.004
0.171	50	0.33	0.004
0.21	75	0.38	0.004
0.21	94	0.384	0.004
0.215	50	0.361	0.004
0.257	94	0.419	0.004
0.259	75	0.41	0.004
0.26	50	0.394	0.004
0.319	94	0.456	0.005
0.322	75	0.446	0.004
0.324	50	0.425	0.004
0.37	94	0.484	0.005
0.373	75	0.472	0.005
0.376	50	0.449	0.004
0.416	94	0.505	0.005
0.419	75	0.493	0.005
0.422	50	0.47	0.005
0.467	94	0.527	0.005
0.469	75	0.514	0.005
0.471	50	0.492	0.005
0.523	94	0.553	0.004
0.525	75	0.54	0.005
0.528	50	0.517	0.005
0.576	75	0.564	0.004
0.577	94	0.578	0.004
0.578	50	0.539	0.005
0.629	75	0.59	0.004
0.63	94	0.604	0.004
0.631	50	0.566	0.004
0.678	94	0.629	0.004
0.679	75	0.616	0.004
0.681	50	0.595	0.004
0.728	75	0.646	0.004
0.729	50	0.622	0.004
0.729	94	0.66	0.004
0.778	75	0.68	0.004
0.779	94	0.696	0.004
0.78	50	0.659	0.004
0.829	50	0.704	0.004
0.829	75	0.726	0.004
0.83	94	0.738	0.004
0.879	75	0.78	0.004
0.88	94	0.791	0.004
0.881	50	0.762	0.004
0.931	94	0.86	0.004
0.932	75	0.855	0.004
0.933	50	0.845	0.005
1	50	1	
1	75	1	
1	94	1	
