Measured thermophysical data. Solubility of Urea in Acetonitrile Water Mixtures and Liquid Liquid Phase Separation of Urea-Saturated Acetonitrile Water Mixtures
Source: J. Chem. Eng. Data, 2011, 10.1021/je200122b
Compound 1: urea, CH4N2O, InChI=1S/CH4N2O/c2-1(3)4/h(H4,2,3,4), purity 99.5%
Compound 2: acetonitrile, C2H3N, InChI=1S/C2H3N/c1-2-3/h1H3, purity 99.9%
Compound 3: water, H2O, InChI=1S/H2O/h1H2, purity 99.99%

System: urea + acetonitrile + water; phases: Liquid, Crystal
Fixed: Temperature, K = 298.15
Fixed: Pressure, kPa = 101
Property: Mole fraction of urea (Liquid); method: Gravimetric
Mole fraction of acetonitrile	Mole fraction of urea	uncertainty
0	0.27	0.006
0.058	0.265	0.006
0.138	0.26	0.006
0.19	0.254	0.006
0.259	0.234	0.005
0.356	0.198	0.008
0.704	0.066	0.007
0.815	0.033	0.003
0.873	0.02	0.002
0.933	0.011	0.001
0.965	0.0067	0.0007
0.98	0.0052	0.0005
0.996	0.0037	0.0004

System: urea + acetonitrile + water; phases: Liquid mixture 1, Crystal, Liquid mixture 2
Fixed: Temperature, K = 298.15
Fixed: Pressure, kPa = 101
Property: Mole fraction of urea (Liquid mixture 1); method: Gravimetric
Mole fraction of urea	uncertainty
0.078	0.008
0.077	0.008
0.074	0.007
0.073	0.007

System: urea + acetonitrile + water; phases: Liquid mixture 2, Crystal, Liquid mixture 1
Fixed: Temperature, K = 298.15
Fixed: Pressure, kPa = 101
Property: Mole fraction of urea (Liquid mixture 2); method: Gravimetric
Mole fraction of urea	uncertainty
0.187	0.008
0.19	0.008
0.186	0.007
0.186	0.007

System: urea + acetonitrile + water; phases: Liquid mixture 1, Crystal, Liquid mixture 2
Fixed: Temperature, K = 298.15
Fixed: Pressure, kPa = 101
Property: Mole fraction of water (Liquid mixture 1); method: Titration method
Mole fraction of water	uncertainty
0.251	0.005
0.241	0.005
0.243	0.005
0.248	0.005

System: urea + acetonitrile + water; phases: Liquid mixture 2, Crystal, Liquid mixture 1
Fixed: Temperature, K = 298.15
Fixed: Pressure, kPa = 101
Property: Mole fraction of water (Liquid mixture 2); method: Titration method
Mole fraction of water	uncertainty
0.425	0.009
0.426	0.009
0.423	0.008
0.424	0.009
