Measured thermophysical data. Solubility of 2,7-Dihydroxynaphthalene in Binary Sodium Chloride + Water, Sodium Sulfate + Water, and Ethanol + Water Solvent Mixtures at Elevated Temperatures
Source: J. Chem. Eng. Data, 2011, 10.1021/je200530g
Compound 1: 2,7-dihydroxynaphthalene, C10H8O2, InChI=1S/C10H8O2/c11-9-3-1-7-2-4-10(12)6-8(7)5-9/h1-6,11-12H, purity 99.7%
Compound 2: sodium sulfate, Na2O4S, InChI=1S/2Na.H2O4S/c;;1-5(2,3)4/h;;(H2,1,2,3,4)/q2*+1;/p-2, purity 99.6%
Compound 3: ethanol, C2H6O, InChI=1S/C2H6O/c1-2-3/h3H,2H2,1H3, purity 99.6%
Compound 4: water, H2O, InChI=1S/H2O/h1H2, purity 99.9%
Compound 5: sodium chloride, ClNa, InChI=1S/ClH.Na/h1H;/q;+1/p-1, purity 99.6%

System: 2,7-dihydroxynaphthalene + water; phases: Liquid, Crystal
Fixed: Pressure, kPa = 101.3
Property: Mole fraction of 2,7-dihydroxynaphthalene (Liquid); method: Chromatography
Temperature, K	Mole fraction of 2,7-dihydroxynaphthalene	uncertainty
283.15	0.000291	3e-05
288.15	0.000347	3.5e-05
293.15	0.000407	4.1e-05
298.15	0.000501	5.1e-05
303.15	0.000611	6.2e-05
308.15	0.000741	7.5e-05
313.25	0.000891	9.1e-05
318.15	0.001049	0.000107
323.25	0.00121	0.00012
328.25	0.001412	0.000144

System: 2,7-dihydroxynaphthalene + sodium chloride + water; phases: Liquid, Crystal
Fixed: Pressure, kPa = 101.3
Property: Mole fraction of 2,7-dihydroxynaphthalene (Liquid); method: Chromatography
Solvent: Mass fraction of sodium chloride	Temperature, K	Mole fraction of 2,7-dihydroxynaphthalene	uncertainty
0.05	283.15	0.00015	1.5e-05
0.05	288.15	0.000213	2.2e-05
0.05	293.15	0.000291	3e-05
0.05	298.15	0.000378	3.8e-05
0.05	303.15	0.000484	4.9e-05
0.05	308.15	0.000596	6.1e-05
0.05	313.25	0.000743	7.6e-05
0.05	318.15	0.000906	9.2e-05
0.05	323.25	0.001102	0.000112
0.05	328.25	0.00132	0.000134
0.1	283.15	0.000111	1.1e-05
0.1	288.15	0.000131	1.3e-05
0.1	293.15	0.000175	1.8e-05
0.1	298.15	0.000224	2.3e-05
0.1	303.15	0.000287	2.9e-05
0.1	308.15	0.000358	3.6e-05
0.1	313.25	0.000436	4.4e-05
0.1	318.15	0.000534	5.4e-05
0.1	323.25	0.000665	6.8e-05
0.1	328.25	0.000851	8.6e-05
0.15	283.15	7.2e-05	7e-06
0.15	288.15	9.1e-05	9e-06
0.15	293.15	0.000116	1.2e-05
0.15	298.15	0.000141	1.4e-05
0.15	303.15	0.000171	1.7e-05
0.15	308.15	0.000213	2.2e-05
0.15	313.25	0.000266	2.7e-05
0.15	318.15	0.000348	3.5e-05
0.15	323.25	0.000458	4.6e-05
0.15	328.25	0.000575	5.8e-05
0.2	283.15	4.2e-05	4e-06
0.2	288.15	4.6e-05	5e-06
0.2	293.15	5.4e-05	5e-06
0.2	298.15	6.5e-05	7e-06
0.2	303.15	8e-05	8e-06
0.2	308.15	0.000108	1.1e-05
0.2	313.25	0.00014	1.4e-05
0.2	318.15	0.000186	1.9e-05
0.2	323.25	0.000228	2.3e-05
0.2	328.25	0.000281	2.8e-05

System: 2,7-dihydroxynaphthalene + water + sodium sulfate; phases: Liquid, Crystal
Fixed: Pressure, kPa = 101.3
Property: Mole fraction of 2,7-dihydroxynaphthalene (Liquid); method: Chromatography
Solvent: Mass fraction of sodium sulfate	Temperature, K	Mole fraction of 2,7-dihydroxynaphthalene	uncertainty
0	283.15	0.000291	2.9e-05
0	288.15	0.000347	3.5e-05
0	293.15	0.000407	4.1e-05
0	298.15	0.000501	5e-05
0	303.15	0.000611	6.1e-05
0	308.15	0.000741	7.4e-05
0	313.25	0.000891	8.9e-05
0	318.15	0.001049	0.000105
0	323.25	0.00121	0.00012
0	328.25	0.001412	0.000141
0.05	283.15	0.000188	1.9e-05
0.05	288.15	0.000231	2.3e-05
0.05	293.15	0.000276	2.8e-05
0.05	298.15	0.000351	3.5e-05
0.05	303.15	0.000435	4.4e-05
0.05	308.15	0.000538	5.4e-05
0.05	313.25	0.000659	6.6e-05
0.05	318.15	0.000781	7.8e-05
0.05	323.25	0.000909	9.1e-05
0.05	328.25	0.001041	0.000104
0.1	283.15	0.000116	1.2e-05
0.1	288.15	0.000144	1.4e-05
0.1	293.15	0.000174	1.7e-05
0.1	298.15	0.000221	2.2e-05
0.1	303.15	0.000294	2.9e-05
0.1	308.15	0.000371	3.7e-05
0.1	313.25	0.000473	4.7e-05
0.1	318.15	0.000573	5.7e-05
0.1	323.25	0.00067	7e-05
0.1	328.25	0.000791	7.9e-05
0.15	283.15	6.7e-05	7e-06
0.15	288.15	8.2e-05	8e-06
0.15	293.15	0.000104	1e-05
0.15	298.15	0.000129	1.3e-05
0.15	303.15	0.000164	1.6e-05
0.15	308.15	0.000211	2.1e-05
0.15	313.25	0.000269	2.7e-05
0.15	318.15	0.000326	3.3e-05
0.15	323.25	0.000402	4e-05
0.15	328.25	0.000487	4.9e-05
0.2	283.15	3.4e-05	3e-06
0.2	288.15	4.5e-05	5e-06
0.2	293.15	6e-05	6e-06
0.2	298.15	7.8e-05	8e-06
0.2	303.15	9.6e-05	1e-05
0.2	308.15	0.000113	1.1e-05
0.2	313.25	0.000131	1.3e-05
0.2	318.15	0.000152	1.5e-05
0.2	323.25	0.000172	1.7e-05
0.2	328.25	0.000196	2e-05

System: ethanol + 2,7-dihydroxynaphthalene + water; phases: Liquid, Crystal
Fixed: Pressure, kPa = 101.3
Property: Mole fraction of 2,7-dihydroxynaphthalene (Liquid); method: Chromatography
Solvent: Mass fraction of ethanol	Temperature, K	Mole fraction of 2,7-dihydroxynaphthalene	uncertainty
0.05	283.15	0.000458	4.6e-05
0.05	288.15	0.00057	5.7e-05
0.05	293.15	0.000704	7e-05
0.05	298.15	0.000876	8.8e-05
0.05	303.15	0.00106	0.000106
0.05	308.15	0.00126	0.00013
0.05	313.25	0.00151	0.000151
0.05	318.15	0.00183	0.000183
0.05	323.25	0.00226	0.000226
0.05	328.25	0.00277	0.000277
0.1	283.15	0.000608	6.1e-05
0.1	288.15	0.000742	7.4e-05
0.1	293.15	0.000919	9.2e-05
0.1	298.15	0.00111	0.000111
0.1	303.15	0.00133	0.000133
0.1	308.15	0.00157	0.000157
0.1	313.25	0.00187	0.000187
0.1	318.15	0.00225	0.000225
0.1	323.25	0.00276	0.000276
0.1	328.25	0.00331	0.000331
0.15	283.15	0.000776	7.8e-05
0.15	288.15	0.000899	9e-05
0.15	293.15	0.001106	0.000111
0.15	298.15	0.00131	0.000131
0.15	303.15	0.00156	0.000156
0.15	308.15	0.00183	0.000183
0.15	313.25	0.00218	0.000218
0.15	318.15	0.00264	0.000264
0.15	323.25	0.00313	0.000313
0.15	328.25	0.00367	0.000367
0.2	283.15	0.000944	9.4e-05
0.2	288.15	0.001104	0.00011
0.2	293.15	0.00132	0.000132
0.2	298.15	0.00154	0.000154
0.2	303.15	0.00181	0.000181
0.2	308.15	0.00209	0.000209
0.2	313.25	0.00248	0.000248
0.2	318.15	0.00293	0.000293
0.2	323.25	0.00346	0.000346
0.2	328.25	0.00408	0.000408
