Measured thermophysical data. Heat Capacity and Standard Thermodynamic Functions of Triphenylantimony Dimethacrylate over the Temperature Range from (0 to 400) K
Source: J. Chem. Eng. Data, 2011, 10.1021/je200508x
Compound 1: triphenyl-.lambda.5-stibanediyl bis(2-methylacrylate), C26H25O4Sb, InChI=1S/3C6H5.2C4H6O2.Sb/c3*1-2-4-6-5-3-1;2*1-3(2)4(5)6;/h3*1-5H;2*1H2,2H3,(H,5,6);/q;;;;;+2/p-2

System: triphenyl-.lambda.5-stibanediyl bis(2-methylacrylate); phases: Crystal
Fixed: Pressure, kPa = 101.325
Property: Molar heat capacity at constant pressure, J/K/mol (Crystal); method: Vacuum adiabatic calorimetry
Temperature, K	Molar heat capacity at constant pressure, J/K/mol	uncertainty
5	2.01	0.05
10	12.3	0.1
15	25.4	0.2
20	40.48	0.24
25	56.85	0.27
30	72.23	0.19
35	88.24	0.23
40	103.4	0.3
45	117.5	0.3
50	131.7	0.3
60	157.4	0.4
70	181.9	0.4
80	204.8	0.5
90	226.3	0.4
100	245.1	0.5
110	263.4	0.5
120	280.8	0.5
130	297.4	0.5
140	314.6	0.5
150	333.6	0.5
160	372.6	0.6
170	361.2	0.6
180	375.2	0.6
190	389.6	0.6
200	404.7	0.6
210	420.5	0.6
220	436.3	0.6
230	451.7	0.7
240	466.6	0.7
250	481.2	0.7
260	496.3	0.7
270	511.1	0.7
280	525.9	0.7
290	541.9	0.7
298.15	555.9	0.8
300	559.1	0.8
310	576.3	0.8
320	592	0.8
330	607	1
340	621	1
350	635	1
360	649	1
370	664	1
380	679	1
390	694	1
400	709	1

System: triphenyl-.lambda.5-stibanediyl bis(2-methylacrylate); phases: Crystal
Fixed: Pressure, kPa = 101.325
Property: Molar heat capacity at constant pressure, J/K/mol (Crystal); method: Vacuum adiabatic calorimetry
Temperature, K	Molar heat capacity at constant pressure, J/K/mol	uncertainty
5.69	2.9	0.12
6.38	4.02	0.17
7.1	5.41	0.22
7.71	6.68	0.27
8.27	7.96	0.33
8.8	9.25	0.38
9.02	9.78	0.4
9.38	10.7	0.4
9.91	12	0.5
10.45	13.4	0.5
10.84	14.3	0.6
11.3	15.5	0.6
11.73	16.5	0.7
12.1	17.4	0.7
13.05	19.9	0.8
13.67	21.6	0.9
14.66	24.5	1
15.64	27.4	0.31
16.62	30.16	0.34
17.59	33.15	0.37
18.52	36.15	0.4
19.07	37.69	0.41
19.58	39.2	0.43
21.68	45.73	0.49
24.61	55.52	0.59
26.89	62.82	0.66
28.78	68.55	0.71
31.21	75.9	0.77
31.81	78.04	0.8
33.66	83.66	0.85
33.76	84.46	0.86
36.21	92.11	0.94
38.67	99.54	1.01
41.14	106.6	0.5
43.6	113.8	0.5
46.06	120.5	0.5
48.52	127.2	0.6
50.62	133.3	0.6
52.35	138.3	0.6
56.62	149.3	0.6
57.11	150.1	0.6
59.23	155.6	0.7
61.69	161.4	0.7
64.15	167.4	0.7
66.61	173.5	0.7
68.65	178.9	0.8
70.8	183.9	0.8
73.27	189.7	0.8
75.28	193.9	0.8
77.44	199	0.9
79.9	204.6	0.9
82.19	210	0.9
84.03	214.2	0.9
84.36	214.5	0.9
86.03	217.9	0.9
86.44	219.2	0.9
88.12	222.6	1
88.53	223.9	1
90.24	227.1	1
90.62	227.4	1
92.99	232	1
95.37	236.4	1
97.74	240.6	1
100.11	245.2	1
102.48	250	1.1
104.85	254	1.1
107.22	258.4	1.1
109.45	262.8	1.1
111.82	266.7	1.1
114.3	271.1	1.1
116.58	275.1	1.2
118.96	279	1.2
121.34	283	1.2
123.72	286.8	1.2
126.1	290.5	1.2
128.48	294.9	1.2
130.59	298.4	1.2
132.7	302.2	1.3
135.08	306.4	1.3
139.6	313.7	1.3
141.3	316.8	1.3
143.4	321	1.3
145.22	324.6	1.4
147.6	328.9	1.4
149.99	333.6	1.4
152.36	347.2	1.4
154.75	352.6	1.5
157.14	362.4	1.5
159.53	372.2	1.5
161.92	369.5	1.5
164.34	355.3	1.5
166.76	356.4	1.5
169.15	360	1.5
171.6	363.4	1.5
173.9	366.7	1.5
175.85	369.5	1.5
178.25	372.5	1.5
180.65	376.2	1.6
183.05	379.6	1.6
184.24	380.9	1.6
187.35	385.8	1.6
190.9	391.1	1.6
194.06	395.5	1.6
197.17	400.2	1.7
200.73	406	1.7
204.87	412.6	1.7
209.58	420	1.7
214.29	427	1.8
218.98	434.2	1.8
223.67	442.1	1.8
228.35	449.1	1.9
232.58	456.1	1.9
236.01	461	1.9
240.06	466.4	1.9
244.71	473.3	2
249.36	480	2
252.66	484.9	2
256.66	491.7	2
261.29	497.9	2.1
265.91	505.5	2.1
270.5	511.7	2.1
275.08	518.7	2.1
277.79	522.4	2.2
281.19	527.2	2.2
284.56	532.8	2.2
287.93	538.8	2.2
291.28	544	2.2
294.6	550.2	2.3
297.91	555.7	2.3
301.2	561.8	2.3
304.48	566.7	2.3
307.74	572.1	2.4
310.99	577.4	2.4
314.22	583.3	2.4
317.43	588.2	2.4
320.63	592.8	2.4
323.81	597.8	2.5
327.25	602.8	2.5
330.43	607	2.5
332.9	611.4	2.5
334.78	614.7	2.5

System: triphenyl-.lambda.5-stibanediyl bis(2-methylacrylate); phases: Crystal
Fixed: Pressure, kPa = 101.325
Property: Molar enthalpy, kJ/mol (Crystal); method: Vacuum adiabatic calorimetry
Temperature, K	Molar enthalpy, kJ/mol	uncertainty
5	0.0025	0.00015
10	0.0352	0.0005
15	0.128	0.001
20	0.2928	0.002
25	0.5354	0.0029
30	0.8585	0.0033
35	1.259	0.004
40	1.739	0.006
45	2.292	0.007
50	2.915	0.008
60	4.363	0.012
70	6.059	0.015
80	7.994	0.02
90	10.15	0.03
100	12.51	0.03
110	15.05	0.04
120	17.78	0.04
130	20.67	0.05
140	23.73	0.05
150	26.96	0.06
160	30.51	0.06
170	34.13	0.07
180	37.81	0.07
190	41.64	0.08
200	45.61	0.09
210	49.73	0.09
220	54.02	0.1
230	58.46	0.1
240	63.05	0.11
250	67.79	0.12
260	72.67	0.13
270	77.71	0.13
280	82.89	0.14
290	88.23	0.15
298.15	92.71	0.15
300	93.74	0.15
310	99.42	0.16
320	105.3	0.2
330	111	1
340	117	1
350	124	1
360	130	1
370	137	1
380	143	1
390	150	1
400	157	1

System: triphenyl-.lambda.5-stibanediyl bis(2-methylacrylate); phases: Crystal
Fixed: Pressure, kPa = 101.325
Property: Molar entropy, J/K/mol (Crystal); method: Vacuum adiabatic calorimetry
Temperature, K	Molar entropy, J/K/mol	uncertainty
5	0.671	0.029
10	4.78	0.07
15	12.1	0.2
20	21.52	0.2
25	32.28	0.24
30	44.02	0.2
35	56.34	0.23
40	69.14	0.27
45	82.14	0.31
50	95.25	0.35
60	121.6	0.4
70	147.7	0.5
80	173.5	0.6
90	198.9	0.6
100	223.7	0.6
110	247.9	0.7
120	271.6	0.7
130	294.8	0.7
140	317.4	0.8
150	339.7	0.8
160	362.6	0.8
170	384.6	0.9
180	405.6	0.9
190	426.3	0.9
200	446.6	1
210	466.8	1
220	486.7	1
230	506.4	1.1
240	526	1.1
250	545.3	1.1
260	564.5	1.1
270	583.5	1.2
280	602.3	1.2
290	621.1	1.2
298.15	636.3	1.3
300	639.7	1.3
310	658.3	1.3
320	676.9	1.3
330	695	1
340	714	1
350	732	2
360	750	2
370	768	2
380	786	2
390	804	2
400	821	2
