Measured thermophysical data. Surface Tension and Density in the KF NaF AlF3-Based Electrolyte
Source: J. Chem. Eng. Data, 2011, 10.1021/je2005825
Compound 1: potassium fluoride, FK, InChI=1S/FH.K/h1H;/q;+1/p-1
Compound 2: sodium fluoride, FNa, InChI=1S/FH.Na/h1H;/q;+1/p-1
Compound 3: aluminum fluoride, AlF3, InChI=1S/Al.3FH/h;3*1H/q+3;;;/p-3

System: sodium fluoride + aluminum fluoride + potassium fluoride; phases: Liquid, Air at 1 atmosphere
Property: Surface tension liquid-gas, N/m (Liquid); method: Maximum bubble pressure
Mass fraction of sodium fluoride	Mass fraction of potassium fluoride	Temperature, K	Surface tension liquid-gas, N/m	uncertainty
0.196	0.238	1022.15	9.04e-05	3.63e-06
0.196	0.238	1033.15	8.952e-05	3.6e-06
0.196	0.238	1048.15	8.761e-05	3.52e-06
0.196	0.238	1069.15	8.385e-05	3.36e-06
0.196	0.238	1079.15	8.229e-05	3.3e-06
0.197	0.258	1024.15	8.886e-05	3.57e-06
0.197	0.258	1039.15	8.7e-05	3.49e-06
0.197	0.258	1051.15	8.578e-05	3.44e-06
0.197	0.258	1066.15	8.462e-05	3.39e-06
0.197	0.258	1072.15	8.373e-05	3.35e-06
0.269	0.172	1021.15	9.836e-05	3.94e-06
0.269	0.172	1045.15	9.67e-05	3.87e-06
0.269	0.172	1058.15	9.509e-05	3.81e-06
0.269	0.172	1076.15	9.335e-05	3.74e-06

System: sodium fluoride + aluminum fluoride + potassium fluoride; phases: Liquid
Fixed: Pressure, kPa = 101
Property: Mass density, kg/m3 (Liquid); method: Buoyancy - hydrostatic balance with magnetic suspension - one sinker
Temperature, K	Mass fraction of sodium fluoride	Mass fraction of potassium fluoride	Mass density, kg/m3	uncertainty
1033.15	0.0941	0.36	1851	37
1033.15	0.0949	0.3801	1871	37
1033.15	0.1555	0.2707	1882	38
1033.15	0.1608	0.28	1891	38
1033.15	0.1621	0.3	1910	38
1033.15	0.2308	0.1959	1899	38
1033.15	0.2326	0.2158	1924	38
1043.15	0.0941	0.36	1841	37
1043.15	0.0949	0.3801	1854	37
1043.15	0.1555	0.2707	1875	38
1043.15	0.1608	0.28	1884	38
1043.15	0.1621	0.3	1904	38
1043.15	0.2308	0.1959	1893	38
1043.15	0.2326	0.2158	1920	38
1053.15	0.0941	0.36	1829	37
1053.15	0.0949	0.3801	1843	37
1053.15	0.1555	0.2707	1868	37
1053.15	0.1608	0.28	1878	38
1053.15	0.1621	0.3	1899	38
1053.15	0.2308	0.1959	1886	38
1053.15	0.2326	0.2158	1913	38
1063.15	0.0941	0.36	1819	36
1063.15	0.0949	0.3801	1832	37
1063.15	0.1555	0.2707	1862	37
1063.15	0.1608	0.28	1873	37
1063.15	0.1621	0.3	1894	38
1063.15	0.2308	0.1959	1882	38
1063.15	0.2326	0.2158	1910	38
1073.15	0.0941	0.36	1811	36
1073.15	0.0949	0.3801	1824	36
1073.15	0.1555	0.2707	1856	37
1073.15	0.1608	0.28	1867	37
1073.15	0.1621	0.3	1889	38
1073.15	0.2308	0.1959	1873	37
1073.15	0.2326	0.2158	1905	38
1083.15	0.0941	0.36	1802	36
1083.15	0.0949	0.3801	1820	36
1083.15	0.1555	0.2707	1847	37
1083.15	0.1608	0.28	1861	37
1083.15	0.1621	0.3	1883	38
1083.15	0.2308	0.1959	1868	37
1083.15	0.2326	0.2158	1898	38
1093.15	0.0941	0.36	1793	36
1093.15	0.0949	0.3801	1807	36
1093.15	0.1555	0.2707	1841	37
1093.15	0.1608	0.28	1850	37
1093.15	0.1621	0.3	1878	38
1093.15	0.2308	0.1959	1860	37
1093.15	0.2326	0.2158	1894	38
1103.15	0.0941	0.36	1786	36
1103.15	0.0949	0.3801	1800	36
1103.15	0.1555	0.2707	1835	37
1103.15	0.1608	0.28	1846	37
1103.15	0.1621	0.3	1873	37
1103.15	0.2308	0.1959	1855	37
1103.15	0.2326	0.2158	1890	38
