Measured thermophysical data. Density, Viscosity, and Conductivity for the Binary Systems of Water + Dual Amino-Functionalized Ionic Liquids
Source: J. Chem. Eng. Data, 2012, 10.1021/je2007549
Compound 1: (3-aminopropyl)tributylphosphonium L-alaninate, C18H41N2O2P, InChI=1S/C15H35NP.C3H7NO2/c1-4-7-12-17(13-8-5-2,14-9-6-3)15-10-11-16;1-2(4)3(5)6/h4-16H2,1-3H3;2H,4H2,1H3,(H,5,6)/q+1;/p-1/t;2-/m.0/s1
Compound 2: (3-aminopropyl)tributylphosphonium L-valinate, C20H45N2O2P, InChI=1S/C15H35NP.C5H11NO2/c1-4-7-12-17(13-8-5-2,14-9-6-3)15-10-11-16;1-3(2)4(6)5(7)8/h4-16H2,1-3H3;3-4H,6H2,1-2H3,(H,7,8)/q+1;/p-1/t;4-/m.0/s1
Compound 3: (3-aminopropyl)tributylphosphonium L-leucinate, C21H47N2O2P, InChI=1S/C15H35NP.C6H13NO2/c1-4-7-12-17(13-8-5-2,14-9-6-3)15-10-11-16;1-4(2)3-5(7)6(8)9/h4-16H2,1-3H3;4-5H,3,7H2,1-2H3,(H,8,9)/q+1;/p-1/t;5-/m.0/s1
Compound 4: water, H2O, InChI=1S/H2O/h1H2, purity 99%

System: (3-aminopropyl)tributylphosphonium L-alaninate; phases: Liquid
Fixed: Pressure, kPa = 101
Property: Electrical conductivity, S/m (Liquid); method: Direct current cell with electrodes
Temperature, K	Electrical conductivity, S/m	uncertainty
298.15	0.014054	0.000281
303.15	0.020948	0.000419
313.15	0.032017	0.00064
323.15	0.046438	0.000929
333.15	0.064892	0.001298
343.15	0.0884078	0.0017682

System: (3-aminopropyl)tributylphosphonium L-alaninate; phases: Liquid
Fixed: Pressure, kPa = 101
Property: Viscosity, Pa*s (Liquid); method: Falling or rolling sphere viscometry
Temperature, K	Viscosity, Pa*s	uncertainty
298.15	0.80488	0.07908
303.15	0.5614	0.0498
313.15	0.29107	0.02126
323.15	0.16461	0.01
333.15	0.1067	0.0057
343.15	0.06596	0.00326

System: (3-aminopropyl)tributylphosphonium L-alaninate; phases: Liquid
Fixed: Pressure, kPa = 101
Property: Mass density, kg/m3 (Liquid); method: Vibrating tube method
Temperature, K	Mass density, kg/m3	uncertainty
298.15	986.75	5.26
303.15	983.72	5.23
313.15	977.65	5.17
323.15	971.62	5.11
333.15	965.71	5.05
343.15	959.97	4.99

System: (3-aminopropyl)tributylphosphonium L-valinate; phases: Liquid
Fixed: Pressure, kPa = 101
Property: Electrical conductivity, S/m (Liquid); method: Direct current cell with electrodes
Temperature, K	Electrical conductivity, S/m	uncertainty
298.15	0.008152	0.000163
303.15	0.010969	0.000219
313.15	0.018792	0.000376
323.15	0.029417	0.000588
333.15	0.044683	0.000894
343.15	0.064985	0.0013

System: (3-aminopropyl)tributylphosphonium L-valinate; phases: Liquid
Fixed: Pressure, kPa = 101
Property: Viscosity, Pa*s (Liquid); method: Falling or rolling sphere viscometry
Temperature, K	Viscosity, Pa*s	uncertainty
298.15	1.01549	0.10672
303.15	0.69504	0.06561
313.15	0.35086	0.0272
323.15	0.19224	0.01229
333.15	0.11405	0.00622
343.15	0.07245	0.00361

System: (3-aminopropyl)tributylphosphonium L-valinate; phases: Liquid
Fixed: Pressure, kPa = 101
Property: Mass density, kg/m3 (Liquid); method: Vibrating tube method
Temperature, K	Mass density, kg/m3	uncertainty
298.15	980.72	5.2
303.15	977.68	5.17
313.15	971.57	5.11
323.15	965.45	5.04
333.15	959.5	4.99
343.15	953.54	4.93

System: (3-aminopropyl)tributylphosphonium L-leucinate; phases: Liquid
Fixed: Pressure, kPa = 101
Property: Electrical conductivity, S/m (Liquid); method: Direct current cell with electrodes
Temperature, K	Electrical conductivity, S/m	uncertainty
298.15	0.007997	0.00016
303.15	0.010838	0.000217
313.15	0.01848	0.00037
323.15	0.029068	0.000581
333.15	0.041353	0.000827
343.15	0.060467	0.001209

System: (3-aminopropyl)tributylphosphonium L-leucinate; phases: Liquid
Fixed: Pressure, kPa = 101
Property: Viscosity, Pa*s (Liquid); method: Falling or rolling sphere viscometry
Temperature, K	Viscosity, Pa*s	uncertainty
298.15	1.22786	0.13655
303.15	0.85526	0.08544
313.15	0.4179	0.03422
323.15	0.22429	0.01507
333.15	0.13046	0.0074
343.15	0.08101	0.00413

System: (3-aminopropyl)tributylphosphonium L-leucinate; phases: Liquid
Fixed: Pressure, kPa = 101
Property: Mass density, kg/m3 (Liquid); method: Vibrating tube method
Temperature, K	Mass density, kg/m3	uncertainty
298.15	971.86	5.11
303.15	968.8	5.08
313.15	962.68	5.02
323.15	956.54	4.96
333.15	950.54	4.9
343.15	944.58	4.84

System: water + (3-aminopropyl)tributylphosphonium L-alaninate; phases: Liquid
Fixed: Pressure, kPa = 101
Property: Electrical conductivity, S/m (Liquid); method: Direct current cell with electrodes
Temperature, K	Mole fraction of water	Electrical conductivity, S/m	uncertainty
298.15	0	0.014054	0.000281
298.15	0.25	0.024402	0.000488
298.15	0.5	0.033697	0.000674
298.15	0.75	0.064665	0.001293
303.15	0	0.020948	0.000419
303.15	0.25	0.032027	0.000641
303.15	0.5	0.043862	0.000877
303.15	0.75	0.085912	0.001718
313.15	0	0.032017	0.00064
313.15	0.25	0.048722	0.000974
313.15	0.5	0.070272	0.001405
313.15	0.75	0.134131	0.002683
323.15	0	0.046438	0.000929
323.15	0.25	0.072742	0.001455
323.15	0.5	0.105478	0.00211
323.15	0.75	0.195328	0.003907
333.15	0	0.064892	0.001298
333.15	0.25	0.100956	0.002019
333.15	0.5	0.146565	0.002931
333.15	0.75	0.264787	0.005296
343.15	0	0.0884078	0.0017682
343.15	0.25	0.142091	0.002842
343.15	0.5	0.192606	0.003852
343.15	0.75	0.333513	0.00667

System: water + (3-aminopropyl)tributylphosphonium L-alaninate; phases: Liquid
Fixed: Pressure, kPa = 101
Property: Viscosity, Pa*s (Liquid); method: Falling or rolling sphere viscometry
Temperature, K	Mole fraction of water	Viscosity, Pa*s	uncertainty
298.15	0	0.80488	0.07908
298.15	0.25	0.59785	0.05338
298.15	0.5	0.42973	0.03408
298.15	0.75	0.20866	0.01278
303.15	0	0.5614	0.0498
303.15	0.25	0.41793	0.03339
303.15	0.5	0.3042	0.02155
303.15	0.75	0.15037	0.00818
313.15	0	0.29107	0.02126
313.15	0.25	0.22226	0.01452
313.15	0.5	0.16331	0.0094
313.15	0.75	0.08345	0.00382
323.15	0	0.16461	0.01
323.15	0.25	0.12707	0.0069
323.15	0.5	0.09501	0.00459
323.15	0.75	0.05038	0.00214
333.15	0	0.1067	0.0057
333.15	0.25	0.07892	0.00377
333.15	0.5	0.0593	0.00261
333.15	0.75	0.03259	0.00139
343.15	0	0.06596	0.00326
343.15	0.25	0.05307	0.00243
343.15	0.5	0.03929	0.00175
343.15	0.75	0.02227	0.00095

System: water + (3-aminopropyl)tributylphosphonium L-alaninate; phases: Liquid
Fixed: Pressure, kPa = 101
Property: Mass density, kg/m3 (Liquid); method: Vibrating tube method
Temperature, K	Mole fraction of water	Mass density, kg/m3	uncertainty
298.15	0	986.75	5.26
298.15	0.25	988.47	3.32
298.15	0.5	991.4	1.9
298.15	0.75	999.98	0.84
303.15	0	983.72	5.23
303.15	0.25	985.39	3.3
303.15	0.5	988.27	1.84
303.15	0.75	996.76	0.83
313.15	0	977.65	5.17
313.15	0.25	979.18	3.26
313.15	0.5	982.01	1.82
313.15	0.75	990.22	0.83
323.15	0	971.62	5.11
323.15	0.25	973.04	3.22
323.15	0.5	975.81	1.8
323.15	0.75	983.57	0.82
333.15	0	965.71	5.05
333.15	0.25	966.97	3.19
333.15	0.5	969.57	1.78
333.15	0.75	976.99	0.81
343.15	0	959.97	4.99
343.15	0.25	960.89	3.15
343.15	0.5	963.3	1.76
343.15	0.75	970.15	0.8

System: water + (3-aminopropyl)tributylphosphonium L-valinate; phases: Liquid
Fixed: Pressure, kPa = 101
Property: Electrical conductivity, S/m (Liquid); method: Direct current cell with electrodes
Temperature, K	Mole fraction of water	Electrical conductivity, S/m	uncertainty
298.15	0	0.008152	0.000163
298.15	0.25	0.011558	0.000231
298.15	0.5	0.016836	0.000337
298.15	0.75	0.041403	0.000828
303.15	0	0.010969	0.000219
303.15	0.25	0.015799	0.000316
303.15	0.5	0.023713	0.000474
303.15	0.75	0.054691	0.001094
313.15	0	0.018792	0.000376
313.15	0.25	0.025289	0.000506
313.15	0.5	0.040058	0.000801
313.15	0.75	0.085315	0.001706
323.15	0	0.029417	0.000588
323.15	0.25	0.039239	0.000785
323.15	0.5	0.063487	0.00127
323.15	0.75	0.127762	0.002555
333.15	0	0.044683	0.000894
333.15	0.25	0.056295	0.001126
333.15	0.5	0.093012	0.00186
333.15	0.75	0.183206	0.003664
343.15	0	0.064985	0.0013
343.15	0.25	0.085839	0.001717
343.15	0.5	0.131809	0.002636
343.15	0.75	0.257912	0.005158

System: water + (3-aminopropyl)tributylphosphonium L-valinate; phases: Liquid
Fixed: Pressure, kPa = 101
Property: Viscosity, Pa*s (Liquid); method: n
Temperature, K	Mole fraction of water	Viscosity, Pa*s	uncertainty
298.15	0	1.01549	0.04959
298.15	0.25	0.73422	0.03425
298.15	0.5	0.50563	0.0225
298.15	0.75	0.23796	0.0102
303.15	0	0.69504	0.03389
303.15	0.25	0.50812	0.02351
303.15	0.5	0.33523	0.01487
303.15	0.75	0.16893	0.00722
313.15	0	0.35086	0.0173
313.15	0.25	0.25952	0.01216
313.15	0.5	0.18422	0.00821
313.15	0.75	0.09215	0.00396
323.15	0	0.19224	0.00937
323.15	0.25	0.14561	0.00673
323.15	0.5	0.10276	0.00455
323.15	0.75	0.05603	0.00238
333.15	0	0.11405	0.00551
333.15	0.25	0.08786	0.00403
333.15	0.5	0.06577	0.00287
333.15	0.75	0.03696	0.00156
343.15	0	0.07245	0.00352
343.15	0.25	0.05687	0.00261
343.15	0.5	0.04381	0.00193
343.15	0.75	0.02458	0.00104

System: water + (3-aminopropyl)tributylphosphonium L-valinate; phases: Liquid
Fixed: Pressure, kPa = 101
Property: Mass density, kg/m3 (Liquid); method: Vibrating tube method
Temperature, K	Mole fraction of water	Mass density, kg/m3	uncertainty
298.15	0	980.72	5.2
298.15	0.25	982.82	3.29
298.15	0.5	987.18	1.84
298.15	0.75	995.89	0.83
303.15	0	977.68	5.17
303.15	0.25	979.76	3.27
303.15	0.5	984.04	1.83
303.15	0.75	992.65	0.83
313.15	0	971.57	5.11
313.15	0.25	973.59	3.23
313.15	0.5	977.71	1.81
313.15	0.75	986.16	0.82
323.15	0	965.45	5.04
323.15	0.25	967.39	3.19
323.15	0.5	971.55	1.79
323.15	0.75	979.59	0.81
333.15	0	959.5	4.99
333.15	0.25	961.39	3.15
333.15	0.5	965.34	1.77
333.15	0.75	972.96	0.81
343.15	0	953.54	4.93
343.15	0.25	955.37	3.12
343.15	0.5	959.05	1.75
343.15	0.75	966.29	0.8

System: water + (3-aminopropyl)tributylphosphonium L-leucinate; phases: Liquid
Fixed: Pressure, kPa = 101
Property: Electrical conductivity, S/m (Liquid); method: Direct current cell with electrodes
Temperature, K	Mole fraction of water	Electrical conductivity, S/m	uncertainty
298.15	0	0.007997	0.00016
298.15	0.25	0.011385	0.000228
298.15	0.5	0.017294	0.000346
298.15	0.75	0.039526	0.000791
303.15	0	0.010838	0.000217
303.15	0.25	0.015409	0.000308
303.15	0.5	0.023171	0.000463
303.15	0.75	0.051517	0.00103
313.15	0	0.01848	0.00037
313.15	0.25	0.025427	0.000509
313.15	0.5	0.036193	0.000724
313.15	0.75	0.079473	0.001589
323.15	0	0.029068	0.000581
323.15	0.25	0.037937	0.000759
323.15	0.5	0.051526	0.001031
323.15	0.75	0.116162	0.002323
333.15	0	0.041353	0.000827
333.15	0.25	0.054222	0.001084
333.15	0.5	0.073534	0.001471
333.15	0.75	0.161012	0.00322
343.15	0	0.060467	0.001209
343.15	0.25	0.076079	0.001522
343.15	0.5	0.103521	0.00207
343.15	0.75	0.213818	0.004276

System: water + (3-aminopropyl)tributylphosphonium L-leucinate; phases: Liquid
Fixed: Pressure, kPa = 101
Property: Viscosity, Pa*s (Liquid); method: Falling or rolling sphere viscometry
Temperature, K	Mole fraction of water	Viscosity, Pa*s	uncertainty
298.15	0	1.22786	0.13655
298.15	0.25	0.92024	0.09273
298.15	0.5	0.59952	0.05292
298.15	0.75	0.24481	0.01589
303.15	0	0.85526	0.08544
303.15	0.25	0.62998	0.05706
303.15	0.5	0.40791	0.03192
303.15	0.75	0.17405	0.00999
313.15	0	0.4179	0.03422
313.15	0.25	0.30875	0.02258
313.15	0.5	0.20907	0.01314
313.15	0.75	0.09421	0.00446
323.15	0	0.22429	0.01507
323.15	0.25	0.1698	0.01013
323.15	0.5	0.11662	0.00599
323.15	0.75	0.05571	0.00238
333.15	0	0.13046	0.0074
333.15	0.25	0.10173	0.00517
333.15	0.5	0.07242	0.00328
333.15	0.75	0.03535	0.00151
343.15	0	0.08101	0.00413
343.15	0.25	0.06508	0.00305
343.15	0.5	0.04747	0.00213
343.15	0.75	0.02397	0.00103

System: water + (3-aminopropyl)tributylphosphonium L-leucinate; phases: Liquid
Fixed: Pressure, kPa = 101
Property: Mass density, kg/m3 (Liquid); method: Vibrating tube method
Temperature, K	Mole fraction of water	Mass density, kg/m3	uncertainty
298.15	0	971.86	5.11
298.15	0.25	973.97	3.23
298.15	0.5	978.04	1.81
298.15	0.75	987.11	0.82
303.15	0	968.8	5.08
303.15	0.25	970.91	3.21
303.15	0.5	974.9	1.8
303.15	0.75	983.89	0.82
313.15	0	962.68	5.02
313.15	0.25	964.75	3.17
313.15	0.5	968.61	1.78
313.15	0.75	977.44	0.81
323.15	0	956.54	4.96
323.15	0.25	958.56	3.14
323.15	0.5	962.52	1.76
323.15	0.75	970.88	0.8
333.15	0	950.54	4.9
333.15	0.25	952.54	3.1
333.15	0.5	956.26	1.74
333.15	0.75	964.27	0.8
343.15	0	944.58	4.84
343.15	0.25	946.54	3.06
343.15	0.5	949.99	1.72
343.15	0.75	957.61	0.79
