Measured thermophysical data. Densities and Viscosities of Citric Acid in Aqueous Cetrimonium Bromide Solutions with Reference to the Manifestation of Solvation
Source: J. Chem. Eng. Data, 2011, 10.1021/je2000217
Compound 1: citric acid, C6H8O7, InChI=1S/C6H8O7/c7-3(8)1-6(13,5(11)12)2-4(9)10/h13H,1-2H2,(H,7,8)(H,9,10)(H,11,12), purity 99%
Compound 2: N,N,N-trimethyl-1-hexadecanaminium bromide, C19H42BrN, InChI=1S/C19H42N.BrH/c1-5-6-7-8-9-10-11-12-13-14-15-16-17-18-19-20(2,3)4;/h5-19H2,1-4H3;1H/q+1;/p-1, purity 99%
Compound 3: water, H2O, InChI=1S/H2O/h1H2, purity 99.9%

System: citric acid + N,N,N-trimethyl-1-hexadecanaminium bromide + water; phases: Liquid
Fixed: Pressure, kPa = 100
Property: Mass density, kg/m3 (Liquid); method: Vibrating tube method
Temperature, K	Amount concentration (molarity), mol/dm3 of citric acid	Solvent: Amount concentration (molarity), mol/dm3 of N,N,N-trimethyl-1-hexadecanaminium bromide	Mass density, kg/m3	uncertainty
298.15	0	0.001	997.1	2
298.15	0.025	0.001	997.8	2
298.15	0.045	0.001	998.8	2
298.15	0.055	0.001	999.5	2
298.15	0.065	0.001	1000.2	2
298.15	0.075	0.001	1001	2
298.15	0.085	0.001	1001.8	2
308.15	0	0.001	994.2	2
308.15	0.0249	0.001	994.6	2
308.15	0.0449	0.001	995.6	2
308.15	0.0553	0.001	996.2	2
308.15	0.0648	0.001	996.8	2
308.15	0.0748	0.001	997.5	2
308.15	0.0847	0.001	998.2	2
318.15	0	0.001	990.6	2
318.15	0.0248	0.001	991	2
318.15	0.0447	0.001	991.8	2
318.15	0.0551	0.001	992.3	2
318.15	0.0645	0.001	992.9	2
318.15	0.0745	0.001	993.5	2
318.15	0.0843	0.001	994.1	2
298.15	0	0.003	997.3	2
298.15	0.025	0.003	997.9	2
298.15	0.045	0.003	999	2
298.15	0.055	0.003	999.6	2
298.15	0.065	0.003	1000.4	2
298.15	0.075	0.003	1001.2	2
298.15	0.085	0.003	1001.9	2
308.15	0	0.003	994.3	2
308.15	0.0249	0.003	994.7	2
308.15	0.0449	0.003	995.6	2
308.15	0.0548	0.003	996.2	2
308.15	0.0648	0.003	996.8	2
308.15	0.0747	0.003	997.6	2
308.15	0.0847	0.003	998.3	2
318.15	0	0.003	990.7	2
318.15	0.0248	0.003	990.9	2
318.15	0.0447	0.003	991.7	2
318.15	0.0546	0.003	992.2	2
318.15	0.0645	0.003	992.7	2
318.15	0.0744	0.003	993.3	2
318.15	0.0843	0.003	993.9	2
298.15	0	0.005	997.4	2
298.15	0.025	0.005	997.9	2
298.15	0.045	0.005	999	2
298.15	0.055	0.005	999.7	2
298.15	0.065	0.005	1000.5	2
298.15	0.075	0.005	1001.2	2
298.15	0.085	0.005	1002.1	2
308.15	0	0.005	994.4	2
308.15	0.0249	0.005	994.7	2
308.15	0.0449	0.005	995.7	2
308.15	0.0548	0.005	996.2	2
308.15	0.0648	0.005	996.9	2
308.15	0.0747	0.005	997.7	2
308.15	0.0847	0.005	998.4	2
318.15	0	0.005	990.8	2
318.15	0.0248	0.005	991	2
318.15	0.0447	0.005	991.7	2
318.15	0.0546	0.005	992.2	2
318.15	0.0645	0.005	992.8	2
318.15	0.0744	0.005	993.4	2
318.15	0.0843	0.005	994.1	2

System: citric acid + N,N,N-trimethyl-1-hexadecanaminium bromide + water; phases: Liquid
Fixed: Pressure, kPa = 100
Property: Viscosity, Pa*s (Liquid); method: Capillary tube (Ostwald; Ubbelohde) method
Temperature, K	Amount concentration (molarity), mol/dm3 of citric acid	Solvent: Amount concentration (molarity), mol/dm3 of N,N,N-trimethyl-1-hexadecanaminium bromide	Viscosity, Pa*s	uncertainty
298.15	0	0.001	0.0008978	5.43e-05
298.15	0.025	0.001	0.0009228	5.58e-05
298.15	0.045	0.001	0.0009374	5.67e-05
298.15	0.055	0.001	0.000945	5.71e-05
298.15	0.065	0.001	0.0009518	5.76e-05
298.15	0.075	0.001	0.0009596	5.8e-05
298.15	0.085	0.001	0.0009665	5.84e-05
308.15	0	0.001	0.0007436	4.5e-05
308.15	0.0249	0.001	0.0007613	4.61e-05
308.15	0.0449	0.001	0.0007726	4.67e-05
308.15	0.0553	0.001	0.0007782	4.71e-05
308.15	0.0648	0.001	0.0007841	4.74e-05
308.15	0.0748	0.001	0.0007896	4.78e-05
308.15	0.0847	0.001	0.0007951	4.81e-05
318.15	0	0.001	0.0006173	3.74e-05
318.15	0.0248	0.001	0.0006301	3.82e-05
318.15	0.0447	0.001	0.000639	3.87e-05
318.15	0.0551	0.001	0.0006434	3.9e-05
318.15	0.0645	0.001	0.0006481	3.92e-05
318.15	0.0745	0.001	0.0006528	3.95e-05
318.15	0.0843	0.001	0.0006568	3.98e-05
298.15	0	0.003	0.0009087	5.5e-05
298.15	0.025	0.003	0.0009349	5.65e-05
298.15	0.045	0.003	0.0009515	5.75e-05
298.15	0.055	0.003	0.0009597	5.8e-05
298.15	0.065	0.003	0.0009676	5.85e-05
298.15	0.075	0.003	0.0009752	5.9e-05
298.15	0.085	0.003	0.0009834	5.95e-05
308.15	0	0.003	0.0007516	4.55e-05
308.15	0.0249	0.003	0.0007701	4.66e-05
308.15	0.0449	0.003	0.000783	4.74e-05
308.15	0.0548	0.003	0.0007895	4.78e-05
308.15	0.0648	0.003	0.000796	4.82e-05
308.15	0.0747	0.003	0.0008021	4.85e-05
308.15	0.0847	0.003	0.0008085	4.89e-05
318.15	0	0.003	0.0006217	3.76e-05
318.15	0.0248	0.003	0.0006352	3.85e-05
318.15	0.0447	0.003	0.0006451	3.91e-05
318.15	0.0546	0.003	0.0006506	3.94e-05
318.15	0.0645	0.003	0.0006561	3.97e-05
318.15	0.0744	0.003	0.0006608	4e-05
318.15	0.0843	0.003	0.0006656	4.03e-05
298.15	0	0.005	0.0009213	5.57e-05
298.15	0.025	0.005	0.000951	5.75e-05
298.15	0.045	0.005	0.0009712	5.87e-05
298.15	0.055	0.005	0.0009807	5.93e-05
298.15	0.065	0.005	0.00099	5.99e-05
298.15	0.075	0.005	0.0010003	6.05e-05
298.15	0.085	0.005	0.0010089	6.1e-05
308.15	0	0.005	0.0007596	4.6e-05
308.15	0.0249	0.005	0.0007807	4.72e-05
308.15	0.0449	0.005	0.0007958	4.82e-05
308.15	0.0548	0.005	0.0008032	4.86e-05
308.15	0.0648	0.005	0.0008111	4.91e-05
308.15	0.0747	0.005	0.0008182	4.95e-05
308.15	0.0847	0.005	0.0008266	5e-05
318.15	0	0.005	0.0006349	3.84e-05
318.15	0.0248	0.005	0.0006506	3.94e-05
318.15	0.0447	0.005	0.0006626	4.01e-05
318.15	0.0546	0.005	0.0006686	4.05e-05
318.15	0.0645	0.005	0.0006749	4.09e-05
318.15	0.0744	0.005	0.0006815	4.13e-05
318.15	0.0843	0.005	0.0006875	4.16e-05

System: N,N,N-trimethyl-1-hexadecanaminium bromide + water; phases: Liquid
Fixed: Pressure, kPa = 100
Property: Mass density, kg/m3 (Liquid); method: Vibrating tube method
Temperature, K	Amount concentration (molarity), mol/dm3 of N,N,N-trimethyl-1-hexadecanaminium bromide	Mass density, kg/m3	uncertainty
298.15	0.001	997.1	0.4
308.15	0.001	994.2	0.4
318.15	0.001	990.6	0.4
298.15	0.003	997.3	0.4
308.15	0.003	994.3	0.4
318.15	0.003	990.7	0.4
298.15	0.005	997.4	0.4
308.15	0.005	994.4	0.4
318.15	0.005	990.8	0.4

System: N,N,N-trimethyl-1-hexadecanaminium bromide + water; phases: Liquid
Fixed: Pressure, kPa = 100
Property: Viscosity, Pa*s (Liquid); method: Capillary tube (Ostwald; Ubbelohde) method
Temperature, K	Amount concentration (molarity), mol/dm3 of N,N,N-trimethyl-1-hexadecanaminium bromide	Viscosity, Pa*s	uncertainty
298.15	0.001	0.0008978	1.89e-05
308.15	0.001	0.0007436	1.58e-05
318.15	0.001	0.0006173	1.32e-05
298.15	0.003	0.0009087	1.92e-05
308.15	0.003	0.0007516	1.59e-05
318.15	0.003	0.0006217	1.32e-05
298.15	0.005	0.0009213	1.94e-05
308.15	0.005	0.0007596	1.61e-05
318.15	0.005	0.0006349	1.35e-05
