Measured thermophysical data. Equilibrated Interfacial Tension Data of the CO2 Water System at High Pressures and Moderate Temperatures
Source: J. Chem. Eng. Data, 2011, 10.1021/je200302h
Compound 1: carbon dioxide, CO2, InChI=1S/CO2/c2-1-3, purity 99%
Compound 2: water, H2O, InChI=1S/H2O/h1H2, purity 99.99%

System: carbon dioxide + water; phases: Liquid, Fluid (supercritical or subcritical phases)
Property: Interfacial tension, N/m (Liquid); method: Drop weight
Pressure, kPa	Temperature, K	Interfacial tension, N/m	uncertainty
10440	313.15	0.02216	0.0006
8380	313.15	0.02223	0.00058
13890	323.15	0.02274	0.00068
20790	333.15	0.0228	0.0006
10440	323.15	0.02305	0.00057
13890	313.15	0.02333	0.00046
13890	333.15	0.02336	0.00051
17340	313.15	0.02341	0.00046
20790	323.15	0.0235	0.0004
17340	333.15	0.02358	0.00069
17340	323.15	0.02427	0.00078
20790	313.15	0.02507	0.00053
8380	298.15	0.02565	0.00042
10440	298.15	0.02515	0.00028
13890	298.15	0.02485	0.00029
17340	298.15	0.0249	0.0003
20790	298.15	0.025	0.001

System: carbon dioxide + water; phases: Liquid, Gas
Property: Surface tension liquid-gas, N/m (Liquid); method: Drop weight
Pressure, kPa	Temperature, K	Surface tension liquid-gas, N/m	uncertainty
8380	323.15	0.03118	0.00076
10440	333.15	0.0317	0.00099
8380	333.15	0.03583	0.00075
5620	298.15	0.03595	0.00055
5620	313.15	0.04217	0.00055
4240	298.15	0.04409	0.0005
5620	323.15	0.04415	0.00046
5620	333.15	0.04584	0.00059
4240	313.15	0.0475	0.00057
4240	323.15	0.05014	0.00071
2860	298.15	0.05025	0.00047
4240	333.15	0.05115	0.0005
2860	313.15	0.05132	0.0005
2860	323.15	0.05423	0.00093
2860	333.15	0.05539	0.00067
1480	313.15	0.05752	0.00102
1480	323.15	0.05916	0.00062
1480	298.15	0.05966	0.00059
1480	333.15	0.06069	0.00057
