Measured thermophysical data. Solubility of H2S in Aqueous Diisopropanolamine + Piperazine Solutions: New Experimental Data and Modeling with the Electrolyte Cubic Square-Well Equation of State
Source: J. Chem. Eng. Data, 2012, 10.1021/je2005243
Compound 1: N-(2-hydroxypropyl)-2-hydroxy-1-propanamine, C6H15NO2, InChI=1S/C6H15NO2/c1-5(8)3-7-4-6(2)9/h5-9H,3-4H2,1-2H3, purity 98%
Compound 2: water, H2O, InChI=1S/H2O/h1H2
Compound 3: hydrogen sulfide, H2S, InChI=1S/H2S/h1H2, purity 99.9%

System: N-(2-hydroxypropyl)-2-hydroxy-1-propanamine + water + hydrogen sulfide; phases: Liquid, Gas
Fixed: Molality, mol/kg of N-(2-hydroxypropyl)-2-hydroxy-1-propanamine = 2.96
Property: Mole fraction of hydrogen sulfide (Liquid); method: pressure drop
Temperature, K	Pressure, kPa	Mole fraction of hydrogen sulfide	uncertainty
313	26	0.0304	0.0015
313	50	0.0375	0.0008
313	102	0.0429	0.0004
313	195	0.0469	0.0003
313	346	0.0507	0.0002
313	554	0.0548	0.0002
313	868	0.06	0.0003
313	1174	0.0649	0.0003
333	47	0.0297	0.0008
333	90	0.0361	0.0006
333	158	0.0411	0.0004
333	258	0.0451	0.0003
333	413	0.0491	0.0004
333	642	0.0529	0.0004
333	978	0.0581	0.0005
333	1315	0.0628	0.0005
353	86	0.0284	0.0006
353	150	0.0342	0.0005
353	234	0.0388	0.0005
353	341	0.0427	0.0006
353	505	0.0468	0.0006
353	736	0.0511	0.0007
353	1453	0.0611	0.0008
