Measured thermophysical data. Electroconductivity of Tetraethylammonium Tetrafluoroborate in Propylene Carbonate at Various Temperatures
Source: J. Chem. Eng. Data, 2011, 10.1021/je200309v
Compound 1: tetraethylammonium tetrafluoroborate, C8H20BF4N, InChI=1S/C8H20N.BF4/c1-5-9(6-2,7-3)8-4;2-1(3,4)5/h5-8H2,1-4H3;/q+1;-1
Compound 2: 4-methyl-1,3-dioxolan-2-one, C4H6O3, InChI=1S/C4H6O3/c1-3-2-6-4(5)7-3/h3H,2H2,1H3

System: 4-methyl-1,3-dioxolan-2-one + tetraethylammonium tetrafluoroborate; phases: Liquid
Fixed: Pressure, kPa = 101
Property: Electrical conductivity, S/m (Liquid); method: Alternating current cell with electrodes
Temperature, K	Molality, mol/kg of tetraethylammonium tetrafluoroborate	Electrical conductivity, S/m	uncertainty
253.15	0.1593	0.1317	0.0013
253.15	0.461	0.2779	0.0028
253.15	0.5658	0.3133	0.0031
253.15	0.7282	0.3523	0.0035
253.15	0.8234	0.3663	0.0037
253.15	0.9666	0.3749	0.0037
253.15	1.1856	0.3593	0.0036
273.15	0.1593	0.239	0.0024
273.15	0.461	0.519	0.0052
273.15	0.5658	0.591	0.0059
273.15	0.7282	0.676	0.0068
273.15	0.8234	0.712	0.0071
273.15	0.9666	0.745	0.0075
273.15	1.1856	0.75	0.0075
273.15	1.4255	0.689	0.007
293.15	0.1593	0.364	0.0036
293.15	0.461	0.812	0.0081
293.15	0.5658	0.929	0.0093
293.15	0.7282	1.069	0.011
293.15	0.8234	1.128	0.011
293.15	0.9666	1.186	0.012
293.15	1.1856	1.201	0.012
293.15	1.4255	1.116	0.011
313.15	0.1593	0.516	0.0052
313.15	0.461	1.162	0.012
313.15	0.5658	1.333	0.013
313.15	0.7282	1.543	0.015
313.15	0.8234	1.635	0.016
313.15	0.9666	1.73	0.017
313.15	1.1856	1.775	0.018
313.15	1.4255	1.686	0.017
333.15	0.1593	0.678	0.0068
333.15	0.461	1.535	0.015
333.15	0.5658	1.764	0.018
333.15	0.7282	2.049	0.02
333.15	0.8234	2.177	0.022
333.15	0.9666	2.314	0.023
333.15	1.1856	2.395	0.024
333.15	1.4255	2.307	0.023
