Measured thermophysical data. Densities, Excess Molar Volumes, and Refractive Properties of the  Binary Mixtures of the Amino Acid Ionic Liquid [bmim][Gly] with  1-Butanol or Isopropanol at T = (298.15 to 313.15) K
Source: J. Chem. Eng. Data, 2011, 10.1021/je200030k
Compound 1: 1-butyl-3-methylimidazolium glycinate, C10H19N3O2, InChI=1S/C8H15N2.C2H5NO2/c1-3-4-5-10-7-6-9(2)8-10;3-1-2(4)5/h6-8H,3-5H2,1-2H3;1,3H2,(H,4,5)/q+1;/p-1
Compound 2: butan-1-ol, C4H10O, InChI=1S/C4H10O/c1-2-3-4-5/h5H,2-4H2,1H3, purity 99%
Compound 3: propan-2-ol, C3H8O, InChI=1S/C3H8O/c1-3(2)4/h3-4H,1-2H3, purity 99%

System: 1-butyl-3-methylimidazolium glycinate; phases: Liquid
Fixed: Pressure, kPa = 101.325
Property: Mass density, kg/m3 (Liquid); method: Vibrating tube method
Temperature, K	Mass density, kg/m3	uncertainty
298.15	1260.26	1.08
303.15	1257.2	1.08
308.15	1254.1	1.08
313.15	1250.77	1.08

System: 1-butyl-3-methylimidazolium glycinate; phases: Liquid
Fixed: Pressure, kPa = 101.325
Property: Refractive index (Na D-line) (Liquid); method: Standard Abbe refractometry
Temperature, K	Refractive index (Na D-line)	uncertainty
298.15	1.52	0.002
303.15	1.519	0.002
308.15	1.517	0.002
313.15	1.517	0.002

System: butan-1-ol; phases: Liquid
Fixed: Pressure, kPa = 101.325
Property: Refractive index (Na D-line) (Liquid); method: Standard Abbe refractometry
Temperature, K	Refractive index (Na D-line)	uncertainty
298.15	1.397	0.002
303.15	1.395	0.002
308.15	1.393	0.002
313.15	1.391	0.002

System: butan-1-ol; phases: Liquid
Fixed: Pressure, kPa = 101.325
Property: Mass density, kg/m3 (Liquid); method: Vibrating tube method
Temperature, K	Mass density, kg/m3	uncertainty
298.15	806	1
303.15	802.4	1
308.15	798.2	1
313.15	794.6	1

System: propan-2-ol; phases: Liquid
Fixed: Pressure, kPa = 101.325
Property: Refractive index (Na D-line) (Liquid); method: Standard Abbe refractometry
Temperature, K	Refractive index (Na D-line)	uncertainty
298.15	1.375	0.002
303.15	1.374	0.002
308.15	1.373	0.002
313.15	1.372	0.002

System: propan-2-ol; phases: Liquid
Fixed: Pressure, kPa = 101.325
Property: Mass density, kg/m3 (Liquid); method: Vibrating tube method
Temperature, K	Mass density, kg/m3	uncertainty
298.15	781.2	1
303.15	774	1
308.15	765.8	1
313.15	757.2	1

System: butan-1-ol + 1-butyl-3-methylimidazolium glycinate; phases: Liquid
Fixed: Pressure, kPa = 101
Property: Refractive index (Na D-line) (Liquid); method: Standard Abbe refractometry
Temperature, K	Mole fraction of 1-butyl-3-methylimidazolium glycinate	Refractive index (Na D-line)	uncertainty
298.15	0.0972	1.418	0.002
298.15	0.2125	1.438	0.002
298.15	0.3041	1.454	0.002
298.15	0.3849	1.465	0.002
298.15	0.4929	1.478	0.002
298.15	0.6103	1.49	0.002
298.15	0.6923	1.497	0.002
298.15	0.8037	1.506	0.002
298.15	0.9129	1.514	0.002
303.15	0.0972	1.417	0.002
303.15	0.2125	1.438	0.002
303.15	0.3041	1.452	0.002
303.15	0.3849	1.463	0.002
303.15	0.4929	1.476	0.002
303.15	0.6103	1.488	0.002
303.15	0.6923	1.496	0.002
303.15	0.8037	1.505	0.002
303.15	0.9129	1.513	0.002
308.15	0.0972	1.415	0.002
308.15	0.2125	1.437	0.002
308.15	0.3041	1.45	0.002
308.15	0.3849	1.461	0.002
308.15	0.4929	1.474	0.002
308.15	0.6103	1.487	0.002
308.15	0.6923	1.495	0.002
308.15	0.8037	1.504	0.002
308.15	0.9129	1.512	0.002
313.15	0.0972	1.413	0.002
313.15	0.2125	1.435	0.002
313.15	0.3041	1.45	0.002
313.15	0.3849	1.461	0.002
313.15	0.4929	1.474	0.002
313.15	0.6103	1.486	0.002
313.15	0.6923	1.495	0.002
313.15	0.8037	1.503	0.002
313.15	0.9129	1.51	0.002

System: butan-1-ol + 1-butyl-3-methylimidazolium glycinate; phases: Liquid
Fixed: Pressure, kPa = 101
Property: Mass density, kg/m3 (Liquid); method: Vibrating tube method
Temperature, K	Mole fraction of 1-butyl-3-methylimidazolium glycinate	Mass density, kg/m3	uncertainty
298.15	0.0972	885.2	1
298.15	0.2125	962.5	1
298.15	0.3041	1014.1	1
298.15	0.3849	1054.3	1
298.15	0.4929	1101.4	1
298.15	0.6103	1146.3	1
298.15	0.6923	1174.2	1
298.15	0.8037	1208.4	1.1
298.15	0.9129	1238.4	1.1
303.15	0.0972	881.7	1
303.15	0.2125	959.1	1
303.15	0.3041	1010.9	1
303.15	0.3849	1051.2	1
303.15	0.4929	1098.4	1
303.15	0.6103	1143.3	1
303.15	0.6923	1171.2	1
303.15	0.8037	1205.4	1.1
303.15	0.9129	1235.4	1.1
308.15	0.0972	878	1
308.15	0.2125	955	1
308.15	0.3041	1007	1
308.15	0.3849	1048	1
308.15	0.4929	1095	1
308.15	0.6103	1140	1
308.15	0.6923	1168	1
308.15	0.8037	1202	1
308.15	0.9129	1232	1
313.15	0.0972	874	1
313.15	0.2125	952	1
313.15	0.3041	1004	1
313.15	0.3849	1044	1
313.15	0.4929	1092	1
313.15	0.6103	1137	1
313.15	0.6923	1165	1
313.15	0.8037	1199	1
313.15	0.9129	1229	1

System: propan-2-ol + 1-butyl-3-methylimidazolium glycinate; phases: Liquid
Fixed: Pressure, kPa = 101
Property: Refractive index (Na D-line) (Liquid); method: Standard Abbe refractometry
Temperature, K	Mole fraction of 1-butyl-3-methylimidazolium glycinate	Refractive index (Na D-line)	uncertainty
298.15	0.0965	1.405	0.002
298.15	0.1992	1.43	0.002
298.15	0.3059	1.451	0.002
298.15	0.3977	1.466	0.002
298.15	0.5115	1.48	0.002
298.15	0.5868	1.488	0.002
298.15	0.7052	1.499	0.002
298.15	0.8117	1.509	0.002
298.15	0.8775	1.514	0.002
303.15	0.0965	1.404	0.002
303.15	0.1992	1.429	0.002
303.15	0.3059	1.45	0.002
303.15	0.3977	1.464	0.002
303.15	0.5115	1.478	0.002
303.15	0.5868	1.487	0.002
303.15	0.7052	1.499	0.002
303.15	0.8117	1.508	0.002
303.15	0.8775	1.513	0.002
308.15	0.0965	1.403	0.002
308.15	0.1992	1.429	0.002
308.15	0.3059	1.449	0.002
308.15	0.3977	1.463	0.002
308.15	0.5115	1.477	0.002
308.15	0.5868	1.486	0.002
308.15	0.7052	1.497	0.002
308.15	0.8117	1.505	0.002
308.15	0.8775	1.51	0.002
313.15	0.0965	1.402	0.002
313.15	0.1992	1.427	0.002
313.15	0.3059	1.449	0.002
313.15	0.3977	1.462	0.002
313.15	0.5115	1.477	0.002
313.15	0.5868	1.485	0.002
313.15	0.7052	1.497	0.002
313.15	0.8117	1.506	0.002
313.15	0.8775	1.511	0.002

System: propan-2-ol + 1-butyl-3-methylimidazolium glycinate; phases: Liquid
Fixed: Pressure, kPa = 101
Property: Mass density, kg/m3 (Liquid); method: Vibrating tube method
Temperature, K	Mole fraction of 1-butyl-3-methylimidazolium glycinate	Mass density, kg/m3	uncertainty
298.15	0.0965	877.6	1
298.15	0.1992	957.8	1
298.15	0.3059	1024.4	1
298.15	0.3977	1071.9	1
298.15	0.5115	1121.6	1
298.15	0.5868	1149.9	1
298.15	0.7052	1188.4	1
298.15	0.8117	1217.5	1.1
298.15	0.8775	1233.5	1.1
303.15	0.0965	870.7	1
303.15	0.1992	951.4	1
303.15	0.3059	1018.6	1
303.15	0.3977	1066.5	1
303.15	0.5115	1116.8	1
303.15	0.5868	1145.4	1
303.15	0.7052	1184.3	1
303.15	0.8117	1213.9	1.1
303.15	0.8775	1230	1.1
308.15	0.0965	863	1
308.15	0.1992	944.2	1
308.15	0.3059	1012	1
308.15	0.3977	1060.6	1
308.15	0.5115	1111.4	1
308.15	0.5868	1140.5	1
308.15	0.7052	1180	1
308.15	0.8117	1210	1.1
308.15	0.8775	1226.4	1.06
313.15	0.0965	854.7	1
313.15	0.1992	936.6	1
313.15	0.3059	1005	1
313.15	0.3977	1054.1	1
313.15	0.5115	1105.8	1
313.15	0.5868	1135.3	1
313.15	0.7052	1175.4	1
313.15	0.8117	1205.9	1.1
313.15	0.8775	1222.6	1.1
