Measured thermophysical data. Measurement and Modeling of Liquid Saturated Properties (Solubility, Density, and Viscosity) of (Ethane + n-Tetradecane) Binary Systems
Source: J. Chem. Eng. Data, 2011, 10.1021/je200575c
Compound 1: ethane, C2H6, InChI=1S/C2H6/c1-2/h1-2H3, purity 99.999%
Compound 2: tetradecane, C14H30, InChI=1S/C14H30/c1-3-5-7-9-11-13-14-12-10-8-6-4-2/h3-14H2,1-2H3, purity 99%

System: tetradecane; phases: Liquid
Property: Mass density, kg/m3 (Liquid); method: Vibrating tube method
Temperature, K	Pressure, kPa	Mass density, kg/m3	uncertainty
323.2	1050	737	2
323.2	2020	742	2
323.2	3160	743	2
323.2	4070	744	2
323.2	5060	745	2
323.3	5940	745	2
373.4	2080	707	2
373.4	4050	709	2
373.4	6010	710	2
373.4	7070	711	2
373.5	2970	708	2
373.5	5010	710	2
373.6	1010	706	2
422.5	1080	672	2
422.5	2140	673	2
422.6	3020	675	2
422.6	4020	676	2
422.6	5040	677	2
422.6	6050	679	2
422.7	7000	680	2
422.7	8000	681	2

System: ethane + tetradecane; phases: Liquid, Gas
Property: Viscosity, Pa*s (Liquid); method: Moving piston method
Temperature, K	Pressure, kPa	Viscosity, Pa*s	uncertainty
323.2	1050	0.00086	9e-05
323.2	2020	0.00063	6e-05
323.2	3160	0.00045	5e-05
323.2	4070	0.00032	3e-05
323.2	5060	0.00021	2e-05
323.3	5940	0.00013	1e-05
373.4	2080	0.00046	5e-05
373.4	4050	0.00034	3e-05
373.4	6010	0.00026	3e-05
373.4	7070	0.00022	2e-05
373.5	2970	0.00041	4e-05
373.5	5010	0.0003	3e-05
373.6	1010	0.00053	5e-05
422.5	1080	0.00034	3e-05
422.5	2140	0.00032	3e-05
422.6	3020	0.00029	3e-05
422.6	4020	0.00027	3e-05
422.6	5040	0.00024	2e-05
422.6	6050	0.00022	2e-05
422.7	7000	0.00021	2e-05
422.7	8000	0.00018	2e-05

System: ethane + tetradecane; phases: Liquid, Gas
Property: Mass density, kg/m3 (Liquid); method: Vibrating tube method
Temperature, K	Pressure, kPa	Mass density, kg/m3	uncertainty
323.2	1050	719	2
323.2	2020	695	2
323.2	3160	661	2
323.2	4070	632	2
323.2	5060	579	3
323.3	5940	503	3
373.4	2080	677	2
373.4	4050	647	2
373.4	6010	611	2
373.4	7070	590	2
373.5	2970	664	2
373.5	5010	631	2
373.6	1010	691	2
422.5	1080	660	2
422.5	2140	648	2
422.6	3020	639	2
422.6	4020	628	2
422.6	5040	615	2
422.6	6050	604	2
422.7	7000	590	2
422.7	8000	576	2

System: ethane + tetradecane; phases: Liquid, Gas
Property: Mole fraction of ethane (Liquid); method: CHROM:UFactor:4
Temperature, K	Pressure, kPa	Mole fraction of ethane	uncertainty
323.2	1050	0.225	0.008
323.2	2020	0.402	0.013
323.2	3160	0.572	0.014
323.2	4070	0.668	0.011
323.2	5060	0.791	0.007
323.3	5940	0.878	0.005
373.4	2080	0.259	0.008
373.4	4050	0.449	0.014
373.4	6010	0.594	0.013
373.4	7070	0.658	0.011
373.5	2970	0.352	0.011
373.5	5010	0.519	0.015
373.6	1010	0.121	0.005
422.5	1080	0.102	0.004
422.5	2140	0.201	0.007
422.6	3020	0.272	0.009
422.6	4020	0.345	0.011
422.6	5040	0.417	0.013
422.6	6050	0.47	0.015
422.7	7000	0.525	0.015
422.7	8000	0.575	0.013
