Measured thermophysical data. Densities and Speeds of Sound in L-Leucine/L-Isoleucine + Aqueous K2SO4/KNO3 Systems at (298.15 to 323.15) K
Source: J. Chem. Eng. Data, 2012, 10.1021/je200146j
Compound 1: L-leucine, C6H13NO2, InChI=1S/C6H13NO2/c1-4(2)3-5(7)6(8)9/h4-5H,3,7H2,1-2H3,(H,8,9)/t5-/m0/s1, purity 99%
Compound 2: water, H2O, InChI=1S/H2O/h1H2, purity 99.8%
Compound 3: potassium sulfate, K2O4S, InChI=1S/2K.H2O4S/c;;1-5(2,3)4/h;;(H2,1,2,3,4)/q2*+1;/p-2, purity 99%
Compound 4: potassium nitrate, KNO3, InChI=1S/K.NO3/c;2-1(3)4/q+1;-1, purity 99%
Compound 5: 2-amino-3-methylpentanoic acid, C6H13NO2, InChI=1S/C6H13NO2/c1-3-4(2)5(7)6(8)9/h4-5H,3,7H2,1-2H3,(H,8,9)/t4-,5-/m0/s1, purity 99%

System: L-leucine + water + potassium sulfate; phases: Liquid
Fixed: Pressure, kPa = 101
Fixed: Solvent: Molality, mol/kg of potassium sulfate = 0.512
Property: Mass density, kg/m3 (Liquid); method: Vibrating tube method
Temperature, K	Molality, mol/kg of L-leucine	Mass density, kg/m3	uncertainty
298.15	0	1063.81	1.013
298.15	0.0188	1064.067	1.013
298.15	0.0378	1064.312	1.013
298.15	0.0568	1064.603	1.013
298.15	0.0759	1064.844	1.013
298.15	0.0957	1064.954	1.013
298.15	0.1143	1065.148	1.013
303.15	0	1062.02	1.013
303.15	0.0188	1062.275	1.013
303.15	0.0378	1062.517	1.013
303.15	0.0568	1062.806	1.013
303.15	0.0759	1063.045	1.013
303.15	0.0957	1063.154	1.013
303.15	0.1143	1063.343	1.013
308.15	0	1060.06	1.013
308.15	0.0188	1060.313	1.013
308.15	0.0378	1060.553	1.013
308.15	0.0568	1060.84	1.013
308.15	0.0759	1061.078	1.013
308.15	0.0957	1061.186	1.013
308.15	0.1143	1061.373	1.013
313.15	0	1057.74	1.012
313.15	0.0188	1057.993	1.012
313.15	0.0378	1058.232	1.012
313.15	0.0568	1058.518	1.012
313.15	0.0759	1058.754	1.012
313.15	0.0957	1058.861	1.012
313.15	0.1143	1059.048	1.012
318.15	0	1055.14	1.012
318.15	0.0188	1055.393	1.012
318.15	0.0378	1055.629	1.012
318.15	0.0568	1055.922	1.012
318.15	0.0759	1056.15	1.012
318.15	0.0957	1056.259	1.012
318.15	0.1143	1056.446	1.012
323.15	0	1052.95	1.012
323.15	0.0188	1053.202	1.012
323.15	0.0378	1053.436	1.012
323.15	0.0568	1053.721	1.012
323.15	0.0759	1053.955	1.012
323.15	0.0957	1054.066	1.012
323.15	0.1143	1054.249	1.012

System: L-leucine + water + potassium sulfate; phases: Liquid
Fixed: Pressure, kPa = 101
Fixed: Solvent: Molality, mol/kg of potassium sulfate = 0.512
Property: Speed of sound, m/s (Liquid); method: Sing-around technique in a fixed-path interferometer
Temperature, K	Molality, mol/kg of L-leucine	Speed of sound, m/s	uncertainty
298.15	0	1563.6	4.1
298.15	0.0188	1564.7	4.1
298.15	0.0378	1566.3	4.1
298.15	0.0568	1568.3	4.1
298.15	0.0759	1570.9	4.1
298.15	0.0957	1573.3	4.1
298.15	0.1143	1576	4.1
303.15	0	1571.6	4.1
303.15	0.0188	1574	4.1
303.15	0.0378	1576.2	4.1
303.15	0.0568	1578.3	4.1
303.15	0.0759	1580.6	4.1
303.15	0.0957	1582.8	4.1
303.15	0.1143	1585.3	4.1
308.15	0	1580.3	4.1
308.15	0.0188	1582.5	4.1
308.15	0.0378	1584.5	4.1
308.15	0.0568	1586.5	4.1
308.15	0.0759	1588.9	4.1
308.15	0.0957	1590.9	4.1
308.15	0.1143	1593.2	4.1
313.15	0	1587.6	4.1
313.15	0.0188	1589.7	4.1
313.15	0.0378	1591.6	4.1
313.15	0.0568	1593.6	4.1
313.15	0.0759	1595.5	4.1
313.15	0.0957	1597.7	4.1
313.15	0.1143	1599.9	4.1
318.15	0	1593.5	4.1
318.15	0.0188	1595.6	4.1
318.15	0.0378	1597.4	4.1
318.15	0.0568	1599.5	4.1
318.15	0.0759	1601.5	4.1
318.15	0.0957	1603.2	4.1
318.15	0.1143	1605.2	4.1
323.15	0	1598.3	4.1
323.15	0.0188	1600.2	4.1
323.15	0.0378	1602.1	4.1
323.15	0.0568	1604.1	4.1
323.15	0.0759	1605.9	4.1
323.15	0.0957	1607.4	4.1
323.15	0.1143	1609.4	4.1

System: L-leucine + water + potassium nitrate; phases: Liquid
Fixed: Pressure, kPa = 101
Fixed: Solvent: Molality, mol/kg of potassium nitrate = 0.512
Property: Mass density, kg/m3 (Liquid); method: Vibrating tube method
Temperature, K	Molality, mol/kg of L-leucine	Mass density, kg/m3	uncertainty
298.15	0	1027.984	1.01
298.15	0.0195	1028.359	1.01
298.15	0.0398	1028.741	1.01
298.15	0.0588	1029.102	1.01
298.15	0.0786	1029.453	1.01
298.15	0.0984	1029.788	1.01
298.15	0.1183	1030.161	1.01
303.15	0	1026.225	1.01
303.15	0.0195	1026.598	1.01
303.15	0.0398	1026.977	1.01
303.15	0.0588	1027.335	1.01
303.15	0.0786	1027.683	1.01
303.15	0.0984	1028.016	1.01
303.15	0.1183	1028.387	1.01
308.15	0	1024.102	1.01
308.15	0.0195	1024.472	1.01
308.15	0.0398	1024.84	1.01
308.15	0.0588	1025.207	1.01
308.15	0.0786	1025.547	1.01
308.15	0.0984	1025.883	1.01
308.15	0.1183	1026.257	1.01
313.15	0	1022.05	1.009
313.15	0.0195	1022.437	1.01
313.15	0.0398	1022.809	1.01
313.15	0.0588	1023.169	1.01
313.15	0.0786	1023.511	1.01
313.15	0.0984	1023.841	1.01
313.15	0.1183	1024.208	1.01
318.15	0	1020.2	1.009
318.15	0.0195	1020.496	1.009
318.15	0.0398	1020.86	1.009
318.15	0.0588	1021.217	1.009
318.15	0.0786	1021.562	1.009
318.15	0.0984	1021.891	1.01
318.15	0.1183	1022.257	1.01
323.15	0	1018.2	1.009
323.15	0.0195	1018.507	1.009
323.15	0.0398	1018.858	1.009
323.15	0.0588	1019.227	1.009
323.15	0.0786	1019.561	1.009
323.15	0.0984	1019.897	1.009
323.15	0.1183	1020.262	1.009

System: L-leucine + water + potassium nitrate; phases: Liquid
Fixed: Pressure, kPa = 101
Fixed: Solvent: Molality, mol/kg of potassium nitrate = 0.512
Property: Speed of sound, m/s (Liquid); method: Sing-around technique in a fixed-path interferometer
Temperature, K	Molality, mol/kg of L-leucine	Speed of sound, m/s	uncertainty
298.15	0	1517.8	4.1
298.15	0.0195	1518.9	4.1
298.15	0.0398	1520	4.1
298.15	0.0588	1522.3	4.1
298.15	0.0786	1524.8	4.1
298.15	0.0984	1526.9	4.1
298.15	0.1183	1528.9	4.1
303.15	0	1526.8	4.1
303.15	0.0195	1528.7	4.1
303.15	0.0398	1530.9	4.1
303.15	0.0588	1533	4.1
303.15	0.0786	1535.2	4.1
303.15	0.0984	1537.2	4.1
303.15	0.1183	1539.4	4.1
308.15	0	1536.3	4.1
308.15	0.0195	1538.1	4.1
308.15	0.0398	1540.1	4.1
308.15	0.0588	1542.2	4.1
308.15	0.0786	1544.3	4.1
308.15	0.0984	1546.2	4.1
308.15	0.1183	1548.3	4.1
313.15	0	1544.4	4.1
313.15	0.0195	1546.2	4.1
313.15	0.0398	1548.1	4.1
313.15	0.0588	1550.1	4.1
313.15	0.0786	1551.9	4.1
313.15	0.0984	1553.8	4.1
313.15	0.1183	1555.8	4.1
318.15	0	1551.1	4.1
318.15	0.0195	1553.2	4.1
318.15	0.0398	1554.8	4.1
318.15	0.0588	1556.5	4.1
318.15	0.0786	1558.2	4.1
318.15	0.0984	1559.9	4.1
318.15	0.1183	1561.9	4.1
323.15	0	1556.6	4.1
323.15	0.0195	1558.4	4.1
323.15	0.0398	1559.9	4.1
323.15	0.0588	1561.5	4.1
323.15	0.0786	1563.3	4.1
323.15	0.0984	1564.9	4.1
323.15	0.1183	1566.2	4.1

System: 2-amino-3-methylpentanoic acid + water + potassium sulfate; phases: Liquid
Fixed: Pressure, kPa = 101
Fixed: Solvent: Molality, mol/kg of potassium sulfate = 0.512
Property: Mass density, kg/m3 (Liquid); method: Vibrating tube method
Temperature, K	Molality, mol/kg of 2-amino-3-methylpentanoic acid	Mass density, kg/m3	uncertainty
298.15	0	1063.81	1.013
298.15	0.0188	1064.146	1.013
298.15	0.0377	1064.469	1.013
298.15	0.0567	1064.839	1.013
298.15	0.0758	1065.123	1.013
298.15	0.0952	1065.418	1.013
298.15	0.1142	1065.753	1.013
303.15	0	1062.02	1.013
303.15	0.0188	1062.35	1.013
303.15	0.0377	1062.666	1.013
303.15	0.0567	1063.035	1.013
303.15	0.0758	1063.322	1.013
303.15	0.0952	1063.611	1.013
303.15	0.1142	1063.838	1.013
308.15	0	1060.06	1.013
308.15	0.0188	1060.379	1.013
308.15	0.0377	1060.695	1.013
308.15	0.0567	1061.063	1.013
308.15	0.0758	1061.35	1.013
308.15	0.0952	1061.634	1.013
308.15	0.1142	1061.858	1.013
313.15	0	1057.74	1.013
313.15	0.0188	1058.065	1.012
313.15	0.0377	1058.372	1.012
313.15	0.0567	1058.736	1.013
313.15	0.0758	1059.021	1.012
313.15	0.0952	1059.289	1.012
313.15	0.1142	1059.525	1.012
318.15	0	1055.14	1.012
318.15	0.0188	1055.461	1.012
318.15	0.0377	1055.774	1.012
318.15	0.0567	1056.132	1.012
318.15	0.0758	1056.411	1.012
318.15	0.0952	1056.679	1.012
318.15	0.1142	1056.897	1.012
323.15	0	1052.95	1.012
323.15	0.0188	1053.268	1.012
323.15	0.0377	1053.577	1.012
323.15	0.0567	1053.934	1.012
323.15	0.0758	1054.21	1.012
323.15	0.0952	1054.477	1.012
323.15	0.1142	1054.622	1.012

System: 2-amino-3-methylpentanoic acid + water + potassium sulfate; phases: Liquid
Fixed: Pressure, kPa = 101
Fixed: Solvent: Molality, mol/kg of potassium sulfate = 0.512
Property: Speed of sound, m/s (Liquid); method: Sing-around technique in a fixed-path interferometer
Temperature, K	Molality, mol/kg of 2-amino-3-methylpentanoic acid	Speed of sound, m/s	uncertainty
298.15	0	1563.6	4.1
298.15	0.0188	1565.2	4.1
298.15	0.0377	1567.2	4.1
298.15	0.0567	1569.3	4.1
298.15	0.0758	1571.3	4.1
298.15	0.0952	1573.4	4.1
298.15	0.1142	1575.7	4.1
303.15	0	1571.6	4.1
303.15	0.0188	1573.4	4.1
303.15	0.0377	1575.3	4.1
303.15	0.0567	1577.2	4.1
303.15	0.0758	1579.8	4.1
303.15	0.0952	1581.4	4.1
303.15	0.1142	1583.2	4.1
308.15	0	1580.3	4.1
308.15	0.0188	1582.6	4.1
308.15	0.0377	1585.2	4.1
308.15	0.0567	1587.3	4.1
308.15	0.0758	1589.2	4.1
308.15	0.0952	1591.4	4.1
308.15	0.1142	1593.1	4.1
313.15	0	1587.6	4.1
313.15	0.0188	1589.8	4.1
313.15	0.0377	1591.9	4.1
313.15	0.0567	1593.9	4.1
313.15	0.0758	1595.9	4.1
313.15	0.0952	1598	4.1
313.15	0.1142	1599.8	4.1
318.15	0	1593.5	4.1
318.15	0.0188	1595.7	4.1
318.15	0.0377	1597.8	4.1
318.15	0.0567	1599.9	4.1
318.15	0.0758	1601.7	4.1
318.15	0.0952	1603.7	4.1
318.15	0.1142	1605.5	4.1
323.15	0	1598.3	4.1
323.15	0.0188	1600.3	4.1
323.15	0.0377	1602.6	4.1
323.15	0.0567	1604.5	4.1
323.15	0.0758	1606.8	4.1
323.15	0.0952	1608.7	4.1
323.15	0.1142	1610.9	4.1

System: 2-amino-3-methylpentanoic acid + water + potassium nitrate; phases: Liquid
Fixed: Pressure, kPa = 101
Fixed: Solvent: Molality, mol/kg of potassium nitrate = 0.512
Property: Mass density, kg/m3 (Liquid); method: Vibrating tube method
Temperature, K	Molality, mol/kg of 2-amino-3-methylpentanoic acid	Mass density, kg/m3	uncertainty
298.15	0	1027.984	1.01
298.15	0.0194	1028.435	1.01
298.15	0.0397	1028.876	1.01
298.15	0.0587	1029.303	1.01
298.15	0.0785	1029.758	1.01
298.15	0.0983	1030.172	1.01
298.15	0.1182	1030.577	1.01
303.15	0	1026.225	1.01
303.15	0.0194	1026.672	1.01
303.15	0.0397	1027.112	1.01
303.15	0.0587	1027.536	1.01
303.15	0.0785	1027.989	1.01
303.15	0.0983	1028.398	1.01
303.15	0.1182	1028.801	1.01
308.15	0	1024.102	1.01
308.15	0.0194	1024.545	1.01
308.15	0.0397	1024.985	1.01
308.15	0.0587	1025.407	1.01
308.15	0.0785	1025.855	1.01
308.15	0.0983	1026.264	1.01
308.15	0.1182	1026.651	1.01
313.15	0	1022.05	1.01
313.15	0.0194	1022.665	1.01
313.15	0.0397	1023.103	1.01
313.15	0.0587	1023.517	1.01
313.15	0.0785	1023.967	1.01
313.15	0.0983	1024.379	1.01
313.15	0.1182	1024.747	1.01
318.15	0	1020.2	1.01
318.15	0.0194	1020.722	1.01
318.15	0.0397	1021.155	1.01
318.15	0.0587	1021.564	1.01
318.15	0.0785	1022.017	1.01
318.15	0.0983	1022.429	1.01
318.15	0.1182	1022.787	1.01
323.15	0	1018.2	1.01
323.15	0.0194	1018.774	1.009
323.15	0.0397	1019.152	1.009
323.15	0.0587	1019.628	1.009
323.15	0.0785	1020.066	1.009
323.15	0.0983	1020.479	1.009
323.15	0.1182	1020.825	1.009

System: 2-amino-3-methylpentanoic acid + water + potassium nitrate; phases: Liquid
Fixed: Pressure, kPa = 101
Fixed: Solvent: Molality, mol/kg of potassium nitrate = 0.512
Property: Speed of sound, m/s (Liquid); method: Sing-around technique in a fixed-path interferometer
Temperature, K	Molality, mol/kg of 2-amino-3-methylpentanoic acid	Speed of sound, m/s	uncertainty
298.15	0	1517.8	4.1
298.15	0.0194	1519.2	4.1
298.15	0.0397	1520.9	4.1
298.15	0.0587	1523.1	4.1
298.15	0.0785	1525.2	4.1
298.15	0.0983	1527.3	4.1
298.15	0.1182	1529.4	4.1
303.15	0	1526.8	4.1
303.15	0.0194	1530.1	4.1
303.15	0.0397	1532.7	4.1
303.15	0.0587	1534.6	4.1
303.15	0.0785	1536.7	4.1
303.15	0.0983	1538.6	4.1
303.15	0.1182	1540.4	4.1
308.15	0	1536.3	4.1
308.15	0.0194	1538.4	4.1
308.15	0.0397	1540.7	4.1
308.15	0.0587	1542.5	4.1
308.15	0.0785	1544.6	4.1
308.15	0.0983	1546.5	4.1
308.15	0.1182	1548.7	4.1
313.15	0	1544.4	4.1
313.15	0.0194	1546.6	4.1
313.15	0.0397	1548.5	4.1
313.15	0.0587	1550.2	4.1
313.15	0.0785	1552.2	4.1
313.15	0.0983	1554.6	4.1
313.15	0.1182	1556.2	4.1
318.15	0	1551.1	4.1
318.15	0.0194	1553.3	4.1
318.15	0.0397	1555.6	4.1
318.15	0.0587	1557.6	4.1
318.15	0.0785	1559.5	4.1
318.15	0.0983	1561.3	4.1
318.15	0.1182	1563.3	4.1
323.15	0	1556.6	4.1
323.15	0.0194	1558.6	4.1
323.15	0.0397	1560.6	4.1
323.15	0.0587	1562.8	4.1
323.15	0.0785	1564.6	4.1
323.15	0.0983	1566.3	4.1
323.15	0.1182	1568.2	4.1

System: water + potassium sulfate; phases: Liquid
Fixed: Pressure, kPa = 101
Fixed: Molality, mol/kg of potassium sulfate = 0.512
Property: Mass density, kg/m3 (Liquid); method: Vibrating tube method
Temperature, K	Mass density, kg/m3	uncertainty
298.15	1063.81	1.003
303.15	1062.02	1.002
308.15	1060.06	1.002
313.15	1057.74	1.002
318.15	1055.14	1.002
323.15	1052.95	1.002

System: water + potassium sulfate; phases: Liquid
Fixed: Pressure, kPa = 101
Fixed: Molality, mol/kg of potassium sulfate = 0.512
Property: Speed of sound, m/s (Liquid); method: Sing-around technique in a fixed-path interferometer
Temperature, K	Speed of sound, m/s	uncertainty
298.15	1563.6	4.1
303.15	1571.6	4.1
308.15	1580.3	4.1
313.15	1587.6	4.1
318.15	1593.5	4.1
323.15	1598.3	4.1

System: water + potassium nitrate; phases: Liquid
Fixed: Pressure, kPa = 101
Fixed: Molality, mol/kg of potassium nitrate = 0.512
Property: Mass density, kg/m3 (Liquid); method: Vibrating tube method
Temperature, K	Mass density, kg/m3	uncertainty
298.15	1027.984	1.002
303.15	1026.225	1.001
308.15	1024.102	1.001
313.15	1022.05	1.001
318.15	1020.2	1.001
323.15	1018.2	1.001

System: water + potassium nitrate; phases: Liquid
Fixed: Pressure, kPa = 101
Fixed: Molality, mol/kg of potassium nitrate = 0.512
Property: Speed of sound, m/s (Liquid); method: Sing-around technique in a fixed-path interferometer
Temperature, K	Speed of sound, m/s	uncertainty
298.15	1517.8	4.1
303.15	1526.8	4.1
308.15	1536.3	4.1
313.15	1544.4	4.1
318.15	1551.1	4.1
323.15	1556.6	4.1
