Measured thermophysical data. Thermodynamic Energetics of Charged Micellar Solutions with and  without Salts at the Cloud Point
Source: J. Chem. Eng. Data, 2012, 10.1021/je200909j
Compound 1: tetrabutylammonium dodecyl sulfate, C28H61NO4S, InChI=1S/C16H36N.C12H26O4S/c1-5-9-13-17(14-10-6-2,15-11-7-3)16-12-8-4;1-2-3-4-5-6-7-8-9-10-11-12-16-17(13,14)15/h5-16H2,1-4H3;2-12H2,1H3,(H,13,14,15)/q+1;/p-1, purity 97%
Compound 2: tetrabutylammonium 2-dodecylbenzenesulfonate, C34H65NO3S, InChI=1S/C18H30O3S.C16H36N/c1-2-3-4-5-6-7-8-9-10-11-14-17-15-12-13-16-18(17)22(19,20)21;1-5-9-13-17(14-10-6-2,15-11-7-3)16-12-8-4/h12-13,15-16H,2-11,14H2,1H3,(H,19,20,21);5-16H2,1-4H3/q;+1/p-1, purity 97%
Compound 3: calcium nitrate tetrahydrate, CaH8N2O10, InChI=1S/Ca.2NO3.4H2O/c;2*2-1(3)4;;;;/h;;;4*1H2/q+2;2*-1;;;;, purity 98%
Compound 4: aluminum trinitrate nonahydrate, AlH18N3O18, InChI=1S/Al.3NO3.9H2O/c;3*2-1(3)4;;;;;;;;;/h;;;;9*1H2/q+3;3*-1;;;;;;;;;, purity 98%
Compound 5: water, H2O, InChI=1S/H2O/h1H2, purity 99%

System: water + tetrabutylammonium dodecyl sulfate; phases: Liquid mixture 1, Liquid mixture 2
Fixed: Pressure, kPa = 101
Property: Liquid-liquid equilibrium temperature, K (Liquid mixture 1); method: VISOBS
Mole fraction of tetrabutylammonium dodecyl sulfate	Liquid-liquid equilibrium temperature, K	uncertainty
0.000272	320.5	1
0.000356	319	1
0.000464	316	1
0.000579	315	1
0.000664	314.5	1
0.000773	313	1
0.000928	312	1

System: water + tetrabutylammonium 2-dodecylbenzenesulfonate; phases: Liquid mixture 1, Liquid mixture 2
Fixed: Pressure, kPa = 101
Property: Liquid-liquid equilibrium temperature, K (Liquid mixture 1); method: VISOBS
Mole fraction of tetrabutylammonium 2-dodecylbenzenesulfonate	Liquid-liquid equilibrium temperature, K	uncertainty
9e-05	327.5	1
0.00018	320.5	1
0.00029	318.5	1
0.00037	317.5	1
0.00045	316	1
0.0005	315.5	1
0.00054	314	1
0.00064	313.5	1

System: water + calcium nitrate tetrahydrate + tetrabutylammonium dodecyl sulfate; phases: Liquid mixture 1, Liquid mixture 2
Fixed: Mole fraction of tetrabutylammonium dodecyl sulfate = 0.00054
Fixed: Pressure, kPa = 101
Property: Liquid-liquid equilibrium temperature, K (Liquid mixture 1); method: VISOBS
Mole fraction of calcium nitrate tetrahydrate	Liquid-liquid equilibrium temperature, K	uncertainty
8.1e-05	315.5	1
0.00013	317	1
0.000183	317.8	1
0.000275	318.5	1
0.000367	316.5	1
0.00044	315	1
0.00055	313	1
0.000733	311.5	1
0.000899	310	1

System: water + aluminum trinitrate nonahydrate + tetrabutylammonium dodecyl sulfate; phases: Liquid mixture 1, Liquid mixture 2
Fixed: Mole fraction of tetrabutylammonium dodecyl sulfate = 0.00054
Fixed: Pressure, kPa = 101
Property: Liquid-liquid equilibrium temperature, K (Liquid mixture 1); method: VISOBS
Mole fraction of aluminum trinitrate nonahydrate	Liquid-liquid equilibrium temperature, K	uncertainty
2.39e-05	309.1	1
2.61e-05	309.5	1
3.6e-05	310	1
4.79e-05	308.5	1
5.76e-05	306.9	1
7.2e-05	301.8	1

System: water + calcium nitrate tetrahydrate + tetrabutylammonium 2-dodecylbenzenesulfonate; phases: Liquid mixture 1, Liquid mixture 2
Fixed: Mole fraction of tetrabutylammonium 2-dodecylbenzenesulfonate = 0.00054
Fixed: Pressure, kPa = 101
Property: Liquid-liquid equilibrium temperature, K (Liquid mixture 1); method: VISOBS
Mole fraction of calcium nitrate tetrahydrate	Liquid-liquid equilibrium temperature, K	uncertainty
5.3e-06	312.5	1
5.9e-06	312.5	1
8.5e-06	313.3	1
9.4e-06	312.8	1
1.78e-05	306.5	1
2.66e-05	303.5	1
3.56e-05	297.5	1
4.26e-05	293.5	1

System: water + aluminum trinitrate nonahydrate + tetrabutylammonium 2-dodecylbenzenesulfonate; phases: Liquid mixture 1, Liquid mixture 2
Fixed: Mole fraction of tetrabutylammonium 2-dodecylbenzenesulfonate = 0.00054
Fixed: Pressure, kPa = 101
Property: Liquid-liquid equilibrium temperature, K (Liquid mixture 1); method: VISOBS
Mole fraction of aluminum trinitrate nonahydrate	Liquid-liquid equilibrium temperature, K	uncertainty
9e-07	313.5	1
1.8e-06	313.4	1
3.7e-06	312.2	1
5.63e-06	311.6	1
7.48e-06	311.1	1
9e-06	310.5	1
