Measured thermophysical data. Thermophysical Properties of 1-Ethyl-3-methylimidazolium 1,1,2,2-Tetrafluoroethanesulfonate and 1-Ethyl-3-methylimidazolium Ethylsulfate Ionic Liquids as a Function of Temperature
Source: J. Chem. Eng. Data, 2011, 10.1021/je2004462
Compound 1: 1-ethyl-3-methyl-1H-imidazolium 1,1,2,2-tetrafluoroethane-1-sulfonate, C8H12F4N2O3S, InChI=1S/C6H11N2.C2H2F4O3S/c1-3-8-5-4-7(2)6-8;3-1(4)2(5,6)10(7,8)9/h4-6H,3H2,1-2H3;1H,(H,7,8,9)/q+1;/p-1, purity 99%
Compound 2: 1-ethyl-3-methylimidazolium ethyl sulfate, C8H16N2O4S, InChI=1S/C6H11N2.C2H6O4S/c1-3-8-5-4-7(2)6-8;1-2-6-7(3,4)5/h4-6H,3H2,1-2H3;2H2,1H3,(H,3,4,5)/q+1;/p-1, purity 99%

System: 1-ethyl-3-methyl-1H-imidazolium 1,1,2,2-tetrafluoroethane-1-sulfonate; phases: Liquid, Gas
Property: Surface tension liquid-gas, N/m (Liquid); method: Pendant drop shape
Temperature, K	Surface tension liquid-gas, N/m	uncertainty
303.15	0.04329	0.00047
313.15	0.04245	0.00046
323.15	0.04203	0.00045
333.15	0.04143	0.00045

System: 1-ethyl-3-methyl-1H-imidazolium 1,1,2,2-tetrafluoroethane-1-sulfonate; phases: Liquid
Fixed: Pressure, kPa = 101.325
Property: Viscosity, Pa*s (Liquid); method: CONCYL:UFactor:4
Temperature, K	Viscosity, Pa*s	uncertainty
293.15	0.11743	0.00556
303.15	0.07264	0.00173
313.15	0.04832	0.00087
323.15	0.03394	0.0006
333.15	0.02505	0.00044
343.15	0.01886	0.00033
353.15	0.01474	0.00026

System: 1-ethyl-3-methyl-1H-imidazolium 1,1,2,2-tetrafluoroethane-1-sulfonate; phases: Liquid
Fixed: Pressure, kPa = 101.325
Property: Refractive index (Na D-line) (Liquid); method: Standard Abbe refractometry
Temperature, K	Refractive index (Na D-line)	uncertainty
293.15	1.441	0.00047
303.15	1.43833	0.00047
313.15	1.4357	0.00047
323.15	1.43304	0.00047
333.15	1.43041	0.00047
343.15	1.42777	0.00047
353.15	1.42514	0.00047

System: 1-ethyl-3-methyl-1H-imidazolium 1,1,2,2-tetrafluoroethane-1-sulfonate; phases: Liquid
Fixed: Pressure, kPa = 101.325
Property: Mass density, kg/m3 (Liquid); method: VIBTUB:UFactor:8
Temperature, K	Mass density, kg/m3	uncertainty
293.15	1435.84	2.05
303.15	1427.44	2.02
313.15	1419.04	1.99
323.15	1410.67	1.96
333.15	1402.33	1.93
343.15	1394.02	1.9
353.15	1385.76	1.87

System: 1-ethyl-3-methylimidazolium ethyl sulfate; phases: Liquid, Gas
Property: Surface tension liquid-gas, N/m (Liquid); method: Pendant drop shape
Temperature, K	Surface tension liquid-gas, N/m	uncertainty
303.15	0.04734	0.0005
313.15	0.04667	0.0005
323.15	0.04617	0.00049
333.15	0.04553	0.00049

System: 1-ethyl-3-methylimidazolium ethyl sulfate; phases: Liquid
Fixed: Pressure, kPa = 101.325
Property: Viscosity, Pa*s (Liquid); method: CONCYL:UFactor:4
Temperature, K	Viscosity, Pa*s	uncertainty
293.15	0.12207	0.00603
303.15	0.0751	0.00189
313.15	0.04984	0.0009
323.15	0.03534	0.00062
333.15	0.02593	0.00045
343.15	0.01936	0.00034
353.15	0.01512	0.00026

System: 1-ethyl-3-methylimidazolium ethyl sulfate; phases: Liquid
Fixed: Pressure, kPa = 101.325
Property: Refractive index (Na D-line) (Liquid); method: Standard Abbe refractometry
Temperature, K	Refractive index (Na D-line)	uncertainty
293.15	1.47959	0.00047
303.15	1.47694	0.00047
313.15	1.47429	0.00047
323.15	1.47158	0.00047
333.15	1.46893	0.00047
343.15	1.46625	0.00047
353.15	1.46359	0.00047

System: 1-ethyl-3-methylimidazolium ethyl sulfate; phases: Liquid
Fixed: Pressure, kPa = 101.325
Property: Mass density, kg/m3 (Liquid); method: VIBTUB:UFactor:8
Temperature, K	Mass density, kg/m3	uncertainty
293.15	1241.86	1.32
303.15	1235.06	1.3
313.15	1228.28	1.28
323.15	1221.54	1.25
333.15	1214.84	1.23
343.15	1208.19	1.2
353.15	1201.58	1.18
