Measured thermophysical data. Surface Tension and Density of Ionic Liquid n-Butylpyridinium Heptachlorodialuminate
Source: J. Chem. Eng. Data, 2011, 10.1021/je200471w
Compound 1: N-butylpyridinium heptachlorodialuminate, C9H14Al2Cl7N, InChI=1S/C9H14N.2Al.6ClH.Cl/c1-2-3-7-10-8-5-4-6-9-10;;;;;;;;;/h4-6,8-9H,2-3,7H2,1H3;;;6*1H;/q+1;2*+2;;;;;;;+1/p-6, purity 98%

System: N-butylpyridinium heptachlorodialuminate; phases: Liquid, Gas
Property: Surface tension liquid-gas, N/m (Liquid); method: Maximal bubble pressure
Temperature, K	Surface tension liquid-gas, N/m	uncertainty
298.15	0.0403	0.0006
303.15	0.0401	0.0006
308.15	0.0399	0.0006
313.15	0.0396	0.0006
318.15	0.0392	0.0006
323.15	0.0389	0.0006
328.15	0.0385	0.0006
333.15	0.0382	0.0006

System: N-butylpyridinium heptachlorodialuminate; phases: Liquid
Fixed: Pressure, kPa = 101.325
Property: Mass density, kg/m3 (Liquid); method: Vibrating tube method
Temperature, K	Mass density, kg/m3	uncertainty
298.15	1340.66	1.62
303.15	1336.22	1.61
308.15	1331.79	1.59
313.15	1327.38	1.58
318.15	1322.9	1.57
323.15	1318.3	1.56
328.15	1313.7	1.55
333.15	1309.6	1.54
