Measured thermophysical data. Mixtures of Pyridine and Nicotine with Pyridinium-Based Ionic Liquids
Source: J. Chem. Eng. Data, 2011, 10.1021/je2001446
Compound 1: pyridine, C5H5N, InChI=1S/C5H5N/c1-2-4-6-5-3-1/h1-5H, purity 99.9%
Compound 2: (-)-3-(N-methylpyrrolidino)pyridine, C10H14N2, InChI=1S/C10H14N2/c1-12-7-3-5-10(12)9-4-2-6-11-8-9/h2,4,6,8,10H,3,5,7H2,1H3/t10-/m0/s1, purity 99%
Compound 3: 1-butyl-3-methylpyridinium chloride, C10H16ClN, InChI=1S/C10H16N.ClH/c1-3-4-7-11-8-5-6-10(2)9-11;/h5-6,8-9H,3-4,7H2,1-2H3;1H/q+1;/p-1
Compound 4: 1-hexyl-3-methylpyridinium chloride, C12H20ClN, InChI=1S/C12H20N.ClH/c1-3-4-5-6-9-13-10-7-8-12(2)11-13;/h7-8,10-11H,3-6,9H2,1-2H3;1H/q+1;/p-1
Compound 5: 1-octyl-3-methylpyridinium chloride, C14H24ClN, InChI=1S/C14H24N.ClH/c1-3-4-5-6-7-8-11-15-12-9-10-14(2)13-15;/h9-10,12-13H,3-8,11H2,1-2H3;1H/q+1;/p-1
Compound 6: 1-decyl-3-methylpyridinium chloride, C16H28ClN, InChI=1S/C16H28N.ClH/c1-3-4-5-6-7-8-9-10-13-17-14-11-12-16(2)15-17;/h11-12,14-15H,3-10,13H2,1-2H3;1H/q+1;/p-1
Compound 7: 1-dodecyl-3-methylpyridinium chloride, C18H32ClN, InChI=1S/C18H32N.ClH/c1-3-4-5-6-7-8-9-10-11-12-15-19-16-13-14-18(2)17-19;/h13-14,16-17H,3-12,15H2,1-2H3;1H/q+1;/p-1
Compound 8: 1-tetradecyl-3-methylpyridinium chloride, C20H36ClN, InChI=1S/C20H36N.ClH/c1-3-4-5-6-7-8-9-10-11-12-13-14-17-21-18-15-16-20(2)19-21;/h15-16,18-19H,3-14,17H2,1-2H3;1H/q+1;/p-1
Compound 9: 1-hexadecyl-3-methylpyridinium chloride, C22H40ClN, InChI=1S/C22H40N.ClH/c1-3-4-5-6-7-8-9-10-11-12-13-14-15-16-19-23-20-17-18-22(2)21-23;/h17-18,20-21H,3-16,19H2,1-2H3;1H/q+1;/p-1
Compound 10: 3-methyl-1-octadecylpyridinium chloride, C24H44ClN, InChI=1S/C24H44N.ClH/c1-3-4-5-6-7-8-9-10-11-12-13-14-15-16-17-18-21-25-22-19-20-24(2)23-25;/h19-20,22-23H,3-18,21H2,1-2H3;1H/q+1;/p-1

System: 1-butyl-3-methylpyridinium chloride; phases: Crystal, Liquid, Air at 1 atmosphere
Property: Molar enthalpy of transition or fusion, kJ/mol (Crystal); method: DSC:UFactor:2
Molar enthalpy of transition or fusion, kJ/mol	uncertainty
27.5	3.2

System: 1-butyl-3-methylpyridinium chloride; phases: Crystal, Liquid, Air at 1 atmosphere
Property: Normal melting temperature, K (Crystal); method: DTA:UFactor:2
Normal melting temperature, K	uncertainty
384.5	0.8

System: 1-butyl-3-methylpyridinium chloride; phases: Crystal, Liquid, Air at 1 atmosphere
Property: Normal melting temperature, K (Crystal); method: VISOBS:UFactor:4
Normal melting temperature, K	uncertainty
382.9	2.5

System: 1-hexyl-3-methylpyridinium chloride; phases: Crystal, Liquid, Air at 1 atmosphere
Property: Molar enthalpy of transition or fusion, kJ/mol (Crystal); method: DSC:UFactor:2
Molar enthalpy of transition or fusion, kJ/mol	uncertainty
19.7	3.1

System: 1-hexyl-3-methylpyridinium chloride; phases: Crystal, Liquid, Air at 1 atmosphere
Property: Normal melting temperature, K (Crystal); method: DTA:UFactor:2
Normal melting temperature, K	uncertainty
355.1	0.8

System: 1-hexyl-3-methylpyridinium chloride; phases: Crystal, Liquid, Air at 1 atmosphere
Property: Normal melting temperature, K (Crystal); method: VISOBS:UFactor:4
Normal melting temperature, K	uncertainty
353	2.5

System: 1-octyl-3-methylpyridinium chloride; phases: Crystal, Liquid, Air at 1 atmosphere
Property: Molar enthalpy of transition or fusion, kJ/mol (Crystal); method: DSC:UFactor:2
Molar enthalpy of transition or fusion, kJ/mol	uncertainty
14.9	3.1

System: 1-octyl-3-methylpyridinium chloride; phases: Crystal, Liquid, Air at 1 atmosphere
Property: Normal melting temperature, K (Crystal); method: DTA:UFactor:2
Normal melting temperature, K	uncertainty
353.2	0.8

System: 1-octyl-3-methylpyridinium chloride; phases: Crystal, Liquid, Air at 1 atmosphere
Property: Normal melting temperature, K (Crystal); method: VISOBS:UFactor:4
Normal melting temperature, K	uncertainty
352.3	2.5

System: 1-decyl-3-methylpyridinium chloride; phases: Crystal, Liquid, Air at 1 atmosphere
Property: Molar enthalpy of transition or fusion, kJ/mol (Crystal); method: DSC:UFactor:2
Molar enthalpy of transition or fusion, kJ/mol	uncertainty
14.4	3.1

System: 1-decyl-3-methylpyridinium chloride; phases: Crystal, Liquid, Air at 1 atmosphere
Property: Normal melting temperature, K (Crystal); method: DTA:UFactor:2
Normal melting temperature, K	uncertainty
352.5	0.8

System: 1-decyl-3-methylpyridinium chloride; phases: Crystal, Liquid, Air at 1 atmosphere
Property: Normal melting temperature, K (Crystal); method: VISOBS:UFactor:4
Normal melting temperature, K	uncertainty
348.7	2.5

System: 1-dodecyl-3-methylpyridinium chloride; phases: Crystal, Liquid, Air at 1 atmosphere
Property: Molar enthalpy of transition or fusion, kJ/mol (Crystal); method: DSC:UFactor:2
Molar enthalpy of transition or fusion, kJ/mol	uncertainty
37.1	3.3

System: 1-dodecyl-3-methylpyridinium chloride; phases: Crystal, Liquid, Air at 1 atmosphere
Property: Normal melting temperature, K (Crystal); method: DTA:UFactor:2
Normal melting temperature, K	uncertainty
360.8	0.8

System: 1-dodecyl-3-methylpyridinium chloride; phases: Crystal, Liquid, Air at 1 atmosphere
Property: Normal melting temperature, K (Crystal); method: VISOBS:UFactor:4
Normal melting temperature, K	uncertainty
359.9	2.5

System: 1-tetradecyl-3-methylpyridinium chloride; phases: Crystal, Liquid, Air at 1 atmosphere
Property: Molar enthalpy of transition or fusion, kJ/mol (Crystal); method: DSC:UFactor:2
Molar enthalpy of transition or fusion, kJ/mol	uncertainty
42.7	3.4

System: 1-tetradecyl-3-methylpyridinium chloride; phases: Crystal, Liquid, Air at 1 atmosphere
Property: Normal melting temperature, K (Crystal); method: DTA:UFactor:2
Normal melting temperature, K	uncertainty
366.8	0.8

System: 1-tetradecyl-3-methylpyridinium chloride; phases: Crystal, Liquid, Air at 1 atmosphere
Property: Normal melting temperature, K (Crystal); method: VISOBS:UFactor:4
Normal melting temperature, K	uncertainty
367.7	2.5

System: 1-hexadecyl-3-methylpyridinium chloride; phases: Crystal, Liquid, Air at 1 atmosphere
Property: Molar enthalpy of transition or fusion, kJ/mol (Crystal); method: DSC:UFactor:2
Molar enthalpy of transition or fusion, kJ/mol	uncertainty
40.3	3.4

System: 1-hexadecyl-3-methylpyridinium chloride; phases: Crystal, Liquid, Air at 1 atmosphere
Property: Normal melting temperature, K (Crystal); method: DTA:UFactor:2
Normal melting temperature, K	uncertainty
383	0.8

System: 1-hexadecyl-3-methylpyridinium chloride; phases: Crystal, Liquid, Air at 1 atmosphere
Property: Normal melting temperature, K (Crystal); method: VISOBS:UFactor:4
Normal melting temperature, K	uncertainty
383.1	2.5

System: 3-methyl-1-octadecylpyridinium chloride; phases: Crystal, Liquid, Air at 1 atmosphere
Property: Molar enthalpy of transition or fusion, kJ/mol (Crystal); method: DSC:UFactor:2
Molar enthalpy of transition or fusion, kJ/mol	uncertainty
28.1	3.2

System: 3-methyl-1-octadecylpyridinium chloride; phases: Crystal, Liquid, Air at 1 atmosphere
Property: Normal melting temperature, K (Crystal); method: DTA:UFactor:2
Normal melting temperature, K	uncertainty
385.4	0.8

System: 3-methyl-1-octadecylpyridinium chloride; phases: Crystal, Liquid, Air at 1 atmosphere
Property: Normal melting temperature, K (Crystal); method: VISOBS:UFactor:4
Normal melting temperature, K	uncertainty
386	2.5

System: pyridine + 1-butyl-3-methylpyridinium chloride; phases: Liquid, Crystal
Fixed: Pressure, kPa = 101
Property: Solid-liquid equilibrium temperature, K (Liquid); method: VISOBS:UFactor:16
Mole fraction of 1-butyl-3-methylpyridinium chloride	Solid-liquid equilibrium temperature, K	uncertainty
0.0834	296.8	3
0.1536	306.3	3
0.228	315.9	3
0.3014	325.5	3
0.3861	334.6	3
0.4759	346.5	3
0.5815	356.4	3
0.6998	366.5	3
0.8542	375.1	3
0.9607	380	3

System: pyridine + 1-hexyl-3-methylpyridinium chloride; phases: Liquid, Crystal
Fixed: Pressure, kPa = 101
Property: Solid-liquid equilibrium temperature, K (Liquid); method: VISOBS:UFactor:32
Mole fraction of 1-hexyl-3-methylpyridinium chloride	Solid-liquid equilibrium temperature, K	uncertainty
0.2363	279.4	5
0.3124	289.2	5
0.398	300.1	5
0.4729	311.7	5
0.5525	317.2	5
0.6485	325.8	5
0.7639	332.8	5
0.8957	342.1	5
0.9632	350.2	5

System: pyridine + 1-decyl-3-methylpyridinium chloride; phases: Liquid, Crystal
Fixed: Pressure, kPa = 101
Property: Solid-liquid equilibrium temperature, K (Liquid); method: VISOBS:UFactor:16
Mole fraction of 1-decyl-3-methylpyridinium chloride	Solid-liquid equilibrium temperature, K	uncertainty
0.1885	286.3	3
0.2487	295.5	3
0.2822	302.2	3
0.3452	308.6	3
0.406	317.7	3
0.4918	325.3	3
0.586	333	3
0.662	337	3
0.7483	341.2	3
0.8558	343.6	3
0.9522	345.4	3

System: pyridine + 1-hexadecyl-3-methylpyridinium chloride; phases: Liquid, Crystal
Fixed: Pressure, kPa = 101
Property: Solid-liquid equilibrium temperature, K (Liquid); method: VISOBS:UFactor:32
Mole fraction of 1-hexadecyl-3-methylpyridinium chloride	Solid-liquid equilibrium temperature, K	uncertainty
0.0064	295.4	5
0.0118	299.7	5
0.0209	304.2	5
0.036	310	5
0.0471	312.1	5
0.0795	318.4	5
0.1155	324.6	5
0.1451	330.7	5
0.2283	349.5	5
0.2907	358.3	5
0.3582	363	5
0.4576	368.5	5
0.5084	371	5
0.5733	372.6	5
0.7406	377.7	5
0.8596	381.9	5

System: (-)-3-(N-methylpyrrolidino)pyridine + 1-butyl-3-methylpyridinium chloride; phases: Liquid mixture 1, Liquid mixture 2, Crystal, Air at 1 atmosphere
Property: Quadruple (quintuple) point temperature, K (Liquid mixture 1); method: OTHER:::sMethod:Visual inspection
Quadruple (quintuple) point temperature, K	uncertainty
364.4	3

System: (-)-3-(N-methylpyrrolidino)pyridine + 1-butyl-3-methylpyridinium chloride; phases: Liquid, Crystal
Fixed: Pressure, kPa = 101
Property: Solid-liquid equilibrium temperature, K (Liquid); method: VISOBS:UFactor:16
Mole fraction of 1-butyl-3-methylpyridinium chloride	Solid-liquid equilibrium temperature, K	uncertainty
0.7873	371.9	3
0.918	377.6	3

System: (-)-3-(N-methylpyrrolidino)pyridine + 1-hexyl-3-methylpyridinium chloride; phases: Liquid mixture 1, Liquid mixture 2, Crystal, Air at 1 atmosphere
Property: Quadruple (quintuple) point temperature, K (Liquid mixture 1); method: OTHER::sMethod:Visual inspection, average of SLE observations
Quadruple (quintuple) point temperature, K	uncertainty
335	3

System: (-)-3-(N-methylpyrrolidino)pyridine + 1-hexyl-3-methylpyridinium chloride; phases: Liquid, Crystal
Property: Solid-liquid equilibrium temperature, K (Liquid); method: VISOBS:UFactor:16
Mole fraction of 1-hexyl-3-methylpyridinium chloride	Pressure, kPa	Solid-liquid equilibrium temperature, K	uncertainty
0.0036	101	314.2	3

System: (-)-3-(N-methylpyrrolidino)pyridine + 1-hexyl-3-methylpyridinium chloride; phases: Liquid, Crystal
Fixed: Pressure, kPa = 101
Property: Solid-liquid equilibrium temperature, K (Liquid); method: VISOBS:UFactor:16
Mole fraction of 1-hexyl-3-methylpyridinium chloride	Solid-liquid equilibrium temperature, K	uncertainty
0.6687	340.2	3
0.7177	341.1	3
0.8206	342.8	3
0.9236	349	3

System: (-)-3-(N-methylpyrrolidino)pyridine + 1-decyl-3-methylpyridinium chloride; phases: Liquid, Crystal
Fixed: Pressure, kPa = 101
Property: Solid-liquid equilibrium temperature, K (Liquid); method: VISOBS:UFactor:16
Mole fraction of 1-decyl-3-methylpyridinium chloride	Solid-liquid equilibrium temperature, K	uncertainty
0.0701	293.1	3
0.1071	297.6	3
0.1448	301.3	3
0.1719	304.4	3
0.2029	307.2	3
0.2446	311.6	3
0.3101	315	3
0.3506	318.2	3
0.4103	320.5	3
0.4949	325.7	3
0.5761	331.3	3
0.6727	334.5	3
0.788	338.5	3
0.8794	341.9	3
0.9576	344	3

System: (-)-3-(N-methylpyrrolidino)pyridine + 1-hexadecyl-3-methylpyridinium chloride; phases: Liquid, Crystal
Fixed: Pressure, kPa = 101
Property: Solid-liquid equilibrium temperature, K (Liquid); method: VISOBS:UFactor:32
Mole fraction of 1-hexadecyl-3-methylpyridinium chloride	Solid-liquid equilibrium temperature, K	uncertainty
0.0148	311.4	5
0.0203	312.2	5
0.028	313.9	5
0.0392	315.1	5
0.0538	317.7	5
0.0774	323.4	5
0.1152	329.2	5
0.145	335.9	5
0.185	345.8	5
0.2465	350.1	5
0.3381	352.8	5
0.4342	356.7	5
0.5188	360.2	5
0.6034	362.1	5
0.6683	367.3	5
0.6992	369.6	5
0.751	371.6	5
0.8218	372.6	5
