Measured thermophysical data. Vapor Liquid Equilibrium Data for Methanol + tert-Butylamine + N,N-Dimethylformamide and Constituent Binary Systems at Atmospheric Pressure
Source: J. Chem. Eng. Data, 2012, 10.1021/je201349k
Compound 1: methanol, CH4O, InChI=1S/CH4O/c1-2/h2H,1H3, purity 99.5%
Compound 2: propan-2-ol, C3H8O, InChI=1S/C3H8O/c1-3(2)4/h3-4H,1-2H3, purity 99.5%
Compound 3: 2-methyl-2-propanamine, C4H11N, InChI=1S/C4H11N/c1-4(2,3)5/h5H2,1-3H3, purity 99.5%
Compound 4: dimethylformamide, C3H7NO, InChI=1S/C3H7NO/c1-4(2)3-5/h3H,1-2H3, purity 99.5%

System: methanol; phases: Liquid, Gas
Property: Vapor or sublimation pressure, kPa (Liquid); method: EBULLIO:UFactor:2
Temperature, K	Vapor or sublimation pressure, kPa	uncertainty
337.85	101	0.8585

System: 2-methyl-2-propanamine; phases: Liquid, Gas
Property: Vapor or sublimation pressure, kPa (Liquid); method: EBULLIO:UFactor:2
Temperature, K	Vapor or sublimation pressure, kPa	uncertainty
317.55	101	0.8585

System: dimethylformamide; phases: Liquid, Gas
Property: Vapor or sublimation pressure, kPa (Liquid); method: EBULLIO::UFactor:2
Temperature, K	Vapor or sublimation pressure, kPa	uncertainty
425.15	101	0.8585

System: methanol + propan-2-ol; phases: Liquid, Gas
Fixed: Pressure, kPa = 101
Property: Boiling temperature at pressure P, K (Liquid); method: EBULLIO:UFactor:2
Mole fraction of methanol	Boiling temperature at pressure P, K	uncertainty
0.0427	354.69	0.18
0.0677	354.27	0.18
0.1221	353.43	0.18
0.1506	352.82	0.19
0.2174	351.73	0.19
0.2679	350.78	0.19
0.3131	349.85	0.19
0.3723	348.65	0.19
0.4053	348.01	0.18
0.443	347.57	0.19
0.4917	346.45	0.19
0.5827	344.93	0.18
0.6825	343.25	0.18
0.8039	341.34	0.18
0.8888	340.15	0.18
0.9576	339.07	0.18

System: methanol + propan-2-ol; phases: Gas, Liquid
Fixed: Pressure, kPa = 101
Property: Mole fraction of methanol (Gas); method: Chromatography
Mole fraction of methanol	Mole fraction of methanol	uncertainty
0.0427	0.071	0.0076
0.0677	0.1109	0.0074
0.1221	0.194	0.0075
0.1506	0.2386	0.0073
0.2174	0.3315	0.0074
0.2679	0.3987	0.0075
0.3131	0.4575	0.0077
0.3723	0.5315	0.0076
0.4053	0.5675	0.007
0.443	0.6035	0.0069
0.4917	0.658	0.0064
0.5827	0.7377	0.0059
0.6825	0.8209	0.0053
0.8039	0.9001	0.0048
0.8888	0.9509	0.0046
0.9576	0.9832	0.0044

System: methanol + 2-methyl-2-propanamine; phases: Liquid, Gas
Fixed: Pressure, kPa = 101
Property: Boiling temperature at pressure P, K (Liquid); method: EBULLIO:UFactor:2
Mole fraction of methanol	Boiling temperature at pressure P, K	uncertainty
0	317.55	0.17
0.0438	318.9	0.21
0.093	320.26	0.21
0.1449	321.85	0.21
0.1869	323.2	0.24
0.2288	325.25	0.25
0.272	327.16	0.23
0.3154	328.45	0.23
0.3403	329.86	0.24
0.3933	331.75	0.22
0.4237	332.7	0.22
0.4669	334.18	0.23
0.4908	335.2	0.25
0.5078	336	0.21
0.5556	337.2	0.19
0.5978	338.05	0.19
0.6346	338.66	0.18
0.6736	339.35	0.18
0.6999	339.65	0.18
0.7217	339.97	0.17
0.7253	340.05	0.17
0.7735	340.25	0.17
0.7889	340.15	0.17
0.8071	340.06	0.17
0.8683	339.85	0.17
0.8992	339.46	0.18
0.9277	339.17	0.18
0.9627	338.75	0.18
0.9898	338.45	0.19
1	337.85	0.17

System: methanol + 2-methyl-2-propanamine; phases: Gas, Liquid
Fixed: Pressure, kPa = 101
Property: Mole fraction of methanol (Gas); method: Chromatography
Mole fraction of methanol	Mole fraction of methanol	uncertainty
0	0	
0.0438	0.0054	0.004
0.093	0.0137	0.0041
0.1449	0.0275	0.0042
0.1869	0.0406	0.0042
0.2288	0.0552	0.0047
0.272	0.0919	0.0049
0.3154	0.1156	0.0048
0.3403	0.1349	0.0056
0.3933	0.1885	0.006
0.4237	0.2233	0.0068
0.4669	0.2817	0.0072
0.4908	0.3155	0.0078
0.5078	0.3444	0.0081
0.5556	0.4183	0.0079
0.5978	0.4711	0.0085
0.6346	0.5416	0.0087
0.6736	0.593	0.0082
0.6999	0.6413	0.009
0.7217	0.6812	0.0094
0.7253	0.6982	0.0092
0.7735	0.7857	0.0085
0.7889	0.8122	0.0079
0.8071	0.8405	0.0064
0.8683	0.9067	0.0058
0.8992	0.9351	0.0054
0.9277	0.9585	0.005
0.9627	0.982	0.0047
0.9898	0.9958	0.0042
1	1	

System: dimethylformamide + 2-methyl-2-propanamine; phases: Liquid, Gas
Fixed: Pressure, kPa = 101
Property: Boiling temperature at pressure P, K (Liquid); method: EBULLIO:UFactor:2
Mole fraction of 2-methyl-2-propanamine	Boiling temperature at pressure P, K	uncertainty
0	425.15	0.17
0.0351	393.45	2.99
0.0595	381.45	1.94
0.0735	374.95	1.6
0.0884	369.95	1.2
0.1008	366.85	1
0.1291	359.93	0.79
0.1571	356.03	0.65
0.1947	349.7	0.62
0.2269	345.7	0.48
0.2553	342.85	0.35
0.2766	341.95	0.25
0.2953	341.04	0.26
0.315	340.12	0.33
0.3334	338.38	0.31
0.3887	335.2	0.26
0.5048	329.9	0.24
0.5539	328.65	0.2
0.6253	326.65	0.2
0.732	323.85	0.2
0.7677	322.65	0.2
0.8365	321.25	0.21
0.8516	320.8	0.21
0.9629	318.03	0.19
1	317.55	0.17

System: dimethylformamide + 2-methyl-2-propanamine; phases: Gas, Liquid
Fixed: Pressure, kPa = 101
Property: Mole fraction of 2-methyl-2-propanamine (Gas); method: Chromatography
Mole fraction of 2-methyl-2-propanamine	Mole fraction of 2-methyl-2-propanamine	uncertainty
0	0	
0.0351	0.6117	0.0515
0.0595	0.7405	0.0195
0.0735	0.7903	0.0129
0.0884	0.8276	0.0095
0.1008	0.8475	0.0071
0.1291	0.8862	0.0059
0.1571	0.9059	0.0049
0.1947	0.931	0.005
0.2269	0.941	0.004
0.2553	0.9498	0.0042
0.2766	0.9531	0.0041
0.2953	0.9554	0.0041
0.315	0.9578	0.004
0.3334	0.9594	0.004
0.3887	0.9648	0.004
0.5048	0.9783	0.004
0.5539	0.9767	0.004
0.6253	0.983	0.004
0.732	0.9894	0.004
0.7677	0.9912	0.004
0.8365	0.994	0.004
0.8516	0.9944	0.004
0.9629	0.9986	0.0014
1	1	

System: methanol + dimethylformamide + 2-methyl-2-propanamine; phases: Liquid, Gas
Fixed: Pressure, kPa = 101
Property: Mole fraction of 2-methyl-2-propanamine (Liquid); method: Chromatography
Property: Mole fraction of 2-methyl-2-propanamine (Gas); method: Chromatography
Property: Mole fraction of methanol (Gas); method: Chromatography
Temperature, K	Mole fraction of methanol	Mole fraction of 2-methyl-2-propanamine	uncertainty	Mole fraction of 2-methyl-2-propanamine	uncertainty	Mole fraction of methanol	uncertainty
329.45	0.0291	0.5749	0.0051	0.9739	0.004	0.0142	
331.85	0.0677	0.5294	0.0053	0.967	0.004	0.0261	
336.15	0.162	0.4585	0.0052	0.8758	0.0042	0.1183	
340.15	0.265	0.3811	0.0049	0.7999	0.0045	0.1967	
341.95	0.3335	0.3358	0.0047	0.744	0.0047	0.2526	
343.35	0.3791	0.3026	0.0045	0.664	0.0052	0.3291	
345.35	0.4542	0.244	0.0044	0.5677	0.0057	0.4262	
346.05	0.4663	0.2282	0.0043	0.5095	0.006	0.4823	
346.55	0.5178	0.2178	0.0043	0.4464	0.0057	0.547	
346.95	0.5581	0.1739	0.0042	0.3565	0.0051	0.6378	
347.05	0.6537	0.108	0.0041	0.2022	0.0044	0.7946	
350.05	0.2897	0.1752	0.0042	0.6343	0.0053	0.3337	
351.25	0.3485	0.1649	0.0042	0.5683	0.0057	0.4113	
351.75	0.3846	0.1494	0.0041	0.4992	0.0061	0.4792	
352.65	0.427	0.1201	0.0041	0.4169	0.0055	0.5645	
353.6	0.5139	0.0708	0.004	0.2205	0.0044	0.7642	
353.65	0.592	0.0254	0.004	0.0833	0.0041	0.9022	
362.65	0.4453	0.015	0.004	0.0791	0.0041	0.8761	
363.25	0.367	0.0428	0.004	0.2266	0.0045	0.7244	
365.05	0.3266	0.0449	0.004	0.2755	0.0047	0.6412	
