Measured thermophysical data. 1-Ethyl-3-methylimidazolium Dicyanamide as a Very Efficient  Entrainer for the Extractive Distillation of the Acetone + Methanol  System
Source: J. Chem. Eng. Data, 2012, 10.1021/je200972w
Compound 1: acetone, C3H6O, InChI=1S/C3H6O/c1-3(2)4/h1-2H3, purity 99.8%
Compound 2: methanol, CH4O, InChI=1S/CH4O/c1-2/h2H,1H3, purity 99.8%
Compound 3: 1-ethyl-3-methylimidazolium dicyanamide, C8H11N5, InChI=1S/C6H11N2.C2N3/c1-3-8-5-4-7(2)6-8;3-1-5-2-4/h4-6H,3H2,1-2H3;/q+1;-1, purity 98%

System: acetone; phases: Liquid, Gas
Property: Vapor or sublimation pressure, kPa (Liquid); method: Ebulliometric method (Recirculating still)
Temperature, K	Vapor or sublimation pressure, kPa	uncertainty
329	100	0.7

System: methanol; phases: Liquid, Gas
Property: Vapor or sublimation pressure, kPa (Liquid); method: Ebulliometric method (Recirculating still)
Temperature, K	Vapor or sublimation pressure, kPa	uncertainty
337.42	100	0.7

System: acetone + 1-ethyl-3-methylimidazolium dicyanamide; phases: Liquid, Gas
Fixed: Pressure, kPa = 100
Property: Boiling temperature at pressure P, K (Liquid); method: Ebulliometric method (Recirculating still)
Mole fraction of 1-ethyl-3-methylimidazolium dicyanamide	Boiling temperature at pressure P, K	uncertainty
0	329	0.13
0.0149	329.32	0.13
0.0319	329.71	0.13
0.053	330.13	0.13
0.0534	330.14	0.13
0.0738	330.44	0.13
0.0926	330.76	0.13
0.1113	331.09	0.13
0.129	331.42	0.13
0.1305	331.43	0.13
0.1479	331.72	0.13
0.1648	332.05	0.13
0.1822	332.38	0.13
0.2017	332.82	0.13
0.22	333.29	0.13
0.2222	333.24	0.13
0.2356	333.63	0.13
0.2538	334.07	0.13
0.3308	336.22	0.13
0.3756	337.97	0.13
0.4045	339.14	0.13
0.419	339.91	0.13
0.4438	341.25	0.13
0.46	342.23	0.13
0.4885	343.92	0.14
0.5169	345.9	0.14
0.5212	346.31	0.14
0.5292	346.85	0.14
0.5413	347.93	0.14
0.5453	348.24	0.14
0.5509	348.71	0.14
0.5639	349.68	0.14

System: methanol + 1-ethyl-3-methylimidazolium dicyanamide; phases: Liquid, Gas
Fixed: Pressure, kPa = 100
Property: Boiling temperature at pressure P, K (Liquid); method: Ebulliometric method (Recirculating still)
Mole fraction of 1-ethyl-3-methylimidazolium dicyanamide	Boiling temperature at pressure P, K	uncertainty
0	337.42	0.13
0.0079	337.69	0.13
0.016	337.93	0.13
0.0259	338.25	0.13
0.0356	338.58	0.13
0.058	339.4	0.14
0.0833	340.57	0.13
0.0923	341.01	0.13
0.1013	341.38	0.13
0.111	341.94	0.13
0.1219	342.39	0.13
0.1336	342.99	0.13
0.134	342.99	0.14
0.1441	343.55	0.13
0.1557	344.17	0.13
0.1651	344.73	0.13
0.1758	345.49	0.13
0.1855	345.95	0.13
0.1967	346.75	0.13
0.2084	347.49	0.13
0.2178	348.09	0.13
0.229	348.76	0.15
0.2294	348.76	0.13
0.237	349.36	0.13
0.2447	349.79	0.13
0.2541	350.5	0.13
0.2629	351.09	0.13
0.2716	351.73	0.13
0.2798	352.29	0.13
0.2887	352.85	0.13
0.2993	353.65	0.13
0.3153	355	0.13
0.3433	357.03	0.13
0.3638	358.73	0.13
0.3745	359.59	0.13
0.3852	360.58	0.13
0.3986	361.71	0.13
0.4201	363.55	0.13
0.4294	364.3	0.13
0.4628	367.34	0.14

System: methanol + acetone + 1-ethyl-3-methylimidazolium dicyanamide; phases: Liquid, Gas
Fixed: Pressure, kPa = 100
Property: Boiling temperature at pressure P, K (Liquid); method: Ebulliometric method (Recirculating still)
Mole fraction of 1-ethyl-3-methylimidazolium dicyanamide	Solvent: Mole fraction of acetone	Boiling temperature at pressure P, K	uncertainty
0.053	1	330.13	0.13
0.054	0.933	330	0.13
0.054	0.971	330.06	0.13
0.055	0.817	329.91	0.14
0.055	0.881	329.92	0.13
0.056	0.667	330.13	0.14
0.056	0.744	329.97	0.14
0.057	0.462	331.24	0.14
0.057	0.518	330.79	0.14
0.057	0.585	330.42	0.14
0.058	0	339.4	0.14
0.058	0.028	338.52	0.15
0.058	0.068	337.43	0.15
0.058	0.336	332.55	0.14
0.058	0.397	331.86	0.14
0.059	0.119	336.24	0.15
0.059	0.186	334.87	0.15
0.059	0.259	333.67	0.14
0.129	1	331.42	0.13
0.13	0.974	331.54	0.13
0.132	0.937	331.68	0.13
0.133	0.888	331.94	0.13
0.134	0	342.99	0.14
0.135	0.761	332.49	0.14
0.135	0.832	332.16	0.14
0.136	0.034	341.97	0.16
0.136	0.699	332.84	0.14
0.137	0.075	341.15	0.15
0.137	0.631	333.29	0.14
0.138	0.564	333.85	0.14
0.139	0.127	340.03	0.15
0.139	0.423	335.21	0.14
0.139	0.487	334.52	0.14
0.14	0.196	338.66	0.15
0.14	0.272	337.31	0.15
0.14	0.353	336.16	0.14
0.22	1	333.29	0.13
0.221	0.946	333.71	0.14
0.221	0.976	333.45	0.14
0.223	0.901	334.13	0.14
0.225	0.781	335.28	0.14
0.225	0.844	334.62	0.14
0.226	0.71	336.02	0.14
0.228	0.58	337.54	0.14
0.228	0.646	336.74	0.14
0.229	0	348.76	0.15
0.23	0.19	343.91	0.15
0.23	0.425	339.69	0.14
0.23	0.503	338.56	0.14
0.231	0.261	342.47	0.15
0.232	0.341	341.01	0.15
0.235	0.125	345.6	0.15
0.236	0.075	346.85	0.15
0.237	0.034	348.06	0.15

System: methanol + acetone + 1-ethyl-3-methylimidazolium dicyanamide; phases: Gas, Liquid
Fixed: Pressure, kPa = 100
Property: Mole fraction of acetone (Gas); method: Chromatography
Mole fraction of 1-ethyl-3-methylimidazolium dicyanamide	Solvent: Mole fraction of acetone	Mole fraction of acetone	uncertainty
0.053	1	1	
0.054	0.933	0.949	0.002
0.054	0.971	0.978	0.002
0.055	0.817	0.856	0.002
0.055	0.881	0.908	0.002
0.056	0.667	0.741	0.003
0.056	0.744	0.8	0.003
0.057	0.462	0.583	0.005
0.057	0.518	0.627	0.004
0.057	0.585	0.68	0.004
0.058	0	0	
0.058	0.028	0.058	0.004
0.058	0.068	0.131	0.004
0.058	0.336	0.468	0.005
0.058	0.397	0.525	0.005
0.059	0.119	0.212	0.004
0.059	0.186	0.306	0.004
0.059	0.259	0.392	0.004
0.129	1	1	
0.13	0.974	0.986	0.002
0.132	0.937	0.965	0.002
0.133	0.888	0.936	0.002
0.134	0	0	
0.135	0.761	0.852	0.002
0.135	0.832	0.898	0.002
0.136	0.034	0.069	0.004
0.136	0.699	0.809	0.003
0.137	0.075	0.142	0.004
0.137	0.631	0.759	0.003
0.138	0.564	0.706	0.004
0.139	0.127	0.227	0.004
0.139	0.423	0.587	0.005
0.139	0.487	0.642	0.004
0.14	0.196	0.326	0.004
0.14	0.272	0.428	0.005
0.14	0.353	0.517	0.005
0.22	1	1	
0.221	0.946	0.975	0.002
0.221	0.976	0.989	0.001
0.223	0.901	0.953	0.002
0.225	0.781	0.886	0.002
0.225	0.844	0.923	0.002
0.226	0.71	0.841	0.003
0.228	0.58	0.747	0.003
0.228	0.646	0.797	0.003
0.229	0	0	
0.23	0.19	0.335	0.004
0.23	0.425	0.611	0.005
0.23	0.503	0.685	0.004
0.231	0.261	0.431	0.005
0.232	0.341	0.526	0.006
0.235	0.125	0.238	0.004
0.236	0.075	0.152	0.004
0.237	0.034	0.071	0.004
