Measured thermophysical data. Thermodynamic Properties of 2,3,3,3-Tetrafluoroprop-1-ene (R1234yf): Vapor Pressure and p rho T Measurements and an Equation of State
Source: J. Chem. Eng. Data, 2011, 10.1021/je200369m
Compound 1: 2,3,3,3-tetrafluoro-1-propene, C3H2F4, InChI=1S/C3H2F4/c1-2(4)3(5,6)7/h1H2

System: 2,3,3,3-tetrafluoro-1-propene; phases: Liquid, Gas
Property: Vapor or sublimation pressure, kPa (Liquid); method: Closed cell
Temperature, K	Vapor or sublimation pressure, kPa	uncertainty
250	133.03	0.07
250.002	133.37	0.07
260.003	197.44	0.08
269.998	283.41	0.08
270	283.03	0.08
270.005	283.48	0.08
279.999	395.91	0.1
289.995	538.95	0.11
290	539.38	0.11
290.002	539.42	0.11
299.999	718.68	0.12
309.989	938.57	0.15
309.999	939.28	0.15
309.999	939.3	0.15
311.999	989.09	0.15
314	1040.87	0.15
315.999	1094.4	0.16
319.99	1206.81	0.17
319.994	1207.04	0.17
319.994	1206.38	0.17
320	1207.63	0.17
320	1207.65	0.17
330.001	1529.05	0.19
340.002	1910.25	0.23
350.003	2361.44	0.26
355.004	2616.53	0.29
360.005	2893.8	0.31
362.005	3011.52	0.32
364.005	3133.57	0.34
366.005	3260.23	0.34

System: 2,3,3,3-tetrafluoro-1-propene; phases: Fluid (supercritical or subcritical phases)
Property: Mass density, kg/m3 (Fluid (supercritical or subcritical phases)); method: Buoyancy - hydrostatic balance with magnetic suspension - two sinkers
Temperature, K	Pressure, kPa	Mass density, kg/m3	uncertainty
232.01	1003.6	1297.663	0.163
235.007	1354.4	1290.571	0.163
240.007	5597.9	1288.716	0.163
240.008	1309.7	1276.935	0.161
245.004	5368.7	1275.086	0.162
250.001	9475.2	1273.53	0.162
250.004	2009.3	1251.504	0.159
255.003	5782.7	1249.792	0.159
260.001	9586.2	1248.324	0.159
260.002	1001.4	1219.361	0.156
265	3824.7	1215.48	0.155
270	7264.8	1214.106	0.156
270.002	1753.3	1192.465	0.153
275	4931.1	1190.995	0.153
279.999	1780.9	1161.426	0.15
280	8123.4	1189.714	0.153
284.998	4675.9	1160.065	0.15
289.998	7579.1	1158.847	0.15
289.999	1604.8	1127.358	0.146
294.997	4198.6	1126.002	0.146
299.997	1079.2	1087.768	0.142
299.998	6812.1	1124.848	0.146
304.995	3364.3	1086.434	0.142
309.994	5673.9	1085.352	0.142
309.995	1004	1047.051	0.137
314.994	2511.7	1041.014	0.137
319.994	553.9	26.402	0.006
319.995	973.2	51.726	0.009
320	4518	1040.051	0.137
325.001	1456.3	982.689	0.13
329.994	574	26.306	0.006
329.995	979.2	49.047	0.009
329.998	985.9	49.464	0.009
330.001	3108.2	981.791	0.13
334.999	1592.5	92.726	0.014
335.002	1798	932.524	0.124
335.002	4770.8	980.976	0.13
339.995	593.8	26.211	0.006
339.996	980.9	46.55	0.008
339.998	1640.5	92.612	0.014
339.998	1827.8	110.941	0.017
339.999	993.5	47.298	0.008
340.002	3191.5	931.599	0.124
345.003	4594.1	930.707	0.124
349.996	613.2	26.12	0.006
349.997	985.9	44.652	0.008
350	1003	45.555	0.008
350	1736.8	92.623	0.014
350	2261.9	146.58	0.021
350.004	2461	839.342	0.113
350.004	6005.4	929.873	0.124
355.001	2740.3	801.182	0.108
359.998	632.4	26.029	0.006
359.998	987.2	42.763	0.008
360	2067	110.845	0.017
360	3210.5	772.483	0.104
360.001	2545.4	160.529	0.023
360.002	1005.2	43.637	0.008
360.002	1830.5	92.622	0.014
360.002	2433.6	146.594	0.021
360.002	3638.8	800.559	0.108
360.003	2767.9	197.534	0.028
362.001	2963.7	235.115	0.033
365.002	991.9	42.073	0.008
365.002	3086.7	243.237	0.034
365.003	1876.6	92.619	0.014
365.003	2516.7	146.549	0.022
365.003	4553.7	799.933	0.108
365.005	2892.6	197.483	0.028
368.002	3184.3	243.231	0.034
369.999	651.2	25.938	0.006
370	993.7	41.326	0.008
370.001	2181.6	110.789	0.017
370.002	2866.8	176.561	0.026
370.002	3252.2	244.129	0.035
370.003	996.3	41.436	0.008
370.003	3014.9	197.482	0.028
370.003	3248.6	243.253	0.034
370.003	5480.7	799.34	0.108
370.004	2598.5	146.499	0.022
370.007	1920.5	92.497	0.014
380	667.9	25.765	0.006
380	994.8	39.809	0.007
380.002	2293.9	110.737	0.017
380.004	3047.3	173.864	0.025
380.004	6583.2	770.356	0.105
380.005	3496.1	231.99	0.033
390.001	670.7	25.062	0.006
390.001	987.8	38.088	0.007
390.003	2404.1	110.68	0.017
400.002	683.2	24.785	0.006
400.002	991.4	36.952	0.007
400.004	2512.9	110.64	0.017
