Measured thermophysical data. Density Calculations for (Na, K)BH4 + (Na, K)BO2 + (Na, K)OH + H2O Solutions Used in Hydrogen Power Engineering
Source: J. Chem. Eng. Data, 2011, 10.1021/je200216n
Compound 1: water, H2O, InChI=1S/H2O/h1H2
Compound 2: sodium metaborate, BNaO2, InChI=1S/BO2.Na/c2-1-3;/q-1;+1
Compound 3: potassium metaborate, BKO2, InChI=1S/BO2.K/c2-1-3;/q-1;+1
Compound 4: sodium hydroxide, HNaO, InChI=1S/Na.H2O/h;1H2/q+1;/p-1
Compound 5: sodium tetrahydroborate, BH4Na, InChI=1S/BH4.Na/h1H4;/q-1;+1
Compound 6: potassium hydroxide, HKO, InChI=1S/K.H2O/h;1H2/q+1;/p-1
Compound 7: potassium tetrahydroborate, BH4K, InChI=1S/BH4.K/h1H4;/q-1;+1

System: water + sodium metaborate; phases: Liquid
Fixed: Pressure, kPa = 101
Property: Mass density, kg/m3 (Liquid); method: Pycnometric method
Temperature, K	Mass fraction of sodium metaborate	Mass density, kg/m3	uncertainty
283.1	0.0618	1071	10
283.1	0.0822	1093	10
283.1	0.1164	1138	10
283.1	0.142	1168	10
283.1	0.1731	1216	10
298.15	0.0618	1065	10
298.15	0.0822	1089	10
298.15	0.1164	1132	10
298.15	0.142	1159	10
298.15	0.1731	1207	10
323.15	0.0618	1055	10
323.15	0.0822	1079	10
323.15	0.1164	1120	10
323.15	0.142	1145	10
323.15	0.1731	1190	10

System: water + potassium metaborate; phases: Liquid
Fixed: Pressure, kPa = 101
Property: Mass density, kg/m3 (Liquid); method: Pycnometric method
Temperature, K	Mass fraction of potassium metaborate	Mass density, kg/m3	uncertainty
283.1	0.0764	1079	10
283.1	0.1432	1152	10
283.1	0.2027	1219	10
283.1	0.2294	1259	10
283.1	0.2561	1290	11
283.1	0.2876	1334	11
298.15	0.0764	1072	10
298.15	0.1432	1145	10
298.15	0.2027	1212	10
298.15	0.2294	1248	10
298.15	0.2561	1280	10
298.15	0.2876	1328	11
323.15	0.0764	1062	10
323.15	0.1432	1131	10
323.15	0.2027	1198	10
323.15	0.2294	1234	10
323.15	0.2561	1264	10
323.15	0.2876	1313	11

System: sodium hydroxide + water + sodium tetrahydroborate; phases: Liquid
Fixed: Pressure, kPa = 101
Property: Mass density, kg/m3 (Liquid); method: Pycnometric method
Temperature, K	Mass fraction of sodium tetrahydroborate	Mass fraction of sodium hydroxide	Mass density, kg/m3	uncertainty
283.1	0.02937	0.07246	1086	10
283.1	0.08998	0.06872	1085	10
283.1	0.1528	0.06625	1069	10
283.1	0.16924	0.02982	1059	10
283.1	0.20558	0.06174	1086	10
283.1	0.23463	0.02759	1054	10
298.15	0.02937	0.07246	1077	10
298.15	0.08998	0.06872	1078	10
298.15	0.1528	0.06625	1058	10
298.15	0.16924	0.02982	1050	10
298.15	0.20558	0.06174	1077	10
298.15	0.23463	0.02759	1048	10
323.15	0.02937	0.07246	1067	10
323.15	0.08998	0.06872	1064	10
323.15	0.1528	0.06625	1045	10
323.15	0.16924	0.02982	1039	10
323.15	0.20558	0.06174	1061	10
323.15	0.23463	0.02759	1037	10

System: potassium hydroxide + water + potassium tetrahydroborate; phases: Liquid
Fixed: Pressure, kPa = 101
Property: Mass density, kg/m3 (Liquid); method: Pycnometric method
Temperature, K	Mass fraction of potassium tetrahydroborate	Mass fraction of potassium hydroxide	Mass density, kg/m3	uncertainty
283.1	0.02537	0.00598	1008	10
283.1	0.05029	0.00634	1020	10
283.1	0.07626	0.00683	1011	10
283.1	0.10018	0.00714	1032	10
283.1	0.13239	0.00758	1042	10
298.15	0.02537	0.00598	1009	10
298.15	0.05029	0.00634	1016	10
298.15	0.07626	0.00683	1006	10
298.15	0.10018	0.00714	1020	10
298.15	0.13239	0.00758	1036	10
323.15	0.02537	0.00598	1003	10
323.15	0.05029	0.00634	1008	10
323.15	0.07626	0.00683	995	10
323.15	0.10018	0.00714	1008	10
323.15	0.13239	0.00758	1019	10
