Measured thermophysical data. Article  Isobaric Vapor Liquid Equilibrium for Methanol + Methyl Acetate + 1-Octyl-3-methylimidazolium Hexafluorophosphate at 101.3 kPa
Source: J. Chem. Eng. Data, 2011, 10.1021/je2000588
Compound 1: 1-octyl-3-methylimidazolium hexafluorophosphate, C12H23F6N2P, InChI=1S/C12H23N2.F6P/c1-3-4-5-6-7-8-9-14-11-10-13(2)12-14;1-7(2,3,4,5)6/h10-12H,3-9H2,1-2H3;/q+1;-1, purity 99%
Compound 2: methanol, CH4O, InChI=1S/CH4O/c1-2/h2H,1H3, purity 99.8%
Compound 3: methyl ethanoate, C3H6O2, InChI=1S/C3H6O2/c1-3(4)5-2/h1-2H3, purity 99.8%

System: methyl ethanoate + 1-octyl-3-methylimidazolium hexafluorophosphate; phases: Liquid, Gas
Fixed: Pressure, kPa = 101.3
Property: Boiling temperature at pressure P, K (Liquid); method: Ebulliometric method (Recirculating still)
Mole fraction of 1-octyl-3-methylimidazolium hexafluorophosphate	Boiling temperature at pressure P, K	uncertainty
0.2	337.62	0.44
0.4	349.88	0.54
0.601	368.38	0.65

System: methanol + 1-octyl-3-methylimidazolium hexafluorophosphate; phases: Liquid, Gas
Fixed: Pressure, kPa = 101.3
Property: Boiling temperature at pressure P, K (Liquid); method: Ebulliometric method (Recirculating still)
Mole fraction of 1-octyl-3-methylimidazolium hexafluorophosphate	Boiling temperature at pressure P, K	uncertainty
0.202	341.68	0.15
0.403	345.21	0.18
0.599	350.28	0.2

System: methanol + methyl ethanoate + 1-octyl-3-methylimidazolium hexafluorophosphate; phases: Liquid, Gas
Fixed: Pressure, kPa = 101.3
Property: Mole fraction of 1-octyl-3-methylimidazolium hexafluorophosphate (Liquid); method: Chromatography
Temperature, K	Mole fraction of methanol	Mole fraction of 1-octyl-3-methylimidazolium hexafluorophosphate	uncertainty
333.25	0.241	0.198	0.007
333.32	0.329	0.202	0.007
333.55	0.418	0.2	0.007
333.56	0.154	0.199	0.007
334.36	0.48	0.201	0.007
335.02	0.081	0.201	0.008
335.32	0.558	0.2	0.007
336.62	0.631	0.203	0.008
337.62	0	0.2	0.007
338.52	0.721	0.201	0.008
341.51	0.3	0.402	0.008
341.52	0.236	0.397	0.008
341.53	0.372	0.4	0.008
341.68	0.798	0.202	0.009
341.88	0.429	0.399	0.008
342.05	0.174	0.4	0.008
342.52	0.472	0.401	0.008
343.21	0.119	0.401	0.009
343.42	0.541	0.4	0.009
345.21	0.597	0.403	0.008
345.52	0.054	0.401	0.008
349.88	0	0.4	0.008
350.28	0.401	0.599	0.008
350.45	0.28	0.601	0.008
350.87	0.316	0.601	0.008
351.23	0.239	0.602	0.008
351.23	0.36	0.6	0.008
351.95	0.199	0.602	0.008
353.52	0.16	0.6	0.008
354.47	0.125	0.599	0.008
357.26	0.083	0.603	0.008
361.14	0.04	0.598	0.008
368.38	0	0.601	0.008

System: methanol + methyl ethanoate + 1-octyl-3-methylimidazolium hexafluorophosphate; phases: Gas, Liquid
Fixed: Pressure, kPa = 101.3
Property: Mole fraction of 1-octyl-3-methylimidazolium hexafluorophosphate (Gas); method: Chromatography
Temperature, K	Mole fraction of methanol	Mole fraction of 1-octyl-3-methylimidazolium hexafluorophosphate	uncertainty
333.25	0.38	0.198	0.007
333.32	0.481	0.202	0.007
333.55	0.565	0.2	0.007
333.56	0.285	0.199	0.007
334.36	0.612	0.201	0.008
335.02	0.175	0.201	0.007
335.32	0.683	0.2	0.008
336.62	0.771	0.203	0.008
337.62	0	0.2	0.007
338.52	0.872	0.201	0.009
341.51	0.635	0.402	0.008
341.52	0.54	0.397	0.008
341.53	0.73	0.4	0.008
341.68	1	0.202	0.007
341.88	0.792	0.399	0.009
342.05	0.439	0.4	0.008
342.52	0.841	0.401	0.011
343.21	0.355	0.401	0.008
343.42	0.92	0.4	0.008
345.21	1	0.403	0.008
345.52	0.192	0.401	0.008
349.88	0	0.4	0.008
350.28	1	0.599	0.008
350.45	0.849	0.601	0.008
350.87	0.902	0.601	0.008
351.23	0.783	0.602	0.008
351.23	0.956	0.6	0.008
351.95	0.711	0.602	0.008
353.52	0.634	0.6	0.008
354.47	0.542	0.599	0.008
357.26	0.422	0.603	0.008
361.14	0.241	0.598	0.008
368.38	0	0.601	0.008
