Measured thermophysical data. Densities, Viscosities, Refractive Indexes, and Surface Tensions for Mixtures of Ethanol, Benzyl Acetate, and Benzyl Alcohol
Source: J. Chem. Eng. Data, 2012, 10.1021/je201009c
Compound 1: ethanol, C2H6O, InChI=1S/C2H6O/c1-2-3/h3H,2H2,1H3, purity 99.8%
Compound 2: benzyl ethanoate, C9H10O2, InChI=1S/C9H10O2/c1-8(10)11-7-9-5-3-2-4-6-9/h2-6H,7H2,1H3, purity 99%
Compound 3: benzenemethanol, C7H8O, InChI=1S/C7H8O/c8-6-7-4-2-1-3-5-7/h1-5,8H,6H2, purity 99.5%

System: ethanol; phases: Liquid, Gas
Property: Surface tension liquid-gas, N/m (Liquid); method: Capillary rise
Temperature, K	Surface tension liquid-gas, N/m	uncertainty
293.15	0.0223	0.0004
303.15	0.0214	0.0004
313.15	0.0206	0.0004
323.15	0.0194	0.0004

System: ethanol; phases: Liquid
Fixed: Pressure, kPa = 101.325
Property: Refractive index (Na D-line) (Liquid); method: Standard Abbe refractometry
Temperature, K	Refractive index (Na D-line)	uncertainty
293.15	1.36137	0.00104
303.15	1.35712	0.00104
313.15	1.35292	0.00104
323.15	1.34873	0.00104

System: ethanol; phases: Liquid
Fixed: Pressure, kPa = 100.8
Property: Viscosity, Pa*s (Liquid); method: Falling or rolling sphere viscometry
Temperature, K	Viscosity, Pa*s	uncertainty
293.15	0.001183	1.8e-05
303.15	0.00098	1.8e-05
313.15	0.000822	1.7e-05
323.15	0.000698	1.7e-05

System: ethanol; phases: Liquid
Fixed: Pressure, kPa = 100.8
Property: Mass density, kg/m3 (Liquid); method: Vibrating tube method
Temperature, K	Mass density, kg/m3	uncertainty
293.15	789.1	0.19
303.15	780.76	0.2
313.15	771.99	0.2
323.15	763.03	0.2

System: benzyl ethanoate; phases: Liquid, Gas
Property: Surface tension liquid-gas, N/m (Liquid); method: Capillary rise
Temperature, K	Surface tension liquid-gas, N/m	uncertainty
293.15	0.0373	0.0005
303.15	0.0356	0.0004
313.15	0.0343	0.0004
323.15	0.0332	0.0004

System: benzyl ethanoate; phases: Liquid
Fixed: Pressure, kPa = 101.325
Property: Refractive index (Na D-line) (Liquid); method: Standard Abbe refractometry
Temperature, K	Refractive index (Na D-line)	uncertainty
293.15	1.50245	0.00106
303.15	1.49776	0.00106
313.15	1.49309	0.00106
323.15	1.48834	0.00106

System: benzyl ethanoate; phases: Liquid
Property: Viscosity, Pa*s (Liquid); method: Falling or rolling sphere viscometry
Temperature, K	Pressure, kPa	Viscosity, Pa*s	uncertainty
293.15	100.8	0.002324	2.6e-05
293.15	101	0.002324	2.6e-05
303.15	100.8	0.001836	2.3e-05
303.15	101	0.001836	2.3e-05
313.15	100.8	0.001474	2.1e-05
313.15	101	0.001474	2.1e-05
323.15	100.8	0.001256	2e-05
323.15	101	0.001256	2e-05

System: benzyl ethanoate; phases: Liquid
Property: Mass density, kg/m3 (Liquid); method: Vibrating tube method
Temperature, K	Pressure, kPa	Mass density, kg/m3	uncertainty
293.15	100.8	1055.81	0.3
293.15	101	1055.81	0.3
303.15	100.8	1046.74	0.29
303.15	101	1046.74	0.29
313.15	100.8	1037.42	0.29
313.15	101	1037.42	0.29
323.15	100.8	1027.51	0.28
323.15	101	1027.51	0.28

System: benzenemethanol; phases: Liquid, Gas
Property: Surface tension liquid-gas, N/m (Liquid); method: Capillary rise
Temperature, K	Surface tension liquid-gas, N/m	uncertainty
293.15	0.0392	0.0004
303.15	0.0381	0.0004
313.15	0.0372	0.0004
323.15	0.0363	0.0004

System: benzenemethanol; phases: Liquid
Fixed: Pressure, kPa = 101.325
Property: Refractive index (Na D-line) (Liquid); method: Standard Abbe refractometry
Temperature, K	Refractive index (Na D-line)	uncertainty
293.15	1.54049	0.00104
303.15	1.53635	0.00104
313.15	1.53215	0.00104
323.15	1.52796	0.00104

System: benzenemethanol; phases: Liquid
Property: Viscosity, Pa*s (Liquid); method: Falling or rolling sphere viscometry
Temperature, K	Pressure, kPa	Viscosity, Pa*s	uncertainty
293.15	100.8	0.006287	5.4e-05
293.15	101	0.006287	5.4e-05
303.15	100.8	0.004579	4.1e-05
303.15	101	0.004579	4.1e-05
313.15	100.8	0.003335	3.1e-05
313.15	101	0.003335	3.1e-05
323.15	100.8	0.002545	2.6e-05
323.15	101	0.002545	2.6e-05

System: benzenemethanol; phases: Liquid
Property: Mass density, kg/m3 (Liquid); method: Vibrating tube method
Temperature, K	Pressure, kPa	Mass density, kg/m3	uncertainty
293.15	100.8	1045.44	0.19
293.15	101	1045.44	0.19
303.15	100.8	1037.45	0.18
303.15	101	1037.45	0.18
313.15	100.8	1029.61	0.18
313.15	101	1029.61	0.18
323.15	100.8	1021.5	0.18
323.15	101	1021.5	0.18

System: ethanol + benzyl ethanoate; phases: Liquid, Gas
Property: Surface tension liquid-gas, N/m (Liquid); method: Capillary rise
Temperature, K	Mole fraction of ethanol	Surface tension liquid-gas, N/m	uncertainty
293.15	0	0.0373	0.0005
293.15	0.0502	0.0363	0.0004
293.15	0.1	0.0354	0.0004
293.15	0.1498	0.0344	0.0004
293.15	0.1998	0.0334	0.0004
293.15	0.2499	0.0325	0.0004
293.15	0.2998	0.0316	0.0004
293.15	0.35	0.0308	0.0004
293.15	0.4	0.03	0.0004
293.15	0.4501	0.0293	0.0004
293.15	0.5	0.0286	0.0004
293.15	0.5499	0.0279	0.0004
293.15	0.6	0.0272	0.0004
293.15	0.65	0.0267	0.0004
293.15	0.7	0.0262	0.0004
293.15	0.7499	0.0258	0.0004
293.15	0.7999	0.0252	0.0004
293.15	0.85	0.0245	0.0004
293.15	0.9	0.0238	0.0004
293.15	0.95	0.0231	0.0004
293.15	1	0.0223	0.0004
303.15	0	0.0356	0.0004
303.15	0.0502	0.0348	0.0004
303.15	0.1	0.034	0.0004
303.15	0.1498	0.0332	0.0004
303.15	0.1998	0.0324	0.0004
303.15	0.2499	0.0316	0.0004
303.15	0.2998	0.0308	0.0004
303.15	0.35	0.03	0.0004
303.15	0.4	0.0292	0.0004
303.15	0.4501	0.0285	0.0004
303.15	0.5	0.0278	0.0004
303.15	0.5499	0.0271	0.0004
303.15	0.6	0.0264	0.0004
303.15	0.65	0.0258	0.0004
303.15	0.7	0.0252	0.0004
303.15	0.7499	0.0248	0.0004
303.15	0.7999	0.0242	0.0004
303.15	0.85	0.0236	0.0004
303.15	0.9	0.0229	0.0004
303.15	0.95	0.0222	0.0004
303.15	1	0.0214	0.0004
313.15	0	0.0343	0.0004
313.15	0.0502	0.0336	0.0004
313.15	0.1	0.0328	0.0004
313.15	0.1498	0.032	0.0004
313.15	0.1998	0.0313	0.0004
313.15	0.2499	0.0305	0.0004
313.15	0.2998	0.0298	0.0004
313.15	0.35	0.0291	0.0004
313.15	0.4	0.0284	0.0004
313.15	0.4501	0.0277	0.0004
313.15	0.5	0.027	0.0004
313.15	0.5499	0.0264	0.0004
313.15	0.6	0.0258	0.0004
313.15	0.65	0.0252	0.0004
313.15	0.7	0.0246	0.0004
313.15	0.7499	0.024	0.0004
313.15	0.7999	0.0234	0.0004
313.15	0.85	0.0228	0.0004
313.15	0.9	0.0221	0.0004
313.15	0.95	0.0214	0.0004
313.15	1	0.0206	0.0004
323.15	0	0.0332	0.0004
323.15	0.0502	0.0325	0.0004
323.15	0.1	0.0318	0.0004
323.15	0.1498	0.0311	0.0004
323.15	0.1998	0.0304	0.0004
323.15	0.2499	0.0296	0.0004
323.15	0.2998	0.0289	0.0004
323.15	0.35	0.0282	0.0004
323.15	0.4	0.0275	0.0004
323.15	0.4501	0.0267	0.0004
323.15	0.5	0.026	0.0004
323.15	0.5499	0.0253	0.0004
323.15	0.6	0.0247	0.0004
323.15	0.65	0.0241	0.0004
323.15	0.7	0.0235	0.0004
323.15	0.7499	0.0229	0.0004
323.15	0.7999	0.0223	0.0004
323.15	0.85	0.0217	0.0004
323.15	0.9	0.021	0.0004
323.15	0.95	0.0203	0.0004
323.15	1	0.0194	0.0004

System: ethanol + benzyl ethanoate; phases: Liquid
Fixed: Pressure, kPa = 100.8
Property: Viscosity, Pa*s (Liquid); method: Falling or rolling sphere viscometry
Temperature, K	Mole fraction of ethanol	Viscosity, Pa*s	uncertainty
293.15	0	0.002324	2.6e-05
293.15	0.0502	0.00218	2.5e-05
293.15	0.1	0.002063	2.4e-05
293.15	0.1498	0.001962	2.3e-05
293.15	0.1998	0.001879	2.3e-05
293.15	0.2499	0.001808	2.2e-05
293.15	0.2998	0.001736	2.2e-05
293.15	0.35	0.001672	2.1e-05
293.15	0.4	0.001613	2.1e-05
293.15	0.4501	0.001551	2e-05
293.15	0.5	0.00149	2e-05
293.15	0.5499	0.001439	2e-05
293.15	0.6	0.001392	1.9e-05
293.15	0.65	0.001347	1.9e-05
293.15	0.7	0.001305	1.9e-05
293.15	0.7499	0.001267	1.9e-05
293.15	0.7999	0.001232	1.9e-05
293.15	0.85	0.001202	1.8e-05
293.15	0.9	0.001188	1.8e-05
293.15	0.95	0.001178	1.8e-05
293.15	1	0.001183	1.8e-05
303.15	0	0.001836	2.3e-05
303.15	0.0502	0.00175	2.2e-05
303.15	0.1	0.001663	2.2e-05
303.15	0.1498	0.001595	2.1e-05
303.15	0.1998	0.001534	2.1e-05
303.15	0.2499	0.001477	2e-05
303.15	0.2998	0.00142	2e-05
303.15	0.35	0.001375	2e-05
303.15	0.4	0.001327	1.9e-05
303.15	0.4501	0.001281	1.9e-05
303.15	0.5	0.001233	1.9e-05
303.15	0.5499	0.001194	1.9e-05
303.15	0.6	0.001151	1.8e-05
303.15	0.65	0.001115	1.8e-05
303.15	0.7	0.001077	1.8e-05
303.15	0.7499	0.001038	1.8e-05
303.15	0.7999	0.001009	1.8e-05
303.15	0.85	0.000989	1.8e-05
303.15	0.9	0.000982	1.8e-05
303.15	0.95	0.000975	1.8e-05
303.15	1	0.00098	1.8e-05
313.15	0	0.001474	2.1e-05
313.15	0.0502	0.001413	2e-05
313.15	0.1	0.001362	2e-05
313.15	0.1498	0.001308	2e-05
313.15	0.1998	0.001265	1.9e-05
313.15	0.2499	0.001226	1.9e-05
313.15	0.2998	0.001181	1.9e-05
313.15	0.35	0.001143	1.9e-05
313.15	0.4	0.001101	1.8e-05
313.15	0.4501	0.001067	1.8e-05
313.15	0.5	0.001029	1.8e-05
313.15	0.5499	0.000999	1.8e-05
313.15	0.6	0.000964	1.8e-05
313.15	0.65	0.00093	1.8e-05
313.15	0.7	0.000891	1.7e-05
313.15	0.7499	0.000867	1.7e-05
313.15	0.7999	0.000841	1.7e-05
313.15	0.85	0.000823	1.7e-05
313.15	0.9	0.000812	1.7e-05
313.15	0.95	0.000808	1.7e-05
313.15	1	0.000822	1.7e-05
323.15	0	0.001256	2e-05
323.15	0.0502	0.00122	1.9e-05
323.15	0.1	0.001187	1.9e-05
323.15	0.1498	0.001154	1.9e-05
323.15	0.1998	0.00112	1.9e-05
323.15	0.2499	0.001086	1.8e-05
323.15	0.2998	0.00105	1.8e-05
323.15	0.35	0.001015	1.8e-05
323.15	0.4	0.000979	1.8e-05
323.15	0.4501	0.000943	1.8e-05
323.15	0.5	0.000911	1.8e-05
323.15	0.5499	0.000882	1.7e-05
323.15	0.6	0.000853	1.7e-05
323.15	0.65	0.000825	1.7e-05
323.15	0.7	0.000795	1.7e-05
323.15	0.7499	0.00077	1.7e-05
323.15	0.7999	0.000743	1.7e-05
323.15	0.85	0.000723	1.7e-05
323.15	0.9	0.000704	1.7e-05
323.15	0.95	0.000692	1.7e-05
323.15	1	0.000698	1.7e-05

System: ethanol + benzyl ethanoate; phases: Liquid
Fixed: Pressure, kPa = 100.8
Property: Refractive index (Na D-line) (Liquid); method: Standard Abbe refractometry
Temperature, K	Mole fraction of ethanol	Refractive index (Na D-line)	uncertainty
293.15	0	1.50245	0.00106
293.15	0.0502	1.49958	0.00106
293.15	0.1	1.49646	0.00106
293.15	0.1498	1.49316	0.00105
293.15	0.1998	1.48968	0.00105
293.15	0.2499	1.48589	0.00105
293.15	0.2998	1.4819	0.00105
293.15	0.35	1.4776	0.00105
293.15	0.4	1.47289	0.00105
293.15	0.4501	1.46787	0.00105
293.15	0.5	1.46245	0.00105
293.15	0.5499	1.45652	0.00105
293.15	0.6	1.44996	0.00105
293.15	0.65	1.44279	0.00105
293.15	0.7	1.43481	0.00104
293.15	0.7499	1.42603	0.00104
293.15	0.7999	1.41623	0.00104
293.15	0.85	1.40518	0.00104
293.15	0.9	1.39263	0.00104
293.15	0.95	1.3782	0.00104
293.15	1	1.36137	0.00104
303.15	0	1.49776	0.00106
303.15	0.0502	1.49479	0.00106
303.15	0.1	1.49168	0.00106
303.15	0.1498	1.48838	0.00105
303.15	0.1998	1.48491	0.00105
303.15	0.2499	1.48118	0.00105
303.15	0.2998	1.47715	0.00105
303.15	0.35	1.47284	0.00105
303.15	0.4	1.46818	0.00105
303.15	0.4501	1.46316	0.00105
303.15	0.5	1.45772	0.00105
303.15	0.5499	1.45179	0.00105
303.15	0.6	1.44531	0.00105
303.15	0.65	1.43815	0.00105
303.15	0.7	1.43018	0.00104
303.15	0.7499	1.42142	0.00104
303.15	0.7999	1.41163	0.00104
303.15	0.85	1.40062	0.00104
303.15	0.9	1.38811	0.00104
303.15	0.95	1.37384	0.00104
303.15	1	1.35712	0.00104
313.15	0	1.49309	0.00106
313.15	0.0502	1.49006	0.00106
313.15	0.1	1.48693	0.00106
313.15	0.1498	1.48362	0.00105
313.15	0.1998	1.48007	0.00105
313.15	0.2499	1.47629	0.00105
313.15	0.2998	1.47228	0.00105
313.15	0.35	1.46794	0.00105
313.15	0.4	1.46327	0.00105
313.15	0.4501	1.45826	0.00105
313.15	0.5	1.45286	0.00105
313.15	0.5499	1.44703	0.00105
313.15	0.6	1.44052	0.00105
313.15	0.65	1.43339	0.00105
313.15	0.7	1.42552	0.00104
313.15	0.7499	1.41682	0.00104
313.15	0.7999	1.40711	0.00104
313.15	0.85	1.39617	0.00104
313.15	0.9	1.38375	0.00104
313.15	0.95	1.36951	0.00104
313.15	1	1.35292	0.00104
323.15	0	1.48834	0.00106
323.15	0.0502	1.48521	0.00106
323.15	0.1	1.48205	0.00106
323.15	0.1498	1.47874	0.00105
323.15	0.1998	1.47517	0.00105
323.15	0.2499	1.47143	0.00105
323.15	0.2998	1.46739	0.00105
323.15	0.35	1.46309	0.00105
323.15	0.4	1.45847	0.00105
323.15	0.4501	1.45346	0.00105
323.15	0.5	1.44807	0.00105
323.15	0.5499	1.44215	0.00105
323.15	0.6	1.43561	0.00105
323.15	0.65	1.42851	0.00105
323.15	0.7	1.42067	0.00104
323.15	0.7499	1.41198	0.00104
323.15	0.7999	1.40231	0.00104
323.15	0.85	1.39132	0.00104
323.15	0.9	1.37895	0.00104
323.15	0.95	1.36489	0.00104
323.15	1	1.34873	0.00104

System: ethanol + benzyl ethanoate; phases: Liquid
Fixed: Pressure, kPa = 100.8
Property: Mass density, kg/m3 (Liquid); method: Vibrating tube method
Temperature, K	Mole fraction of ethanol	Mass density, kg/m3	uncertainty
293.15	0	1055.81	0.3
293.15	0.0502	1050.61	0.28
293.15	0.1	1044.89	0.27
293.15	0.1498	1038.77	0.25
293.15	0.1998	1032.15	0.24
293.15	0.2499	1025.14	0.23
293.15	0.2998	1017.51	0.22
293.15	0.35	1009.27	0.21
293.15	0.4	1000.55	0.21
293.15	0.4501	991.15	0.21
293.15	0.5	980.94	0.22
293.15	0.5499	969.73	0.21
293.15	0.6	957.31	0.21
293.15	0.65	943.77	0.21
293.15	0.7	928.69	0.2
293.15	0.7499	912.06	0.2
293.15	0.7999	893.44	0.2
293.15	0.85	872.42	0.2
293.15	0.9	848.54	0.19
293.15	0.95	821.38	0.19
293.15	1	789.1	0.19
303.15	0	1046.74	0.29
303.15	0.0502	1041.18	0.28
303.15	0.1	1035.33	0.26
303.15	0.1498	1029.09	0.25
303.15	0.1998	1022.42	0.24
303.15	0.2499	1015.3	0.22
303.15	0.2998	1007.78	0.22
303.15	0.35	999.68	0.21
303.15	0.4	990.86	0.21
303.15	0.4501	981.38	0.21
303.15	0.5	971.11	0.22
303.15	0.5499	959.94	0.21
303.15	0.6	947.61	0.21
303.15	0.65	933.97	0.21
303.15	0.7	919.03	0.21
303.15	0.7499	902.5	0.2
303.15	0.7999	883.9	0.2
303.15	0.85	863.07	0.2
303.15	0.9	839.36	0.19
303.15	0.95	812.21	0.19
303.15	1	780.76	0.2
313.15	0	1037.42	0.29
313.15	0.0502	1031.85	0.27
313.15	0.1	1025.96	0.26
313.15	0.1498	1019.7	0.24
313.15	0.1998	1012.98	0.23
313.15	0.2499	1005.82	0.22
313.15	0.2998	998.2	0.21
313.15	0.35	989.97	0.21
313.15	0.4	981.2	0.21
313.15	0.4501	971.7	0.21
313.15	0.5	961.42	0.22
313.15	0.5499	950.19	0.22
313.15	0.6	937.83	0.21
313.15	0.65	924.36	0.21
313.15	0.7	909.51	0.21
313.15	0.7499	893.04	0.2
313.15	0.7999	874.6	0.2
313.15	0.85	853.75	0.2
313.15	0.9	830.17	0.2
313.15	0.95	803.27	0.19
313.15	1	771.99	0.2
323.15	0	1027.51	0.28
323.15	0.0502	1021.88	0.26
323.15	0.1	1015.97	0.25
323.15	0.1498	1009.69	0.24
323.15	0.1998	1002.94	0.23
323.15	0.2499	995.85	0.22
323.15	0.2998	988.26	0.21
323.15	0.35	980.03	0.21
323.15	0.4	971.24	0.21
323.15	0.4501	961.72	0.21
323.15	0.5	951.49	0.22
323.15	0.5499	940.31	0.22
323.15	0.6	927.98	0.21
323.15	0.65	914.58	0.21
323.15	0.7	899.72	0.21
323.15	0.7499	883.26	0.21
323.15	0.7999	864.86	0.2
323.15	0.85	844.15	0.2
323.15	0.9	820.71	0.2
323.15	0.95	794.02	0.2
323.15	1	763.03	0.2

System: ethanol + benzenemethanol; phases: Liquid, Gas
Property: Surface tension liquid-gas, N/m (Liquid); method: Capillary rise
Temperature, K	Mole fraction of ethanol	Surface tension liquid-gas, N/m	uncertainty
293.15	0	0.0392	0.0004
293.15	0.05	0.0387	0.0004
293.15	0.1	0.0381	0.0004
293.15	0.1504	0.0375	0.0004
293.15	0.1999	0.0368	0.0004
293.15	0.2502	0.0361	0.0004
293.15	0.3003	0.0353	0.0004
293.15	0.3499	0.0345	0.0004
293.15	0.3998	0.0336	0.0004
293.15	0.45	0.0327	0.0004
293.15	0.5001	0.0318	0.0004
293.15	0.55	0.0309	0.0004
293.15	0.5999	0.0299	0.0004
293.15	0.65	0.0289	0.0004
293.15	0.6997	0.028	0.0004
293.15	0.75	0.0271	0.0004
293.15	0.7999	0.0261	0.0004
293.15	0.8496	0.0252	0.0004
293.15	0.8998	0.0243	0.0004
293.15	0.95	0.0233	0.0004
293.15	1	0.0223	0.0004
303.15	0	0.0381	0.0004
303.15	0.05	0.0375	0.0004
303.15	0.1	0.0369	0.0004
303.15	0.1504	0.0362	0.0004
303.15	0.1999	0.0355	0.0004
303.15	0.2502	0.0348	0.0004
303.15	0.3003	0.0341	0.0004
303.15	0.3499	0.0333	0.0004
303.15	0.3998	0.0325	0.0004
303.15	0.45	0.0316	0.0004
303.15	0.5001	0.0307	0.0004
303.15	0.55	0.0298	0.0004
303.15	0.5999	0.0288	0.0004
303.15	0.65	0.0278	0.0004
303.15	0.6997	0.0269	0.0004
303.15	0.75	0.026	0.0004
303.15	0.7999	0.0251	0.0004
303.15	0.8496	0.0242	0.0004
303.15	0.8998	0.0233	0.0004
303.15	0.95	0.0223	0.0004
303.15	1	0.0214	0.0004
313.15	0	0.0372	0.0004
313.15	0.05	0.0366	0.0004
313.15	0.1	0.0359	0.0004
313.15	0.1504	0.0353	0.0004
313.15	0.1999	0.0346	0.0004
313.15	0.2502	0.0339	0.0004
313.15	0.3003	0.0332	0.0004
313.15	0.3499	0.0324	0.0004
313.15	0.3998	0.0316	0.0004
313.15	0.45	0.0307	0.0004
313.15	0.5001	0.0298	0.0004
313.15	0.55	0.0289	0.0004
313.15	0.5999	0.0279	0.0004
313.15	0.65	0.0269	0.0004
313.15	0.6997	0.026	0.0004
313.15	0.75	0.0251	0.0004
313.15	0.7999	0.0242	0.0004
313.15	0.8496	0.0233	0.0004
313.15	0.8998	0.0224	0.0004
313.15	0.95	0.0215	0.0004
313.15	1	0.0206	0.0004
323.15	0	0.0363	0.0004
323.15	0.05	0.0356	0.0004
323.15	0.1	0.0349	0.0004
323.15	0.1504	0.0342	0.0004
323.15	0.1999	0.0335	0.0004
323.15	0.2502	0.0328	0.0004
323.15	0.3003	0.0321	0.0004
323.15	0.3499	0.0313	0.0004
323.15	0.3998	0.0305	0.0004
323.15	0.45	0.0296	0.0004
323.15	0.5001	0.0287	0.0004
323.15	0.55	0.0278	0.0004
323.15	0.5999	0.0268	0.0004
323.15	0.65	0.0258	0.0004
323.15	0.6997	0.0248	0.0004
323.15	0.75	0.0239	0.0004
323.15	0.7999	0.023	0.0004
323.15	0.8496	0.0221	0.0004
323.15	0.8998	0.0212	0.0004
323.15	0.95	0.0203	0.0004
323.15	1	0.0194	0.0004

System: ethanol + benzenemethanol; phases: Liquid
Fixed: Pressure, kPa = 100.8
Property: Viscosity, Pa*s (Liquid); method: Falling or rolling sphere viscometry
Temperature, K	Mole fraction of ethanol	Viscosity, Pa*s	uncertainty
293.15	0	0.006287	5.4e-05
293.15	0.05	0.005903	5.1e-05
293.15	0.1	0.005548	4.8e-05
293.15	0.1504	0.005197	4.4e-05
293.15	0.1999	0.004871	4.2e-05
293.15	0.2502	0.00455	3.9e-05
293.15	0.3003	0.004236	3.7e-05
293.15	0.3499	0.00394	3.5e-05
293.15	0.3998	0.003655	3.3e-05
293.15	0.45	0.003377	3.1e-05
293.15	0.5001	0.003107	2.9e-05
293.15	0.55	0.002857	2.7e-05
293.15	0.5999	0.002623	2.6e-05
293.15	0.65	0.002392	2.4e-05
293.15	0.6997	0.002169	2.3e-05
293.15	0.75	0.001971	2.2e-05
293.15	0.7999	0.001782	2.1e-05
293.15	0.8496	0.001611	2e-05
293.15	0.8998	0.001454	1.9e-05
293.15	0.95	0.001305	1.9e-05
293.15	1	0.001183	1.8e-05
303.15	0	0.004579	4.1e-05
303.15	0.05	0.004276	3.8e-05
303.15	0.1	0.004006	3.6e-05
303.15	0.1504	0.003761	3.4e-05
303.15	0.1999	0.003529	3.3e-05
303.15	0.2502	0.003321	3.1e-05
303.15	0.3003	0.003117	3e-05
303.15	0.3499	0.002924	2.8e-05
303.15	0.3998	0.002735	2.7e-05
303.15	0.45	0.002542	2.6e-05
303.15	0.5001	0.002368	2.5e-05
303.15	0.55	0.002206	2.3e-05
303.15	0.5999	0.00203	2.2e-05
303.15	0.65	0.001873	2.2e-05
303.15	0.6997	0.001716	2.1e-05
303.15	0.75	0.001568	2e-05
303.15	0.7999	0.001423	1.9e-05
303.15	0.8496	0.001292	1.9e-05
303.15	0.8998	0.001173	1.8e-05
303.15	0.95	0.00106	1.8e-05
303.15	1	0.00098	1.8e-05
313.15	0	0.003335	3.1e-05
313.15	0.05	0.003171	3e-05
313.15	0.1	0.003002	2.9e-05
313.15	0.1504	0.002841	2.8e-05
313.15	0.1999	0.002688	2.7e-05
313.15	0.2502	0.002539	2.6e-05
313.15	0.3003	0.002389	2.5e-05
313.15	0.3499	0.002244	2.4e-05
313.15	0.3998	0.002101	2.3e-05
313.15	0.45	0.001955	2.2e-05
313.15	0.5001	0.001819	2.1e-05
313.15	0.55	0.001684	2.1e-05
313.15	0.5999	0.001561	2e-05
313.15	0.65	0.001441	1.9e-05
313.15	0.6997	0.001332	1.9e-05
313.15	0.75	0.001236	1.9e-05
313.15	0.7999	0.001146	1.8e-05
313.15	0.8496	0.001048	1.8e-05
313.15	0.8998	0.000972	1.8e-05
313.15	0.95	0.000899	1.7e-05
313.15	1	0.000822	1.7e-05
323.15	0	0.002545	2.6e-05
323.15	0.05	0.002439	2.5e-05
323.15	0.1	0.002337	2.5e-05
323.15	0.1504	0.002238	2.4e-05
323.15	0.1999	0.002142	2.3e-05
323.15	0.2502	0.002041	2.3e-05
323.15	0.3003	0.001941	2.2e-05
323.15	0.3499	0.001844	2.1e-05
323.15	0.3998	0.001746	2.1e-05
323.15	0.45	0.001649	2e-05
323.15	0.5001	0.001556	2e-05
323.15	0.55	0.001462	1.9e-05
323.15	0.5999	0.001368	1.9e-05
323.15	0.65	0.001279	1.9e-05
323.15	0.6997	0.001189	1.8e-05
323.15	0.75	0.001105	1.8e-05
323.15	0.7999	0.001022	1.8e-05
323.15	0.8496	0.000937	1.7e-05
323.15	0.8998	0.000854	1.7e-05
323.15	0.95	0.000774	1.7e-05
323.15	1	0.000698	1.7e-05

System: ethanol + benzenemethanol; phases: Liquid
Fixed: Pressure, kPa = 100.8
Property: Refractive index (Na D-line) (Liquid); method: Standard Abbe refractometry
Temperature, K	Mole fraction of ethanol	Refractive index (Na D-line)	uncertainty
293.15	0	1.54049	0.00104
293.15	0.05	1.53607	0.00104
293.15	0.1	1.53119	0.00104
293.15	0.1504	1.52584	0.00104
293.15	0.1999	1.52041	0.00104
293.15	0.2502	1.51444	0.00104
293.15	0.3003	1.50804	0.00104
293.15	0.3499	1.50154	0.00104
293.15	0.3998	1.49454	0.00104
293.15	0.45	1.48707	0.00104
293.15	0.5001	1.4791	0.00105
293.15	0.55	1.47074	0.00104
293.15	0.5999	1.46176	0.00104
293.15	0.65	1.4522	0.00104
293.15	0.6997	1.44199	0.00104
293.15	0.75	1.43095	0.00104
293.15	0.7999	1.41922	0.00104
293.15	0.8496	1.40661	0.00104
293.15	0.8998	1.39275	0.00104
293.15	0.95	1.37776	0.00104
293.15	1	1.36137	0.00104
303.15	0	1.53635	0.00104
303.15	0.05	1.53175	0.00104
303.15	0.1	1.52681	0.00104
303.15	0.1504	1.5215	0.00104
303.15	0.1999	1.51591	0.00104
303.15	0.2502	1.51002	0.00104
303.15	0.3003	1.50367	0.00104
303.15	0.3499	1.49716	0.00104
303.15	0.3998	1.49014	0.00104
303.15	0.45	1.4826	0.00104
303.15	0.5001	1.47469	0.00105
303.15	0.55	1.46632	0.00104
303.15	0.5999	1.45731	0.00104
303.15	0.65	1.4477	0.00104
303.15	0.6997	1.43754	0.00104
303.15	0.75	1.42651	0.00104
303.15	0.7999	1.41479	0.00104
303.15	0.8496	1.40202	0.00104
303.15	0.8998	1.38825	0.00104
303.15	0.95	1.37331	0.00104
303.15	1	1.35712	0.00104
313.15	0	1.53215	0.00104
313.15	0.05	1.52743	0.00104
313.15	0.1	1.5225	0.00104
313.15	0.1504	1.51718	0.00104
313.15	0.1999	1.51156	0.00104
313.15	0.2502	1.5056	0.00104
313.15	0.3003	1.49935	0.00104
313.15	0.3499	1.49265	0.00104
313.15	0.3998	1.48568	0.00104
313.15	0.45	1.47818	0.00104
313.15	0.5001	1.4703	0.00105
313.15	0.55	1.46191	0.00104
313.15	0.5999	1.45296	0.00104
313.15	0.65	1.44333	0.00104
313.15	0.6997	1.43309	0.00104
313.15	0.75	1.42212	0.00104
313.15	0.7999	1.4104	0.00104
313.15	0.8496	1.39761	0.00104
313.15	0.8998	1.38389	0.00104
313.15	0.95	1.36905	0.00104
313.15	1	1.35292	0.00104
323.15	0	1.52796	0.00104
323.15	0.05	1.52308	0.00104
323.15	0.1	1.51807	0.00104
323.15	0.1504	1.51273	0.00104
323.15	0.1999	1.50721	0.00104
323.15	0.2502	1.50123	0.00104
323.15	0.3003	1.49494	0.00104
323.15	0.3499	1.48825	0.00104
323.15	0.3998	1.48127	0.00104
323.15	0.45	1.47378	0.00104
323.15	0.5001	1.46589	0.00105
323.15	0.55	1.45755	0.00104
323.15	0.5999	1.44855	0.00104
323.15	0.65	1.43892	0.00104
323.15	0.6997	1.4287	0.00104
323.15	0.75	1.41775	0.00104
323.15	0.7999	1.40607	0.00104
323.15	0.8496	1.39329	0.00104
323.15	0.8998	1.37963	0.00104
323.15	0.95	1.36475	0.00104
323.15	1	1.34873	0.00104

System: ethanol + benzenemethanol; phases: Liquid
Fixed: Pressure, kPa = 100.8
Property: Mass density, kg/m3 (Liquid); method: Vibrating tube method
Temperature, K	Mole fraction of ethanol	Mass density, kg/m3	uncertainty
293.15	0	1045.44	0.19
293.15	0.05	1038.93	0.18
293.15	0.1	1032.01	0.18
293.15	0.1504	1024.72	0.18
293.15	0.1999	1017.09	0.18
293.15	0.2502	1008.95	0.18
293.15	0.3003	1000.31	0.18
293.15	0.3499	991.24	0.18
293.15	0.3998	981.52	0.19
293.15	0.45	971.12	0.2
293.15	0.5001	960.01	0.21
293.15	0.55	948.23	0.21
293.15	0.5999	935.57	0.2
293.15	0.65	921.93	0.2
293.15	0.6997	907.34	0.2
293.15	0.75	891.49	0.2
293.15	0.7999	874.42	0.19
293.15	0.8496	855.94	0.19
293.15	0.8998	835.44	0.19
293.15	0.95	813.26	0.19
293.15	1	789.1	0.2
303.15	0	1037.45	0.18
303.15	0.05	1030.91	0.18
303.15	0.1	1024.02	0.18
303.15	0.1504	1016.76	0.18
303.15	0.1999	1009.06	0.18
303.15	0.2502	1000.9	0.18
303.15	0.3003	992.29	0.18
303.15	0.3499	983.16	0.18
303.15	0.3998	973.34	0.19
303.15	0.45	962.91	0.2
303.15	0.5001	951.76	0.21
303.15	0.55	939.95	0.21
303.15	0.5999	927.33	0.2
303.15	0.65	913.64	0.2
303.15	0.6997	898.99	0.2
303.15	0.75	883.14	0.2
303.15	0.7999	865.99	0.2
303.15	0.8496	847.51	0.19
303.15	0.8998	827.13	0.19
303.15	0.95	805.04	0.19
303.15	1	780.76	0.2
313.15	0	1029.61	0.18
313.15	0.05	1023.04	0.18
313.15	0.1	1016.21	0.18
313.15	0.1504	1008.86	0.18
313.15	0.1999	1001.16	0.18
313.15	0.2502	992.96	0.18
313.15	0.3003	984.28	0.18
313.15	0.3499	975.05	0.19
313.15	0.3998	965.24	0.19
313.15	0.45	954.84	0.2
313.15	0.5001	943.67	0.21
313.15	0.55	931.78	0.21
313.15	0.5999	919.04	0.21
313.15	0.65	905.41	0.2
313.15	0.6997	890.69	0.2
313.15	0.75	874.75	0.2
313.15	0.7999	857.51	0.2
313.15	0.8496	838.83	0.2
313.15	0.8998	818.48	0.19
313.15	0.95	796.32	0.19
313.15	1	771.99	0.2
323.15	0	1021.5	0.18
323.15	0.05	1014.86	0.18
323.15	0.1	1007.98	0.18
323.15	0.1504	1000.57	0.18
323.15	0.1999	992.89	0.18
323.15	0.2502	984.67	0.18
323.15	0.3003	975.99	0.18
323.15	0.3499	966.71	0.19
323.15	0.3998	956.84	0.19
323.15	0.45	946.37	0.2
323.15	0.5001	935.23	0.21
323.15	0.55	923.28	0.21
323.15	0.5999	910.48	0.21
323.15	0.65	896.61	0.21
323.15	0.6997	881.89	0.2
323.15	0.75	865.88	0.2
323.15	0.7999	848.64	0.2
323.15	0.8496	830.07	0.2
323.15	0.8998	809.62	0.2
323.15	0.95	787.41	0.2
323.15	1	763.03	0.2

System: benzenemethanol + benzyl ethanoate; phases: Liquid, Air at 1 atmosphere
Property: Surface tension liquid-gas, N/m (Liquid); method: Capillary rise
Temperature, K	Mole fraction of benzyl ethanoate	Surface tension liquid-gas, N/m	uncertainty
293.15	0	0.0392	0.0004
293.15	0.1001	0.0392	0.0004
293.15	0.2001	0.0392	0.0004
293.15	0.3	0.0391	0.0004
293.15	0.4001	0.039	0.0004
293.15	0.5	0.0387	0.0004
293.15	0.6001	0.0384	0.0004
293.15	0.6999	0.0381	0.0004
293.15	0.8	0.0378	0.0004
293.15	0.9	0.0375	0.0004
293.15	1	0.0373	0.0005
303.15	0	0.0381	0.0004
303.15	0.1001	0.038	0.0004
303.15	0.2001	0.0379	0.0004
303.15	0.3	0.0378	0.0004
303.15	0.4001	0.0375	0.0004
303.15	0.5	0.0371	0.0004
303.15	0.6001	0.0367	0.0004
303.15	0.6999	0.0363	0.0004
303.15	0.8	0.036	0.0004
303.15	0.9	0.0358	0.0004
303.15	1	0.0356	0.0004
313.15	0	0.0372	0.0004
313.15	0.1001	0.037	0.0004
313.15	0.2001	0.0368	0.0004
313.15	0.3	0.0364	0.0004
313.15	0.4001	0.036	0.0004
313.15	0.5	0.0356	0.0004
313.15	0.6001	0.0352	0.0004
313.15	0.6999	0.0348	0.0004
313.15	0.8	0.0346	0.0004
313.15	0.9	0.0344	0.0004
313.15	1	0.0343	0.0004
323.15	0	0.0363	0.0004
323.15	0.1001	0.036	0.0004
323.15	0.2001	0.0357	0.0004
323.15	0.3	0.0352	0.0004
323.15	0.4001	0.0348	0.0004
323.15	0.5	0.0343	0.0004
323.15	0.6001	0.0339	0.0004
323.15	0.6999	0.0335	0.0004
323.15	0.8	0.0334	0.0004
323.15	0.9	0.0333	0.0004
323.15	1	0.0332	0.0004

System: benzenemethanol + benzyl ethanoate; phases: Liquid
Fixed: Pressure, kPa = 101
Property: Viscosity, Pa*s (Liquid); method: Falling or rolling sphere viscometry
Temperature, K	Mole fraction of benzyl ethanoate	Viscosity, Pa*s	uncertainty
293.15	0	0.006287	5.4e-05
293.15	0.05	0.005782	5e-05
293.15	0.1001	0.005319	4.6e-05
293.15	0.1502	0.004905	4.3e-05
293.15	0.2001	0.004536	4e-05
293.15	0.25	0.004214	3.8e-05
293.15	0.3	0.003927	3.6e-05
293.15	0.3498	0.003678	3.4e-05
293.15	0.4001	0.003454	3.3e-05
293.15	0.45	0.003252	3.1e-05
293.15	0.5	0.003087	3e-05
293.15	0.5501	0.00293	2.9e-05
293.15	0.6001	0.002795	2.8e-05
293.15	0.65	0.002684	2.8e-05
293.15	0.6999	0.002589	2.7e-05
293.15	0.7502	0.002505	2.7e-05
293.15	0.8	0.002428	2.6e-05
293.15	0.85	0.002376	2.6e-05
293.15	0.9	0.002343	2.6e-05
293.15	0.95	0.002326	2.6e-05
293.15	1	0.002324	2.6e-05
303.15	0	0.004579	4.1e-05
303.15	0.05	0.00421	3.8e-05
303.15	0.1001	0.003894	3.6e-05
303.15	0.1502	0.003623	3.4e-05
303.15	0.2001	0.003378	3.2e-05
303.15	0.25	0.003165	3e-05
303.15	0.3	0.002972	2.9e-05
303.15	0.3498	0.002806	2.8e-05
303.15	0.4001	0.002662	2.7e-05
303.15	0.45	0.002535	2.6e-05
303.15	0.5	0.002432	2.6e-05
303.15	0.5501	0.002332	2.5e-05
303.15	0.6001	0.002234	2.5e-05
303.15	0.65	0.002171	2.4e-05
303.15	0.6999	0.002091	2.4e-05
303.15	0.7502	0.002035	2.4e-05
303.15	0.8	0.001985	2.3e-05
303.15	0.85	0.001941	2.3e-05
303.15	0.9	0.001902	2.3e-05
303.15	0.95	0.001867	2.3e-05
303.15	1	0.001836	2.3e-05
313.15	0	0.003335	3.1e-05
313.15	0.05	0.00318	3e-05
313.15	0.1001	0.003006	2.9e-05
313.15	0.1502	0.002848	2.8e-05
313.15	0.2001	0.002687	2.7e-05
313.15	0.25	0.002536	2.6e-05
313.15	0.3	0.002396	2.5e-05
313.15	0.3498	0.002265	2.4e-05
313.15	0.4001	0.002154	2.4e-05
313.15	0.45	0.002056	2.3e-05
313.15	0.5	0.001966	2.3e-05
313.15	0.5501	0.001903	2.3e-05
313.15	0.6001	0.001832	2.2e-05
313.15	0.65	0.001774	2.2e-05
313.15	0.6999	0.001728	2.2e-05
313.15	0.7502	0.001684	2.2e-05
313.15	0.8	0.001646	2.1e-05
313.15	0.85	0.001613	2.1e-05
313.15	0.9	0.001572	2.1e-05
313.15	0.95	0.001524	2.1e-05
313.15	1	0.001474	2.1e-05
323.15	0	0.002545	2.6e-05
323.15	0.05	0.00245	2.6e-05
323.15	0.1001	0.002349	2.5e-05
323.15	0.1502	0.002232	2.4e-05
323.15	0.2001	0.002125	2.4e-05
323.15	0.25	0.002021	2.3e-05
323.15	0.3	0.001925	2.2e-05
323.15	0.3498	0.001838	2.2e-05
323.15	0.4001	0.001756	2.2e-05
323.15	0.45	0.001683	2.1e-05
323.15	0.5	0.00162	2.1e-05
323.15	0.5501	0.001561	2.1e-05
323.15	0.6001	0.001521	2.1e-05
323.15	0.65	0.001482	2e-05
323.15	0.6999	0.001444	2e-05
323.15	0.7502	0.00141	2e-05
323.15	0.8	0.001387	2e-05
323.15	0.85	0.001361	2e-05
323.15	0.9	0.001339	2e-05
323.15	0.95	0.001308	2e-05
323.15	1	0.001256	2e-05

System: benzenemethanol + benzyl ethanoate; phases: Liquid
Fixed: Pressure, kPa = 101
Property: Refractive index (Na D-line) (Liquid); method: Standard Abbe refractometry
Temperature, K	Mole fraction of benzyl ethanoate	Refractive index (Na D-line)	uncertainty
293.15	0	1.54049	0.00033
293.15	0.05	1.53821	0.00033
293.15	0.1001	1.53584	0.00033
293.15	0.1502	1.53352	0.00033
293.15	0.2001	1.53127	0.00033
293.15	0.25	1.52907	0.00034
293.15	0.3	1.52689	0.00034
293.15	0.3498	1.5248	0.00034
293.15	0.4001	1.52279	0.00034
293.15	0.45	1.52083	0.00034
293.15	0.5	1.51893	0.00035
293.15	0.5501	1.5171	0.00035
293.15	0.6001	1.5153	0.00035
293.15	0.65	1.51352	0.00035
293.15	0.6999	1.51182	0.00035
293.15	0.7502	1.51014	0.00036
293.15	0.8	1.50852	0.00036
293.15	0.85	1.50696	0.00036
293.15	0.9	1.50544	0.00036
293.15	0.95	1.50396	0.00037
293.15	1	1.50245	0.00037
303.15	0	1.53635	0.00033
303.15	0.05	1.5339	0.00033
303.15	0.1001	1.53143	0.00033
303.15	0.1502	1.52903	0.00033
303.15	0.2001	1.52673	0.00033
303.15	0.25	1.52449	0.00034
303.15	0.3	1.52231	0.00034
303.15	0.3498	1.52022	0.00034
303.15	0.4001	1.51819	0.00034
303.15	0.45	1.51621	0.00034
303.15	0.5	1.51428	0.00035
303.15	0.5501	1.51239	0.00035
303.15	0.6001	1.51057	0.00035
303.15	0.65	1.50881	0.00035
303.15	0.6999	1.50711	0.00035
303.15	0.7502	1.50545	0.00036
303.15	0.8	1.50383	0.00036
303.15	0.85	1.50227	0.00036
303.15	0.9	1.50075	0.00036
303.15	0.95	1.49926	0.00037
303.15	1	1.49776	0.00037
313.15	0	1.53215	0.00033
313.15	0.05	1.52962	0.00033
313.15	0.1001	1.52715	0.00033
313.15	0.1502	1.52471	0.00033
313.15	0.2001	1.52235	0.00033
313.15	0.25	1.52007	0.00034
313.15	0.3	1.51785	0.00034
313.15	0.3498	1.51571	0.00034
313.15	0.4001	1.51362	0.00034
313.15	0.45	1.5116	0.00034
313.15	0.5	1.50964	0.00035
313.15	0.5501	1.50774	0.00035
313.15	0.6001	1.5059	0.00035
313.15	0.65	1.5041	0.00035
313.15	0.6999	1.50237	0.00035
313.15	0.7502	1.5007	0.00036
313.15	0.8	1.49906	0.00036
313.15	0.85	1.49748	0.00036
313.15	0.9	1.49596	0.00036
313.15	0.95	1.4945	0.00037
313.15	1	1.49309	0.00037
323.15	0	1.52796	0.00033
323.15	0.05	1.52532	0.00033
323.15	0.1001	1.52278	0.00033
323.15	0.1502	1.5203	0.00033
323.15	0.2001	1.51791	0.00033
323.15	0.25	1.5156	0.00034
323.15	0.3	1.51335	0.00034
323.15	0.3498	1.51118	0.00034
323.15	0.4001	1.50908	0.00034
323.15	0.45	1.50704	0.00034
323.15	0.5	1.50506	0.00035
323.15	0.5501	1.50314	0.00035
323.15	0.6001	1.50128	0.00035
323.15	0.65	1.49946	0.00035
323.15	0.6999	1.49771	0.00035
323.15	0.7502	1.49598	0.00036
323.15	0.8	1.49434	0.00036
323.15	0.85	1.49276	0.00036
323.15	0.9	1.49124	0.00036
323.15	0.95	1.48976	0.00037
323.15	1	1.48834	0.00037

System: benzenemethanol + benzyl ethanoate; phases: Liquid
Fixed: Pressure, kPa = 101
Property: Mass density, kg/m3 (Liquid); method: Vibrating tube method
Temperature, K	Mole fraction of benzyl ethanoate	Mass density, kg/m3	uncertainty
293.15	0	1045.44	0.19
293.15	0.05	1046.29	0.19
293.15	0.1001	1047.03	0.19
293.15	0.1502	1047.73	0.2
293.15	0.2001	1048.38	0.2
293.15	0.25	1048.99	0.2
293.15	0.3	1049.58	0.21
293.15	0.3498	1050.15	0.21
293.15	0.4001	1050.71	0.22
293.15	0.45	1051.24	0.22
293.15	0.5	1051.77	0.23
293.15	0.5501	1052.26	0.23
293.15	0.6001	1052.74	0.24
293.15	0.65	1053.19	0.24
293.15	0.6999	1053.64	0.25
293.15	0.7502	1054.03	0.26
293.15	0.8	1054.42	0.26
293.15	0.85	1054.77	0.27
293.15	0.9	1055.11	0.28
293.15	0.95	1055.46	0.29
293.15	1	1055.81	0.3
303.15	0	1037.45	0.18
303.15	0.05	1038.18	0.19
303.15	0.1001	1038.83	0.19
303.15	0.1502	1039.44	0.19
303.15	0.2001	1040.01	0.2
303.15	0.25	1040.58	0.2
303.15	0.3	1041.11	0.2
303.15	0.3498	1041.61	0.21
303.15	0.4001	1042.1	0.21
303.15	0.45	1042.57	0.22
303.15	0.5	1043.01	0.22
303.15	0.5501	1043.43	0.23
303.15	0.6001	1043.84	0.23
303.15	0.65	1044.24	0.24
303.15	0.6999	1044.62	0.25
303.15	0.7502	1044.99	0.25
303.15	0.8	1045.35	0.26
303.15	0.85	1045.7	0.27
303.15	0.9	1046.05	0.27
303.15	0.95	1046.4	0.28
303.15	1	1046.74	0.29
313.15	0	1029.61	0.18
313.15	0.05	1030.21	0.19
313.15	0.1001	1030.76	0.19
313.15	0.1502	1031.27	0.19
313.15	0.2001	1031.72	0.19
313.15	0.25	1032.23	0.2
313.15	0.3	1032.67	0.2
313.15	0.3498	1033.08	0.21
313.15	0.4001	1033.48	0.21
313.15	0.45	1033.86	0.21
313.15	0.5	1034.24	0.22
313.15	0.5501	1034.6	0.22
313.15	0.6001	1034.94	0.23
313.15	0.65	1035.27	0.24
313.15	0.6999	1035.57	0.24
313.15	0.7502	1035.87	0.25
313.15	0.8	1036.18	0.26
313.15	0.85	1036.48	0.26
313.15	0.9	1036.79	0.27
313.15	0.95	1037.11	0.28
313.15	1	1037.42	0.29
323.15	0	1021.5	0.18
323.15	0.05	1021.94	0.18
323.15	0.1001	1022.36	0.19
323.15	0.1502	1022.75	0.19
323.15	0.2001	1023.12	0.19
323.15	0.25	1023.48	0.19
323.15	0.3	1023.81	0.2
323.15	0.3498	1024.13	0.2
323.15	0.4001	1024.44	0.21
323.15	0.45	1024.73	0.21
323.15	0.5	1025.02	0.22
323.15	0.5501	1025.28	0.22
323.15	0.6001	1025.53	0.23
323.15	0.65	1025.79	0.23
323.15	0.6999	1026.04	0.24
323.15	0.7502	1026.28	0.24
323.15	0.8	1026.52	0.25
323.15	0.85	1026.77	0.26
323.15	0.9	1027.01	0.26
323.15	0.95	1027.26	0.27
323.15	1	1027.51	0.28

System: ethanol + benzenemethanol + benzyl ethanoate; phases: Liquid, Air at 1 atmosphere
Fixed: Temperature, K = 303.15
Property: Surface tension liquid-gas, N/m (Liquid); method: Capillary rise
Mole fraction of ethanol	Mole fraction of benzyl ethanoate	Surface tension liquid-gas, N/m	uncertainty
0.0494	0.9006	0.035	0.0004
0.0496	0.2	0.0373	0.0004
0.0496	0.7001	0.0355	0.0004
0.0498	0.8002	0.0352	0.0004
0.0499	0.4	0.0367	0.0004
0.0502	0.2998	0.037	0.0004
0.0502	0.5002	0.0363	0.0004
0.0502	0.6	0.0359	0.0004
0.0504	0.0499	0.0375	0.0004
0.0506	0.1	0.0374	0.0004
0.1003	0.8494	0.0342	0.0004
0.1004	0.4498	0.0356	0.0004
0.1005	0.6497	0.0348	0.0004
0.1008	0.0499	0.0368	0.0004
0.1008	0.1497	0.0366	0.0004
0.101	0.25	0.0364	0.0004
0.101	0.5495	0.0352	0.0004
0.101	0.7488	0.0344	0.0004
0.1011	0.3494	0.0361	0.0004
0.2001	0.0497	0.0355	0.0004
0.2002	0.5499	0.0333	0.0004
0.2003	0.35	0.0343	0.0004
0.2006	0.2497	0.0348	0.0004
0.2007	0.1496	0.0352	0.0004
0.2007	0.6491	0.0329	0.0004
0.2007	0.7492	0.0326	0.0004
0.201	0.4496	0.0338	0.0004
0.2996	0.1503	0.0336	0.0004
0.3	0.4499	0.0319	0.0004
0.3001	0.2502	0.0331	0.0004
0.3006	0.02	0.0341	0.0004
0.3006	0.6492	0.0311	0.0004
0.3008	0.3496	0.0325	0.0004
0.3011	0.5491	0.0315	0.0004
0.3996	0.2504	0.0312	0.0004
0.3999	0.3501	0.0306	0.0004
0.3999	0.5499	0.0295	0.0004
0.4	0.15	0.0318	0.0004
0.4005	0.0498	0.0323	0.0004
0.4011	0.4491	0.03	0.0004
0.4996	0.0502	0.0305	0.0004
0.4997	0.3502	0.0286	0.0004
0.4999	0.1501	0.0299	0.0004
0.5001	0.25	0.0293	0.0004
0.5001	0.4497	0.0281	0.0004
0.6	0.0501	0.0286	0.0004
0.6	0.3501	0.0268	0.0004
0.6001	0.1499	0.028	0.0004
0.6003	0.2498	0.0274	0.0004
0.6999	0.25	0.0256	0.0004
0.7002	0.05	0.0267	0.0004
0.7002	0.1498	0.0262	0.0004
0.8	0.0501	0.025	0.0004
0.8	0.1499	0.0245	0.0004
0.9	0.05	0.0232	0.0004

System: ethanol + benzenemethanol + benzyl ethanoate; phases: Liquid
Fixed: Temperature, K = 303.15
Fixed: Pressure, kPa = 101
Property: Viscosity, Pa*s (Liquid); method: Falling or rolling sphere viscometry
Mole fraction of ethanol	Mole fraction of benzyl ethanoate	Viscosity, Pa*s	uncertainty
0.0494	0.9006	0.001774	2.2e-05
0.0496	0.2	0.003145	3e-05
0.0496	0.7001	0.001954	2.3e-05
0.0498	0.8002	0.001854	2.3e-05
0.0499	0.4	0.002495	2.6e-05
0.0502	0.2998	0.002773	2.8e-05
0.0502	0.5002	0.002258	2.5e-05
0.0502	0.6	0.00209	2.4e-05
0.0504	0.0499	0.003929	3.5e-05
0.0506	0.1	0.003631	3.3e-05
0.1003	0.8494	0.001701	2.2e-05
0.1004	0.4498	0.002215	2.4e-05
0.1005	0.6497	0.001888	2.3e-05
0.1008	0.0499	0.00369	3.4e-05
0.1008	0.1497	0.00317	3e-05
0.101	0.25	0.002751	2.7e-05
0.101	0.5495	0.002027	2.3e-05
0.101	0.7488	0.001779	2.2e-05
0.1011	0.3494	0.002461	2.6e-05
0.2001	0.0497	0.003254	3e-05
0.2002	0.5499	0.001794	2.2e-05
0.2003	0.35	0.002161	2.4e-05
0.2006	0.2497	0.002429	2.5e-05
0.2007	0.1496	0.002786	2.7e-05
0.2007	0.6491	0.001662	2.1e-05
0.2007	0.7492	0.001569	2.1e-05
0.201	0.4496	0.001952	2.3e-05
0.2996	0.1503	0.00245	2.5e-05
0.3	0.4499	0.001714	2.1e-05
0.3001	0.2502	0.002125	2.3e-05
0.3006	0.02	0.002999	2.8e-05
0.3006	0.6492	0.001461	2e-05
0.3008	0.3496	0.001896	2.2e-05
0.3011	0.5491	0.001576	2e-05
0.3996	0.2504	0.001849	2.2e-05
0.3999	0.3501	0.001655	2.1e-05
0.3999	0.5499	0.001373	1.9e-05
0.4	0.15	0.002129	2.3e-05
0.4005	0.0498	0.002499	2.5e-05
0.4011	0.4491	0.001487	2e-05
0.4996	0.0502	0.002166	2.3e-05
0.4997	0.3502	0.001428	2e-05
0.4999	0.1501	0.001836	2.1e-05
0.5001	0.25	0.001602	2e-05
0.5001	0.4497	0.001297	1.9e-05
0.6	0.0501	0.001848	2.1e-05
0.6	0.3501	0.001214	1.9e-05
0.6001	0.1499	0.001565	2e-05
0.6003	0.2498	0.00136	1.9e-05
0.6999	0.25	0.001144	1.8e-05
0.7002	0.05	0.001556	2e-05
0.7002	0.1498	0.00131	1.9e-05
0.8	0.0501	0.001284	1.9e-05
0.8	0.1499	0.001081	1.8e-05
0.9	0.05	0.001056	1.8e-05

System: ethanol + benzenemethanol + benzyl ethanoate; phases: Liquid
Fixed: Temperature, K = 303.15
Fixed: Pressure, kPa = 101
Property: Refractive index (Na D-line) (Liquid); method: Standard Abbe refractometry
Mole fraction of ethanol	Mole fraction of benzyl ethanoate	Refractive index (Na D-line)	uncertainty
0.0494	0.9006	1.49634	0.00036
0.0496	0.2	1.52216	0.00033
0.0496	0.7001	1.50265	0.00035
0.0498	0.8002	1.49939	0.00036
0.0499	0.4	1.51362	0.00034
0.0502	0.2998	1.51772	0.00034
0.0502	0.5002	1.50972	0.00035
0.0502	0.6	1.50605	0.00035
0.0504	0.0499	1.52919	0.00033
0.0506	0.1	1.52673	0.00033
0.1003	0.8494	1.4931	0.00036
0.1004	0.4498	1.50687	0.00034
0.1005	0.6497	1.49961	0.00035
0.1008	0.0499	1.52419	0.00033
0.1008	0.1497	1.51945	0.00033
0.101	0.25	1.51495	0.00033
0.101	0.5495	1.50308	0.00035
0.101	0.7488	1.49623	0.00035
0.1011	0.3494	1.51075	0.00034
0.2001	0.0497	1.5135	0.00033
0.2002	0.5499	1.49307	0.00034
0.2003	0.35	1.50049	0.00034
0.2006	0.2497	1.50447	0.00033
0.2007	0.1496	1.50885	0.00033
0.2007	0.6491	1.48961	0.00035
0.2007	0.7492	1.48637	0.00035
0.201	0.4496	1.49664	0.00034
0.2996	0.1503	1.49705	0.00033
0.3	0.4499	1.48542	0.00034
0.3001	0.2502	1.4929	0.00033
0.3006	0.02	1.50268	0.00033
0.3006	0.6492	1.47869	0.00035
0.3008	0.3496	1.48895	0.00034
0.3011	0.5491	1.48187	0.00034
0.3996	0.2504	1.48013	0.00033
0.3999	0.3501	1.47647	0.00034
0.3999	0.5499	1.46975	0.00034
0.4	0.15	1.48386	0.00033
0.4005	0.0498	1.48787	0.00033
0.4011	0.4491	1.47296	0.00034
0.4996	0.0502	1.47281	0.00033
0.4997	0.3502	1.46247	0.00034
0.4999	0.1501	1.46913	0.00033
0.5001	0.25	1.46574	0.00033
0.5001	0.4497	1.45928	0.00034
0.6	0.0501	1.45572	0.00033
0.6	0.3501	1.44675	0.00033
0.6001	0.1499	1.45262	0.00033
0.6003	0.2498	1.4496	0.00033
0.6999	0.25	1.43151	0.00033
0.7002	0.05	1.43633	0.00032
0.7002	0.1498	1.43386	0.00033
0.8	0.0501	1.41408	0.00032
0.8	0.1499	1.41253	0.00032
0.9	0.05	1.38825	0.00032

System: ethanol + benzenemethanol + benzyl ethanoate; phases: Liquid
Fixed: Temperature, K = 303.15
Fixed: Pressure, kPa = 101
Property: Mass density, kg/m3 (Liquid); method: Vibrating tube method
Mole fraction of ethanol	Mole fraction of benzyl ethanoate	Mass density, kg/m3	uncertainty
0.0494	0.9006	1040.85	0.27
0.0496	0.2	1033.94	0.19
0.0496	0.7001	1039.2	0.24
0.0498	0.8002	1040.02	0.25
0.0499	0.4	1036.31	0.21
0.0502	0.2998	1035.12	0.2
0.0502	0.5002	1037.32	0.22
0.0502	0.6	1038.28	0.23
0.0504	0.0499	1031.65	0.18
0.0506	0.1	1032.39	0.19
0.1003	0.8494	1034.79	0.25
0.1004	0.4498	1030.76	0.21
0.1005	0.6497	1032.93	0.23
0.1008	0.0499	1024.79	0.18
0.1008	0.1497	1026.53	0.19
0.101	0.25	1028.09	0.19
0.101	0.5495	1031.81	0.22
0.101	0.7488	1033.82	0.24
0.1011	0.3494	1029.44	0.2
0.2001	0.0497	1010.17	0.18
0.2002	0.5499	1019.32	0.21
0.2003	0.35	1016.21	0.19
0.2006	0.2497	1014.46	0.19
0.2007	0.1496	1012.35	0.18
0.2007	0.6491	1020.55	0.22
0.2007	0.7492	1021.72	0.23
0.201	0.4496	1017.74	0.2
0.2996	0.1503	996.74	0.18
0.3	0.4499	1003.5	0.2
0.3001	0.2502	999.25	0.19
0.3006	0.02	992.75	0.18
0.3006	0.6492	1006.85	0.21
0.3008	0.3496	1001.39	0.19
0.3011	0.5491	1005.17	0.2
0.3996	0.2504	982.22	0.19
0.3999	0.3501	984.96	0.2
0.3999	0.5499	989.84	0.2
0.4	0.15	978.86	0.19
0.4005	0.0498	975.08	0.19
0.4011	0.4491	987.37	0.2
0.4996	0.0502	954.3	0.21
0.4997	0.3502	966.52	0.21
0.4999	0.1501	958.93	0.21
0.5001	0.25	962.92	0.21
0.5001	0.4497	969.56	0.21
0.6	0.0501	930.33	0.2
0.6	0.3501	945.48	0.2
0.6001	0.1499	936.03	0.2
0.6003	0.2498	941.05	0.2
0.6999	0.25	916.23	0.2
0.7002	0.05	902.76	0.2
0.7002	0.1498	909.94	0.2
0.8	0.0501	870.95	0.2
0.8	0.1499	879.84	0.19
0.9	0.05	833.5	0.19
