Measured thermophysical data. Interfacial Tension Measurements of the (H2O + n-Decane + CO2) Ternary System at Elevated Pressures and Temperatures
Source: J. Chem. Eng. Data, 2011, 10.1021/je200825j
Compound 1: carbon dioxide, CO2, InChI=1S/CO2/c2-1-3, purity 99.95%
Compound 2: water, H2O, InChI=1S/H2O/h1H2
Compound 3: decane, C10H22, InChI=1S/C10H22/c1-3-5-7-9-10-8-6-4-2/h3-10H2,1-2H3, purity 99%

System: decane + water; phases: Liquid mixture 1, Liquid mixture 2
Property: Interfacial tension, N/m (Liquid mixture 1); method: Drop weight
Pressure, kPa	Temperature, K	Interfacial tension, N/m	uncertainty
110	297.85	0.05196	0.00071
150	343.45	0.04628	0.00062
180	323.35	0.04778	0.00052
200	374.25	0.04287	0.00062
400	403.05	0.03959	0.00136
1150	442.85	0.03236	0.00561
22250	323.35	0.04888	0.00071
22850	343.45	0.04768	0.0006
23000	374.25	0.04413	0.00064
24500	403.05	0.04033	0.00131
39800	323.35	0.04911	0.00065
46400	442.85	0.03689	0.00148
47150	374.25	0.04521	0.00149
48000	403.05	0.0409	0.00123
49020	343.45	0.04839	0.00059

System: decane + carbon dioxide + water; phases: Liquid mixture 1, Liquid mixture 2
Property: Interfacial tension, N/m (Liquid mixture 1); method: Drop weight
Pressure, kPa	Temperature, K	Mole fraction of carbon dioxide	Interfacial tension, N/m	uncertainty
110	297.85	0	0.05196	0.00071
150	343.45	0	0.04628	0.00062
180	323.35	0	0.04778	0.00052
200	374.25	0	0.04287	0.00062
400	403.05	0	0.03959	0.00136
1150	442.85	0	0.03236	0.00561
11000	443.05	0.2	0.02853	0.00159
12600	403.15	0.5	0.02629	0.00254
14100	323.25	0.2	0.03925	0.00255
14800	443.15	0.5	0.02172	0.00177
15500	374.45	0.2	0.03689	0.00202
17500	403.15	0.2	0.0336	0.00155
21500	323.25	0.2	0.03919	0.00198
22000	443.05	0.2	0.02975	0.00171
22250	323.35	0	0.04888	0.00071
22850	343.45	0	0.04768	0.0006
23000	323.15	0.5	0.03454	0.00129
23000	374.25	0	0.04413	0.00064
24500	403.05	0	0.04033	0.00131
25000	403.15	0.2	0.0344	0.00186
27000	374.45	0.2	0.03743	0.00192
33000	323.15	0.5	0.03476	0.00126
36700	373.55	0.5	0.03192	0.00135
39800	323.35	0	0.04911	0.00065
41600	323.25	0.2	0.03846	0.00305
46000	403.15	0.2	0.03555	0.00128
46000	443.05	0.2	0.03133	0.00263
46000	443.15	0.5	0.02506	0.00152
46150	373.55	0.5	0.03154	0.00121
46400	442.85	0	0.03689	0.00148
47000	323.15	0.5	0.03421	0.00102
47000	374.45	0.2	0.03772	0.00154
47150	374.25	0	0.04521	0.00149
48000	403.05	0	0.0409	0.00123
48200	403.15	0.5	0.0299	0.00159
49020	343.45	0	0.04839	0.00059
