Measured thermophysical data. Volumetric and Acoustic Properties of Binary Mixtures of the Ionic Liquid 1-Butyl-3-methylimidazolium Tetrafluoroborate [bmim][BF4] with Alkoxyalkanols at Different Temperatures
Source: J. Chem. Eng. Data, 2012, 10.1021/je2010209
Compound 1: 1-butyl-3-methylimidazolium tetrafluoroborate, C8H15BF4N2, InChI=1S/C8H15N2.BF4/c1-3-4-5-10-7-6-9(2)8-10;2-1(3,4)5/h6-8H,3-5H2,1-2H3;/q+1;-1, purity 98%
Compound 2: 2-methoxyethan-1-ol, C3H8O2, InChI=1S/C3H8O2/c1-5-3-2-4/h4H,2-3H2,1H3, purity 97%
Compound 3: 2-(2-methoxyethoxy)ethanol, C5H12O3, InChI=1S/C5H12O3/c1-7-4-5-8-3-2-6/h6H,2-5H2,1H3, purity 98%
Compound 4: 2-[2-(2-methoxyethoxy)ethoxy]ethanol, C7H16O4, InChI=1S/C7H16O4/c1-9-4-5-11-7-6-10-3-2-8/h8H,2-7H2,1H3, purity 97%

System: 1-butyl-3-methylimidazolium tetrafluoroborate; phases: Liquid
Fixed: Pressure, kPa = 101
Property: Speed of sound, m/s (Liquid); method: Sing-around technique in a fixed-path interferometer
Temperature, K	Speed of sound, m/s	uncertainty
288.15	1589	5
293.15	1577	5
298.15	1565	5
303.15	1554	5
308.15	1542	5
313.15	1531	5
318.15	1520	5

System: 1-butyl-3-methylimidazolium tetrafluoroborate; phases: Liquid
Fixed: Pressure, kPa = 101
Property: Mass density, kg/m3 (Liquid); method: Vibrating tube method
Temperature, K	Mass density, kg/m3	uncertainty
288.15	1206.508	1.286
293.15	1202.952	1.278
298.15	1199.387	1.269
303.15	1195.818	1.261
308.15	1192.266	1.253
313.15	1188.723	1.245
318.15	1185.171	1.236

System: 2-methoxyethan-1-ol; phases: Liquid
Fixed: Pressure, kPa = 101
Property: Speed of sound, m/s (Liquid); method: Sing-around technique in a fixed-path interferometer
Temperature, K	Speed of sound, m/s	uncertainty
288.15	1380	5
293.15	1367	5
298.15	1351	5
303.15	1337	5
308.15	1321	5
313.15	1304	5
318.15	1287	5

System: 2-methoxyethan-1-ol; phases: Liquid
Fixed: Pressure, kPa = 101
Property: Mass density, kg/m3 (Liquid); method: Vibrating tube method
Temperature, K	Mass density, kg/m3	uncertainty
288.15	969.794	1.785
293.15	965.063	1.77
298.15	960.447	1.755
303.15	955.825	1.741
308.15	951.214	1.726
313.15	946.562	1.712
318.15	941.864	1.697

System: 2-(2-methoxyethoxy)ethanol; phases: Liquid
Fixed: Pressure, kPa = 101
Property: Speed of sound, m/s (Liquid); method: Sing-around technique in a fixed-path interferometer
Temperature, K	Speed of sound, m/s	uncertainty
288.15	1451	5
293.15	1434	5
298.15	1416	5
303.15	1399	5
308.15	1382	5
313.15	1366	5
318.15	1349	5

System: 2-(2-methoxyethoxy)ethanol; phases: Liquid
Fixed: Pressure, kPa = 101
Property: Mass density, kg/m3 (Liquid); method: Vibrating tube method
Temperature, K	Mass density, kg/m3	uncertainty
288.15	1024.599	0.887
293.15	1020.202	0.879
298.15	1015.787	0.87
303.15	1011.36	0.861
308.15	1006.918	0.852
313.15	1002.467	0.843
318.15	998.009	0.835

System: 2-[2-(2-methoxyethoxy)ethoxy]ethanol; phases: Liquid
Fixed: Pressure, kPa = 101
Property: Speed of sound, m/s (Liquid); method: Sing-around technique in a fixed-path interferometer
Temperature, K	Speed of sound, m/s	uncertainty
288.15	1470	5
293.15	1452	5
298.15	1436	5
303.15	1421	5
308.15	1408	5
313.15	1393	5
318.15	1376	5

System: 2-[2-(2-methoxyethoxy)ethoxy]ethanol; phases: Liquid
Fixed: Pressure, kPa = 101
Property: Mass density, kg/m3 (Liquid); method: Vibrating tube method
Temperature, K	Mass density, kg/m3	uncertainty
288.15	1050.097	2.093
293.15	1045.749	2.075
298.15	1041.315	2.056
303.15	1036.842	2.037
308.15	1032.267	2.017
313.15	1027.763	1.999
318.15	1023.296	1.98

System: 2-methoxyethan-1-ol + 1-butyl-3-methylimidazolium tetrafluoroborate; phases: Liquid
Fixed: Pressure, kPa = 101
Property: Speed of sound, m/s (Liquid); method: Sing-around technique in a fixed-path interferometer
Temperature, K	Mole fraction of 1-butyl-3-methylimidazolium tetrafluoroborate	Speed of sound, m/s	uncertainty
288.15	0	1380	5
288.15	0.0509	1411	5
288.15	0.1092	1438	5
288.15	0.2052	1474	5
288.15	0.3071	1500	5
288.15	0.4025	1521	5
288.15	0.5116	1539	5
288.15	0.6257	1553	5
288.15	0.7153	1565	5
288.15	0.8088	1574	5
288.15	0.9155	1582	5
288.15	1	1589	5
293.15	0	1367	5
293.15	0.0509	1394	5
293.15	0.1092	1422	5
293.15	0.2052	1460	5
293.15	0.3071	1486	5
293.15	0.4025	1508	5
293.15	0.5116	1527	5
293.15	0.6257	1542	5
293.15	0.7153	1554	5
293.15	0.8088	1563	5
293.15	0.9155	1571	5
293.15	1	1577	5
298.15	0	1351	5
298.15	0.0509	1378	5
298.15	0.1092	1406	5
298.15	0.2052	1446	5
298.15	0.3071	1472	5
298.15	0.4025	1494	5
298.15	0.5116	1514	5
298.15	0.6257	1530	5
298.15	0.7153	1542	5
298.15	0.8088	1551	5
298.15	0.9155	1560	5
298.15	1	1565	5
303.15	0	1337	5
303.15	0.0509	1361	5
303.15	0.1092	1391	5
303.15	0.2052	1431	5
303.15	0.3071	1457	5
303.15	0.4025	1480	5
303.15	0.5116	1501	5
303.15	0.6257	1517	5
303.15	0.7153	1530	5
303.15	0.8088	1539	5
303.15	0.9155	1548	5
303.15	1	1554	5
308.15	0	1321	5
308.15	0.0509	1344	5
308.15	0.1092	1375	5
308.15	0.2052	1415	5
308.15	0.3071	1443	5
308.15	0.4025	1467	5
308.15	0.5116	1488	5
308.15	0.6257	1505	5
308.15	0.7153	1517	5
308.15	0.8088	1526	5
308.15	0.9155	1536	5
308.15	1	1542	5
313.15	0	1304	5
313.15	0.0509	1328	5
313.15	0.1092	1359	5
313.15	0.2052	1400	5
313.15	0.3071	1430	5
313.15	0.4025	1453	5
313.15	0.5116	1475	5
313.15	0.6257	1492	5
313.15	0.7153	1505	5
313.15	0.8088	1514	5
313.15	0.9155	1525	5
313.15	1	1531	5
318.15	0	1287	5
318.15	0.0509	1311	5
318.15	0.1092	1343	5
318.15	0.2052	1383	5
318.15	0.3071	1415	5
318.15	0.4025	1440	5
318.15	0.5116	1461	5
318.15	0.6257	1479	5
318.15	0.7153	1492	5
318.15	0.8088	1502	5
318.15	0.9155	1513	5
318.15	1	1520	5

System: 2-methoxyethan-1-ol + 1-butyl-3-methylimidazolium tetrafluoroborate; phases: Liquid
Fixed: Pressure, kPa = 101
Property: Mass density, kg/m3 (Liquid); method: Vibrating tube method
Temperature, K	Mole fraction of 1-butyl-3-methylimidazolium tetrafluoroborate	Mass density, kg/m3	uncertainty
288.15	0	969.794	1.785
288.15	0.0509	1000.596	1.825
288.15	0.1092	1030.064	1.866
288.15	0.2052	1068.448	1.887
288.15	0.3071	1099.906	1.865
288.15	0.4025	1123.356	1.818
288.15	0.5116	1145.198	1.742
288.15	0.6257	1164.11	1.648
288.15	0.7153	1176.883	1.567
288.15	0.8088	1188.61	1.478
288.15	0.9155	1199.861	1.373
288.15	1	1206.508	1.286
293.15	0	965.063	1.77
293.15	0.0509	996.158	1.81
293.15	0.1092	1025.737	1.849
293.15	0.2052	1064.328	1.871
293.15	0.3071	1095.866	1.85
293.15	0.4025	1119.424	1.804
293.15	0.5116	1141.378	1.73
293.15	0.6257	1160.347	1.636
293.15	0.7153	1173.169	1.556
293.15	0.8088	1184.963	1.468
293.15	0.9155	1196.253	1.364
293.15	1	1202.952	1.278
298.15	0	960.447	1.755
298.15	0.0509	991.715	1.796
298.15	0.1092	1021.41	1.832
298.15	0.2052	1060.084	1.855
298.15	0.3071	1091.755	1.836
298.15	0.4025	1115.423	1.79
298.15	0.5116	1137.545	1.717
298.15	0.6257	1156.586	1.625
298.15	0.7153	1169.467	1.545
298.15	0.8088	1181.307	1.458
298.15	0.9155	1192.64	1.355
298.15	1	1199.387	1.269
303.15	0	955.825	1.741
303.15	0.0509	987.145	1.782
303.15	0.1092	1017.071	1.815
303.15	0.2052	1056.148	1.84
303.15	0.3071	1087.958	1.822
303.15	0.4025	1111.592	1.777
303.15	0.5116	1133.655	1.704
303.15	0.6257	1152.84	1.613
303.15	0.7153	1165.771	1.535
303.15	0.8088	1177.657	1.449
303.15	0.9155	1189.035	1.346
303.15	1	1195.818	1.261
308.15	0	951.214	1.726
308.15	0.0509	982.765	1.768
308.15	0.1092	1012.723	1.798
308.15	0.2052	1051.854	1.824
308.15	0.3071	1083.794	1.807
308.15	0.4025	1107.663	1.763
308.15	0.5116	1129.902	1.692
308.15	0.6257	1149.096	1.602
308.15	0.7153	1162.087	1.524
308.15	0.8088	1174.007	1.439
308.15	0.9155	1185.433	1.337
308.15	1	1192.266	1.253
313.15	0	946.562	1.712
313.15	0.0509	978.381	1.755
313.15	0.1092	1008.485	1.782
313.15	0.2052	1047.681	1.808
313.15	0.3071	1079.713	1.792
313.15	0.4025	1103.682	1.75
313.15	0.5116	1126.044	1.68
313.15	0.6257	1145.367	1.591
313.15	0.7153	1158.411	1.514
313.15	0.8088	1170.376	1.429
313.15	0.9155	1181.838	1.328
313.15	1	1188.723	1.245
318.15	0	941.864	1.697
318.15	0.0509	973.683	1.74
318.15	0.1092	1004.012	1.765
318.15	0.2052	1043.461	1.793
318.15	0.3071	1075.708	1.778
318.15	0.4025	1099.79	1.736
318.15	0.5116	1122.25	1.668
318.15	0.6257	1141.633	1.58
318.15	0.7153	1154.739	1.503
318.15	0.8088	1166.724	1.42
318.15	0.9155	1178.227	1.319
318.15	1	1185.171	1.236

System: 2-(2-methoxyethoxy)ethanol + 1-butyl-3-methylimidazolium tetrafluoroborate; phases: Liquid
Fixed: Pressure, kPa = 101
Property: Speed of sound, m/s (Liquid); method: Sing-around technique in a fixed-path interferometer
Temperature, K	Mole fraction of 1-butyl-3-methylimidazolium tetrafluoroborate	Speed of sound, m/s	uncertainty
288.15	0	1451	5
288.15	0.0308	1461	5
288.15	0.1053	1490	5
288.15	0.2065	1514	5
288.15	0.3137	1533	5
288.15	0.4002	1544	5
288.15	0.5035	1559	5
288.15	0.6083	1568	5
288.15	0.7023	1575	5
288.15	0.8291	1580	5
288.15	0.9381	1583	5
293.15	0	1434	5
293.15	0.0308	1445	5
293.15	0.1053	1473	5
293.15	0.2065	1499	5
293.15	0.3137	1517	5
293.15	0.4002	1531	5
293.15	0.5035	1546	5
293.15	0.6083	1555	5
293.15	0.7023	1563	5
293.15	0.8291	1572	5
293.15	0.9381	1574	5
298.15	0	1416	5
298.15	0.0308	1428	5
298.15	0.1053	1457	5
298.15	0.2065	1483	5
298.15	0.3137	1503	5
298.15	0.4002	1518	5
298.15	0.5035	1533	5
298.15	0.6083	1543	5
298.15	0.7023	1551	5
298.15	0.8291	1560	5
298.15	0.9381	1563	5
303.15	0	1399	5
303.15	0.0308	1411	5
303.15	0.1053	1441	5
303.15	0.2065	1468	5
303.15	0.3137	1489	5
303.15	0.4002	1504	5
303.15	0.5035	1519	5
303.15	0.6083	1530	5
303.15	0.7023	1539	5
303.15	0.8291	1546	5
303.15	0.9381	1552	5
308.15	0	1382	5
308.15	0.0308	1395	5
308.15	0.1053	1425	5
308.15	0.2065	1453	5
308.15	0.3137	1474	5
308.15	0.4002	1490	5
308.15	0.5035	1506	5
308.15	0.6083	1517	5
308.15	0.7023	1526	5
308.15	0.8291	1534	5
308.15	0.9381	1540	5
313.15	0	1366	5
313.15	0.0308	1378	5
313.15	0.1053	1409	5
313.15	0.2065	1437	5
313.15	0.3137	1460	5
313.15	0.4002	1477	5
313.15	0.5035	1493	5
313.15	0.6083	1505	5
313.15	0.7023	1514	5
313.15	0.8291	1523	5
313.15	0.9381	1529	5
318.15	0	1349	5
318.15	0.0308	1362	5
318.15	0.1053	1393	5
318.15	0.2065	1422	5
318.15	0.3137	1447	5
318.15	0.4002	1464	5
318.15	0.5035	1480	5
318.15	0.6083	1494	5
318.15	0.7023	1503	5
318.15	0.8291	1512	5
318.15	0.9381	1519	5

System: 2-(2-methoxyethoxy)ethanol + 1-butyl-3-methylimidazolium tetrafluoroborate; phases: Liquid
Fixed: Pressure, kPa = 101
Property: Mass density, kg/m3 (Liquid); method: Vibrating tube method
Temperature, K	Mole fraction of 1-butyl-3-methylimidazolium tetrafluoroborate	Mass density, kg/m3	uncertainty
288.15	0	1024.599	0.887
288.15	0.0308	1035.125	0.911
288.15	0.1053	1059.035	0.961
288.15	0.2065	1086.982	1.019
288.15	0.3137	1110.842	1.07
288.15	0.4002	1126.769	1.105
288.15	0.5035	1143.125	1.141
288.15	0.6083	1158.137	1.175
288.15	0.7023	1170.822	1.204
288.15	0.8291	1187.123	1.241
288.15	0.9381	1199.908	1.271
293.15	0	1020.202	0.879
293.15	0.0308	1030.688	0.902
293.15	0.1053	1054.733	0.952
293.15	0.2065	1082.851	1.01
293.15	0.3137	1106.708	1.062
293.15	0.4002	1122.558	1.096
293.15	0.5035	1138.991	1.132
293.15	0.6083	1154.165	1.166
293.15	0.7023	1167.068	1.195
293.15	0.8291	1183.253	1.232
293.15	0.9381	1196.014	1.262
298.15	0	1015.787	0.87
298.15	0.0308	1026.512	0.894
298.15	0.1053	1050.613	0.943
298.15	0.2065	1078.494	1.001
298.15	0.3137	1102.508	1.052
298.15	0.4002	1118.579	1.087
298.15	0.5035	1135.225	1.124
298.15	0.6083	1150.519	1.158
298.15	0.7023	1163.463	1.187
298.15	0.8291	1179.998	1.225
298.15	0.9381	1192.92	1.254
303.15	0	1011.36	0.861
303.15	0.0308	1022.021	0.885
303.15	0.1053	1046.355	0.934
303.15	0.2065	1074.577	0.993
303.15	0.3137	1098.601	1.044
303.15	0.4002	1114.549	1.078
303.15	0.5035	1131.183	1.115
303.15	0.6083	1146.73	1.149
303.15	0.7023	1160.076	1.179
303.15	0.8291	1176.923	1.218
303.15	0.9381	1189.623	1.247
308.15	0	1006.918	0.852
308.15	0.0308	1017.503	0.876
308.15	0.1053	1042.003	0.925
308.15	0.2065	1070.558	0.984
308.15	0.3137	1094.685	1.035
308.15	0.4002	1110.652	1.07
308.15	0.5035	1127.295	1.106
308.15	0.6083	1142.953	1.141
308.15	0.7023	1156.362	1.171
308.15	0.8291	1173.243	1.209
308.15	0.9381	1185.913	1.238
313.15	0	1002.467	0.843
313.15	0.0308	1013.137	0.867
313.15	0.1053	1037.685	0.916
313.15	0.2065	1066.486	0.976
313.15	0.3137	1090.915	1.027
313.15	0.4002	1107.008	1.062
313.15	0.5035	1123.645	1.098
313.15	0.6083	1139.191	1.133
313.15	0.7023	1152.492	1.162
313.15	0.8291	1169.381	1.201
313.15	0.9381	1182.201	1.23
318.15	0	998.009	0.835
318.15	0.0308	1008.896	0.858
318.15	0.1053	1033.445	0.908
318.15	0.2065	1062.001	0.967
318.15	0.3137	1086.381	1.018
318.15	0.4002	1102.747	1.053
318.15	0.5035	1119.786	1.09
318.15	0.6083	1135.506	1.124
318.15	0.7023	1148.843	1.154
318.15	0.8291	1165.676	1.192
318.15	0.9381	1178.569	1.221

System: 2-[2-(2-methoxyethoxy)ethoxy]ethanol + 1-butyl-3-methylimidazolium tetrafluoroborate; phases: Liquid
Fixed: Pressure, kPa = 101
Property: Speed of sound, m/s (Liquid); method: Sing-around technique in a fixed-path interferometer
Temperature, K	Mole fraction of 1-butyl-3-methylimidazolium tetrafluoroborate	Speed of sound, m/s	uncertainty
288.15	0	1470	5
288.15	0.024	1484	5
288.15	0.107	1510	5
288.15	0.2241	1541	5
288.15	0.3275	1555	5
288.15	0.4285	1564	5
288.15	0.5067	1570	5
288.15	0.6282	1575	5
288.15	0.7072	1581	5
288.15	0.8256	1584	5
288.15	0.913	1585	5
293.15	0	1452	5
293.15	0.024	1466	5
293.15	0.107	1492	5
293.15	0.2241	1519	5
293.15	0.3275	1539	5
293.15	0.4285	1550	5
293.15	0.5067	1555	5
293.15	0.6282	1561	5
293.15	0.7072	1568	5
293.15	0.8256	1572	5
293.15	0.913	1573	5
298.15	0	1436	5
298.15	0.024	1450	5
298.15	0.107	1475	5
298.15	0.2241	1503	5
298.15	0.3275	1524	5
298.15	0.4285	1533	5
298.15	0.5067	1541	5
298.15	0.6282	1548	5
298.15	0.7072	1555	5
298.15	0.8256	1560	5
298.15	0.913	1560	5
303.15	0	1421	5
303.15	0.024	1435	5
303.15	0.107	1458	5
303.15	0.2241	1488	5
303.15	0.3275	1509	5
303.15	0.4285	1519	5
303.15	0.5067	1528	5
303.15	0.6282	1534	5
303.15	0.7072	1543	5
303.15	0.8256	1548	5
303.15	0.913	1549	5
308.15	0	1408	5
308.15	0.024	1421	5
308.15	0.107	1444	5
308.15	0.2241	1475	5
308.15	0.3275	1494	5
308.15	0.4285	1507	5
308.15	0.5067	1516	5
308.15	0.6282	1523	5
308.15	0.7072	1530	5
308.15	0.8256	1536	5
308.15	0.913	1538	5
313.15	0	1393	5
313.15	0.024	1406	5
313.15	0.107	1431	5
313.15	0.2241	1461	5
313.15	0.3275	1483	5
313.15	0.4285	1493	5
313.15	0.5067	1503	5
313.15	0.6282	1511	5
313.15	0.7072	1518	5
313.15	0.8256	1524	5
313.15	0.913	1527	5
318.15	0	1376	5
318.15	0.024	1390	5
318.15	0.107	1415	5
318.15	0.2241	1447	5
318.15	0.3275	1468	5
318.15	0.4285	1480	5
318.15	0.5067	1490	5
318.15	0.6282	1500	5
318.15	0.7072	1506	5
318.15	0.8256	1513	5
318.15	0.913	1516	5

System: 2-[2-(2-methoxyethoxy)ethoxy]ethanol + 1-butyl-3-methylimidazolium tetrafluoroborate; phases: Liquid
Fixed: Pressure, kPa = 101
Property: Mass density, kg/m3 (Liquid); method: Vibrating tube method
Temperature, K	Mole fraction of 1-butyl-3-methylimidazolium tetrafluoroborate	Mass density, kg/m3	uncertainty
288.15	0	1050.097	2.093
288.15	0.024	1056.872	2.089
288.15	0.107	1076.656	2.054
288.15	0.2241	1099.666	1.979
288.15	0.3275	1118.288	1.904
288.15	0.4285	1135.349	1.823
288.15	0.5067	1147.584	1.757
288.15	0.6282	1164.468	1.645
288.15	0.7072	1174.318	1.57
288.15	0.8256	1188.107	1.455
288.15	0.913	1197.842	1.371
293.15	0	1045.749	2.075
293.15	0.024	1052.518	2.07
293.15	0.107	1072.568	2.037
293.15	0.2241	1095.948	1.965
293.15	0.3275	1114.498	1.89
293.15	0.4285	1131.412	1.81
293.15	0.5067	1143.602	1.743
293.15	0.6282	1160.738	1.634
293.15	0.7072	1170.785	1.56
293.15	0.8256	1184.682	1.446
293.15	0.913	1194.256	1.362
298.15	0	1041.315	2.056
298.15	0.024	1048.151	2.052
298.15	0.107	1068.364	2.02
298.15	0.2241	1091.873	1.949
298.15	0.3275	1110.478	1.875
298.15	0.4285	1127.421	1.796
298.15	0.5067	1139.641	1.73
298.15	0.6282	1156.883	1.622
298.15	0.7072	1166.998	1.549
298.15	0.8256	1181.027	1.437
298.15	0.913	1190.695	1.353
303.15	0	1036.842	2.037
303.15	0.024	1043.758	2.034
303.15	0.107	1064.168	2.003
303.15	0.2241	1087.794	1.934
303.15	0.3275	1106.458	1.861
303.15	0.4285	1123.478	1.782
303.15	0.5067	1135.768	1.718
303.15	0.6282	1153.121	1.611
303.15	0.7072	1163.333	1.538
303.15	0.8256	1177.388	1.427
303.15	0.913	1186.998	1.344
308.15	0	1032.267	2.017
308.15	0.024	1039.37	2.015
308.15	0.107	1060.132	1.987
308.15	0.2241	1083.757	1.918
308.15	0.3275	1102.438	1.846
308.15	0.4285	1119.544	1.769
308.15	0.5067	1131.914	1.705
308.15	0.6282	1149.372	1.6
308.15	0.7072	1159.631	1.528
308.15	0.8256	1173.678	1.417
308.15	0.913	1183.357	1.335
313.15	0	1027.763	1.999
313.15	0.024	1034.901	1.997
313.15	0.107	1055.734	1.969
313.15	0.2241	1079.586	1.902
313.15	0.3275	1098.413	1.832
313.15	0.4285	1115.625	1.756
313.15	0.5067	1128.038	1.693
313.15	0.6282	1145.628	1.588
313.15	0.7072	1155.929	1.517
313.15	0.8256	1170.128	1.408
313.15	0.913	1179.904	1.326
318.15	0	1023.296	1.98
318.15	0.024	1030.535	1.979
318.15	0.107	1051.512	1.952
318.15	0.2241	1075.427	1.887
318.15	0.3275	1094.374	1.817
318.15	0.4285	1111.735	1.742
318.15	0.5067	1124.254	1.68
318.15	0.6282	1141.801	1.577
318.15	0.7072	1151.998	1.506
318.15	0.8256	1166.141	1.397
318.15	0.913	1175.997	1.317
