Measured thermophysical data. Isobaric Vapor Liquid Equilibrium for Methanol + Dimethyl Carbonate + 1-Octyl-3-methylimidazolium Tetrafluoroborate
Source: J. Chem. Eng. Data, 2012, 10.1021/je2005402
Compound 1: methanol, CH4O, InChI=1S/CH4O/c1-2/h2H,1H3
Compound 2: dimethyl carbonate, C3H6O3, InChI=1S/C3H6O3/c1-5-3(4)6-2/h1-2H3
Compound 3: 1-methyl-3-octylimidazolium tetrafluoroborate, C12H23BF4N2, InChI=1S/C12H23N2.BF4/c1-3-4-5-6-7-8-9-14-11-10-13(2)12-14;2-1(3,4)5/h10-12H,3-9H2,1-2H3;/q+1;-1, purity 98%

System: methanol; phases: Liquid, Gas
Property: Vapor or sublimation pressure, kPa (Liquid); method: Ebulliometric method (Recirculating still)
Temperature, K	Vapor or sublimation pressure, kPa	uncertainty
337.85	101.32	1.11452

System: dimethyl carbonate; phases: Liquid, Gas
Property: Vapor or sublimation pressure, kPa (Liquid); method: Ebulliometric method (Recirculating still)
Temperature, K	Vapor or sublimation pressure, kPa	uncertainty
363.25	101.32	1.11452

System: methanol + dimethyl carbonate; phases: Liquid, Gas
Fixed: Pressure, kPa = 101.32
Property: Boiling temperature at pressure P, K (Liquid); method: Ebulliometric method (Recirculating still)
Mole fraction of methanol	Boiling temperature at pressure P, K	uncertainty
0	363.25	0.22
0.097	351.6	0.41
0.197	345.86	0.3
0.249	344.05	0.25
0.29	342.85	0.24
0.379	340.83	0.23
0.489	339.05	0.23
0.553	338.33	0.22
0.602	337.93	0.22
0.664	337.54	0.22
0.701	337.3	0.22
0.755	336.92	0.22
0.802	336.87	0.22
0.858	336.74	0.22
0.901	336.85	0.22
0.952	337.03	0.22
1	337.85	0.22

System: methanol + dimethyl carbonate; phases: Gas, Liquid
Fixed: Pressure, kPa = 101.32
Property: Mole fraction of methanol (Gas); method: Chromatography
Mole fraction of methanol	Mole fraction of methanol	uncertainty
0	0	
0.097	0.362	0.012
0.197	0.523	0.008
0.249	0.569	0.007
0.29	0.613	0.006
0.379	0.669	0.006
0.489	0.723	0.005
0.553	0.744	0.005
0.602	0.761	0.005
0.664	0.777	0.005
0.701	0.789	0.005
0.755	0.809	0.005
0.802	0.832	0.005
0.858	0.859	0.005
0.901	0.889	0.005
0.952	0.934	0.006
1	1	

System: methanol + dimethyl carbonate + 1-methyl-3-octylimidazolium tetrafluoroborate; phases: Liquid, Gas
Fixed: Pressure, kPa = 101.32
Property: Boiling temperature at pressure P, K (Liquid); method: Ebulliometric method (Recirculating still)
Mole fraction of 1-methyl-3-octylimidazolium tetrafluoroborate	Solvent: Mole fraction of methanol	Boiling temperature at pressure P, K	uncertainty
0.10081	0.378	344.85	0.31
0.10085	0.081	357.63	0.37
0.10104	0.578	341.36	0.31
0.10104	0.801	340.33	0.29
0.10108	0.164	352.35	0.37
0.1011	0.697	340.55	0.3
0.1016	0.256	347.65	0.31
0.10186	0.539	342.2	0.32
0.10205	0.901	340.23	0.29
0.10263	0.495	342.79	0.32
0.18446	0.056	362.43	0.36
0.19119	0.68	345.33	0.34
0.19156	0.458	348.34	0.36
0.19231	0.787	344.73	0.32
0.19273	0.561	346.63	0.34
0.19292	0.156	357.65	0.39
0.19321	0.898	344.41	0.31
0.19363	0.526	347.61	0.35
0.19435	0.353	350.33	0.35
0.19444	0.226	353.65	0.34
0.30219	0.512	355.89	0.38
0.30244	0.577	353.89	0.38
0.30276	0.44	357.63	0.39
0.30307	0.228	359.37	0.37
0.3034	0.147	364.41	0.37
0.30409	0.887	351.05	0.33
0.30435	0.666	353.65	0.36
0.3044	0.05	368.63	0.34
0.30455	0.327	359.22	0.38
0.30587	0.763	352.36	0.35

System: methanol + dimethyl carbonate + 1-methyl-3-octylimidazolium tetrafluoroborate; phases: Gas, Liquid
Fixed: Pressure, kPa = 101.32
Property: Mole fraction of methanol (Gas); method: Chromatography
Mole fraction of 1-methyl-3-octylimidazolium tetrafluoroborate	Solvent: Mole fraction of methanol	Mole fraction of methanol	uncertainty
0.10081	0.378	0.643	0.007
0.10085	0.081	0.275	0.01
0.10104	0.578	0.748	0.005
0.10104	0.801	0.848	0.005
0.10108	0.164	0.447	0.009
0.1011	0.697	0.795	0.005
0.1016	0.256	0.55	0.008
0.10186	0.539	0.723	0.006
0.10205	0.901	0.91	0.005
0.10263	0.495	0.7	0.006
0.18446	0.056	0.227	0.008
0.19119	0.68	0.796	0.005
0.19156	0.458	0.667	0.006
0.19231	0.787	0.862	0.005
0.19273	0.561	0.732	0.006
0.19292	0.156	0.392	0.007
0.19321	0.898	0.923	0.005
0.19363	0.526	0.711	0.006
0.19435	0.353	0.584	0.007
0.19444	0.226	0.48	0.008
0.30219	0.512	0.692	0.006
0.30244	0.577	0.727	0.006
0.30276	0.44	0.634	0.007
0.30307	0.228	0.461	0.008
0.3034	0.147	0.36	0.008
0.30409	0.887	0.929	0.005
0.30435	0.666	0.788	0.006
0.3044	0.05	0.193	0.008
0.30455	0.327	0.549	0.007
0.30587	0.763	0.86	0.005
