Measured thermophysical data. Vapor-Liquid Equilibria of Glycerol, 1,3-Propanediol, Glycerol + Water,  and Glycerol + 1,3-Propanediol
Source: J. Chem. Eng. Data, 2012, 10.1021/je200766t
Compound 1: glycerol, C3H8O3, InChI=1S/C3H8O3/c4-1-3(6)2-5/h3-6H,1-2H2, purity 99%
Compound 2: water, H2O, InChI=1S/H2O/h1H2, purity 99.99%
Compound 3: propan-1,3-diol, C3H8O2, InChI=1S/C3H8O2/c4-2-1-3-5/h4-5H,1-3H2, purity 99%

System: glycerol; phases: Liquid, Gas
Property: Vapor or sublimation pressure, kPa (Liquid); method: Closed cell (Static) method
Temperature, K	Vapor or sublimation pressure, kPa	uncertainty
351.8	0.00583	0.00043
362.02	0.0129	0.0009
372.06	0.0258	0.0017
382.08	0.0544	0.0034
392.18	0.102	0.006
402.16	0.18	0.011
412.24	0.315	0.019
422.28	0.534	0.032
432.45	0.981	0.021
452.64	2.747	0.02
462.86	4.099	0.029

System: propan-1,3-diol; phases: Liquid, Gas
Property: Vapor or sublimation pressure, kPa (Liquid); method: Closed cell (Static) method
Temperature, K	Vapor or sublimation pressure, kPa	uncertainty
313.2	0.0111	0.0008
323.26	0.026	0.0017
333.23	0.0574	0.0036
343.16	0.12	0.007
351.33	0.221	0.014
361.61	0.43	0.026
362.97	0.462	0.028
371.65	0.785	0.017
381.7	1.395	0.03
391.7	2.376	0.049
391.73	2.374	0.049
401.64	3.883	0.079
411.71	6.212	0.126
421.69	9.628	0.195
431.74	14.621	0.096
441.73	21.629	0.141
451.78	31.436	0.203
461.85	44.811	0.286

System: glycerol + water; phases: Liquid, Gas
Property: Vapor or sublimation pressure, kPa (Liquid); method: Closed cell (Static) method
Mole fraction of glycerol	Temperature, K	Vapor or sublimation pressure, kPa	uncertainty
0.1634	352.74	38.415	0.278
0.1634	363.12	58.274	0.414
0.1634	372.59	82.447	0.582
0.1634	382.59	117.251	0.828
0.1634	397.44	189.667	1.331
0.1634	412.28	295.885	12.304
0.1634	422.31	391.571	16.275
0.1634	432.31	507.719	21.119
0.1634	448.1	746.232	30.599
0.1634	453	836.301	34.355
0.3189	353.23	30.622	0.228
0.3189	363.06	45.28	0.371
0.3189	372.94	65.762	0.518
0.3189	382.65	92.577	0.659
0.3189	397.38	148.544	1.047
0.3189	412.3	232.094	9.846
0.3189	432.31	396.185	16.501
0.3189	452.85	646.434	26.54
0.3374	353.25	29.488	0.22
0.3374	362.97	43.43	0.304
0.3374	372.85	63.189	0.441
0.3374	387.5	104.412	0.734
0.3374	402.22	165.395	1.16
0.3374	422.07	289.967	12.19
0.3374	442.63	488.963	20.112
0.3374	452.87	621.86	25.511
0.4997	363.1	30.622	0.231
0.4997	372.85	44.276	0.334
0.4997	382.63	63.089	0.47
0.4997	397.36	101.704	0.75
0.4997	412.3	158.173	1.151
0.4997	432.19	268.102	11.12
0.4997	452.77	436.205	17.967
0.4997	473.19	671.709	27.362
0.6464	353.38	13.841	0.111
0.6464	363.04	20.16	0.159
0.6464	382.61	41.324	0.321
0.6464	397.4	67.201	0.516
0.6464	412.16	104.212	0.796
0.6464	427.25	157.973	6.574
0.6464	442.38	228.383	9.427
0.6464	452.77	292.375	12.067
0.8317	353.36	6.219	0.067
0.8317	382.67	18.255	0.174
0.8317	397.13	29.187	0.286
0.8317	412.18	45.837	0.444
0.8317	427.07	68.505	0.668
0.8317	442.44	100.902	0.974
0.8317	452.73	128.886	1.248
0.8317	462.95	163.389	1.434

System: glycerol + propan-1,3-diol; phases: Liquid, Gas
Property: Vapor or sublimation pressure, kPa (Liquid); method: Closed cell (Static) method
Mole fraction of propan-1,3-diol	Temperature, K	Vapor or sublimation pressure, kPa	uncertainty
0.1502	361.96	0.121	0.008
0.1502	381.98	0.355	0.022
0.1502	392.04	0.596	0.037
0.1502	401.97	0.975	0.025
0.1502	411.97	1.56	0.022
0.1502	421.91	2.41	0.028
0.1502	432.02	3.682	0.037
0.1502	441.99	5.465	0.05
0.1502	452.03	7.99	0.069
0.1502	462.09	11.488	0.097
0.3059	361.99	0.232	0.015
0.3059	371.99	0.402	0.025
0.3059	382.03	0.671	0.018
0.3059	392.06	1.103	0.028
0.3059	402.07	1.765	0.023
0.3059	412.07	2.747	0.029
0.3059	422.03	4.188	0.038
0.3059	432.15	6.331	0.053
0.3059	442.13	9.23	0.073
0.3059	452.18	13.323	0.102
0.3059	462.28	18.877	0.141
0.497	361.8	0.278	0.018
0.497	362.95	0.279	0.018
0.497	371.76	0.502	0.031
0.497	381.84	0.871	0.023
0.497	391.87	1.492	0.021
0.497	391.88	1.477	0.021
0.497	401.8	2.42	0.026
0.497	411.79	3.799	0.035
0.497	421.72	5.826	0.049
0.497	431.81	8.801	0.069
0.497	441.74	12.915	0.097
0.497	451.8	18.757	0.138
0.497	461.86	26.615	0.191
0.497	451.8	19.131	0.14
0.7037	362.03	0.385	0.024
0.7037	372.02	0.687	0.018
0.7037	382.05	1.181	0.03
0.7037	392.06	1.955	0.024
0.7037	402.01	3.151	0.031
0.7037	412.02	4.974	0.043
0.7037	421.97	7.609	0.061
0.7037	432.07	11.457	0.088
0.7037	442.03	16.813	0.125
0.7037	452.07	24.248	0.177
0.7037	462.14	34.47	0.246
