Measured thermophysical data. Ultrasonic and Volumetric Properties of 1-Ethyl-3-methylimidazolium Trifluoromethanesulfonate Ionic Liquid with 2-Propanol or Tetrahydrofuran at Several Temperatures
Source: J. Chem. Eng. Data, 2011, 10.1021/je200609g
Compound 1: 1-ethyl-3-methylimidazolium trifluoromethanesulfonate, C7H11F3N2O3S, InChI=1S/C6H11N2.CHF3O3S/c1-3-8-5-4-7(2)6-8;2-1(3,4)8(5,6)7/h4-6H,3H2,1-2H3;(H,5,6,7)/q+1;/p-1, purity 98%
Compound 2: propan-2-ol, C3H8O, InChI=1S/C3H8O/c1-3(2)4/h3-4H,1-2H3
Compound 3: tetrahydrofuran, C4H8O, InChI=1S/C4H8O/c1-2-4-5-3-1/h1-4H2

System: 1-ethyl-3-methylimidazolium trifluoromethanesulfonate; phases: Liquid
Fixed: Pressure, kPa = 101.325
Property: Speed of sound, m/s (Liquid); method: Sing-around technique in a fixed-path interferometer
Temperature, K	Speed of sound, m/s	uncertainty
278.15	1482.23	2.14
288.15	1458.35	2.14
298.15	1435.56	2.13
308.15	1413.16	2.13
318.15	1391.29	2.13
328.15	1369.65	2.13

System: 1-ethyl-3-methylimidazolium trifluoromethanesulfonate; phases: Liquid
Fixed: Pressure, kPa = 101.325
Property: Mass density, kg/m3 (Liquid); method: Vibrating tube method
Temperature, K	Mass density, kg/m3	uncertainty
278.15	1400.51	1.77
288.15	1392.02	1.75
298.15	1383.58	1.73
308.15	1375.19	1.71
318.15	1366.86	1.68
328.15	1358.59	1.66

System: propan-2-ol; phases: Liquid
Fixed: Pressure, kPa = 101.325
Property: Speed of sound, m/s (Liquid); method: Sing-around technique in a fixed-path interferometer
Temperature, K	Speed of sound, m/s	uncertainty
278.15	1208.5	0.74
288.15	1173.07	0.73
298.15	1138.16	0.72
308.15	1103.25	0.71
318.15	1068.09	0.7
328.15	1032.57	0.69

System: propan-2-ol; phases: Liquid
Fixed: Pressure, kPa = 101.325
Property: Mass density, kg/m3 (Liquid); method: Vibrating tube method
Temperature, K	Mass density, kg/m3	uncertainty
278.15	797.34	0.12
288.15	789.22	0.13
298.15	780.89	0.13
308.15	772.28	0.13
318.15	763.32	0.14
328.15	753.95	0.14

System: tetrahydrofuran; phases: Liquid
Fixed: Pressure, kPa = 101.325
Property: Speed of sound, m/s (Liquid); method: Sing-around technique in a fixed-path interferometer
Temperature, K	Speed of sound, m/s	uncertainty
278.15	1374.98	0.87
288.15	1325.78	0.85
298.15	1277.37	0.83
308.15	1229.61	0.81
318.15	1182.37	0.8

System: tetrahydrofuran; phases: Liquid
Fixed: Pressure, kPa = 101.325
Property: Mass density, kg/m3 (Liquid); method: Vibrating tube method
Temperature, K	Mass density, kg/m3	uncertainty
278.15	903.71	0.09
288.15	892.92	0.09
298.15	882.02	0.1
308.15	871	0.1
318.15	859.84	0.11

System: propan-2-ol + 1-ethyl-3-methylimidazolium trifluoromethanesulfonate; phases: Liquid
Fixed: Pressure, kPa = 101
Property: Speed of sound, m/s (Liquid); method: Sing-around technique in a fixed-path interferometer
Temperature, K	Mole fraction of 1-ethyl-3-methylimidazolium trifluoromethanesulfonate	Speed of sound, m/s	uncertainty
278.15	0.0499	1220.56	0.77
278.15	0.0996	1233.28	0.8
278.15	0.15	1249.73	0.85
278.15	0.2001	1267.87	0.9
278.15	0.2994	1305.62	1.03
278.15	0.4004	1341.69	1.17
278.15	0.4997	1373.59	1.32
278.15	0.5999	1401.74	1.48
278.15	0.7019	1426.3	1.64
278.15	0.7987	1446.99	1.8
278.15	0.8519	1457.95	1.89
278.15	0.8989	1465.93	1.97
278.15	0.9462	1474.32	2.05
288.15	0.0499	1188.24	0.75
288.15	0.0996	1203.22	0.79
288.15	0.15	1221.39	0.84
288.15	0.2001	1240.64	0.89
288.15	0.2994	1279.65	1.02
288.15	0.4004	1316.53	1.16
288.15	0.4997	1348.79	1.32
288.15	0.5999	1377.28	1.47
288.15	0.7019	1402.57	1.64
288.15	0.7987	1423.39	1.8
288.15	0.8519	1434.08	1.89
288.15	0.8989	1442.48	1.97
288.15	0.9462	1450.78	2.05
298.15	0.0499	1156.36	0.74
298.15	0.0996	1173.57	0.78
298.15	0.15	1193.34	0.83
298.15	0.2001	1213.71	0.89
298.15	0.2994	1254.2	1.01
298.15	0.4004	1291.85	1.16
298.15	0.4997	1324.67	1.31
298.15	0.5999	1353.63	1.47
298.15	0.7019	1379.39	1.63
298.15	0.7987	1400.52	1.79
298.15	0.8519	1411.15	1.88
298.15	0.8989	1419.76	1.96
298.15	0.9462	1428.1	2.04
308.15	0.0499	1124.5	0.74
308.15	0.0996	1143.92	0.77
308.15	0.15	1165.29	0.82
308.15	0.2001	1186.83	0.88
308.15	0.2994	1228.84	1.01
308.15	0.4004	1267.47	1.15
308.15	0.4997	1300.96	1.3
308.15	0.5999	1330.44	1.46
308.15	0.7019	1356.68	1.63
308.15	0.7987	1378.12	1.79
308.15	0.8519	1388.7	1.88
308.15	0.8989	1397.55	1.96
308.15	0.9462	1405.97	2.04
318.15	0.0499	1092.45	0.73
318.15	0.0996	1114.14	0.76
318.15	0.15	1137.15	0.81
318.15	0.2001	1159.92	0.87
318.15	0.2994	1203.59	1
318.15	0.4004	1243.34	1.15
318.15	0.4997	1277.61	1.3
318.15	0.5999	1307.66	1.46
318.15	0.7019	1334.42	1.63
318.15	0.7987	1356.18	1.79
318.15	0.8519	1366.71	1.88
318.15	0.8989	1375.86	1.96
318.15	0.9462	1384.26	2.04
328.15	0.0499	1060.09	0.72
328.15	0.0996	1084.32	0.76
328.15	0.15	1108.97	0.81
328.15	0.2001	1132.97	0.87
328.15	0.2994	1178.52	1
328.15	0.4004	1219.46	1.15
328.15	0.4997	1254.61	1.3
328.15	0.5999	1285.19	1.46
328.15	0.7019	1312.6	1.62
328.15	0.7987	1334.84	1.78
328.15	0.8519	1345.2	1.87
328.15	0.8989	1354.57	1.95
328.15	0.9462	1363.14	2.03

System: propan-2-ol + 1-ethyl-3-methylimidazolium trifluoromethanesulfonate; phases: Liquid
Fixed: Pressure, kPa = 101
Property: Mass density, kg/m3 (Liquid); method: Vibrating tube method
Temperature, K	Mole fraction of 1-ethyl-3-methylimidazolium trifluoromethanesulfonate	Mass density, kg/m3	uncertainty
278.15	0.0499	868.82	0.27
278.15	0.0996	929.8	0.25
278.15	0.15	984.2	0.22
278.15	0.2001	1032.07	0.2
278.15	0.2994	1111.77	0.25
278.15	0.4004	1177.58	0.35
278.15	0.4997	1231.42	0.5
278.15	0.5999	1276.64	0.68
278.15	0.7019	1315.15	0.9
278.15	0.7987	1347.13	1.14
278.15	0.8519	1362.88	1.29
278.15	0.8989	1375.94	1.44
278.15	0.9462	1388.37	1.59
288.15	0.0499	860.62	0.27
288.15	0.0996	921.53	0.25
288.15	0.15	975.84	0.22
288.15	0.2001	1023.66	0.2
288.15	0.2994	1103.29	0.25
288.15	0.4004	1169.07	0.35
288.15	0.4997	1222.91	0.49
288.15	0.5999	1268.13	0.67
288.15	0.7019	1306.65	0.88
288.15	0.7987	1338.64	1.13
288.15	0.8519	1354.39	1.28
288.15	0.8989	1367.46	1.42
288.15	0.9462	1379.89	1.57
298.15	0.0499	852.27	0.27
298.15	0.0996	913.15	0.25
298.15	0.15	967.41	0.22
298.15	0.2001	1015.19	0.2
298.15	0.2994	1094.81	0.25
298.15	0.4004	1160.58	0.34
298.15	0.4997	1214.45	0.48
298.15	0.5999	1259.68	0.66
298.15	0.7019	1298.2	0.87
298.15	0.7987	1330.2	1.11
298.15	0.8519	1345.96	1.26
298.15	0.8989	1359.02	1.4
298.15	0.9462	1371.46	1.55
308.15	0.0499	843.73	0.27
308.15	0.0996	904.62	0.25
308.15	0.15	958.87	0.22
308.15	0.2001	1006.67	0.2
308.15	0.2994	1086.3	0.24
308.15	0.4004	1152.12	0.34
308.15	0.4997	1206.03	0.47
308.15	0.5999	1251.27	0.65
308.15	0.7019	1289.82	0.86
308.15	0.7987	1321.82	1.1
308.15	0.8519	1337.58	1.24
308.15	0.8989	1350.65	1.38
308.15	0.9462	1363.08	1.53
318.15	0.0499	834.95	0.27
318.15	0.0996	895.92	0.25
318.15	0.15	950.21	0.23
318.15	0.2001	998.06	0.2
318.15	0.2994	1077.77	0.24
318.15	0.4004	1143.67	0.33
318.15	0.4997	1197.63	0.46
318.15	0.5999	1242.91	0.64
318.15	0.7019	1281.48	0.85
318.15	0.7987	1313.5	1.08
318.15	0.8519	1329.26	1.23
318.15	0.8989	1342.33	1.36
318.15	0.9462	1354.76	1.51
328.15	0.0499	825.89	0.27
328.15	0.0996	887.02	0.26
328.15	0.15	941.42	0.23
328.15	0.2001	989.35	0.2
328.15	0.2994	1069.21	0.24
328.15	0.4004	1135.22	0.33
328.15	0.4997	1189.27	0.46
328.15	0.5999	1234.58	0.63
328.15	0.7019	1273.2	0.83
328.15	0.7987	1305.24	1.07
328.15	0.8519	1320.99	1.21
328.15	0.8989	1334.07	1.35
328.15	0.9462	1346.5	1.49

System: tetrahydrofuran + 1-ethyl-3-methylimidazolium trifluoromethanesulfonate; phases: Liquid
Fixed: Pressure, kPa = 101
Property: Speed of sound, m/s (Liquid); method: FPINT:UFactor:2
Temperature, K	Mole fraction of 1-ethyl-3-methylimidazolium trifluoromethanesulfonate	Speed of sound, m/s	uncertainty
278.15	0.051	1362.74	1.47
278.15	0.2001	1373.32	1.54
278.15	0.3001	1387.73	1.61
278.15	0.3992	1403.51	1.7
278.15	0.4995	1414.68	1.81
278.15	0.599	1432.49	1.93
278.15	0.7014	1446.62	2.06
278.15	0.7965	1459	2.19
278.15	0.849	1465.42	2.27
278.15	0.899	1470.47	2.34
278.15	0.9511	1476.02	2.41
288.15	0.051	1316.86	1.44
288.15	0.1	1318.7	1.46
288.15	0.1503	1325.42	1.48
288.15	0.2001	1334.75	1.51
288.15	0.3001	1353.77	1.58
288.15	0.3992	1372.73	1.68
288.15	0.4995	1388.05	1.79
288.15	0.599	1405.85	1.91
288.15	0.7014	1421.38	2.05
288.15	0.7965	1434.58	2.18
288.15	0.849	1441.44	2.25
288.15	0.899	1446.39	2.33
288.15	0.9511	1452.26	2.4
298.15	0.051	1271.73	1.4
298.15	0.1	1275.54	1.42
298.15	0.1503	1285.5	1.44
298.15	0.2001	1297.41	1.48
298.15	0.3001	1320.76	1.56
298.15	0.3992	1342.75	1.66
298.15	0.4995	1361.38	1.77
298.15	0.599	1379.93	1.9
298.15	0.7014	1396.76	2.03
298.15	0.7965	1410.85	2.17
298.15	0.849	1418.1	2.24
298.15	0.899	1423.08	2.31
298.15	0.9511	1429.25	2.39
308.15	0.051	1227.05	1.37
308.15	0.1	1233.29	1.39
308.15	0.1503	1246.47	1.42
308.15	0.2001	1260.66	1.45
308.15	0.3001	1288.66	1.54
308.15	0.3992	1313.33	1.64
308.15	0.4995	1335.45	1.76
308.15	0.599	1354.51	1.88
308.15	0.7014	1372.64	2.02
308.15	0.7965	1387.63	2.15
308.15	0.849	1395.25	2.23
308.15	0.899	1400.35	2.3
308.15	0.9511	1406.81	2.38
318.15	0.051	1182.83	1.34
318.15	0.1	1191.37	1.35
318.15	0.1503	1207.17	1.39
318.15	0.2001	1224.53	1.43
318.15	0.3001	1257.06	1.52
318.15	0.3992	1284.53	1.62
318.15	0.4995	1309.67	1.74
318.15	0.599	1329.87	1.87
318.15	0.7014	1349.02	2.01
318.15	0.7965	1365.07	2.14
318.15	0.849	1372.87	2.22
318.15	0.899	1378.13	2.29
318.15	0.9511	1384.92	2.37

System: tetrahydrofuran + 1-ethyl-3-methylimidazolium trifluoromethanesulfonate; phases: Liquid
Fixed: Pressure, kPa = 101
Property: Mass density, kg/m3 (Liquid); method: Vibrating tube method
Temperature, K	Mole fraction of 1-ethyl-3-methylimidazolium trifluoromethanesulfonate	Mass density, kg/m3	uncertainty
278.15	0.051	964.39	0.22
278.15	0.1	1013.94	0.21
278.15	0.1503	1059.68	0.2
278.15	0.2001	1098.67	0.2
278.15	0.3001	1166.19	0.27
278.15	0.3992	1217.18	0.38
278.15	0.4995	1261.1	0.52
278.15	0.599	1297.75	0.7
278.15	0.7014	1330	0.92
278.15	0.7965	1356.21	1.15
278.15	0.849	1369.15	1.3
278.15	0.899	1380.34	1.45
278.15	0.9511	1391.34	1.61
288.15	0.051	953.89	0.22
288.15	0.1	1003.61	0.21
288.15	0.1503	1049.68	0.2
288.15	0.2001	1088.88	0.2
288.15	0.3001	1155.19	0.27
288.15	0.3992	1207.94	0.37
288.15	0.4995	1252.06	0.51
288.15	0.599	1288.87	0.69
288.15	0.7014	1321.24	0.9
288.15	0.7965	1347.55	1.14
288.15	0.849	1360.54	1.28
288.15	0.899	1371.78	1.43
288.15	0.9511	1382.83	1.59
298.15	0.051	943.29	0.22
298.15	0.1	993.23	0.21
298.15	0.1503	1039.61	0.2
298.15	0.2001	1079.04	0.2
298.15	0.3001	1145.24	0.26
298.15	0.3992	1198.76	0.36
298.15	0.4995	1243.08	0.5
298.15	0.599	1280.05	0.68
298.15	0.7014	1312.54	0.89
298.15	0.7965	1338.96	1.12
298.15	0.849	1352	1.26
298.15	0.899	1363.27	1.41
298.15	0.9511	1374.36	1.57
308.15	0.051	932.59	0.22
308.15	0.1	982.77	0.21
308.15	0.1503	1029.5	0.2
308.15	0.2001	1069.18	0.2
308.15	0.3001	1135.87	0.26
308.15	0.3992	1189.62	0.36
308.15	0.4995	1234.16	0.5
308.15	0.599	1271.3	0.67
308.15	0.7014	1303.92	0.88
308.15	0.7965	1330.44	1.11
308.15	0.849	1343.53	1.25
308.15	0.899	1354.82	1.39
308.15	0.9511	1365.93	1.55
318.15	0.051	921.76	0.23
318.15	0.1	972.18	0.22
318.15	0.1503	1019.22	0.2
318.15	0.2001	1059.3	0.2
318.15	0.3001	1126.45	0.26
318.15	0.3992	1180.52	0.35
318.15	0.4995	1225.28	0.49
318.15	0.599	1262.63	0.66
318.15	0.7014	1295.36	0.87
318.15	0.7965	1321.98	1.09
318.15	0.849	1335.11	1.23
318.15	0.899	1346.41	1.37
318.15	0.9511	1357.57	1.53
