Measured thermophysical data. Volumetric Properties of 1-Butyl-3-methylimidazolium Tetrafluoroborate Glucose Water Systems
Source: J. Chem. Eng. Data, 2012, 10.1021/je201161p
Compound 1: D-glucose, C6H12O6, InChI=1S/C6H12O6/c7-1-3(9)5(11)6(12)4(10)2-8/h1,3-6,8-12H,2H2/t3-,4+,5+,6+/m0/s1, purity 99.5%
Compound 2: water, H2O, InChI=1S/H2O/h1H2
Compound 3: 1-butyl-3-methylimidazolium tetrafluoroborate, C8H15BF4N2, InChI=1S/C8H15N2.BF4/c1-3-4-5-10-7-6-9(2)8-10;2-1(3,4)5/h6-8H,3-5H2,1-2H3;/q+1;-1

System: D-glucose + water; phases: Liquid
Fixed: Pressure, kPa = 101
Fixed: Temperature, K = 298.15
Property: Mass density, kg/m3 (Liquid); method: MSONE:UFactor:6
Molality, mol/kg of D-glucose	Mass density, kg/m3	uncertainty
0.02	998.5	0.71
0.06	1001.26	0.72
0.1	1003.99	0.72
0.15	1007.37	0.72
0.2	1010.69	0.72
0.25	1013.94	0.73

System: D-glucose + water + 1-butyl-3-methylimidazolium tetrafluoroborate; phases: Liquid
Fixed: Pressure, kPa = 101
Fixed: Temperature, K = 298.15
Property: Mass density, kg/m3 (Liquid); method: MSONE:UFactor:6
Molality, mol/kg of D-glucose	Molality, mol/kg of 1-butyl-3-methylimidazolium tetrafluoroborate	Mass density, kg/m3	uncertainty
0.02	0	998.5	0.71
0.02	0.05	1000.38	0.72
0.02	0.1	1002.21	0.72
0.02	0.15	1003.97	0.72
0.02	0.25	1007.405	0.723
0.02	0.5	1015.43	0.73
0.02	0.75	1022.73	0.74
0.02	1	1029.35	0.75
0.06	0	1001.26	0.72
0.06	0.05	1003.1	0.72
0.06	0.1	1004.89	0.72
0.06	0.15	1006.61	0.72
0.06	0.25	1009.97	0.73
0.06	0.5	1017.85	0.73
0.06	0.75	1025.02	0.74
0.06	1	1031.52	0.75
0.1	0	1003.99	0.72
0.1	0.05	1005.79	0.72
0.1	0.1	1007.54	0.72
0.1	0.15	1009.22	0.72
0.1	0.25	1012.51	0.73
0.1	0.5	1020.24	0.74
0.1	0.75	1027.27	0.74
0.1	1	1033.65	0.75
0.15	0	1007.37	0.72
0.15	0.05	1009.12	0.72
0.15	0.1	1010.82	0.72
0.15	0.15	1012.45	0.73
0.15	0.25	1015.62	0.73
0.15	0.5	1023.17	0.74
0.15	0.75	1030.05	0.75
0.15	1	1036.28	0.75
0.2	0	1010.69	0.72
0.2	0.05	1012.39	0.73
0.2	0.1	1014.05	0.73
0.2	0.15	1015.62	0.73
0.2	0.25	1018.69	0.73
0.2	0.5	1026.07	0.74
0.2	0.75	1032.81	0.75
0.2	1	1038.9	0.76
0.25	0	1013.94	0.73
0.25	0.05	1015.59	0.73
0.25	0.1	1017.21	0.73
0.25	0.15	1018.73	0.73
0.25	0.25	1021.75	0.73
0.25	0.5	1028.87	0.74
0.25	0.75	1035.41	0.75
0.25	1	1041.41	0.76
