Measured thermophysical data. Calorimetric Investigation of PrBr3-MBr Liquid Mixtures (M = Na, K, Rb, Cs)
Source: J. Chem. Eng. Data, 2011, 10.1021/je200419x
Compound 1: praseodymium(III) bromide, Br3Pr, InChI=1S/3BrH.Pr/h3*1H;/q;;;+3/p-3
Compound 2: sodium bromide, BrNa, InChI=1S/BrH.Na/h1H;/q;+1/p-1
Compound 3: rubidium bromide, BrRb, InChI=1S/BrH.Rb/h1H;/q;+1/p-1
Compound 4: cesium bromide, BrCs, InChI=1S/BrH.Cs/h1H;/q;+1/p-1
Compound 5: potassium bromide, BrK, InChI=1S/BrH.K/h1H;/q;+1/p-1

System: sodium bromide + praseodymium(III) bromide; phases: Liquid
Fixed: Pressure, kPa = 101
Fixed: Temperature, K = 1070
Property: Excess molar enthalpy (molar enthalpy of mixing), kJ/mol (Liquid); method: Calvet calorimetry
Mole fraction of praseodymium(III) bromide	Excess molar enthalpy (molar enthalpy of mixing), kJ/mol	uncertainty
0.026	-0.825	0.132
0.044	-1.113	0.178
0.099	-2.543	0.407
0.152	-3.406	0.546
0.199	-4.214	0.675
0.249	-4.906	0.786
0.284	-5.017	0.804
0.324	-5.423	0.869
0.375	-5.435	0.87
0.43	-5.452	0.873
0.477	-5.054	0.809
0.528	-4.751	0.761
0.59	-4.522	0.724
0.649	-4.071	0.652
0.704	-3.421	0.548
0.75	-2.858	0.458
0.792	-2.476	0.397
0.823	-2.146	0.344
0.884	-1.537	0.246
0.923	-1.017	0.163

System: potassium bromide + praseodymium(III) bromide; phases: Liquid
Fixed: Pressure, kPa = 101
Fixed: Temperature, K = 1070
Property: Excess molar enthalpy (molar enthalpy of mixing), kJ/mol (Liquid); method: Calvet calorimetry
Mole fraction of praseodymium(III) bromide	Excess molar enthalpy (molar enthalpy of mixing), kJ/mol	uncertainty
0.052	-2.811	0.45
0.1	-5.957	0.954
0.155	-9.077	1.454
0.187	-10.128	1.622
0.24	-11.825	1.894
0.297	-12.83	2.055
0.343	-13.004	2.083
0.399	-13.312	2.132
0.454	-12.704	2.035
0.49	-13.278	2.127
0.542	-11.713	1.876
0.611	-10.645	1.705
0.659	-10.063	1.612
0.692	-9.174	1.469
0.744	-7.349	1.177
0.789	-5.452	0.873
0.843	-4.124	0.661
0.898	-2.925	0.468
0.947	-1.725	0.276

System: rubidium bromide + praseodymium(III) bromide; phases: Liquid
Fixed: Pressure, kPa = 101
Fixed: Temperature, K = 1070
Property: Excess molar enthalpy (molar enthalpy of mixing), kJ/mol (Liquid); method: Calvet calorimetry
Mole fraction of praseodymium(III) bromide	Excess molar enthalpy (molar enthalpy of mixing), kJ/mol	uncertainty
0.032	-2.379	0.381
0.054	-4.196	0.672
0.073	-5.691	0.911
0.101	-7.273	1.165
0.121	-9.314	1.492
0.152	-11.384	1.823
0.181	-13.147	2.106
0.2	-14.368	2.301
0.251	-15.783	2.528
0.301	-16.809	2.692
0.353	-17.118	2.742
0.404	-16.976	2.719
0.467	-16.031	2.567
0.514	-15.628	2.503
0.554	-14.002	2.243
0.606	-13.158	2.107
0.653	-11.543	1.849
0.682	-10.746	1.721
0.725	-8.518	1.364
0.757	-7.765	1.244
0.791	-6.619	1.06
0.837	-4.775	0.765
0.875	-4.747	0.76
0.915	-2.66	0.426
0.956	-1.758	0.282

System: cesium bromide + praseodymium(III) bromide; phases: Liquid
Fixed: Pressure, kPa = 101
Fixed: Temperature, K = 1070
Property: Excess molar enthalpy (molar enthalpy of mixing), kJ/mol (Liquid); method: Calvet calorimetry
Mole fraction of praseodymium(III) bromide	Excess molar enthalpy (molar enthalpy of mixing), kJ/mol	uncertainty
0.032	-2.828	0.453
0.051	-4.689	0.751
0.096	-8.712	1.395
0.151	-13.097	2.098
0.199	-15.888	2.545
0.241	-17.945	2.874
0.301	-18.942	3.034
0.357	-19.302	3.091
0.4	-18.835	3.017
0.434	-19.022	3.047
0.471	-18.369	2.942
0.526	-18.517	2.966
0.576	-16.582	2.656
0.65	-14.595	2.338
0.696	-13.48	2.159
0.758	-11.26	1.803
0.806	-9.558	1.531
0.849	-6.925	1.109
0.894	-5.424	0.869
0.948	-2.96	0.474
