Measured thermophysical data. A Functionalized High-Surface-Energy Ammonium-Based Ionic Liquid: Experimental Measurement of Viscosity, Density, and Surface Tension of (2-Hydroxyethyl)ammonium Formate
Source: J. Chem. Eng. Data, 2012, 10.1021/je201055w
Compound 1: 2-hydroxyethylammonium formate, C3H9NO3, InChI=1S/C2H7NO.CH2O2/c3-1-2-4;2-1-3/h4H,1-3H2;1H,(H,2,3)

System: 2-hydroxyethylammonium formate; phases: Liquid, Air at 1 atmosphere
Property: Surface tension liquid-gas, N/m (Liquid); method: Capillary rise
Temperature, K	Surface tension liquid-gas, N/m	uncertainty
298.15	0.0703	0.0022
303.15	0.0699	0.0022
308.15	0.0696	0.0022
313.15	0.0692	0.0022
318.15	0.0688	0.0022
323.15	0.0685	0.0022
328.15	0.0681	0.0022
333.15	0.0678	0.0021
338.15	0.0674	0.0021
343.15	0.067	0.0021
348.15	0.0667	0.002
353.15	0.0663	0.002

System: 2-hydroxyethylammonium formate; phases: Liquid
Fixed: Pressure, kPa = 101.325
Property: Viscosity, Pa*s (Liquid); method: Capillary tube (Ostwald; Ubbelohde) method
Temperature, K	Viscosity, Pa*s	uncertainty
298.15	0.2525	0.0124
303.15	0.1905	0.009
308.15	0.1433	0.0066
313.15	0.1103	0.0049
318.15	0.087	0.0039
323.15	0.0695	0.003
328.15	0.0569	0.0025
333.15	0.0462	0.0019
338.15	0.0379	0.0019
343.15	0.0303	0.0013
348.15	0.0251	0.0011
353.15	0.0202	0.001

System: 2-hydroxyethylammonium formate; phases: Liquid
Fixed: Pressure, kPa = 101.325
Property: Mass density, kg/m3 (Liquid); method: Pycnometric method
Temperature, K	Mass density, kg/m3	uncertainty
298.15	1210.5	1.5
303.15	1207.6	1.6
308.15	1204.7	1.6
313.15	1201.9	1.6
318.15	1199.2	1.6
323.15	1196.5	1.6
328.15	1193.8	1.6
333.15	1190.6	1.6
338.15	1187.9	1.6
343.15	1185	1.6
348.15	1181.8	1.6
353.15	1178.3	1.6
