Measured thermophysical data. Thermodynamic Investigation of Electrolytes of the Vanadium Redox Flow Battery (III): Volumetric Properties of Aqueous VOSO4
Source: J. Chem. Eng. Data, 2012, 10.1021/je200813q
Compound 1: water, H2O, InChI=1S/H2O/h1H2, purity 99.99%
Compound 2: oxovanadium(IV) sulfate, O5SV, InChI=1S/H2O4S.O.V/c1-5(2,3)4;;/h(H2,1,2,3,4);;/q;;+2/p-2, purity 97%

System: water + oxovanadium(IV) sulfate; phases: Liquid
Fixed: Pressure, kPa = 101.3
Property: Mass density, kg/m3 (Liquid); method: Buoyancy - hydrostatic balance with magnetic suspension - one sinker
Temperature, K	Molality, mol/kg of oxovanadium(IV) sulfate	Mass density, kg/m3	uncertainty
283.15	0.5	1074.6	0.2
283.15	0.8	1117.6	0.3
283.15	1	1144.9	0.3
283.15	1.2	1171.8	0.3
283.15	1.5	1211.3	0.3
283.15	1.8	1249.6	0.4
283.15	2	1274.1	0.4
283.15	2.2	1298.2	0.4
283.15	2.5	1333.7	0.5
283.15	2.8	1367.1	0.5
283.15	3	1389.5	0.6
293.15	0.5	1072.5	0.2
293.15	0.8	1114.8	0.3
293.15	1	1141.9	0.3
293.15	1.2	1169.5	0.3
293.15	1.5	1207.8	0.3
293.15	1.8	1245.6	0.3
293.15	2	1270	0.4
293.15	2.2	1293.9	0.4
293.15	2.5	1329.3	0.5
293.15	2.8	1362.8	0.5
293.15	3	1384.6	0.6
298.15	0.5	1070.7	0.2
298.15	0.8	1113	0.3
298.15	1	1139.8	0.3
298.15	1.2	1167.2	0.3
298.15	1.5	1205.3	0.3
298.15	1.8	1242.9	0.3
298.15	2	1267.4	0.4
298.15	2.2	1291.2	0.4
298.15	2.5	1326.5	0.5
298.15	2.8	1359.8	0.5
298.15	3	1381.3	0.6
303.15	0.5	1068	0.2
303.15	0.8	1110.7	0.3
303.15	1	1137.6	0.3
303.15	1.2	1164.6	0.3
303.15	1.5	1202.7	0.3
303.15	1.8	1240.4	0.3
303.15	2	1264.7	0.4
303.15	2.2	1288.8	0.4
303.15	2.5	1323.9	0.5
303.15	2.8	1357.2	0.5
303.15	3	1378.8	0.6
313.15	0.5	1065	0.2
313.15	0.8	1106.6	0.3
313.15	1	1133.3	0.3
313.15	1.2	1159.9	0.3
313.15	1.5	1198.3	0.3
313.15	1.8	1235.3	0.3
313.15	2	1259.6	0.4
313.15	2.2	1283.4	0.4
313.15	2.5	1318.5	0.4
313.15	2.8	1351.6	0.5
313.15	3	1373.4	0.5
323.15	0.5	1060.4	0.2
323.15	0.8	1101.7	0.3
323.15	1	1128.4	0.3
323.15	1.2	1154.7	0.3
323.15	1.5	1192.4	0.3
323.15	1.8	1229.9	0.3
323.15	2	1253.9	0.4
323.15	2.2	1277.6	0.4
323.15	2.5	1312.7	0.4
323.15	2.8	1345.6	0.5
323.15	3	1367.5	0.5
