Measured thermophysical data. Surface Tensions of Three Amyl Alcohol + Ethanol Binary Mixtures from (293.15 to 323.15) K
Source: J. Chem. Eng. Data, 2011, 10.1021/je200793z
Compound 1: 2-methyl-1-butanol, C5H12O, InChI=1S/C5H12O/c1-3-5(2)4-6/h5-6H,3-4H2,1-2H3
Compound 2: 2-methylbutan-2-ol, C5H12O, InChI=1S/C5H12O/c1-4-5(2,3)6/h6H,4H2,1-3H3
Compound 3: 3-methylbutan-1-ol, C5H12O, InChI=1S/C5H12O/c1-5(2)3-4-6/h5-6H,3-4H2,1-2H3
Compound 4: ethanol, C2H6O, InChI=1S/C2H6O/c1-2-3/h3H,2H2,1H3

System: 2-methyl-1-butanol; phases: Liquid, Air at 1 atmosphere
Property: Surface tension liquid-gas, N/m (Liquid); method: RINGTE::UFactor:0.25
Temperature, K	Surface tension liquid-gas, N/m	uncertainty
293.15	0.02409	0.00018
298.15	0.02361	0.00018
303.15	0.02314	0.00017
308.15	0.02269	0.00017
313.15	0.0223	0.00017
318.15	0.02186	0.00017
323.15	0.02144	0.00017

System: 2-methylbutan-2-ol; phases: Liquid, Air at 1 atmosphere
Property: Surface tension liquid-gas, N/m (Liquid); method: OTHER::UFactor:0.25:sMethod:Wilhelmy plate method
Temperature, K	Surface tension liquid-gas, N/m	uncertainty
293.15	0.02404	0.00016
298.15	0.02361	0.00016
303.15	0.02314	0.00015
308.15	0.02269	0.00015
313.15	0.0223	0.00015
318.15	0.02186	0.00015
323.15	0.02144	0.00015

System: 3-methylbutan-1-ol; phases: Liquid, Air at 1 atmosphere
Property: Surface tension liquid-gas, N/m (Liquid); method: RINGTE::UFactor:0.25
Temperature, K	Surface tension liquid-gas, N/m	uncertainty
293.15	0.0245	0.00018
298.15	0.02415	0.00018
303.15	0.0238	0.00018
308.15	0.02336	0.00017
313.15	0.02296	0.00017
318.15	0.02257	0.00017
323.15	0.02217	0.00017

System: ethanol; phases: Liquid, Air at 1 atmosphere
Property: Surface tension liquid-gas, N/m (Liquid); method: RINGTE:UFactor:0.25
Temperature, K	Surface tension liquid-gas, N/m	uncertainty
293.15	0.02231	0.00014
298.15	0.02182	0.00014
303.15	0.02141	0.00014
308.15	0.02104	0.00014
313.15	0.02062	0.00013
318.15	0.02022	0.00013
323.15	0.01982	0.00013

System: ethanol + 2-methyl-1-butanol; phases: Liquid, Air at 1 atmosphere
Property: Surface tension liquid-gas, N/m (Liquid); method: RINGTE:UFactor:0.25
Temperature, K	Mole fraction of 2-methyl-1-butanol	Surface tension liquid-gas, N/m	uncertainty
293.15	0	0.02231	0.00014
293.15	0.0268	0.02248	0.00014
293.15	0.0549	0.02265	0.00014
293.15	0.0845	0.02276	0.00014
293.15	0.1156	0.02286	0.00014
293.15	0.1484	0.02296	0.00014
293.15	0.183	0.02301	0.00015
293.15	0.2584	0.02315	0.00015
293.15	0.3433	0.02328	0.00015
293.15	0.4395	0.02343	0.00015
293.15	0.5495	0.02356	0.00016
293.15	0.6765	0.02372	0.00016
293.15	0.8247	0.02389	0.00017
293.15	1	0.02409	0.00018
298.15	0	0.02182	0.00014
298.15	0.0268	0.0221	0.00014
298.15	0.0549	0.02225	0.00014
298.15	0.0845	0.02237	0.00014
298.15	0.1156	0.02247	0.00014
298.15	0.1484	0.02254	0.00014
298.15	0.183	0.02262	0.00014
298.15	0.2584	0.02272	0.00015
298.15	0.3433	0.02286	0.00015
298.15	0.4395	0.02298	0.00015
298.15	0.5495	0.02309	0.00016
298.15	0.6765	0.02325	0.00016
298.15	0.8247	0.02338	0.00017
298.15	1	0.02361	0.00018
303.15	0	0.02141	0.00014
303.15	0.0268	0.02171	0.00014
303.15	0.0549	0.0219	0.00014
303.15	0.0845	0.02199	0.00014
303.15	0.1156	0.0221	0.00014
303.15	0.1484	0.02217	0.00014
303.15	0.183	0.02223	0.00014
303.15	0.2584	0.02235	0.00015
303.15	0.3433	0.02246	0.00015
303.15	0.4395	0.02258	0.00015
303.15	0.5495	0.02269	0.00016
303.15	0.6765	0.02282	0.00016
303.15	0.8247	0.02296	0.00017
303.15	1	0.02314	0.00017
308.15	0	0.02104	0.00014
308.15	0.0268	0.02139	0.00014
308.15	0.0549	0.02156	0.00014
308.15	0.0845	0.02167	0.00014
308.15	0.1156	0.02175	0.00014
308.15	0.1484	0.02182	0.00014
308.15	0.183	0.02189	0.00014
308.15	0.2584	0.022	0.00014
308.15	0.3433	0.02211	0.00015
308.15	0.4395	0.02222	0.00015
308.15	0.5495	0.0223	0.00015
308.15	0.6765	0.02241	0.00016
308.15	0.8247	0.02254	0.00016
308.15	1	0.02269	0.00017
313.15	0	0.02062	0.00013
313.15	0.0268	0.02104	0.00014
313.15	0.0549	0.02122	0.00014
313.15	0.0845	0.02133	0.00014
313.15	0.1156	0.02144	0.00014
313.15	0.1484	0.02149	0.00014
313.15	0.183	0.02154	0.00014
313.15	0.2584	0.02161	0.00014
313.15	0.3433	0.02176	0.00015
313.15	0.4395	0.02183	0.00015
313.15	0.5495	0.02194	0.00015
313.15	0.6765	0.02202	0.00016
313.15	0.8247	0.02213	0.00016
313.15	1	0.0223	0.00017
318.15	0	0.02022	0.00013
318.15	0.0268	0.02068	0.00014
318.15	0.0549	0.0209	0.00014
318.15	0.0845	0.021	0.00014
318.15	0.1156	0.02108	0.00014
318.15	0.1484	0.02112	0.00014
318.15	0.183	0.0212	0.00014
318.15	0.2584	0.02124	0.00014
318.15	0.3433	0.02137	0.00014
318.15	0.4395	0.02144	0.00015
318.15	0.5495	0.02154	0.00015
318.15	0.6765	0.02161	0.00016
318.15	0.8247	0.0217	0.00016
318.15	1	0.02186	0.00017
323.15	0	0.01982	0.00013
323.15	0.0268	0.02036	0.00013
323.15	0.0549	0.02055	0.00014
323.15	0.0845	0.02064	0.00014
323.15	0.1156	0.02073	0.00014
323.15	0.1484	0.02081	0.00014
323.15	0.183	0.02086	0.00014
323.15	0.2584	0.02091	0.00014
323.15	0.3433	0.02098	0.00014
323.15	0.4395	0.02105	0.00015
323.15	0.5495	0.02115	0.00015
323.15	0.6765	0.02127	0.00015
323.15	0.8247	0.02133	0.00016
323.15	1	0.02144	0.00017

System: ethanol + 2-methylbutan-2-ol; phases: Liquid, Air at 1 atmosphere
Property: Surface tension liquid-gas, N/m (Liquid); method: OTHER:UFactor:0.25:sMethod:Wilhelmy plate method
Temperature, K	Mole fraction of 2-methylbutan-2-ol	Surface tension liquid-gas, N/m	uncertainty
293.15	0	0.02231	0.00012
293.15	0.0268	0.0225	0.00012
293.15	0.0549	0.02266	0.00012
293.15	0.0845	0.02278	0.00012
293.15	0.1156	0.02288	0.00012
293.15	0.1484	0.02297	0.00012
293.15	0.183	0.02304	0.00012
293.15	0.2584	0.02316	0.00013
293.15	0.3433	0.02328	0.00013
293.15	0.4395	0.02341	0.00013
293.15	0.5495	0.02355	0.00014
293.15	0.6765	0.0237	0.00014
293.15	0.8247	0.02388	0.00015
293.15	1	0.02404	0.00016
298.15	0	0.02182	0.00012
298.15	0.0268	0.02205	0.00012
298.15	0.0549	0.02223	0.00012
298.15	0.0845	0.02236	0.00012
298.15	0.1156	0.02246	0.00012
298.15	0.1484	0.02254	0.00012
298.15	0.183	0.02261	0.00012
298.15	0.2584	0.02273	0.00012
298.15	0.3433	0.02284	0.00013
298.15	0.4395	0.02297	0.00013
298.15	0.5495	0.0231	0.00014
298.15	0.6765	0.02324	0.00014
298.15	0.8247	0.02341	0.00015
298.15	1	0.02361	0.00016
303.15	0	0.02141	0.00011
303.15	0.0268	0.02167	0.00012
303.15	0.0549	0.02185	0.00012
303.15	0.0845	0.02198	0.00012
303.15	0.1156	0.02208	0.00012
303.15	0.1484	0.02216	0.00012
303.15	0.183	0.02223	0.00012
303.15	0.2584	0.02234	0.00012
303.15	0.3433	0.02245	0.00013
303.15	0.4395	0.02256	0.00013
303.15	0.5495	0.02268	0.00013
303.15	0.6765	0.02281	0.00014
303.15	0.8247	0.02296	0.00015
303.15	1	0.02314	0.00015
308.15	0	0.02104	0.00011
308.15	0.0268	0.02134	0.00012
308.15	0.0549	0.02151	0.00012
308.15	0.0845	0.02164	0.00012
308.15	0.1156	0.02175	0.00012
308.15	0.1484	0.02183	0.00012
308.15	0.183	0.02189	0.00012
308.15	0.2584	0.02199	0.00012
308.15	0.3433	0.02209	0.00013
308.15	0.4395	0.02219	0.00013
308.15	0.5495	0.02229	0.00013
308.15	0.6765	0.0224	0.00014
308.15	0.8247	0.02253	0.00014
308.15	1	0.02269	0.00015
313.15	0	0.02062	0.00011
313.15	0.0268	0.02093	0.00011
313.15	0.0549	0.02116	0.00012
313.15	0.0845	0.0213	0.00012
313.15	0.1156	0.02141	0.00012
313.15	0.1484	0.02148	0.00012
313.15	0.3433	0.02173	0.00012
313.15	0.4395	0.02182	0.00013
313.15	0.5495	0.02192	0.00013
313.15	0.6765	0.02202	0.00014
313.15	0.8247	0.02215	0.00014
313.15	1	0.0223	0.00015
318.15	0	0.02022	0.00011
318.15	0.0268	0.02058	0.00011
318.15	0.0549	0.02082	0.00012
318.15	0.0845	0.02097	0.00012
318.15	0.1156	0.02107	0.00012
318.15	0.1484	0.02114	0.00012
318.15	0.183	0.0212	0.00012
318.15	0.2584	0.02128	0.00012
318.15	0.3433	0.02136	0.00012
318.15	0.4395	0.02145	0.00013
318.15	0.5495	0.02153	0.00013
318.15	0.6765	0.02162	0.00014
318.15	0.8247	0.02173	0.00014
318.15	1	0.02186	0.00015
323.15	0	0.01982	0.00011
323.15	0.0268	0.02022	0.00011
323.15	0.0549	0.02048	0.00011
323.15	0.0845	0.02062	0.00012
323.15	0.1156	0.02072	0.00012
323.15	0.1484	0.02079	0.00012
323.15	0.183	0.02084	0.00012
323.15	0.2584	0.02092	0.00012
323.15	0.3433	0.021	0.00012
323.15	0.4395	0.02108	0.00013
323.15	0.5495	0.02116	0.00013
323.15	0.6765	0.02123	0.00013
323.15	0.8247	0.02134	0.00014
323.15	1	0.02144	0.00015

System: ethanol + 3-methylbutan-1-ol; phases: Liquid, Air at 1 atmosphere
Property: Surface tension liquid-gas, N/m (Liquid); method: RINGTE:UFactor:0.25
Temperature, K	Mole fraction of 3-methylbutan-1-ol	Surface tension liquid-gas, N/m	uncertainty
293.15	0	0.02231	0.00014
293.15	0.0268	0.02256	0.00014
293.15	0.0549	0.02278	0.00014
293.15	0.0845	0.02298	0.00014
293.15	0.1156	0.02317	0.00014
293.15	0.1484	0.02333	0.00015
293.15	0.183	0.02349	0.00015
293.15	0.2584	0.02375	0.00015
293.15	0.3433	0.02396	0.00015
293.15	0.4395	0.02413	0.00016
293.15	0.5495	0.02425	0.00016
293.15	0.6765	0.02434	0.00017
293.15	0.8247	0.02441	0.00017
293.15	1	0.0245	0.00018
298.15	0	0.02182	0.00014
298.15	0.0268	0.02209	0.00014
298.15	0.0549	0.02232	0.00014
298.15	0.0845	0.02254	0.00014
298.15	0.1156	0.02273	0.00014
298.15	0.1484	0.0229	0.00014
298.15	0.183	0.02305	0.00015
298.15	0.2584	0.02332	0.00015
298.15	0.3433	0.02354	0.00015
298.15	0.4395	0.02372	0.00016
298.15	0.5495	0.02385	0.00016
298.15	0.6765	0.02396	0.00016
298.15	0.8247	0.02405	0.00017
298.15	1	0.02415	0.00018
303.15	0	0.02141	0.00014
303.15	0.0268	0.0217	0.00014
303.15	0.0549	0.02194	0.00014
303.15	0.0845	0.02217	0.00014
303.15	0.1156	0.02236	0.00014
303.15	0.1484	0.02253	0.00014
303.15	0.183	0.02268	0.00014
303.15	0.2584	0.02295	0.00015
303.15	0.3433	0.02317	0.00015
303.15	0.4395	0.02336	0.00015
303.15	0.5495	0.02349	0.00016
303.15	0.6765	0.02361	0.00016
303.15	0.8247	0.02371	0.00017
303.15	1	0.0238	0.00018
308.15	0	0.02104	0.00014
308.15	0.0268	0.02135	0.00014
308.15	0.0549	0.02159	0.00014
308.15	0.0845	0.02181	0.00014
308.15	0.1156	0.02201	0.00014
308.15	0.1484	0.02217	0.00014
308.15	0.183	0.02232	0.00014
308.15	0.2584	0.02258	0.00015
308.15	0.3433	0.02279	0.00015
308.15	0.4395	0.02297	0.00015
308.15	0.5495	0.0231	0.00016
308.15	0.6765	0.02321	0.00016
308.15	0.8247	0.02329	0.00017
308.15	1	0.02336	0.00017
313.15	0	0.02062	0.00013
313.15	0.0268	0.02095	0.00014
313.15	0.0549	0.02119	0.00014
313.15	0.0845	0.02141	0.00014
313.15	0.1156	0.02162	0.00014
313.15	0.1484	0.02178	0.00014
313.15	0.183	0.02192	0.00014
313.15	0.2584	0.02218	0.00014
313.15	0.3433	0.02239	0.00015
313.15	0.4395	0.02257	0.00015
313.15	0.5495	0.0227	0.00016
313.15	0.6765	0.02282	0.00016
313.15	0.8247	0.02289	0.00017
313.15	1	0.02296	0.00017
318.15	0	0.02022	0.00013
318.15	0.0268	0.02056	0.00014
318.15	0.0549	0.02081	0.00014
318.15	0.0845	0.02104	0.00014
318.15	0.1156	0.02124	0.00014
318.15	0.1484	0.02141	0.00014
318.15	0.183	0.02155	0.00014
318.15	0.2584	0.0218	0.00014
318.15	0.3433	0.02201	0.00015
318.15	0.4395	0.02219	0.00015
318.15	0.5495	0.02233	0.00015
318.15	0.6765	0.02244	0.00016
318.15	0.8247	0.02251	0.00016
318.15	1	0.02257	0.00017
323.15	0	0.01982	0.00013
323.15	0.0268	0.02017	0.00013
323.15	0.0549	0.02044	0.00014
323.15	0.0845	0.02067	0.00014
323.15	0.1156	0.02087	0.00014
323.15	0.1484	0.02104	0.00014
323.15	0.183	0.02117	0.00014
323.15	0.2584	0.02142	0.00014
323.15	0.3433	0.02163	0.00015
323.15	0.4395	0.02181	0.00015
323.15	0.5495	0.02195	0.00015
323.15	0.6765	0.02206	0.00016
323.15	0.8247	0.02212	0.00016
323.15	1	0.02217	0.00017
