Measured thermophysical data. Experimental Measurement and Modeling of Aniline  Hydrochloride Solubility in Water, Methanol, Ethanol, 1-  Propanol and Their Mixed Systems
Source: J. Chem. Eng. Data, 2012, 10.1021/je201047m
Compound 1: aniline hydrochloride, C6H8ClN, InChI=1S/C6H7N.ClH/c7-6-4-2-1-3-5-6;/h1-5H,7H2;1H, purity 99%
Compound 2: methanol, CH4O, InChI=1S/CH4O/c1-2/h2H,1H3, purity 99.5%
Compound 3: ethanol, C2H6O, InChI=1S/C2H6O/c1-2-3/h3H,2H2,1H3, purity 99.7%
Compound 4: propan-1-ol, C3H8O, InChI=1S/C3H8O/c1-2-3-4/h4H,2-3H2,1H3, purity 99%
Compound 5: water, H2O, InChI=1S/H2O/h1H2, purity 99.8%

System: methanol + aniline hydrochloride; phases: Liquid, Crystal
Fixed: Pressure, kPa = 101
Property: Mole fraction of aniline hydrochloride (Liquid); method: Titration method
Temperature, K	Mole fraction of aniline hydrochloride	uncertainty
288.15	0.144	0.003
298.15	0.165	0.004
308.15	0.188	0.004
318.15	0.208	0.005
328.15	0.23	0.005

System: ethanol + aniline hydrochloride; phases: Liquid, Crystal
Fixed: Pressure, kPa = 101
Property: Mole fraction of aniline hydrochloride (Liquid); method: Titration method
Temperature, K	Mole fraction of aniline hydrochloride	uncertainty
288.15	0.082	0.002
298.15	0.098	0.002
308.15	0.115	0.003
318.15	0.134	0.003
328.15	0.155	0.003

System: propan-1-ol + aniline hydrochloride; phases: Liquid, Crystal
Fixed: Pressure, kPa = 101
Property: Mole fraction of aniline hydrochloride (Liquid); method: Titration method
Temperature, K	Mole fraction of aniline hydrochloride	uncertainty
288.15	0.047	0.002
298.15	0.057	0.003
308.15	0.07	0.003
318.15	0.083	0.004
328.15	0.098	0.004

System: methanol + aniline hydrochloride + water; phases: Liquid, Crystal
Fixed: Pressure, kPa = 101
Property: Molality, mol/kg of aniline hydrochloride (Liquid); method: Titration
Temperature, K	Solvent: Mass fraction of methanol	Molality, mol/kg of aniline hydrochloride	uncertainty
288.15	0.101	7.28	0.07
288.15	0.198	7.32	0.08
288.15	0.405	7.77	0.08
288.15	0.594	7.64	0.08
288.15	0.797	6.71	0.07
298.15	0.101	9.06	0.09
298.15	0.198	9.08	0.09
298.15	0.405	9.29	0.1
298.15	0.594	8.96	0.09
298.15	0.797	7.94	0.08
308.15	0.101	10.94	0.11
308.15	0.198	10.86	0.11
308.15	0.405	11.02	0.11
308.15	0.594	10.4	0.11
308.15	0.797	9.3	0.1
318.15	0.101	13.04	0.13
318.15	0.198	12.92	0.13
318.15	0.405	12.87	0.13
318.15	0.594	12.14	0.12
318.15	0.797	10.54	0.11
328.15	0.101	15.18	0.16
328.15	0.198	14.99	0.15
328.15	0.405	14.75	0.15
328.15	0.594	13.96	0.14
328.15	0.797	11.99	0.12

System: ethanol + aniline hydrochloride + water; phases: Liquid, Crystal
Fixed: Pressure, kPa = 101
Property: Molality, mol/kg of aniline hydrochloride (Liquid); method: Titration
Temperature, K	Solvent: Mass fraction of ethanol	Molality, mol/kg of aniline hydrochloride	uncertainty
288.15	0.1	7.08	0.11
288.15	0.207	7.57	0.12
288.15	0.3	7.24	0.12
288.15	0.413	7.17	0.12
288.15	0.583	6.29	0.1
288.15	0.794	4.68	0.08
298.15	0.1	8.71	0.14
298.15	0.207	9.15	0.15
298.15	0.3	8.79	0.14
298.15	0.413	8.66	0.14
298.15	0.583	7.42	0.12
298.15	0.794	5.56	0.09
308.15	0.1	10.49	0.17
308.15	0.207	10.91	0.18
308.15	0.3	10.4	0.17
308.15	0.413	10.18	0.16
308.15	0.583	8.75	0.14
308.15	0.794	6.44	0.1
318.15	0.1	12.36	0.2
318.15	0.207	12.79	0.21
318.15	0.3	12.28	0.2
318.15	0.413	11.81	0.19
318.15	0.583	10.25	0.17
318.15	0.794	7.5	0.12
328.15	0.1	14.54	0.23
328.15	0.207	14.84	0.24
328.15	0.3	14.23	0.23
328.15	0.413	13.49	0.22
328.15	0.583	11.77	0.19
328.15	0.794	8.6	0.14
338.15	0.1	16.88	0.27
338.15	0.207	17.3	0.28
338.15	0.3	16.46	0.27
338.15	0.413	15.56	0.25
338.15	0.583	13.55	0.22
338.15	0.794	9.99	0.16
348.15	0.1	19.79	0.32
348.15	0.207	20.09	0.32
348.15	0.3	19.2	0.31
348.15	0.413	17.85	0.29
348.15	0.583	15.48	0.25
348.15	0.794	11.42	0.18

System: propan-1-ol + aniline hydrochloride + water; phases: Liquid, Crystal
Fixed: Pressure, kPa = 101
Property: Molality, mol/kg of aniline hydrochloride (Liquid); method: Titration
Temperature, K	Solvent: Mass fraction of propan-1-ol	Molality, mol/kg of aniline hydrochloride	uncertainty
288.15	0.1	7.49	0.49
288.15	0.196	7.64	0.5
288.15	0.316	7.04	0.46
288.15	0.404	6.91	0.46
288.15	0.59	5.94	0.39
288.15	0.768	4.3	0.28
298.15	0.1	9.22	0.61
298.15	0.196	9.39	0.62
298.15	0.316	8.95	0.59
298.15	0.404	8.43	0.56
298.15	0.59	7.05	0.47
298.15	0.768	5.01	0.33
308.15	0.1	11.08	0.73
308.15	0.196	11.06	0.73
308.15	0.316	10.57	0.7
308.15	0.404	9.92	0.66
308.15	0.59	8.2	0.54
308.15	0.768	5.81	0.38
318.15	0.1	13.11	0.87
318.15	0.196	13.09	0.86
318.15	0.316	12.29	0.81
318.15	0.404	11.5	0.76
318.15	0.59	9.46	0.62
318.15	0.768	6.69	0.44
328.15	0.1	15.26	1.01
328.15	0.196	15.05	0.99
328.15	0.316	14.11	0.93
328.15	0.404	13.12	0.87
328.15	0.59	10.79	0.71
328.15	0.768	7.6	0.5
