Measured thermophysical data. Excess Molar Enthalpies of Ternary and Binary Mixtures Containing  2-Methoxy-2-Methylpropane, Ethanol, and Nonane
Source: J. Chem. Eng. Data, 2012, 10.1021/je200851a
Compound 1: 2-methoxy-2-methylpropane, C5H12O, InChI=1S/C5H12O/c1-5(2,3)6-4/h1-4H3, purity 99.8%
Compound 2: ethanol, C2H6O, InChI=1S/C2H6O/c1-2-3/h3H,2H2,1H3, purity 99.8%
Compound 3: nonane, C9H20, InChI=1S/C9H20/c1-3-5-7-9-8-6-4-2/h3-9H2,1-2H3, purity 99.8%

System: ethanol + nonane; phases: Liquid
Fixed: Pressure, kPa = 101
Fixed: Temperature, K = 298.15
Property: Excess molar enthalpy (molar enthalpy of mixing), kJ/mol (Liquid); method: Calvet calorimetry
Mole fraction of ethanol	Excess molar enthalpy (molar enthalpy of mixing), kJ/mol	uncertainty
0.0507	0.364	0.008
0.1378	0.552	0.012
0.2453	0.654	0.014
0.4164	0.704	0.015
0.5022	0.677	0.015
0.586	0.652	0.014
0.6518	0.63	0.014
0.6895	0.598	0.013
0.749	0.542	0.012
0.7877	0.502	0.011
0.8433	0.419	0.009
0.8715	0.376	0.008
0.9065	0.299	0.007
0.9296	0.24	0.005
0.9562	0.162	0.004

System: ethanol + nonane + 2-methoxy-2-methylpropane; phases: Liquid
Fixed: Pressure, kPa = 101
Fixed: Temperature, K = 298.15
Property: Excess molar enthalpy (molar enthalpy of mixing), kJ/mol (Liquid); method: Calvet calorimetry
Mole fraction of 2-methoxy-2-methylpropane	Mole fraction of ethanol	Excess molar enthalpy (molar enthalpy of mixing), kJ/mol	uncertainty
0.0399	0.1087	0.514	0.011
0.0649	0.1765	0.606	0.013
0.0817	0.0839	0.502	0.011
0.0924	0.2514	0.674	0.015
0.1144	0.1175	0.586	0.013
0.118	0.3212	0.722	0.016
0.1364	0.0472	0.46	0.01
0.1395	0.3798	0.717	0.015
0.15	0.154	0.652	0.014
0.1543	0.42	0.679	0.015
0.1734	0.4719	0.649	0.014
0.187	0.0646	0.547	0.012
0.1879	0.5116	0.606	0.013
0.1945	0.1997	0.687	0.015
0.2008	0.5466	0.558	0.012
0.2145	0.584	0.492	0.011
0.2255	0.6139	0.427	0.009
0.2283	0.2344	0.717	0.015
0.2433	0.6624	0.29	0.006
0.2434	0.0841	0.607	0.013
0.2538	0.691	0.186	0.004
0.2611	0.2681	0.708	0.015
0.3007	0.3088	0.679	0.015
0.3184	0.1101	0.658	0.014
0.326	0.3348	0.62	0.013
0.3666	0.1267	0.666	0.014
0.3683	0.3782	0.535	0.012
0.3924	0.4029	0.474	0.01
0.4203	0.4316	0.382	0.008
0.4328	0.1496	0.633	0.014
0.4423	0.4543	0.287	0.006
0.4579	0.4703	0.215	0.005
0.4695	0.1623	0.582	0.013
0.4755	0.4883	0.117	0.003
0.536	0.1853	0.514	0.011
0.5746	0.1986	0.46	0.01
0.6244	0.2158	0.367	0.008
0.652	0.2254	0.294	0.007
0.6825	0.2359	0.21	0.005
0.7118	0.246	0.129	0.003
