Measured thermophysical data. Vapor-Liquid Equilibrium for Methoxymethane + Methyl Formate, Methoxymethane + Hexane, and Methyl Formate + Methanol
Source: J. Chem. Eng. Data, 2011, 10.1021/je200140m
Compound 1: dimethyl ether, C2H6O, InChI=1S/C2H6O/c1-3-2/h1-2H3, purity 99.9%
Compound 2: methyl methanoate, C2H4O2, InChI=1S/C2H4O2/c1-4-2-3/h2H,1H3
Compound 3: hexane, C6H14, InChI=1S/C6H14/c1-3-5-6-4-2/h3-6H2,1-2H3
Compound 4: methanol, CH4O, InChI=1S/CH4O/c1-2/h2H,1H3

System: dimethyl ether; phases: Liquid, Gas
Property: Vapor or sublimation pressure, kPa (Liquid); method: Closed cell (Static) method
Temperature, K	Vapor or sublimation pressure, kPa	uncertainty
308.1	788	2
308.13	785.2	1.8
335.65	1539.6	2.6

System: methyl methanoate; phases: Liquid
Property: Refractive index (Na D-line) (Liquid); method: Standard Abbe refractometry
Temperature, K	Pressure, kPa	Refractive index (Na D-line)	uncertainty
293.1	101.325	1.34359	0.00076

System: methyl methanoate; phases: Liquid, Gas
Property: Vapor or sublimation pressure, kPa (Liquid); method: Closed cell (Static) method
Temperature, K	Vapor or sublimation pressure, kPa	uncertainty
308.11	114.7	0.9
358.92	550.4	1.4

System: hexane; phases: Liquid
Property: Refractive index (Na D-line) (Liquid); method: Standard Abbe refractometry
Temperature, K	Pressure, kPa	Refractive index (Na D-line)	uncertainty
298.1	101.325	1.37514	0.00073

System: hexane; phases: Liquid, Gas
Property: Vapor or sublimation pressure, kPa (Liquid); method: Closed cell (Static) method
Temperature, K	Vapor or sublimation pressure, kPa	uncertainty
308.12	30.8	0.8
335.66	83	1

System: methanol; phases: Liquid
Property: Refractive index (Na D-line) (Liquid); method: Standard Abbe refractometry
Temperature, K	Pressure, kPa	Refractive index (Na D-line)	uncertainty
293.1	101.325	1.32853	0.00073

System: methanol; phases: Liquid, Gas
Property: Vapor or sublimation pressure, kPa (Liquid); method: Closed cell (Static) method
Temperature, K	Vapor or sublimation pressure, kPa	uncertainty
358.93	221.4	1

System: methyl methanoate + dimethyl ether; phases: Liquid, Gas
Property: Vapor or sublimation pressure, kPa (Liquid); method: Closed cell (Static) method
Temperature, K	Mole fraction of dimethyl ether	Vapor or sublimation pressure, kPa	uncertainty
308.1	0.1109	202.9	4.5
308.1	0.1468	229.6	5.5
308.1	0.3461	370.6	8.7
308.1	0.3962	405.1	9.2
308.1	0.4464	440.1	9.7
308.1	0.4971	476.6	2
308.1	0.5564	510.3	8
308.1	0.5981	534.4	8
308.1	0.6476	563.7	7.8
308.1	0.8993	720	4
308.1	0.9902	780.6	3
308.1	1	788	3
308.11	0	114.7	0.9
308.11	0.0202	131.8	1.7
308.11	0.0342	143.2	2
308.11	0.0558	160.5	2.8
308.11	0.1967	266.1	6.4
308.11	0.2462	301.4	7.3
308.11	0.2968	336.6	8.1
308.11	0.5	478.7	2
308.11	0.698	593.9	7.5
308.11	0.7471	623.7	6.9
308.11	0.7979	655.1	6.3
308.11	0.8468	686	5
308.11	0.9494	753.3	3.4
308.11	0.9701	767.1	3.2

System: hexane + dimethyl ether; phases: Liquid, Gas
Property: Vapor or sublimation pressure, kPa (Liquid); method: Closed cell (Static) method
Temperature, K	Mole fraction of dimethyl ether	Vapor or sublimation pressure, kPa	uncertainty
308.12	0	30.8	0.8
308.13	0.0158	47.5	1.6
308.13	0.1545	176.8	7.1
308.13	0.1913	208.1	7.8
308.13	0.2405	249.1	8.8
308.13	0.2931	291.7	9.5
308.13	0.3927	368.2	10
308.13	0.494	442.4	6.5
308.13	0.4985	444.5	6.6
308.13	0.5464	476.1	9.1
308.13	0.6434	538.9	8.6
308.13	0.6928	570.7	8.1
308.13	0.7424	602.6	7.4
308.13	0.7933	635.6	6.7
308.13	0.9681	758.9	3.1
308.13	0.9891	775.4	2.8
308.13	1	785.2	2.7
308.14	0.0392	70.3	3.2
308.14	0.0514	82.4	3.5
308.14	0.1098	136.8	5.8
308.14	0.3426	330.4	9.8
308.14	0.4425	405	10
308.14	0.5955	508.1	8.9
308.14	0.8434	669.1	5.9
308.14	0.895	704.8	4.8
308.14	0.9473	743.1	3.5
335.65	0.2936	538.3	17.3
335.65	0.5892	950.7	18.3
335.65	0.6369	1013.9	17.8
335.65	1	1539.6	4.9
335.66	0	83	1
335.66	0.0165	110.7	2.8
335.66	0.0353	142.1	4.7
335.66	0.0522	169.7	5.5
335.66	0.1008	246.7	9.2
335.66	0.1486	321.4	12.1
335.66	0.1958	393.3	14
335.66	0.2434	464.5	15.8
335.66	0.3429	609.7	18.5
335.66	0.3933	681.5	18.5
335.66	0.444	752.4	18.5
335.66	0.4935	821.3	18.5
335.66	0.5419	888.1	18.5
335.66	0.6862	1079.5	17.2
335.66	0.8882	1360	11
335.66	0.9424	1443.7	7.3
335.66	0.9652	1481.2	6.4
335.66	0.9832	1510.8	5.4
335.67	0.495	826.1	18.5
335.67	0.7345	1144.4	16.1
335.67	0.7846	1212.6	14.6
335.67	0.8357	1284	13

System: methanol + methyl methanoate; phases: Liquid, Gas
Property: Vapor or sublimation pressure, kPa (Liquid); method: Closed cell (Static) method
Temperature, K	Mole fraction of methyl methanoate	Vapor or sublimation pressure, kPa	uncertainty
358.92	1	550.4	2.5
358.93	0	221.4	1.2
358.93	0.0976	321.2	3.7
358.93	0.2461	411.8	3.9
358.93	0.2959	432.9	4.1
358.93	0.3465	451.4	3.9
358.93	0.3961	467.1	3.6
358.93	0.447	481.5	3.6
358.93	0.5482	504.8	3.1
358.93	0.9486	551.9	2.5
358.93	0.969	551.8	2.5
358.93	0.99	551	2.5
358.94	0.0108	235.9	1.5
358.94	0.03	257.9	2.3
358.94	0.0488	277.7	2.8
358.94	0.1459	356.5	3.8
358.94	0.1962	386.9	4.5
358.94	0.4971	494.2	2.1
358.94	0.4988	494.2	2.1
358.94	0.5983	514.7	2.9
358.94	0.6483	523.4	2.8
358.94	0.6982	531.1	2.7
358.94	0.7484	537.9	2.6
358.94	0.7976	543.8	2.5
358.94	0.8486	548.3	2.5
358.94	0.8988	551.2	2.5
