Measured thermophysical data. Solubility of Red 153 and Blue 1 in Supercritical Carbon Dioxide
Source: J. Chem. Eng. Data, 2011, 10.1021/je200652j
Compound 1: 3-((4-((5,6-dichlorobenzo[d]thiazol-2-yl)diazenyl)phenyl)(ethyl)amino)propanenitrile, C18H15Cl2N5S, InChI=1S/C18H15Cl2N5S/c1-2-25(9-3-8-21)13-6-4-12(5-7-13)23-24-18-22-16-10-14(19)15(20)11-17(16)26-18/h4-7,10-11H,2-3,9H2,1H3
Compound 2: 1,4,5,8-tetraamino-9,10-anthracenedione, C14H12N4O2, InChI=1S/C14H12N4O2/c15-5-1-2-6(16)10-9(5)13(19)11-7(17)3-4-8(18)12(11)14(10)20/h1-4H,15-18H2, purity 97%
Compound 3: carbon dioxide, CO2, InChI=1S/CO2/c2-1-3, purity 99.995%

System: carbon dioxide + 3-((4-((5,6-dichlorobenzo[d]thiazol-2-yl)diazenyl)phenyl)(ethyl)amino)propanenitrile; phases: Fluid (supercritical or subcritical phases), Crystal
Property: Mole fraction of 3-((4-((5,6-dichlorobenzo[d]thiazol-2-yl)diazenyl)phenyl)(ethyl)amino)propanenitrile (Fluid (supercritical or subcritical phases)); method: UV-visible equipment
Temperature, K	Pressure, kPa	Mole fraction of 3-((4-((5,6-dichlorobenzo[d]thiazol-2-yl)diazenyl)phenyl)(ethyl)amino)propanenitrile	uncertainty
323.2	20000	9.85e-07	2.2e-07
323.2	25000	1.86e-06	3e-07
323.2	30000	2.68e-06	7.5e-07
323.2	35000	3.77e-06	3.9e-07
323.2	40000	4.74e-06	1.07e-06
353.2	15000	8.4e-08	3.9e-08
353.2	20000	8.7e-07	1.58e-07
353.2	25000	2.45e-06	7.1e-07
353.2	30000	5.82e-06	7.7e-07
353.2	35000	8.37e-06	1.18e-06
353.2	40000	1.17e-05	1.5e-06
393.2	20000	6.02e-07	1.38e-07
393.2	25000	3.29e-06	5.4e-07
393.2	30000	1.02e-05	1.7e-06
393.2	35000	2.25e-05	4.8e-06
393.2	40000	3.72e-05	6.8e-06

System: carbon dioxide + 1,4,5,8-tetraamino-9,10-anthracenedione; phases: Fluid (supercritical or subcritical phases), Crystal
Property: Mole fraction of 1,4,5,8-tetraamino-9,10-anthracenedione (Fluid (supercritical or subcritical phases)); method: UV-visible equipment
Temperature, K	Pressure, kPa	Mole fraction of 1,4,5,8-tetraamino-9,10-anthracenedione	uncertainty
333.2	20000	1.12e-07	2e-09
333.2	22500	1.07e-07	1e-08
333.2	25000	1.02e-07	8e-09
333.2	30000	1.19e-07	2.1e-08
333.2	35000	1.4e-07	3.5e-08
333.2	40000	1.45e-07	4.6e-08
353.2	20000	1.07e-07	1e-08
353.2	22500	1.46e-07	7e-09
353.2	25000	1.86e-07	1.3e-08
353.2	30000	2.53e-07	2.6e-08
353.2	35000	3.77e-07	1.5e-08
353.2	40000	4.89e-07	5e-08
373.2	20000	6.63e-08	5.4e-09
373.2	22500	1.03e-07	1e-08
373.2	25000	1.44e-07	1.2e-08
373.2	30000	2.31e-07	1.4e-08
373.2	35000	3.7e-07	3.3e-08
373.2	40000	4.45e-07	4.9e-08
