Measured thermophysical data. Solubility of 2-(2,4,6-Trichlorophenoxy)ethyl Bromide in Methanol, Ethanol, Propanol, Isopropanol, Acetonitrile, n-Heptane, and Acetone
Source: J. Chem. Eng. Data, 2011, 10.1021/je200074c
Compound 1: 2-(2-bromoethoxy)-1,3,5-trichlorobenzene, C8H6BrCl3O, InChI=1S/C8H6BrCl3O/c9-1-2-13-8-6(11)3-5(10)4-7(8)12/h3-4H,1-2H2
Compound 2: methanol, CH4O, InChI=1S/CH4O/c1-2/h2H,1H3, purity 99.7%
Compound 3: ethanol, C2H6O, InChI=1S/C2H6O/c1-2-3/h3H,2H2,1H3, purity 99.5%
Compound 4: propan-1-ol, C3H8O, InChI=1S/C3H8O/c1-2-3-4/h4H,2-3H2,1H3, purity 99.5%
Compound 5: propan-2-ol, C3H8O, InChI=1S/C3H8O/c1-3(2)4/h3-4H,1-2H3, purity 99.7%
Compound 6: acetonitrile, C2H3N, InChI=1S/C2H3N/c1-2-3/h1H3, purity 99%
Compound 7: heptane, C7H16, InChI=1S/C7H16/c1-3-5-7-6-4-2/h3-7H2,1-2H3, purity 98%
Compound 8: acetone, C3H6O, InChI=1S/C3H6O/c1-3(2)4/h1-2H3, purity 99.5%

System: 2-(2-bromoethoxy)-1,3,5-trichlorobenzene; phases: Crystal, Liquid, Air at 1 atmosphere
Property: Molar enthalpy of transition or fusion, kJ/mol (Crystal); method: DSC
Molar enthalpy of transition or fusion, kJ/mol	uncertainty
24.053302794274	1.4824023838

System: 2-(2-bromoethoxy)-1,3,5-trichlorobenzene; phases: Crystal, Liquid, Air at 1 atmosphere
Property: Normal melting temperature, K (Crystal); method: DTA
Normal melting temperature, K	uncertainty
324.05	1.34

System: methanol + 2-(2-bromoethoxy)-1,3,5-trichlorobenzene; phases: Liquid, Liquid
Fixed: Pressure, kPa = 101
Property: Mole fraction of 2-(2-bromoethoxy)-1,3,5-trichlorobenzene (Liquid); method: Chromatography
Temperature, K	Mole fraction of 2-(2-bromoethoxy)-1,3,5-trichlorobenzene	uncertainty
278.2	0.00356	0.00011
283.2	0.004478	0.000114
288.2	0.005634	0.000196
293.2	0.007087	0.000302
298.2	0.008915	0.000227
303.2	0.01122	0.00029
308.2	0.014109	0.000377
313.2	0.017748	0.000452
318.2	0.02233	0.00069
323.2	0.02809	0.00085

System: ethanol + 2-(2-bromoethoxy)-1,3,5-trichlorobenzene; phases: Liquid, Liquid
Fixed: Pressure, kPa = 101
Property: Mole fraction of 2-(2-bromoethoxy)-1,3,5-trichlorobenzene (Liquid); method: Chromatography
Temperature, K	Mole fraction of 2-(2-bromoethoxy)-1,3,5-trichlorobenzene	uncertainty
278.2	0.006983	0.000176
283.2	0.007936	0.000199
288.2	0.008631	0.000235
293.2	0.009679	0.000243
298.2	0.010792	0.000439
303.2	0.012034	0.000502
308.2	0.013418	0.000337
313.2	0.014901	0.000557
318.2	0.016581	0.000644
323.2	0.018604	0.001347

System: propan-1-ol + 2-(2-bromoethoxy)-1,3,5-trichlorobenzene; phases: Liquid, Liquid
Fixed: Pressure, kPa = 101
Property: Mole fraction of 2-(2-bromoethoxy)-1,3,5-trichlorobenzene (Liquid); method: Chromatography
Temperature, K	Mole fraction of 2-(2-bromoethoxy)-1,3,5-trichlorobenzene	uncertainty
278.2	0.009781	0.00033
283.2	0.010511	0.000263
288.2	0.011295	0.000402
293.2	0.012137	0.000304
298.2	0.013043	0.000525
303.2	0.014016	0.000545
308.2	0.015061	0.000416
313.2	0.016185	0.000406
318.2	0.017392	0.000662
323.2	0.018694	0.000468

System: propan-2-ol + 2-(2-bromoethoxy)-1,3,5-trichlorobenzene; phases: Liquid, Liquid
Fixed: Pressure, kPa = 101
Property: Mole fraction of 2-(2-bromoethoxy)-1,3,5-trichlorobenzene (Liquid); method: Chromatography
Temperature, K	Mole fraction of 2-(2-bromoethoxy)-1,3,5-trichlorobenzene	uncertainty
278.2	0.005742	0.000145
283.2	0.006884	0.000174
288.2	0.008252	0.000209
293.2	0.009892	0.000357
298.2	0.011859	0.0003
303.2	0.014217	0.000359
308.2	0.017043	0.000625
313.2	0.02043	0.00076
318.2	0.02449	0.00065
323.2	0.02937	0.00074

System: acetonitrile + 2-(2-bromoethoxy)-1,3,5-trichlorobenzene; phases: Liquid, Liquid
Fixed: Pressure, kPa = 101
Property: Mole fraction of 2-(2-bromoethoxy)-1,3,5-trichlorobenzene (Liquid); method: Chromatography
Temperature, K	Mole fraction of 2-(2-bromoethoxy)-1,3,5-trichlorobenzene	uncertainty
278.2	0.014636	0.000371
283.2	0.017563	0.000444
288.2	0.02108	0.00053
293.2	0.0253	0.0006
298.2	0.03036	0.00182
303.2	0.03645	0.00092
308.15	0.04375	0.00258
313.2	0.05251	0.00133
318.2	0.06303	0.00164
323.2	0.07568	0.004

System: heptane + 2-(2-bromoethoxy)-1,3,5-trichlorobenzene; phases: Liquid, Liquid
Fixed: Pressure, kPa = 101
Property: Mole fraction of 2-(2-bromoethoxy)-1,3,5-trichlorobenzene (Liquid); method: Chromatography
Temperature, K	Mole fraction of 2-(2-bromoethoxy)-1,3,5-trichlorobenzene	uncertainty
278.2	0.03878	0.00109
283.2	0.04703	0.00281
288.2	0.05704	0.00144
293.2	0.06918	0.00241
298.2	0.0839	0.0021
303.2	0.1018	0.0033
308.2	0.1234	0.0031
313.2	0.1497	0.0111
318.2	0.1815	0.0081
323.2	0.2201	0.0056

System: acetone + 2-(2-bromoethoxy)-1,3,5-trichlorobenzene; phases: Liquid, Liquid
Fixed: Pressure, kPa = 101
Property: Mole fraction of 2-(2-bromoethoxy)-1,3,5-trichlorobenzene (Liquid); method: Chromatography
Temperature, K	Mole fraction of 2-(2-bromoethoxy)-1,3,5-trichlorobenzene	uncertainty
278.2	0.09432	0.00237
283.2	0.1052	0.0037
288.2	0.1174	0.0039
293.2	0.131	0.0077
298.2	0.1462	0.0045
303.2	0.1631	0.0081
308.2	0.1819	0.0046
313.2	0.2031	0.0081
318.2	0.2266	0.0094
323.2	0.2528	0.0063
