Measured thermophysical data. Thermophysical Properties of Dual Functionalized Imidazolium-Based Ionic Liquids
Source: J. Chem. Eng. Data, 2012, 10.1021/je200710t
Compound 1: 1-(2-cyanoethyl)-3-(phenylmethyl)-1H-imidazolium chloride, C13H14ClN3, InChI=1S/C13H14N3.ClH/c14-7-4-8-15-9-10-16(12-15)11-13-5-2-1-3-6-13;/h1-3,5-6,9-10,12H,4,8,11H2;1H/q+1;/p-1, purity 98.4%
Compound 2: 3-butyl-1-(2-cyanoethyl)-1H-imidazol-3-ium chloride, C10H16ClN3, InChI=1S/C10H16N3.ClH/c1-2-3-6-12-8-9-13(10-12)7-4-5-11;/h8-10H,2-4,6-7H2,1H3;1H/q+1;/p-1, purity 97.3%
Compound 3: 3-allyl-1-(2-cyanoethyl)-1H-imidazolium chloride, C9H12ClN3, InChI=1S/C9H12N3.ClH/c1-2-5-11-7-8-12(9-11)6-3-4-10;/h2,7-9H,1,3,5-6H2;1H/q+1;/p-1, purity 98.5%
Compound 4: 1-(2-cyanoethyl)-3-(2-hydroxyethyl)-1H-imidazolium chloride, C8H12ClN3O, InChI=1S/C8H12N3O.ClH/c9-2-1-3-10-4-5-11(8-10)6-7-12;/h4-5,8,12H,1,3,6-7H2;1H/q+1;/p-1, purity 97.9%

System: 1-(2-cyanoethyl)-3-(phenylmethyl)-1H-imidazolium chloride; phases: Glass, Liquid, Air at 1 atmosphere
Property: Triple point temperature, K (Glass); method: DTA
Triple point temperature, K	uncertainty
289.36	4

System: 1-(2-cyanoethyl)-3-(phenylmethyl)-1H-imidazolium chloride; phases: Liquid
Fixed: Pressure, kPa = 101.325
Property: Viscosity, Pa*s (Liquid); method: CONCYL:UFactor:2
Temperature, K	Viscosity, Pa*s	uncertainty
323.15	95.152	19.353
328.15	42.665	7.759
333.15	20.463	3.317
338.15	10.434	1.503
343.15	5.635	0.718
348.15	3.19	0.358
353.15	1.958	0.194

System: 1-(2-cyanoethyl)-3-(phenylmethyl)-1H-imidazolium chloride; phases: Liquid
Fixed: Pressure, kPa = 101.325
Property: Mass density, kg/m3 (Liquid); method: VIBTUB:UFactor:16
Temperature, K	Mass density, kg/m3	uncertainty
298.15	1202.672	2.53
303.15	1200.284	2.512
308.15	1197.331	2.49
313.15	1194.37	2.468
318.15	1191.425	2.447
323.15	1188.5	2.425
328.15	1185.587	2.403
333.15	1182.688	2.382
338.15	1179.797	2.361
343.15	1176.881	2.34
348.15	1174.006	2.319
353.15	1171.158	2.299

System: 3-butyl-1-(2-cyanoethyl)-1H-imidazol-3-ium chloride; phases: Glass, Liquid, Air at 1 atmosphere
Property: Triple point temperature, K (Glass); method: DTA
Triple point temperature, K	uncertainty
267.92	4

System: 3-butyl-1-(2-cyanoethyl)-1H-imidazol-3-ium chloride; phases: Liquid
Fixed: Pressure, kPa = 101.325
Property: Viscosity, Pa*s (Liquid); method: CONCYL:UFactor:2
Temperature, K	Viscosity, Pa*s	uncertainty
293.15	4.707	0.579
298.15	2.637	0.284
303.15	1.612	0.152
308.15	1.02	0.084
313.15	0.668	0.048
318.15	0.451	0.027
323.15	0.314	0.016
328.15	0.224	0.01
333.15	0.164	0.006
338.15	0.123	0.003
343.15	0.094	0.002
348.15	0.073	0.001
353.15	0.058	0.001

System: 3-butyl-1-(2-cyanoethyl)-1H-imidazol-3-ium chloride; phases: Liquid
Fixed: Pressure, kPa = 101.325
Property: Refractive index (Na D-line) (Liquid); method: Standard Abbe refractometry
Temperature, K	Refractive index (Na D-line)	uncertainty
293.15	1.52575	0.00062
298.15	1.5243	0.00062
303.15	1.52287	0.00062
308.15	1.52139	0.00062
313.15	1.51992	0.00062
318.15	1.51846	0.00062
323.15	1.51707	0.00062
328.15	1.5156	0.00062
333.15	1.51418	0.00062

System: 3-butyl-1-(2-cyanoethyl)-1H-imidazol-3-ium chloride; phases: Liquid
Fixed: Pressure, kPa = 101.325
Property: Mass density, kg/m3 (Liquid); method: VIBTUB:UFactor:16
Temperature, K	Mass density, kg/m3	uncertainty
293.15	1132.547	3.254
298.15	1129.354	3.223
303.15	1126.147	3.192
308.15	1122.934	3.161
313.15	1119.665	3.13
318.15	1116.488	3.099
323.15	1113.338	3.069
328.15	1110.185	3.039
333.15	1107.027	3.009
338.15	1103.869	2.979
343.15	1100.717	2.949
348.15	1097.574	2.92
353.15	1094.436	2.891

System: 3-allyl-1-(2-cyanoethyl)-1H-imidazolium chloride; phases: Glass, Liquid, Air at 1 atmosphere
Property: Triple point temperature, K (Glass); method: DTA
Triple point temperature, K	uncertainty
271.67	4

System: 3-allyl-1-(2-cyanoethyl)-1H-imidazolium chloride; phases: Liquid
Fixed: Pressure, kPa = 101.325
Property: Viscosity, Pa*s (Liquid); method: CONCYL:UFactor:2
Temperature, K	Viscosity, Pa*s	uncertainty
298.15	17.544	2.77
303.15	10.294	1.478
308.15	5.761	0.738
313.15	3.316	0.375
318.15	2.046	0.205
323.15	1.314	0.116
328.15	0.873	0.068
333.15	0.599	0.04
338.15	0.423	0.025
343.15	0.306	0.015
348.15	0.226	0.009
353.15	0.171	0.006

System: 3-allyl-1-(2-cyanoethyl)-1H-imidazolium chloride; phases: Liquid
Fixed: Pressure, kPa = 101.325
Property: Refractive index (Na D-line) (Liquid); method: Standard Abbe refractometry
Temperature, K	Refractive index (Na D-line)	uncertainty
293.15	1.54731	0.00043
298.15	1.54603	0.00043
303.15	1.54478	0.00043
308.15	1.54339	0.00043
313.15	1.54208	0.00043
318.15	1.54072	0.00043
323.15	1.53945	0.00043
328.15	1.53813	0.00043
333.15	1.53682	0.00043

System: 3-allyl-1-(2-cyanoethyl)-1H-imidazolium chloride; phases: Liquid
Fixed: Pressure, kPa = 101.325
Property: Mass density, kg/m3 (Liquid); method: VIBTUB:UFactor:16
Temperature, K	Mass density, kg/m3	uncertainty
293.15	1173.792	2.223
298.15	1170.785	2.201
303.15	1167.788	2.179
308.15	1164.804	2.158
313.15	1161.837	2.136
318.15	1158.88	2.11
323.15	1155.932	2.093
328.15	1152.911	2.072
333.15	1150.012	2.051
338.15	1147.108	2.03
343.15	1144.221	2.009
348.15	1141.323	1.989
353.15	1138.419	1.969

System: 1-(2-cyanoethyl)-3-(2-hydroxyethyl)-1H-imidazolium chloride; phases: Glass, Liquid, Air at 1 atmosphere
Property: Triple point temperature, K (Glass); method: DTA
Triple point temperature, K	uncertainty
287.65	4

System: 1-(2-cyanoethyl)-3-(2-hydroxyethyl)-1H-imidazolium chloride; phases: Liquid
Fixed: Pressure, kPa = 101.325
Property: Viscosity, Pa*s (Liquid); method: CONCYL:UFactor:2
Temperature, K	Viscosity, Pa*s	uncertainty
303.15	62.813	12.082
308.15	33.772	5.933
313.15	19.046	3.053
318.15	11.119	1.622
323.15	6.721	0.89
328.15	4.213	0.505
333.15	2.708	0.292
338.15	1.817	0.177
343.15	1.245	0.109
348.15	0.873	0.068
353.15	0.632	0.044

System: 1-(2-cyanoethyl)-3-(2-hydroxyethyl)-1H-imidazolium chloride; phases: Liquid
Fixed: Pressure, kPa = 101.325
Property: Refractive index (Na D-line) (Liquid); method: Standard Abbe refractometry
Temperature, K	Refractive index (Na D-line)	uncertainty
293.15	1.54996	0.00052
298.15	1.54847	0.00052
303.15	1.54699	0.00052
308.15	1.54554	0.00052
313.15	1.54412	0.00052
318.15	1.54277	0.00052
323.15	1.54133	0.00052
328.15	1.53985	0.00052
333.15	1.53847	0.00052

System: 1-(2-cyanoethyl)-3-(2-hydroxyethyl)-1H-imidazolium chloride; phases: Liquid
Fixed: Pressure, kPa = 101.325
Property: Mass density, kg/m3 (Liquid); method: VIBTUB:UFactor:16
Temperature, K	Mass density, kg/m3	uncertainty
293.15	1257.9	3.551
298.15	1255.047	3.527
303.15	1252.201	3.503
308.15	1249.381	3.48
313.15	1246.584	3.456
318.15	1243.807	3.433
323.15	1241.052	3.41
328.15	1238.316	3.388
333.15	1235.59	3.37
338.15	1232.862	3.343
343.15	1230.134	3.32
348.15	1227.412	3.298
353.15	1224.567	3.275
