Measured thermophysical data. Volumetric Properties for Ionic Liquid Sucrose Water Systems
Source: J. Chem. Eng. Data, 2011, 10.1021/je200226z
Compound 1: D-sucrose, C12H22O11, InChI=1S/C12H22O11/c13-1-4-6(16)8(18)9(19)11(21-4)23-12(3-15)10(20)7(17)5(2-14)22-12/h4-11,13-20H,1-3H2/t4-,5-,6-,7-,8+,9-,10+,11-,12+/m1/s1
Compound 2: 1-allyl-3-methylimidazolium chloride, C7H11ClN2, InChI=1S/C7H11N2.ClH/c1-3-4-9-6-5-8(2)7-9;/h3,5-7H,1,4H2,2H3;1H/q+1;/p-1, purity 99%
Compound 3: water, H2O, InChI=1S/H2O/h1H2, purity 99.9%

System: water; phases: Liquid
Property: Mass density, kg/m3 (Liquid); method: OTHER::sMethod:Westphal Balance
Pressure, kPa	Temperature, K	Mass density, kg/m3	uncertainty
101	298.15	997.1	0.143

System: D-sucrose + water; phases: Liquid
Fixed: Pressure, kPa = 101
Fixed: Temperature, K = 298.15
Property: Mass density, kg/m3 (Liquid); method: Westphal Balance
Molality, mol/kg of D-sucrose	Mass density, kg/m3	uncertainty
0.02	999.72	0.141
0.06	1004.87	0.14
0.1	1009.9	0.137
0.15	1016.06	0.137
0.2	1022.12	0.136
0.25	1027.95	0.138

System: water + 1-allyl-3-methylimidazolium chloride; phases: Liquid
Fixed: Pressure, kPa = 101
Fixed: Temperature, K = 298.15
Property: Mass density, kg/m3 (Liquid); method: Westphal Balance
Molality, mol/kg of 1-allyl-3-methylimidazolium chloride	Mass density, kg/m3	uncertainty
0.05	998.1	0.143
0.1	999	0.141
0.15	999.8	0.139
0.25	1001.3	0.137
0.5	1004.8	0.136
0.75	1007.8	0.131
1	1010.3	0.119

System: D-sucrose + water + 1-allyl-3-methylimidazolium chloride; phases: Liquid
Fixed: Pressure, kPa = 101
Fixed: Temperature, K = 298.15
Property: Mass density, kg/m3 (Liquid); method: Westphal Balance
Molality, mol/kg of 1-allyl-3-methylimidazolium chloride	Molality, mol/kg of D-sucrose	Mass density, kg/m3	uncertainty
0	0	997.1	0.143
0	0.02	999.72	0.141
0	0.06	1004.87	0.14
0	0.1	1009.9	0.137
0	0.15	1016.06	0.137
0	0.2	1022.12	0.136
0	0.25	1027.95	0.138
0.05	0	998.1	0.143
0.05	0.02	1000.685	0.14
0.05	0.06	1005.78	0.138
0.05	0.1	1010.77	0.136
0.05	0.15	1016.88	0.135
0.05	0.2	1022.85	0.135
0.05	0.25	1028.68	0.137
0.1	0	999	0.141
0.1	0.02	1001.552	0.138
0.1	0.06	1006.58	0.136
0.1	0.1	1011.5	0.135
0.1	0.15	1017.54	0.134
0.1	0.2	1023.43	0.134
0.1	0.25	1029.19	0.137
0.15	0	999.8	0.139
0.15	0.02	1002.319	0.136
0.15	0.06	1007.28	0.135
0.15	0.1	1012.14	0.133
0.15	0.15	1018.11	0.133
0.15	0.2	1023.92	0.133
0.15	0.25	1029.61	0.136
0.25	0	1001.3	0.137
0.25	0.02	1003.76	0.134
0.25	0.06	1008.6	0.132
0.25	0.1	1013.35	0.131
0.25	0.15	1019.18	0.13
0.25	0.2	1024.86	0.131
0.25	0.25	1030.43	0.135
0.5	0	1004.8	0.136
0.5	0.02	1007.125	0.129
0.5	0.06	1011.71	0.127
0.5	0.1	1016.205	0.126
0.5	0.15	1021.73	0.126
0.5	0.2	1027.12	0.127
0.5	0.25	1032.4	0.13
0.75	0	1007.8	0.131
0.75	0.02	1010.004	0.123
0.75	0.06	1014.36	0.122
0.75	0.1	1018.62	0.121
0.75	0.15	1023.87	0.122
0.75	0.2	1029	0.124
0.75	0.25	1034.02	0.128
1	0	1010.3	0.119
1	0.02	1012.396	0.118
1	0.06	1016.53	0.118
1	0.1	1020.59	0.118
1	0.15	1025.59	0.119
1	0.2	1030.48	0.122
1	0.25	1035.27	0.128
