Measured thermophysical data. Ionic Liquid Based Aqueous Biphasic Systems with Controlled pH: The Ionic Liquid Cation Effect
Source: J. Chem. Eng. Data, 2011, 10.1021/je200714h
Compound 1: water, H2O, InChI=1S/H2O/h1H2, purity 99.99%
Compound 2: monopotassium phosphate, H2KO4P, InChI=1S/K.H3O4P/c;1-5(2,3)4/h;(H3,1,2,3,4)/q+1;/p-1, purity 98%
Compound 3: 1-ethyl-3-methylimidazolium chloride, C6H11ClN2, InChI=1S/C6H11N2.ClH/c1-3-8-5-4-7(2)6-8;/h4-6H,3H2,1-2H3;1H/q+1;/p-1, purity 99%
Compound 4: 1-butyl-3-methylimidazolium chloride, C8H15ClN2, InChI=1S/C8H15N2.ClH/c1-3-4-5-10-7-6-9(2)8-10;/h6-8H,3-5H2,1-2H3;1H/q+1;/p-1, purity 99%
Compound 5: 1-hexyl-3-methylimidazolium chloride, C10H19ClN2, InChI=1S/C10H19N2.ClH/c1-3-4-5-6-7-12-9-8-11(2)10-12;/h8-10H,3-7H2,1-2H3;1H/q+1;/p-1, purity 98%

System: water + monopotassium phosphate + 1-ethyl-3-methylimidazolium chloride; phases: Liquid mixture 2, Liquid mixture 1
Property: Mass fraction of monopotassium phosphate (Liquid mixture 2); method: arm rule
Property: Mass fraction of monopotassium phosphate (Liquid mixture 1); method: arm rule
Property: Mass fraction of 1-ethyl-3-methylimidazolium chloride (Liquid mixture 1); method: arm rule
Mass fraction of 1-ethyl-3-methylimidazolium chloride	Pressure, kPa	Temperature, K	Mass fraction of monopotassium phosphate	uncertainty	Mass fraction of monopotassium phosphate	uncertainty	Mass fraction of 1-ethyl-3-methylimidazolium chloride	uncertainty
0.3853	101	298	0.0564	0.0001	0.4313	0.0001	0.023	

System: water + monopotassium phosphate + 1-ethyl-3-methylimidazolium chloride; phases: Liquid mixture 1, Liquid mixture 2
Fixed: Temperature, K = 298
Fixed: Pressure, kPa = 101
Property: Mass fraction of monopotassium phosphate (Liquid mixture 1); method: Titration method
Mass fraction of 1-ethyl-3-methylimidazolium chloride	Mass fraction of monopotassium phosphate	uncertainty
0.05014	0.36372	0.01455
0.05469	0.35464	0.01419
0.05777	0.35066	0.01403
0.0605	0.34624	0.01385
0.06403	0.33991	0.0136
0.06674	0.33593	0.01344
0.06815	0.33405	0.01336
0.07173	0.32736	0.01309
0.07337	0.3252	0.01301
0.07514	0.32292	0.01292
0.0787	0.31797	0.01272
0.0807	0.31567	0.01263
0.08351	0.31065	0.01243
0.08607	0.30848	0.01234
0.08849	0.30502	0.0122
0.09092	0.3014	0.01206
0.09367	0.29822	0.01193
0.09638	0.29449	0.01178
0.09913	0.29046	0.01162
0.10173	0.28738	0.0115
0.10478	0.28366	0.01135
0.10814	0.27988	0.0112
0.11163	0.27534	0.01101
0.11549	0.27024	0.01081
0.1181	0.26876	0.01075
0.12231	0.26297	0.01052
0.12701	0.25705	0.01028
0.13012	0.25491	0.0102
0.13489	0.24813	0.00993
0.13806	0.24622	0.00985
0.14359	0.23918	0.00957
0.1473	0.23673	0.00947
0.15385	0.2293	0.00917
0.16086	0.22053	0.00882
0.16893	0.21051	0.00842
0.17433	0.2068	0.00827
0.1823	0.19715	0.00789
0.18835	0.19302	0.00772
0.19853	0.18029	0.00721
0.20607	0.17507	0.007
0.21794	0.16103	0.00644
0.22713	0.15391	0.00616
0.23672	0.14649	0.00586
0.25509	0.1281	0.00512
0.273	0.12111	0.00484
0.28678	0.10951	0.00438
0.304	0.0974	0.0039
0.33422	0.08236	0.00329
0.369	0.06438	0.00258

System: water + monopotassium phosphate + 1-butyl-3-methylimidazolium chloride; phases: Liquid mixture 2, Liquid mixture 1
Property: Mass fraction of monopotassium phosphate (Liquid mixture 2); method: arm rule
Property: Mass fraction of monopotassium phosphate (Liquid mixture 1); method: arm rule
Property: Mass fraction of 1-butyl-3-methylimidazolium chloride (Liquid mixture 1); method: arm rule
Mass fraction of 1-butyl-3-methylimidazolium chloride	Pressure, kPa	Temperature, K	Mass fraction of monopotassium phosphate	uncertainty	Mass fraction of monopotassium phosphate	uncertainty	Mass fraction of 1-butyl-3-methylimidazolium chloride	uncertainty
0.3998	101	298	0.0413	0.0001	0.4483	0.0001	0.0073	

System: water + monopotassium phosphate + 1-butyl-3-methylimidazolium chloride; phases: Liquid mixture 1, Liquid mixture 2
Fixed: Temperature, K = 298
Fixed: Pressure, kPa = 101
Property: Mass fraction of monopotassium phosphate (Liquid mixture 1); method: Titration method
Mass fraction of 1-butyl-3-methylimidazolium chloride	Mass fraction of monopotassium phosphate	uncertainty
0.01	0.39874	0.01595
0.01658	0.40442	0.01618
0.01714	0.402	0.01608
0.0177	0.40003	0.016
0.01871	0.39662	0.01586
0.01935	0.39462	0.01578
0.02003	0.39236	0.01569
0.02077	0.38996	0.0156
0.02141	0.38859	0.01554
0.02215	0.38704	0.01548
0.02299	0.38438	0.01538
0.0237	0.3822	0.01529
0.02445	0.37943	0.01518
0.02508	0.37844	0.01514
0.02612	0.37532	0.01501
0.02684	0.37451	0.01498
0.02816	0.36899	0.01476
0.0289	0.36657	0.01466
0.03013	0.36436	0.01457
0.03108	0.36173	0.01447
0.03211	0.35949	0.01438
0.03276	0.35795	0.01432
0.03354	0.35655	0.01426
0.03455	0.35456	0.01418
0.03545	0.35253	0.0141
0.03641	0.3512	0.01405
0.03799	0.34766	0.01391
0.03886	0.34575	0.01383
0.04004	0.34298	0.01372
0.04125	0.34091	0.01364
0.04254	0.33834	0.01353
0.04391	0.33589	0.01344
0.04503	0.33471	0.01339
0.04664	0.33129	0.01325
0.04803	0.32954	0.01318
0.04995	0.32586	0.01303
0.05157	0.32345	0.01294
0.05304	0.32188	0.01288
0.05512	0.3177	0.01271
0.05612	0.31599	0.01264
0.05725	0.31374	0.01255
0.05822	0.31243	0.0125
0.05987	0.31162	0.01246
0.06123	0.30906	0.01236
0.06253	0.30622	0.01225
0.06342	0.30579	0.01223
0.06487	0.30281	0.01211
0.06628	0.30053	0.01202
0.0673	0.30002	0.012
0.06876	0.29706	0.01188
0.06974	0.2965	0.01186
0.07121	0.29436	0.01177
0.07301	0.29068	0.01163
0.07417	0.28962	0.01158
0.07546	0.28869	0.01155
0.07676	0.28763	0.01151
0.07825	0.28731	0.01149
0.08048	0.28296	0.01132
0.08203	0.28189	0.01128
0.0835	0.28081	0.01123
0.08579	0.27662	0.01106
0.08732	0.27478	0.01099
0.08912	0.27336	0.01093
0.09089	0.27197	0.01088
0.09376	0.26687	0.01067
0.09567	0.26553	0.01062
0.0976	0.2642	0.01057
0.10064	0.25935	0.01037
0.10233	0.25679	0.01027
0.10459	0.25488	0.0102
0.10672	0.25376	0.01015
0.11034	0.24854	0.00994
0.11288	0.24608	0.00984
0.11535	0.24379	0.00975
0.11828	0.24137	0.00965
0.12278	0.23461	0.00938
0.12575	0.23181	0.00927
0.12996	0.23048	0.00922
0.13555	0.2218	0.00887
0.13963	0.21797	0.00872
0.14274	0.21381	0.00855
0.14658	0.21043	0.00842
0.15015	0.2069	0.00828
0.1549	0.20309	0.00812
0.15999	0.19902	0.00796
0.16735	0.1903	0.00761
0.17296	0.18608	0.00744
0.17872	0.18203	0.00728
0.18389	0.17715	0.00709
0.1943	0.16615	0.00665
0.20082	0.16073	0.00643
0.20831	0.15559	0.00622
0.22078	0.14129	0.00565
0.23	0.13518	0.00541
0.24181	0.12606	0.00504
0.25324	0.11748	0.0047
0.27284	0.11061	0.00442
0.2885	0.09858	0.00394
0.31752	0.08606	0.00344
0.34974	0.07343	0.00294

System: water + monopotassium phosphate + 1-hexyl-3-methylimidazolium chloride; phases: Liquid mixture 2, Liquid mixture 1
Property: Mass fraction of monopotassium phosphate (Liquid mixture 2); method: arm rule
Property: Mass fraction of monopotassium phosphate (Liquid mixture 1); method: arm rule
Property: Mass fraction of 1-hexyl-3-methylimidazolium chloride (Liquid mixture 1); method: arm rule
Mass fraction of 1-hexyl-3-methylimidazolium chloride	Temperature, K	Pressure, kPa	Mass fraction of monopotassium phosphate	uncertainty	Mass fraction of monopotassium phosphate	uncertainty	Mass fraction of 1-hexyl-3-methylimidazolium chloride	uncertainty
0.0083	298	101	0.418	0.0001	0.0473	0.0001	0.4326	

System: water + monopotassium phosphate + 1-hexyl-3-methylimidazolium chloride; phases: Liquid mixture 1, Liquid mixture 2
Fixed: Temperature, K = 298
Fixed: Pressure, kPa = 101
Property: Mass fraction of monopotassium phosphate (Liquid mixture 1); method: Titration method
Mass fraction of 1-hexyl-3-methylimidazolium chloride	Mass fraction of monopotassium phosphate	uncertainty
0.02851	0.35311	0.01412
0.02902	0.35155	0.01406
0.02959	0.34969	0.01399
0.03059	0.3489	0.01396
0.0316	0.34602	0.01384
0.03194	0.34508	0.0138
0.03217	0.34517	0.01381
0.03253	0.34414	0.01377
0.0331	0.34235	0.01369
0.03367	0.33793	0.01352
0.03404	0.3381	0.01352
0.03451	0.33802	0.01352
0.03508	0.33587	0.01343
0.03534	0.33592	0.01344
0.03574	0.33487	0.01339
0.03618	0.33403	0.01336
0.03642	0.33341	0.01334
0.03669	0.33323	0.01333
0.03715	0.33208	0.01328
0.03742	0.33166	0.01327
0.03787	0.33062	0.01322
0.0382	0.33053	0.01322
0.03863	0.32889	0.01316
0.03911	0.32803	0.01312
0.03988	0.32649	0.01306
0.04021	0.32633	0.01305
0.04073	0.32512	0.013
0.04106	0.32484	0.01299
0.0416	0.32336	0.01293
0.04197	0.32316	0.01293
0.0425	0.3218	0.01287
0.04286	0.32189	0.01288
0.04348	0.32045	0.01282
0.04402	0.31882	0.01275
0.04436	0.31842	0.01274
0.04474	0.31803	0.01272
0.04539	0.31728	0.01269
0.04601	0.3156	0.01262
0.04637	0.31538	0.01262
0.047	0.31389	0.01256
0.04767	0.31261	0.0125
0.04809	0.312	0.01248
0.04852	0.31169	0.01247
0.04898	0.31142	0.01246
0.04971	0.30963	0.01239
0.05019	0.30907	0.01236
0.05088	0.30731	0.01229
0.05136	0.30685	0.01227
0.05186	0.30667	0.01227
0.05276	0.3042	0.01217
0.05354	0.30282	0.01211
0.05404	0.30259	0.0121
0.07799	0.27477	0.01099
0.07799	0.27477	0.01099
0.07971	0.27188	0.01088
0.07971	0.27188	0.01088
0.08188	0.26935	0.01077
0.08188	0.26935	0.01077
0.08296	0.26817	0.01073
0.08296	0.26817	0.01073
0.0841	0.26709	0.01068
0.0841	0.26709	0.01068
0.08534	0.26623	0.01065
0.08534	0.26623	0.01065
0.08662	0.26526	0.01061
0.08662	0.26526	0.01061
0.08782	0.26401	0.01056
0.08782	0.26401	0.01056
0.09006	0.25999	0.0104
0.09006	0.25999	0.0104
0.09149	0.25867	0.01035
0.09149	0.25867	0.01035
0.09294	0.25712	0.01028
0.09294	0.25712	0.01028
0.09412	0.25501	0.0102
0.09412	0.25501	0.0102
0.09561	0.25349	0.01014
0.09561	0.25349	0.01014
0.0973	0.25211	0.01008
0.0973	0.25211	0.01008
0.09907	0.25006	0.01
0.09907	0.25006	0.01
0.10075	0.24838	0.00994
0.10075	0.24838	0.00994
0.10252	0.24637	0.00985
0.10252	0.24637	0.00985
0.10445	0.24523	0.00981
0.10445	0.24523	0.00981
0.10654	0.24309	0.00972
0.10654	0.24309	0.00972
0.10855	0.24067	0.00963
0.10855	0.24067	0.00963
0.11046	0.2388	0.00955
0.11046	0.2388	0.00955
0.11253	0.2372	0.00949
0.11253	0.2372	0.00949
0.11471	0.23531	0.00941
0.11471	0.23531	0.00941
0.11703	0.23249	0.0093
0.11703	0.23249	0.0093
0.11946	0.23003	0.0092
0.11946	0.23003	0.0092
0.12183	0.22769	0.00911
0.12183	0.22769	0.00911
0.12429	0.2253	0.00901
0.12429	0.2253	0.00901
0.12697	0.22305	0.00892
0.12955	0.22052	0.00882
0.1323	0.21765	0.00871
0.13515	0.21483	0.00859
0.1391	0.21353	0.00854
0.14236	0.21075	0.00843
0.14571	0.20782	0.00831
0.14929	0.20489	0.0082
0.15307	0.2021	0.00808
0.15713	0.19885	0.00795
0.16086	0.19495	0.0078
0.16447	0.19011	0.0076
0.16897	0.18604	0.00744
0.17549	0.18294	0.00732
0.18166	0.17942	0.00718
0.1876	0.17462	0.00698
0.19443	0.16895	0.00676
0.202	0.16245	0.0065
0.2097	0.15608	0.00624
0.21812	0.14967	0.00599
0.233	0.14287	0.00571
0.24337	0.13464	0.00539
0.25772	0.12701	0.00508
0.27222	0.11574	0.00463
0.2955	0.10552	0.00422
0.31327	0.09536	0.00381
0.34592	0.07842	0.00314
