Measured thermophysical data. Compressed-Liquid Density Measurements of Methyl Oleate and Methyl Linoleate
Source: J. Chem. Eng. Data, 2011, 10.1021/je2008582
Compound 1: methyl cis-9-octadecenoate, C19H36O2, InChI=1S/C19H36O2/c1-3-4-5-6-7-8-9-10-11-12-13-14-15-16-17-18-19(20)21-2/h10-11H,3-9,12-18H2,1-2H3/b11-10-, purity 99%
Compound 2: methyl (Z,Z)-9,12-octadecadienate, C19H34O2, InChI=1S/C19H34O2/c1-3-4-5-6-7-8-9-10-11-12-13-14-15-16-17-18-19(20)21-2/h7-8,10-11H,3-6,9,12-18H2,1-2H3/b8-7-,11-10-, purity 99%

System: methyl cis-9-octadecenoate; phases: Liquid
Property: Mass density, kg/m3 (Liquid); method: Vibrating tube method
Temperature, K	Pressure, kPa	Mass density, kg/m3	uncertainty
270	490	892.3	0.8
270	990	892.6	0.8
270	1990	893.2	0.8
270	2990	893.7	0.8
270	3990	894.3	0.8
270	4990	894.8	0.8
270	9990	897.4	0.8
270	19990	902.4	0.9
270	29990	907.1	0.9
270	39990	911.7	0.9
270	49830	915.9	0.9
290	490	877.7	0.8
290	1000	878	0.8
290	2000	878.6	0.8
290	3000	879.2	0.8
290	3990	879.8	0.8
290	4990	880.4	0.8
290	10000	883.3	0.9
290	19990	888.7	0.9
290	29990	893.8	0.9
290	39990	898.7	0.9
290	49960	903.4	0.9
310	490	863.3	0.8
310	990	863.6	0.8
310	2000	864.3	0.8
310	3000	865	0.8
310	4000	865.6	0.8
310	5000	866.2	0.8
310	9990	869.3	0.9
310	20000	875.3	0.9
310	29990	880.8	0.9
310	39990	886.1	0.9
310	49990	891.1	0.9
330	500	849	0.8
330	1000	849.3	0.8
330	2000	850.1	0.8
330	3000	850.8	0.8
330	3990	851.5	0.8
330	4990	852.2	0.8
330	10000	855.6	0.9
330	19990	862	0.9
330	29990	868	0.9
330	39990	873.6	0.9
330	49990	878.9	0.9
350	500	834.6	0.8
350	990	835	0.8
350	2000	835.8	0.8
350	2990	836.6	0.8
350	3990	837.3	0.8
350	5000	838.1	0.8
350	9990	841.8	0.9
350	20000	848.8	0.9
350	30000	855.3	0.9
350	40000	861.3	0.9
350	49980	867	0.9
370	500	820.1	0.8
370	990	820.6	0.8
370	1990	821.4	0.8
370	2990	822.3	0.8
370	3990	823.2	0.8
370	5010	824	0.8
370	10000	828.1	0.9
370	20010	835.7	0.9
370	29990	842.6	0.9
370	39990	849.1	0.9
370	49970	855.1	0.9
390	490	805.7	0.8
390	990	806.2	0.8
390	2000	807.1	0.8
390	3000	808.1	0.8
390	3990	809	0.8
390	5000	810	0.9
390	10000	814.5	0.9
390	19990	822.7	0.9
390	29980	830.2	0.9
390	40000	837.2	0.9
390	49990	843.6	1
410	490	791	0.8
410	990	791.6	0.8
410	2000	792.7	0.8
410	3000	793.7	0.8
410	3990	794.8	0.8
410	5000	795.8	0.9
410	10000	800.8	0.9
410	20000	809.8	0.9
410	30000	817.9	0.9
410	39990	825.3	0.9
410	50000	832.2	1
430	500	776.2	0.8
430	1000	776.8	0.8
430	1990	778	0.8
430	3000	779.2	0.8
430	3990	780.3	0.9
430	4990	781.5	0.9
430	9990	786.9	0.9
430	19990	796.7	0.9
430	29990	805.5	0.9
430	39990	813.5	0.9
430	49990	820.8	1
450	490	761.2	0.8
450	1000	761.9	0.8
450	1990	763.2	0.8
450	2990	764.5	0.9
450	3990	765.8	0.9
450	5000	767.1	0.9
450	10000	773.1	0.9
450	20000	783.9	0.9
450	29990	793.3	0.9
450	39990	801.9	1
450	50010	809.7	1
470	490	746.3	0.8
470	990	747	0.8
470	2000	748.6	0.9
470	2990	750	0.9
470	3990	751.5	0.9
470	5010	752.9	0.9
470	10000	759.5	0.9
470	19990	771.2	0.9
470	29990	781.5	0.9
470	39990	790.6	1
470	49970	798.8	1

System: methyl (Z,Z)-9,12-octadecadienate; phases: Liquid
Property: Mass density, kg/m3 (Liquid); method: Vibrating tube method
Temperature, K	Pressure, kPa	Mass density, kg/m3	uncertainty
270	490	904.6	0.8
270	990	904.9	0.8
270	1990	905.4	0.8
270	3000	905.9	0.8
270	3990	906.5	0.8
270	5000	907	0.8
270	10000	909.6	0.8
270	20000	914.6	0.9
270	29990	919.3	0.9
270	39990	923.8	0.9
270	49970	928.2	0.9
290	500	889.7	0.8
290	990	890	0.8
290	1990	890.6	0.8
290	2990	891.2	0.8
290	3990	891.8	0.8
290	5000	892.4	0.8
290	9990	895.2	0.8
290	19990	900.7	0.9
290	30000	905.8	0.9
290	39990	910.7	0.9
290	49970	915.3	0.9
310	500	875.1	0.8
310	1000	875.4	0.8
310	1990	876.1	0.8
310	2990	876.7	0.8
310	3990	877.4	0.8
310	4990	878	0.8
310	9990	881.1	0.9
310	20000	887	0.9
310	30000	892.5	0.9
310	39990	897.8	0.9
310	49990	902.8	0.9
330	490	860.6	0.8
330	990	860.9	0.8
330	1990	861.6	0.8
330	2990	862.4	0.8
330	3990	863.1	0.8
330	4990	863.8	0.8
330	9990	867.1	0.9
330	19990	873.5	0.9
330	29980	879.5	0.9
330	39990	885.1	0.9
330	50000	890.4	0.9
350	500	846.2	0.8
350	1000	846.6	0.8
350	1990	847.4	0.8
350	2990	848.2	0.8
350	3990	848.9	0.8
350	5000	849.7	0.8
350	9990	853.4	0.9
350	19990	860.3	0.9
350	29990	866.7	0.9
350	40000	872.7	0.9
350	49980	878.4	0.9
370	490	831.6	0.8
370	990	832.1	0.8
370	1990	832.9	0.8
370	2990	833.8	0.8
370	4000	834.6	0.8
370	5000	835.5	0.8
370	10000	839.5	0.9
370	19990	847	0.9
370	29990	854	0.9
370	39990	860.4	0.9
370	49980	866.4	0.9
390	490	817.1	0.8
390	990	817.6	0.8
390	1990	818.5	0.8
390	3000	819.5	0.8
390	3990	820.4	0.8
390	4990	821.3	0.8
390	9990	825.8	0.9
390	20000	834	0.9
390	29990	841.4	0.9
390	40000	848.3	0.9
390	49990	854.7	0.9
410	490	802.5	0.8
410	1000	803	0.8
410	2000	804.1	0.8
410	2990	805.1	0.8
410	3990	806.2	0.8
410	4990	807.2	0.9
410	9990	812.1	0.9
410	19990	821	0.9
410	29990	829.1	0.9
410	40000	836.5	0.9
410	49970	843.3	1
430	490	787.5	0.8
430	1000	788.1	0.8
430	1990	789.3	0.8
430	2990	790.5	0.8
430	3990	791.6	0.9
430	5000	792.7	0.9
430	9990	798.1	0.9
430	19990	807.9	0.9
430	29990	816.6	0.9
430	40000	824.5	0.9
430	50010	831.8	1
450	490	772.5	0.8
450	990	773.2	0.8
450	2000	774.5	0.8
450	2990	775.8	0.9
450	4000	777.1	0.9
450	4990	778.3	0.9
450	10000	784.3	0.9
450	19990	794.9	0.9
450	30000	804.3	0.9
450	39990	812.8	1
450	49980	820.6	1
470	500	757.5	0.8
470	990	758.3	0.8
470	1990	759.7	0.9
470	3000	761.2	0.9
470	3990	762.6	0.9
470	4990	764	0.9
470	9990	770.6	0.9
470	19990	782.2	0.9
470	29990	792.4	0.9
470	39990	801.5	1
470	49980	809.7	1
