Measured thermophysical data. Hydration of Thiourea and Mono-, Di-, and Tetra-N-Alkylthioureas at Infinite Dilution: A Thermodynamic Study at a Temperature of 298.15 K
Source: J. Chem. Eng. Data, 2011, 10.1021/je2007742
Compound 1: thiourea, CH4N2S, InChI=1S/CH4N2S/c2-1(3)4/h(H4,2,3,4), purity 99%
Compound 2: water, H2O, InChI=1S/H2O/h1H2, purity 99.9%
Compound 3: 1-methyl-2-thiourea, C2H6N2S, InChI=1S/C2H6N2S/c1-4-2(3)5/h1H3,(H3,3,4,5), purity 97%
Compound 4: ethylthiourea, C3H8N2S, InChI=1S/C3H8N2S/c1-2-5-3(4)6/h2H2,1H3,(H3,4,5,6), purity 99%
Compound 5: N,N'-dimethylthiourea, C3H8N2S, InChI=1S/C3H8N2S/c1-4-3(6)5-2/h1-2H3,(H2,4,5,6), purity 99%
Compound 6: N,N'-diethylthiourea, C5H12N2S, InChI=1S/C5H12N2S/c1-3-6-5(8)7-4-2/h3-4H2,1-2H3,(H2,6,7,8), purity 98%
Compound 7: 1,1,3,3-tetramethyl-2-thiourea, C5H12N2S, InChI=1S/C5H12N2S/c1-6(2)5(8)7(3)4/h1-4H3, purity 98%

System: thiourea + water; phases: Liquid
Fixed: Pressure, kPa = 101
Property: Molar enthalpy of solution, kJ/mol (Liquid); method: Calvet calorimetry
Temperature, K	Molality, mol/kg of thiourea	Molar enthalpy of solution, kJ/mol	uncertainty
296.84	0.00695	22.65	0.49
296.84	0.0091	22.55	0.49
296.84	0.00947	22.48	0.49
296.84	0.01158	22.59	0.49
302.45	0.00486	22.84	0.24
302.45	0.00752	22.8	0.24
302.45	0.0096	22.86	0.24
306.89	0.00276	22.95	0.23
306.89	0.00559	22.8	0.23
306.89	0.00582	22.88	0.23
306.89	0.01247	22.91	0.23

System: 1-methyl-2-thiourea + water; phases: Liquid
Fixed: Pressure, kPa = 101
Property: Molar enthalpy of solution, kJ/mol (Liquid); method: Calvet calorimetry
Temperature, K	Molality, mol/kg of 1-methyl-2-thiourea	Molar enthalpy of solution, kJ/mol	uncertainty
296.84	0.00676	22.78	0.6
296.84	0.00795	22.92	0.6
296.84	0.00884	22.74	0.6
296.84	0.0109	22.89	0.6
302.45	0.0078	23.34	1.19
302.45	0.01034	23.27	1.19
302.45	0.0116	22.54	1.19
306.89	0.00896	23.15	0.74
306.89	0.01109	23.2	0.74
306.89	0.01171	23.1	0.74

System: ethylthiourea + water; phases: Liquid
Fixed: Pressure, kPa = 101
Property: Molar enthalpy of solution, kJ/mol (Liquid); method: Calvet calorimetry
Temperature, K	Molality, mol/kg of ethylthiourea	Molar enthalpy of solution, kJ/mol	uncertainty
296.84	0.00116	24.43	0.25
296.84	0.00231	24.5	0.25
296.84	0.00296	24.71	0.25
296.84	0.00401	24.75	0.25
302.45	0.00194	24.65	0.44
302.45	0.00288	24.62	0.44
302.45	0.00345	24.48	0.44
302.45	0.00363	24.64	0.44
306.89	0.00253	25.22	0.2
306.89	0.01362	25.24	0.2
306.89	0.0171	25.2	0.2

System: N,N'-dimethylthiourea + water; phases: Liquid
Fixed: Pressure, kPa = 101
Property: Molar enthalpy of solution, kJ/mol (Liquid); method: Calvet calorimetry
Temperature, K	Molality, mol/kg of N,N'-dimethylthiourea	Molar enthalpy of solution, kJ/mol	uncertainty
296.84	0.01077	13.74	1.46
296.84	0.0129	14.2	1.46
296.84	0.01663	13.65	1.46
296.84	0.0193	14.05	1.46
302.45	0.00602	14.41	0.57
302.45	0.0065	14.25	0.57
302.45	0.00958	14.21	0.57
306.89	0.00297	15.32	0.14
306.89	0.00375	15.28	0.14
306.89	0.00897	15.34	0.14

System: N,N'-diethylthiourea + water; phases: Liquid
Fixed: Pressure, kPa = 101
Property: Molar enthalpy of solution, kJ/mol (Liquid); method: Calvet calorimetry
Temperature, K	Molality, mol/kg of N,N'-diethylthiourea	Molar enthalpy of solution, kJ/mol	uncertainty
296.84	0.00694	15.28	0.63
296.84	0.00845	15.24	0.63
296.84	0.00973	15.37	0.63
302.45	0.0062	16.53	0.53
302.45	0.00849	16.32	0.53
302.45	0.0135	16.42	0.53
306.89	0.00805	17.66	0.34
306.89	0.00825	17.61	0.34
306.89	0.01047	17.61	0.34

System: 1,1,3,3-tetramethyl-2-thiourea + water; phases: Liquid
Fixed: Pressure, kPa = 101
Property: Molar enthalpy of solution, kJ/mol (Liquid); method: Calvet calorimetry
Temperature, K	Molality, mol/kg of 1,1,3,3-tetramethyl-2-thiourea	Molar enthalpy of solution, kJ/mol	uncertainty
296.84	0.0019	15.94	0.16
296.84	0.0034	15.8	0.16
296.84	0.00567	15.9	0.16
302.45	0.00267	17.21	0.17
302.45	0.00362	17.3	0.17
302.45	0.00409	17.22	0.17
302.45	0.00578	17.18	0.17
306.89	0.00287	18.24	0.18
306.89	0.00392	18.22	0.18
306.89	0.00429	18.18	0.18
306.89	0.0054	18.04	0.18
