Measured thermophysical data. Energetics of Quinazoline-2,4(1H,3H)-dione: An Experimental and Computational Study
Source: J. Chem. Eng. Data, 2011, 10.1021/je2004929
Compound 1: carbon dioxide, CO2, InChI=1S/CO2/c2-1-3
Compound 2: nitrogen, N2, InChI=1S/N2/c1-2
Compound 3: water, H2O, InChI=1S/H2O/h1H2
Compound 4: oxygen, O2, InChI=1S/O2/c1-2
Compound 5: quinazoline-2,4(1H,3H)-dione, C8H6N2O2, InChI=1S/C8H6N2O2/c11-7-5-3-1-2-4-6(5)9-8(12)10-7/h1-4H,(H2,9,10,11,12)

System: quinazoline-2,4(1H,3H)-dione; phases: Crystal, Gas
Property: Molar enthalpy of transition or fusion, kJ/mol (Crystal); method: microcalorimetry
Temperature, K	Molar enthalpy of transition or fusion, kJ/mol	uncertainty
298.15	128.3	6

System: quinazoline-2,4(1H,3H)-dione; phases: Gas
Property: Molar enthalpy, kJ/mol (Gas); method: microcalorimetry
Temperature, K	Pressure, kPa	Molar enthalpy, kJ/mol	uncertainty
503	101	167.2	4.4

Reaction: -1 quinazoline-2,4(1H,3H)-dione + 8 carbon dioxide + 1 nitrogen + 3 water + -8.5 oxygen
Property: Specific internal energy of reaction at constant volume, J/g
-22247.8
