Measured thermophysical data. High-Pressure Phase Behavior of Binary Mixtures of Octafluoropentyl Acrylate and Octafluoropentyl Methacrylate in Supercritical Carbon Dioxide
Source: J. Chem. Eng. Data, 2011, 10.1021/je200592k
Compound 1: carbon dioxide, CO2, InChI=1S/CO2/c2-1-3
Compound 2: 2,2,3,3,4,4,5,5-octafluoropentyl acrylate, C8H6F8O2, InChI=1S/C8H6F8O2/c1-2-4(17)18-3-6(11,12)8(15,16)7(13,14)5(9)10/h2,5H,1,3H2
Compound 3: 2,2,3,3,4,4,5,5-octafluoropentyl methacrylate, C9H8F8O2, InChI=1S/C9H8F8O2/c1-4(2)5(18)19-3-7(12,13)9(16,17)8(14,15)6(10)11/h6H,1,3H2,2H3

System: carbon dioxide + 2,2,3,3,4,4,5,5-octafluoropentyl acrylate; phases: Liquid, Gas
Property: Critical pressure, kPa (Liquid); method: Direct measurement
Mole fraction of 2,2,3,3,4,4,5,5-octafluoropentyl acrylate	Critical pressure, kPa	uncertainty
0.109	16730	1000

System: carbon dioxide + 2,2,3,3,4,4,5,5-octafluoropentyl acrylate; phases: Liquid, Gas
Property: Critical temperature, K (Liquid); method: Visual observation in a stirred cell
Mole fraction of 2,2,3,3,4,4,5,5-octafluoropentyl acrylate	Critical temperature, K	uncertainty
0.109	393.2	0.4

System: carbon dioxide + 2,2,3,3,4,4,5,5-octafluoropentyl acrylate; phases: Gas, Liquid
Property: Vapor or sublimation pressure, kPa (Gas); method: CCELL:UFactor:8
Temperature, K	Mole fraction of 2,2,3,3,4,4,5,5-octafluoropentyl acrylate	Vapor or sublimation pressure, kPa	uncertainty
393.2	0.052	16380	1120

System: carbon dioxide + 2,2,3,3,4,4,5,5-octafluoropentyl acrylate; phases: Liquid, Gas
Property: Vapor or sublimation pressure, kPa (Liquid); method: CCELL:UFactor:8
Temperature, K	Mole fraction of 2,2,3,3,4,4,5,5-octafluoropentyl acrylate	Vapor or sublimation pressure, kPa	uncertainty
313.2	0.052	8930	1020
313.2	0.109	8170	1020
313.2	0.145	8000	1020
313.2	0.203	7280	1020
313.2	0.285	6410	1010
313.2	0.373	5590	1010
313.2	0.514	4640	1010
313.2	0.575	4290	1010
333.2	0.052	11550	1040
333.2	0.109	11350	1040
333.2	0.145	10280	1030
333.2	0.203	9450	1030
333.2	0.285	7900	1020
333.2	0.373	6720	1010
333.2	0.514	5410	1010
333.2	0.575	4820	1010
353.2	0.052	14660	1050
353.2	0.109	14100	1050
353.2	0.145	13410	1050
353.2	0.203	11480	1040
353.2	0.285	9520	1030
353.2	0.373	8040	1020
353.2	0.514	6120	1010
353.2	0.575	5280	1010
373.2	0.052	16410	1070
373.2	0.109	15690	1060
373.2	0.145	15450	1060
373.2	0.203	13480	1050
373.2	0.285	10860	1040
373.2	0.373	9280	1020
373.2	0.514	6780	1010
373.2	0.575	5790	1010
393.2	0.145	16380	1070
393.2	0.203	15350	1070
393.2	0.285	12350	1050
393.2	0.373	10170	1030
393.2	0.514	7520	1020
393.2	0.575	6380	1010

System: carbon dioxide + 2,2,3,3,4,4,5,5-octafluoropentyl methacrylate; phases: Liquid, Gas
Property: Critical pressure, kPa (Liquid); method: Direct measurement
Mole fraction of 2,2,3,3,4,4,5,5-octafluoropentyl methacrylate	Critical pressure, kPa	uncertainty
0.097	17860	1000

System: carbon dioxide + 2,2,3,3,4,4,5,5-octafluoropentyl methacrylate; phases: Liquid, Gas
Property: Critical temperature, K (Liquid); method: Visual observation in a stirred cell
Mole fraction of 2,2,3,3,4,4,5,5-octafluoropentyl methacrylate	Critical temperature, K	uncertainty
0.097	393.2	0.4

System: carbon dioxide + 2,2,3,3,4,4,5,5-octafluoropentyl methacrylate; phases: Gas, Liquid
Property: Vapor or sublimation pressure, kPa (Gas); method: CCELL:UFactor:8
Temperature, K	Mole fraction of 2,2,3,3,4,4,5,5-octafluoropentyl methacrylate	Vapor or sublimation pressure, kPa	uncertainty
393.2	0.051	16520	1120

System: carbon dioxide + 2,2,3,3,4,4,5,5-octafluoropentyl methacrylate; phases: Liquid, Gas
Property: Vapor or sublimation pressure, kPa (Liquid); method: CCELL:UFactor:8
Temperature, K	Mole fraction of 2,2,3,3,4,4,5,5-octafluoropentyl methacrylate	Vapor or sublimation pressure, kPa	uncertainty
313.2	0.051	9140	1020
313.2	0.097	8690	1020
313.2	0.147	7900	1020
313.2	0.199	7350	1020
313.2	0.285	6380	1010
313.2	0.385	5350	1010
313.2	0.48	4590	1010
313.2	0.572	4090	1000
333.2	0.051	12520	1040
333.2	0.097	11930	1040
333.2	0.147	10520	1030
333.2	0.199	9380	1030
333.2	0.285	7790	1020
333.2	0.385	6380	1010
333.2	0.48	5480	1010
333.2	0.572	4590	1010
353.2	0.051	15280	1060
353.2	0.097	14660	1060
353.2	0.147	13170	1050
353.2	0.199	11410	1040
353.2	0.285	9480	1030
353.2	0.385	7620	1020
353.2	0.48	6450	1010
353.2	0.572	5100	1010
373.2	0.051	16170	1070
373.2	0.097	16100	1070
373.2	0.147	15570	1070
373.2	0.199	13620	1050
373.2	0.285	11170	1040
373.2	0.385	8790	1020
373.2	0.48	7350	1020
373.2	0.572	5630	1010
393.2	0.147	16970	1080
393.2	0.199	15660	1070
393.2	0.285	12720	1050
393.2	0.385	9830	1030
393.2	0.48	8100	1020
393.2	0.572	6170	1010
