Measured thermophysical data. Measurement and Modeling of Enthalpy of Solution of Carbon Dioxide in Aqueous Solutions of Diethanolamine at Temperatures of (322.5 and 372.9) K and Pressures up to 3 MPa
Source: J. Chem. Eng. Data, 2012, 10.1021/je201012e
Compound 1: carbon dioxide, CO2, InChI=1S/CO2/c2-1-3, purity 99.998%
Compound 2: diethanolamine, C4H11NO2, InChI=1S/C4H11NO2/c6-3-1-5-2-4-7/h5-7H,1-4H2, purity 98%
Compound 3: water, H2O, InChI=1S/H2O/h1H2, purity 99.9%

System: diethanolamine + water; phases: Liquid
Property: Mass density, kg/m3 (Liquid); method: Vibrating tube method
Temperature, K	Pressure, kPa	Mass fraction of diethanolamine	Mass density, kg/m3	uncertainty
298.35	203	0.15	1015.3	0.2
298.35	502	0.15	1015.4	0.2
298.35	1007	0.15	1015.6	0.2
298.35	5005	0.15	1017	0.2
298.36	2001	0.15	1016	0.2
298.36	3004	0.15	1016.3	0.2
298.38	208	0.3	1033.2	0.3
298.38	506	0.3	1033.3	0.3
298.38	1006	0.3	1033.5	0.3
298.38	2997	0.3	1034.3	0.3
298.39	2009	0.3	1033.9	0.3
298.39	5000	0.3	1035	0.3

System: diethanolamine + carbon dioxide + water; phases: Liquid
Fixed: Solvent: Mass fraction of diethanolamine = 0.15
Property: Molar enthalpy of solution, kJ/mol (Liquid); method: Flow calorimetry
Temperature, K	Pressure, kPa	Mole fraction of carbon dioxide	Molar enthalpy of solution, kJ/mol	uncertainty
322.5	550	0.0759	73.9	5.2
322.5	550	0.1077	74.4	1.1
322.5	550	0.1412	74.1	4.4
322.5	550	0.1701	72.4	1.3
322.5	550	0.1978	71.9	3.6
322.5	550	0.2265	68.8	1.3
322.5	550	0.2477	68.1	1.9
322.5	550	0.27	65	1.5
322.5	550	0.2915	62.9	2
322.5	550	0.3113	60.6	1.5
322.5	550	0.3266	57.3	1.7
322.5	550	0.3607	49.5	1.3
322.5	550	0.3697	46.8	1.1
322.5	550	0.3976	40.8	1.6
322.5	550	0.426	36.5	1
322.5	550	0.4519	32.7	0.8
322.5	550	0.4801	29.1	0.8
322.5	550	0.5061	26.4	0.8
322.5	1040	0.133	73.8	2
322.5	1040	0.192	72.3	1.5
322.5	1040	0.242	71.4	1.5
322.5	1040	0.275	70.7	2.1
322.5	1040	0.307	69.1	2.6
322.5	1040	0.336	68.1	2.8
322.5	1040	0.363	67.4	1.3
322.5	1040	0.388	64.6	1.3
322.5	1040	0.416	63.4	1.3
322.5	1040	0.44	61.2	1.3
322.5	1040	0.463	58.4	1.1
322.5	1040	0.487	56.2	1.1
322.5	1040	0.503	54.8	1.3
322.5	1040	0.519	52.3	1.1
322.5	1040	0.534	50.5	1.1
322.5	1040	0.557	45.4	1.2
322.5	1040	0.572	43.2	1.2
322.5	1040	0.585	40.6	0.9
322.5	1040	0.611	36.5	0.8
322.5	1040	0.635	32.9	0.6
322.5	2070	0.15	62.6	11.8
322.5	2070	0.167	62	13.2
322.5	2070	0.169	64	23.2
322.5	2070	0.196	63.2	23.2
322.5	2070	0.236	62.8	2.4
322.5	2070	0.244	62.9	22
322.5	2070	0.29	64.1	1.3
322.5	2070	0.315	62.7	49
322.5	2070	0.33	64.4	2.2
322.5	2070	0.348	62.1	21.4
322.5	2070	0.387	60.1	11.4
322.5	2070	0.397	57.5	21.6
322.5	2070	0.427	59.4	19
322.5	2070	0.464	56.5	1.5
322.5	2070	0.492	54.8	9
322.5	2070	0.507	52.8	1.1
322.5	2070	0.53	49.6	10.2
322.5	2070	0.543	48.2	1.8
322.5	2070	0.554	48.1	2
322.5	2070	0.561	46.9	2
322.5	2070	0.568	44.2	4.4
322.5	2070	0.574	44.1	4.4
322.5	2070	0.602	38.5	1
322.5	2070	0.625	35	0.7
322.5	2070	0.645	32	0.6
322.5	2070	0.662	29.6	1
322.5	2070	0.714	24.3	0.4
322.5	2070	0.763	18.8	0.2
322.5	1040	0.611	36.4	0.8
322.5	2070	0.53	48.4	8.8
322.5	2070	0.574	43.2	0.9
322.5	2070	0.645	33.6	1
372.9	550	0.096	73.9	3
372.9	550	0.127	73.4	4.8
372.9	550	0.161	72	2.5
372.9	550	0.19	74.7	1.9
372.9	550	0.193	72.9	1.9
372.9	550	0.208	72.6	3.8
372.9	550	0.225	73.6	1.9
372.9	550	0.238	72.9	2.5
372.9	550	0.285	70.7	1.5
372.9	550	0.323	68.4	2.1
372.9	550	0.362	66.9	4
372.9	550	0.375	65.1	1.3
372.9	550	0.393	60.3	1.3
372.9	550	0.421	52.5	1.3
372.9	550	0.447	45.9	1.2
372.9	550	0.471	41	1.8
372.9	550	0.488	37.2	1
372.9	550	0.56	25.4	0.8
372.9	550	0.61	18.6	0.6
372.9	550	0.652	13.4	0.4
372.9	1040	0.129	72.2	4.6
372.9	1040	0.183	68	4.2
372.9	1040	0.23	68	4.6
372.9	1040	0.273	69.9	4.4
372.9	1040	0.313	67.9	5.2
372.9	1040	0.343	69.1	1.7
372.9	1040	0.374	66.9	1.3
372.9	1040	0.402	67.9	2.1
372.9	1040	0.427	61.2	2.6
372.9	1040	0.45	55.8	1.1
372.9	1040	0.469	51.1	1.1
372.9	1040	0.505	43.1	1
372.9	1040	0.541	36.7	1.8
372.9	1040	0.589	30.2	0.8
372.9	1040	0.6	28.5	2
372.9	1040	0.638	23.6	0.4
372.9	1040	0.651	22	0.4
372.9	1040	0.655	22	1.4
372.9	3080	0.289	56	1.8
372.9	3080	0.29	59.2	2.6
372.9	3080	0.335	55.7	1.6
372.9	3080	0.336	54	3.2
372.9	3080	0.372	55.6	3.4
372.9	3080	0.394	54.7	0.9
372.9	3080	0.429	54.4	2
372.9	3080	0.432	58	1.1
372.9	3080	0.443	54.2	1.3
372.9	3080	0.455	53.3	1.3
372.9	3080	0.457	53.8	0.6
372.9	3080	0.46	54.8	1.5
372.9	3080	0.475	52.1	0.5
372.9	3080	0.481	52	1.1
372.9	3080	0.484	52.1	0.7
372.9	3080	0.486	54.3	0.9
372.9	3080	0.497	52.9	0.9
372.9	3080	0.5	50.3	0.5
372.9	3080	0.501	49	1.1
372.9	3080	0.506	51.8	1.1
372.9	3080	0.516	50.1	1.1
372.9	3080	0.525	48.4	0.9
372.9	3080	0.543	45.2	0.7
372.9	3080	0.554	43.8	0.9
372.9	3080	0.578	39	0.7
372.9	3080	0.608	34.4	0.6
372.9	3080	0.634	30.7	0.5
372.9	3080	0.655	28.2	0.6
372.9	3080	0.67	26	0.4
372.9	3080	0.699	22.4	0.4
372.9	3080	0.29	57.6	5.4
372.9	3080	0.372	56.6	1.5
372.9	3080	0.486	52.6	2

System: diethanolamine + carbon dioxide + water; phases: Liquid
Fixed: Solvent: Mass fraction of diethanolamine = 0.3
Property: Molar enthalpy of solution, kJ/mol (Liquid); method: Flow calorimetry
Temperature, K	Pressure, kPa	Mole fraction of carbon dioxide	Molar enthalpy of solution, kJ/mol	uncertainty
322.5	540	0.071	77	1.7
322.5	540	0.104	77.3	2.1
322.5	540	0.132	78.1	2.9
322.5	540	0.16	77.2	1.7
322.5	540	0.186	77.8	2.1
322.5	540	0.243	77.9	1.3
322.5	540	0.265	77.1	1.5
322.5	540	0.286	76.8	1.5
322.5	540	0.302	76.4	1.7
322.5	540	0.321	74.7	1.5
322.5	540	0.349	75.9	2.1
322.5	540	0.371	71.5	2.5
322.5	540	0.394	68.6	2.8
322.5	540	0.421	67.6	1.3
322.5	540	0.444	64.1	1.9
322.5	540	0.475	58.5	1.3
322.5	540	0.489	54.6	1.3
322.5	540	0.518	48.6	1.2
322.5	540	0.527	47.3	1.1
322.5	540	0.57	39.9	1
322.5	540	0.602	35.3	0.8
322.5	1030	0.102	78.2	7.4
322.5	1030	0.132	79.1	2.5
322.5	1030	0.187	77.8	2.1
322.5	1030	0.236	73.8	2.8
322.5	1030	0.283	72.6	1.5
322.5	1030	0.322	71.2	1.3
322.5	1030	0.355	69.3	1.5
322.5	1030	0.385	67.5	1.3
322.5	1030	0.395	66.5	1.3
322.5	1030	0.396	66.9	1.1
322.5	1030	0.421	63.8	1.7
322.5	1030	0.439	63.6	1.9
322.5	1030	0.441	62.5	3.8
322.5	1030	0.459	60.8	1.5
322.5	1030	0.478	59.5	1.5
322.5	1030	0.496	56.4	1.1
322.5	1030	0.516	52.7	1.3
322.5	1030	0.517	51.2	1.3
322.5	1030	0.55	45.3	1.1
322.5	1030	0.576	40.6	0.9
322.5	1030	0.601	36.8	1
322.5	1970	0.165	74.5	2.5
322.5	1970	0.183	72.2	8
322.5	1970	0.235	71.9	7.2
322.5	1970	0.27	71.7	2.1
322.5	1970	0.312	69.4	9.4
322.5	1970	0.313	72.9	1.3
322.5	1970	0.34	70.8	4.4
322.5	1970	0.369	67.7	3.2
322.5	1970	0.389	67.9	1.9
322.5	1970	0.406	65	3.4
322.5	1970	0.423	63.3	1.3
322.5	1970	0.44	60.3	1.3
322.5	1970	0.455	60.5	1.3
322.5	1970	0.468	58.2	4.8
322.5	1970	0.478	58.4	3
322.5	1970	0.488	57	1.1
322.5	1970	0.49	58	1.1
322.5	1970	0.51	53.6	1.5
322.5	1970	0.528	49.1	5
322.5	1970	0.55	45.1	1.1
322.5	1970	0.551	46.3	1.6
322.5	1970	0.567	42.1	1
322.5	1970	0.602	36.3	0.8
322.5	1970	0.621	33.5	0.6
322.5	1970	0.642	30.5	0.6
322.5	1970	0.235	70.3	8.2
322.5	1970	0.468	60.1	1.3
372.9	550	0.128	79.1	2.9
372.9	550	0.153	79.3	2.5
372.9	550	0.189	76.2	1.5
372.9	550	0.195	77.7	1.3
372.9	550	0.237	74	1.7
372.9	550	0.281	74.8	1.5
372.9	550	0.308	73.8	1.3
372.9	550	0.319	74.5	5.8
372.9	550	0.34	68.7	1.3
372.9	550	0.376	58.2	1.8
372.9	550	0.398	50.8	1.1
372.9	550	0.416	47.2	7.6
372.9	550	0.429	45.1	1.1
372.9	550	0.47	37.6	1
372.9	550	0.474	34.8	1.8
372.9	550	0.512	30.4	0.6
372.9	550	0.526	27.9	0.6
372.9	550	0.548	25.3	0.6
372.9	550	0.55	23.7	0.8
372.9	550	0.593	19.7	0.4
372.9	1020	0.123	74.5	4.8
372.9	1020	0.172	76.1	1.5
372.9	1020	0.217	76.8	1.7
372.9	1020	0.26	76.4	2.1
372.9	1020	0.305	72.2	1.3
372.9	1020	0.339	70.3	1.3
372.9	1020	0.369	68	1.1
372.9	1020	0.397	61.6	1.1
372.9	1020	0.421	55.4	1.1
372.9	1020	0.454	48.5	1.2
372.9	1020	0.51	39.2	0.8
372.9	1020	0.533	35.3	0.7
372.9	1020	0.572	29.6	0.6
372.9	1020	0.595	26.6	0.6
372.9	3090	0.201	71.2	1.1
372.9	3090	0.231	71	1.3
372.9	3090	0.258	70.9	4
372.9	3090	0.286	69.8	0.9
372.9	3090	0.309	69.1	1.5
372.9	3090	0.342	68.8	1.3
372.9	3090	0.382	66.1	0.9
372.9	3090	0.418	62.7	0.9
372.9	3090	0.419	61.6	1.1
372.9	3090	0.43	62.6	0.9
372.9	3090	0.437	60.2	2.6
372.9	3090	0.448	59.4	0.9
372.9	3090	0.473	53.8	0.9
372.9	3090	0.497	48.5	0.7
372.9	3090	0.524	43.5	0.7
372.9	3090	0.56	37.5	0.5
372.9	3090	0.584	33.9	0.5
372.9	3090	0.602	31.3	0.5
372.9	3090	0.635	27	0.4
372.9	3090	0.665	23.5	0.4
372.9	3090	0.342	69.1	0.9
