Measured thermophysical data. Compressed Liquid Density Measurements for  2,3,3,3-Tetrafluoroprop-1-ene (R1234yf)
Source: J. Chem. Eng. Data, 2012, 10.1021/je201030g
Compound 1: 2,3,3,3-tetrafluoro-1-propene, C3H2F4, InChI=1S/C3H2F4/c1-2(4)3(5,6)7/h1H2, purity 99.5%

System: 2,3,3,3-tetrafluoro-1-propene; phases: Liquid
Property: Mass density, kg/m3 (Liquid); method: Vibrating tube method
Temperature, K	Pressure, kPa	Mass density, kg/m3	uncertainty
283.13	684	1143.8	0.9
283.13	1022	1145.8	0.9
283.13	2013	1151.2	0.9
283.13	5021	1166	0.9
283.13	6000	1170.3	0.9
283.13	10013	1186.9	0.9
283.14	3004	1156	0.9
283.14	4001	1161	0.9
283.14	7021	1174.8	0.9
283.14	8001	1178.9	0.9
283.14	9009	1183	0.9
283.14	11022	1191	0.9
283.14	12011	1194.5	0.9
283.14	13020	1198.3	0.9
283.14	14013	1201.6	0.9
283.14	15003	1205.1	0.9
283.14	16010	1208.6	0.9
283.14	17014	1211.8	0.9
283.14	18011	1215.1	0.9
283.14	19001	1218.2	0.9
283.14	20019	1221.3	0.9
283.14	22005	1227.2	0.9
283.14	23004	1230	0.9
283.14	24002	1232.8	0.9
283.14	25003	1235.7	0.9
283.14	26011	1238.4	0.9
283.14	27006	1241.1	0.9
283.14	28001	1243.6	0.9
283.14	29001	1246.2	0.9
283.14	30011	1248.8	0.9
283.14	31007	1251.3	1
283.14	32019	1253.7	1
283.14	33002	1256.2	1
283.14	34014	1258.5	1
283.14	35000	1260.9	1
283.15	21019	1224.4	0.9
293.15	990	1111.2	0.9
293.15	2024	1117.9	0.9
293.15	3003	1123.9	0.9
293.15	4022	1129.8	0.9
293.15	5007	1135.3	0.9
293.15	6022	1140.7	0.9
293.15	7009	1145.6	0.9
293.15	8016	1150.5	0.9
293.15	9011	1155.1	0.9
293.15	10025	1159.7	0.9
293.15	11016	1164.1	0.9
293.15	12001	1168.3	0.9
293.15	13007	1172.2	0.9
293.15	14016	1176.2	0.9
293.15	15012	1180.1	0.9
293.15	16004	1183.8	0.9
293.15	17011	1187.6	0.9
293.15	19006	1194.3	0.9
293.15	20015	1197.7	0.9
293.15	21020	1201.1	0.9
293.15	22003	1204.3	0.9
293.15	24020	1210.7	0.9
293.15	25002	1213.5	0.9
293.15	26012	1216.6	0.9
293.15	27012	1219.4	0.9
293.15	28009	1222.3	0.9
293.15	29013	1225	0.9
293.15	30015	1227.6	0.9
293.15	31003	1230.4	0.9
293.15	32007	1233.2	0.9
293.15	33006	1235.7	0.9
293.15	34017	1238.2	1
293.15	35002	1240.8	1
293.16	18014	1191.1	0.9
293.16	23008	1207.5	0.9
303.14	905	1072.8	0.9
303.14	1009	1073.4	0.9
303.14	2001	1081.4	0.9
303.14	3007	1088.8	0.9
303.14	4016	1095.9	0.9
303.14	5014	1102.5	0.9
303.14	6003	1108.7	0.9
303.14	7016	1114.7	0.9
303.14	9017	1125.6	0.9
303.14	11006	1135.7	0.9
303.14	12001	1140.3	0.9
303.14	13017	1144.9	0.9
303.14	14016	1149.6	0.9
303.14	16021	1158	0.9
303.14	17003	1161.8	0.9
303.14	18026	1166	0.9
303.14	19011	1169.8	0.9
303.14	20019	1173.4	0.9
303.14	21015	1177	0.9
303.15	8010	1120.1	0.9
303.15	10010	1130.7	0.9
303.15	15003	1153.7	0.9
303.15	22000	1180.5	0.9
303.15	23008	1183.9	0.9
303.15	24019	1187.3	0.9
303.15	25007	1190.5	0.9
303.15	26005	1193.8	0.9
303.15	27010	1196.9	0.9
303.15	28002	1200	0.9
303.15	29016	1202.9	0.9
303.15	30013	1205.9	0.9
303.15	31010	1208.9	0.9
303.15	32004	1211.6	0.9
303.15	33001	1214.6	0.9
303.15	34018	1217.4	0.9
303.15	35017	1220	0.9
313.14	1118	1032.7	0.9
313.14	2008	1041.9	0.9
313.14	3006	1051.2	0.9
313.14	6004	1075.1	0.9
313.15	4006	1059.8	0.9
313.15	5009	1067.6	0.9
313.15	7018	1082.2	0.9
313.15	8002	1088.6	0.9
313.15	9019	1094.9	0.9
313.15	10017	1100.9	0.9
313.15	11001	1106.3	0.9
313.15	12000	1111.7	0.9
313.15	13004	1116.9	0.9
313.15	14007	1122.1	0.9
313.15	15006	1126.8	0.9
313.15	16011	1131.5	0.9
313.15	17014	1136	0.9
313.15	18012	1140.3	0.9
313.15	19011	1144.6	0.9
313.15	20005	1148.5	0.9
313.15	21008	1152.6	0.9
313.15	22006	1156.4	0.9
313.15	23014	1160.2	0.9
313.15	24011	1164	0.9
313.15	25022	1167.4	0.9
313.15	26001	1170.9	0.9
313.15	27005	1174.3	0.9
313.15	28010	1177.6	0.9
313.15	29001	1180.9	0.9
313.15	30002	1184.1	0.9
313.15	31001	1187.1	0.9
313.15	32013	1190.3	0.9
313.16	33002	1193.2	0.9
313.16	34013	1196.2	0.9
313.16	35001	1199.1	0.9
323.15	1421	990.3	1
323.15	2007	998.2	1
323.15	3011	1010.6	0.9
323.15	4019	1021.6	0.9
323.15	5020	1031.4	0.9
323.15	6007	1040.4	0.9
323.15	7021	1048.8	0.9
323.15	8021	1056.6	0.9
323.15	9014.7	1063.8	0.9
323.15	10006	1070.7	0.9
323.15	11008	1077.1	0.9
323.15	12018	1083.4	0.9
323.15	13018	1089.3	0.9
323.15	14017	1095	0.9
323.15	15010	1100.3	0.9
323.15	16017	1105.6	0.9
323.15	17001	1110.5	0.9
323.15	18014	1115.4	0.9
323.15	19001	1119.9	0.9
323.15	20007	1124.6	0.9
323.15	21001	1128.9	0.9
323.15	22014	1133.2	0.9
323.15	23016	1137.3	0.9
323.15	24013	1141.3	0.9
323.15	25009	1145.2	0.9
323.15	26000	1148.9	0.9
323.15	27014	1152.7	0.9
323.15	28019	1156.3	0.9
323.15	29010	1159.8	0.9
323.15	30004	1163.2	0.9
323.15	31002	1166.6	0.9
323.15	32014	1170	0.9
323.15	33013	1173.2	0.9
323.15	34017	1176.4	0.9
323.15	35001	1179.4	0.9
333.14	1866	943.2	1
333.14	2003	945.8	1
333.15	3010	963.3	1
333.15	4001	977.6	1
333.15	5010	990.3	0.9
333.15	6010	1001.6	0.9
333.15	7009	1011.9	0.9
333.15	8003	1021.2	0.9
333.15	10009	1038	0.9
333.15	11013	1045.7	0.9
333.15	12004	1052.7	0.9
333.15	13007	1059.5	0.9
333.15	14018	1066	0.9
333.15	15006	1072	0.9
333.15	16012	1077.9	0.9
333.15	17014	1083.5	0.9
333.15	18015	1088.9	0.9
333.15	20009	1099	0.9
333.15	21007	1103.8	0.9
333.15	23008	1113	0.9
333.15	24004	1117.4	0.9
333.15	25016	1121.6	0.9
333.15	27016	1129.8	0.9
333.15	28003	1133.7	0.9
333.15	29001	1137.5	0.9
333.15	30004	1141.2	0.9
333.15	31003	1144.8	0.9
333.15	32015	1148.4	0.9
333.15	33001	1151.9	0.9
333.15	34014	1155.2	0.9
333.15	35014	1158.6	0.9
333.16	9009	1030	0.9
333.16	19016	1094	0.9
333.16	22013	1108.5	0.9
333.16	26013	1125.7	0.9
343.15	17005	1055.7	0.9
343.15	23013	1088.5	0.9
343.15	24011	1093.3	0.9
343.15	28014	1111	0.9
343.15	29007	1115	0.9
343.15	30012	1119.1	0.9
343.15	31008	1123.1	0.9
343.15	32001	1126.9	0.9
343.15	33007	1130.6	0.9
343.15	34014	1134.3	0.9
343.16	7002	972	0.9
343.16	8008	983.5	0.9
343.16	12010	1020.8	0.9
343.16	13015	1028.6	0.9
343.16	14013	1035.9	0.9
343.16	15013	1042.9	0.9
343.16	16014	1049.5	0.9
343.16	18011	1061.8	0.9
343.16	19002	1067.5	0.9
343.16	20005	1073	0.9
343.16	21001	1078.3	0.9
343.16	22004	1083.4	0.9
343.16	25003	1097.8	0.9
343.16	26009	1102.4	0.9
343.16	27005	1106.7	0.9
343.16	35000	1137.8	0.9
343.17	2542	894	1.1
343.17	3006	905.9	1.1
343.17	4013	927.2	1.1
343.17	5013	944.4	1
343.17	6004	959	1
343.17	9005	993.9	0.9
343.17	10010	1003.6	0.9
343.17	11012	1012.5	0.9
353.15	27004	1083.5	0.9
353.15	30011	1096.9	0.9
353.15	31012	1101.2	0.9
353.15	32004	1105.5	0.9
353.15	33000	1109.5	0.9
353.15	34007	1113.2	0.9
353.15	35003	1116.9	0.9
353.16	23011	1063.8	0.9
353.16	24004	1068.9	0.9
353.16	25010	1073.9	0.9
353.16	26007	1078.8	0.9
353.16	28007	1088.2	0.9
353.16	29008	1092.6	0.9
353.17	3010	830.9	1.4
353.17	4012	866.6	1.2
353.17	5009	891.8	1.1
353.17	6010	911.5	1
353.17	9012	955.8	0.9
353.17	10004	967.2	0.9
353.17	12011	987.5	0.9
353.17	13014	996.6	0.9
353.17	18002	1034.1	0.9
353.17	19007	1040.5	0.9
353.17	20007	1046.6	0.9
353.17	21001	1052.4	0.9
353.17	22000	1058	0.9
353.18	7015	928.6	1
353.18	8001	942.9	0.9
353.18	11013	977.9	0.9
353.18	14000	1005.1	0.9
353.18	15017	1012.9	0.9
353.18	16004	1020.4	0.9
353.18	17015	1027.4	0.9
353.2	2813	821.5	1.4
