Measured thermophysical data. Heat Capacity and Thermodynamic Functions of Diphenylacetylene
Source: J. Chem. Eng. Data, 2011, 10.1021/je200673a
Compound 1: 1,2-diphenylethyne, C14H10, InChI=1S/C14H10/c1-3-7-13(8-4-1)11-12-14-9-5-2-6-10-14/h1-10H, purity 98.5%

System: 1,2-diphenylethyne; phases: Crystal, Liquid, Gas
Property: Molar enthalpy of transition or fusion, kJ/mol (Crystal); method: Adiabatic calorimetry
Molar enthalpy of transition or fusion, kJ/mol	uncertainty
21.04	0.189

System: 1,2-diphenylethyne; phases: Crystal, Liquid, Gas
Property: Triple point temperature, K (Crystal); method: Adiabatic calorimetry
Triple point temperature, K	uncertainty
332.02	0.05

System: 1,2-diphenylethyne; phases: Crystal
Fixed: Pressure, kPa = 101.325
Property: Molar heat capacity at constant pressure, J/K/mol (Crystal); method: Vacuum adiabatic calorimetry
Temperature, K	Molar heat capacity at constant pressure, J/K/mol	uncertainty
5	0.44613	0.01777
10	3.3905	0.0762
20	17.459	0.359
25	25.265	0.222
30	32.682	0.273
35	39.592	0.329
40	45.415	0.376
45	50.829	0.419
50	55.371	0.456
55	60.865	0.501
60	65.091	0.535
65	69.081	0.567
70	72.217	0.592
75	75.154	0.616
80	77.649	0.636
85	80.258	0.658
90	82.961	0.693
95	85.787	0.716
100	88.697	0.738
110	94.562	0.785
120	100.39	0.83
130	106.33	0.88
140	112.5	0.93
150	118.79	0.98
160	125.14	1.03
170	131.53	1.08
180	138	1.13
190	144.57	1.18
200	151.06	1.23
210	157.57	1.29
220	164.63	1.34
230	171.85	1.4
240	179.11	1.46
250	186.45	1.52
260	193.93	1.58
270	201.56	1.64
280	209.29	1.7
290	216.99	1.76
298.15	223.14	1.81
300	224.51	1.82
310	231.76	1.88
320	238.87	1.94
330	245.96	1.99
332.03	247.4	2

System: 1,2-diphenylethyne; phases: Liquid
Fixed: Pressure, kPa = 101.325
Property: Molar heat capacity at constant pressure, J/K/mol (Liquid); method: Vacuum adiabatic calorimetry
Temperature, K	Molar heat capacity at constant pressure, J/K/mol	uncertainty
332.03	302	2.44
340	303.79	2.46
350	306.04	3.69
360	308.41	3.72
370	309.93	3.74

System: 1,2-diphenylethyne; phases: Crystal
Fixed: Pressure, kPa = 101.325
Property: Molar heat capacity at constant pressure, J/K/mol (Crystal); method: Vacuum adiabatic calorimetry
Temperature, K	Molar heat capacity at constant pressure, J/K/mol	uncertainty
7.76	1.6599	0.0398
8.24	1.9972	0.0463
8.4	2.1554	0.0492
8.56	2.2464	0.0513
8.71	2.3246	0.0531
8.87	2.4538	0.0557
9.02	2.4728	0.056
9.17	2.661	0.0598
9.32	2.644	0.0593
9.46	2.8128	0.0629
9.61	3.003	0.0671
9.75	3.2026	0.0711
9.9	3.352	0.0744
10.04	3.4084	0.0759
10.23	3.5802	0.0792
10.46	3.8607	0.085
10.7	4.1627	0.091
10.94	4.4945	0.0976
11.19	4.7532	0.1032
11.43	4.9517	0.1072
11.67	5.2815	0.1139
11.92	5.5559	0.1191
12.16	5.878	0.1258
12.4	6.2074	0.1327
12.65	6.5643	0.1398
12.9	6.7766	0.1443
13.14	7.1564	0.1519
13.39	7.4775	0.1584
13.65	7.8352	0.1654
13.9	8.2463	0.174
14.15	8.5795	0.1806
14.4	8.9437	0.188
14.66	9.2428	0.1941
14.91	9.6368	0.2019
15.16	9.9847	0.2089
15.42	10.368	0.217
15.67	10.789	0.225
15.93	11.121	0.232
16.19	11.496	0.239
16.44	11.926	0.248
16.7	12.283	0.255
16.96	12.667	0.263
17.22	13.045	0.271
17.48	13.528	0.28
17.74	13.895	0.288
18	14.401	0.298
18.26	14.749	0.305
18.52	15.127	0.312
18.78	15.536	0.32
19.05	15.992	0.329
19.31	16.453	0.339
19.57	16.801	0.346
19.83	17.199	0.354
20.1	17.569	0.361
20.52	18.216	0.168
21.06	19.091	0.175
21.59	19.968	0.182
22.13	20.722	0.188
22.66	21.519	0.194
23.2	22.374	0.2
23.74	23.217	0.207
24.28	24.101	0.214
24.82	24.996	0.221
25.36	25.887	0.227
25.9	26.738	0.233
26.44	27.461	0.239
26.99	28.204	0.244
27.53	29.013	0.25
28.08	29.838	0.256
28.62	30.62	0.262
29.17	31.467	0.268
29.72	32.261	0.274
30.27	33.134	0.277
30.82	33.868	0.283
31.36	34.722	0.29
31.91	35.511	0.296
32.46	36.306	0.302
33.02	37.012	0.308
33.57	37.746	0.314
34.12	38.45	0.32
34.67	39.144	0.325
35.23	39.868	0.331
35.78	40.606	0.337
36.33	41.226	0.342
36.89	41.864	0.347
37.44	42.567	0.353
38	43.149	0.357
38.56	43.791	0.362
39.11	44.41	0.367
39.67	45.072	0.373
40.22	45.633	0.377
40.78	46.309	0.383
41.33	46.897	0.388
41.89	47.449	0.392
42.45	48.176	0.398
43	48.727	0.402
43.56	49.341	0.407
44.12	49.906	0.412
44.67	50.456	0.416
45.23	51.092	0.421
45.79	51.68	0.426
46.35	52.174	0.43
46.91	52.713	0.434
47.47	53.205	0.438
48.03	53.678	0.442
48.59	54.182	0.446
49.15	54.594	0.45
49.71	55.119	0.454
50.26	55.729	0.459
50.82	56.2	0.463
51.38	56.688	0.467
51.94	57.245	0.471
52.5	57.837	0.476
53.06	58.519	0.482
53.62	59.218	0.487
54.18	59.954	0.493
54.74	60.54	0.498
55.3	61.307	0.504
55.87	61.848	0.509
56.43	62.342	0.512
56.99	62.762	0.516
57.55	63.281	0.52
58.11	63.731	0.524
58.67	64.136	0.527
59.23	64.533	0.53
59.8	64.943	0.533
60.36	65.363	0.537
60.92	65.807	0.541
61.48	66.275	0.544
62.04	66.76	0.548
62.6	67.25	0.552
63.16	67.816	0.557
63.73	68.11	0.559
64.29	68.622	0.563
64.85	68.975	0.566
65.42	69.41	0.57
65.98	69.575	0.571
66.54	69.948	0.574
67.11	70.301	0.577
67.67	70.728	0.58
68.23	71.089	0.583
68.8	71.473	0.586
69.36	71.948	0.59
69.92	72.223	0.592
70.61	72.515	0.595
71.41	72.896	0.598
72.21	73.452	0.602
73.01	73.994	0.607
73.82	74.483	0.611
74.62	74.907	0.614
75.42	75.39	0.618
76.23	75.718	0.621
77.03	76.121	0.624
77.83	76.428	0.627
78.64	76.808	0.63
79.44	77.356	0.634
80.24	77.798	0.638
81.05	78.263	0.641
81.85	78.595	0.644
82.56	78.831	0.646
82.65	79.001	0.647
83.36	79.364	0.65
83.46	79.489	0.651
84.16	79.793	0.654
84.26	79.973	0.655
84.96	80.293	0.658
85.77	80.604	0.66
86.57	81.066	0.664
87.37	81.614	0.669
88.17	81.868	0.671
88.98	82.433	0.675
89.78	82.922	0.679
90.58	83.289	0.696
91.39	83.69	0.699
92.19	84.303	0.704
92.99	84.621	0.706
93.8	85.076	0.71
94.6	85.512	0.713
95.4	85.868	0.716
96.21	86.488	0.721
97.01	86.966	0.725
97.81	87.462	0.729
98.61	87.797	0.731
99.42	88.334	0.736
100.22	88.789	0.739
101.02	89.522	0.745
101.82	89.71	0.746
102.62	90.122	0.75
103.42	90.809	0.755
104.22	91.272	0.759
105.03	91.638	0.762
105.84	92.037	0.765
106.64	92.606	0.769
107.45	93.028	0.773
108.25	93.654	0.778
109.06	94.163	0.782
109.87	94.48	0.784
110.68	94.841	0.787
111.49	95.375	0.791
112.3	95.958	0.796
113.12	96.257	0.798
113.93	96.766	0.802
114.74	97.3	0.806
115.56	97.845	0.811
116.37	98.289	0.814
117.19	98.705	0.817
118.01	99.287	0.822
118.83	99.686	0.825
119.65	100.31	0.83
120.47	100.58	0.83
121.29	101.29	0.84
122.11	101.7	0.84
122.93	102.01	0.84
123.75	102.53	0.85
124.57	103.09	0.85
125.39	103.65	0.86
126.22	103.97	0.86
127.04	104.54	0.86
127.87	104.88	0.87
128.69	105.58	0.87
129.52	106.14	0.88
130.34	106.59	0.88
131.19	107.21	0.88
132.02	107.62	0.89
132.85	107.99	0.89
133.68	108.55	0.9
134.51	108.88	0.9
135.34	109.34	0.9
136.17	110.18	0.91
137.01	110.88	0.91
137.84	111.19	0.92
138.67	111.61	0.92
139.51	112.13	0.92
140.35	112.75	0.93
141.18	113.14	0.93
142.02	113.86	0.94
142.86	114.26	0.94
143.7	114.81	0.95
144.56	115.47	0.95
145.4	115.88	0.95
146.24	116.41	0.96
147.08	117.03	0.96
147.93	117.53	0.97
148.77	118.01	0.97
149.61	118.61	0.98
150.46	119.09	0.98
151.31	119.49	0.98
152.15	120.1	0.99
153	120.73	0.99
153.85	121.21	1
154.7	121.63	1
155.55	122.47	1.01
156.4	122.86	1.01
157.25	123.14	1.01
158.14	124.01	1.02
158.99	124.43	1.02
159.85	125.3	1.03
160.7	125.66	1.03
161.56	125.9	1.03
162.42	126.63	1.04
163.28	127.28	1.04
164.14	127.86	1.05
165	128.31	1.05
165.86	128.78	1.06
166.72	129.29	1.06
167.58	130.02	1.07
168.45	130.59	1.07
169.31	131.32	1.08
170.18	131.71	1.08
171.05	132.15	1.08
171.96	132.79	1.09
172.83	133.42	1.09
173.7	133.85	1.1
174.57	134.6	1.1
175.44	135.11	1.11
176.31	135.5	1.11
177.19	135.99	1.11
178.06	136.73	1.12
178.94	137.42	1.13
179.82	137.82	1.13
180.7	138.43	1.13
181.58	138.91	1.14
182.46	139.54	1.14
183.34	140.11	1.15
184.22	140.8	1.15
185.11	141.42	1.16
186.05	142.12	1.16
186.93	142.62	1.17
187.82	143.19	1.17
188.71	143.74	1.18
189.6	144.35	1.18
190.5	144.84	1.18
191.39	145.31	1.19
192.29	146.01	1.19
193.18	146.68	1.2
194.08	147.37	1.2
194.98	147.95	1.21
196.78	149.26	1.22
197.68	149.46	1.22
198.59	150.29	1.23
199.5	151.03	1.23
200.7	151.27	1.24
202.04	151.99	1.24
203.39	152.98	1.25
204.73	154.54	1.26
206.08	154.9	1.26
207.42	155.84	1.27
208.77	156.73	1.28
210.11	157.51	1.29
211.46	158.55	1.29
212.8	159.5	1.3
214.14	160.32	1.31
215.49	161.29	1.32
216.83	162.37	1.32
218.17	163	1.33
219.51	164.34	1.34
220.86	165.39	1.35
222.28	166.49	1.36
223.62	167.21	1.36
224.96	168.09	1.37
226.3	169.06	1.38
227.64	170.12	1.39
228.97	171	1.39
230.31	171.96	1.4
231.65	173.01	1.41
232.99	173.91	1.42
234.32	174.98	1.42
235.65	175.95	1.43
236.99	176.85	1.44
238.33	177.98	1.45
239.66	179.01	1.46
240.99	179.99	1.46
242.32	180.88	1.47
243.73	181.99	1.48
245.07	182.85	1.49
246.4	183.79	1.5
247.73	184.64	1.5
249.06	185.75	1.51
250.39	185.54	1.51
251.71	187.74	1.53
253.03	188.91	1.54
254.36	189.53	1.54
255.68	190.6	1.55
257	191.87	1.56
258.32	192.68	1.57
259.65	193.82	1.58
260.97	194.81	1.58
262.28	195.65	1.59
263.6	197.01	1.6
264.98	198.01	1.61
266.3	198.7	1.61
267.61	199.72	1.62
268.93	200.72	1.63
270.24	201.85	1.64
271.55	202.64	1.65
272.86	203.72	1.65
274.17	204.75	1.66
275.47	205.78	1.67
276.77	206.87	1.68
278.07	207.63	1.69
279.37	208.98	1.7
280.67	209.89	1.7
281.97	210.65	1.71
283.26	211.51	1.72
284.56	212.46	1.72
285.9	213.85	1.74
287.2	214.7	1.74
288.49	216.02	1.75
289.78	216.96	1.76
291.06	217.78	1.77
292.34	219.03	1.78
293.62	219.44	1.78
294.9	220.27	1.79
296.17	221.66	1.8
297.45	223.35	1.81
298.72	223.61	1.81
299.98	224.36	1.82
301.47	225.51	1.83
303.12	227.1	1.84
304.78	228.38	1.85
306.45	228.99	1.86
308.12	230.51	1.87
309.79	231.08	1.87
311.46	232.91	1.89
313.14	234.02	1.9
314.83	234.92	1.9
316.52	236.14	1.91
318.22	238.29	1.93
319.93	238.52	1.93
321.63	240.17	1.95
323.34	241.21	1.95
325.06	242.48	1.96

System: 1,2-diphenylethyne; phases: Liquid
Fixed: Pressure, kPa = 101.325
Property: Molar heat capacity at constant pressure, J/K/mol (Liquid); method: Vacuum adiabatic calorimetry
Temperature, K	Molar heat capacity at constant pressure, J/K/mol	uncertainty
348.64	304.58	3.69
348.68	305.37	3.7
350.47	306.11	3.7
350.59	307.42	3.71
352.28	307.07	3.7
352.61	306.03	3.69
354.1	304.34	3.67
354.59	307.75	3.71
355.9	307.73	3.71
356.6	308.43	3.72
357.73	308.85	3.72
358.63	305.76	3.69
359.56	309.14	3.73
360.65	308.73	3.72
361.57	306.43	3.69
362.7	310.22	3.74
363.41	309.69	3.73
364.77	310.47	3.74
365.26	310.84	3.75
367.13	305.78	4.19
367.19	311.76	4.25
369.03	310.48	3.75
369.32	308.58	3.72
370.91	308.47	3.72
371.44	311.8	3.76

System: 1,2-diphenylethyne; phases: Crystal
Fixed: Pressure, kPa = 101.325
Property: Molar enthalpy, kJ/mol (Crystal); method: Vacuum adiabatic calorimetry
Temperature, K	Molar enthalpy, kJ/mol	uncertainty
5	0.0005577	5.24e-05
10	0.0082	0.000252
20	0.1081	0.0023
25	0.2147	0.002
30	0.3597	0.0032
35	0.541	0.0047
40	0.7538	0.0065
45	0.9946	0.0085
50	1.261	0.011
55	1.551	0.013
60	1.866	0.016
65	2.202	0.018
70	2.555	0.021
75	2.923	0.024
80	3.305	0.027
85	3.637	0.03
90	4.045	0.036
95	4.467	0.039
100	4.903	0.043
110	5.82	0.051
120	6.794	0.059
130	7.828	0.067
140	8.922	0.076
150	10.08	0.09
160	11.3	0.1
170	12.58	0.11
180	13.93	0.12
190	15.34	0.13
200	16.82	0.14
210	18.36	0.15
220	19.97	0.17
230	21.66	0.18
240	23.41	0.19
250	25.24	0.21
260	27.14	0.22
270	29.12	0.24
280	31.17	0.26
290	33.3	0.27
298.15	35.1	0.29
300	35.51	0.29
310	37.79	0.31
320	40.15	0.33
330	42.57	0.35
332.03	43.07	0.35

System: 1,2-diphenylethyne; phases: Liquid
Fixed: Pressure, kPa = 101.325
Property: Molar enthalpy, kJ/mol (Liquid); method: Vacuum adiabatic calorimetry
Temperature, K	Molar enthalpy, kJ/mol	uncertainty
332.03	64.11	0.52
340	66.52	0.54
350	69.57	0.57
360	72.65	0.59
370	75.74	0.62

System: 1,2-diphenylethyne; phases: Crystal
Fixed: Pressure, kPa = 101.325
Property: Molar entropy, J/K/mol (Crystal); method: Vacuum adiabatic calorimetry
Temperature, K	Molar entropy, J/K/mol	uncertainty
5	0.14871	0.01361
10	1.0236	0.0375
20	7.3855	0.2286
25	12.112	0.162
30	17.379	0.224
35	22.954	0.291
40	28.629	0.359
45	34.295	0.428
50	39.895	0.496
55	45.418	0.563
60	50.911	0.63
65	56.283	0.695
70	61.516	0.758
75	66.597	0.82
80	71.522	0.88
85	75.533	0.929
90	80.196	1.007
95	84.757	1.061
100	89.231	1.114
110	97.96	1.217
120	106.44	1.32
130	114.71	1.42
140	122.81	1.51
150	130.79	1.61
160	138.66	1.7
170	146.43	1.8
180	154.13	1.89
190	161.77	1.98
200	169.36	2.07
210	176.88	2.16
220	184.37	2.25
230	191.85	2.34
240	199.32	2.43
250	206.78	2.52
260	214.23	2.61
270	221.7	2.7
280	229.17	2.79
290	236.64	2.88
298.15	242.74	2.95
300	244.13	2.97
310	251.61	3.06
320	259.08	3.15
330	266.54	3.24
332.03	268.05	3.25

System: 1,2-diphenylethyne; phases: Liquid
Fixed: Pressure, kPa = 101.325
Property: Molar entropy, J/K/mol (Liquid); method: Vacuum adiabatic calorimetry
Temperature, K	Molar entropy, J/K/mol	uncertainty
332.03	331.42	4.02
340	338.61	4.1
350	347.44	4.21
360	356.1	4.31
370	364.57	4.42
