Measured thermophysical data. Study on Enthalpy and Molar Heat Capacity of Solution for the Ionic Liquid [C2mim][OAc] (1-Ethyl-3-methylimidazolium acetate)
Source: J. Chem. Eng. Data, 2012, 10.1021/je300768j
Compound 1: water, H2O, InChI=1S/H2O/h1H2
Compound 2: 1-ethyl-3-methylimidazolium acetate, C8H14N2O2, InChI=1S/C6H11N2.C2H4O2/c1-3-8-5-4-7(2)6-8;1-2(3)4/h4-6H,3H2,1-2H3;1H3,(H,3,4)/q+1;/p-1

System: 1-ethyl-3-methylimidazolium acetate; phases: Glass, Liquid, Air at 1 atmosphere
Property: Triple point temperature, K (Glass); method: DTA
Triple point temperature, K	uncertainty
197.65	3

System: water + 1-ethyl-3-methylimidazolium acetate; phases: Liquid
Fixed: Pressure, kPa = 101
Property: Molar enthalpy of solution, kJ/mol (Liquid); method: ISOPERIBOL
Temperature, K	Molality, mol/kg of 1-ethyl-3-methylimidazolium acetate	Molar enthalpy of solution, kJ/mol	uncertainty
288.15	0.03014	-51.77	0.62
288.15	0.03503	-51.59	0.56
288.15	0.04025	-51.26	0.51
288.15	0.04532	-51.1	0.42
288.15	0.05011	-50.8	0.46
288.15	0.05541	-50.59	0.47
288.15	0.06032	-50.4	0.66
288.15	0.06523	-50.21	0.49
288.15	0.07012	-49.94	0.77
288.15	0.07531	-49.73	0.64
288.15	0.08044	-49.46	0.52
288.15	0.08512	-49.29	0.45
293.15	0.03001	-49.99	0.58
293.15	0.03523	-49.78	0.48
293.15	0.04012	-49.52	0.76
293.15	0.04551	-49.35	0.55
293.15	0.05036	-49.16	0.64
293.15	0.05514	-48.94	0.43
293.15	0.06027	-48.7	0.8
293.15	0.06544	-48.51	0.43
293.15	0.07033	-48.31	0.62
293.15	0.07566	-48.09	0.41
293.15	0.08034	-47.92	0.43
293.15	0.08522	-47.76	0.49
298.15	0.03023	-48.15	0.54
298.15	0.03544	-47.97	0.57
298.15	0.04052	-47.87	0.76
298.15	0.04556	-47.72	0.44
298.15	0.05013	-47.54	0.46
298.15	0.05534	-47.4	0.48
298.15	0.06077	-47.3	0.64
298.15	0.06521	-47.16	0.57
298.15	0.07052	-46.97	0.58
298.15	0.07545	-46.84	0.7
298.15	0.08013	-46.67	0.68
298.15	0.08542	-46.58	0.49
303.15	0.03043	-46.18	0.58
303.15	0.03512	-46.02	0.53
303.15	0.04045	-45.91	0.56
303.15	0.04571	-45.75	0.61
303.15	0.05036	-45.61	0.75
303.15	0.05562	-45.5	0.7
303.15	0.06081	-45.35	0.65
303.15	0.06534	-45.21	0.47
303.15	0.07042	-45.11	0.48
303.15	0.07563	-44.95	0.44
303.15	0.08007	-44.71	0.41
303.15	0.08522	-44.67	0.45
308.15	0.03012	-43.97	0.56
308.15	0.03533	-43.81	0.69
308.15	0.04061	-43.66	0.42
308.15	0.04545	-43.51	0.44
308.15	0.05082	-43.41	0.46
308.15	0.05574	-43.24	0.55
308.15	0.06052	-43.06	0.47
308.15	0.06541	-42.95	0.49
308.15	0.07036	-42.77	0.6
308.15	0.07548	-42.6	0.62
308.15	0.08025	-42.51	0.52
308.15	0.08553	-42.35	0.6
