Measured thermophysical data. Densities, Viscosities, and Refractive Indices of Aqueous Alkanolamine Solutions as Potential Carbon Dioxide Removal Reagents
Source: J. Chem. Eng. Data, 2013, 10.1021/je300938w
Compound 1: 1-amino-2-propanol, C3H9NO, InChI=1S/C3H9NO/c1-3(5)2-4/h3,5H,2,4H2,1H3, purity 98%
Compound 2: diethanolamine, C4H11NO2, InChI=1S/C4H11NO2/c6-3-1-5-2-4-7/h5-7H,1-4H2, purity 99.5%
Compound 3: N-(2-hydroxypropyl)-2-hydroxy-1-propanamine, C6H15NO2, InChI=1S/C6H15NO2/c1-5(8)3-7-4-6(2)9/h5-9H,3-4H2,1-2H3, purity 98%
Compound 4: triisopropanolamine, C9H21NO3, InChI=1S/C9H21NO3/c1-7(11)4-10(5-8(2)12)6-9(3)13/h7-9,11-13H,4-6H2,1-3H3, purity 95%
Compound 5: water, H2O, InChI=1S/H2O/h1H2, purity 99.9%

System: 1-amino-2-propanol; phases: Liquid
Property: Viscosity, Pa*s (Liquid); method: Concentric cylinders viscometry
Temperature, K	Pressure, kPa	Viscosity, Pa*s	uncertainty
298.15	101.325	0.023259	0.000413

System: 1-amino-2-propanol; phases: Liquid
Property: Refractive index (Na D-line) (Liquid); method: Standard Abbe refractometry
Temperature, K	Pressure, kPa	Refractive index (Na D-line)	uncertainty
298.15	101.325	1.4459	0.00082

System: 1-amino-2-propanol; phases: Liquid
Property: Mass density, kg/m3 (Liquid); method: Vibrating tube method
Temperature, K	Pressure, kPa	Mass density, kg/m3	uncertainty
298.15	101.325	956.644	1.016

System: diethanolamine; phases: Liquid
Property: Viscosity, Pa*s (Liquid); method: Concentric cylinders viscometry
Temperature, K	Pressure, kPa	Viscosity, Pa*s	uncertainty
298.15	101.325	0.56657	0.04608

System: diethanolamine; phases: Liquid
Property: Refractive index (Na D-line) (Liquid); method: Standard Abbe refractometry
Temperature, K	Pressure, kPa	Refractive index (Na D-line)	uncertainty
298.15	101.325	1.4764	0.00073

System: diethanolamine; phases: Liquid
Property: Mass density, kg/m3 (Liquid); method: Vibrating tube method
Temperature, K	Pressure, kPa	Mass density, kg/m3	uncertainty
298.15	101.325	1093.221	0.173

System: N-(2-hydroxypropyl)-2-hydroxy-1-propanamine; phases: Liquid
Fixed: Pressure, kPa = 101.325
Property: Viscosity, Pa*s (Liquid); method: Concentric cylinders viscometry
Temperature, K	Viscosity, Pa*s	uncertainty
313.15	0.30854	0.01092
323.15	0.12321	0.00437

System: N-(2-hydroxypropyl)-2-hydroxy-1-propanamine; phases: Liquid
Fixed: Pressure, kPa = 101.325
Property: Refractive index (Na D-line) (Liquid); method: Standard Abbe refractometry
Temperature, K	Refractive index (Na D-line)	uncertainty
313.15	1.45517	0.00068
323.15	1.45139	0.00068

System: N-(2-hydroxypropyl)-2-hydroxy-1-propanamine; phases: Liquid
Fixed: Pressure, kPa = 101.325
Property: Mass density, kg/m3 (Liquid); method: Vibrating tube method
Temperature, K	Mass density, kg/m3	uncertainty
313.15	992.46	1.07
323.15	984.835	1.058

System: triisopropanolamine; phases: Liquid
Property: Viscosity, Pa*s (Liquid); method: Concentric cylinders viscometry
Temperature, K	Pressure, kPa	Viscosity, Pa*s	uncertainty
323.15	101.325	0.1323	0.00551

System: triisopropanolamine; phases: Liquid
Property: Refractive index (Na D-line) (Liquid); method: Standard Abbe refractometry
Temperature, K	Pressure, kPa	Refractive index (Na D-line)	uncertainty
323.15	101.325	1.45233	0.00123

System: triisopropanolamine; phases: Liquid
Property: Mass density, kg/m3 (Liquid); method: Vibrating tube method
Temperature, K	Pressure, kPa	Mass density, kg/m3	uncertainty
323.15	101.325	990.616	6.841

System: water; phases: Liquid
Fixed: Pressure, kPa = 101.325
Property: Viscosity, Pa*s (Liquid); method: Concentric cylinders viscometry
Temperature, K	Viscosity, Pa*s	uncertainty
293.15	0.0010186	1e-05
298.15	0.00091225	9.65e-06

System: water; phases: Liquid
Fixed: Pressure, kPa = 101.325
Property: Refractive index (Na D-line) (Liquid); method: Standard Abbe refractometry
Temperature, K	Refractive index (Na D-line)	uncertainty
293.15	1.33304	0.00042
298.15	1.33249	0.00042

System: 1-amino-2-propanol + water; phases: Liquid
Fixed: Pressure, kPa = 101
Property: Viscosity, Pa*s (Liquid); method: Concentric cylinders viscometry
Temperature, K	Mass fraction of 1-amino-2-propanol	Viscosity, Pa*s	uncertainty
298.15	0.05	0.0010879	7.4e-06
298.15	0.1	0.0012957	8.19e-06
298.15	0.15	0.0015686	9.38e-06
298.15	0.2	0.0019437	1.115e-05
298.15	0.25	0.0024437	1.366e-05
303.15	0.05	0.00097325	7.08e-06
303.15	0.1	0.0011478	7.67e-06
303.15	0.15	0.0013721	8.64e-06
303.15	0.2	0.0016784	1.008e-05
303.15	0.25	0.002083	1.213e-05
308.15	0.05	0.00087612	6.81e-06
308.15	0.1	0.0010269	7.3e-06
308.15	0.15	0.0012149	8.06e-06
308.15	0.2	0.0014681	9.24e-06
308.15	0.25	0.0017987	1.091e-05
313.15	0.05	0.00079374	6.59e-06
313.15	0.1	0.0009275	7.02e-06
313.15	0.15	0.0010842	7.6e-06
313.15	0.2	0.001295	8.56e-06
313.15	0.25	0.0015736	9.95e-06
318.15	0.05	0.00072248	6.39e-06
318.15	0.1	0.00083624	6.76e-06
318.15	0.15	0.00097555	7.26e-06
318.15	0.2	0.0011555	8.01e-06
318.15	0.25	0.0013844	9.16e-06
323.15	0.05	0.00066173	6.23e-06
323.15	0.1	0.00076172	6.55e-06
323.15	0.15	0.0008864	6.99e-06
323.15	0.2	0.0010391	7.6e-06
323.15	0.25	0.0012314	8.52e-06
328.15	0.05	0.0006112	6.1e-06
328.15	0.1	0.00069884	6.37e-06
328.15	0.15	0.00081131	6.76e-06
328.15	0.2	0.00094301	7.28e-06
328.15	0.25	0.0011018	8e-06
333.15	0.05	0.00056956	5.99e-06
333.15	0.1	0.00064702	6.23e-06
333.15	0.15	0.00074995	6.58e-06
333.15	0.2	0.00086587	7.03e-06
333.15	0.25	0.00099336	7.61e-06
338.15	0.05	0.0005381	5.91e-06
338.15	0.1	0.00060529	6.12e-06
338.15	0.15	0.00069191	6.41e-06
338.15	0.2	0.00079996	6.82e-06
338.15	0.25	0.00090153	7.28e-06
343.15	0.05	0.00051519	5.85e-06
343.15	0.1	0.00057015	6.02e-06
343.15	0.15	0.0006478	6.29e-06
343.15	0.2	0.00074077	6.64e-06
343.15	0.25	0.00082662	7.03e-06

System: 1-amino-2-propanol + water; phases: Liquid
Fixed: Pressure, kPa = 101
Property: Refractive index (Na D-line) (Liquid); method: Standard Abbe refractometry
Temperature, K	Mass fraction of 1-amino-2-propanol	Refractive index (Na D-line)	uncertainty
298.15	0.05	1.33891	0.00031
298.15	0.1	1.34586	0.00032
298.15	0.15	1.35281	0.00032
298.15	0.2	1.35955	0.00033
298.15	0.25	1.36649	0.00033
303.15	0.05	1.33825	0.00031
303.15	0.1	1.34506	0.00032
303.15	0.15	1.35201	0.00032
303.15	0.2	1.35875	0.00033
303.15	0.25	1.3656	0.00033
308.15	0.05	1.33749	0.00031
308.15	0.1	1.34432	0.00032
308.15	0.15	1.35092	0.00032
308.15	0.2	1.35767	0.00033
308.15	0.25	1.36461	0.00033
313.15	0.05	1.33668	0.00031
313.15	0.1	1.34343	0.00032
313.15	0.15	1.35012	0.00032
313.15	0.2	1.35672	0.00033
313.15	0.25	1.36347	0.00033
318.15	0.05	1.33578	0.00031
318.15	0.1	1.34259	0.00032
318.15	0.15	1.34908	0.00032
318.15	0.2	1.35573	0.00033
318.15	0.25	1.36228	0.00033
323.15	0.05	1.33483	0.00031
323.15	0.1	1.34154	0.00032
323.15	0.15	1.34799	0.00032
323.15	0.2	1.35454	0.00033
323.15	0.25	1.36109	0.00033
328.15	0.05	1.33384	0.00031
328.15	0.1	1.3405	0.00032
328.15	0.15	1.34705	0.00032
328.15	0.2	1.3533	0.00033
328.15	0.25	1.35985	0.00033
333.15	0.05	1.3328	0.00031
333.15	0.1	1.33936	0.00032
333.15	0.15	1.34581	0.00032
333.15	0.2	1.35211	0.00033
333.15	0.25	1.35861	0.00033
338.15	0.05	1.33173	0.00031
338.15	0.1	1.33832	0.00032
338.15	0.15	1.34462	0.00032
338.15	0.2	1.35092	0.00033
338.15	0.25	1.35753	0.00033
343.15	0.05	1.33057	0.00031
343.15	0.1	1.33713	0.00032
343.15	0.15	1.34343	0.00032
343.15	0.2	1.34968	0.00033
343.15	0.25	1.35614	0.00033

System: 1-amino-2-propanol + water; phases: Liquid
Fixed: Pressure, kPa = 101
Property: Mass density, kg/m3 (Liquid); method: Vibrating tube method
Temperature, K	Mass fraction of 1-amino-2-propanol	Mass density, kg/m3	uncertainty
298.15	0.05	998.574	0.039
298.15	0.1	999.182	0.048
298.15	0.15	999.932	0.061
298.15	0.2	1001.027	0.077
298.15	0.25	1002.456	0.098
303.15	0.05	997.087	0.04
303.15	0.1	997.57	0.049
303.15	0.15	998.142	0.061
303.15	0.2	999.018	0.077
303.15	0.25	1000.197	0.096
308.15	0.05	995.386	0.041
308.15	0.1	995.747	0.05
308.15	0.15	996.159	0.062
308.15	0.2	996.833	0.078
308.15	0.25	997.78	0.097
313.15	0.05	993.483	0.042
313.15	0.1	993.738	0.05
313.15	0.15	994.005	0.063
313.15	0.2	994.489	0.078
313.15	0.25	995.218	0.098
318.15	0.05	991.399	0.043
318.15	0.1	991.552	0.051
318.15	0.15	991.681	0.063
318.15	0.2	991.989	0.079
318.15	0.25	992.514	0.098
323.15	0.05	989.143	0.043
323.15	0.1	989.197	0.052
323.15	0.15	989.197	0.064
323.15	0.2	989.338	0.08
323.15	0.25	989.679	0.099
328.15	0.05	986.722	0.045
328.15	0.1	986.682	0.053
328.15	0.15	986.564	0.065
328.15	0.2	986.546	0.081
328.15	0.25	986.711	0.1
333.15	0.05	984.143	0.046
333.15	0.1	984.015	0.054
333.15	0.15	983.779	0.066
333.15	0.2	983.615	0.082
333.15	0.25	983.616	0.101
338.15	0.05	981.41	0.047
338.15	0.1	981.198	0.055
338.15	0.15	980.853	0.067
338.15	0.2	980.549	0.083
338.15	0.25	980.398	0.102
343.15	0.05	978.537	0.048
343.15	0.1	978.237	0.057
343.15	0.15	977.785	0.069
343.15	0.2	977.354	0.084
343.15	0.25	977.059	0.103

System: N-(2-hydroxypropyl)-2-hydroxy-1-propanamine + water; phases: Liquid
Fixed: Pressure, kPa = 101
Property: Viscosity, Pa*s (Liquid); method: Concentric cylinders viscometry
Temperature, K	Mass fraction of N-(2-hydroxypropyl)-2-hydroxy-1-propanamine	Viscosity, Pa*s	uncertainty
298.15	0.05	0.0011175	7.52e-06
298.15	0.1	0.0013939	8.6e-06
298.15	0.15	0.0018136	1.033e-05
298.15	0.2	0.0022879	1.261e-05
298.15	0.25	0.0030264	1.624e-05
303.15	0.05	0.00099681	7.16e-06
303.15	0.1	0.0012282	7.99e-06
303.15	0.15	0.0015686	9.39e-06
303.15	0.2	0.0019521	1.121e-05
303.15	0.25	0.0025391	1.416e-05
308.15	0.05	0.00089844	6.88e-06
308.15	0.1	0.0010928	7.52e-06
308.15	0.15	0.0013801	8.68e-06
308.15	0.2	0.0016953	1.016e-05
308.15	0.25	0.0021665	1.252e-05
313.15	0.05	0.00081893	6.66e-06
313.15	0.1	0.00098142	7.19e-06
313.15	0.15	0.0012243	8.1e-06
313.15	0.2	0.0014846	9.31e-06
313.15	0.25	0.0018711	1.124e-05
318.15	0.05	0.00074422	6.46e-06
318.15	0.1	0.00088562	6.91e-06
318.15	0.15	0.0010949	7.64e-06
318.15	0.2	0.0013128	8.63e-06
318.15	0.25	0.0016326	1.022e-05
323.15	0.05	0.00068835	6.31e-06
323.15	0.1	0.00080469	6.68e-06
323.15	0.15	0.00099239	7.32e-06
323.15	0.2	0.0011709	8.08e-06
323.15	0.25	0.0014385	9.39e-06
328.15	0.05	0.00064066	6.18e-06
328.15	0.1	0.00073572	6.48e-06
328.15	0.15	0.00090533	7.05e-06
328.15	0.2	0.0010521	7.65e-06
328.15	0.25	0.0012785	8.73e-06
333.15	0.05	0.00058329	6.03e-06
333.15	0.1	0.00067933	6.33e-06
333.15	0.15	0.00083238	6.83e-06
333.15	0.2	0.00095118	7.32e-06
333.15	0.25	0.0011447	8.17e-06
338.15	0.05	0.00055074	5.95e-06
338.15	0.1	0.0006341	6.2e-06
338.15	0.15	0.00076927	6.64e-06
338.15	0.2	0.00086433	7.03e-06
338.15	0.25	0.0010321	7.76e-06
343.15	0.05	0.00052673	5.88e-06
343.15	0.1	0.00060056	6.11e-06
343.15	0.15	0.00072504	6.51e-06
343.15	0.2	0.00081461	6.87e-06
343.15	0.25	0.00095787	7.48e-06

System: N-(2-hydroxypropyl)-2-hydroxy-1-propanamine + water; phases: Liquid
Fixed: Pressure, kPa = 101
Property: Refractive index (Na D-line) (Liquid); method: Standard Abbe refractometry
Temperature, K	Mass fraction of N-(2-hydroxypropyl)-2-hydroxy-1-propanamine	Refractive index (Na D-line)	uncertainty
298.15	0.05	1.34052	0.00031
298.15	0.1	1.34766	0.00032
298.15	0.15	1.35486	0.00032
298.15	0.2	1.3621	0.00033
298.15	0.25	1.36925	0.00033
303.15	0.05	1.33988	0.00031
303.15	0.1	1.34693	0.00032
303.15	0.15	1.35421	0.00032
303.15	0.2	1.3613	0.00033
303.15	0.25	1.36822	0.00033
308.15	0.05	1.33919	0.00031
308.15	0.1	1.34623	0.00032
308.15	0.15	1.35332	0.00032
308.15	0.2	1.36036	0.00033
308.15	0.25	1.36736	0.00033
313.15	0.05	1.33844	0.00031
313.15	0.1	1.34533	0.00032
313.15	0.15	1.35237	0.00032
313.15	0.2	1.35947	0.00033
313.15	0.25	1.36641	0.00033
318.15	0.05	1.33755	0.00031
318.15	0.1	1.3445	0.00032
318.15	0.15	1.35149	0.00032
318.15	0.2	1.35838	0.00033
318.15	0.25	1.36537	0.00033
323.15	0.05	1.33675	0.00031
323.15	0.1	1.34355	0.00032
323.15	0.15	1.35044	0.00032
323.15	0.2	1.35739	0.00033
323.15	0.25	1.36423	0.00033
328.15	0.05	1.33566	0.00031
328.15	0.1	1.34256	0.00032
328.15	0.15	1.3494	0.00032
328.15	0.2	1.35615	0.00033
328.15	0.25	1.36294	0.00033
333.15	0.05	1.33467	0.00031
333.15	0.1	1.34147	0.00032
333.15	0.15	1.34831	0.00032
333.15	0.2	1.35501	0.00033
333.15	0.25	1.36175	0.00033
338.15	0.05	1.33363	0.00031
338.15	0.1	1.34037	0.00032
338.15	0.15	1.34702	0.00032
338.15	0.2	1.35377	0.00033
338.15	0.25	1.36051	0.00033
343.15	0.05	1.33224	0.00031
343.15	0.1	1.33899	0.00032
343.15	0.15	1.34583	0.00032
343.15	0.2	1.35253	0.00033
343.15	0.25	1.35922	0.00033

System: N-(2-hydroxypropyl)-2-hydroxy-1-propanamine + water; phases: Liquid
Fixed: Pressure, kPa = 101
Property: Mass density, kg/m3 (Liquid); method: Vibrating tube method
Temperature, K	Mass fraction of N-(2-hydroxypropyl)-2-hydroxy-1-propanamine	Mass density, kg/m3	uncertainty
298.15	0.05	1000.599	0.041
298.15	0.1	1003.535	0.051
298.15	0.15	1006.988	0.065
298.15	0.2	1010.398	0.083
298.15	0.25	1014.103	0.105
303.15	0.05	999.133	0.041
303.15	0.1	1001.97	0.05
303.15	0.15	1005.269	0.064
303.15	0.2	1008.497	0.082
303.15	0.25	1011.982	0.103
308.15	0.05	997.454	0.042
308.15	0.1	1000.192	0.049
308.15	0.15	1003.348	0.063
308.15	0.2	1006.408	0.081
308.15	0.25	1009.687	0.102
313.15	0.05	995.576	0.042
313.15	0.1	998.214	0.05
313.15	0.15	1001.24	0.062
313.15	0.2	1004.14	0.08
313.15	0.25	1007.231	0.101
318.15	0.05	993.508	0.043
318.15	0.1	996.055	0.051
318.15	0.15	998.951	0.062
318.15	0.2	1001.705	0.078
318.15	0.25	1004.617	0.099
323.15	0.05	991.263	0.044
323.15	0.1	993.722	0.052
323.15	0.15	996.497	0.063
323.15	0.2	999.106	0.078
323.15	0.25	1001.855	0.098
328.15	0.05	988.852	0.045
328.15	0.1	991.224	0.053
328.15	0.15	993.882	0.064
328.15	0.2	996.358	0.079
328.15	0.25	998.953	0.097
333.15	0.05	986.277	0.046
333.15	0.1	988.56	0.054
333.15	0.15	991.114	0.065
333.15	0.2	993.463	0.08
333.15	0.25	995.91	0.098
338.15	0.05	983.349	0.047
338.15	0.1	985.762	0.055
338.15	0.15	988.199	0.066
338.15	0.2	990.404	0.08
338.15	0.25	992.735	0.099
343.15	0.05	980.387	0.048
343.15	0.1	982.81	0.056
343.15	0.15	985.138	0.067
343.15	0.2	987.241	0.081
343.15	0.25	989.434	0.1

System: triisopropanolamine + water; phases: Liquid
Fixed: Pressure, kPa = 101
Property: Viscosity, Pa*s (Liquid); method: Concentric cylinders viscometry
Temperature, K	Mass fraction of triisopropanolamine	Viscosity, Pa*s	uncertainty
298.15	0.05	0.00108305	7.58e-06
298.15	0.1	0.0013597	9.14e-06
298.15	0.15	0.0017099	1.178e-05
298.15	0.2	0.0021728	1.606e-05
298.15	0.25	0.0028571	2.305e-05
303.15	0.05	0.0009842	7.26e-06
303.15	0.1	0.0011979	8.45e-06
303.15	0.15	0.0014862	1.062e-05
303.15	0.2	0.0018589	1.408e-05
303.15	0.25	0.0023955	1.968e-05
308.15	0.05	0.00088826	6.97e-06
308.15	0.1	0.0010682	7.93e-06
308.15	0.15	0.0013088	9.71e-06
308.15	0.2	0.0016122	1.255e-05
308.15	0.25	0.0020507	1.715e-05
313.15	0.05	0.00080339	6.72e-06
313.15	0.1	0.00095741	7.53e-06
313.15	0.15	0.0011587	8.96e-06
313.15	0.2	0.0014177	1.136e-05
313.15	0.25	0.0017745	1.514e-05
318.15	0.05	0.00073147	6.51e-06
318.15	0.1	0.00086582	7.2e-06
318.15	0.15	0.0010376	8.39e-06
318.15	0.2	0.0012573	1.039e-05
318.15	0.25	0.0015526	1.354e-05
323.15	0.05	0.00066964	6.33e-06
323.15	0.1	0.00078737	6.93e-06
323.15	0.15	0.00093608	7.94e-06
323.15	0.2	0.0011247	9.59e-06
323.15	0.25	0.0013727	1.226e-05
328.15	0.05	0.00061637	6.18e-06
328.15	0.1	0.00072085	6.7e-06
328.15	0.15	0.00084935	7.57e-06
328.15	0.2	0.001013	8.98e-06
328.15	0.25	0.0012239	1.121e-05
333.15	0.05	0.00057189	6.06e-06
333.15	0.1	0.00066237	6.5e-06
333.15	0.15	0.00077545	7.26e-06
333.15	0.2	0.00091857	8.47e-06
333.15	0.25	0.0011037	1.037e-05
338.15	0.05	0.00053501	5.95e-06
338.15	0.1	0.00061337	6.34e-06
338.15	0.15	0.00071141	6.99e-06
338.15	0.2	0.0008381	8.05e-06
338.15	0.25	0.0009991	9.69e-06
343.15	0.05	0.00050643	5.88e-06
343.15	0.1	0.00057002	6.2e-06
343.15	0.15	0.00065962	6.78e-06
343.15	0.2	0.00076939	7.69e-06
343.15	0.25	0.0009113	9.13e-06

System: triisopropanolamine + water; phases: Liquid
Fixed: Pressure, kPa = 101
Property: Refractive index (Na D-line) (Liquid); method: Standard Abbe refractometry
Temperature, K	Mass fraction of triisopropanolamine	Refractive index (Na D-line)	uncertainty
298.15	0.05	1.34069	0.00032
298.15	0.1	1.34815	0.00033
298.15	0.15	1.35565	0.00035
298.15	0.2	1.36317	0.00038
298.15	0.25	1.37063	0.00041
303.15	0.05	1.34001	0.00032
303.15	0.1	1.34737	0.00033
303.15	0.15	1.35487	0.00035
303.15	0.2	1.36227	0.00038
303.15	0.25	1.36979	0.00041
308.15	0.05	1.33922	0.00032
308.15	0.1	1.34656	0.00033
308.15	0.15	1.35393	0.00035
308.15	0.2	1.36133	0.00038
308.15	0.25	1.36869	0.00041
313.15	0.05	1.33853	0.00032
313.15	0.1	1.34572	0.00033
313.15	0.15	1.35309	0.00035
313.15	0.2	1.36039	0.00038
313.15	0.25	1.36764	0.00041
318.15	0.05	1.33769	0.00032
318.15	0.1	1.34484	0.00033
318.15	0.15	1.35209	0.00035
318.15	0.2	1.35933	0.00038
318.15	0.25	1.36653	0.00041
323.15	0.05	1.3368	0.00032
323.15	0.1	1.34387	0.00033
323.15	0.15	1.35104	0.00035
323.15	0.2	1.35818	0.00038
323.15	0.25	1.36532	0.00041
328.15	0.05	1.33565	0.00032
328.15	0.1	1.34287	0.00033
328.15	0.15	1.34999	0.00035
328.15	0.2	1.35718	0.00038
328.15	0.25	1.36417	0.00041
333.15	0.05	1.33481	0.00032
333.15	0.1	1.34176	0.00033
333.15	0.15	1.34883	0.00035
333.15	0.2	1.35587	0.00038
333.15	0.25	1.36291	0.00041
338.15	0.05	1.3337	0.00032
338.15	0.1	1.34063	0.00033
338.15	0.15	1.34762	0.00035
338.15	0.2	1.35461	0.00038
338.15	0.25	1.36154	0.00041
343.15	0.05	1.33265	0.00032
343.15	0.1	1.33943	0.00033
343.15	0.15	1.34641	0.00035
343.15	0.2	1.35319	0.00038
343.15	0.25	1.36012	0.00041

System: triisopropanolamine + water; phases: Liquid
Fixed: Pressure, kPa = 101
Property: Mass density, kg/m3 (Liquid); method: Vibrating tube method
Temperature, K	Mass fraction of triisopropanolamine	Mass density, kg/m3	uncertainty
298.15	0.05	1000.88	0.057
298.15	0.1	1004.303	0.103
298.15	0.15	1007.923	0.174
298.15	0.2	1011.661	0.272
298.15	0.25	1015.037	0.397
303.15	0.05	999.387	0.056
303.15	0.1	1002.671	0.102
303.15	0.15	1006.103	0.173
303.15	0.2	1009.612	0.27
303.15	0.25	1012.729	0.394
308.15	0.05	997.679	0.057
308.15	0.1	1000.826	0.101
308.15	0.15	1004.079	0.172
308.15	0.2	1007.371	0.269
308.15	0.25	1010.257	0.392
313.15	0.05	995.768	0.058
313.15	0.1	998.785	0.101
313.15	0.15	1001.875	0.17
313.15	0.2	1004.968	0.266
313.15	0.25	1007.64	0.389
318.15	0.05	993.671	0.058
318.15	0.1	996.561	0.101
318.15	0.15	999.498	0.169
318.15	0.2	1002.408	0.264
318.15	0.25	1004.883	0.386
323.15	0.05	991.401	0.059
323.15	0.1	994.168	0.102
323.15	0.15	996.957	0.169
323.15	0.2	999.698	0.262
323.15	0.25	1001.995	0.383
328.15	0.05	988.96	0.06
328.15	0.1	991.613	0.102
328.15	0.15	994.263	0.17
328.15	0.2	996.847	0.262
328.15	0.25	998.98	0.38
333.15	0.05	986.362	0.061
333.15	0.1	988.905	0.103
333.15	0.15	991.422	0.17
333.15	0.2	993.857	0.262
333.15	0.25	995.844	0.379
338.15	0.05	983.585	0.062
338.15	0.1	985.961	0.104
338.15	0.15	988.426	0.17
338.15	0.2	990.739	0.262
338.15	0.25	992.589	0.378
343.15	0.05	980.297	0.063
343.15	0.1	982.83	0.105
343.15	0.15	985.312	0.171
343.15	0.2	987.395	0.262
343.15	0.25	989.222	0.377

System: diethanolamine + water; phases: Liquid
Fixed: Pressure, kPa = 101
Property: Viscosity, Pa*s (Liquid); method: Concentric cylinders viscometry
Temperature, K	Mass fraction of diethanolamine	Viscosity, Pa*s	uncertainty
298.15	0.05	0.0010591	7.28e-06
298.15	0.1	0.0012698	7.93e-06
298.15	0.15	0.0015031	8.76e-06
298.15	0.2	0.0018927	1.01e-05
298.15	0.25	0.002376	1.172e-05
303.15	0.05	0.00094983	6.98e-06
303.15	0.1	0.0011286	7.47e-06
303.15	0.15	0.0013194	8.13e-06
303.15	0.2	0.0016487	9.26e-06
303.15	0.25	0.0020496	1.063e-05
308.15	0.05	0.00085688	6.73e-06
308.15	0.1	0.0010129	7.15e-06
308.15	0.15	0.0011742	7.64e-06
308.15	0.2	0.0014553	8.6e-06
308.15	0.25	0.0017954	9.76e-06
313.15	0.05	0.00077917	6.52e-06
313.15	0.1	0.00091418	6.88e-06
313.15	0.15	0.0010513	7.27e-06
313.15	0.2	0.0012948	8.06e-06
313.15	0.25	0.0015847	9.04e-06
318.15	0.05	0.0007137	6.35e-06
318.15	0.1	0.00083069	6.66e-06
318.15	0.15	0.00094798	6.99e-06
318.15	0.2	0.0011615	7.62e-06
318.15	0.25	0.0014113	8.45e-06
323.15	0.05	0.00065296	6.19e-06
323.15	0.1	0.00075932	6.47e-06
323.15	0.15	0.00085985	6.75e-06
323.15	0.2	0.0010478	7.28e-06
323.15	0.25	0.0012665	7.97e-06
328.15	0.05	0.00060168	6.06e-06
328.15	0.1	0.00069689	6.3e-06
328.15	0.15	0.00078359	6.54e-06
328.15	0.2	0.00095193	7.01e-06
328.15	0.25	0.001141	7.55e-06
333.15	0.05	0.00055965	5.95e-06
333.15	0.1	0.00064296	6.17e-06
333.15	0.15	0.00071777	6.37e-06
333.15	0.2	0.00086732	6.78e-06
333.15	0.25	0.0010371	7.25e-06
338.15	0.05	0.00052691	5.87e-06
338.15	0.1	0.00059317	6.04e-06
338.15	0.15	0.00066193	6.22e-06
338.15	0.2	0.00079896	6.6e-06
338.15	0.25	0.00095435	7.02e-06
343.15	0.05	0.00050017	5.8e-06
343.15	0.1	0.00055339	5.94e-06
343.15	0.15	0.0006185	6.11e-06
343.15	0.2	0.00074594	6.45e-06
343.15	0.25	0.00089222	6.85e-06

System: diethanolamine + water; phases: Liquid
Fixed: Pressure, kPa = 101
Property: Refractive index (Na D-line) (Liquid); method: Standard Abbe refractometry
Temperature, K	Mass fraction of diethanolamine	Refractive index (Na D-line)	uncertainty
298.15	0.05	1.3394	0.00031
298.15	0.1	1.34654	0.00031
298.15	0.15	1.35439	0.00031
298.15	0.2	1.36184	0.00031
298.15	0.25	1.37017	0.00031
303.15	0.05	1.33875	0.00031
303.15	0.1	1.34585	0.00031
303.15	0.15	1.35368	0.00031
303.15	0.2	1.36108	0.00031
303.15	0.25	1.36935	0.00031
308.15	0.05	1.33801	0.00031
308.15	0.1	1.34511	0.00031
308.15	0.15	1.35288	0.00031
308.15	0.2	1.36028	0.00031
308.15	0.25	1.36847	0.00031
313.15	0.05	1.3372	0.00031
313.15	0.1	1.34427	0.00031
313.15	0.15	1.35208	0.00031
313.15	0.2	1.35939	0.00031
313.15	0.25	1.36756	0.00031
318.15	0.05	1.33633	0.00031
318.15	0.1	1.3434	0.00031
318.15	0.15	1.35122	0.00031
318.15	0.2	1.35862	0.00031
318.15	0.25	1.36659	0.00031
323.15	0.05	1.33539	0.00031
323.15	0.1	1.34245	0.00031
323.15	0.15	1.35028	0.00031
323.15	0.2	1.35777	0.00031
323.15	0.25	1.36557	0.00031
328.15	0.05	1.33442	0.00031
328.15	0.1	1.34148	0.00031
328.15	0.15	1.34935	0.00031
328.15	0.2	1.3568	0.00031
328.15	0.25	1.36453	0.00031
333.15	0.05	1.3334	0.00031
333.15	0.1	1.34044	0.00031
333.15	0.15	1.3485	0.00031
333.15	0.2	1.35582	0.00031
333.15	0.25	1.36354	0.00031
338.15	0.05	1.33234	0.00031
338.15	0.1	1.33938	0.00031
338.15	0.15	1.34755	0.00031
338.15	0.2	1.3547	0.00031
338.15	0.25	1.36244	0.00031
343.15	0.05	1.33122	0.00031
343.15	0.1	1.3382	0.00031
343.15	0.15	1.34633	0.00031
343.15	0.2	1.35356	0.00031
343.15	0.25	1.3614	0.00031

System: diethanolamine + water; phases: Liquid
Fixed: Pressure, kPa = 101
Property: Mass density, kg/m3 (Liquid); method: Vibrating tube method
Temperature, K	Mass fraction of diethanolamine	Mass density, kg/m3	uncertainty
298.15	0.05	1003.464	0.042
298.15	0.1	1009.087	0.045
298.15	0.15	1014.94	0.049
298.15	0.2	1020.921	0.052
298.15	0.25	1027.107	0.056
303.15	0.05	1001.984	0.042
303.15	0.1	1007.53	0.045
303.15	0.15	1013.274	0.048
303.15	0.2	1019.137	0.051
303.15	0.25	1025.187	0.055
308.15	0.05	1000.305	0.041
308.15	0.1	1005.773	0.044
308.15	0.15	1011.417	0.047
308.15	0.2	1017.178	0.051
308.15	0.25	1023.111	0.054
313.15	0.05	998.43	0.041
313.15	0.1	1003.831	0.043
313.15	0.15	1009.39	0.046
313.15	0.2	1015.055	0.05
313.15	0.25	1020.887	0.053
318.15	0.05	996.373	0.042
318.15	0.1	1001.713	0.042
318.15	0.15	1007.2	0.046
318.15	0.2	1012.776	0.049
318.15	0.25	1018.512	0.053
323.15	0.05	994.141	0.043
323.15	0.1	999.439	0.042
323.15	0.15	1004.854	0.045
323.15	0.2	1010.35	0.048
323.15	0.25	1016.003	0.052
328.15	0.05	991.746	0.044
328.15	0.1	996.992	0.043
328.15	0.15	1002.355	0.044
328.15	0.2	1007.781	0.047
328.15	0.25	1013.36	0.051
333.15	0.05	989.2	0.045
333.15	0.1	994.401	0.044
333.15	0.15	999.713	0.043
333.15	0.2	1005.073	0.046
333.15	0.25	1010.552	0.05
338.15	0.05	986.501	0.046
338.15	0.1	991.668	0.045
338.15	0.15	996.929	0.044
338.15	0.2	1002.231	0.045
338.15	0.25	1007.442	0.048
343.15	0.05	983.659	0.047
343.15	0.1	988.796	0.046
343.15	0.15	993.878	0.045
343.15	0.2	999.25	0.045
343.15	0.25	1004.411	0.047
