Measured thermophysical data. Thermodynamics of Mixtures Containing Aromatic Alcohols. 1. Liquid Liquid Equilibria for (Phenylmethanol + Alkane) Systems
Source: J. Chem. Eng. Data, 2012, 10.1021/je300146k
Compound 1: heptane, C7H16, InChI=1S/C7H16/c1-3-5-7-6-4-2/h3-7H2,1-2H3, purity 99.5%
Compound 2: octane, C8H18, InChI=1S/C8H18/c1-3-5-7-8-6-4-2/h3-8H2,1-2H3, purity 99%
Compound 3: decane, C10H22, InChI=1S/C10H22/c1-3-5-7-9-10-8-6-4-2/h3-10H2,1-2H3, purity 99%
Compound 4: dodecane, C12H26, InChI=1S/C12H26/c1-3-5-7-9-11-12-10-8-6-4-2/h3-12H2,1-2H3, purity 98%
Compound 5: tetradecane, C14H30, InChI=1S/C14H30/c1-3-5-7-9-11-13-14-12-10-8-6-4-2/h3-14H2,1-2H3, purity 99%
Compound 6: benzenemethanol, C7H8O, InChI=1S/C7H8O/c8-6-7-4-2-1-3-5-7/h1-5,8H,6H2, purity 99%

System: heptane; phases: Liquid
Property: Mass density, kg/m3 (Liquid); method: Vibrating tube method
Temperature, K	Pressure, kPa	Mass density, kg/m3	uncertainty
298.15	101.325	679.71	0.21

System: octane; phases: Liquid
Property: Mass density, kg/m3 (Liquid); method: Vibrating tube method
Temperature, K	Pressure, kPa	Mass density, kg/m3	uncertainty
298.15	101.325	698.76	0.26

System: decane; phases: Liquid
Property: Mass density, kg/m3 (Liquid); method: Vibrating tube method
Temperature, K	Pressure, kPa	Mass density, kg/m3	uncertainty
298.15	101.325	726.43	0.26

System: dodecane; phases: Liquid
Property: Mass density, kg/m3 (Liquid); method: Vibrating tube method
Temperature, K	Pressure, kPa	Mass density, kg/m3	uncertainty
298.15	101.325	741.54	0.58

System: tetradecane; phases: Liquid
Property: Mass density, kg/m3 (Liquid); method: Vibrating tube method
Temperature, K	Pressure, kPa	Mass density, kg/m3	uncertainty
298.15	101.325	759.27	0.26

System: benzenemethanol; phases: Liquid
Property: Mass density, kg/m3 (Liquid); method: Vibrating tube method
Temperature, K	Pressure, kPa	Mass density, kg/m3	uncertainty
298.15	101.325	1043.53	0.29

System: benzenemethanol + heptane; phases: Liquid mixture 1, Liquid mixture 2
Fixed: Pressure, kPa = 101
Property: Liquid-liquid equilibrium temperature, K (Liquid mixture 1); method: VISOBS
Mole fraction of benzenemethanol	Liquid-liquid equilibrium temperature, K	uncertainty
0.2897	321	0.18
0.2968	321.39	0.18
0.3159	321.99	0.18
0.3319	322.37	0.17
0.3536	322.88	0.17
0.3537	322.89	0.17
0.3832	323.24	0.17
0.3923	323.37	0.17
0.3957	323.4	0.17
0.3984	323.41	0.17
0.4059	323.52	0.17
0.4336	323.63	0.17
0.4384	323.73	0.17
0.4478	323.64	0.17
0.4638	323.76	0.17
0.4683	323.7	0.17
0.4744	323.74	0.17
0.4875	323.71	0.17
0.4953	323.72	0.17
0.5019	323.68	0.17
0.5223	323.63	0.17
0.5384	323.54	0.17
0.552	323.48	0.17
0.5657	323.36	0.17
0.5702	323.35	0.17
0.5822	323.25	0.17
0.5988	322.89	0.17
0.6036	322.89	0.17
0.6214	322.5	0.18
0.6297	322.13	0.18
0.6685	319.74	0.18

System: benzenemethanol + octane; phases: Liquid mixture 1, Liquid mixture 2
Fixed: Pressure, kPa = 101
Property: Liquid-liquid equilibrium temperature, K (Liquid mixture 1); method: VISOBS
Mole fraction of benzenemethanol	Liquid-liquid equilibrium temperature, K	uncertainty
0.2715	321.8	0.18
0.2853	322.47	0.18
0.3022	323.22	0.18
0.3136	323.74	0.18
0.3259	324.23	0.18
0.3312	324.43	0.18
0.3435	324.87	0.18
0.3526	325.19	0.18
0.3698	325.54	0.17
0.3763	325.69	0.17
0.3822	325.83	0.17
0.3996	326.19	0.17
0.4096	326.24	0.17
0.4223	326.47	0.17
0.4416	326.58	0.17
0.4636	326.71	0.17
0.4914	326.82	0.17
0.5198	326.86	0.18
0.5219	326.79	0.17
0.5266	326.86	0.17
0.5423	326.74	0.17
0.5555	326.73	0.17
0.5755	326.69	0.17
0.6016	326.52	0.17
0.6133	326.42	0.17
0.6163	326.34	0.18
0.6395	325.99	0.17
0.6499	325.82	0.18
0.6647	325.38	0.18
0.6752	324.99	0.18
0.6896	324.34	0.18
0.7044	323.68	0.18
0.7046	323.62	0.18
0.7152	323.01	0.18
0.7237	322.58	0.18

System: benzenemethanol + decane; phases: Liquid mixture 1, Liquid mixture 2
Fixed: Pressure, kPa = 101
Property: Liquid-liquid equilibrium temperature, K (Liquid mixture 1); method: VISOBS
Mole fraction of benzenemethanol	Liquid-liquid equilibrium temperature, K	uncertainty
0.2736	326.26	0.19
0.3108	329.37	0.18
0.3193	329.85	0.18
0.3436	331.36	0.18
0.3622	332.2	0.18
0.3981	333.57	0.18
0.4349	334.62	0.18
0.4534	334.89	0.17
0.4738	335.38	0.21
0.475	335.23	0.21
0.5094	335.53	0.17
0.529	335.66	0.17
0.5379	335.64	0.17
0.5578	335.74	0.17
0.5724	335.75	0.17
0.5779	335.79	0.17
0.5898	335.81	0.17
0.6033	335.73	0.17
0.6055	335.68	0.17
0.6271	335.67	0.17
0.6357	335.62	0.17
0.6668	335.57	0.17
0.6971	335.14	0.17
0.7051	334.88	0.18
0.7095	334.84	0.18
0.7229	334.45	0.18
0.7255	334.32	0.18
0.7404	333.8	0.18
0.7441	333.57	0.18
0.7495	333.23	0.18
0.7888	330.71	0.18

System: benzenemethanol + dodecane; phases: Liquid mixture 1, Liquid mixture 2
Fixed: Pressure, kPa = 101
Property: Liquid-liquid equilibrium temperature, K (Liquid mixture 1); method: VISOBS
Mole fraction of benzenemethanol	Liquid-liquid equilibrium temperature, K	uncertainty
0.3605	338.59	0.18
0.3743	339.4	0.18
0.3936	340.22	0.18
0.4044	340.8	0.18
0.4182	341.48	0.18
0.444	342.47	0.18
0.4617	343.02	0.18
0.4883	343.79	0.17
0.4911	343.77	0.17
0.5114	344.19	0.17
0.5255	344.41	0.17
0.5448	344.65	0.17
0.5639	344.83	0.17
0.5833	344.9	0.17
0.6064	344.99	0.17
0.6207	345	0.17
0.6395	345.09	0.17
0.6544	345.04	0.17
0.678	345.05	0.17
0.6904	344.99	0.17
0.7086	344.91	0.17
0.7229	344.77	0.17
0.7387	344.57	0.17
0.7442	344.48	0.17
0.7576	344.21	0.17
0.7656	343.99	0.18
0.7786	343.29	0.18
0.7865	343.12	0.18
0.798	342.51	0.18
0.8151	341.29	0.2
0.842	338.47	0.2

System: benzenemethanol + tetradecane; phases: Liquid mixture 1, Liquid mixture 2
Fixed: Pressure, kPa = 101
Property: Liquid-liquid equilibrium temperature, K (Liquid mixture 1); method: VISOBS
Mole fraction of benzenemethanol	Liquid-liquid equilibrium temperature, K	uncertainty
0.4502	349.47	0.18
0.4544	349.71	0.18
0.4702	350.39	0.18
0.4863	351.06	0.18
0.4965	351.31	0.18
0.5091	351.861	0.177
0.5158	351.99	0.19
0.517	352.09	0.19
0.5265	352.31	0.17
0.5485	352.85	0.17
0.5631	353.08	0.17
0.5695	353.19	0.17
0.5832	353.47	0.17
0.5966	353.6	0.17
0.6212	353.83	0.17
0.6344	353.9	0.17
0.656	353.93	0.17
0.6803	354	0.17
0.7	353.99	0.17
0.7173	353.94	0.17
0.7386	353.89	0.17
0.7517	353.89	0.17
0.7778	353.55	0.17
0.7993	353.09	0.18
0.8041	352.82	0.18
0.8108	352.62	0.18
0.8232	352.02	0.18
