Measured thermophysical data. Solid Liquid Equilibrium of d- and l-Tartaric Acid and Their Importance for Enantioseparation
Source: J. Chem. Eng. Data, 2012, 10.1021/je300170y
Compound 1: (2S,3S)-(-)-tartaric acid, C4H6O6, InChI=1S/C4H6O6/c5-1(3(7)8)2(6)4(9)10/h1-2,5-6H,(H,7,8)(H,9,10)/t1-,2-/m0/s1, purity 99.5%
Compound 2: water, H2O, InChI=1S/H2O/h1H2
Compound 3: (2R,3R)-2,3-dihydroxybutanedioic acid, C4H6O6, InChI=1S/C4H6O6/c5-1(3(7)8)2(6)4(9)10/h1-2,5-6H,(H,7,8)(H,9,10)/t1-,2-/m1/s1, purity 99.5%
Compound 4: (R*,R*)-2,3-dihydroxybutanedioic acid, C4H6O6, InChI=1S/C4H6O6/c5-1(3(7)8)2(6)4(9)10/h1-2,5-6H,(H,7,8)(H,9,10)/t1-,2-/m1/s1

System: (2R,3R)-2,3-dihydroxybutanedioic acid; phases: Crystal 1, Liquid, Air at 1 atmosphere
Property: Normal melting temperature, K (Crystal 1); method: Chromatography
Normal melting temperature, K	uncertainty
443.35	1

System: (R*,R*)-2,3-dihydroxybutanedioic acid; phases: Crystal 1, Liquid, Air at 1 atmosphere
Property: Normal melting temperature, K (Crystal 1); method: Chromatography
Normal melting temperature, K	uncertainty
479.15	

System: (2R,3R)-2,3-dihydroxybutanedioic acid + (2S,3S)-(-)-tartaric acid + water; phases: Liquid, Crystal, Crystal of intercomponent compound 1
Fixed: Pressure, kPa = 101
Property: Mass fraction of (2R,3R)-2,3-dihydroxybutanedioic acid (Liquid); method: Chromatography
Temperature, K	Mass fraction of (2R,3R)-2,3-dihydroxybutanedioic acid	uncertainty
293.15	0.5868	0.0105
303.15	0.6169	0.0106
313.15	0.6448	0.0107
323.15	0.6623	0.0108
333.15	0.6889	0.0111

System: (2R,3R)-2,3-dihydroxybutanedioic acid + (2S,3S)-(-)-tartaric acid + water; phases: Liquid, Crystal, Crystal of intercomponent compound 1
Fixed: Pressure, kPa = 101
Property: Mass fraction of water (Liquid); method: Chromatography
Temperature, K	Mass fraction of water	uncertainty
293.15	0.4082	0.0101
303.15	0.3755	0.0101
313.15	0.3447	0.0101
323.15	0.3239	0.0101
333.15	0.2926	0.0101

System: (2R,3R)-2,3-dihydroxybutanedioic acid + (2S,3S)-(-)-tartaric acid + water; phases: Liquid, Crystal
Fixed: Pressure, kPa = 101
Property: Mass fraction of (2R,3R)-2,3-dihydroxybutanedioic acid (Liquid); method: Chromatography
Temperature, K	Mass fraction of water	Mass fraction of (2R,3R)-2,3-dihydroxybutanedioic acid	uncertainty
20	0.4095	0.5905	0.0105
30	0.3814	0.6186	0.0146
40	0.3542	0.6458	0.0155
50	0.3243	0.6649	0.0175
50	0.3294	0.6706	0.0116
60	0.2955	0.6919	0.0158
60	0.3035	0.6965	0.0158

System: (2R,3R)-2,3-dihydroxybutanedioic acid + (2S,3S)-(-)-tartaric acid + water; phases: Liquid, Crystal of intercomponent compound 1
Fixed: Pressure, kPa = 101
Property: Mass fraction of (2R,3R)-2,3-dihydroxybutanedioic acid (Liquid); method: Chromatography
Temperature, K	Mass fraction of water	Mass fraction of (2R,3R)-2,3-dihydroxybutanedioic acid	uncertainty
20	0.5205	0.4697	0.0143
20	0.5917	0.3977	0.0142
20	0.6638	0.3273	0.0145
20	0.7188	0.265	0.015
20	0.7702	0.2021	0.0158
20	0.80085	0.16543	0.01948
20	0.84653	0.07674	0.0219
30	0.5105	0.4754	0.0141
30	0.6424	0.3442	0.0145
30	0.6841	0.2923	0.0159
30	0.7472	0.2103	0.0187
30	0.7678	0.1545	0.026
30	0.768	0.1573	0.0261
30	0.7912	0.1044	0.025
40	0.4724	0.5093	0.0146
40	0.5979	0.378	0.015
40	0.6611	0.2983	0.0177
40	0.6849	0.255	0.0208
40	0.7109	0.2076	0.0248
40	0.7212	0.1686	0.0393
40	0.726	0.137	0.0479
50	0.4713	0.4979	0.0145
50	0.5348	0.4281	0.0156
50	0.5804	0.368	0.0203
50	0.6075	0.3157	0.0223
50	0.6455	0.22	0.0284
50	0.6627	0.1686	0.0316
60	0.3607	0.6064	0.0158
60	0.4158	0.5412	0.0161
60	0.4664	0.4764	0.0174
60	0.52	0.3941	0.0204
60	0.5669	0.2981	0.0248
60	0.5858	0.2421	0.0338
60	0.5965	0.2017	0.0392

System: (2R,3R)-2,3-dihydroxybutanedioic acid + (2S,3S)-(-)-tartaric acid; phases: Liquid, Crystal of intercomponent compound 1
Property: Solid-liquid equilibrium temperature, K (Liquid); method: DTA
Mole fraction of (2R,3R)-2,3-dihydroxybutanedioic acid	Pressure, kPa	Solid-liquid equilibrium temperature, K	uncertainty
0.5	101	479.15	5
