Measured thermophysical data. Saturated Pressure Measurements of trans-1,3,3,3-Tetrafluoroprop-1-ene (R1234ze(E)) for Reduced Temperatures Ranging from 0.58 to 0.92
Source: J. Chem. Eng. Data, 2012, 10.1021/je300240k
Compound 1: trans-1,3,3,3-tetrafluoropropene, C3H2F4, InChI=1S/C3H2F4/c4-2-1-3(5,6)7/h1-2H/b2-1+, purity 99.5%

System: trans-1,3,3,3-tetrafluoropropene; phases: Liquid, Gas
Property: Vapor or sublimation pressure, kPa (Liquid); method: Ebulliometric method (Recirculating still)
Temperature, K	Vapor or sublimation pressure, kPa	uncertainty
223.1	21	2
228.08	28	2
232.99	36	2
238.04	47	2
243.02	61	2
248.04	77	2
253.02	96	2
257.14	115	2
258.04	119	2
259.15	125	2
261.15	136	2
263.1	147	2
263.15	147	2
265.15	160	2
267.15	173	2
268.01	178	2
269.15	186	2
271.15	201	2
273.06	216	2
273.15	216	2
275.15	233	2
277.15	250	2
278.01	258	2
279.15	269	2
281.15	288	2
282.93	306	2
283.15	308	2
285.15	330	2
287.15	352	2
287.89	361	2
289.15	376	2
289.15	376	2
291.15	401	2
291.15	401	2
292.85	423	2
293.15	427	2
293.15	427	2
295.15	455	2
297.15	484	2
297.69	492	2
297.87	495	2
298.77	508	2
299.15	514	2
301.15	546	2
303.15	579	2
303.15	579	2
303.68	588	2
305.15	614	2
305.15	613	2
307.15	649	2
308.82	681	2
309.15	687	2
311.15	726	2
312.85	761	2
313.15	767	2
315.15	810	2
317.15	854	3
317.75	868	3
319.15	900	3
321.15	948	3
323.1	997	3
323.15	998	3
325.15	1050	3
327.15	1104	3
328.12	1130	3
329.15	1160	3
331.15	1218	3
333.11	1276	3
333.15	1278	3
335.15	1340	3
337.15	1405	3
338.11	1436	3
339.15	1472	3
341.15	1541	3
343.1	1610	3
343.15	1613	3
348.09	1799	3
353.08	2005	3
