Measured thermophysical data. Volumetric Properties of Binary Mixtures of N-Ethylformamide with Tetrahydropyran, 2-Pentanone, and Propylacetate from (293.15 to 313.15) K
Source: J. Chem. Eng. Data, 2013, 10.1021/je300974g
Compound 1: N-ethylformamide, C3H7NO, InChI=1S/C3H7NO/c1-2-4-3-5/h3H,2H2,1H3,(H,4,5), purity 99%
Compound 2: tetrahydropyran, C5H10O, InChI=1S/C5H10O/c1-2-4-6-5-3-1/h1-5H2, purity 99.5%
Compound 3: pentan-2-one, C5H10O, InChI=1S/C5H10O/c1-3-4-5(2)6/h3-4H2,1-2H3, purity 99.5%
Compound 4: propyl ethanoate, C5H10O2, InChI=1S/C5H10O2/c1-3-4-7-5(2)6/h3-4H2,1-2H3, purity 99.5%

System: N-ethylformamide; phases: Liquid
Fixed: Pressure, kPa = 101.325
Property: Mass density, kg/m3 (Liquid); method: Vibrating tube method
Temperature, K	Mass density, kg/m3	uncertainty
293.15	951.59	0.24
298.15	947.48	0.24
303.15	943.29	0.24
308.15	939.04	0.24
313.15	934.78	0.24

System: tetrahydropyran; phases: Liquid
Fixed: Pressure, kPa = 101.325
Property: Mass density, kg/m3 (Liquid); method: Vibrating tube method
Temperature, K	Mass density, kg/m3	uncertainty
293.15	884.08	0.16
298.15	878.95	0.17
303.15	873.79	0.17
308.15	868.67	0.17
313.15	863.43	0.17

System: pentan-2-one; phases: Liquid
Fixed: Pressure, kPa = 101.325
Property: Mass density, kg/m3 (Liquid); method: Vibrating tube method
Temperature, K	Mass density, kg/m3	uncertainty
293.15	807.47	0.18
298.15	802.46	0.18
303.15	797.53	0.18
308.15	792.52	0.18
313.15	787.44	0.18

System: propyl ethanoate; phases: Liquid
Fixed: Pressure, kPa = 101.325
Property: Mass density, kg/m3 (Liquid); method: Vibrating tube method
Temperature, K	Mass density, kg/m3	uncertainty
293.15	887.97	0.18
298.15	882.21	0.18
303.15	876.54	0.18
308.15	870.81	0.18
313.15	864.95	0.18

System: propyl ethanoate + N-ethylformamide; phases: Liquid
Fixed: Pressure, kPa = 101
Property: Mass density, kg/m3 (Liquid); method: Vibrating tube method
Temperature, K	Mole fraction of N-ethylformamide	Mass density, kg/m3	uncertainty
293.15	0.12939	892.25	0.19
293.15	0.24564	899.54	0.19
293.15	0.35652	906.52	0.2
293.15	0.46942	913.89	0.21
293.15	0.55957	919.91	0.21
293.15	0.65866	926.72	0.22
293.15	0.74777	933	0.23
293.15	0.83634	939.47	0.24
293.15	0.91817	945.56	0.25
298.15	0.12939	887.29	0.19
298.15	0.24564	894.73	0.19
298.15	0.35652	901.8	0.2
298.15	0.46942	909.26	0.21
298.15	0.55957	915.35	0.21
298.15	0.65866	922.25	0.22
298.15	0.74777	928.63	0.23
298.15	0.83634	935.19	0.24
298.15	0.91817	941.36	0.25
303.15	0.12939	882.35	0.19
303.15	0.24564	889.93	0.19
303.15	0.35652	897.09	0.2
303.15	0.46942	904.67	0.21
303.15	0.55957	910.86	0.21
303.15	0.65866	917.78	0.22
303.15	0.74777	924.29	0.23
303.15	0.83634	930.93	0.24
303.15	0.91817	937.11	0.25
308.15	0.12939	877.39	0.19
308.15	0.24564	885.05	0.2
308.15	0.35652	892.4	0.2
308.15	0.46942	900.06	0.21
308.15	0.55957	906.31	0.21
308.15	0.65866	913.38	0.22
308.15	0.74777	919.92	0.23
308.15	0.83634	926.57	0.24
308.15	0.91817	932.85	0.25
313.15	0.12939	872.28	0.19
313.15	0.24564	880.14	0.2
313.15	0.35652	887.6	0.2
313.15	0.46942	895.34	0.21
313.15	0.55957	901.71	0.21
313.15	0.65866	908.84	0.22
313.15	0.74777	915.46	0.23
313.15	0.83634	922.22	0.24
313.15	0.91817	928.54	0.25
