Measured thermophysical data. Vapor Pressures and Vaporization Enthalpy of 2-Ethoxyphenol
Source: J. Chem. Eng. Data, 2012, 10.1021/je300784x
Compound 1: 2-ethoxyphenol, C8H10O2, InChI=1S/C8H10O2/c1-2-10-8-6-4-3-5-7(8)9/h3-6,9H,2H2,1H3, purity 99.98%

System: 2-ethoxyphenol; phases: Liquid, Gas
Property: Vapor or sublimation pressure, kPa (Liquid); method: Twin ebulliometer
Temperature, K	Vapor or sublimation pressure, kPa	uncertainty
380.221	2.827	0.015
383.276	3.25	0.015
386.289	3.72	0.015
391.945	4.757	0.015
397.402	5.986	0.015
402.918	7.506	0.016
408.63	9.39	0.016
414.504	11.728	0.016
418.79	13.705	0.016
423.311	16.105	0.016
428.48	19.244	0.017
436.263	24.89	0.018
445.607	33.376	0.019
457.012	46.818	0.023
486.033	100.761	0.025
