Measured thermophysical data. Vapor Liquid Equilibrium for the 2-Ethoxyethanol 2-Ethoxyethyl Acetate System
Source: J. Chem. Eng. Data, 2012, 10.1021/je300202z
Compound 1: 2-ethoxyethan-1-ol, C4H10O2, InChI=1S/C4H10O2/c1-2-6-4-3-5/h5H,2-4H2,1H3
Compound 2: 2-ethoxyethyl ethanoate, C6H12O3, InChI=1S/C6H12O3/c1-3-8-4-5-9-6(2)7/h3-5H2,1-2H3

System: 2-ethoxyethan-1-ol; phases: Liquid, Gas
Property: Vapor or sublimation pressure, kPa (Liquid); method: Ebulliometric method (Recirculating still)
Temperature, K	Vapor or sublimation pressure, kPa	uncertainty
388.6	53.33	2.36
396.1	69.33	2.46
400.4	80	2.76
402.3	85.33	2.98
404.2	90.66	3.18
407.5	100.93	3.28
407.8	101.325	3.133
407.8	100.93	5.55115

System: 2-ethoxyethyl ethanoate; phases: Liquid, Gas
Property: Vapor or sublimation pressure, kPa (Liquid); method: Ebulliometric method (Recirculating still)
Temperature, K	Vapor or sublimation pressure, kPa	uncertainty
408.2	53.33	2.13
416.7	69.33	2.23
421.5	80	2.49
423.7	85.33	2.68
425.8	90.66	3.32
428.8	101.325	3.7
428.8	100.93	5.55
429.7	100.93	2.82

System: 2-ethoxyethan-1-ol + 2-ethoxyethyl ethanoate; phases: Liquid, Gas
Property: Boiling temperature at pressure P, K (Liquid); method: Ebulliometric method (Recirculating still)
Mole fraction of 2-ethoxyethan-1-ol	Pressure, kPa	Boiling temperature at pressure P, K	uncertainty
0	53.33	408.2	1.3
0	69.33	416.7	1.2
0	80	421.5	1.2
0	85.33	423.7	1.2
0	90.66	425.8	1.1
0	100.93	428.8	1.1
0.143	53.33	402.6	1.2
0.143	69.33	409.6	1.2
0.143	80	414.6	1.2
0.143	85.33	417.2	1.2
0.143	90.66	419.2	1.2
0.143	100.93	423.4	1.2
0.266	53.33	398.2	1.2
0.266	69.33	406.6	1.2
0.266	80	411.2	1.2
0.266	85.33	413.4	1.1
0.266	90.66	415.2	1.2
0.266	100.93	420.4	1.2
0.371	53.33	396.2	1.2
0.371	69.33	404.8	1.2
0.371	80	409.4	1.2
0.371	85.33	411.6	1.1
0.371	90.66	413.4	1.1
0.371	100.93	417.2	1.2
0.484	53.33	395	1.3
0.484	69.33	403	1.2
0.484	80	407.2	1.2
0.484	85.33	409.2	1.1
0.484	90.66	411	1.1
0.484	100.93	414.6	1.1
0.577	53.33	392.8	1.2
0.577	69.33	401	1.2
0.577	80	405.6	1.2
0.577	85.33	408	1.1
0.577	90.66	409.6	1.1
0.577	100.93	412.8	1.1
0.679	53.33	391.2	1.2
0.679	69.33	399.4	1.2
0.679	80	404	1.2
0.679	85.33	406.2	1.1
0.679	90.66	408	1.1
0.679	100.93	411	1.1
0.772	53.33	389.8	1.2
0.772	69.33	398	1.2
0.772	80	402.6	1.2
0.772	85.33	404.6	1.1
0.772	90.66	406.6	1.1
0.772	100.93	409.2	1.1
0.85	53.33	389.2	1.2
0.85	69.33	396.6	1.2
0.85	80	401.6	1.2
0.85	85.33	403.8	1.2
0.85	90.66	406	1.1
0.85	100.93	408.4	1.1
1	53.33	388.6	1.2
1	69.33	396.1	1.2
1	80	400.4	1.2
1	85.33	402.3	1.1
1	90.66	404.2	1.1
1	100.93	407.8	1.1
