Measured thermophysical data. Binary Diffusion Coefficients of Aqueous Phenylalanine, Tyrosine Isomers, and Aminobutyric Acids at Infinitesimal Concentration and Temperatures from (293.2 to 333.2) K
Source: J. Chem. Eng. Data, 2013, 10.1021/je3012698
Compound 1: L-phenylalanine, C9H11NO2, InChI=1S/C9H11NO2/c10-8(9(11)12)6-7-4-2-1-3-5-7/h1-5,8H,6,10H2,(H,11,12)/t8-/m0/s1, purity 99%
Compound 2: 3-(p-hydroxyphenyl)-L-alanine, C9H11NO3, InChI=1S/C9H11NO3/c10-8(9(12)13)5-6-1-3-7(11)4-2-6/h1-4,8,11H,5,10H2,(H,12,13)/t8-/m0/s1, purity 98%
Compound 3: DL-3-hydroxyphenylalanine, C9H11NO3, InChI=1S/C9H11NO3/c10-8(9(12)13)5-6-2-1-3-7(11)4-6/h1-4,8,11H,5,10H2,(H,12,13), purity 95%
Compound 4: Phenylalanine, 2-hydroxy, C9H11NO3, InChI=1S/C9H11NO3/c10-7(9(12)13)5-6-3-1-2-4-8(6)11/h1-4,7,11H,5,10H2,(H,12,13), purity 95%
Compound 5: (.+-.)-.alpha.-aminobutyric acid, C4H9NO2, InChI=1S/C4H9NO2/c1-2-3(5)4(6)7/h3H,2,5H2,1H3,(H,6,7), purity 99%
Compound 6: 2-amino-2-methylpropanoic acid, C4H9NO2, InChI=1S/C4H9NO2/c1-4(2,5)3(6)7/h5H2,1-2H3,(H,6,7), purity 99%
Compound 7: .beta.-amino-n-butyric acid, C4H9NO2, InChI=1S/C4H9NO2/c1-3(5)2-4(6)7/h3H,2,5H2,1H3,(H,6,7), purity 97%
Compound 8: .alpha.-methyl-.beta.-alanine, C4H9NO2, InChI=1S/C4H9NO2/c1-3(2-5)4(6)7/h3H,2,5H2,1H3,(H,6,7), purity 99%
Compound 9: 4-aminobutanoic acid, C4H9NO2, InChI=1S/C4H9NO2/c5-3-1-2-4(6)7/h1-3,5H2,(H,6,7), purity 99%
Compound 10: water, H2O, InChI=1S/H2O/h1H2, purity 99%

System: L-phenylalanine + water; phases: Liquid
Fixed: Pressure, kPa = 101
Fixed: Mole fraction of L-phenylalanine = 0
Property: Binary diffusion coefficient, m2/s (Liquid); method: Taylor dispersion method
Temperature, K	Binary diffusion coefficient, m2/s	uncertainty
298.2	6.81e-10	0.04
303.2	7.81e-10	0.029
313.2	9.73e-10	0.044

System: 3-(p-hydroxyphenyl)-L-alanine + water; phases: Liquid
Fixed: Pressure, kPa = 101
Fixed: Mole fraction of 3-(p-hydroxyphenyl)-L-alanine = 0
Property: Binary diffusion coefficient, m2/s (Liquid); method: Taylor dispersion method
Temperature, K	Binary diffusion coefficient, m2/s	uncertainty
298.2	6.65e-10	0.036
303.2	7.53e-10	0.032
313.2	9.51e-10	0.023

System: DL-3-hydroxyphenylalanine + water; phases: Liquid
Fixed: Pressure, kPa = 101
Fixed: Mole fraction of DL-3-hydroxyphenylalanine = 0
Property: Binary diffusion coefficient, m2/s (Liquid); method: Taylor dispersion method
Temperature, K	Binary diffusion coefficient, m2/s	uncertainty
298.2	6.85e-10	0.029
303.2	7.5e-10	0.023
313.2	9.53e-10	0.029

System: Phenylalanine, 2-hydroxy + water; phases: Liquid
Fixed: Pressure, kPa = 101
Fixed: Mole fraction of Phenylalanine, 2-hydroxy = 0
Property: Binary diffusion coefficient, m2/s (Liquid); method: Taylor dispersion method
Temperature, K	Binary diffusion coefficient, m2/s	uncertainty
298.2	6.65e-10	0.022
303.2	7.79e-10	0.035
313.2	9.86e-10	0.053

System: (.+-.)-.alpha.-aminobutyric acid + water; phases: Liquid
Fixed: Pressure, kPa = 101
Fixed: Mole fraction of (.+-.)-.alpha.-aminobutyric acid = 0
Property: Binary diffusion coefficient, m2/s (Liquid); method: Taylor dispersion method
Temperature, K	Binary diffusion coefficient, m2/s	uncertainty
293.2	7.34e-10	0.02
298.2	8.39e-10	0.021
303.2	9.45e-10	0.028
313.2	1.22e-09	0.03
323.2	1.5e-09	0.07
333.2	1.81e-09	0.05

System: 2-amino-2-methylpropanoic acid + water; phases: Liquid
Fixed: Pressure, kPa = 101
Fixed: Mole fraction of 2-amino-2-methylpropanoic acid = 0
Property: Binary diffusion coefficient, m2/s (Liquid); method: Taylor dispersion method
Temperature, K	Binary diffusion coefficient, m2/s	uncertainty
293.2	7.24e-10	0.024
298.2	8.33e-10	0.025
303.2	9.5e-10	0.035
313.2	1.2e-09	0.03
323.2	1.48e-09	0.03
333.2	1.81e-09	0.04

System: .beta.-amino-n-butyric acid + water; phases: Liquid
Fixed: Pressure, kPa = 101
Fixed: Mole fraction of .beta.-amino-n-butyric acid = 0
Property: Binary diffusion coefficient, m2/s (Liquid); method: Taylor dispersion method
Temperature, K	Binary diffusion coefficient, m2/s	uncertainty
293.2	7.36e-10	0.021
298.2	8.32e-10	0.025
303.2	9.5e-10	0.031
313.2	1.21e-09	0.03
323.2	1.49e-09	0.07
333.2	1.81e-09	0.07

System: .alpha.-methyl-.beta.-alanine + water; phases: Liquid
Fixed: Pressure, kPa = 101
Fixed: Mole fraction of .alpha.-methyl-.beta.-alanine = 0
Property: Binary diffusion coefficient, m2/s (Liquid); method: Taylor dispersion method
Temperature, K	Binary diffusion coefficient, m2/s	uncertainty
293.2	7.5e-10	0.02
298.2	8.61e-10	0.027
303.2	9.79e-10	0.034
313.2	1.25e-09	0.05
323.2	1.53e-09	0.04
333.2	1.85e-09	0.05

System: 4-aminobutanoic acid + water; phases: Liquid
Fixed: Pressure, kPa = 101
Fixed: Mole fraction of 4-aminobutanoic acid = 0
Property: Binary diffusion coefficient, m2/s (Liquid); method: Taylor dispersion method
Temperature, K	Binary diffusion coefficient, m2/s	uncertainty
293.2	7.44e-10	0.03
298.2	8.42e-10	0.034
303.2	9.48e-10	0.024
313.2	1.21e-09	0.03
323.2	1.49e-09	0.05
333.2	1.8e-09	0.04
