Measured thermophysical data. Effect of 1-Ethyl-3-methylimidazolium Bromide Ionic Liquid on the  Volumetric Behavior of Some Aqueous  L-Amino Acids Solutions
Source: J. Chem. Eng. Data, 2013, 10.1021/je300953u
Compound 1: 1-ethyl-3-methylimidazolium bromide, C6H11BrN2, InChI=1S/C6H11N2.BrH/c1-3-8-5-4-7(2)6-8;/h4-6H,3H2,1-2H3;1H/q+1;/p-1, purity 99%
Compound 2: 2-aminoacetic acid, C2H5NO2, InChI=1S/C2H5NO2/c3-1-2(4)5/h1,3H2,(H,4,5), purity 99%
Compound 3: (S)-2-aminopropanoic acid, C3H7NO2, InChI=1S/C3H7NO2/c1-2(4)3(5)6/h2H,4H2,1H3,(H,5,6)/t2-/m0/s1, purity 99%
Compound 4: L-arginine, C6H14N4O2, InChI=1S/C6H14N4O2/c7-4(5(11)12)2-1-3-10-6(8)9/h4H,1-3,7H2,(H,11,12)(H4,8,9,10)/t4-/m0/s1, purity 99%
Compound 5: L-phenylalanine, C9H11NO2, InChI=1S/C9H11NO2/c10-8(9(11)12)6-7-4-2-1-3-5-7/h1-5,8H,6,10H2,(H,11,12)/t8-/m0/s1, purity 99%
Compound 6: water, H2O, InChI=1S/H2O/h1H2, purity 99%

System: 2-aminoacetic acid + water + 1-ethyl-3-methylimidazolium bromide; phases: Liquid
Fixed: Pressure, kPa = 101
Property: Mass density, kg/m3 (Liquid); method: Vibrating tube method
Temperature, K	Solvent: Molality, mol/kg of 1-ethyl-3-methylimidazolium bromide	Molality, mol/kg of 2-aminoacetic acid	Mass density, kg/m3	uncertainty
298.15	0.025	0	998.38	0.29
298.15	0.025	0.0209	999.05	0.29
298.15	0.025	0.0418	999.71	0.29
298.15	0.025	0.0608	1000.31	0.29
298.15	0.025	0.1093	1001.83	0.29
298.15	0.025	0.151	1003.14	0.29
298.15	0.025	0.2028	1004.73	0.29
298.15	0.055	0	999.96	0.29
298.15	0.055	0.0184	1000.55	0.29
298.15	0.055	0.0389	1001.19	0.29
298.15	0.055	0.0617	1001.91	0.29
298.15	0.055	0.0947	1002.94	0.29
298.15	0.055	0.1336	1004.16	0.29
298.15	0.055	0.2026	1006.29	0.29
308.15	0.025	0	995.33	0.29
308.15	0.025	0.0209	995.99	0.29
308.15	0.025	0.0418	996.65	0.29
308.15	0.025	0.0608	997.24	0.29
308.15	0.025	0.1093	998.76	0.29
308.15	0.025	0.151	1000.06	0.29
308.15	0.025	0.2028	1001.59	0.29
308.15	0.055	0	996.89	0.29
308.15	0.055	0.0184	997.47	0.29
308.15	0.055	0.0389	998.11	0.29
308.15	0.055	0.0617	998.81	0.29
308.15	0.055	0.0947	999.85	0.29
308.15	0.055	0.1336	1001.05	0.29
308.15	0.055	0.2026	1003.14	0.29

System: (S)-2-aminopropanoic acid + water + 1-ethyl-3-methylimidazolium bromide; phases: Liquid
Fixed: Pressure, kPa = 101
Property: Mass density, kg/m3 (Liquid); method: Vibrating tube method
Temperature, K	Solvent: Molality, mol/kg of 1-ethyl-3-methylimidazolium bromide	Molality, mol/kg of (S)-2-aminopropanoic acid	Mass density, kg/m3	uncertainty
298.15	0.025	0	998.38	0.29
298.15	0.025	0.0205	998.97	0.29
298.15	0.025	0.0411	999.56	0.29
298.15	0.025	0.0626	1000.18	0.29
298.15	0.025	0.1023	1001.3	0.29
298.15	0.025	0.1496	1002.63	0.29
298.15	0.025	0.2046	1004.15	0.29
298.15	0.055	0	999.96	0.29
298.15	0.055	0.0199	1000.53	0.29
298.15	0.055	0.0376	1001.04	0.29
298.15	0.055	0.0586	1001.63	0.29
298.15	0.055	0.1021	1002.85	0.29
298.15	0.055	0.1507	1004.21	0.29
298.15	0.055	0.2011	1005.58	0.29
308.15	0.025	0	995.33	0.29
308.15	0.025	0.0205	995.92	0.29
308.15	0.025	0.0411	996.51	0.29
308.15	0.025	0.0626	997.09	0.29
308.15	0.025	0.1023	998.22	0.29
308.15	0.025	0.1496	999.55	0.29
308.15	0.025	0.2046	1001.03	0.29
308.15	0.055	0	996.89	0.29
308.15	0.055	0.0199	997.45	0.29
308.15	0.055	0.0376	997.96	0.29
308.15	0.055	0.0586	998.56	0.29
308.15	0.055	0.1021	999.77	0.29
308.15	0.055	0.1507	1001.08	0.29
308.15	0.055	0.2011	1002.46	0.29

System: L-arginine + water + 1-ethyl-3-methylimidazolium bromide; phases: Liquid
Fixed: Pressure, kPa = 101
Property: Mass density, kg/m3 (Liquid); method: Vibrating tube method
Temperature, K	Solvent: Molality, mol/kg of 1-ethyl-3-methylimidazolium bromide	Molality, mol/kg of L-arginine	Mass density, kg/m3	uncertainty
298.15	0.025	0	998.38	0.29
298.15	0.025	0.0195	999.32	0.29
298.15	0.025	0.0469	1000.61	0.29
298.15	0.025	0.0627	1001.36	0.29
298.15	0.025	0.104	1003.21	0.29
298.15	0.025	0.1576	1005.66	0.3
298.15	0.025	0.2108	1007.97	0.3
298.15	0.055	0	999.96	0.29
298.15	0.055	0.0205	1000.94	0.29
298.15	0.055	0.0403	1001.87	0.29
298.15	0.055	0.0589	1002.73	0.29
298.15	0.055	0.1043	1004.82	0.3
298.15	0.055	0.1549	1007.08	0.3
298.15	0.055	0.1825	1008.24	0.3
308.15	0.025	0	995.33	0.29
308.15	0.025	0.0195	996.27	0.29
308.15	0.025	0.0469	997.56	0.29
308.15	0.025	0.0627	998.3	0.29
308.15	0.025	0.104	1000.16	0.29
308.15	0.025	0.1576	1002.51	0.29
308.15	0.025	0.2108	1004.84	0.3
308.15	0.055	0	996.89	0.29
308.15	0.055	0.0205	997.87	0.29
308.15	0.055	0.0403	998.8	0.29
308.15	0.055	0.0589	999.67	0.29
308.15	0.055	0.1043	1001.73	0.29
308.15	0.055	0.1549	1003.92	0.29
308.15	0.055	0.1825	1005.12	0.3

System: L-phenylalanine + water + 1-ethyl-3-methylimidazolium bromide; phases: Liquid
Fixed: Pressure, kPa = 101
Property: Mass density, kg/m3 (Liquid); method: Vibrating tube method
Temperature, K	Solvent: Molality, mol/kg of 1-ethyl-3-methylimidazolium bromide	Molality, mol/kg of L-phenylalanine	Mass density, kg/m3	uncertainty
298.15	0.025	0	998.38	0.29
298.15	0.025	0.0223	999.36	0.29
298.15	0.025	0.039	1000.08	0.29
298.15	0.025	0.062	1001.06	0.29
298.15	0.025	0.0902	1002.26	0.29
298.15	0.025	0.0996	1002.65	0.29
298.15	0.025	0.118	1003.37	0.29
298.15	0.055	0	999.96	0.29
298.15	0.055	0.0195	1000.81	0.29
298.15	0.055	0.0306	1001.29	0.29
298.15	0.055	0.0422	1001.78	0.29
298.15	0.055	0.0646	1002.72	0.29
298.15	0.055	0.0911	1003.82	0.29
298.15	0.055	0.1004	1004.19	0.29
308.15	0.025	0	995.33	0.29
308.15	0.025	0.0223	996.3	0.29
308.15	0.025	0.039	997.02	0.29
308.15	0.025	0.062	997.98	0.29
308.15	0.025	0.0902	999.14	0.29
308.15	0.025	0.0996	999.53	0.29
308.15	0.025	0.118	1000.28	0.29
308.15	0.055	0	996.89	0.29
308.15	0.055	0.0195	997.73	0.29
308.15	0.055	0.0306	998.2	0.29
308.15	0.055	0.0422	998.68	0.29
308.15	0.055	0.0646	999.61	0.29
308.15	0.055	0.0911	1000.7	0.29
308.15	0.055	0.1004	1001.06	0.29

System: water + 1-ethyl-3-methylimidazolium bromide; phases: Liquid
Fixed: Pressure, kPa = 101
Property: Mass density, kg/m3 (Liquid); method: Vibrating tube method
Temperature, K	Molality, mol/kg of 1-ethyl-3-methylimidazolium bromide	Mass density, kg/m3	uncertainty
298.15	0.025	998.38	0.29
298.15	0.055	999.96	0.29
308.15	0.025	995.33	0.29
308.15	0.055	996.89	0.29
