Measured thermophysical data. Temperature Dependence of the Relative Static Permittivity of Homologous Series of Liquid 1,n-Dicyanoalkanes N=C (CH2)n C=N, n = 2 to 6
Source: J. Chem. Eng. Data, 2013, 10.1021/je300958c
Compound 1: butanedinitrile, C4H4N2, InChI=1S/C4H4N2/c5-3-1-2-4-6/h1-2H2, purity 99.6%
Compound 2: pentanedinitrile, C5H6N2, InChI=1S/C5H6N2/c6-4-2-1-3-5-7/h1-3H2, purity 99.3%
Compound 3: hexanedinitrile, C6H8N2, InChI=1S/C6H8N2/c7-5-3-1-2-4-6-8/h1-4H2, purity 99.9%
Compound 4: heptanedinitrile, C7H10N2, InChI=1S/C7H10N2/c8-6-4-2-1-3-5-7-9/h1-5H2, purity 98.3%
Compound 5: octanedinitrile, C8H12N2, InChI=1S/C8H12N2/c9-7-5-3-1-2-4-6-8-10/h1-6H2, purity 99.2%

System: butanedinitrile; phases: Liquid
Fixed: Pressure, kPa = 101.325
Property: Relative permittivity at zero frequency (Liquid); method: impedance/gain phase analyzer
Temperature, K	Relative permittivity at zero frequency	uncertainty
333.15	56.09	0.1
335.65	55.46	0.1
338.15	54.85	0.1
340.65	54.29	0.1
343.15	53.68	0.1
345.65	53.11	0.1
348.15	52.52	0.1
350.65	51.95	0.1
353.15	51.36	0.1
355.65	50.81	0.1
358.15	50.28	0.1
360.65	49.73	0.1
363.15	49.18	0.1
365.65	48.66	0.1
368.15	48.14	0.1
370.65	47.63	0.1
373.15	47.11	0.1

System: pentanedinitrile; phases: Liquid
Fixed: Pressure, kPa = 101.325
Property: Relative permittivity at zero frequency (Liquid); method: impedance/gain phase analyzer
Temperature, K	Relative permittivity at zero frequency	uncertainty
248.15	40.78	0.1
250.65	40.45	0.1
253.15	40.08	0.1
255.65	39.78	0.1
258.15	39.42	0.1
260.65	39.08	0.1
263.15	38.74	0.1
265.65	38.4	0.1
268.15	38.1	0.1
270.65	37.78	0.1
273.15	37.44	0.1
275.65	37.16	0.1
278.15	36.83	0.1
280.65	36.56	0.1
283.15	36.27	0.1
285.65	35.97	0.1
288.15	35.71	0.1
290.65	35.41	0.1
293.15	35.14	0.1
295.65	34.87	0.1
298.15	34.6	0.1
300.65	34.33	0.1
303.15	34.04	0.1
305.65	33.83	0.1
308.15	33.59	0.1
310.65	33.35	0.1
313.15	33.13	0.1
315.65	32.87	0.1
318.15	32.67	0.1
320.65	32.44	0.1
323.15	32.21	0.1

System: hexanedinitrile; phases: Liquid
Fixed: Pressure, kPa = 101.325
Property: Relative permittivity at zero frequency (Liquid); method: impedance/gain phase analyzer
Temperature, K	Relative permittivity at zero frequency	uncertainty
278.15	34.7	0.1
280.65	34.35	0.1
283.15	34.01	0.1
285.65	33.67	0.1
288.15	33.36	0.1
290.65	33.04	0.1
293.15	32.73	0.1
295.65	32.41	0.1
298.15	32.12	0.1
300.65	31.83	0.1
303.15	31.53	0.1
305.65	31.26	0.1
308.15	30.96	0.1
310.65	30.67	0.1
313.15	30.38	0.1
315.65	30.09	0.1
318.15	29.8	0.1
320.65	29.5	0.1
323.15	29.22	0.1
325.65	28.94	0.1
328.15	28.69	0.1
330.65	28.46	0.1
333.15	28.21	0.1
335.65	27.98	0.1
338.15	27.73	0.1
340.65	27.52	0.1
343.15	27.3	0.1
345.65	27.09	0.1
348.15	26.83	0.1
350.65	26.6	0.1
353.15	26.4	0.1

System: heptanedinitrile; phases: Liquid
Fixed: Pressure, kPa = 101.325
Property: Relative permittivity at zero frequency (Liquid); method: impedance/gain phase analyzer
Temperature, K	Relative permittivity at zero frequency	uncertainty
248.15	36.21	0.1
250.65	35.82	0.1
253.15	35.44	0.1
255.65	35.06	0.1
258.15	34.7	0.1
260.65	34.35	0.1
263.15	33.99	0.1
265.65	33.65	0.1
268.15	33.31	0.1
270.65	32.98	0.1
273.15	32.66	0.1
275.65	32.36	0.1
278.15	32.04	0.1
280.65	31.73	0.1
283.15	31.43	0.1
285.65	31.14	0.1
288.15	30.86	0.1
290.65	30.57	0.1
293.15	30.28	0.1
295.65	30	0.1
298.15	29.71	0.1
300.65	29.45	0.1
303.15	29.18	0.1
305.65	28.92	0.1
308.15	28.67	0.1
310.65	28.42	0.1
313.15	28.17	0.1
315.65	27.94	0.1
318.15	27.68	0.1
320.65	27.46	0.1
323.15	27.23	0.1
325.65	27	0.1
328.15	26.77	0.1
330.65	26.56	0.1
333.15	26.32	0.1

System: octanedinitrile; phases: Liquid
Fixed: Pressure, kPa = 101.325
Property: Relative permittivity at zero frequency (Liquid); method: impedance/gain phase analyzer
Temperature, K	Relative permittivity at zero frequency	uncertainty
273.15	28.23	0.1
275.65	28	0.1
278.15	27.77	0.1
280.65	27.52	0.1
283.15	27.29	0.1
285.65	27.06	0.1
288.15	26.82	0.1
290.65	26.6	0.1
293.15	26.36	0.1
295.65	26.16	0.1
298.15	25.94	0.1
300.65	25.75	0.1
303.15	25.55	0.1
305.65	25.32	0.1
308.15	25.11	0.1
310.65	24.94	0.1
313.15	24.74	0.1
315.65	24.55	0.1
318.15	24.37	0.1
320.65	24.2	0.1
323.15	24	0.1
325.65	23.8	0.1
328.15	23.63	0.1
330.65	23.47	0.1
333.15	23.3	0.1
