Measured thermophysical data. Thermophysical Properties of Imidazolium-Based Lipidic Ionic Liquids
Source: J. Chem. Eng. Data, 2013, 10.1021/je301004f
Compound 1: 1-oleyl-3-methylimidazolium bis(trifluoromethanesulfonyl)imide, C24H41F6N3O4S2, InChI=1S/C22H41N2.C2F6NO4S2/c1-3-4-5-6-7-8-9-10-11-12-13-14-15-16-17-18-19-24-21-20-23(2)22-24;3-1(4,5)14(10,11)9-15(12,13)2(6,7)8/h10-11,20-22H,3-9,12-19H2,1-2H3;/q+1;-1/b11-10-;
Compound 2: 1-methyl-3-(9E)-9-octadecen-1-yl-1H-Imidazolium 1,1,1-trifluoro-N-[(trifluoromethyl)sulfonyl]methanesulfonamide, C24H41F6N3O4S2, InChI=1S/C22H41N2.C2F6NO4S2/c1-3-4-5-6-7-8-9-10-11-12-13-14-15-16-17-18-19-24-21-20-23(2)22-24;3-1(4,5)14(10,11)9-15(12,13)2(6,7)8/h10-11,20-22H,3-9,12-19H2,1-2H3;/q+1;-1/b11-10+;
Compound 3: 1-methyl-3-(9Z,12Z)-9,12-octadecadien-1-yl-1H-imidazolium 1,1,1-trifluoro-N-[(trifluoromethyl)sulfonyl]methanesulfonamide, C24H39F6N3O4S2, InChI=1S/C22H39N2.C2F6NO4S2/c1-3-4-5-6-7-8-9-10-11-12-13-14-15-16-17-18-19-24-21-20-23(2)22-24;3-1(4,5)14(10,11)9-15(12,13)2(6,7)8/h7-8,10-11,20-22H,3-6,9,12-19H2,1-2H3;/q+1;-1/b8-7-,11-10-;

System: 1-oleyl-3-methylimidazolium bis(trifluoromethanesulfonyl)imide; phases: Crystal, Liquid, Air at 1 atmosphere
Property: Normal melting temperature, K (Crystal); method: DTA
Normal melting temperature, K	uncertainty
252.3	0.5

System: 1-oleyl-3-methylimidazolium bis(trifluoromethanesulfonyl)imide; phases: Liquid
Fixed: Pressure, kPa = 101.325
Property: Mass density, kg/m3 (Liquid); method: Vibrating tube method
Temperature, K	Mass density, kg/m3	uncertainty
273.15	1210.9	2.7
283.15	1202.62	2.67
293.15	1194.49	2.65
303.15	1186.39	2.63
313.15	1178.38	2.61
323.15	1170.38	2.59
333.15	1162.47	2.56
343.15	1154.57	2.54

System: 1-oleyl-3-methylimidazolium bis(trifluoromethanesulfonyl)imide; phases: Liquid
Fixed: Pressure, kPa = 101.325
Property: Refractive index (Na D-line) (Liquid); method: Standard Abbe refractometry
Temperature, K	Refractive index (Na D-line)	uncertainty
283.2	1.4576	0.0011
293.2	1.4545	0.0011
298.2	1.4528	0.0011
303.2	1.4511	0.0011
313.2	1.4479	0.0011
323.2	1.4446	0.0011
333.2	1.441	0.0011
343.2	1.4379	0.0011

System: 1-oleyl-3-methylimidazolium bis(trifluoromethanesulfonyl)imide; phases: Liquid
Fixed: Pressure, kPa = 101.325
Property: Viscosity, Pa*s (Liquid); method: Falling or rolling sphere viscometry
Temperature, K	Viscosity, Pa*s	uncertainty
278.15	1.0053	0.102
283.15	0.6986	0.0624
288.15	0.4929	0.0383
293.15	0.3557	0.0238
298.15	0.2635	0.015
303.15	0.22285	0.01142
313.15	0.13394	0.00504
323.15	0.08597	0.0024
333.15	0.05809	0.00133
343.15	0.04109	0.00096

System: 1-methyl-3-(9E)-9-octadecen-1-yl-1H-Imidazolium 1,1,1-trifluoro-N-[(trifluoromethyl)sulfonyl]methanesulfonamide; phases: Crystal, Liquid, Air at 1 atmosphere
Property: Normal melting temperature, K (Crystal); method: DTA
Normal melting temperature, K	uncertainty
289.2	0.5

System: 1-methyl-3-(9E)-9-octadecen-1-yl-1H-Imidazolium 1,1,1-trifluoro-N-[(trifluoromethyl)sulfonyl]methanesulfonamide; phases: Liquid
Fixed: Pressure, kPa = 101.325
Property: Mass density, kg/m3 (Liquid); method: Vibrating tube method
Temperature, K	Mass density, kg/m3	uncertainty
293.15	1180.16	2.61
303.15	1172.04	2.59
313.15	1163.93	2.57
323.15	1155.86	2.55
333.15	1147.85	2.53
343.15	1139.93	2.5

System: 1-methyl-3-(9E)-9-octadecen-1-yl-1H-Imidazolium 1,1,1-trifluoro-N-[(trifluoromethyl)sulfonyl]methanesulfonamide; phases: Liquid
Fixed: Pressure, kPa = 101.325
Property: Refractive index (Na D-line) (Liquid); method: Standard Abbe refractometry
Temperature, K	Refractive index (Na D-line)	uncertainty
293.2	1.451	0.0011
298.2	1.4493	0.0011
303.2	1.4476	0.0011
313.2	1.4443	0.0011
323.2	1.441	0.0011
333.2	1.4374	0.0011
343.2	1.4343	0.0011

System: 1-methyl-3-(9E)-9-octadecen-1-yl-1H-Imidazolium 1,1,1-trifluoro-N-[(trifluoromethyl)sulfonyl]methanesulfonamide; phases: Liquid
Fixed: Pressure, kPa = 101.325
Property: Viscosity, Pa*s (Liquid); method: Falling or rolling sphere viscometry
Temperature, K	Viscosity, Pa*s	uncertainty
293.15	0.37	0.0252
298.15	0.2742	0.0159
303.15	0.22351	0.01148
313.15	0.13377	0.00503
323.15	0.08531	0.00237
333.15	0.05741	0.00131
343.15	0.04036	0.00095

System: 1-methyl-3-(9Z,12Z)-9,12-octadecadien-1-yl-1H-imidazolium 1,1,1-trifluoro-N-[(trifluoromethyl)sulfonyl]methanesulfonamide; phases: Crystal, Liquid, Air at 1 atmosphere
Property: Normal melting temperature, K (Crystal); method: DTA
Normal melting temperature, K	uncertainty
226.4	0.5

System: 1-methyl-3-(9Z,12Z)-9,12-octadecadien-1-yl-1H-imidazolium 1,1,1-trifluoro-N-[(trifluoromethyl)sulfonyl]methanesulfonamide; phases: Liquid
Fixed: Pressure, kPa = 101.325
Property: Mass density, kg/m3 (Liquid); method: Vibrating tube method
Temperature, K	Mass density, kg/m3	uncertainty
273.15	1216.89	2.71
283.15	1208.66	2.69
293.15	1200.57	2.67
303.15	1192.51	2.65
313.15	1184.47	2.62
323.15	1176.47	2.6
333.15	1168.71	2.58
343.15	1160.85	2.56

System: 1-methyl-3-(9Z,12Z)-9,12-octadecadien-1-yl-1H-imidazolium 1,1,1-trifluoro-N-[(trifluoromethyl)sulfonyl]methanesulfonamide; phases: Liquid
Fixed: Pressure, kPa = 101.325
Property: Refractive index (Na D-line) (Liquid); method: Standard Abbe refractometry
Temperature, K	Refractive index (Na D-line)	uncertainty
283.2	1.471	0.0011
293.2	1.4676	0.0011
298.2	1.4661	0.0011
303.2	1.4645	0.0011
313.2	1.4612	0.0011
323.2	1.458	0.0011
333.2	1.4547	0.0011
343.2	1.4517	0.0011

System: 1-methyl-3-(9Z,12Z)-9,12-octadecadien-1-yl-1H-imidazolium 1,1,1-trifluoro-N-[(trifluoromethyl)sulfonyl]methanesulfonamide; phases: Liquid
Fixed: Pressure, kPa = 101.325
Property: Viscosity, Pa*s (Liquid); method: Falling or rolling sphere viscometry
Temperature, K	Viscosity, Pa*s	uncertainty
280.15	0.7561	0.0695
283.15	0.6317	0.0543
288.15	0.452	0.0338
293.15	0.3317	0.0214
298.15	0.2482	0.01361
303.15	0.18096	0.00822
313.15	0.11214	0.00375
323.15	0.07368	0.00187
333.15	0.05091	0.00114
343.15	0.03671	0.00086
