Measured thermophysical data. Effects of Different Organic Acids on Solubility and Metastable Zone Width of Zinc Lactate
Source: J. Chem. Eng. Data, 2012, 10.1021/je3006453
Compound 1: zinc lactate, C6H10O6Zn, InChI=1S/2C3H6O3.Zn/c2*1-2(4)3(5)6;/h2*2,4H,1H3,(H,5,6);/q;;+2/p-2
Compound 2: water, H2O, InChI=1S/H2O/h1H2
Compound 3: hydroxybutanedioic acid, C4H6O5, InChI=1S/C4H6O5/c5-2(4(8)9)1-3(6)7/h2,5H,1H2,(H,6,7)(H,8,9)
Compound 4: butanedioic acid, C4H6O4, InChI=1S/C4H6O4/c5-3(6)1-2-4(7)8/h1-2H2,(H,5,6)(H,7,8)
Compound 5: citric acid, C6H8O7, InChI=1S/C6H8O7/c7-3(8)1-6(13,5(11)12)2-4(9)10/h13H,1-2H2,(H,7,8)(H,9,10)(H,11,12)

System: hydroxybutanedioic acid + water + zinc lactate; phases: Liquid, Crystal
Fixed: Pressure, kPa = 101
Property: Molality, mol/kg of zinc lactate (Liquid); method: titration
Temperature, K	Molality, mol/kg of hydroxybutanedioic acid	Molality, mol/kg of zinc lactate	uncertainty
304.75	0.0229	0.091	0.004
305.15	0.0153	0.083	0.004
308.15	0.0229	0.094	0.004
308.15	0.0307	0.1	0.004
310.15	0.0153	0.088	0.004
313.95	0.0229	0.1	0.004
314.75	0.0153	0.095	0.004
315.15	0.0307	0.109	0.004
323.75	0.0153	0.116	0.004
323.95	0.0307	0.132	0.004
324.15	0.0229	0.127	0.004
334.35	0.0307	0.174	0.004
336.35	0.0153	0.163	0.004
336.75	0.0229	0.174	0.004
337.35	0.0307	0.185	0.004

System: butanedioic acid + water + zinc lactate; phases: Liquid, Crystal
Fixed: Pressure, kPa = 101
Property: Molality, mol/kg of zinc lactate (Liquid); method: titration
Temperature, K	Molality, mol/kg of butanedioic acid	Molality, mol/kg of zinc lactate	uncertainty
305.55	0.0112	0.078	0.004
306.15	0.0174	0.082	0.004
306.15	0.0348	0.088	0.004
314.65	0.0348	0.108	0.004
314.95	0.0112	0.096	0.004
315.65	0.0174	0.101	0.004
325.15	0.0112	0.12	0.004
325.15	0.0348	0.135	0.004
325.35	0.0174	0.124	0.004
332.35	0.0112	0.14	0.004
332.55	0.0174	0.149	0.004
332.55	0.0348	0.159	0.004
337.65	0.0112	0.17	0.005
338.55	0.0348	0.191	0.005
339.85	0.0174	0.183	0.004

System: citric acid + water + zinc lactate; phases: Liquid, Crystal
Fixed: Pressure, kPa = 101
Property: Molality, mol/kg of zinc lactate (Liquid); method: titration
Temperature, K	Molality, mol/kg of citric acid	Molality, mol/kg of zinc lactate	uncertainty
305.15	0.0214	0.091	0.004
305.35	0.0119	0.082	0.004
305.55	0.0277	0.097	0.004
313.65	0.0214	0.103	0.004
313.75	0.0119	0.095	0.004
314.95	0.0277	0.113	0.004
322.15	0.0119	0.115	0.004
322.25	0.0277	0.133	0.004
323.15	0.0214	0.125	0.004
331.15	0.0214	0.154	0.004
331.65	0.0119	0.145	0.004
331.75	0.0277	0.165	0.004
337.95	0.0119	0.172	0.004
338.15	0.0214	0.184	0.005
340.15	0.0277	0.203	0.005
