Measured thermophysical data. Solubility of Water in Octan-1-ol from (275 to 369) K
Source: J. Chem. Eng. Data, 2012, 10.1021/je3001427
Compound 1: octan-1-ol, C8H18O, InChI=1S/C8H18O/c1-2-3-4-5-6-7-8-9/h9H,2-8H2,1H3, purity 99%
Compound 2: water, H2O, InChI=1S/H2O/h1H2, purity 99.9%

System: octan-1-ol + water; phases: Liquid mixture 1, Liquid
Fixed: Pressure, kPa = 101
Property: Mass density, kg/m3 (Liquid mixture 1); method: Vibrating tube method
Temperature, K	Mass density, kg/m3	uncertainty
288.15	836.1	1
293.15	832.6	1
298.15	829.7	1
301.65	827.5	1.2
305.65	826.2	1.4
308.15	824.3	1.8
310.15	820.6	1.6
313.15	820.4	2
318.15	814.9	2.6

System: octan-1-ol + water; phases: Liquid mixture 1, Liquid
Fixed: Pressure, kPa = 101
Property: Mass fraction of water (Liquid mixture 1); method: Titration method
Temperature, K	Mass fraction of water	uncertainty
275.56	0.04832	0.00075
277.31	0.04835	0.00085
283.54	0.04836	0.00075
287.77	0.0484	0.00075
293.16	0.04867	0.00076
293.47	0.04856	0.00075
295.67	0.04871	0.00075
298.13	0.04879	0.00085
298.28	0.04888	0.00076
299.99	0.04936	0.00078
303.06	0.04912	0.00076
304.23	0.04931	0.00095
306.05	0.04955	0.00099
308.81	0.05018	0.00078
315.89	0.05151	0.00101
320.49	0.05196	0.00081
324.81	0.05277	0.00096
329.81	0.05395	0.00099
335.45	0.05499	0.00155
355.65	0.05987	0.00168
369.65	0.0636	0.00176
