Measured thermophysical data. Subcooled Liquid Density Measurements and PvT Measurements in the Vapor Phase for trans-1,3,3,3-Tetrafluoroprop-1-ene (R1234ze(E))
Source: J. Chem. Eng. Data, 2012, 10.1021/je300945r
Compound 1: trans-1,3,3,3-tetrafluoropropene, C3H2F4, InChI=1S/C3H2F4/c4-2-1-3(5,6)7/h1-2H/b2-1+, purity 99.5%

System: trans-1,3,3,3-tetrafluoropropene; phases: Liquid
Property: Mass density, kg/m3 (Liquid); method: Vibrating tube method
Temperature, K	Pressure, kPa	Mass density, kg/m3	uncertainty
283.14	1620	1214.3	1.6
283.14	2638	1218.5	1.6
283.14	3662	1222.4	1.6
283.14	5710	1229.8	1.6
283.14	6721	1233.2	1.6
283.14	7725	1236.6	1.6
283.14	11789	1249.5	1.6
283.14	12805	1252.4	1.6
283.14	15859	1261.2	1.7
283.14	16870	1263.9	1.7
283.14	18876	1269.4	1.7
283.14	20909	1274.5	1.7
283.15	619	1210.5	1.6
283.15	4689	1226.1	1.6
283.15	8745	1240	1.6
283.15	9760	1243.2	1.6
283.15	10765	1246.5	1.6
283.15	13827	1255.7	1.7
283.15	14841	1258.4	1.7
283.15	17875	1266.7	1.7
283.15	19891	1272	1.7
283.15	21921	1277.1	1.7
283.15	22932	1279.6	1.7
283.15	23948	1281.9	1.7
283.15	24959	1284.4	1.7
283.15	25966	1286.7	1.7
283.15	26982	1289.1	1.7
283.15	27984	1291.3	1.7
283.15	28987	1293.4	1.7
283.15	30001	1295.7	1.7
283.15	31009	1297.8	1.7
283.15	32017	1300.1	1.7
283.15	33020	1302.1	1.7
283.15	34022	1304.2	1.7
293.14	778	1179.9	1.6
293.14	1644	1184.2	1.6
293.14	2650	1188.7	1.6
293.14	4727	1197.6	1.6
293.14	5738	1201.8	1.6
293.14	6755	1205.9	1.6
293.14	7761	1209.7	1.6
293.14	8772	1213.4	1.6
293.14	10798	1220.7	1.6
293.14	12817	1227.5	1.6
293.14	13830	1230.8	1.6
293.14	15838	1236.9	1.6
293.14	16853	1240.1	1.7
293.14	17857	1243	1.7
293.14	20900	1251.6	1.7
293.14	21921	1254.3	1.7
293.14	22938	1257.2	1.7
293.14	23953	1259.7	1.7
293.14	24957	1262.3	1.7
293.14	31009	1277.1	1.7
293.14	32027	1279.3	1.7
293.15	3682	1193.3	1.6
293.15	9788	1217.1	1.6
293.15	11799	1223.9	1.6
293.15	14835	1233.8	1.6
293.15	18879	1246.2	1.7
293.15	19891	1248.9	1.7
293.15	25973	1264.9	1.7
293.15	26985	1267.4	1.7
293.15	27991	1270	1.7
293.15	28993	1272.4	1.7
293.15	30001	1274.8	1.7
293.15	33027	1281.7	1.7
293.15	34035	1284	1.7
303.13	802	1145.9	1.6
303.13	1676	1151.1	1.6
303.13	4747	1167.3	1.6
303.13	7769	1181.3	1.6
303.13	8772	1185.8	1.6
303.14	2678	1156.8	1.6
303.14	3716	1162.3	1.6
303.14	5757	1172.2	1.6
303.14	6764	1176.9	1.6
303.14	9773	1190	1.6
303.14	10775	1194.1	1.6
303.14	11778	1197.9	1.6
303.14	12794	1201.7	1.6
303.14	13809	1205.3	1.6
303.14	14819	1209.1	1.6
303.14	15824	1212.5	1.6
303.14	16838	1216	1.6
303.14	17845	1219.4	1.6
303.14	18856	1222.6	1.7
303.14	19875	1225.8	1.7
303.14	20888	1228.8	1.7
303.14	21899	1232	1.7
303.14	22909	1234.9	1.7
303.14	23916	1238	1.7
303.14	24920	1240.8	1.7
303.14	25928	1243.5	1.7
303.14	26942	1246.4	1.7
303.14	27943	1249.1	1.7
303.14	28955	1251.6	1.7
303.14	29958	1254.5	1.7
303.14	30966	1256.7	1.7
303.15	31972	1259.5	1.7
303.15	32984	1262	1.7
303.15	33993	1264.4	1.7
313.14	775	1109.9	1.7
313.14	1656	1116.2	1.6
313.14	2657	1122.9	1.6
313.14	3683	1129.4	1.6
313.14	5739	1141.4	1.6
313.14	6749	1146.8	1.6
313.14	7763	1152.1	1.6
313.14	8784	1157.1	1.6
313.14	9798	1161.9	1.6
313.14	10800	1166.5	1.6
313.14	11816	1170.9	1.6
313.14	12819	1175.2	1.6
313.14	13831	1179.3	1.6
313.14	14845	1183.4	1.6
313.14	15848	1187.2	1.6
313.14	16855	1191.1	1.6
313.14	18874	1198.3	1.6
313.14	19890	1201.9	1.6
313.14	20909	1205.3	1.6
313.14	21923	1208.7	1.7
313.14	22937	1212	1.7
313.14	23947	1215.2	1.7
313.14	25962	1221.3	1.7
313.14	26971	1224.3	1.7
313.14	28984	1230.1	1.7
313.15	4723	1135.7	1.6
313.15	17865	1194.7	1.6
313.15	24948	1218.2	1.7
313.15	27973	1227.2	1.7
313.15	30002	1232.9	1.7
313.15	31006	1235.7	1.7
313.15	32010	1238.4	1.7
313.15	33010	1241	1.7
313.15	34013	1243.6	1.7
323.14	1009	1071.8	1.7
323.14	1595	1077.1	1.7
323.14	2609	1085.6	1.7
323.14	3638	1093.6	1.6
323.14	4686	1101.1	1.6
323.14	5705	1108	1.6
323.14	6730	1114.5	1.6
323.14	7748	1120.7	1.6
323.14	8751	1126.4	1.6
323.14	9772	1131.9	1.6
323.14	12808	1147.2	1.6
323.14	13808	1151.8	1.6
323.14	14826	1156.4	1.6
323.14	15836	1160.8	1.6
323.14	16839	1165	1.6
323.14	17853	1169.1	1.6
323.14	18870	1173.1	1.6
323.14	19877	1177	1.6
323.14	20888	1180.8	1.6
323.14	25937	1198.3	1.7
323.14	26941	1201.5	1.7
323.14	29967	1210.9	1.7
323.15	10784	1137.3	1.6
323.15	11798	1142.3	1.6
323.15	21901	1184.5	1.6
323.15	22914	1188	1.6
323.15	23918	1191.5	1.6
323.15	24922	1194.9	1.7
323.15	27947	1204.7	1.7
323.15	28950	1207.8	1.7
323.15	30984	1213.9	1.7
323.15	31990	1216.9	1.7
323.15	33002	1219.7	1.7
323.15	34015	1222.6	1.7
333.15	10813	1108.1	1.6
333.15	15858	1134.8	1.6
333.15	17873	1144.2	1.6
333.15	18876	1148.5	1.6
333.15	19891	1152.9	1.6
333.15	20898	1157	1.6
333.15	21900	1161	1.6
333.15	22913	1165	1.6
333.15	23923	1168.8	1.6
333.15	24932	1172.5	1.6
333.15	25940	1176.1	1.6
333.15	26944	1179.7	1.6
333.15	27958	1183	1.7
333.15	28967	1186.4	1.7
333.15	29982	1189.8	1.7
333.15	30988	1193	1.7
333.15	31995	1196.1	1.7
333.15	33006	1199.3	1.7
333.15	34013	1202.3	1.7
333.16	1380	1031.7	1.7
333.16	1683	1035.2	1.7
333.16	2698	1046.3	1.7
333.16	3721	1056.4	1.7
333.16	4755	1065.6	1.6
333.16	5766	1073.9	1.6
333.16	6767	1081.5	1.6
333.16	7784	1088.8	1.6
333.16	8801	1095.7	1.6
333.16	9801	1102	1.6
333.16	11831	1114	1.6
333.16	12847	1119.5	1.6
333.16	13849	1124.8	1.6
333.16	14855	1129.9	1.6
333.16	16870	1139.6	1.6
343.15	1625	984.2	1.7
343.15	2607	999.1	1.7
343.15	3648	1012.8	1.7
343.15	4690	1024.7	1.7
343.15	5696	1035.1	1.7
343.15	6697	1044.5	1.6
343.15	7717	1053.2	1.6
343.15	8731	1061.4	1.6
343.15	9736	1068.9	1.6
343.15	10753	1076.1	1.6
343.15	11770	1082.8	1.6
343.15	12788	1089.2	1.6
343.15	15829	1106.7	1.6
343.15	17849	1117.1	1.6
343.15	18851	1122	1.6
343.15	19867	1126.8	1.6
343.15	20877	1131.4	1.6
343.15	21883	1135.8	1.6
343.15	22905	1140.2	1.6
343.15	23913	1144.3	1.6
343.15	24913	1148.4	1.6
343.15	25929	1152.4	1.6
343.15	26933	1156.2	1.6
343.15	27938	1160	1.6
343.15	28947	1163.6	1.6
343.15	29953	1167.2	1.6
343.15	30968	1170.7	1.7
343.15	31987	1174.2	1.7
343.15	32989	1177.5	1.7
343.15	33994	1180.8	1.7
343.16	13798	1095.3	1.6
343.16	14817	1101.1	1.6
343.16	16838	1112	1.6
353.14	30961	1149	1.6
353.15	2236	936.2	1.7
353.15	9793	1035.4	1.6
353.15	12814	1058.8	1.6
353.15	15825	1078.4	1.6
353.15	16834	1084.4	1.6
353.15	18850	1095.7	1.6
353.15	19865	1101	1.6
353.15	21883	1111	1.6
353.15	22889	1115.7	1.6
353.15	24907	1124.7	1.6
353.15	25928	1129.2	1.6
353.15	26934	1133.3	1.6
353.15	27950	1137.5	1.6
353.15	28953	1141.4	1.6
353.15	29957	1145.2	1.6
353.15	31977	1152.7	1.6
353.15	32983	1156.3	1.6
353.15	33998	1159.9	1.6
353.16	2681	945.9	1.7
353.16	3704	964.9	1.7
353.16	4723	980.5	1.7
353.16	5740	994	1.7
353.16	6749	1005.9	1.7
353.16	7775	1016.7	1.6
353.16	8789	1026.5	1.6
353.16	10794	1043.6	1.6
353.16	11799	1051.4	1.6
353.16	13815	1065.7	1.6
353.16	14816	1072.2	1.6
353.16	17837	1090.2	1.6
353.16	20878	1106.1	1.6
353.16	23896	1120.3	1.6

System: trans-1,3,3,3-tetrafluoropropene; phases: Gas
Property: Mass density, kg/m3 (Gas); method: ISOCHOR
Temperature, K	Pressure, kPa	Mass density, kg/m3	uncertainty
242.91	56.6	3.322	0.11
242.91	56.7	3.322	0.11
252.89	59.4	3.322	0.114
252.9	59.4	3.322	0.114
262.9	62	3.311	0.114
262.91	61.9	3.311	0.113
262.94	139.4	7.692	0.114
262.95	139.4	7.692	0.114
272.84	64.4	3.311	0.107
272.85	64.4	3.311	0.107
272.87	145.5	7.634	0.108
272.87	145.5	7.634	0.108
282.6	151.4	7.634	0.107
282.6	151.4	7.634	0.107
282.63	66.9	3.311	0.103
282.63	66.9	3.311	0.103
282.66	238.8	12.5	0.112
282.66	238.8	12.5	0.112
292.54	157.2	7.634	0.103
292.54	157.2	7.634	0.103
292.56	248.7	12.5	0.112
292.56	248.8	12.5	0.112
292.76	366.1	19.231	0.117
292.83	415.4	22.222	0.122
292.83	415.4	22.222	0.122
293.15	69.4	3.311	0.099
293.16	69.4	3.311	0.099
302.54	258.5	12.5	0.107
302.54	258.6	12.5	0.107
302.67	71.8	3.311	0.096
302.67	162.7	7.634	0.099
302.67	71.8	3.311	0.096
302.67	162.7	7.634	0.099
302.69	162.7	7.634	0.099
302.78	381.8	19.231	0.112
302.78	433.9	22.222	0.116
302.78	433.9	22.222	0.116
312.59	574.7	28.571	0.118
312.6	574.7	28.571	0.118
312.61	397.1	19.231	0.102
312.61	397.2	19.231	0.102
312.61	397.1	19.231	0.102
312.72	168.6	7.634	0.095
312.72	168.6	7.634	0.095
312.76	451.9	21.739	0.105
312.76	452	21.739	0.105
312.8	74.3	3.311	0.092
312.8	74.3	3.311	0.092
312.84	268.5	12.5	0.102
312.84	268.5	12.5	0.102
313.13	630.3	32.258	0.137
313.13	630.4	32.258	0.137
323.1	76.8	3.311	0.089
323.1	278.4	12.346	0.098
323.1	470.5	21.739	0.101
323.1	76.8	3.311	0.089
323.1	278.4	12.346	0.098
323.1	470.5	21.739	0.101
323.11	174.6	7.634	0.09
323.11	413.3	19.231	0.099
323.11	413.4	19.231	0.099
323.11	658.4	32.258	0.118
323.11	174.6	7.634	0.09
323.11	658.4	32.258	0.118
323.12	836.8	43.478	0.147
323.12	836.8	43.478	0.147
324.12	770.9	38.462	0.127
324.12	771	38.462	0.127
325.11	605.5	28.571	0.112
325.11	605.5	28.571	0.112
333.07	79.2	3.311	0.086
333.07	288	12.346	0.095
333.07	488.2	21.739	0.097
333.07	79.2	3.311	0.086
333.07	288	12.346	0.095
333.07	488.2	21.739	0.097
333.08	180.4	7.634	0.087
333.08	180.4	7.634	0.087
333.09	428.5	19.231	0.095
333.09	624.8	28.571	0.106
333.09	685.9	32.258	0.113
333.09	801.3	38.462	0.119
333.09	801.4	38.462	0.119
333.09	875.5	43.478	0.137
333.09	428.5	19.231	0.095
333.09	624.8	28.571	0.106
333.09	685.9	32.258	0.113
333.1	875.5	43.478	0.137
343.03	81.6	3.3	0.084
343.03	297.5	12.346	0.091
343.03	297.5	12.346	0.091
343.04	81.7	3.3	0.084
343.04	186.1	7.634	0.085
343.04	505.6	21.739	0.093
343.04	648.5	28.571	0.102
343.04	186.1	7.634	0.085
343.04	505.6	21.739	0.093
343.04	648.5	28.571	0.102
343.05	443.5	19.231	0.092
343.05	443.5	19.231	0.092
343.06	713	32.258	0.107
343.06	713.1	32.258	0.107
343.06	913.4	43.478	0.129
343.06	913.5	43.478	0.129
343.15	834.9	38.462	0.113
343.15	835	38.462	0.113
352.95	306.8	12.346	0.088
352.96	306.9	12.346	0.088
352.99	522.8	21.739	0.089
352.99	522.8	21.739	0.089
353	191.9	7.634	0.082
353	672	28.571	0.097
353	672.1	28.571	0.097
353	867.3	38.462	0.107
353	867.3	38.462	0.107
353.01	84.1	3.3	0.081
353.01	191.9	7.634	0.082
353.01	458.4	19.231	0.089
353.01	739.8	32.258	0.102
353.01	458.4	19.231	0.089
353.02	84.1	3.3	0.081
353.02	739.8	32.258	0.102
353.03	950.8	43.478	0.122
353.03	950.8	43.478	0.122
362.94	86.6	3.3	0.079
362.94	316.2	12.346	0.082
362.94	316.3	12.346	0.082
362.94	86.6	3.3	0.079
362.95	473.2	18.868	0.085
362.96	197.6	7.634	0.08
362.96	473.2	18.868	0.085
362.96	540	21.739	0.088
362.96	695.3	28.571	0.093
362.96	197.6	7.634	0.08
362.96	540	21.739	0.088
362.96	695.3	28.571	0.093
362.97	899.7	38.462	0.102
362.97	987.6	43.478	0.116
362.97	899.7	38.462	0.102
362.98	766.3	32.258	0.097
362.98	987.6	43.478	0.116
362.98	766.3	32.258	0.097
372.89	557	21.739	0.085
372.9	89.1	3.3	0.077
372.9	325.6	12.346	0.08
372.9	557	21.739	0.085
372.9	89.1	3.3	0.077
372.9	325.6	12.346	0.08
372.91	203.3	7.634	0.077
372.91	203.3	7.634	0.077
372.92	792.3	32.258	0.094
372.92	792.3	32.258	0.094
372.93	488	18.868	0.082
372.93	488	18.868	0.082
372.95	1023.8	43.478	0.111
372.95	1023.9	43.478	0.11
372.96	931.7	38.462	0.098
372.96	931.7	38.462	0.098
372.97	718.5	28.571	0.09
372.97	718.6	28.571	0.09
