Measured thermophysical data. Isochoric p-rho-T Measurements for trans-1,3,3,3-Tetrafluoropropene [R-1234ze(E)] and Trifluoroiodomethane (R13I1) at Temperatures from (205 to 353) K under Pressures up to 40 MPa
Source: J. Chem. Eng. Data, 2012, 10.1021/je3008974
Compound 1: trans-1,3,3,3-tetrafluoropropene, C3H2F4, InChI=1S/C3H2F4/c4-2-1-3(5,6)7/h1-2H/b2-1+, purity 99.5%
Compound 2: trifluoroiodomethane, CF3I, InChI=1S/CF3I/c2-1(3,4)5, purity 99%

System: trans-1,3,3,3-tetrafluoropropene; phases: Liquid
Property: Mass density, kg/m3 (Liquid); method: Pycnometric method
Temperature, K	Pressure, kPa	Mass density, kg/m3	uncertainty
298.15	2000	1170.52	1.08

System: trans-1,3,3,3-tetrafluoropropene; phases: Liquid
Property: Mass density, kg/m3 (Liquid); method: ISOCHOR
Temperature, K	Pressure, kPa	Mass density, kg/m3	uncertainty
285.495	1018.5	1205.5	2.4
286.919	2021.5	1205.4	2.4
288.321	3010.5	1205.3	2.4
289.406	3779.9	1205.2	2.4
291.423	20124	1254.7	2.4
291.449	5221.8	1205	2.4
298.032	1062.5	1165.6	2.4
298.136	9928.4	1204.5	2.4
299.621	2045.7	1165.5	2.4
301.21	3025.5	1165.3	2.4
302.811	4026.8	1165.2	2.4
304.383	4991.3	1165.1	2.4
305.083	14792	1203.9	2.4
312.4	1349.3	1117.7	2.4
312.582	19938	1203.3	2.4
312.583	10069	1164.5	2.4
313.7	2032.5	1117.6	2.4
315.611	3038.9	1117.5	2.4
317.507	4033.2	1117.4	2.4
319.604	5142.9	1117.2	2.4
319.801	24935	1202.7	2.4
320.409	14882	1163.9	2.4
327	29927	1202.2	2.4
328.712	2042.5	1060.1	2.4
328.714	9986.8	1116.5	2.4
328.716	19949	1163.2	2.4
330.83	2963.3	1060	2.4
333.129	3964.2	1059.8	2.4
334.34	34952	1201.6	2.4
335.429	4968.4	1059.7	2.4
336.831	24924	1162.6	2.4
337.81	14797	1115.9	2.4
341.914	40043	1201	2.4
345.093	29935	1162	2.4
346.837	9943.4	1058.9	2.4
347.531	19908	1115.2	2.4
353.15	22854	1114.8	2.4
353.153	12717	1058.5	2.4
353.154	34806	1161.4	2.4

System: trifluoroiodomethane; phases: Liquid
Property: Mass density, kg/m3 (Liquid); method: Pycnometric method
Temperature, K	Pressure, kPa	Mass density, kg/m3	uncertainty
298.15	2000	2046.84	2.23

System: trifluoroiodomethane; phases: Liquid
Property: Mass density, kg/m3 (Liquid); method: ISOCHOR
Temperature, K	Pressure, kPa	Mass density, kg/m3	uncertainty
207.789	10925	2455.5	2.9
210.4	14322	2455	2.9
214.873	20130	2454.2	2.9
214.916	1055.7	2401.1	2.9
215.963	2305	2400.9	2.9
216.71	3175.5	2400.7	2.9
217.732	4381.5	2400.5	2.9
218.368	5116.4	2400.4	2.9
218.48	25008	2453.5	2.9
222.404	29924	2452.8	2.9
222.617	10052	2399.6	2.9
226.21	34684	2452.1	2.9
226.989	15121	2398.8	2.9
229.954	39202	2451.5	2.9
231.249	20002	2398.1	2.9
231.744	1109.5	2334.8	2.8
233.569	2990.1	2334.5	2.8
234.659	4114	2334.3	2.8
235.464	4930.4	2334.1	2.8
235.504	24985	2397.3	2.9
239.91	29944	2396.6	2.9
240.522	10116	2333.3	2.8
244.172	34707	2395.8	2.9
245.453	15114	2332.4	2.8
248.776	39783	2395.1	2.9
250.456	20143	2331.6	2.8
251.973	1975.5	2256.4	2.8
253.207	3063.1	2256.2	2.8
254.155	3884.4	2256	2.8
255.274	4873.4	2255.8	2.8
255.32	25028	2330.8	2.8
260.193	29834	2330	2.8
261.502	10373	2254.8	2.8
265.126	34684	2329.2	2.8
266.414	776	2188.5	2.7
266.749	1052.9	2188.4	2.7
267.062	15109	2253.2	2.8
267.966	1992.8	2188.2	2.7
269.237	2976.2	2188	2.7
270.534	3984.6	2187.8	2.7
270.931	40330	2328.3	2.8
272.124	5216.5	2187.6	2.7
272.852	20116	2252.3	2.8
278.477	25009	2252.2	2.8
278.488	10098	2186.6	2.7
278.499	24979	2251.5	2.8
284.171	29780	2250.6	2.8
284.362	940.5	2105.8	2.7
285.083	15134	2185.7	2.7
285.917	1976.8	2105.6	2.7
287.337	2905.5	2105.4	2.7
288.884	3930.3	2105.2	2.7
290.405	34997	2249.7	2.8
290.43	4950.8	2104.9	2.7
291.686	20129	2184.7	2.7
296.147	39750	2248.8	2.8
297.945	861.4	2038.1	2.7
298.142	10026	2103.9	2.7
298.148	25035	2183.8	2.7
300.011	2068.2	2037.9	2.7
301.745	3070.1	2037.6	2.7
303.435	4061.6	2037.4	2.7
304.543	29729	2182.8	2.7
305.168	5069.5	2037.2	2.7
305.558	14805	2102.8	2.7
311.691	35046	2181.8	2.7
313.219	982.5	1957.5	2.6
313.532	19969	2101.8	2.7
313.581	9932.8	2036.1	2.7
315.121	1958.3	1957.3	2.6
317.179	2990.2	1957	2.6
318.542	40060	2180.9	2.7
319.169	3976.2	1956.8	2.6
321.22	5005.2	1956.5	2.6
321.682	25300	2100.7	2.7
322.382	14998	2034.9	2.7
328.988	1994.4	1875.8	2.6
329.492	30240	2099.6	2.7
331.297	10058	1955.3	2.6
331.301	2985.8	1875.6	2.6
331.308	20061	2033.8	2.7
333.641	3972.3	1875.3	2.6
336.004	4985.7	1875	2.6
337.32	35169	2098.6	2.7
340.454	25264	2032.6	2.7
341.639	15161	1954	2.6
343.843	39291	2097.7	2.7
353.136	20828	1952.6	2.6
353.149	32431	2031	2.7
353.15	12322	1873	2.6
