Measured thermophysical data. Liquid Liquid Equilibria for the System Water + 4-Methylpentan-2-one + Acetic Acid at Several Temperatures
Source: J. Chem. Eng. Data, 2012, 10.1021/je3006166
Compound 1: acetic acid, C2H4O2, InChI=1S/C2H4O2/c1-2(3)4/h1H3,(H,3,4), purity 99.9%
Compound 2: 4-methylpentan-2-one, C6H12O, InChI=1S/C6H12O/c1-5(2)4-6(3)7/h5H,4H2,1-3H3, purity 99.5%
Compound 3: water, H2O, InChI=1S/H2O/h1H2, purity 99.9%

System: acetic acid + 4-methylpentan-2-one + water; phases: Liquid mixture 2, Liquid mixture 1
Fixed: Pressure, kPa = 101.3
Property: Mass fraction of acetic acid (Liquid mixture 2); method: Titration method
Property: Mass fraction of water (Liquid mixture 1); method: Titration method
Property: Mass fraction of acetic acid (Liquid mixture 1); method: Titration method
Temperature, K	Mass fraction of water	Mass fraction of acetic acid	uncertainty	Mass fraction of water	uncertainty	Mass fraction of acetic acid	uncertainty
288.2	0.954	0.027	0.011	0.029	0.008	0.027	
288.2	0.908	0.072	0.011	0.037	0.009	0.067	
288.2	0.872	0.099	0.011	0.054	0.01	0.09	
288.2	0.796	0.161	0.011	0.085	0.009	0.144	
288.2	0.741	0.203	0.011	0.09	0.009	0.179	
288.2	0.689	0.238	0.012	0.114	0.01	0.208	
288.2	0.646	0.271	0.012	0.121	0.011	0.229	
288.2	0.618	0.287	0.012	0.141	0.02	0.238	
313.2	0.956	0.026	0.011	0.024	0.008	0.028	
313.2	0.885	0.089	0.011	0.04	0.009	0.086	
313.2	0.843	0.125	0.011	0.054	0.009	0.119	
313.2	0.807	0.153	0.011	0.069	0.009	0.142	
313.2	0.756	0.193	0.011	0.086	0.009	0.177	
313.2	0.703	0.23	0.011	0.103	0.011	0.206	
313.2	0.634	0.27	0.012	0.131	0.012	0.233	
313.2	0.614	0.287	0.013	0.157	0.014	0.24	
333.2	0.959	0.026	0.011	0.032	0.008	0.031	
333.2	0.891	0.092	0.011	0.051	0.009	0.093	
333.2	0.85	0.119	0.01	0.068	0.009	0.117	
333.2	0.805	0.151	0.011	0.078	0.009	0.145	
333.2	0.75	0.193	0.011	0.089	0.009	0.181	
333.2	0.692	0.236	0.012	0.107	0.011	0.214	
333.2	0.654	0.258	0.012	0.13	0.014	0.23	
333.2	0.61	0.288	0.013	0.15	0.015	0.244	
