Measured thermophysical data. Validation of the Vaporization Enthalpies of Some Simple Aliphatic Amides and Their Use in the Evaluation of the Vaporization Enthalpy of Valpromide and Valnoctamide
Source: J. Chem. Eng. Data, 2013, 10.1021/je3012452
Compound 1: 2-propylpentanamide, C8H17NO, InChI=1S/C8H17NO/c1-3-5-7(6-4-2)8(9)10/h7H,3-6H2,1-2H3,(H2,9,10), purity 97%
Compound 2: (2S,3S)-2-ethyl-3-methylpentanamide, C8H17NO, InChI=1S/C8H17NO/c1-4-6(3)7(5-2)8(9)10/h6-7H,4-5H2,1-3H3,(H2,9,10)/t6-,7-/m0/s1, purity 98%
Compound 3: (2R,3S)-2-ethyl-3-methylpentanamide, C8H17NO, InChI=1S/C8H17NO/c1-4-6(3)7(5-2)8(9)10/h6-7H,4-5H2,1-3H3,(H2,9,10)/t6-,7+/m0/s1, purity 98%
Compound 4: (2S,3R)-2-ethyl-3-methylpentanamide, C8H17NO, InChI=1S/C8H17NO/c1-4-6(3)7(5-2)8(9)10/h6-7H,4-5H2,1-3H3,(H2,9,10)/t6-,7+/m1/s1, purity 98%
Compound 5: (2R,3R)-2-ethyl-3-methylpentanamide, C8H17NO, InChI=1S/C8H17NO/c1-4-6(3)7(5-2)8(9)10/h6-7H,4-5H2,1-3H3,(H2,9,10)/t6-,7-/m1/s1, purity 98%
Compound 6: propanamide, C3H7NO, InChI=1S/C3H7NO/c1-2-3(4)5/h2H2,1H3,(H2,4,5), purity 98%
Compound 7: butanamide, C4H9NO, InChI=1S/C4H9NO/c1-2-3-4(5)6/h2-3H2,1H3,(H2,5,6), purity 99%
Compound 8: pentanamide, C5H11NO, InChI=1S/C5H11NO/c1-2-3-4-5(6)7/h2-4H2,1H3,(H2,6,7), purity 97%
Compound 9: benzamide, C7H7NO, InChI=1S/C7H7NO/c8-7(9)6-4-2-1-3-5-6/h1-5H,(H2,8,9), purity 99%
Compound 10: 2-methylpropanamide, C4H9NO, InChI=1S/C4H9NO/c1-3(2)4(5)6/h3H,1-2H3,(H2,5,6), purity 98%
Compound 11: hexanamide, C6H13NO, InChI=1S/C6H13NO/c1-2-3-4-5-6(7)8/h2-5H2,1H3,(H2,7,8), purity 98%
Compound 12: heptanamide, C7H15NO, InChI=1S/C7H15NO/c1-2-3-4-5-6-7(8)9/h2-6H2,1H3,(H2,8,9)

System: 2-propylpentanamide; phases: Crystal 1, Liquid, Air at 1 atmosphere
Property: Normal melting temperature, K (Crystal 1); method: DTA
Normal melting temperature, K	uncertainty
398.2	0.5

System: 2-propylpentanamide; phases: Crystal 2, Crystal 1, Air at 1 atmosphere
Property: Triple point temperature, K (Crystal 2); method: DTA
Triple point temperature, K	uncertainty
360.6	0.9

System: 2-propylpentanamide; phases: Crystal 2, Crystal 1, Air at 1 atmosphere
Property: Molar enthalpy of transition or fusion, kJ/mol (Crystal 2); method: DSC
Molar enthalpy of transition or fusion, kJ/mol	uncertainty
1.75	0.44

System: 2-propylpentanamide; phases: Crystal 1, Liquid, Air at 1 atmosphere
Property: Molar enthalpy of transition or fusion, kJ/mol (Crystal 1); method: DSC
Molar enthalpy of transition or fusion, kJ/mol	uncertainty
22.5	1.3

System: 2-propylpentanamide; phases: Liquid, Gas
Property: Molar enthalpy of transition or fusion, kJ/mol (Liquid); method: Correlation gas chromatography
Temperature, K	Molar enthalpy of transition or fusion, kJ/mol	uncertainty
298.15	83.6	5.3

System: (2S,3S)-2-ethyl-3-methylpentanamide; phases: Liquid, Gas
Property: Molar enthalpy of transition or fusion, kJ/mol (Liquid); method: Correlation gas chromatography
Temperature, K	Molar enthalpy of transition or fusion, kJ/mol	uncertainty
298.15	82.4	5.3

System: (2R,3S)-2-ethyl-3-methylpentanamide; phases: Liquid, Gas
Property: Molar enthalpy of transition or fusion, kJ/mol (Liquid); method: Correlation gas chromatography
Temperature, K	Molar enthalpy of transition or fusion, kJ/mol	uncertainty
298.15	82.8	5.3

System: (2S,3R)-2-ethyl-3-methylpentanamide; phases: Liquid, Gas
Property: Molar enthalpy of transition or fusion, kJ/mol (Liquid); method: Correlation gas chromatography
Temperature, K	Molar enthalpy of transition or fusion, kJ/mol	uncertainty
298.15	82.8	5.3

System: (2R,3R)-2-ethyl-3-methylpentanamide; phases: Liquid, Gas
Property: Molar enthalpy of transition or fusion, kJ/mol (Liquid); method: Correlation gas chromatography
Temperature, K	Molar enthalpy of transition or fusion, kJ/mol	uncertainty
298.15	82.4	5.3

System: propanamide; phases: Liquid, Gas
Property: Molar enthalpy of transition or fusion, kJ/mol (Liquid); method: Correlation gas chromatography
Temperature, K	Molar enthalpy of transition or fusion, kJ/mol	uncertainty
298.15	68.7	5

System: butanamide; phases: Liquid, Gas
Property: Molar enthalpy of transition or fusion, kJ/mol (Liquid); method: Correlation gas chromatography
Temperature, K	Molar enthalpy of transition or fusion, kJ/mol	uncertainty
298.15	72.3	5.2

System: pentanamide; phases: Liquid, Gas
Property: Molar enthalpy of transition or fusion, kJ/mol (Liquid); method: Correlation gas chromatography
Temperature, K	Molar enthalpy of transition or fusion, kJ/mol	uncertainty
298.15	75.9	6.8

System: benzamide; phases: Liquid, Gas
Property: Molar enthalpy of transition or fusion, kJ/mol (Liquid); method: Correlation gas chromatography
Temperature, K	Molar enthalpy of transition or fusion, kJ/mol	uncertainty
298.15	84.4	7.4

System: 2-methylpropanamide; phases: Crystal, Liquid, Air at 1 atmosphere
Property: Normal melting temperature, K (Crystal); method: DTA
Normal melting temperature, K	uncertainty
401.6	0.9

System: 2-methylpropanamide; phases: Crystal, Liquid, Air at 1 atmosphere
Property: Molar enthalpy of transition or fusion, kJ/mol (Crystal); method: DSC
Molar enthalpy of transition or fusion, kJ/mol	uncertainty
19.9	0.5

System: 2-methylpropanamide; phases: Liquid, Gas
Property: Molar enthalpy of transition or fusion, kJ/mol (Liquid); method: Correlation gas chromatography
Temperature, K	Molar enthalpy of transition or fusion, kJ/mol	uncertainty
298.15	70.8	6.2

System: hexanamide; phases: Crystal 1, Liquid, Air at 1 atmosphere
Property: Normal melting temperature, K (Crystal 1); method: DTA
Normal melting temperature, K	uncertainty
372.4	2.8

System: hexanamide; phases: Crystal 2, Crystal 1, Air at 1 atmosphere
Property: Triple point temperature, K (Crystal 2); method: DTA
Triple point temperature, K	uncertainty
306.1	0.5

System: hexanamide; phases: Crystal 2, Crystal 1, Air at 1 atmosphere
Property: Molar enthalpy of transition or fusion, kJ/mol (Crystal 2); method: DSC
Molar enthalpy of transition or fusion, kJ/mol	uncertainty
5.1	0.3

System: hexanamide; phases: Crystal 1, Liquid, Air at 1 atmosphere
Property: Molar enthalpy of transition or fusion, kJ/mol (Crystal 1); method: DSC
Molar enthalpy of transition or fusion, kJ/mol	uncertainty
16.8	0.7

System: hexanamide; phases: Liquid, Gas
Property: Molar enthalpy of transition or fusion, kJ/mol (Liquid); method: Correlation gas chromatography
Temperature, K	Molar enthalpy of transition or fusion, kJ/mol	uncertainty
298.15	79.6	7

System: heptanamide; phases: Crystal 1, Liquid, Air at 1 atmosphere
Property: Normal melting temperature, K (Crystal 1); method: DTA
Normal melting temperature, K	uncertainty
368.6	1.1

System: heptanamide; phases: Crystal 2, Crystal 1, Air at 1 atmosphere
Property: Triple point temperature, K (Crystal 2); method: DTA
Triple point temperature, K	uncertainty
356.1	0.5

System: heptanamide; phases: Crystal 3, Crystal 2, Air at 1 atmosphere
Property: Triple point temperature, K (Crystal 3); method: DTA
Triple point temperature, K	uncertainty
319	1.6

System: heptanamide; phases: Crystal 3, Crystal 2, Air at 1 atmosphere
Property: Molar enthalpy of transition or fusion, kJ/mol (Crystal 3); method: DSC
Molar enthalpy of transition or fusion, kJ/mol	uncertainty
7.5	0.6

System: heptanamide; phases: Crystal 2, Crystal 1, Air at 1 atmosphere
Property: Molar enthalpy of transition or fusion, kJ/mol (Crystal 2); method: DSC
Molar enthalpy of transition or fusion, kJ/mol	uncertainty
3.4	0.2

System: heptanamide; phases: Crystal 1, Liquid, Air at 1 atmosphere
Property: Molar enthalpy of transition or fusion, kJ/mol (Crystal 1); method: DSC
Molar enthalpy of transition or fusion, kJ/mol	uncertainty
16.2	0.5

System: heptanamide; phases: Liquid, Gas
Property: Molar enthalpy of transition or fusion, kJ/mol (Liquid); method: Correlation gas chromatography
Temperature, K	Molar enthalpy of transition or fusion, kJ/mol	uncertainty
298.15	82.4	11.5
