Measured thermophysical data. Pressure-density-temperature measurements of binary  mixtures rich in CO2 for CCS applications
Source: J. Chem. Eng. Data, 2012, 10.1021/je300590v
Compound 1: carbon dioxide, CO2, InChI=1S/CO2/c2-1-3, purity 99.998%
Compound 2: nitrogen, N2, InChI=1S/N2/c1-2, purity 99.999%
Compound 3: oxygen, O2, InChI=1S/O2/c1-2, purity 99.999%
Compound 4: argon, Ar, InChI=1S/Ar, purity 99.999%

System: carbon dioxide; phases: Gas
Property: Mass density, kg/m3 (Gas); method: Vibrating tube method
Temperature, K	Pressure, kPa	Mass density, kg/m3	uncertainty
273.15	1001	21.2	0.2
273.15	2001	45.7	0.2
273.15	3001	77.3	0.2
273.15	3300	89.9	0.2
283.15	1000	20.4	0.2
283.15	2001	43.1	0.2
283.15	3001	70.9	0.2
283.15	4000	108.4	0.3
283.15	4400	130.1	0.3
293.15	1011	19.8	0.2
293.15	2001	41	0.2
293.15	3001	66.2	0.2
293.15	4000	97.3	0.2
293.15	5000	140.4	0.3
293.15	5600	182.2	0.5

System: carbon dioxide; phases: Liquid
Property: Mass density, kg/m3 (Liquid); method: Vibrating tube method
Temperature, K	Pressure, kPa	Mass density, kg/m3	uncertainty
273.15	3500	928.1	0.9
273.15	4001	932.4	0.9
273.15	5001	940.7	0.9
273.15	6000	948.2	0.9
273.15	7000	955.3	0.9
273.15	8003	961.9	0.8
273.15	9001	968.1	0.8
273.15	10002	974.1	0.8
273.15	11003	979.7	0.8
273.15	12000	985.1	0.8
273.15	13004	990.1	0.8
273.15	14002	995	0.8
273.15	15001	999.7	0.8
273.15	16002	1004.3	0.7
273.15	17000	1008.6	0.7
273.15	18001	1012.8	0.7
273.15	19001	1017	0.7
273.15	20000	1020.8	0.7
283.15	5001	869.1	1.1
283.15	6003	882.2	1
283.15	7000	893.3	1
283.15	8001	903	0.9
283.15	9001	912.2	0.9
283.15	10001	920.4	0.8
283.15	11001	928.2	0.8
283.15	12000	935.5	0.8
283.15	13001	942.2	0.8
283.15	14001	948.3	0.8
283.15	15000	954.3	0.8
283.15	16001	960.1	0.8
283.15	17001	965.5	0.8
283.15	18002	970.8	0.7
283.15	19001	975.7	0.7
283.15	20000	980.4	0.7
293.15	5800	774.1	1.2
293.15	6001	783.3	1.2
293.15	7003	809.1	1.1
293.15	8001	827.5	1
293.15	9002	843.2	0.9
293.15	10001	856.1	0.9
293.15	11001	867.7	0.9
293.15	12000	877.9	0.8
293.15	13000	887.3	0.8
293.15	14000	895.9	0.8
293.15	15003	904	0.8
293.15	16003	911.5	0.8
293.15	17001	918.6	0.8
293.15	18002	925	0.8
293.15	19002	931.2	0.8
293.15	20000	937.1	0.8

System: carbon dioxide + nitrogen; phases: Gas
Property: Mass density, kg/m3 (Gas); method: Vibrating tube method
Temperature, K	Pressure, kPa	Mole fraction of carbon dioxide	Mass density, kg/m3	uncertainty
273.15	1001	0.8785	22.5	0.2
273.15	1001	0.9873	21.9	0.2
273.15	2000	0.8785	43.7	0.2
273.15	2001	0.9873	46	0.2
273.15	3001	0.8785	69.6	0.2
273.15	3001	0.9873	76.9	0.2
273.15	3480	0.9873	98	0.3
273.15	4001	0.8785	104	0.3
273.15	4100	0.8785	108.6	0.3
283.15	1000	0.9873	20.1	0.2
283.15	1004	0.8785	19.4	0.2
283.15	2000	0.9873	42.5	0.2
283.15	2001	0.8785	40.3	0.2
283.15	3000	0.8785	64.6	0.2
283.15	3000	0.9873	69.8	0.2
283.15	4000	0.9873	106.2	0.3
283.15	4001	0.8785	93.7	0.3
283.15	4500	0.9873	131.6	0.3
283.15	5001	0.8785	131.6	0.3
283.15	5600	0.8785	170.5	0.3
293.15	1000	0.9873	18.4	0.2
293.15	1001	0.8785	18.8	0.2
293.15	2000	0.8785	38.4	0.2
293.15	2000	0.9873	39.5	0.2
293.15	3000	0.8785	60.8	0.2
293.15	3001	0.9873	64.3	0.2
293.15	4001	0.8785	86.7	0.2
293.15	4001	0.9873	94.5	0.3
293.15	5000	0.8785	117.2	0.3
293.15	5000	0.9873	135.5	0.3
293.15	5700	0.9873	180.8	0.5
293.15	6000	0.8785	156.7	0.4
293.15	7002	0.8785	213.8	0.5
293.15	7601	0.8785	271.4	0.3

System: carbon dioxide + nitrogen; phases: Liquid
Property: Mass density, kg/m3 (Liquid); method: Vibrating tube method
Temperature, K	Pressure, kPa	Mole fraction of carbon dioxide	Mass density, kg/m3	uncertainty
273.15	3902	0.9873	911.4	0.9
273.15	4000	0.9873	911.6	0.9
273.15	5001	0.9873	922.2	1
273.15	6000	0.9873	930.9	0.9
273.15	7000	0.9873	938.7	1.1
273.15	8001	0.9873	946	1
273.15	8401	0.8785	805	1.3
273.15	9000	0.9873	952.8	1
273.15	9001	0.8785	811.5	1.3
273.15	10000	0.9873	959.2	1
273.15	10001	0.8785	824	1.2
273.15	11001	0.9873	965.2	0.9
273.15	11003	0.8785	836	1.1
273.15	12000	0.8785	847	1.1
273.15	12000	0.9873	970.8	0.9
273.15	13001	0.8785	856.6	1
273.15	13002	0.9873	976.3	0.9
273.15	14000	0.8785	865.1	1
273.15	14001	0.9873	981.5	0.9
273.15	15001	0.9873	986.6	0.9
273.15	15002	0.8785	873.4	0.9
273.15	16000	0.9873	991.4	0.9
273.15	16001	0.8785	880.8	0.9
273.15	17000	0.8785	887.8	0.9
273.15	17002	0.9873	996.1	0.9
273.15	18000	0.8785	894.6	0.9
273.15	18012	0.9873	1000.6	0.8
273.15	19001	0.8785	900.7	0.9
273.15	19011	0.9873	1004.8	0.8
273.15	20000	0.8785	906.6	0.9
273.15	20001	0.9873	1008.7	0.8
283.15	5101	0.9873	841.4	1.1
283.15	6001	0.9873	857.5	1.1
283.15	7000	0.9873	870.7	1
283.15	8000	0.9873	882.2	1.2
283.15	9001	0.8785	708.8	1.9
283.15	9001	0.9873	892.5	1.1
283.15	10001	0.9873	901.7	1.1
283.15	10002	0.8785	736.1	1.5
283.15	11001	0.8785	757.6	1.3
283.15	11001	0.9873	910.2	1
283.15	12000	0.8785	775.3	1.2
283.15	12001	0.9873	918	1
283.15	13000	0.9873	925.4	1
283.15	13002	0.8785	790.5	1.2
283.15	14000	0.9873	932.2	0.9
283.15	14001	0.8785	803.8	1.1
283.15	15001	0.9873	938.7	0.9
283.15	15002	0.8785	815.4	1
283.15	16001	0.8785	825.4	1
283.15	16001	0.9873	944.9	0.9
283.15	17000	0.8785	835	1
283.15	17001	0.9873	950.9	0.9
283.15	18000	0.8785	843.9	1
283.15	18003	0.9873	956.5	0.9
283.15	19001	0.8785	852.1	0.9
283.15	19002	0.9873	961.9	0.9
283.15	20001	0.8785	859.6	0.9
283.15	20001	0.9873	967	0.8
293.15	6300	0.9873	750.2	1.3
293.15	7000	0.9873	775	1.2
293.15	8001	0.9873	799.6	1.5
293.15	9000	0.9873	818.4	1.5
293.15	9401	0.8785	526.3	2.6
293.15	10000	0.9873	833.7	1.3
293.15	10001	0.8785	579.5	2.1
293.15	11001	0.8785	633.1	1.7
293.15	11002	0.9873	846.8	1.2
293.15	12001	0.9873	858.3	1.1
293.15	12002	0.8785	669.7	1.5
293.15	13000	0.8785	696.3	1.3
293.15	13000	0.9873	868.3	1.1
293.15	14000	0.9873	877.6	1
293.15	14001	0.8785	718.1	1.3
293.15	15001	0.8785	736.4	1.2
293.15	15001	0.9873	886.2	1
293.15	16001	0.8785	752.3	1.1
293.15	16002	0.9873	894.2	1
293.15	17000	0.8785	766.2	1.1
293.15	17001	0.9873	901.7	0.9
293.15	18000	0.8785	778.4	1.1
293.15	18001	0.9873	908.6	0.9
293.15	19001	0.8785	789.6	1
293.15	19001	0.9873	915.2	0.9
293.15	20000	0.8785	799.8	1
293.15	20001	0.9873	921.4	0.9

System: carbon dioxide + oxygen; phases: Fluid (supercritical or subcritical phases)
Fixed: Mole fraction of carbon dioxide = 0.8512
Fixed: Temperature, K = 293.15
Property: Mass density, kg/m3 (Fluid (supercritical or subcritical phases)); method: Vibrating tube method
Pressure, kPa	Mass density, kg/m3	uncertainty
9801	460.3	0.9
10001	481.5	1

System: carbon dioxide + oxygen; phases: Gas
Property: Mass density, kg/m3 (Gas); method: Vibrating tube method
Temperature, K	Pressure, kPa	Mole fraction of carbon dioxide	Mass density, kg/m3	uncertainty
273.15	1001	0.8512	20	0.2
273.15	1001	0.9558	21	0.2
273.15	2001	0.8512	41.9	0.2
273.15	2001	0.9558	44.5	0.2
273.15	3000	0.8512	68	0.2
273.15	3001	0.9558	74.2	0.2
273.15	3600	0.9558	97.6	0.3
273.15	4001	0.8512	101	0.3
273.15	4400	0.8512	121.1	0.3
283.15	1000	0.9558	21	0.2
283.15	1002	0.8512	19.2	0.2
283.15	2000	0.9558	43.2	0.2
283.15	2001	0.8512	39.7	0.2
283.15	3000	0.8512	63.3	0.2
283.15	3001	0.9558	69.8	0.2
283.15	4000	0.9558	103.9	0.3
283.15	4001	0.8512	91.1	0.2
283.15	4700	0.9558	139.4	0.4
283.15	5000	0.8512	125.7	0.3
283.15	6001	0.8512	175.6	0.4
293.15	1000	0.9558	22.8	0.2
293.15	1001	0.8512	18.7	0.2
293.15	2000	0.8512	38.1	0.2
293.15	2002	0.9558	42.6	0.2
293.15	3001	0.8512	59.8	0.2
293.15	3001	0.9558	66.2	0.2
293.15	4001	0.8512	84.6	0.2
293.15	4001	0.9558	95.2	0.2
293.15	5000	0.9558	132.4	0.3
293.15	5003	0.8512	113.5	0.3
293.15	6001	0.9558	190.2	0.4
293.15	6002	0.8512	148.8	0.4
293.15	7000	0.8512	194.6	0.4
293.15	8001	0.8512	260.9	0.5
293.15	8600	0.8512	316	0.6

System: carbon dioxide + oxygen; phases: Liquid
Property: Mass density, kg/m3 (Liquid); method: Vibrating tube method
Temperature, K	Pressure, kPa	Mole fraction of carbon dioxide	Mass density, kg/m3	uncertainty
273.15	5101	0.9558	895	1
273.15	6000	0.9558	902.5	1.1
273.15	7001	0.9558	911.9	1
273.15	8001	0.9558	920.4	1.1
273.15	9001	0.9558	928.6	1
273.15	9013	0.8512	798.3	1.4
273.15	10001	0.9558	936	1
273.15	10003	0.8512	811.5	1.4
273.15	11001	0.8512	825.1	1.2
273.15	11001	0.9558	943.1	1
273.15	12001	0.8512	837.4	1.1
273.15	12001	0.9558	949.6	0.9
273.15	13001	0.8512	848.5	1.1
273.15	13001	0.9558	955.8	0.9
273.15	14000	0.8512	858.7	1
273.15	14000	0.9558	961.5	0.9
273.15	15002	0.8512	868.2	1
273.15	15002	0.9558	967.1	0.9
273.15	16000	0.8512	877	1
273.15	16001	0.9558	972.4	0.9
273.15	17000	0.9558	977.6	0.8
273.15	17003	0.8512	885.4	0.9
273.15	18000	0.8512	892.9	0.9
273.15	18001	0.9558	982.4	0.8
273.15	19001	0.9558	987.2	0.8
273.15	19039	0.8512	898.3	1
273.15	20001	0.9558	991.7	0.8
283.15	6200	0.9558	819	1.2
283.15	7000	0.9558	835.3	1.2
283.15	8001	0.9558	849.8	1.1
283.15	9001	0.9558	862.8	1.2
283.15	9610	0.8512	686.6	1.5
283.15	10001	0.8512	699.4	1.7
283.15	10001	0.9558	873.8	1.1
283.15	11001	0.8512	728.8	1.6
283.15	11004	0.9558	884.1	1.1
283.15	12000	0.9558	893.2	1
283.15	12001	0.8512	751.4	1.4
283.15	13000	0.8512	770.5	1.3
283.15	13000	0.9558	901.9	1
283.15	14001	0.8512	786.6	1.2
283.15	14002	0.9558	909.9	0.9
283.15	15000	0.8512	800	1.1
283.15	15000	0.9558	917.3	0.9
283.15	16001	0.8512	812.4	1.1
283.15	16001	0.9558	924.2	0.9
283.15	17000	0.9558	930.8	0.9
283.15	17001	0.8512	823.5	1
283.15	18001	0.9558	937	0.9
283.15	19001	0.9558	943	0.8
283.15	20003	0.9558	948.7	0.8
293.15	7402	0.9558	718	1.5
293.15	8002	0.9558	747	1.3
293.15	9001	0.9558	775.6	1.2
293.15	10001	0.9558	797.4	1.4
293.15	11001	0.8512	564.7	2.1
293.15	11002	0.9558	813.9	1.3
293.15	12001	0.8512	617.8	1.8
293.15	12002	0.9558	828.6	1.2
293.15	13000	0.9558	841.3	1.1
293.15	13002	0.8512	657.7	1.6
293.15	14000	0.9558	852.2	1.1
293.15	14001	0.8512	686.2	1.4
293.15	15001	0.8512	710.2	1.3
293.15	15001	0.9558	862.4	1
293.15	16001	0.8512	730.8	1.2
293.15	16001	0.9558	871.6	1
293.15	17000	0.9558	880.2	1
293.15	17002	0.8512	747.7	1.1
293.15	18000	0.9558	888.3	0.9
293.15	19001	0.9558	895.9	0.8
293.15	20000	0.9558	902.8	0.8

System: carbon dioxide + argon; phases: Gas
Property: Mass density, kg/m3 (Gas); method: Vibrating tube method
Mole fraction of carbon dioxide	Temperature, K	Pressure, kPa	Mass density, kg/m3	uncertainty
0.9276	273.15	1001	21.2	0.3
0.9276	273.15	2001	44.2	0.4
0.9276	273.15	3001	72.9	0.6
0.9276	273.15	3800	104.5	0.8
0.9276	283.15	1001	20.1	0.3
0.9276	283.15	2000	42.2	0.4
0.9276	283.15	3001	68.4	0.6
0.9276	283.15	4001	101.2	0.8
0.9276	283.15	5000	151.6	1.2
0.9276	283.15	5010	153	1.2
0.9276	283.15	5060	161.6	1.2
0.9276	293.15	1000	19.9	0.3
0.9276	293.15	2001	40.6	0.4
0.9276	293.15	3000	64.4	0.5
0.9276	293.15	4000	92.6	0.7
0.9276	293.15	5000	128.2	1
0.9276	293.15	6001	179	2.2
0.9276	293.15	6601	253.1	2.5
0.9605	273.15	1000	22.5	0.2
0.9605	273.15	2000	46.1	0.3
0.9605	273.15	3000	75.5	0.4
0.9605	273.15	3600	106.3	0.6
0.9605	283.15	1001	20.9	0.2
0.9605	283.15	2000	43.1	0.3
0.9605	283.15	3001	69.6	0.4
0.9605	283.15	4000	104.2	0.5
0.9605	283.15	4701	144.6	0.8
0.9605	293.15	1001	20.4	0.2
0.9605	293.15	2000	41	0.3
0.9605	293.15	3001	65	0.3
0.9605	293.15	4001	94.2	0.4
0.9605	293.15	5001	132.6	0.6
0.9605	293.15	6000	198	0.9

System: carbon dioxide + argon; phases: Liquid
Property: Mass density, kg/m3 (Liquid); method: Vibrating tube method
Mole fraction of carbon dioxide	Temperature, K	Pressure, kPa	Mass density, kg/m3	uncertainty
0.9276	273.15	5900	881.4	6.5
0.9276	273.15	6000	880.2	6.5
0.9276	273.15	7001	886.5	6.5
0.9276	273.15	8001	898	6.6
0.9276	273.15	9001	907.8	6.6
0.9276	273.15	10001	917.3	6.7
0.9276	273.15	11001	925.5	6.8
0.9276	273.15	12000	933.4	6.8
0.9276	273.15	13000	940.6	6.9
0.9276	273.15	14002	947.4	6.9
0.9276	273.15	15000	953.8	7
0.9276	273.15	16001	959.9	7
0.9276	273.15	17000	965.7	7
0.9276	273.15	18001	971.2	7.1
0.9276	273.15	19001	976.5	7.1
0.9276	273.15	20000	981.5	7.2
0.9276	283.15	7301	801.8	6.1
0.9276	283.15	8001	816.3	6.1
0.9276	283.15	9001	833.9	6.2
0.9276	283.15	10001	848.6	6.3
0.9276	283.15	11001	861.6	6.4
0.9276	283.15	12001	873	6.4
0.9276	283.15	13002	883.5	6.5
0.9276	283.15	14000	892.6	6.5
0.9276	283.15	15001	901.4	6.6
0.9276	283.15	16001	909.4	6.7
0.9276	283.15	17001	916.9	6.7
0.9276	283.15	18000	924.1	6.8
0.9276	283.15	19001	930.8	6.8
0.9276	283.15	20001	937.2	6.8
0.9276	293.15	8201	680.3	5.2
0.9276	293.15	9001	726.1	5.8
0.9276	293.15	10001	760.3	5.8
0.9276	293.15	11001	785	5.9
0.9276	293.15	12002	804.5	6
0.9276	293.15	13003	820.2	6.1
0.9276	293.15	14002	834.1	6.3
0.9276	293.15	15000	846.1	6.2
0.9276	293.15	16001	857.1	6.3
0.9276	293.15	17002	867.1	6.4
0.9276	293.15	18000	876.3	6.4
0.9276	293.15	19001	884.9	6.5
0.9276	293.15	20001	892.9	6.5
0.9605	273.15	4901	893.5	3.8
0.9605	273.15	5001	894.8	3.8
0.9605	273.15	6001	905.7	3.8
0.9605	273.15	7000	915.5	3.8
0.9605	273.15	8001	924	3.8
0.9605	273.15	9002	932.1	3.9
0.9605	273.15	10002	939.5	3.9
0.9605	273.15	11002	946.4	3.9
0.9605	273.15	12000	952.9	3.9
0.9605	273.15	13000	959.1	3.9
0.9605	273.15	14000	965	4
0.9605	273.15	15001	970.6	4
0.9605	273.15	16001	975.9	4
0.9605	273.15	17002	981	4.1
0.9605	273.15	18001	986	4
0.9605	273.15	19003	990.8	4
0.9605	273.15	20001	995.3	4.1
0.9605	283.15	6000	827.6	3.9
0.9605	283.15	7001	844.5	3.8
0.9605	283.15	8001	859.1	3.7
0.9605	283.15	9001	871.9	3.8
0.9605	283.15	10001	883.2	3.7
0.9605	283.15	11001	893.1	3.7
0.9605	283.15	12001	902.4	3.7
0.9605	283.15	13000	910.9	3.8
0.9605	283.15	14001	918.7	3.8
0.9605	283.15	15003	926	3.8
0.9605	283.15	16001	932.8	3.8
0.9605	283.15	17000	939.4	3.8
0.9605	283.15	18000	945.6	3.9
0.9605	283.15	19002	951.6	3.9
0.9605	283.15	20003	957.3	3.9
0.9605	293.15	7151	728.4	3.7
0.9605	293.15	8002	765.2	3.5
0.9605	293.15	9001	790.8	3.5
0.9605	293.15	10001	811.1	3.5
0.9605	293.15	11001	827.5	3.5
0.9605	293.15	12000	841.6	3.6
0.9605	293.15	13000	853.5	3.6
0.9605	293.15	14001	864.3	3.6
0.9605	293.15	15001	874.3	3.6
0.9605	293.15	16002	883.4	3.6
0.9605	293.15	17002	891.9	3.6
0.9605	293.15	18001	899.7	3.7
0.9605	293.15	19001	906.9	3.7
0.9605	293.15	20001	913.8	3.7
