Measured thermophysical data. Measurement and Modeling of the Solubility of Anthracene and Carbazole in Compressed Isobutane
Source: J. Chem. Eng. Data, 2012, 10.1021/je300430d
Compound 1: 2-methylpropane, C4H10, InChI=1S/C4H10/c1-4(2)3/h4H,1-3H3, purity 99.95%
Compound 2: anthracene, C14H10, InChI=1S/C14H10/c1-2-6-12-10-14-8-4-3-7-13(14)9-11(12)5-1/h1-10H, purity 99%
Compound 3: 9H-carbazole, C12H9N, InChI=1S/C12H9N/c1-3-7-11-9(5-1)10-6-2-4-8-12(10)13-11/h1-8,13H, purity 98%

System: 2-methylpropane + anthracene; phases: Liquid, Crystal
Property: Mole fraction of anthracene (Liquid); method: View cell with pressure adjustment
Temperature, K	Pressure, kPa	Mole fraction of anthracene	uncertainty
367	4900	0.0024	0.0011
367	6200	0.0029	0.0016
367	7600	0.0034	0.0016
408	4500	0.0083	0.0013
408	5100	0.0096	0.0016
408	6400	0.014	0.002
408	7400	0.014	0.002
408	8600	0.015	0.002
413	6100	0.01	0.004
413	6800	0.014	0.002
413	7500	0.017	0.003

System: 2-methylpropane + 9H-carbazole; phases: Liquid, Crystal
Property: Mole fraction of 9H-carbazole (Liquid); method: View cell with pressure adjustment
Temperature, K	Pressure, kPa	Mole fraction of 9H-carbazole	uncertainty
367	3200	0.0005	0.00024
367	3700	0.00057	0.00024
367	6300	0.00083	0.00029
367	7200	0.0013	0.0004
408	4800	0.0023	0.0003
408	6200	0.0029	0.0004
408	7000	0.0034	0.0003
408	7800	0.0034	0.0003
413	6100	0.0028	0.0003
413	6800	0.003	0.0003
413	7100	0.0031	0.0003
