Measured thermophysical data. Densities of Partially Carbonated Aqueous Diethanolamine and Methyldiethanolamine Solutions
Source: J. Chem. Eng. Data, 2012, 10.1021/je300530z
Compound 1: diethanolamine, C4H11NO2, InChI=1S/C4H11NO2/c6-3-1-5-2-4-7/h5-7H,1-4H2, purity 99%
Compound 2: carbon dioxide, CO2, InChI=1S/CO2/c2-1-3, purity 99.99%
Compound 3: water, H2O, InChI=1S/H2O/h1H2, purity 99.99%
Compound 4: N-methyldiethanolamine, C5H13NO2, InChI=1S/C5H13NO2/c1-6(2-4-7)3-5-8/h7-8H,2-5H2,1H3, purity 99%

System: N-methyldiethanolamine; phases: Liquid
Fixed: Pressure, kPa = 100
Property: Mass density, kg/m3 (Liquid); method: Vibrating tube method
Temperature, K	Mass density, kg/m3	uncertainty
293.15	1039.9	0.27
303.15	1032.4	0.26
313.15	1024.9	0.26
323.15	1017.2	0.25
333.15	1009.5	0.25
343.15	1001.7	0.24
353.15	993.9	0.24
363.15	986	0.24
373.15	978.28	0.24
383.15	970.22	0.24
393.15	962.03	0.24
403.15	953.71	0.24
413.15	945.29	0.24
423.15	936.81	0.25

System: diethanolamine + water; phases: Liquid
Property: Mass density, kg/m3 (Liquid); method: Vibrating tube method
Temperature, K	Mass fraction of diethanolamine	Pressure, kPa	Mass density, kg/m3	uncertainty
293.15	0.5	101	1060.7	3.5
293.15	0.6	101	1073.1	3.47
293.15	0.7	101	1082.5	3.44
293.15	0.8	101	1089.6	3.42
303.15	0.5	101	1055.5	3.49
303.15	0.6	101	1067.4	3.47
303.15	0.7	101	1076.5	3.43
303.15	0.8	101	1083.6	3.42
313.15	0.5	101	1050	3.48
313.15	0.6	101	1061.4	3.46
313.15	0.7	101	1070.3	3.43
313.15	0.8	101	1077.4	3.42
323.15	0.5	101	1044.1	3.48
323.15	0.6	101	1055.2	3.46
323.15	0.7	101	1064	3.43
323.15	0.8	101	1070.9	3.42
333.15	0.5	101	1037.9	3.47
333.15	0.6	101	1048.6	3.45
333.15	0.7	101	1057.3	3.43
333.15	0.8	101	1064.2	3.42
343.15	0.5	101	1031.4	3.47
343.15	0.6	101	1041.9	3.45
343.15	0.7	101	1050.5	3.43
343.15	0.8	101	1057.4	3.42
353.15	0.5	101	1024.51	3.46
353.15	0.6	101	1034.7	3.45
353.15	0.7	101	1043.5	3.43
353.15	0.8	101	1050.5	3.42
363.15	0.5	101	1017.38	3.46
363.15	0.6	101	1027.3	3.45
363.15	0.7	101	1036.1	3.43
363.15	0.8	101	1043.1	3.42
373.15	0.5	800	1010.04	3.46
373.15	0.6	800	1020	3.45
373.15	0.7	800	1028.87	3.43
373.15	0.8	800	1035.98	3.42
383.15	0.5	800	1002.15	3.45
383.15	0.6	800	1012.14	3.45
383.15	0.7	800	1020.89	3.43
383.15	0.8	800	1028.08	3.42
393.15	0.5	800	994.94	3.45
393.15	0.6	800	1003.87	3.44
393.15	0.7	800	1012.73	3.43
393.15	0.8	800	1020.14	3.43
403.15	0.5	800	985.63	3.45
403.15	0.6	800	995.45	3.45
403.15	0.7	800	1004.18	3.44
403.15	0.8	800	1012.1	3.43
413.15	0.5	800	976.68	3.46
413.15	0.6	800	986.55	3.45
413.15	0.7	800	995.42	3.44
413.15	0.8	800	1003.23	3.43
423.15	0.5	800	967.44	3.46
423.15	0.6	800	977.38	3.45
423.15	0.7	800	986.45	3.44
423.15	0.8	800	995.43	3.44

System: N-methyldiethanolamine + water; phases: Liquid
Property: Mass density, kg/m3 (Liquid); method: Vibrating tube method
Temperature, K	Mass fraction of N-methyldiethanolamine	Pressure, kPa	Mass density, kg/m3	uncertainty
293.15	0.5	101	1045.8	2.73
293.15	0.6	101	1052.6	2.71
293.15	0.7	101	1056.1	2.69
293.15	0.8	101	1055.5	2.69
303.15	0.5	101	1039.6	2.72
303.15	0.6	101	1045.8	2.71
303.15	0.7	101	1048.8	2.69
303.15	0.8	101	1048.1	2.69
313.15	0.5	101	1033	2.72
313.15	0.6	101	1038.6	2.7
313.15	0.7	101	1041.3	2.68
313.15	0.8	101	1040.5	2.69
323.15	0.5	101	1026.1	2.71
323.15	0.6	101	1031.2	2.7
323.15	0.7	101	1033.6	2.68
323.15	0.8	101	1032.6	2.69
333.15	0.5	101	1018.9	2.71
333.15	0.6	101	1023.6	2.69
333.15	0.7	101	1025.6	2.68
333.15	0.8	101	1024.6	2.69
343.15	0.5	101	1011.4	2.7
343.15	0.6	101	1015.6	2.69
343.15	0.7	101	1017.4	2.68
343.15	0.8	101	1016.4	2.69
353.15	0.5	101	1003.5	2.7
353.15	0.6	101	1007.4	2.69
353.15	0.7	101	1009	2.68
353.15	0.8	101	1007.9	2.69
363.15	0.5	101	995.3	2.7
363.15	0.6	101	998.9	2.69
363.15	0.7	101	1000.4	2.68
363.15	0.8	101	999.3	2.69
373.15	0.5	800	987	2.69
373.15	0.6	800	990.32	2.69
373.15	0.7	800	991.79	2.68
373.15	0.8	800	990.82	2.69
383.15	0.5	800	978.16	2.69
383.15	0.6	800	981.18	2.69
383.15	0.7	800	982.65	2.68
383.15	0.8	800	981.74	2.69
393.15	0.5	800	968.93	2.69
393.15	0.6	800	971.76	2.69
393.15	0.7	800	973.23	2.68
393.15	0.8	800	972.51	2.69
403.15	0.5	800	959.28	2.69
403.15	0.6	800	962.08	2.69
403.15	0.7	800	963.68	2.68
403.15	0.8	800	963.09	2.69
413.15	0.5	800	949.4	2.69
413.15	0.6	800	952.13	2.69
413.15	0.7	800	953.72	2.68
413.15	0.8	800	953.38	2.69
423.15	0.5	800	939.06	2.69
423.15	0.6	800	941.91	2.69
423.15	0.7	800	943.63	2.68
423.15	0.8	800	943.53	2.69

System: diethanolamine + carbon dioxide + water; phases: Liquid
Fixed: Pressure, kPa = 100
Property: Mass density, kg/m3 (Liquid); method: Vibrating tube method
Temperature, K	Mass fraction of carbon dioxide	Mass fraction of diethanolamine	Mass density, kg/m3	uncertainty
293.15	0	0.5	1060.7	3.5
293.15	0	0.6	1073.1	3.47
293.15	0	0.7	1082.5	3.44
293.15	0	0.8	1089.6	3.42
293.15	0.01	0.495	1070.87	3.48
293.15	0.012	0.593	1083.9	3.46
293.15	0.014	0.69	1094.5	3.43
293.15	0.016	0.787	1103.4	3.43
293.15	0.021	0.49	1079.1	3.49
293.15	0.025	0.585	1094.6	3.46
293.15	0.028	0.68	1106.4	3.44
293.15	0.03	0.485	1088.2	3.48
293.15	0.032	0.774	1116.9	3.43
293.15	0.036	0.578	1105.4	3.46
293.15	0.04	0.48	1097.9	3.49
293.15	0.042	0.671	1118.4	3.43
293.15	0.048	0.571	1115.7	3.45
293.15	0.048	0.762	1130.9	3.43
293.15	0.05	0.475	1106.8	3.48
293.15	0.055	0.661	1129.3	3.41
293.15	0.059	0.47	1115.8	3.5
293.15	0.059	0.565	1127.4	3.45
293.15	0.063	0.75	1144.7	3.45
293.15	0.068	0.466	1125.5	3.48
293.15	0.068	0.652	1141.3	3.42
293.15	0.07	0.558	1138.1	3.44
293.15	0.077	0.461	1135	3.48
293.15	0.077	0.738	1158.7	3.47
293.15	0.081	0.552	1149.6	3.43
293.15	0.081	0.643	1153.2	3.42
293.15	0.086	0.457	1144.3	3.5
293.15	0.091	0.545	1160.8	3.42
293.15	0.091	0.727	1172.9	3.48
293.15	0.093	0.635	1165.1	3.42
293.15	0.095	0.453	1153.3	3.51
293.15	0.102	0.539	1171.9	3.39
293.15	0.105	0.627	1177.4	3.42
293.15	0.105	0.716	1186.8	3.47
293.15	0.112	0.533	1182.5	3.39
293.15	0.116	0.618	1189.5	3.44
293.15	0.118	0.705	1201.7	3.49
293.15	0.128	0.611	1201.2	3.5
293.15	0.131	0.695	1214.7	3.49
293.15	0.143	0.685	1228.8	3.49
303.15	0	0.5	1055.5	3.49
303.15	0	0.6	1067.4	3.47
303.15	0	0.7	1076.5	3.43
303.15	0	0.8	1083.6	3.42
303.15	0.01	0.495	1064.6	3.48
303.15	0.012	0.593	1078.2	3.47
303.15	0.014	0.69	1088.6	3.43
303.15	0.016	0.787	1097.4	3.42
303.15	0.021	0.49	1073.9	3.48
303.15	0.025	0.585	1088.9	3.46
303.15	0.028	0.68	1100.6	3.43
303.15	0.03	0.485	1083	3.48
303.15	0.032	0.774	1110.9	3.42
303.15	0.036	0.578	1099.7	3.45
303.15	0.04	0.48	1092.7	3.48
303.15	0.042	0.671	1112.6	3.43
303.15	0.048	0.571	1110	3.44
303.15	0.048	0.762	1124.9	3.42
303.15	0.05	0.475	1101.5	3.48
303.15	0.055	0.661	1123.5	3.41
303.15	0.059	0.47	1110.5	3.49
303.15	0.059	0.565	1121.6	3.45
303.15	0.063	0.75	1138.6	3.44
303.15	0.068	0.466	1120.1	3.48
303.15	0.068	0.652	1135.5	3.42
303.15	0.07	0.558	1132.4	3.44
303.15	0.077	0.461	1129.6	3.47
303.15	0.077	0.738	1152.6	3.46
303.15	0.081	0.552	1143.8	3.43
303.15	0.081	0.643	1147.5	3.42
303.15	0.086	0.457	1138.8	3.5
303.15	0.091	0.545	1155	3.42
303.15	0.091	0.727	1166.9	3.47
303.15	0.093	0.635	1159.4	3.42
303.15	0.095	0.453	1147.6	3.5
303.15	0.102	0.539	1166	3.39
303.15	0.105	0.627	1171.6	3.42
303.15	0.105	0.716	1180.7	3.47
303.15	0.112	0.533	1176.6	3.39
303.15	0.116	0.618	1183.7	3.44
303.15	0.118	0.705	1195.6	3.48
303.15	0.128	0.611	1195.3	3.5
303.15	0.131	0.695	1208.7	3.49
303.15	0.143	0.685	1222.7	3.49
313.15	0	0.5	1050	3.48
313.15	0	0.6	1061.4	3.46
313.15	0	0.7	1070.3	3.43
313.15	0	0.8	1077.4	3.42
313.15	0.01	0.495	1059	3.48
313.15	0.012	0.593	1072.2	3.46
313.15	0.014	0.69	1082.5	3.43
313.15	0.016	0.787	1091.2	3.42
313.15	0.021	0.49	1068.4	3.47
313.15	0.025	0.585	1083	3.45
313.15	0.028	0.68	1094.5	3.43
313.15	0.03	0.485	1077.5	3.47
313.15	0.032	0.774	1104.8	3.42
313.15	0.036	0.578	1093.8	3.45
313.15	0.04	0.48	1087.1	3.47
313.15	0.042	0.671	1106.5	3.43
313.15	0.048	0.571	1104.1	3.44
313.15	0.048	0.762	1118.8	3.42
313.15	0.05	0.475	1096	3.47
313.15	0.055	0.661	1117.5	3.41
313.15	0.059	0.47	1104.9	3.48
313.15	0.059	0.565	1115.8	3.44
313.15	0.063	0.75	1132.6	3.44
313.15	0.068	0.466	1114.4	3.47
313.15	0.068	0.652	1129.5	3.42
313.15	0.07	0.558	1126.5	3.43
313.15	0.077	0.461	1123.9	3.47
313.15	0.077	0.738	1146.6	3.46
313.15	0.081	0.552	1137.9	3.43
313.15	0.081	0.643	1141.5	3.42
313.15	0.086	0.457	1133.1	3.5
313.15	0.091	0.545	1149.1	3.42
313.15	0.091	0.727	1160.8	3.47
313.15	0.093	0.635	1153.4	3.42
313.15	0.095	0.453	1141.8	3.5
313.15	0.102	0.539	1160	3.39
313.15	0.105	0.627	1165.6	3.42
313.15	0.105	0.716	1174.7	3.47
313.15	0.112	0.533	1170.5	3.4
313.15	0.116	0.618	1177.7	3.44
313.15	0.118	0.705	1189.5	3.48
313.15	0.128	0.611	1189.3	3.5
313.15	0.131	0.695	1202.5	3.49
313.15	0.143	0.685	1216.4	3.49
323.15	0	0.5	1044.1	3.48
323.15	0	0.6	1055.2	3.46
323.15	0	0.7	1064	3.43
323.15	0	0.8	1070.9	3.42
323.15	0.01	0.495	1053.2	3.48
323.15	0.012	0.593	1066	3.46
323.15	0.014	0.69	1076.1	3.43
323.15	0.016	0.787	1084.9	3.42
323.15	0.021	0.49	1062.6	3.47
323.15	0.025	0.585	1076.8	3.45
323.15	0.028	0.68	1088.2	3.43
323.15	0.03	0.485	1071.7	3.47
323.15	0.032	0.774	1098.5	3.42
323.15	0.036	0.578	1087.7	3.44
323.15	0.04	0.48	1081.3	3.47
323.15	0.042	0.671	1100.3	3.43
323.15	0.048	0.571	1098	3.44
323.15	0.048	0.762	1112.6	3.42
323.15	0.05	0.475	1090.2	3.46
323.15	0.055	0.661	1111.3	3.41
323.15	0.059	0.47	1099.1	3.48
323.15	0.059	0.565	1109.7	3.44
323.15	0.063	0.75	1126.4	3.44
323.15	0.068	0.466	1108.6	3.47
323.15	0.068	0.652	1123.4	3.42
323.15	0.07	0.558	1120.4	3.43
323.15	0.077	0.461	1118	3.47
323.15	0.077	0.738	1140.5	3.46
323.15	0.081	0.552	1131.8	3.42
323.15	0.081	0.643	1135.4	3.42
323.15	0.086	0.457	1127.1	3.49
323.15	0.091	0.545	1142.9	3.42
323.15	0.091	0.727	1154.7	3.47
323.15	0.093	0.635	1147.3	3.42
323.15	0.095	0.453	1135.8	3.5
323.15	0.102	0.539	1153.8	3.39
323.15	0.105	0.627	1159.6	3.42
323.15	0.105	0.716	1168.6	3.47
323.15	0.112	0.533	1164.3	3.4
323.15	0.116	0.618	1171.6	3.44
323.15	0.118	0.705	1183.4	3.48
323.15	0.128	0.611	1183.1	3.5
323.15	0.131	0.695	1196.3	3.49
323.15	0.143	0.685	1210.2	3.49
333.15	0	0.5	1037.9	3.47
333.15	0	0.6	1048.6	3.45
333.15	0	0.7	1057.3	3.43
333.15	0	0.8	1064.2	3.42
333.15	0.01	0.495	1047.1	3.46
333.15	0.012	0.593	1059	3.45
333.15	0.014	0.69	1069.6	3.43
333.15	0.016	0.787	1078.3	3.42
333.15	0.021	0.49	1056.5	3.46
333.15	0.025	0.585	1070.4	3.45
333.15	0.028	0.68	1081.8	3.43
333.15	0.03	0.485	1065.6	3.46
333.15	0.032	0.774	1092	3.42
333.15	0.036	0.578	1081.4	3.44
333.15	0.04	0.48	1075.2	3.47
333.15	0.042	0.671	1093.9	3.43
333.15	0.048	0.571	1091.7	3.43
333.15	0.048	0.762	1106.1	3.42
333.15	0.05	0.475	1084.1	3.46
333.15	0.055	0.661	1104.9	3.41
333.15	0.059	0.47	1092.9	3.48
333.15	0.059	0.565	1103.4	3.44
333.15	0.063	0.75	1120	3.44
333.15	0.068	0.466	1102.4	3.46
333.15	0.068	0.652	1117.1	3.42
333.15	0.07	0.558	1114.1	3.43
333.15	0.077	0.461	1111.8	3.47
333.15	0.077	0.738	1134.2	3.46
333.15	0.081	0.552	1125.5	3.42
333.15	0.081	0.643	1129.1	3.42
333.15	0.086	0.457	1120.9	3.49
333.15	0.091	0.545	1136.6	3.42
333.15	0.091	0.727	1148.5	3.47
333.15	0.093	0.635	1141.1	3.42
333.15	0.095	0.453	1128.4	3.5
333.15	0.102	0.539	1147.4	3.39
333.15	0.105	0.627	1153.3	3.42
333.15	0.105	0.716	1162.4	3.47
333.15	0.112	0.533	1157.7	3.4
333.15	0.116	0.618	1165.3	3.44
333.15	0.118	0.705	1177.2	3.48
333.15	0.128	0.611	1176.8	3.5
333.15	0.131	0.695	1190.1	3.5
343.15	0	0.5	1031.4	3.47
343.15	0	0.6	1041.9	3.45
343.15	0	0.7	1050.5	3.43
343.15	0	0.8	1057.4	3.42
343.15	0.01	0.495	1040.6	3.46
343.15	0.012	0.593	1052.5	3.45
343.15	0.014	0.69	1062.9	3.43
343.15	0.016	0.787	1071.6	3.42
343.15	0.021	0.49	1051.15	3.45
343.15	0.025	0.585	1063.8	3.44
343.15	0.028	0.68	1075.1	3.43
343.15	0.03	0.485	1059.2	3.47
343.15	0.032	0.774	1085.3	3.42
343.15	0.036	0.578	1074.8	3.44
343.15	0.04	0.48	1068.8	3.46
343.15	0.042	0.671	1087.3	3.43
343.15	0.048	0.571	1085.1	3.43
343.15	0.048	0.762	1099.5	3.42
343.15	0.05	0.475	1077.7	3.46
343.15	0.055	0.661	1098.4	3.41
343.15	0.059	0.47	1086.6	3.47
343.15	0.059	0.565	1096.8	3.44
343.15	0.063	0.75	1113.5	3.44
343.15	0.068	0.466	1096.1	3.46
343.15	0.068	0.652	1110.5	3.42
343.15	0.07	0.558	1107.6	3.43
343.15	0.077	0.461	1105.2	3.46
343.15	0.077	0.738	1127.7	3.46
343.15	0.081	0.552	1119	3.42
343.15	0.081	0.643	1122.6	3.42
343.15	0.086	0.457	1115	3.47
343.15	0.091	0.545	1130.1	3.41
343.15	0.091	0.727	1142	3.47
343.15	0.093	0.635	1134.6	3.42
343.15	0.095	0.453	1122.5	3.49
343.15	0.102	0.539	1140.8	3.39
343.15	0.105	0.627	1146	3.42
343.15	0.105	0.716	1156	3.48
343.15	0.116	0.618	1158.8	3.48
343.15	0.118	0.705	1170.8	3.49
343.15	0.131	0.695	1183.6	3.49
353.15	0	0.5	1024.51	3.46
353.15	0	0.6	1034.7	3.45
353.15	0	0.7	1043.5	3.43
353.15	0	0.8	1050.5	3.42
353.15	0.01	0.495	1033.94	3.46
353.15	0.012	0.593	1045.7	3.45
353.15	0.014	0.69	1055.9	3.43
353.15	0.016	0.787	1064.6	3.42
353.15	0.021	0.49	1043.9	3.45
353.15	0.025	0.585	1056.7	3.44
353.15	0.028	0.68	1068.2	3.43
353.15	0.03	0.485	1052.61	3.46
353.15	0.032	0.774	1078.5	3.42
353.15	0.036	0.578	1067.7	3.44
353.15	0.04	0.48	1062.27	3.45
353.15	0.042	0.671	1080.5	3.43
353.15	0.048	0.571	1078.8	3.43
353.15	0.048	0.762	1092.7	3.42
353.15	0.05	0.475	1071.18	3.46
353.15	0.055	0.661	1091.7	3.41
353.15	0.059	0.47	1080.07	3.46
353.15	0.059	0.565	1089.8	3.43
353.15	0.063	0.75	1106.9	3.44
353.15	0.068	0.466	1089.44	3.46
353.15	0.068	0.652	1103.9	3.42
353.15	0.07	0.558	1100.9	3.43
353.15	0.077	0.461	1098.5	3.46
353.15	0.077	0.738	1121	3.46
353.15	0.081	0.552	1112	3.43
353.15	0.081	0.643	1116	3.42
353.15	0.091	0.545	1123	3.39
353.15	0.091	0.727	1135.5	3.47
353.15	0.093	0.635	1128	3.42
353.15	0.105	0.627	1140.1	3.47
353.15	0.105	0.716	1149.4	3.47
363.15	0	0.5	1017.38	3.46
363.15	0	0.6	1027.3	3.45
363.15	0	0.7	1036.1	3.43
363.15	0	0.8	1043.1	3.42
363.15	0.01	0.495	1026.82	3.46
363.15	0.012	0.593	1038.5	3.45
363.15	0.014	0.69	1048.6	3.43
363.15	0.016	0.787	1057.5	3.42
363.15	0.021	0.49	1036.81	3.45
363.15	0.025	0.585	1049.6	3.44
363.15	0.028	0.68	1061	3.43
363.15	0.03	0.485	1045.57	3.45
363.15	0.032	0.774	1071.4	3.42
363.15	0.036	0.578	1060.6	3.44
363.15	0.04	0.48	1055.27	3.45
363.15	0.042	0.671	1073.4	3.43
363.15	0.048	0.571	1071.7	3.43
363.15	0.048	0.762	1085.7	3.42
363.15	0.05	0.475	1064.2	3.46
363.15	0.055	0.661	1084.7	3.41
363.15	0.059	0.47	1073.1	3.46
363.15	0.059	0.565	1082.9	3.43
363.15	0.063	0.75	1099.9	3.44
363.15	0.068	0.466	1082.43	3.46
363.15	0.068	0.652	1096.9	3.42
363.15	0.07	0.558	1093.9	3.43
363.15	0.077	0.461	1092.3	3.46
363.15	0.077	0.738	1114.2	3.46
363.15	0.081	0.643	1109.1	3.46
363.15	0.091	0.727	1128.5	3.47
363.15	0.093	0.635	1121.1	3.47

System: diethanolamine + carbon dioxide + water; phases: Liquid
Fixed: Pressure, kPa = 800
Property: Mass density, kg/m3 (Liquid); method: Vibrating tube method
Temperature, K	Mass fraction of carbon dioxide	Mass fraction of diethanolamine	Mass density, kg/m3	uncertainty
333.15	0.143	0.685	1205.1	3.56
343.15	0.112	0.533	1151.24	3.39
343.15	0.128	0.611	1170.87	3.6
343.15	0.143	0.685	1198.37	3.52
353.15	0.086	0.457	1107.94	3.51
353.15	0.095	0.453	1116.4	3.51
353.15	0.102	0.539	1134.33	3.49
353.15	0.112	0.533	1144.5	3.4
353.15	0.116	0.618	1152.6	3.44
353.15	0.118	0.705	1164.21	3.48
353.15	0.128	0.611	1163.97	3.51
353.15	0.131	0.695	1177.59	3.5
353.15	0.143	0.685	1190.81	3.5
363.15	0.081	0.552	1105.61	3.48
363.15	0.086	0.457	1100.95	3.5
363.15	0.091	0.545	1116.58	3.49
363.15	0.095	0.453	1109.38	3.5
363.15	0.102	0.539	1127.32	3.4
363.15	0.105	0.627	1133.56	3.43
363.15	0.105	0.716	1142.92	3.47
363.15	0.112	0.533	1137.4	3.4
363.15	0.116	0.618	1145.59	3.44
363.15	0.118	0.705	1157.72	3.48
363.15	0.128	0.611	1156.81	3.51
363.15	0.131	0.695	1170.63	3.5
363.15	0.143	0.685	1183.64	3.5
373.15	0	0.5	1010.04	3.46
373.15	0	0.6	1020	3.45
373.15	0	0.7	1028.87	3.43
373.15	0	0.8	1035.98	3.42
373.15	0.01	0.495	1019.56	3.46
373.15	0.012	0.593	1031.32	3.45
373.15	0.014	0.69	1041.45	3.43
373.15	0.016	0.787	1050.37	3.42
373.15	0.021	0.49	1029.72	3.45
373.15	0.025	0.585	1042.54	3.44
373.15	0.028	0.68	1054.01	3.43
373.15	0.03	0.485	1038.51	3.45
373.15	0.032	0.774	1064.44	3.42
373.15	0.036	0.578	1053.75	3.44
373.15	0.04	0.48	1048.26	3.45
373.15	0.042	0.671	1066.45	3.43
373.15	0.048	0.571	1064.9	3.43
373.15	0.048	0.762	1078.72	3.42
373.15	0.05	0.475	1057.15	3.46
373.15	0.055	0.661	1077.81	3.41
373.15	0.059	0.47	1066.04	3.47
373.15	0.059	0.565	1076.09	3.43
373.15	0.063	0.75	1093.08	3.44
373.15	0.068	0.466	1075.5	3.46
373.15	0.068	0.652	1090.12	3.42
373.15	0.07	0.558	1087.15	3.43
373.15	0.077	0.461	1084.67	3.47
373.15	0.077	0.738	1107.4	3.46
373.15	0.081	0.552	1098.3	3.43
373.15	0.081	0.643	1102.25	3.42
373.15	0.086	0.457	1093.49	3.5
373.15	0.091	0.545	1109.22	3.42
373.15	0.091	0.727	1121.93	3.47
373.15	0.093	0.635	1114.32	3.42
373.15	0.095	0.453	1101.8	3.5
373.15	0.102	0.539	1119.87	3.4
373.15	0.105	0.627	1126.31	3.43
373.15	0.105	0.716	1135.8	3.47
373.15	0.112	0.533	1129.82	3.4
373.15	0.116	0.618	1138.24	3.45
373.15	0.118	0.705	1150.5	3.48
373.15	0.128	0.611	1149.34	3.51
373.15	0.131	0.695	1163.17	3.51
383.15	0	0.5	1002.15	3.45
383.15	0	0.6	1012.14	3.45
383.15	0	0.7	1020.89	3.43
383.15	0	0.8	1028.08	3.42
383.15	0.01	0.495	1011.85	3.46
383.15	0.012	0.593	1023.54	3.45
383.15	0.014	0.69	1033.61	3.43
383.15	0.016	0.787	1042.62	3.42
383.15	0.021	0.49	1022.03	3.45
383.15	0.025	0.585	1034.81	3.44
383.15	0.028	0.68	1046.25	3.43
383.15	0.03	0.485	1030.8	3.46
383.15	0.032	0.774	1056.81	3.42
383.15	0.036	0.578	1046.05	3.44
383.15	0.04	0.48	1040.65	3.45
383.15	0.042	0.671	1058.77	3.43
383.15	0.048	0.571	1057.29	3.43
383.15	0.048	0.762	1071.21	3.42
383.15	0.05	0.475	1049.4	3.46
383.15	0.055	0.661	1070.19	3.41
383.15	0.059	0.47	1058.39	3.47
383.15	0.059	0.565	1068.49	3.44
383.15	0.063	0.75	1085.55	3.44
383.15	0.068	0.466	1067.87	3.47
383.15	0.068	0.652	1082.53	3.42
383.15	0.07	0.558	1079.53	3.43
383.15	0.077	0.461	1076.96	3.47
383.15	0.077	0.738	1099.9	3.46
383.15	0.081	0.552	1090.68	3.43
383.15	0.081	0.643	1094.65	3.42
383.15	0.086	0.457	1085.69	3.49
383.15	0.091	0.545	1101.5	3.42
383.15	0.091	0.727	1114.38	3.47
383.15	0.093	0.635	1106.67	3.42
383.15	0.102	0.539	1111.97	3.4
383.15	0.105	0.627	1118.57	3.43
383.15	0.105	0.716	1128.26	3.47
383.15	0.116	0.618	1130.34	3.46
383.15	0.118	0.705	1141.31	3.47
393.15	0	0.5	994.94	3.45
393.15	0	0.6	1003.87	3.44
393.15	0	0.7	1012.73	3.43
393.15	0	0.8	1020.14	3.43
393.15	0.01	0.495	1003.74	3.46
393.15	0.012	0.593	1015.51	3.45
393.15	0.014	0.69	1025.62	3.43
393.15	0.016	0.787	1034.77	3.43
393.15	0.021	0.49	1013.95	3.45
393.15	0.025	0.585	1026.83	3.44
393.15	0.028	0.68	1038.33	3.43
393.15	0.03	0.485	1022.82	3.47
393.15	0.032	0.774	1049.03	3.42
393.15	0.036	0.578	1038.73	3.44
393.15	0.04	0.48	1032.62	3.47
393.15	0.042	0.671	1050.92	3.42
393.15	0.048	0.571	1049.38	3.43
393.15	0.048	0.762	1063.46	3.42
393.15	0.05	0.475	1042	3.46
393.15	0.055	0.661	1062.35	3.41
393.15	0.059	0.47	1050.36	3.47
393.15	0.059	0.565	1060.54	3.44
393.15	0.063	0.75	1077.85	3.44
393.15	0.068	0.466	1059.69	3.47
393.15	0.068	0.652	1074.69	3.42
393.15	0.07	0.558	1071.57	3.43
393.15	0.077	0.461	1068.61	3.46
393.15	0.077	0.738	1092.21	3.46
393.15	0.081	0.552	1082.55	3.43
393.15	0.081	0.643	1086.75	3.42
393.15	0.086	0.457	1078.37	3.47
393.15	0.091	0.545	1093.22	3.43
393.15	0.091	0.727	1106.57	3.48
393.15	0.093	0.635	1098.38	3.43
393.15	0.105	0.627	1110.4	3.48
393.15	0.105	0.716	1120.28	3.48
403.15	0	0.5	985.63	3.45
403.15	0	0.6	995.45	3.45
403.15	0	0.7	1004.18	3.44
403.15	0	0.8	1012.1	3.43
403.15	0.01	0.495	995.44	3.45
403.15	0.012	0.593	1006.72	3.45
403.15	0.014	0.69	1017.23	3.43
403.15	0.016	0.787	1026.62	3.43
403.15	0.021	0.49	1005.03	3.45
403.15	0.025	0.585	1018.5	3.44
403.15	0.028	0.68	1029.96	3.43
403.15	0.03	0.485	1013.79	3.46
403.15	0.032	0.774	1040.88	3.43
403.15	0.036	0.578	1029.85	3.44
403.15	0.04	0.48	1023.84	3.47
403.15	0.042	0.671	1042.6	3.43
403.15	0.048	0.571	1040.98	3.44
403.15	0.048	0.762	1055.43	3.42
403.15	0.05	0.475	1032.99	3.47
403.15	0.055	0.661	1053.8	3.41
403.15	0.059	0.47	1041.84	3.48
403.15	0.059	0.565	1052.05	3.44
403.15	0.063	0.75	1069.76	3.44
403.15	0.068	0.466	1050.92	3.47
403.15	0.068	0.652	1066.39	3.42
403.15	0.07	0.558	1063.17	3.44
403.15	0.077	0.738	1083.38	3.46
403.15	0.081	0.552	1073.78	3.4
403.15	0.081	0.643	1078.6	3.42
403.15	0.091	0.727	1098.38	3.52
403.15	0.093	0.635	1088.6	3.5
413.15	0	0.5	976.68	3.46
413.15	0	0.6	986.55	3.45
413.15	0	0.7	995.42	3.44
413.15	0	0.8	1003.23	3.43
413.15	0.01	0.495	986.52	3.46
413.15	0.012	0.593	998.23	3.45
413.15	0.014	0.69	1008.61	3.43
413.15	0.016	0.787	1018.17	3.43
413.15	0.021	0.49	996.09	3.46
413.15	0.025	0.585	1009.57	3.45
413.15	0.028	0.68	1021.29	3.44
413.15	0.03	0.485	1005.04	3.46
413.15	0.032	0.774	1032.36	3.43
413.15	0.036	0.578	1020.85	3.44
413.15	0.04	0.48	1014.69	3.47
413.15	0.042	0.671	1033.82	3.43
413.15	0.048	0.571	1031.83	3.44
413.15	0.048	0.762	1046.78	3.42
413.15	0.05	0.475	1023.53	3.47
413.15	0.055	0.661	1044.93	3.41
413.15	0.059	0.47	1032.11	3.48
413.15	0.059	0.565	1042.64	3.44
413.15	0.063	0.75	1060.86	3.45
413.15	0.068	0.652	1057.24	3.44
413.15	0.077	0.738	1074.31	3.45
423.15	0	0.5	967.44	3.46
423.15	0	0.6	977.38	3.45
423.15	0	0.7	986.45	3.44
423.15	0	0.8	995.43	3.44
423.15	0.01	0.495	977.26	3.46
423.15	0.012	0.593	989.05	3.45
423.15	0.014	0.69	999.47	3.44
423.15	0.016	0.787	1009.21	3.43
423.15	0.021	0.49	986.62	3.45
423.15	0.025	0.585	1000.16	3.45
423.15	0.028	0.68	1011.93	3.44
423.15	0.03	0.485	996.44	3.44
423.15	0.032	0.774	1023.14	3.43
423.15	0.036	0.578	1011.17	3.45
423.15	0.04	0.48	1004.68	3.46
423.15	0.042	0.671	1024.03	3.43
423.15	0.048	0.571	1021.76	3.42
423.15	0.048	0.762	1037.02	3.44
423.15	0.055	0.661	1034.97	3.43

System: N-methyldiethanolamine + carbon dioxide + water; phases: Liquid
Fixed: Pressure, kPa = 100
Property: Mass density, kg/m3 (Liquid); method: Vibrating tube method
Temperature, K	Mass fraction of carbon dioxide	Mass fraction of N-methyldiethanolamine	Mass density, kg/m3	uncertainty
293.15	0	0.5	1045.8	2.73
293.15	0	0.6	1052.6	2.71
293.15	0	0.7	1056.1	2.69
293.15	0	0.8	1055.5	2.69
293.15	0.009	0.495	1054.3	2.72
293.15	0.011	0.593	1061.9	2.7
293.15	0.013	0.691	1066.6	2.68
293.15	0.015	0.788	1067	2.69
293.15	0.018	0.491	1062.6	2.71
293.15	0.022	0.587	1071.2	2.7
293.15	0.025	0.682	1076.9	2.68
293.15	0.027	0.487	1071	2.7
293.15	0.029	0.777	1077.8	2.69
293.15	0.032	0.581	1080.1	2.7
293.15	0.036	0.482	1079.2	2.71
293.15	0.037	0.674	1087.4	2.69
293.15	0.042	0.575	1089.3	2.7
293.15	0.042	0.766	1089.7	2.69
293.15	0.044	0.478	1087.5	2.7
293.15	0.049	0.666	1097.9	2.69
293.15	0.052	0.474	1095.6	2.69
293.15	0.052	0.569	1098.5	2.69
293.15	0.056	0.755	1100.5	2.7
293.15	0.061	0.47	1103.9	2.69
293.15	0.061	0.658	1108.5	2.69
293.15	0.062	0.563	1107.7	2.69
293.15	0.069	0.466	1112.3	2.69
293.15	0.069	0.745	1113.5	2.69
293.15	0.072	0.557	1116.9	2.69
293.15	0.072	0.65	1119.1	2.69
293.15	0.077	0.462	1119.9	2.69
293.15	0.081	0.551	1126.1	2.69
293.15	0.081	0.735	1126.7	2.69
293.15	0.083	0.642	1128.2	2.69
293.15	0.085	0.458	1127.1	2.69
293.15	0.091	0.546	1135.2	2.69
293.15	0.094	0.634	1139.3	2.69
293.15	0.094	0.725	1139.9	2.69
293.15	0.1	0.54	1144.9	2.69
293.15	0.104	0.627	1149.2	2.69
293.15	0.106	0.715	1150.2	2.69
293.15	0.114	0.62	1159.77	2.69
293.15	0.117	0.706	1162.19	2.69
303.15	0	0.5	1039.6	2.72
303.15	0	0.6	1045.8	2.71
303.15	0	0.7	1048.8	2.69
303.15	0	0.8	1048.1	2.69
303.15	0.009	0.495	1048	2.71
303.15	0.011	0.593	1055.1	2.7
303.15	0.013	0.691	1059.4	2.68
303.15	0.015	0.788	1059.7	2.69
303.15	0.018	0.491	1056.3	2.7
303.15	0.022	0.587	1064.4	2.7
303.15	0.025	0.682	1069.8	2.68
303.15	0.027	0.487	1064.6	2.7
303.15	0.029	0.777	1070.6	2.7
303.15	0.032	0.581	1073.3	2.7
303.15	0.036	0.482	1072.8	2.71
303.15	0.037	0.674	1080.4	2.69
303.15	0.042	0.575	1082.5	2.69
303.15	0.042	0.766	1082.5	2.69
303.15	0.044	0.478	1081.1	2.7
303.15	0.049	0.666	1091	2.69
303.15	0.052	0.474	1089.1	2.69
303.15	0.052	0.569	1091.8	2.69
303.15	0.056	0.755	1093.5	2.7
303.15	0.061	0.47	1097.4	2.69
303.15	0.061	0.658	1101.6	2.69
303.15	0.062	0.563	1101	2.69
303.15	0.069	0.466	1105.9	2.69
303.15	0.069	0.745	1106.4	2.7
303.15	0.072	0.557	1110.1	2.69
303.15	0.072	0.65	1112.2	2.69
303.15	0.077	0.462	1113.4	2.69
303.15	0.081	0.551	1119.3	2.69
303.15	0.081	0.735	1119.8	2.69
303.15	0.083	0.642	1122	2.69
303.15	0.085	0.458	1120.7	2.69
303.15	0.091	0.546	1128.5	2.69
303.15	0.094	0.634	1132.5	2.69
303.15	0.094	0.725	1132.9	2.69
303.15	0.1	0.54	1138.2	2.69
303.15	0.104	0.627	1142.4	2.69
303.15	0.106	0.715	1143.4	2.69
303.15	0.114	0.62	1153.41	2.69
313.15	0	0.5	1033	2.72
313.15	0	0.6	1038.6	2.7
313.15	0	0.7	1041.3	2.68
313.15	0	0.8	1040.5	2.69
313.15	0.009	0.495	1041.4	2.71
313.15	0.011	0.593	1048	2.7
313.15	0.013	0.691	1052	2.68
313.15	0.015	0.788	1052.2	2.69
313.15	0.018	0.491	1049.7	2.7
313.15	0.022	0.587	1057.4	2.69
313.15	0.025	0.682	1062.4	2.68
313.15	0.027	0.487	1058	2.7
313.15	0.029	0.777	1063.1	2.7
313.15	0.032	0.581	1066.3	2.7
313.15	0.036	0.482	1066.2	2.7
313.15	0.037	0.674	1073.1	2.68
313.15	0.042	0.575	1075.5	2.69
313.15	0.042	0.766	1075.1	2.69
313.15	0.044	0.478	1074.5	2.69
313.15	0.049	0.666	1083.8	2.69
313.15	0.052	0.474	1082.5	2.69
313.15	0.052	0.569	1084.8	2.69
313.15	0.056	0.755	1086.2	2.7
313.15	0.061	0.47	1090.8	2.69
313.15	0.061	0.658	1094.4	2.69
313.15	0.062	0.563	1094	2.69
313.15	0.069	0.466	1099.2	2.69
313.15	0.069	0.745	1099.1	2.7
313.15	0.072	0.557	1103.2	2.69
313.15	0.072	0.65	1105.1	2.69
313.15	0.077	0.462	1106.8	2.69
313.15	0.081	0.551	1112.4	2.69
313.15	0.081	0.735	1112.5	2.69
313.15	0.083	0.642	1114.8	2.69
313.15	0.085	0.458	1114.1	2.69
313.15	0.091	0.546	1121.6	2.69
313.15	0.094	0.634	1125.5	2.69
313.15	0.1	0.54	1131.4	2.69
313.15	0.104	0.627	1135.6	2.69
323.15	0	0.5	1026.1	2.71
323.15	0	0.6	1031.2	2.7
323.15	0	0.7	1033.6	2.68
323.15	0	0.8	1032.6	2.69
323.15	0.009	0.495	1034.6	2.7
323.15	0.011	0.593	1040.7	2.69
323.15	0.013	0.691	1044.9	2.68
323.15	0.015	0.788	1044.5	2.69
323.15	0.018	0.491	1042.9	2.7
323.15	0.022	0.587	1050.1	2.69
323.15	0.025	0.682	1054.9	2.68
323.15	0.027	0.487	1051.2	2.69
323.15	0.029	0.777	1055.4	2.7
323.15	0.032	0.581	1059.1	2.69
323.15	0.036	0.482	1059.4	2.7
323.15	0.037	0.674	1065.7	2.68
323.15	0.042	0.575	1068.3	2.69
323.15	0.042	0.766	1067.5	2.7
323.15	0.044	0.478	1067.6	2.69
323.15	0.049	0.666	1076.3	2.69
323.15	0.052	0.474	1075.6	2.69
323.15	0.052	0.569	1077.6	2.69
323.15	0.056	0.755	1078.5	2.71
323.15	0.061	0.47	1084	2.69
323.15	0.061	0.658	1087.1	2.69
323.15	0.062	0.563	1086.9	2.69
323.15	0.069	0.466	1092.4	2.68
323.15	0.072	0.557	1096.1	2.69
323.15	0.072	0.65	1097.8	2.69
323.15	0.077	0.462	1100	2.68
323.15	0.083	0.642	1107.7	2.69
323.15	0.085	0.458	1106.7	2.68
323.15	0.094	0.634	1117.4	2.69
333.15	0	0.5	1018.9	2.71
333.15	0	0.6	1023.6	2.69
333.15	0	0.7	1025.6	2.68
333.15	0	0.8	1024.6	2.69
333.15	0.009	0.495	1027.4	2.7
333.15	0.011	0.593	1033.1	2.69
333.15	0.013	0.691	1036.6	2.68
333.15	0.015	0.788	1036.5	2.69
333.15	0.018	0.491	1035.7	2.69
333.15	0.022	0.587	1042.6	2.69
333.15	0.025	0.682	1047.1	2.68
333.15	0.027	0.487	1044.1	2.69
333.15	0.029	0.777	1047.5	2.7
333.15	0.032	0.581	1051.6	2.69
333.15	0.036	0.482	1052.3	2.7
333.15	0.037	0.674	1057.9	2.68
333.15	0.042	0.575	1060.9	2.69
333.15	0.042	0.766	1059.5	2.7
333.15	0.044	0.478	1060.5	2.69
333.15	0.049	0.666	1068.7	2.69
333.15	0.052	0.474	1068.6	2.69
333.15	0.052	0.569	1070.2	2.69
333.15	0.061	0.658	1079.4	2.69
333.15	0.062	0.563	1079.5	2.68
333.15	0.072	0.557	1088.8	2.68
343.15	0	0.5	1011.4	2.7
343.15	0	0.6	1015.6	2.69
343.15	0	0.7	1017.4	2.68
343.15	0	0.8	1016.4	2.69
343.15	0.009	0.495	1019.9	2.7
343.15	0.011	0.593	1025.3	2.69
343.15	0.013	0.691	1028.5	2.68
343.15	0.015	0.788	1028.2	2.69
343.15	0.018	0.491	1028.3	2.69
343.15	0.022	0.587	1034.8	2.69
343.15	0.025	0.682	1039.1	2.69
343.15	0.027	0.487	1036.6	2.69
343.15	0.029	0.777	1039.1	2.7
343.15	0.032	0.581	1043.8	2.69
343.15	0.036	0.482	1043.9	2.69
343.15	0.037	0.674	1049.9	2.68
343.15	0.042	0.766	1051.56	2.7
353.15	0	0.5	1003.5	2.7
353.15	0	0.6	1007.4	2.69
353.15	0	0.7	1009	2.68
353.15	0	0.8	1007.9	2.69
353.15	0.009	0.495	1012.1	2.69
353.15	0.011	0.593	1017.2	2.69
353.15	0.013	0.691	1020.1	2.68
353.15	0.015	0.788	1019.7	2.69
353.15	0.018	0.491	1020.5	2.69
353.15	0.022	0.587	1026.7	2.69
353.15	0.025	0.682	1030.7	2.69
363.15	0	0.5	995.3	2.7
363.15	0	0.6	998.9	2.69
363.15	0	0.7	1000.4	2.68
363.15	0	0.8	999.3	2.69
363.15	0.009	0.495	1004	2.69
363.15	0.011	0.593	1008.7	2.69
363.15	0.013	0.691	1012.1	2.68
363.15	0.015	0.788	1010.8	2.69

System: N-methyldiethanolamine + carbon dioxide + water; phases: Liquid
Fixed: Pressure, kPa = 800
Property: Mass density, kg/m3 (Liquid); method: Vibrating tube method
Temperature, K	Mass fraction of carbon dioxide	Mass fraction of N-methyldiethanolamine	Mass density, kg/m3	uncertainty
303.15	0.117	0.706	1155.69	2.69
303.15	0.129	0.697	1167.68	2.69
313.15	0.094	0.725	1125.5	2.69
313.15	0.106	0.715	1136.51	2.69
313.15	0.117	0.706	1148.42	2.69
313.15	0.129	0.697	1160.38	2.69
323.15	0.069	0.745	1092.58	2.7
323.15	0.081	0.551	1105.92	2.68
323.15	0.081	0.735	1104.83	2.69
323.15	0.091	0.546	1115.08	2.69
323.15	0.094	0.725	1117.73	2.69
323.15	0.1	0.54	1125.01	2.69
323.15	0.106	0.715	1128.74	2.69
333.15	0.056	0.755	1070.94	2.69
333.15	0.061	0.47	1077.22	2.69
333.15	0.069	0.466	1085.71	2.68
333.15	0.069	0.745	1084.47	2.7
333.15	0.072	0.65	1090.68	2.7
333.15	0.077	0.462	1093.28	2.69
333.15	0.081	0.551	1098.64	2.69
333.15	0.081	0.735	1096.63	2.69
333.15	0.083	0.642	1100.77	2.69
333.15	0.085	0.458	1100.8	2.69
333.15	0.091	0.546	1107.84	2.69
333.15	0.094	0.634	1111.33	2.69
333.15	0.1	0.54	1117.82	2.69
333.15	0.104	0.627	1120.97	2.69
333.15	0.114	0.62	1132.41	2.7
343.15	0.042	0.575	1053.66	2.68
343.15	0.044	0.478	1053.48	2.69
343.15	0.049	0.666	1061.06	2.68
343.15	0.052	0.474	1061.59	2.69
343.15	0.052	0.569	1063.07	2.68
343.15	0.056	0.755	1062.4	2.69
343.15	0.061	0.47	1069.98	2.69
343.15	0.061	0.658	1069.76	2.69
343.15	0.062	0.563	1072.49	2.68
343.15	0.069	0.466	1078.42	2.68
343.15	0.069	0.745	1075.75	2.71
343.15	0.072	0.557	1081.68	2.68
343.15	0.072	0.65	1082.63	2.69
343.15	0.077	0.462	1086.05	2.69
343.15	0.081	0.551	1091.07	2.68
343.15	0.081	0.735	1087.76	2.7
343.15	0.083	0.642	1092.71	2.69
343.15	0.085	0.458	1093.55	2.69
343.15	0.091	0.546	1100.27	2.69
343.15	0.094	0.634	1103.23	2.69
343.15	0.104	0.627	1112.81	2.69
343.15	0.114	0.62	1124.2	2.7
353.15	0.027	0.487	1029.16	2.69
353.15	0.029	0.777	1030.71	2.7
353.15	0.032	0.581	1036.23	2.68
353.15	0.036	0.482	1037.4	2.7
353.15	0.037	0.674	1041.51	2.69
353.15	0.042	0.575	1045.49	2.68
353.15	0.042	0.766	1042.36	2.7
353.15	0.044	0.478	1045.81	2.69
353.15	0.049	0.666	1052.04	2.68
353.15	0.052	0.474	1053.59	2.69
353.15	0.052	0.569	1055.11	2.68
353.15	0.056	0.755	1052.98	2.72
353.15	0.061	0.47	1062.07	2.68
353.15	0.061	0.658	1062.77	2.69
353.15	0.062	0.563	1064.5	2.68
353.15	0.069	0.466	1070.45	2.68
353.15	0.069	0.745	1065.79	2.71
353.15	0.072	0.557	1073.37	2.68
353.15	0.072	0.65	1073.09	2.69
353.15	0.081	0.551	1083.56	2.69
353.15	0.083	0.642	1082.81	2.69
353.15	0.091	0.546	1092.21	2.69
353.15	0.094	0.634	1092.87	2.69
363.15	0.018	0.491	1012.61	2.69
363.15	0.022	0.587	1018.47	2.68
363.15	0.025	0.682	1022.05	2.69
363.15	0.027	0.487	1021.08	2.69
363.15	0.029	0.777	1021.4	2.71
363.15	0.032	0.581	1027.8	2.68
363.15	0.036	0.482	1029.34	2.69
363.15	0.037	0.674	1032.64	2.69
363.15	0.042	0.575	1037.07	2.68
363.15	0.042	0.766	1032.58	2.71
363.15	0.044	0.478	1037.62	2.69
363.15	0.049	0.666	1042.95	2.69
363.15	0.052	0.474	1045.57	2.68
363.15	0.052	0.569	1046.5	2.68
363.15	0.061	0.47	1053.99	2.68
363.15	0.061	0.658	1053.52	2.69
363.15	0.062	0.563	1055.86	2.68
363.15	0.072	0.557	1064.68	2.69
363.15	0.072	0.65	1063.57	2.69
373.15	0	0.5	987	2.69
373.15	0	0.6	990.32	2.69
373.15	0	0.7	991.79	2.68
373.15	0	0.8	990.82	2.69
373.15	0.009	0.495	995.82	2.69
373.15	0.011	0.593	1000.13	2.68
373.15	0.013	0.691	1002.74	2.68
373.15	0.015	0.788	1001.71	2.69
373.15	0.018	0.491	1004.11	2.69
373.15	0.022	0.587	1009.68	2.68
373.15	0.025	0.682	1012.82	2.69
373.15	0.027	0.487	1012.57	2.69
373.15	0.029	0.777	1011.4	2.71
373.15	0.032	0.581	1018.9	2.68
373.15	0.036	0.482	1020.79	2.69
373.15	0.037	0.674	1023.13	2.68
373.15	0.042	0.575	1028.12	2.69
373.15	0.044	0.478	1029.03	2.68
373.15	0.049	0.666	1033.09	2.69
373.15	0.052	0.474	1036.92	2.68
373.15	0.052	0.569	1037.32	2.68
373.15	0.061	0.47	1045.25	2.68
373.15	0.062	0.563	1046.41	2.68
383.15	0	0.5	978.16	2.69
383.15	0	0.6	981.18	2.69
383.15	0	0.7	982.65	2.68
383.15	0	0.8	981.74	2.69
383.15	0.009	0.495	986.87	2.69
383.15	0.011	0.593	991.03	2.68
383.15	0.013	0.691	993.31	2.69
383.15	0.015	0.788	991.87	2.69
383.15	0.018	0.491	995.13	2.68
383.15	0.022	0.587	1000.31	2.68
383.15	0.025	0.682	1002.9	2.69
383.15	0.027	0.487	1003.47	2.68
383.15	0.029	0.777	1000.54	2.71
383.15	0.032	0.581	1009.33	2.69
383.15	0.036	0.482	1011.55	2.69
383.15	0.042	0.575	1018.35	2.68
383.15	0.044	0.478	1019.68	2.68
383.15	0.052	0.474	1027.3	2.68
383.15	0.052	0.569	1027.14	2.68
393.15	0	0.5	968.93	2.69
393.15	0	0.6	971.76	2.69
393.15	0	0.7	973.23	2.68
393.15	0	0.8	972.51	2.69
393.15	0.009	0.495	977.66	2.69
393.15	0.011	0.593	981.44	2.68
393.15	0.013	0.691	983.36	2.69
393.15	0.015	0.788	981.42	2.7
393.15	0.018	0.491	985.82	2.68
393.15	0.022	0.587	990.35	2.68
393.15	0.025	0.682	992.22	2.68
393.15	0.027	0.487	993.97	2.68
393.15	0.032	0.581	998.96	2.69
393.15	0.036	0.482	1001.83	2.68
403.15	0	0.5	959.28	2.69
403.15	0	0.6	962.08	2.69
403.15	0	0.7	963.68	2.68
403.15	0	0.8	963.09	2.69
403.15	0.009	0.495	967.91	2.69
403.15	0.011	0.593	971.37	2.68
403.15	0.013	0.691	972.94	2.69
403.15	0.015	0.788	969.89	2.7
403.15	0.018	0.491	975.88	2.68
403.15	0.022	0.587	979.64	2.69
413.15	0	0.5	949.4	2.69
413.15	0	0.6	952.13	2.69
413.15	0	0.7	953.72	2.68
413.15	0	0.8	953.38	2.69
413.15	0.009	0.495	957.72	2.69
413.15	0.011	0.593	960.85	2.68
413.15	0.013	0.691	961.93	2.68
413.15	0.018	0.491	965.18	2.68
413.15	0.022	0.587	967.98	2.68
423.15	0	0.5	939.06	2.69
423.15	0	0.6	941.91	2.69
423.15	0	0.7	943.63	2.68
423.15	0	0.8	943.53	2.69
423.15	0.009	0.495	947	2.68
423.15	0.011	0.593	949.77	2.68
423.15	0.013	0.691	950.27	2.68
