Measured thermophysical data. Isothermal Vapor Liquid Equilibrium Data for the 1,1,2,2-Tetrafluoroethene + 1,1,2,2,3,3,4,4-Octafluorocyclobutane Binary System: Measurement and Modeling from (248 to 283) K
Source: J. Chem. Eng. Data, 2012, 10.1021/je300217x
Compound 1: tetrafluoroethene, C2F4, InChI=1S/C2F4/c3-1(4)2(5)6, purity 99.8%
Compound 2: octafluorocyclobutane, C4F8, InChI=1S/C4F8/c5-1(6)2(7,8)4(11,12)3(1,9)10, purity 99.7%

System: tetrafluoroethene; phases: Liquid, Gas
Property: Vapor or sublimation pressure, kPa (Liquid); method: Closed cell (Static) method
Temperature, K	Vapor or sublimation pressure, kPa	uncertainty
248.2	864	7
248.3	866	8
253.34	1017	8
263	1357	10
263.18	1367	9
273.14	1804	11
282.9	2330	12
283.19	2340	12

System: octafluorocyclobutane; phases: Liquid, Gas
Property: Vapor or sublimation pressure, kPa (Liquid); method: Closed cell (Static) method
Temperature, K	Vapor or sublimation pressure, kPa	uncertainty
247.9	39	3
248.25	41	3
248.3	40	3
253.38	51	3
263	81	3
265.93	92	3
267.92	99	3
269.89	110	3
272.9	122	3
277.87	148	3
282.9	180	3
287.89	216	3
292.89	257	4
303.37	362	4
313.09	486	4
322.53	635	5
335.34	889	5
342.37	1055	6
352.36	1329	7

System: octafluorocyclobutane + tetrafluoroethene; phases: Liquid, Gas
Property: Vapor or sublimation pressure, kPa (Liquid); method: Closed cell (Static) method
Mole fraction of tetrafluoroethene	Temperature, K	Vapor or sublimation pressure, kPa	uncertainty
0	248.3	40	3
0	263	81	3
0	282.9	180	3
0.052	282.9	252	23
0.137	282.9	398	24
0.155	263	254	15
0.251	282.9	594	25
0.268	263	366	15
0.318	248.3	256	10
0.32	282.9	720	25
0.344	263	450	15
0.395	248.3	307	11
0.417	263	535	18
0.423	282.9	897	26
0.449	248.3	349	13
0.472	263	607	22
0.481	248.3	380	13
0.513	282.9	1065	29
0.534	263	699	19
0.538	248.3	427	13
0.598	248.3	477	13
0.603	282.9	1257	31
0.617	263	798	18
0.654	248.3	525	14
0.681	282.9	1427	35
0.688	263	897	20
0.698	248.3	569	15
0.742	248.3	615	16
0.763	263	994	21
0.763	282.9	1645	41
1	248.3	866	8
1	263	1357	10
1	282.9	2330	12

System: octafluorocyclobutane + tetrafluoroethene; phases: Gas, Liquid
Property: Mole fraction of tetrafluoroethene (Gas); method: Chromatography
Mole fraction of tetrafluoroethene	Temperature, K	Mole fraction of tetrafluoroethene	uncertainty
0	248.3	0	
0	263	0	
0	282.9	0	
0.052	282.9	0.329	0.06
0.137	282.9	0.585	0.032
0.155	263	0.72	0.046
0.251	282.9	0.741	0.022
0.268	263	0.815	0.017
0.318	248.3	0.88	0.015
0.32	282.9	0.794	0.017
0.344	263	0.851	0.015
0.395	248.3	0.907	0.015
0.417	263	0.883	0.015
0.423	282.9	0.849	0.015
0.449	248.3	0.923	0.015
0.472	263	0.908	0.015
0.481	248.3	0.932	0.014
0.513	282.9	0.882	0.015
0.534	263	0.923	0.014
0.538	248.3	0.944	0.014
0.598	248.3	0.955	0.014
0.603	282.9	0.912	0.015
0.617	263	0.94	0.014
0.654	248.3	0.963	0.014
0.681	282.9	0.931	0.014
0.688	263	0.957	0.014
0.698	248.3	0.969	0.014
0.742	248.3	0.974	0.014
0.763	263	0.968	0.014
0.763	282.9	0.951	0.014
1	248.3	1	
1	263	1	
1	282.9	1	
