Measured thermophysical data. Synthesis and Thermophysical Properties of Biocompatible Cholinium-Based Amino Acid Ionic Liquids
Source: J. Chem. Eng. Data, 2013, 10.1021/je301103d
Compound 1: 2-hydroxy-N,N,N-trimethylethanaminium glycinate, C7H18N2O3, InChI=1S/C5H14NO.C2H5NO2/c1-6(2,3)4-5-7;3-1-2(4)5/h7H,4-5H2,1-3H3;1,3H2,(H,4,5)/q+1;/p-1
Compound 2: 2-hydroxy-N,N,N-trimethylethanaminium L-alaninate, C8H20N2O3, InChI=1S/C5H14NO.C3H7NO2/c1-6(2,3)4-5-7;1-2(4)3(5)6/h7H,4-5H2,1-3H3;2H,4H2,1H3,(H,5,6)/q+1;/p-1/t;2-/m.0/s1
Compound 3: 2-hydroxy-N,N,N-trimethylethanaminium .beta.-alaninate, C8H20N2O3, InChI=1S/C5H14NO.C3H7NO2/c1-6(2,3)4-5-7;4-2-1-3(5)6/h7H,4-5H2,1-3H3;1-2,4H2,(H,5,6)/q+1;/p-1
Compound 4: 2-hydroxy-N,N,N-trimethylethanaminium L-prolinate, C10H22N2O3, InChI=1S/C5H9NO2.C5H14NO/c7-5(8)4-2-1-3-6-4;1-6(2,3)4-5-7/h4,6H,1-3H2,(H,7,8);7H,4-5H2,1-3H3/q;+1/p-1/t4-;/m0./s1
Compound 5: 2-hydroxy-N,N,N-trimethylethanaminium L-serinate, C8H20N2O4, InChI=1S/C5H14NO.C3H7NO3/c1-6(2,3)4-5-7;4-2(1-5)3(6)7/h7H,4-5H2,1-3H3;2,5H,1,4H2,(H,6,7)/q+1;/p-1/t;2-/m.0/s1

System: 2-hydroxy-N,N,N-trimethylethanaminium glycinate; phases: Liquid
Fixed: Pressure, kPa = 101.325
Property: Mass density, kg/m3 (Liquid); method: Vibrating tube method
Temperature, K	Mass density, kg/m3	uncertainty
298.15	1145.2	2.03
303.15	1142.31	2.03
308.15	1139.43	2.03
313.15	1136.7	2.02
318.15	1133.97	2.02
323.15	1131.22	2.02
328.15	1128.46	2.02
333.15	1125.7	2.02
338.15	1122.93	2.02
343.15	1120.22	2.02
348.15	1117.53	2.02
353.15	1114.83	2.02

System: 2-hydroxy-N,N,N-trimethylethanaminium glycinate; phases: Liquid
Fixed: Pressure, kPa = 101.325
Property: Viscosity, Pa*s (Liquid); method: Cone and plate viscometry
Temperature, K	Viscosity, Pa*s	uncertainty
298.15	0.1823	0.0206
303.15	0.1199	0.0134
308.15	0.0843	0.0093
313.15	0.0502	0.0056
318.15	0.0294	0.0033
323.15	0.0199	0.0022
328.15	0.0143	0.0016
333.15	0.0104	0.0011
338.15	0.0072	0.0008
343.15	0.0055	0.0006
348.15	0.0043	0.0005
353.15	0.0035	0.0004

System: 2-hydroxy-N,N,N-trimethylethanaminium glycinate; phases: Liquid
Fixed: Pressure, kPa = 101.325
Property: Refractive index (Na D-line) (Liquid); method: Standard Abbe refractometry
Temperature, K	Refractive index (Na D-line)	uncertainty
293.15	1.5238	0.0011
298.15	1.5224	0.0011
303.15	1.5213	0.0011
308.15	1.5204	0.0011
313.15	1.5194	0.0011
318.15	1.5182	0.0011
323.15	1.5171	0.0011
328.15	1.5158	0.0011
333.15	1.5148	0.0011
338.15	1.5137	0.0011
343.15	1.5125	0.0011

System: 2-hydroxy-N,N,N-trimethylethanaminium glycinate; phases: Liquid
Fixed: Pressure, kPa = 101.325
Property: Electrical conductivity, S/m (Liquid); method: conductivity meter (DDJS-308A)
Temperature, K	Electrical conductivity, S/m	uncertainty
298.15	0.00677	0.00021
303.15	0.0104	0.00031
308.15	0.01468	0.00044
313.15	0.02203	0.00066
318.15	0.02921	0.00088
323.15	0.03882	0.00117
328.15	0.04967	0.00149
333.15	0.06093	0.00183
338.15	0.07813	0.00235
343.15	0.09927	0.00298
348.15	0.12187	0.00366
353.15	0.14994	0.0045

System: 2-hydroxy-N,N,N-trimethylethanaminium L-alaninate; phases: Liquid
Fixed: Pressure, kPa = 101.325
Property: Mass density, kg/m3 (Liquid); method: Vibrating tube method
Temperature, K	Mass density, kg/m3	uncertainty
298.15	1112.94	2.02
303.15	1110.07	2.02
308.15	1107.01	2.02
313.15	1104.04	2.02
318.15	1101.21	2.02
323.15	1098.37	2.02
328.15	1095.54	2.02
333.15	1092.69	2.02
338.15	1089.85	2.02
343.15	1087.04	2.02
348.15	1084.27	2.02
353.15	1081.51	2.02

System: 2-hydroxy-N,N,N-trimethylethanaminium L-alaninate; phases: Liquid
Fixed: Pressure, kPa = 101.325
Property: Viscosity, Pa*s (Liquid); method: Cone and plate viscometry
Temperature, K	Viscosity, Pa*s	uncertainty
298.15	0.3856	0.045
303.15	0.2349	0.0268
308.15	0.1368	0.0153
313.15	0.089	0.0099
318.15	0.0518	0.0057
323.15	0.0315	0.0035
328.15	0.0215	0.0024
333.15	0.014	0.0015
338.15	0.01	0.0011
343.15	0.0074	0.0008
348.15	0.0057	0.0006
353.15	0.0044	0.0005

System: 2-hydroxy-N,N,N-trimethylethanaminium L-alaninate; phases: Liquid
Fixed: Pressure, kPa = 101.325
Property: Refractive index (Na D-line) (Liquid); method: Standard Abbe refractometry
Temperature, K	Refractive index (Na D-line)	uncertainty
293.15	1.5146	0.0011
298.15	1.514	0.0011
303.15	1.5127	0.0011
308.15	1.5118	0.0011
313.15	1.5105	0.0011
318.15	1.5094	0.0011
323.15	1.5084	0.0011
328.15	1.5072	0.0011
333.15	1.506	0.0011
338.15	1.5052	0.0011
343.15	1.5041	0.0011

System: 2-hydroxy-N,N,N-trimethylethanaminium L-alaninate; phases: Liquid
Fixed: Pressure, kPa = 101.325
Property: Electrical conductivity, S/m (Liquid); method: conductivity meter (DDJS-308A)
Temperature, K	Electrical conductivity, S/m	uncertainty
298.15	0.00213	7e-05
303.15	0.00577	0.00018
308.15	0.00907	0.00027
313.15	0.01255	0.00038
318.15	0.01704	0.00051
323.15	0.02493	0.00075
328.15	0.03093	0.00093
333.15	0.03973	0.00119
338.15	0.05181	0.00156
343.15	0.06555	0.00197
348.15	0.08223	0.00247
353.15	0.10063	0.00302

System: 2-hydroxy-N,N,N-trimethylethanaminium .beta.-alaninate; phases: Liquid
Fixed: Pressure, kPa = 101.325
Property: Mass density, kg/m3 (Liquid); method: Vibrating tube method
Temperature, K	Mass density, kg/m3	uncertainty
298.15	1120.29	2.02
303.15	1117.51	2.02
308.15	1114.55	2.02
313.15	1111.77	2.02
318.15	1108.98	2.02
323.15	1106.2	2.02
328.15	1103.43	2.02
333.15	1100.63	2.02
338.15	1097.83	2.02
343.15	1095.04	2.02
348.15	1092.32	2.02
353.15	1089.6	2.02

System: 2-hydroxy-N,N,N-trimethylethanaminium .beta.-alaninate; phases: Liquid
Fixed: Pressure, kPa = 101.325
Property: Viscosity, Pa*s (Liquid); method: Cone and plate viscometry
Temperature, K	Viscosity, Pa*s	uncertainty
298.15	5.0921	0.7102
303.15	3.0222	0.405
308.15	1.8204	0.2347
313.15	1.1462	0.1429
318.15	0.7232	0.0875
323.15	0.4707	0.0555
328.15	0.3224	0.0373
333.15	0.2207	0.0251
338.15	0.1559	0.0175
343.15	0.112	0.0125
348.15	0.0793	0.0088
353.15	0.0567	0.0063

System: 2-hydroxy-N,N,N-trimethylethanaminium .beta.-alaninate; phases: Liquid
Fixed: Pressure, kPa = 101.325
Property: Refractive index (Na D-line) (Liquid); method: Standard Abbe refractometry
Temperature, K	Refractive index (Na D-line)	uncertainty
293.15	1.5322	0.0011
298.15	1.5313	0.0011
303.15	1.5306	0.0011
308.15	1.5294	0.0011
313.15	1.5285	0.0011
318.15	1.5277	0.0011
323.15	1.5266	0.0011
328.15	1.526	0.0011
333.15	1.5249	0.0011
338.15	1.5238	0.0011
343.15	1.5225	0.0011

System: 2-hydroxy-N,N,N-trimethylethanaminium .beta.-alaninate; phases: Liquid
Fixed: Pressure, kPa = 101.325
Property: Electrical conductivity, S/m (Liquid); method: conductivity meter (DDJS-308A)
Temperature, K	Electrical conductivity, S/m	uncertainty
298.15	0.00071	2e-05
303.15	0.00143	4e-05
308.15	0.00268	8e-05
313.15	0.00494	0.00015
318.15	0.00907	0.00027
323.15	0.01336	0.0004
328.15	0.01778	0.00053
333.15	0.02272	0.00068
338.15	0.02955	0.00089
343.15	0.03791	0.00114
348.15	0.04962	0.00149
353.15	0.06154	0.00185

System: 2-hydroxy-N,N,N-trimethylethanaminium L-prolinate; phases: Liquid
Fixed: Pressure, kPa = 101.325
Property: Mass density, kg/m3 (Liquid); method: Vibrating tube method
Temperature, K	Mass density, kg/m3	uncertainty
298.15	1121.04	2.02
303.15	1118.21	2.02
308.15	1115.35	2.02
313.15	1112.49	2.02
318.15	1109.61	2.02
323.15	1106.69	2.02
328.15	1132.1605	2.02
333.15	1100.61	2.02
338.15	1097.81	2.02
343.15	1095.03	2.02
348.15	1092.12	2.02
353.15	1089.39	2.02

System: 2-hydroxy-N,N,N-trimethylethanaminium L-prolinate; phases: Liquid
Fixed: Pressure, kPa = 101.325
Property: Viscosity, Pa*s (Liquid); method: Cone and plate viscometry
Temperature, K	Viscosity, Pa*s	uncertainty
298.15	10.6438	1.578
303.15	5.4373	0.7651
308.15	2.8246	0.3773
313.15	1.5153	0.1932
318.15	0.8391	0.1027
323.15	0.4635	0.0547
328.15	0.307	0.0355
333.15	0.1637	0.0185
338.15	0.114	0.0127
343.15	0.0701	0.0078
348.15	0.0463	0.0051
353.15	0.0337	0.0037

System: 2-hydroxy-N,N,N-trimethylethanaminium L-prolinate; phases: Liquid
Fixed: Pressure, kPa = 101.325
Property: Refractive index (Na D-line) (Liquid); method: Standard Abbe refractometry
Temperature, K	Refractive index (Na D-line)	uncertainty
293.15	1.5419	0.0011
298.15	1.5408	0.0011
303.15	1.5402	0.0011
308.15	1.539	0.0011
313.15	1.5379	0.0011
318.15	1.5367	0.0011
323.15	1.5355	0.0011
328.15	1.5344	0.0011
333.15	1.5329	0.0011
338.15	1.5317	0.0011
343.15	1.5306	0.0011

System: 2-hydroxy-N,N,N-trimethylethanaminium L-prolinate; phases: Liquid
Fixed: Pressure, kPa = 101.325
Property: Electrical conductivity, S/m (Liquid); method: conductivity meter (DDJS-308A)
Temperature, K	Electrical conductivity, S/m	uncertainty
298.15	3e-05	1e-05
303.15	0.00013	1e-05
308.15	0.00035	1e-05
313.15	0.0007	2e-05
318.15	0.0013	4e-05
323.15	0.00204	6e-05
328.15	0.00291	9e-05
333.15	0.00435	0.00013
338.15	0.00552	0.00017
343.15	0.00649	0.00019
348.15	0.00779	0.00023
353.15	0.00941	0.00028

System: 2-hydroxy-N,N,N-trimethylethanaminium L-serinate; phases: Liquid
Fixed: Pressure, kPa = 101.325
Property: Mass density, kg/m3 (Liquid); method: Vibrating tube method
Temperature, K	Mass density, kg/m3	uncertainty
298.15	1191.51	2.03
303.15	1188.65	2.03
308.15	1185.79	2.03
313.15	1182.9	2.03
318.15	1179.92	2.03
323.15	1176.87	2.03
328.15	1173.97	2.03
333.15	1171.2	2.03
338.15	1168.38	2.03
343.15	1165.5	2.03
348.15	1162.54	2.03
353.15	1159.37	2.03

System: 2-hydroxy-N,N,N-trimethylethanaminium L-serinate; phases: Liquid
Fixed: Pressure, kPa = 101.325
Property: Viscosity, Pa*s (Liquid); method: Cone and plate viscometry
Temperature, K	Viscosity, Pa*s	uncertainty
298.15	11.5437	1.7221
303.15	6.5431	0.933
308.15	3.7933	0.5176
313.15	2.1865	0.286
318.15	1.306	0.1644
323.15	0.8115	0.0989
328.15	0.5229	0.062
333.15	0.3466	0.0402
338.15	0.2377	0.0271
343.15	0.1675	0.0189
348.15	0.1201	0.0134
353.15	0.0902	0.01

System: 2-hydroxy-N,N,N-trimethylethanaminium L-serinate; phases: Liquid
Fixed: Pressure, kPa = 101.325
Property: Refractive index (Na D-line) (Liquid); method: Standard Abbe refractometry
Temperature, K	Refractive index (Na D-line)	uncertainty
293.15	1.5447	0.0011
298.15	1.5429	0.0011
303.15	1.5416	0.0011
308.15	1.5408	0.0011
313.15	1.5397	0.0011
318.15	1.5388	0.0011
323.15	1.5382	0.0011
328.15	1.5366	0.0011
333.15	1.5349	0.0011
338.15	1.5341	0.0011
343.15	1.5326	0.0011

System: 2-hydroxy-N,N,N-trimethylethanaminium L-serinate; phases: Liquid
Fixed: Pressure, kPa = 101.325
Property: Electrical conductivity, S/m (Liquid); method: conductivity meter (DDJS-308A)
Temperature, K	Electrical conductivity, S/m	uncertainty
298.15	0.00093	3e-05
303.15	0.00145	4e-05
308.15	0.00229	7e-05
313.15	0.00359	0.00011
318.15	0.00553	0.00017
323.15	0.00833	0.00025
328.15	0.01217	0.00037
333.15	0.01749	0.00053
338.15	0.02664	0.0008
343.15	0.03703	0.00111
348.15	0.04954	0.00149
353.15	0.06881	0.00207
