Measured thermophysical data. Liquid-Phase p-rho-T Data for 2,3,3,3-Tetrafluoroprop-1-ene (R-1234yf) and 1,1,2,3,3,3-Hexafluoroprop-1-ene (R-1216) at Temperatures from (208 to 353) K under Pressures up to 40 MPa
Source: J. Chem. Eng. Data, 2012, 10.1021/je3009304
Compound 1: 2,3,3,3-tetrafluoro-1-propene, C3H2F4, InChI=1S/C3H2F4/c1-2(4)3(5,6)7/h1H2, purity 99.5%
Compound 2: hexafluoropropene, C3F6, InChI=1S/C3F6/c4-1(2(5)6)3(7,8)9, purity 99%

System: 2,3,3,3-tetrafluoro-1-propene; phases: Liquid
Property: Mass density, kg/m3 (Liquid); method: Pycnometric method
Temperature, K	Pressure, kPa	Mass density, kg/m3	uncertainty
298.15	2000	1101.34	1.01

System: 2,3,3,3-tetrafluoro-1-propene; phases: Liquid
Property: Mass density, kg/m3 (Liquid); method: ISOCHOR
Temperature, K	Pressure, kPa	Mass density, kg/m3	uncertainty
217.437	14681	1363.7	1.3
218.273	962.6	1333.8	1.3
219.231	2020.3	1333.7	1.3
220.223	3106.5	1333.6	1.3
221.182	4140.3	1333.5	1.3
221.975	20077	1363.2	1.3
222.057	5097	1333.4	1.3
226.646	10087	1332.9	1.3
226.927	25988	1362.7	1.3
230.272	29902	1362.4	1.3
231.245	15017	1332.4	1.3
231.72	1001.1	1298.5	1.3
232.842	2093.9	1298.4	1.3
233.761	2987	1298.2	1.3
234.772	35121	1361.9	1.3
234.923	4113.3	1298.2	1.3
236.022	20027	1332	1.3
236.133	5205.1	1298	1.3
240.494	24777	1331.5	1.3
241.057	10038	1297.5	1.3
245.591	30165	1331	1.3
246.222	14993	1297.1	1.3
250.284	35113	1330.6	1.3
251.429	19983	1296.6	1.3
251.62	971.2	1243.5	1.2
252.832	1949.3	1243.4	1.2
254.255	3101.8	1243.3	1.2
254.958	39964	1330.1	1.3
255.482	4096.7	1243.2	1.2
256.696	5077.8	1243.1	1.2
256.718	25008	1296.1	1.3
261.887	29860	1295.6	1.3
262.978	10262	1242.5	1.2
267.49	35084	1295.1	1.3
269.009	15092	1242	1.2
269.389	1033.4	1191.1	1.2
270.875	2044.5	1190.9	1.2
272.338	3041.1	1190.8	1.2
272.52	39731	1294.7	1.3
273.794	4025.5	1190.7	1.2
275.28	5036.3	1190.6	1.2
275.305	20033	1241.4	1.2
282.03	25427	1240.8	1.2
282.827	10183	1189.9	1.2
282.948	1036	1147.5	1.2
284.616	2015.3	1147.4	1.2
286.309	3030.5	1147.2	1.2
287.706	29892	1240.4	1.2
287.889	3962.5	1147.1	1.2
289.95	15007	1189.4	1.2
289.989	5188	1146.9	1.2
294.099	34879	1239.8	1.2
297.114	19748	1188.8	1.2
297.154	1034.7	1097.2	1.2
298.153	9991.7	1146.3	1.2
299.151	2029.1	1097.1	1.2
300.614	39892	1239.3	1.2
301.157	3031.3	1096.9	1.2
303.025	3977.9	1096.8	1.2
304.9	24929	1188.2	1.2
305.467	5182.3	1096.6	1.2
306.325	14776	1145.7	1.2
312.454	29920	1187.5	1.2
315.083	9982	1095.9	1.2
315.087	19876	1145	1.2
315.954	2247.5	1032.9	1.2
317.455	2859.3	1032.8	1.2
320.1	34906	1187	1.2
320.317	4014.4	1032.6	1.2
322.671	4967.1	1032.4	1.2
323.866	24958	1144.4	1.2
325.073	14981	1095.2	1.2
325.164	5973.9	1032.3	1.2
325.164	5973.9	1032.3	1.2
327.899	39962	1186.4	1.2
332.597	29948	1143.7	1.2
335.169	19964	1094.5	1.2
335.171	2008.9	935	1.2
335.177	10007	1031.6	1.2
338.628	3007.2	934.8	1.2
341.488	35032	1143.1	1.2
342.028	3976.9	934.7	1.2
345.34	25002	1093.8	1.2
345.42	4963.5	934.5	1.2
347.197	14893	1030.8	1.2
350.329	40033	1142.5	1.2
353.143	28869	1093.3	1.2
353.146	17361	1030.5	1.2
353.149	7224.7	934	1.2

System: hexafluoropropene; phases: Liquid
Property: Mass density, kg/m3 (Liquid); method: Pycnometric method
Temperature, K	Pressure, kPa	Mass density, kg/m3	uncertainty
298.15	2000	1326.6	1.33

System: hexafluoropropene; phases: Liquid
Property: Mass density, kg/m3 (Liquid); method: ISOCHOR
Temperature, K	Pressure, kPa	Mass density, kg/m3	uncertainty
208.661	4440.7	1666.3	1.6
212.774	9785.5	1665.7	1.6
217.149	15655	1665.1	1.6
220.499	19878	1664.7	1.6
220.702	1017.1	1618	1.6
221.576	1995.2	1617.9	1.6
222.504	3032.3	1617.8	1.6
223.259	3878.8	1617.7	1.6
224.305	5176.5	1617.5	1.6
224.324	25024	1664.2	1.6
228.252	29978	1663.7	1.6
228.758	10104	1616.9	1.6
232.021	34664	1663.2	1.6
233.173	15012	1616.4	1.6
236.263	39771	1662.7	1.6
237.663	1075	1560.8	1.6
237.671	20020	1615.8	1.6
238.622	2000	1560.7	1.6
239.743	3075.4	1560.5	1.6
240.8	4091.1	1560.4	1.6
241.911	5150.8	1560.2	1.6
241.948	25034	1615.3	1.6
247.02	10041	1559.6	1.6
247.521	30945	1614.6	1.6
251.363	35209	1614.2	1.6
252.411	1004.8	1507.5	1.6
252.509	15276	1559	1.6
253.781	2142.1	1507.3	1.6
254.969	3117.5	1507.2	1.6
255.926	40226	1613.6	1.6
256.104	4061.6	1507	1.6
257.503	5226.1	1506.9	1.6
257.536	20028	1558.4	1.6
262.839	25067	1557.8	1.6
268.153	30042	1557.2	1.6
269.456	1140.2	1444.5	1.6
269.51	15216	1506	1.6
270.71	2007.3	1444.3	1.6
272.145	2994.8	1444.2	1.6
273.497	34978	1556.7	1.6
273.874	4188.8	1444	1.6
275.362	5220.9	1443.8	1.6
275.377	20012	1505.4	1.6
278.753	39847	1556.1	1.6
281.621	25020	1504.3	1.6
282.664	10250	1443.1	1.6
282.839	1039.3	1388.2	1.5
284.557	2050.1	1388.1	1.5
286.255	2995.1	1387.9	1.5
287.651	30072	1504.2	1.6
287.978	4010.4	1387.7	1.5
289.436	14959	1442.4	1.6
289.659	4997.4	1387.6	1.5
294.116	35270	1503.5	1.6
296.971	20036	1441.7	1.6
297.234	942.2	1322	1.5
298.155	10003	1386.8	1.5
299.297	1958.7	1321.8	1.5
300.378	40273	1502.9	1.6
301.473	3021.5	1321.6	1.5
303.44	3963.5	1321.4	1.5
304.433	25120	1441	1.6
305.511	4983.5	1321.2	1.5
306.997	15256	1385.9	1.5
311.59	29972	1440.3	1.6
315.778	2033.9	1237.1	1.5
315.778	20405	1385.1	1.5
315.784	9999.6	1320.4	1.5
317.541	2708.8	1237	1.5
319.052	35044	1439.6	1.6
320.919	3993.8	1236.7	1.5
323.549	4999.4	1236.5	1.5
324.086	25251	1384.4	1.5
326.517	40028	1438.9	1.6
326.95	15464	1319.4	1.5
332.972	30410	1383.6	1.5
335.66	19726	1318.7	1.5
336.509	9979.8	1235.5	1.5
340.741	34883	1382.9	1.5
345.946	24723	1317.8	1.5
352.673	41719	1381.9	1.5
353.15	16419	1234.2	1.5
353.151	28219	1317.2	1.5
