Measured thermophysical data. Densities and Excess Properties of Primary Amines in Alcoholic Solutions
Source: J. Chem. Eng. Data, 2013, 10.1021/je3013205
Compound 1: 2-(2-aminoethoxy)ethanol, C4H11NO2, InChI=1S/C4H11NO2/c5-1-3-7-4-2-6/h6H,1-5H2, purity 98%
Compound 2: 2-aminoethan-1-ol, C2H7NO, InChI=1S/C2H7NO/c3-1-2-4/h4H,1-3H2, purity 99%
Compound 3: propan-2-ol, C3H8O, InChI=1S/C3H8O/c1-3(2)4/h3-4H,1-2H3, purity 99.7%
Compound 4: methanol, CH4O, InChI=1S/CH4O/c1-2/h2H,1H3, purity 99.5%
Compound 5: 1,2-ethanediol, C2H6O2, InChI=1S/C2H6O2/c3-1-2-4/h3-4H,1-2H2, purity 99%

System: 2-(2-aminoethoxy)ethanol; phases: Liquid
Fixed: Pressure, kPa = 101
Property: Mass density, kg/m3 (Liquid); method: Vibrating tube method
Temperature, K	Mass density, kg/m3	uncertainty
283.15	1063.898	0.969
293.15	1055.858	0.952
303.15	1047.8	0.935
313.15	1039.733	0.919
323.15	1031.629	0.902
333.15	1023.463	0.885
343.15	1015.241	0.868

System: 2-aminoethan-1-ol; phases: Liquid
Fixed: Pressure, kPa = 101
Property: Mass density, kg/m3 (Liquid); method: Vibrating tube method
Temperature, K	Mass density, kg/m3	uncertainty
283.15	1024.114	0.248
293.15	1016.234	0.242
303.15	1008.323	0.236
313.15	1000.37	0.229
323.15	992.364	0.229
333.15	984.301	0.229
343.15	976.153	0.229

System: propan-2-ol; phases: Liquid
Fixed: Pressure, kPa = 101
Property: Mass density, kg/m3 (Liquid); method: Vibrating tube method
Temperature, K	Mass density, kg/m3	uncertainty
283.15	794.005	0.124
293.15	785.764	0.127
303.15	777.284	0.13
313.15	768.476	0.133
323.15	759.309	0.137
333.15	749.679	0.14
343.15	739.528	0.144

System: methanol; phases: Liquid
Fixed: Pressure, kPa = 101
Property: Mass density, kg/m3 (Liquid); method: Vibrating tube method
Temperature, K	Mass density, kg/m3	uncertainty
283.15	801.254	0.141
293.15	791.866	0.144
303.15	782.43	0.147
313.15	772.902	0.15
323.15	763.244	0.153
333.15	753.389	0.156

System: 1,2-ethanediol; phases: Liquid
Fixed: Pressure, kPa = 101
Property: Mass density, kg/m3 (Liquid); method: Vibrating tube method
Temperature, K	Mass density, kg/m3	uncertainty
283.15	1119.289	0.325
293.15	1112.366	0.32
303.15	1105.395	0.314
313.15	1098.342	0.308
323.15	1091.215	0.302
333.15	1083.99	0.296
343.15	1076.647	0.29

System: methanol + 2-aminoethan-1-ol; phases: Liquid
Fixed: Pressure, kPa = 101
Property: Mass density, kg/m3 (Liquid); method: Vibrating tube method
Temperature, K	Mole fraction of methanol	Mass density, kg/m3	uncertainty
283.15	0	1024.114	0.248
283.15	0.0999	1012.955	0.219
283.15	0.2	1000.238	0.192
283.15	0.3001	985.644	0.176
283.15	0.4	969.73	0.162
283.15	0.5	951.484	0.151
283.15	0.6001	930.19	0.143
283.15	0.7026	904.556	0.137
283.15	0.7998	875.763	0.135
283.15	0.8999	841.316	0.137
283.15	1	801.254	0.141
293.15	0	1016.234	0.242
293.15	0.0999	1004.997	0.214
293.15	0.2	992.199	0.192
293.15	0.3001	977.53	0.177
293.15	0.4	961.548	0.163
293.15	0.5	943.204	0.153
293.15	0.6001	921.795	0.145
293.15	0.7026	895.978	0.139
293.15	0.7998	867.002	0.138
293.15	0.8999	832.282	0.14
293.15	1	791.866	0.144
303.15	0	1008.323	0.236
303.15	0.0999	997.005	0.21
303.15	0.2	984.108	0.193
303.15	0.3001	969.37	0.178
303.15	0.4	953.296	0.165
303.15	0.5	934.844	0.154
303.15	0.6001	913.321	0.146
303.15	0.7026	887.345	0.142
303.15	0.7998	858.177	0.14
303.15	0.8999	823.2	0.14
303.15	1	782.43	0.147
313.15	0	1000.37	0.23
313.15	0.0999	988.961	0.21
313.15	0.2	975.96	0.193
313.15	0.3001	961.142	0.179
313.15	0.4	944.973	0.166
313.15	0.5	926.41	0.156
313.15	0.6001	904.767	0.148
313.15	0.7026	878.633	0.144
313.15	0.7998	849.26	0.143
313.15	0.8999	814.016	0.145
313.15	1	772.902	0.15
323.15	0	992.364	0.229
323.15	0.0999	980.886	0.211
323.15	0.2	967.788	0.194
323.15	0.3001	952.855	0.18
323.15	0.4	936.722	0.167
323.15	0.5	917.891	0.157
323.15	0.6001	896.116	0.15
323.15	0.7026	869.812	0.146
323.15	0.7998	840.244	0.145
323.15	0.8999	804.724	0.148
323.15	1	763.244	0.153
333.15	0	984.301	0.229
333.15	0.0999	972.713	0.211
333.15	0.2	959.607	0.195
333.15	0.3001	944.613	0.181
333.15	0.4	928.096	0.169
333.15	0.5	909.268	0.159
333.15	0.6001	887.352	0.152
333.15	0.7026	860.859	0.149
333.15	0.7998	831.072	0.148
333.15	0.8999	795.281	0.151
333.15	1	753.389	0.156

System: 1,2-ethanediol + 2-aminoethan-1-ol; phases: Liquid
Fixed: Pressure, kPa = 101
Property: Mass density, kg/m3 (Liquid); method: Vibrating tube method
Temperature, K	Mole fraction of 1,2-ethanediol	Mass density, kg/m3	uncertainty
283.15	0	1024.114	0.248
283.15	0.1002	1035.453	0.257
283.15	0.2	1046.349	0.266
283.15	0.2998	1056.765	0.274
283.15	0.3999	1066.861	0.282
283.15	0.5001	1076.467	0.29
283.15	0.5999	1085.818	0.298
283.15	0.7	1094.865	0.305
283.15	0.8002	1103.835	0.313
283.15	0.8999	1112.467	0.32
283.15	1	1119.289	0.325
293.15	0	1016.234	0.242
293.15	0.1002	1027.683	0.251
293.15	0.2	1038.704	0.26
293.15	0.2998	1049.244	0.268
293.15	0.3999	1059.476	0.276
293.15	0.5001	1069.165	0.284
293.15	0.5999	1078.589	0.292
293.15	0.7	1087.729	0.299
293.15	0.8002	1096.76	0.307
293.15	0.8999	1105.44	0.314
293.15	1	1112.366	0.32
303.15	0	1008.323	0.236
303.15	0.1002	1019.879	0.245
303.15	0.2	1031.013	0.254
303.15	0.2998	1041.667	0.262
303.15	0.3999	1052.039	0.27
303.15	0.5001	1061.824	0.278
303.15	0.5999	1071.331	0.286
303.15	0.7	1080.555	0.294
303.15	0.8002	1089.641	0.301
303.15	0.8999	1098.374	0.308
303.15	1	1105.395	0.314
313.15	0	1000.37	0.229
313.15	0.1002	1012.029	0.239
313.15	0.2	1023.264	0.247
313.15	0.2998	1034.048	0.256
313.15	0.3999	1044.53	0.264
313.15	0.5001	1054.419	0.272
313.15	0.5999	1064.018	0.28
313.15	0.7	1073.317	0.288
313.15	0.8002	1082.461	0.295
313.15	0.8999	1091.245	0.302
313.15	1	1098.342	0.308
323.15	0	992.364	0.229
323.15	0.1002	1004.131	0.232
323.15	0.2	1015.46	0.241
323.15	0.2998	1026.347	0.25
323.15	0.3999	1036.96	0.258
323.15	0.5001	1046.931	0.266
323.15	0.5999	1056.624	0.274
323.15	0.7	1066.007	0.282
323.15	0.8002	1075.21	0.289
323.15	0.8999	1084.052	0.296
323.15	1	1091.215	0.302
333.15	0	984.301	0.229
333.15	0.1002	996.181	0.229
333.15	0.2	1007.583	0.235
333.15	0.2998	1018.575	0.244
333.15	0.3999	1029.298	0.252
333.15	0.5001	1039.366	0.26
333.15	0.5999	1049.142	0.268
333.15	0.7	1058.604	0.276
333.15	0.8002	1067.87	0.283
333.15	0.8999	1076.765	0.291
333.15	1	1083.99	0.296
343.15	0	976.153	0.229
343.15	0.1002	988.118	0.229
343.15	0.2	999.618	0.229
343.15	0.2998	1010.709	0.238
343.15	0.3999	1021.538	0.246
343.15	0.5001	1031.7	0.254
343.15	0.5999	1041.552	0.262
343.15	0.7	1051.092	0.27
343.15	0.8002	1060.422	0.277
343.15	0.8999	1069.369	0.285
343.15	1	1076.647	0.29

System: propan-2-ol + 2-aminoethan-1-ol; phases: Liquid
Fixed: Pressure, kPa = 101
Property: Mass density, kg/m3 (Liquid); method: Vibrating tube method
Temperature, K	Mole fraction of propan-2-ol	Mass density, kg/m3	uncertainty
283.15	0	1024.114	0.248
283.15	0.1001	999.024	0.203
283.15	0.1999	974.32	0.18
283.15	0.3002	949.806	0.162
283.15	0.4001	925.587	0.149
283.15	0.5001	902.006	0.138
283.15	0.5999	879.054	0.131
283.15	0.7	856.17	0.126
283.15	0.8002	834.572	0.123
283.15	0.8999	813.792	0.123
283.15	1	794.005	0.124
293.15	0	1016.234	0.242
293.15	0.1001	990.993	0.203
293.15	0.1999	966.334	0.181
293.15	0.3002	941.791	0.164
293.15	0.4001	917.446	0.15
293.15	0.5001	893.95	0.14
293.15	0.5999	870.943	0.133
293.15	0.7	848.018	0.128
293.15	0.8002	826.391	0.126
293.15	0.8999	805.582	0.126
293.15	1	785.764	0.127
303.15	0	1008.323	0.236
303.15	0.1001	982.903	0.203
303.15	0.1999	958.311	0.182
303.15	0.3002	933.723	0.165
303.15	0.4001	909.315	0.152
303.15	0.5001	885.794	0.142
303.15	0.5999	862.727	0.135
303.15	0.7	839.735	0.131
303.15	0.8002	818.066	0.129
303.15	0.8999	797.19	0.129
303.15	1	777.284	0.13
313.15	0	1000.37	0.23
313.15	0.1001	974.928	0.204
313.15	0.1999	950.234	0.183
313.15	0.3002	925.597	0.166
313.15	0.4001	901.039	0.154
313.15	0.5001	877.533	0.144
313.15	0.5999	854.388	0.137
313.15	0.7	831.308	0.134
313.15	0.8002	809.555	0.132
313.15	0.8999	788.57	0.132
313.15	1	768.476	0.133
323.15	0	992.364	0.229
323.15	0.1001	966.92	0.204
323.15	0.1999	942.073	0.184
323.15	0.3002	917.361	0.168
323.15	0.4001	892.673	0.155
323.15	0.5001	869.138	0.146
323.15	0.5999	845.897	0.14
323.15	0.7	822.707	0.136
323.15	0.8002	800.81	0.135
323.15	0.8999	779.665	0.135
323.15	1	759.309	0.137
333.15	0	984.301	0.229
333.15	0.1001	958.72	0.205
333.15	0.1999	933.821	0.185
333.15	0.3002	909.018	0.169
333.15	0.4001	884.471	0.157
333.15	0.5001	860.597	0.148
333.15	0.5999	837.216	0.142
333.15	0.7	813.881	0.139
333.15	0.8002	791.784	0.138
333.15	0.8999	770.393	0.138
333.15	1	749.679	0.14
343.15	0	976.153	0.229
343.15	0.1001	950.596	0.205
343.15	0.1999	925.458	0.186
343.15	0.3002	900.544	0.171
343.15	0.4001	875.887	0.159
343.15	0.5001	851.867	0.15
343.15	0.5999	828.323	0.145
343.15	0.7	804.773	0.142
343.15	0.8002	782.457	0.141
343.15	0.8999	760.722	0.142
343.15	1	739.528	0.144

System: methanol + 2-(2-aminoethoxy)ethanol; phases: Liquid
Fixed: Pressure, kPa = 101
Property: Mass density, kg/m3 (Liquid); method: Vibrating tube method
Temperature, K	Mole fraction of methanol	Mass density, kg/m3	uncertainty
283.15	0	1063.898	0.969
283.15	0.0999	1055.893	0.82
283.15	0.1999	1045.998	0.683
283.15	0.3001	1034.437	0.558
283.15	0.4	1019.81	0.445
283.15	0.5	1002.232	0.344
283.15	0.6002	980.617	0.269
283.15	0.6999	953.558	0.212
283.15	0.8	916.98	0.17
283.15	0.9001	868.243	0.147
283.15	1	801.254	0.141
293.15	0	1055.858	0.952
293.15	0.0999	1047.818	0.805
293.15	0.1999	1037.873	0.67
293.15	0.3001	1026.254	0.547
293.15	0.4	1011.559	0.435
293.15	0.5	993.898	0.34
293.15	0.6002	972.194	0.269
293.15	0.6999	945.032	0.213
293.15	0.8	908.292	0.173
293.15	0.9001	859.298	0.15
293.15	1	791.866	0.144
303.15	0	1047.8	0.935
303.15	0.0999	1039.721	0.791
303.15	0.1999	1029.711	0.657
303.15	0.3001	1018.045	0.536
303.15	0.4	1003.273	0.426
303.15	0.5	985.526	0.339
303.15	0.6002	963.722	0.268
303.15	0.6999	936.443	0.213
303.15	0.8	899.545	0.174
303.15	0.9001	850.287	0.152
303.15	1	782.43	0.147
313.15	0	1039.733	0.919
313.15	0.0999	1031.59	0.776
313.15	0.1999	1021.521	0.644
313.15	0.3001	1009.784	0.524
313.15	0.4	995.032	0.42
313.15	0.5	977.101	0.337
313.15	0.6002	955.185	0.268
313.15	0.6999	927.795	0.214
313.15	0.8	890.727	0.175
313.15	0.9001	841.205	0.155
313.15	1	772.902	0.15
323.15	0	1031.629	0.902
323.15	0.0999	1023.412	0.761
323.15	0.1999	1013.289	0.631
323.15	0.3001	1001.477	0.513
323.15	0.4	986.54	0.417
323.15	0.5	968.618	0.335
323.15	0.6002	946.586	0.267
323.15	0.6999	919.061	0.214
323.15	0.8	881.797	0.177
323.15	0.9001	832.01	0.157
323.15	1	763.244	0.153
333.15	0	1023.463	0.885
333.15	0.0999	1015.188	0.746
333.15	0.1999	1004.989	0.618
333.15	0.3001	993.102	0.507
333.15	0.4	978.075	0.414
333.15	0.5	960.052	0.333
333.15	0.6002	937.892	0.267
333.15	0.6999	910.228	0.216
333.15	0.8	872.764	0.18
333.15	0.9001	822.672	0.161
333.15	1	753.389	0.156

System: 1,2-ethanediol + 2-(2-aminoethoxy)ethanol; phases: Liquid
Fixed: Pressure, kPa = 101
Property: Mass density, kg/m3 (Liquid); method: Vibrating tube method
Temperature, K	Mole fraction of 1,2-ethanediol	Mass density, kg/m3	uncertainty
283.15	0	1063.898	0.969
283.15	0.0999	1069.408	0.889
283.15	0.1998	1074.475	0.812
283.15	0.2998	1079.733	0.738
283.15	0.4001	1084.815	0.667
283.15	0.4999	1090.237	0.6
283.15	0.5999	1095.698	0.537
283.15	0.7002	1101.259	0.478
283.15	0.8	1107.46	0.424
283.15	0.8998	1113.946	0.373
283.15	1	1119.289	0.325
293.15	0	1055.858	0.952
293.15	0.0999	1061.433	0.874
293.15	0.1998	1066.575	0.798
293.15	0.2998	1071.936	0.725
293.15	0.4001	1077.112	0.655
293.15	0.4999	1082.671	0.59
293.15	0.5999	1088.262	0.528
293.15	0.7002	1093.925	0.47
293.15	0.8	1100.249	0.416
293.15	0.8998	1106.855	0.367
293.15	1	1112.366	0.32
303.15	0	1047.8	0.935
303.15	0.0999	1053.439	0.858
303.15	0.1998	1058.65	0.783
303.15	0.2998	1064.102	0.712
303.15	0.4001	1069.377	0.644
303.15	0.4999	1075.062	0.58
303.15	0.5999	1080.789	0.519
303.15	0.7002	1086.537	0.462
303.15	0.8	1093.004	0.409
303.15	0.8998	1099.721	0.36
303.15	1	1105.395	0.314
313.15	0	1039.733	0.919
313.15	0.0999	1045.411	0.843
313.15	0.1998	1050.691	0.769
313.15	0.2998	1056.235	0.699
313.15	0.4001	1061.6	0.632
313.15	0.4999	1067.417	0.569
313.15	0.5999	1073.255	0.51
313.15	0.7002	1079.13	0.453
313.15	0.8	1085.697	0.402
313.15	0.8998	1092.529	0.354
313.15	1	1098.342	0.308
323.15	0	1031.629	0.902
323.15	0.0999	1037.352	0.828
323.15	0.1998	1042.691	0.755
323.15	0.2998	1048.314	0.687
323.15	0.4001	1053.784	0.621
323.15	0.4999	1059.701	0.559
323.15	0.5999	1065.656	0.5
323.15	0.7002	1071.682	0.445
323.15	0.8	1078.324	0.394
323.15	0.8998	1085.256	0.347
323.15	1	1091.215	0.302
333.15	0	1023.463	0.885
333.15	0.0999	1029.217	0.812
333.15	0.1998	1034.628	0.741
333.15	0.2998	1040.32	0.674
333.15	0.4001	1045.895	0.609
333.15	0.4999	1051.903	0.549
333.15	0.5999	1057.975	0.491
333.15	0.7002	1064.114	0.437
333.15	0.8	1070.863	0.387
333.15	0.8998	1077.896	0.34
333.15	1	1083.99	0.296
343.15	0	1015.241	0.868
343.15	0.0999	1021.029	0.797
343.15	0.1998	1026.497	0.727
343.15	0.2998	1032.265	0.661
343.15	0.4001	1037.922	0.598
343.15	0.4999	1044.028	0.538
343.15	0.5999	1050.205	0.482
343.15	0.7002	1056.508	0.428
343.15	0.8	1063.303	0.379
343.15	0.8998	1070.447	0.334
343.15	1	1076.647	0.29

System: propan-2-ol + 2-(2-aminoethoxy)ethanol; phases: Liquid
Fixed: Pressure, kPa = 101
Property: Mass density, kg/m3 (Liquid); method: Vibrating tube method
Temperature, K	Mole fraction of propan-2-ol	Mass density, kg/m3	uncertainty
283.15	0	1063.898	0.969
283.15	0.1002	1045.455	0.784
283.15	0.2002	1024.826	0.62
283.15	0.2999	1002.403	0.478
283.15	0.3998	978.848	0.372
283.15	0.5001	953.526	0.288
283.15	0.6	926.557	0.223
283.15	0.7001	896.824	0.176
283.15	0.7999	864.765	0.145
283.15	0.9	830.522	0.129
283.15	1	794.005	0.124
293.15	0	1055.858	0.952
293.15	0.1002	1037.407	0.77
293.15	0.2002	1016.773	0.608
293.15	0.2999	994.333	0.472
293.15	0.3998	970.775	0.37
293.15	0.5001	945.419	0.287
293.15	0.6	918.428	0.224
293.15	0.7001	888.658	0.178
293.15	0.7999	856.572	0.148
293.15	0.9	822.302	0.132
293.15	1	785.764	0.127
303.15	0	1047.8	0.935
303.15	0.1002	1029.32	0.755
303.15	0.2002	1008.683	0.596
303.15	0.2999	986.21	0.468
303.15	0.3998	962.634	0.367
303.15	0.5001	937.23	0.286
303.15	0.6	910.206	0.224
303.15	0.7001	880.385	0.179
303.15	0.7999	848.24	0.15
303.15	0.9	813.893	0.134
303.15	1	777.284	0.13
313.15	0	1039.733	0.919
313.15	0.1002	1021.205	0.741
313.15	0.2002	1000.54	0.584
313.15	0.2999	978.03	0.464
313.15	0.3998	954.426	0.365
313.15	0.5001	928.957	0.286
313.15	0.6	901.852	0.225
313.15	0.7001	871.966	0.18
313.15	0.7999	839.727	0.152
313.15	0.9	805.266	0.137
313.15	1	768.476	0.133
323.15	0	1031.629	0.902
323.15	0.1002	1013.074	0.727
323.15	0.2002	992.342	0.577
323.15	0.2999	969.77	0.46
323.15	0.3998	946.127	0.363
323.15	0.5001	920.579	0.285
323.15	0.6	893.378	0.225
323.15	0.7001	863.375	0.182
323.15	0.7999	831.011	0.154
323.15	0.9	796.354	0.14
323.15	1	759.309	0.137
333.15	0	1023.463	0.885
333.15	0.1002	1004.866	0.712
333.15	0.2002	984.07	0.572
333.15	0.2999	961.425	0.456
333.15	0.3998	937.625	0.361
333.15	0.5001	912.056	0.284
333.15	0.6	884.74	0.226
333.15	0.7001	854.584	0.183
333.15	0.7999	822.035	0.157
333.15	0.9	787.116	0.143
333.15	1	749.679	0.14
343.15	0	1015.241	0.868
343.15	0.1002	996.578	0.701
343.15	0.2002	975.712	0.566
343.15	0.2999	952.983	0.452
343.15	0.3998	929.152	0.359
343.15	0.5001	903.381	0.284
343.15	0.6	875.931	0.226
343.15	0.7001	845.569	0.185
343.15	0.7999	812.769	0.159
343.15	0.9	777.485	0.146
343.15	1	739.528	0.144
