Measured thermophysical data. Organic Salt Effect on Vapor Liquid Equilibrium of the Methanol + Water System at Subatmospheric Pressure
Source: J. Chem. Eng. Data, 2012, 10.1021/je300613v
Compound 1: water, H2O, InChI=1S/H2O/h1H2, purity 99.9%
Compound 2: tetramethylammonium bicarbonate, C5H13NO3, InChI=1S/C4H12N.CH2O3/c1-5(2,3)4;2-1(3)4/h1-4H3;(H2,2,3,4)/q+1;/p-1, purity 98%
Compound 3: methanol, CH4O, InChI=1S/CH4O/c1-2/h2H,1H3, purity 99.9%

System: methanol + water; phases: Liquid, Gas
Property: Boiling temperature at pressure P, K (Liquid); method: Ebulliometric method (Recirculating still)
Mole fraction of methanol	Pressure, kPa	Boiling temperature at pressure P, K	uncertainty
0	37.5	347.16	0.28
0	66.52	361.51	0.3
0.011	37.5	344.65	1.49
0.02	66.52	358.06	2.6
0.035	66.52	355.6	2.6
0.036	37.5	341.32	2.17
0.074	37.5	337.78	1.51
0.074	66.52	351.74	1.51
0.16	66.52	346.11	1.11
0.161	37.5	331.9	1.15
0.246	66.52	342.55	0.83
0.248	37.5	328.06	0.89
0.29	66.52	341.13	0.73
0.292	37.5	326.4	0.68
0.333	66.52	339.66	0.62
0.337	37.5	325.3	0.51
0.391	37.5	324.29	0.54
0.394	66.52	338.28	0.56
0.449	66.52	336.93	0.53
0.45	37.5	322.68	0.54
0.535	66.52	335.15	0.48
0.542	37.5	320.75	0.47
0.62	66.52	333.76	0.46
0.621	37.5	319.47	0.41
0.705	66.52	332.21	0.46
0.707	37.5	318.26	0.43
0.819	37.5	316.24	0.44
0.819	66.52	330.31	0.45
0.946	37.5	314.13	0.41
0.948	66.52	328.2	0.44
1	37.5	313.55	0.28
1	66.52	327.45	0.3

System: methanol + water; phases: Gas, Liquid
Property: Mole fraction of methanol (Gas); method: Chromatography
Mole fraction of methanol	Pressure, kPa	Mole fraction of methanol	uncertainty
0	37.5	0	
0	66.52	0	
0.011	37.5	0.091	0.072
0.02	66.52	0.139	0.099
0.035	66.52	0.213	0.102
0.036	37.5	0.247	0.1
0.074	37.5	0.404	0.055
0.074	66.52	0.371	0.054
0.16	66.52	0.538	0.036
0.161	37.5	0.583	0.036
0.246	66.52	0.627	0.028
0.248	37.5	0.663	0.026
0.29	66.52	0.664	0.026
0.292	37.5	0.692	0.024
0.333	66.52	0.698	0.024
0.337	37.5	0.717	0.022
0.391	37.5	0.74	0.022
0.394	66.52	0.729	0.024
0.449	66.52	0.769	0.023
0.45	37.5	0.769	0.022
0.535	66.52	0.803	0.022
0.542	37.5	0.811	0.022
0.62	66.52	0.849	0.023
0.621	37.5	0.842	0.022
0.705	66.52	0.895	0.022
0.707	37.5	0.875	0.022
0.819	37.5	0.922	0.022
0.819	66.52	0.935	0.021
0.946	37.5	0.979	0.021
0.948	66.52	0.983	0.017
1	37.5	1	
1	66.52	1	

System: methanol + water + tetramethylammonium bicarbonate; phases: Gas, Liquid
Property: Boiling temperature at pressure P, K (Gas); method: Ebulliometric method (Recirculating still)
Pressure, kPa	Mole fraction of tetramethylammonium bicarbonate	Solvent: Mole fraction of methanol	Boiling temperature at pressure P, K	uncertainty
37.6	0.076	0	351.95	0.21
37.6	0.076	0.018	348.11	0.4
37.6	0.076	0.047	343.96	0.33
37.6	0.076	0.105	337.27	0.28
37.6	0.076	0.147	334.34	0.23
37.6	0.076	0.203	331.65	0.22
37.6	0.076	0.255	329.49	0.21
37.6	0.076	0.333	327.52	0.2
37.6	0.076	0.5	324.47	0.2
37.6	0.076	0.667	322.24	0.2
37.6	0.076	0.8	320.05	0.2
37.6	0.076	1	318.25	0.2
37.6	0.114	0	356.57	0.22
37.6	0.114	0.018	352.41	0.41
37.6	0.114	0.043	348.76	0.33
37.6	0.114	0.106	341.26	0.3
37.6	0.114	0.149	337.87	0.26
37.6	0.114	0.205	334.88	0.25
37.6	0.114	0.256	333.17	0.22
37.6	0.114	0.333	331.05	0.22
37.6	0.114	0.5	327.25	0.22
37.6	0.114	0.667	324.84	0.22
37.6	0.114	0.8	323.18	0.22
37.6	0.114	1	321.43	0.21
37.6	0.159	0	366.65	0.17
37.6	0.159	0.019	362.32	0.46
37.6	0.159	0.051	355.71	0.39
37.6	0.159	0.103	348.45	0.36
37.6	0.159	0.143	343.93	0.29
37.6	0.159	0.2	340.48	0.27
37.6	0.159	0.25	337.55	0.27
37.6	0.159	0.333	334.57	0.24
37.6	0.159	0.5	331.94	0.23
37.6	0.159	0.667	329.93	0.23
37.6	0.159	0.8	328.95	0.22
37.6	0.159	1	327.15	0.21
66.52	0.076	0	366.65	0.24
66.52	0.076	0.02	363.11	0.39
66.52	0.076	0.05	359.02	0.37
66.52	0.076	0.1	352.5	0.33
66.52	0.076	0.143	348.88	0.27
66.52	0.076	0.2	346.1	0.25
66.52	0.076	0.25	343.76	0.24
66.52	0.076	0.333	341.36	0.23
66.52	0.076	0.5	338.46	0.23
66.52	0.076	0.667	336.35	0.23
66.52	0.076	0.8	334.78	0.24
66.52	0.076	1	332.15	0.23
66.52	0.114	0	371.85	0.25
66.52	0.114	0.019	367.01	0.43
66.52	0.114	0.049	363.25	0.33
66.52	0.114	0.106	357.45	0.32
66.52	0.114	0.146	354.55	0.3
66.52	0.114	0.203	351.65	0.29
66.52	0.114	0.25	348.75	0.27
66.52	0.114	0.333	346.64	0.26
66.52	0.114	0.5	343.15	0.26
66.52	0.114	0.667	340.38	0.26
66.52	0.114	0.8	338.69	0.25
66.52	0.114	1	336.25	0.24
66.52	0.159	0	378.65	0.19
66.52	0.159	0.02	374.82	0.34
66.52	0.159	0.053	371.37	0.33
66.52	0.159	0.103	366.19	0.36
66.52	0.159	0.143	361.7	0.34
66.52	0.159	0.2	357.92	0.31
66.52	0.159	0.25	355.85	0.31
66.52	0.159	0.333	351.98	0.3
66.52	0.159	0.5	348.05	0.27
66.52	0.159	0.667	346.24	0.26
66.52	0.159	0.8	344.3	0.25
66.52	0.159	1	341.85	0.24

System: methanol + water + tetramethylammonium bicarbonate; phases: Gas, Liquid
Property: Mole fraction of methanol (Gas); method: Chromatography
Pressure, kPa	Mole fraction of tetramethylammonium bicarbonate	Solvent: Mole fraction of methanol	Mole fraction of methanol	uncertainty
37.6	0.076	0	0	
37.6	0.076	0.018	0.208	0.025
37.6	0.076	0.047	0.378	0.022
37.6	0.076	0.105	0.577	0.021
37.6	0.076	0.147	0.647	0.021
37.6	0.076	0.203	0.717	0.02
37.6	0.076	0.255	0.759	0.02
37.6	0.076	0.333	0.801	0.02
37.6	0.076	0.5	0.863	0.02
37.6	0.076	0.667	0.915	0.02
37.6	0.076	0.8	0.947	0.02
37.6	0.076	1	1	
37.6	0.114	0	0	
37.6	0.114	0.018	0.242	0.028
37.6	0.114	0.043	0.428	0.022
37.6	0.114	0.106	0.654	0.021
37.6	0.114	0.149	0.723	0.02
37.6	0.114	0.205	0.779	0.02
37.6	0.114	0.256	0.801	0.02
37.6	0.114	0.333	0.839	0.02
37.6	0.114	0.5	0.898	0.02
37.6	0.114	0.667	0.935	0.02
37.6	0.114	0.8	0.961	0.02
37.6	0.114	1	1	
37.6	0.159	0	0	
37.6	0.159	0.019	0.314	0.028
37.6	0.159	0.051	0.531	0.022
37.6	0.159	0.103	0.695	0.021
37.6	0.159	0.143	0.759	0.02
37.6	0.159	0.2	0.809	0.02
37.6	0.159	0.25	0.845	0.02
37.6	0.159	0.333	0.885	0.02
37.6	0.159	0.5	0.92	0.02
37.6	0.159	0.667	0.949	0.02
37.6	0.159	0.8	0.968	0.02
37.6	0.159	1	1	
66.52	0.076	0	0	
66.52	0.076	0.02	0.202	0.025
66.52	0.076	0.05	0.366	0.022
66.52	0.076	0.1	0.574	0.021
66.52	0.076	0.143	0.647	0.021
66.52	0.076	0.2	0.702	0.02
66.52	0.076	0.25	0.757	0.02
66.52	0.076	0.333	0.811	0.02
66.52	0.076	0.5	0.871	0.02
66.52	0.076	0.667	0.909	0.02
66.52	0.076	0.8	0.941	0.02
66.52	0.076	1	1	
66.52	0.114	0	0	
66.52	0.114	0.019	0.237	0.027
66.52	0.114	0.049	0.433	0.022
66.52	0.114	0.106	0.629	0.021
66.52	0.114	0.146	0.699	0.02
66.52	0.114	0.203	0.751	0.02
66.52	0.114	0.25	0.794	0.02
66.52	0.114	0.333	0.826	0.02
66.52	0.114	0.5	0.878	0.02
66.52	0.114	0.667	0.924	0.02
66.52	0.114	0.8	0.949	0.02
66.52	0.114	1	1	
66.52	0.159	0	0	
66.52	0.159	0.02	0.308	0.027
66.52	0.159	0.053	0.506	0.022
66.52	0.159	0.103	0.659	0.021
66.52	0.159	0.143	0.732	0.02
66.52	0.159	0.2	0.798	0.02
66.52	0.159	0.25	0.824	0.02
66.52	0.159	0.333	0.869	0.02
66.52	0.159	0.5	0.911	0.02
66.52	0.159	0.667	0.937	0.02
66.52	0.159	0.8	0.958	0.02
66.52	0.159	1	1	

System: methanol + water + tetramethylammonium bicarbonate; phases: Gas, Liquid
Property: Mole fraction of water (Gas); method: Chromatography
Pressure, kPa	Mole fraction of tetramethylammonium bicarbonate	Solvent: Mole fraction of methanol	Mole fraction of water	uncertainty
37.6	0.076	0	1	
37.6	0.076	0.018	0.792	0.026
37.6	0.076	0.047	0.622	0.022
37.6	0.076	0.105	0.423	0.021
37.6	0.076	0.147	0.353	0.02
37.6	0.076	0.203	0.283	0.02
37.6	0.076	0.255	0.241	0.02
37.6	0.076	0.333	0.199	0.02
37.6	0.076	0.5	0.137	0.02
37.6	0.076	0.667	0.085	0.02
37.6	0.076	0.8	0.053	0.02
37.6	0.076	1	0	
37.6	0.114	0	1	
37.6	0.114	0.018	0.758	0.028
37.6	0.114	0.043	0.572	0.022
37.6	0.114	0.106	0.346	0.021
37.6	0.114	0.149	0.277	0.02
37.6	0.114	0.205	0.221	0.02
37.6	0.114	0.256	0.199	0.02
37.6	0.114	0.333	0.161	0.02
37.6	0.114	0.5	0.102	0.02
37.6	0.114	0.667	0.065	0.02
37.6	0.114	0.8	0.039	0.02
37.6	0.114	1	0	
37.6	0.159	0	1	
37.6	0.159	0.019	0.686	0.029
37.6	0.159	0.051	0.469	0.022
37.6	0.159	0.103	0.305	0.021
37.6	0.159	0.143	0.241	0.02
37.6	0.159	0.2	0.191	0.02
37.6	0.159	0.25	0.155	0.02
37.6	0.159	0.333	0.115	0.02
37.6	0.159	0.5	0.08	0.02
37.6	0.159	0.667	0.051	0.02
37.6	0.159	0.8	0.032	0.02
37.6	0.159	1	0	
66.52	0.076	0	1	
66.52	0.076	0.02	0.798	0.025
66.52	0.076	0.05	0.634	0.022
66.52	0.076	0.1	0.426	0.021
66.52	0.076	0.143	0.353	0.02
66.52	0.076	0.2	0.298	0.02
66.52	0.076	0.25	0.243	0.02
66.52	0.076	0.333	0.189	0.02
66.52	0.076	0.5	0.129	0.02
66.52	0.076	0.667	0.091	0.02
66.52	0.076	0.8	0.059	0.02
66.52	0.076	1	0	
66.52	0.114	0	1	
66.52	0.114	0.019	0.763	0.027
66.52	0.114	0.049	0.567	0.022
66.52	0.114	0.106	0.371	0.021
66.52	0.114	0.146	0.301	0.02
66.52	0.114	0.203	0.249	0.02
66.52	0.114	0.25	0.206	0.02
66.52	0.114	0.333	0.174	0.02
66.52	0.114	0.5	0.122	0.02
66.52	0.114	0.667	0.076	0.02
66.52	0.114	0.8	0.051	0.02
66.52	0.114	1	0	
66.52	0.159	0	1	
66.52	0.159	0.02	0.692	0.027
66.52	0.159	0.053	0.494	0.022
66.52	0.159	0.103	0.341	0.021
66.52	0.159	0.143	0.268	0.02
66.52	0.159	0.2	0.202	0.02
66.52	0.159	0.25	0.176	0.02
66.52	0.159	0.333	0.131	0.02
66.52	0.159	0.5	0.089	0.02
66.52	0.159	0.667	0.063	0.02
66.52	0.159	0.8	0.042	0.02
66.52	0.159	1	0	
