Measured thermophysical data. Densities and Speeds of Sound of l-Serine with Aqueous Solutions of Antibacterial Drugs at Different Temperatures
Source: J. Chem. Eng. Data, 2013, 10.1021/je3006425
Compound 1: 6-[D-(2-amino-2-phenylacetyl)amino]-3,3-dimethyl-7-oxo-4-thia-1-azabicyclo[3.2.0]heptane-2-carboxylic acid, C16H19N3O4S, InChI=1S/C16H19N3O4S/c1-16(2)11(15(22)23)19-13(21)10(14(19)24-16)18-12(20)9(17)8-6-4-3-5-7-8/h3-7,9-11,14H,17H2,1-2H3,(H,18,20)(H,22,23), purity 99%
Compound 2: amoxicillin, C16H19N3O5S, InChI=1S/C16H19N3O5S/c1-16(2)11(15(23)24)19-13(22)10(14(19)25-16)18-12(21)9(17)7-3-5-8(20)6-4-7/h3-6,9-11,14,20H,17H2,1-2H3,(H,18,21)(H,23,24)/t9-,10-,11+,14-/m1/s1, purity 99%
Compound 3: L-serine, C3H7NO3, InChI=1S/C3H7NO3/c4-2(1-5)3(6)7/h2,5H,1,4H2,(H,6,7)/t2-/m0/s1, purity 99.5%
Compound 4: water, H2O, InChI=1S/H2O/h1H2, purity 99.9%

System: L-serine + 6-[D-(2-amino-2-phenylacetyl)amino]-3,3-dimethyl-7-oxo-4-thia-1-azabicyclo[3.2.0]heptane-2-carboxylic acid + water; phases: Liquid
Fixed: Pressure, kPa = 101
Property: Speed of sound, m/s (Liquid); method: Sing-around technique in a fixed-path interferometer
Solvent: Molality, mol/kg of 6-[D-(2-amino-2-phenylacetyl)amino]-3,3-dimethyl-7-oxo-4-thia-1-azabicyclo[3.2.0]heptane-2-carboxylic acid	Temperature, K	Molality, mol/kg of L-serine	Speed of sound, m/s	uncertainty
0	305.15	0	1513.31	1.07
0	305.15	0.00243	1513.46	1.07
0	305.15	0.00405	1513.55	1.07
0	305.15	0.00689	1513.7	1.1
0	305.15	0.00752	1513.73	1.07
0	305.15	0.0109	1513.9	1.07
0	305.15	0.01301	1514.01	1.07
0	305.15	0.01474	1514.09	1.07
0	305.15	0.01683	1514.19	1.07
0	305.15	0.01738	1514.22	1.07
0	310.15	0	1523.34	1.07
0	310.15	0.00243	1523.48	1.07
0	310.15	0.00405	1523.57	1.07
0	310.15	0.00689	1523.72	1.07
0	310.15	0.00752	1523.75	1.07
0	310.15	0.0109	1523.92	1.07
0	310.15	0.01301	1524.02	1.07
0	310.15	0.01474	1524.1	1.07
0	310.15	0.01683	1524.19	1.07
0	310.15	0.01738	1524.21	1.07
0	315.15	0	1531.81	1.07
0	315.15	0.00243	1531.94	1.07
0	315.15	0.00405	1532.02	1.07
0	315.15	0.00689	1532.16	1.07
0	315.15	0.00752	1532.19	1.07
0	315.15	0.0109	1532.35	1.07
0	315.15	0.01301	1532.45	1.07
0	315.15	0.01474	1532.52	1.07
0	315.15	0.01683	1532.61	1.07
0	315.15	0.01738	1532.63	1.07
0.0009	305.15	0	1513.7	1.07
0.0009	305.15	0.00244	1513.84	1.07
0.0009	305.15	0.00328	1513.88	1.07
0.0009	305.15	0.00452	1513.94	1.07
0.0009	305.15	0.00607	1514.02	1.07
0.0009	305.15	0.00834	1514.13	1.07
0.0009	305.15	0.00979	1514.2	1.07
0.0009	305.15	0.01274	1514.34	1.07
0.0009	305.15	0.01484	1514.45	1.07
0.0009	305.15	0.0168	1514.55	1.07
0.0009	310.15	0	1523.53	1.07
0.0009	310.15	0.00244	1523.66	1.07
0.0009	310.15	0.00328	1523.7	1.07
0.0009	310.15	0.00452	1523.76	1.07
0.0009	310.15	0.00607	1523.84	1.07
0.0009	310.15	0.00834	1523.94	1.07
0.0009	310.15	0.00979	1524.01	1.07
0.0009	310.15	0.01274	1524.13	1.07
0.0009	310.15	0.01484	1524.22	1.07
0.0009	310.15	0.0168	1524.31	1.07
0.0009	315.15	0	1531.96	1.07
0.0009	315.15	0.00244	1532.08	1.07
0.0009	315.15	0.00328	1532.12	1.07
0.0009	315.15	0.00452	1532.18	1.07
0.0009	315.15	0.00607	1532.25	1.07
0.0009	315.15	0.00834	1532.35	1.07
0.0009	315.15	0.00979	1532.41	1.07
0.0009	315.15	0.01274	1532.53	1.07
0.0009	315.15	0.01484	1532.61	1.07
0.0009	315.15	0.0168	1532.69	1.07
0.0018	305.15	0	1513.94	1.07
0.0018	305.15	0.00268	1514.08	1.07
0.0018	305.15	0.00415	1514.15	1.07
0.0018	305.15	0.00568	1514.22	1.07
0.0018	305.15	0.00735	1514.3	1.07
0.0018	305.15	0.00849	1514.35	1.07
0.0018	305.15	0.01002	1514.42	1.07
0.0018	305.15	0.01265	1514.54	1.07
0.0018	305.15	0.01571	1514.67	1.07
0.0018	305.15	0.01747	1514.74	1.07
0.0018	305.15	0.01938	1514.82	1.07
0.0018	310.15	0	1523.74	1.07
0.0018	310.15	0.00268	1523.87	1.07
0.0018	310.15	0.00415	1523.93	1.07
0.0018	310.15	0.00568	1524	1.07
0.0018	310.15	0.00735	1524.07	1.07
0.0018	310.15	0.00849	1524.12	1.07
0.0018	310.15	0.01002	1524.19	1.07
0.0018	310.15	0.01265	1524.3	1.07
0.0018	310.15	0.01571	1524.42	1.07
0.0018	310.15	0.01747	1524.49	1.07
0.0018	310.15	0.01938	1524.58	1.07
0.0018	315.15	0	1532.14	1.07
0.0018	315.15	0.00268	1532.26	1.07
0.0018	315.15	0.00415	1532.32	1.07
0.0018	315.15	0.00568	1532.39	1.07
0.0018	315.15	0.00735	1532.46	1.07
0.0018	315.15	0.00849	1532.5	1.07
0.0018	315.15	0.01002	1532.56	1.07
0.0018	315.15	0.01265	1532.67	1.07
0.0018	315.15	0.01571	1532.79	1.07
0.0018	315.15	0.01747	1532.85	1.07
0.0018	315.15	0.01938	1532.93	1.07
0.0028	305.15	0	1514.1	1.07
0.0028	305.15	0.00242	1514.22	1.07
0.0028	305.15	0.00434	1514.31	1.07
0.0028	305.15	0.00648	1514.41	1.07
0.0028	305.15	0.00855	1514.51	1.07
0.0028	305.15	0.01091	1514.62	1.07
0.0028	305.15	0.01298	1514.72	1.07
0.0028	305.15	0.01488	1514.81	1.07
0.0028	305.15	0.0179	1514.95	1.07
0.0028	310.15	0	1523.94	1.07
0.0028	310.15	0.00242	1524.05	1.07
0.0028	310.15	0.00434	1524.13	1.07
0.0028	310.15	0.00648	1524.23	1.07
0.0028	310.15	0.00855	1524.32	1.07
0.0028	310.15	0.01091	1524.42	1.07
0.0028	310.15	0.01298	1524.51	1.07
0.0028	310.15	0.01488	1524.59	1.07
0.0028	310.15	0.0179	1524.73	1.07
0.0028	315.15	0	1532.4	1.07
0.0028	315.15	0.00242	1532.5	1.07
0.0028	315.15	0.00434	1532.58	1.07
0.0028	315.15	0.00648	1532.67	1.07
0.0028	315.15	0.00855	1532.75	1.07
0.0028	315.15	0.01091	1532.84	1.07
0.0028	315.15	0.01298	1532.92	1.07
0.0028	315.15	0.01488	1532.99	1.07
0.0028	315.15	0.0179	1533.12	1.07
0.0038	305.15	0	1514.31	1.07
0.0038	305.15	0.00232	1514.42	1.07
0.0038	305.15	0.00422	1514.51	1.07
0.0038	305.15	0.00619	1514.6	1.07
0.0038	305.15	0.00883	1514.73	1.07
0.0038	305.15	0.01017	1514.79	1.07
0.0038	305.15	0.01262	1514.91	1.07
0.0038	305.15	0.01558	1515.05	1.07
0.0038	305.15	0.01716	1515.13	1.07
0.0038	310.15	0	1524.09	1.07
0.0038	310.15	0.00232	1524.19	1.07
0.0038	310.15	0.00422	1524.27	1.07
0.0038	310.15	0.00619	1524.35	1.07
0.0038	310.15	0.00883	1524.46	1.07
0.0038	310.15	0.01017	1524.52	1.07
0.0038	310.15	0.01262	1524.62	1.07
0.0038	310.15	0.01558	1524.75	1.07
0.0038	310.15	0.01716	1524.82	1.07
0.0038	315.15	0	1532.47	1.07
0.0038	315.15	0.00232	1532.56	1.07
0.0038	315.15	0.00422	1532.63	1.07
0.0038	315.15	0.00619	1532.7	1.07
0.0038	315.15	0.00883	1532.8	1.07
0.0038	315.15	0.01017	1532.85	1.07
0.0038	315.15	0.01262	1532.94	1.07
0.0038	315.15	0.01558	1533.06	1.07
0.0038	315.15	0.01716	1533.13	1.07

System: L-serine + 6-[D-(2-amino-2-phenylacetyl)amino]-3,3-dimethyl-7-oxo-4-thia-1-azabicyclo[3.2.0]heptane-2-carboxylic acid + water; phases: Liquid
Fixed: Pressure, kPa = 101
Property: Mass density, kg/m3 (Liquid); method: Vibrating tube method
Solvent: Molality, mol/kg of 6-[D-(2-amino-2-phenylacetyl)amino]-3,3-dimethyl-7-oxo-4-thia-1-azabicyclo[3.2.0]heptane-2-carboxylic acid	Temperature, K	Molality, mol/kg of L-serine	Mass density, kg/m3	uncertainty
0	305.15	0	995.03	0.089
0	305.15	0.00243	995.137	0.089
0	305.15	0.00405	995.208	0.089
0	305.15	0.00689	995.331	0.089
0	305.15	0.00752	995.358	0.089
0	305.15	0.0109	995.503	0.089
0	305.15	0.01301	995.592	0.089
0	305.15	0.01474	995.665	0.089
0	305.15	0.01683	995.751	0.089
0	305.15	0.01738	995.772	0.089
0	310.15	0	993.328	0.09
0	310.15	0.00243	993.434	0.09
0	310.15	0.00405	993.504	0.09
0	310.15	0.00689	993.626	0.09
0	310.15	0.00752	993.652	0.09
0	310.15	0.0109	993.796	0.09
0	310.15	0.01301	993.884	0.09
0	310.15	0.01474	993.954	0.09
0	310.15	0.01683	994.039	0.09
0	310.15	0.01738	994.061	0.09
0	315.15	0	991.44	0.091
0	315.15	0.00243	991.545	0.091
0	315.15	0.00405	991.614	0.091
0	315.15	0.00689	991.735	0.091
0	315.15	0.00752	991.761	0.091
0	315.15	0.0109	991.902	0.091
0	315.15	0.01301	991.989	0.091
0	315.15	0.01474	992.059	0.091
0	315.15	0.01683	992.143	0.091
0	315.15	0.01738	992.164	0.091
0.0009	305.15	0	995.272	0.089
0.0009	305.15	0.00244	995.378	0.089
0.0009	305.15	0.00328	995.414	0.089
0.0009	305.15	0.00452	995.467	0.089
0.0009	305.15	0.00607	995.533	0.089
0.0009	305.15	0.00834	995.628	0.089
0.0009	305.15	0.00979	995.688	0.089
0.0009	305.15	0.01274	995.808	0.089
0.0009	305.15	0.01484	995.892	0.089
0.0009	305.15	0.0168	995.97	0.089
0.0009	310.15	0	993.575	0.09
0.0009	310.15	0.00244	993.681	0.09
0.0009	310.15	0.00328	993.716	0.09
0.0009	310.15	0.00452	993.769	0.09
0.0009	310.15	0.00607	993.834	0.09
0.0009	310.15	0.00834	993.928	0.09
0.0009	310.15	0.00979	993.988	0.09
0.0009	310.15	0.01274	994.107	0.09
0.0009	310.15	0.01484	994.191	0.09
0.0009	310.15	0.0168	994.269	0.09
0.0009	315.15	0	991.661	0.091
0.0009	315.15	0.00244	991.766	0.091
0.0009	315.15	0.00328	991.801	0.091
0.0009	315.15	0.00452	991.853	0.091
0.0009	315.15	0.00607	991.918	0.091
0.0009	315.15	0.00834	992.011	0.091
0.0009	315.15	0.00979	992.07	0.09
0.0009	315.15	0.01274	992.188	0.091
0.0009	315.15	0.01484	992.271	0.091
0.0009	315.15	0.0168	992.349	0.091
0.0018	305.15	0	995.395	0.089
0.0018	305.15	0.00268	995.511	0.089
0.0018	305.15	0.00415	995.573	0.089
0.0018	305.15	0.00568	995.637	0.089
0.0018	305.15	0.00735	995.706	0.089
0.0018	305.15	0.00849	995.753	0.089
0.0018	305.15	0.01002	995.815	0.089
0.0018	305.15	0.01265	995.919	0.089
0.0018	305.15	0.01571	996.04	0.09
0.0018	305.15	0.01747	996.107	0.089
0.0018	305.15	0.01938	996.177	0.089
0.0018	310.15	0	993.698	0.09
0.0018	310.15	0.00268	993.812	0.09
0.0018	310.15	0.00415	993.873	0.09
0.0018	310.15	0.00568	993.936	0.09
0.0018	310.15	0.00735	994.004	0.09
0.0018	310.15	0.00849	994.051	0.09
0.0018	310.15	0.01002	994.112	0.09
0.0018	310.15	0.01265	994.215	0.09
0.0018	310.15	0.01571	994.332	0.09
0.0018	310.15	0.01747	994.398	0.09
0.0018	310.15	0.01938	994.467	0.09
0.0018	315.15	0	991.803	0.091
0.0018	315.15	0.00268	991.915	0.091
0.0018	315.15	0.00415	991.975	0.091
0.0018	315.15	0.00568	992.037	0.091
0.0018	315.15	0.00735	992.103	0.091
0.0018	315.15	0.00849	992.148	0.091
0.0018	315.15	0.01002	992.208	0.091
0.0018	315.15	0.01265	992.309	0.091
0.0018	315.15	0.01571	992.422	0.091
0.0018	315.15	0.01747	992.488	0.091
0.0018	315.15	0.01938	992.559	0.091
0.0028	305.15	0	995.533	0.089
0.0028	305.15	0.00242	995.637	0.089
0.0028	305.15	0.00434	995.718	0.089
0.0028	305.15	0.00648	995.807	0.089
0.0028	305.15	0.00855	995.892	0.089
0.0028	305.15	0.01091	995.987	0.089
0.0028	305.15	0.01298	996.069	0.089
0.0028	305.15	0.01488	996.143	0.089
0.0028	305.15	0.0179	996.259	0.089
0.0028	310.15	0	993.824	0.09
0.0028	310.15	0.00242	993.926	0.09
0.0028	310.15	0.00434	994.005	0.09
0.0028	310.15	0.00648	994.091	0.09
0.0028	310.15	0.00855	994.174	0.09
0.0028	310.15	0.01091	994.266	0.09
0.0028	310.15	0.01298	994.346	0.09
0.0028	310.15	0.01488	994.419	0.09
0.0028	310.15	0.0179	994.532	0.09
0.0028	315.15	0	991.899	0.091
0.0028	315.15	0.00242	991.999	0.091
0.0028	315.15	0.00434	992.076	0.091
0.0028	315.15	0.00648	992.16	0.09
0.0028	315.15	0.00855	992.241	0.091
0.0028	315.15	0.01091	992.331	0.091
0.0028	315.15	0.01298	992.408	0.091
0.0028	315.15	0.01488	992.478	0.091
0.0028	315.15	0.0179	992.587	0.091
0.0038	305.15	0	995.647	0.089
0.0038	305.15	0.00232	995.745	0.089
0.0038	305.15	0.00422	995.823	0.089
0.0038	305.15	0.00619	995.902	0.089
0.0038	305.15	0.00883	996.005	0.089
0.0038	305.15	0.01017	996.056	0.089
0.0038	305.15	0.01262	996.148	0.089
0.0038	305.15	0.01558	996.255	0.089
0.0038	305.15	0.01716	996.311	0.089
0.0038	310.15	0	993.942	0.09
0.0038	310.15	0.00232	994.036	0.09
0.0038	310.15	0.00422	994.111	0.09
0.0038	310.15	0.00619	994.187	0.09
0.0038	310.15	0.00883	994.287	0.09
0.0038	310.15	0.01017	994.337	0.09
0.0038	310.15	0.01262	994.425	0.09
0.0038	310.15	0.01558	994.524	0.09
0.0038	310.15	0.01716	994.575	0.09
0.0038	315.15	0	992.017	0.091
0.0038	315.15	0.00232	992.108	0.091
0.0038	315.15	0.00422	992.181	0.091
0.0038	315.15	0.00619	992.255	0.091
0.0038	315.15	0.00883	992.351	0.091
0.0038	315.15	0.01017	992.398	0.091
0.0038	315.15	0.01262	992.482	0.091
0.0038	315.15	0.01558	992.578	0.091
0.0038	315.15	0.01716	992.628	0.091

System: L-serine + water + amoxicillin; phases: Liquid
Fixed: Pressure, kPa = 101
Property: Speed of sound, m/s (Liquid); method: Sing-around technique in a fixed-path interferometer
Solvent: Molality, mol/kg of amoxicillin	Temperature, K	Molality, mol/kg of L-serine	Speed of sound, m/s	uncertainty
0.0009	305.15	0	1513.53	1.07
0.0009	305.15	0.00277	1513.68	1.07
0.0009	305.15	0.00565	1513.83	1.07
0.0009	305.15	0.00735	1513.92	1.07
0.0009	305.15	0.00924	1514.02	1.07
0.0009	305.15	0.01244	1514.18	1.07
0.0009	305.15	0.01526	1514.32	1.07
0.0009	305.15	0.01733	1514.43	1.07
0.0009	305.15	0.01946	1514.54	1.07
0.0009	310.15	0	1523.46	1.07
0.0009	310.15	0.00277	1523.6	1.07
0.0009	310.15	0.00565	1523.74	1.07
0.0009	310.15	0.00735	1523.82	1.07
0.0009	310.15	0.00924	1523.91	1.07
0.0009	310.15	0.01244	1524.06	1.07
0.0009	310.15	0.01526	1524.19	1.07
0.0009	310.15	0.01733	1524.29	1.07
0.0009	310.15	0.01946	1524.38	1.07
0.0009	315.15	0	1531.9	1.07
0.0009	315.15	0.00277	1532.03	1.07
0.0009	315.15	0.00565	1532.16	1.07
0.0009	315.15	0.00735	1532.23	1.07
0.0009	315.15	0.00924	1532.31	1.07
0.0009	315.15	0.01244	1532.45	1.07
0.0009	315.15	0.01526	1532.56	1.07
0.0009	315.15	0.01733	1532.65	1.07
0.0009	315.15	0.01946	1532.73	1.07
0.0018	305.15	0	1513.72	1.07
0.0018	305.15	0.00281	1513.86	1.07
0.0018	305.15	0.00487	1513.96	1.07
0.0018	305.15	0.00673	1514.05	1.07
0.0018	305.15	0.00885	1514.15	1.07
0.0018	305.15	0.01075	1514.24	1.07
0.0018	305.15	0.01429	1514.41	1.07
0.0018	305.15	0.01722	1514.55	1.07
0.0018	305.15	0.01899	1514.63	1.07
0.0018	310.15	0	1523.56	1.07
0.0018	310.15	0.00281	1523.682	1.068
0.0018	310.15	0.00487	1523.77	1.07
0.0018	310.15	0.00673	1523.85	1.07
0.0018	310.15	0.00885	1523.94	1.07
0.0018	310.15	0.01075	1524.02	1.07
0.0018	310.15	0.01429	1524.17	1.07
0.0018	310.15	0.01722	1524.3	1.1
0.0018	310.15	0.01899	1524.37	1.07
0.0018	315.15	0	1532.02	1.07
0.0018	315.15	0.00281	1532.13	1.07
0.0018	315.15	0.00487	1532.21	1.07
0.0018	315.15	0.00673	1532.28	1.07
0.0018	315.15	0.00885	1532.36	1.07
0.0018	315.15	0.01075	1532.43	1.07
0.0018	315.15	0.01429	1532.56	1.07
0.0018	315.15	0.01722	1532.66	1.07
0.0018	315.15	0.01899	1532.72	1.07
0.0028	305.15	0	1513.84	1.07
0.0028	305.15	0.00271	1513.97	1.07
0.0028	305.15	0.00434	1514.04	1.07
0.0028	305.15	0.00606	1514.12	1.07
0.0028	305.15	0.008578	1514.23	1.07
0.0028	305.15	0.009693	1514.28	1.07
0.0028	305.15	0.012806	1514.42	1.07
0.0028	305.15	0.016483	1514.58	1.07
0.0028	305.15	0.019278	1514.7	1.07
0.0028	310.15	0	1523.75	1.07
0.0028	310.15	0.00271	1523.86	1.07
0.0028	310.15	0.00434	1523.92	1.07
0.0028	310.15	0.00606	1523.98	1.07
0.0028	310.15	0.008578	1524.08	1.07
0.0028	310.15	0.009693	1524.12	1.07
0.0028	310.15	0.012806	1524.24	1.07
0.0028	310.15	0.016483	1524.37	1.07
0.0028	310.15	0.019278	1524.47	1.07
0.0028	315.15	0	1532.18	1.07
0.0028	315.15	0.00271	1532.27	1.07
0.0028	315.15	0.00434	1532.32	1.07
0.0028	315.15	0.00606	1532.37	1.07
0.0028	315.15	0.008578	1532.45	1.07
0.0028	315.15	0.009693	1532.48	1.07
0.0028	315.15	0.012806	1532.57	1.07
0.0028	315.15	0.016483	1532.66	1.07
0.0028	315.15	0.019278	1532.73	1.07
0.0038	305.15	0	1513.85	1.07
0.0038	305.15	0.00289	1513.98	1.07
0.0038	305.15	0.00516	1514.08	1.07
0.0038	305.15	0.00776	1514.2	1.07
0.0038	305.15	0.00952	1514.28	1.07
0.0038	305.15	0.0113	1514.36	1.07
0.0038	305.15	0.01342	1514.46	1.07
0.0038	305.15	0.01519	1514.54	1.07
0.0038	305.15	0.01892	1514.71	1.07
0.0038	310.15	0	1523.83	1.07
0.0038	310.15	0.00289	1523.94	1.07
0.0038	310.15	0.00516	1524.03	1.07
0.0038	310.15	0.00776	1524.12	1.07
0.0038	310.15	0.00952	1524.19	1.07
0.0038	310.15	0.0113	1524.26	1.07
0.0038	310.15	0.01342	1524.34	1.07
0.0038	310.15	0.01519	1524.41	1.07
0.0038	310.15	0.01892	1524.55	1.07
0.0038	315.15	0	1532.27	1.07
0.0038	315.15	0.00289	1532.36	1.07
0.0038	315.15	0.00516	1532.43	1.07
0.0038	315.15	0.00776	1532.51	1.07
0.0038	315.15	0.00952	1532.563	1.067
0.0038	315.15	0.0113	1532.62	1.07
0.0038	315.15	0.01342	1532.686	1.067
0.0038	315.15	0.01519	1532.74	1.07
0.0038	315.15	0.01892	1532.87	1.07

System: L-serine + water + amoxicillin; phases: Liquid
Fixed: Pressure, kPa = 101
Property: Mass density, kg/m3 (Liquid); method: Vibrating tube method
Solvent: Molality, mol/kg of amoxicillin	Temperature, K	Molality, mol/kg of L-serine	Mass density, kg/m3	uncertainty
0.0009	305.15	0	995.371	0.089
0.0009	305.15	0.00277	995.49	0.089
0.0009	305.15	0.00565	995.612	0.089
0.0009	305.15	0.00735	995.682	0.089
0.0009	305.15	0.00924	995.759	0.089
0.0009	305.15	0.01244	995.887	0.089
0.0009	305.15	0.01526	995.996	0.089
0.0009	305.15	0.01733	996.075	0.089
0.0009	305.15	0.01946	996.155	0.089
0.0009	310.15	0	993.67	0.09
0.0009	310.15	0.00277	993.788	0.09
0.0009	310.15	0.00565	993.908	0.09
0.0009	310.15	0.00735	993.978	0.09
0.0009	310.15	0.00924	994.054	0.09
0.0009	310.15	0.01244	994.18	0.09
0.0009	310.15	0.01526	994.288	0.09
0.0009	310.15	0.01733	994.366	0.09
0.0009	310.15	0.01946	994.445	0.09
0.0009	315.15	0	991.778	0.091
0.0009	315.15	0.00277	991.895	0.091
0.0009	315.15	0.00565	992.014	0.091
0.0009	315.15	0.00735	992.083	0.091
0.0009	315.15	0.00924	992.158	0.091
0.0009	315.15	0.01244	992.282	0.091
0.0009	315.15	0.01526	992.389	0.091
0.0009	315.15	0.01733	992.465	0.091
0.0009	315.15	0.01946	992.545	0.091
0.0018	305.15	0	995.484	0.089
0.0018	305.15	0.00281	995.604	0.089
0.0018	305.15	0.00487	995.69	0.09
0.0018	305.15	0.00673	995.766	0.089
0.0018	305.15	0.00885	995.852	0.089
0.0018	305.15	0.01075	995.928	0.089
0.0018	305.15	0.01429	996.066	0.089
0.0018	305.15	0.01722	996.177	0.089
0.0018	305.15	0.01899	996.244	0.089
0.0018	310.15	0	993.788	0.09
0.0018	310.15	0.00281	993.907	0.09
0.0018	310.15	0.00487	993.993	0.09
0.0018	310.15	0.00673	994.068	0.09
0.0018	310.15	0.00885	994.154	0.09
0.0018	310.15	0.01075	994.229	0.09
0.0018	310.15	0.01429	994.366	0.09
0.0018	310.15	0.01722	994.476	0.09
0.0018	310.15	0.01899	994.542	0.09
0.0018	315.15	0	991.89	0.09
0.0018	315.15	0.00281	992.008	0.091
0.0018	315.15	0.00487	992.093	0.091
0.0018	315.15	0.00673	992.168	0.091
0.0018	315.15	0.00885	992.253	0.091
0.0018	315.15	0.01075	992.328	0.091
0.0018	315.15	0.01429	992.464	0.091
0.0018	315.15	0.01722	992.574	0.091
0.0018	315.15	0.01899	992.638	0.09
0.0028	305.15	0	995.594	0.089
0.0028	305.15	0.00271	995.709	0.089
0.0028	305.15	0.00434	995.777	0.089
0.0028	305.15	0.00606	995.847	0.089
0.0028	305.15	0.008578	995.948	0.089
0.0028	305.15	0.009693	995.992	0.089
0.0028	305.15	0.012806	996.114	0.089
0.0028	305.15	0.016483	996.255	0.089
0.0028	305.15	0.019278	996.361	0.089
0.0028	310.15	0	993.893	0.09
0.0028	310.15	0.00271	994.007	0.09
0.0028	310.15	0.00434	994.074	0.09
0.0028	310.15	0.00606	994.144	0.09
0.0028	310.15	0.008578	994.244	0.09
0.0028	310.15	0.009693	994.288	0.09
0.0028	310.15	0.012806	994.409	0.09
0.0028	310.15	0.016483	994.548	0.09
0.0028	310.15	0.019278	994.654	0.09
0.0028	315.15	0	991.995	0.091
0.0028	315.15	0.00271	992.108	0.091
0.0028	315.15	0.00434	992.174	0.091
0.0028	315.15	0.00606	992.243	0.091
0.0028	315.15	0.008578	992.343	0.091
0.0028	315.15	0.009693	992.386	0.091
0.0028	315.15	0.012806	992.506	0.091
0.0028	315.15	0.016483	992.645	0.09
0.0028	315.15	0.019278	992.749	0.09
0.0038	305.15	0	995.717	0.089
0.0038	305.15	0.00289	995.839	0.089
0.0038	305.15	0.00516	995.932	0.089
0.0038	305.15	0.00776	996.036	0.089
0.0038	305.15	0.00952	996.105	0.089
0.0038	305.15	0.0113	996.174	0.089
0.0038	305.15	0.01342	996.253	0.089
0.0038	305.15	0.01519	996.318	0.089
0.0038	305.15	0.01892	996.448	0.089
0.0038	310.15	0	994.016	0.09
0.0038	310.15	0.00289	994.136	0.09
0.0038	310.15	0.00516	994.228	0.09
0.0038	310.15	0.00776	994.331	0.09
0.0038	310.15	0.00952	994.399	0.09
0.0038	310.15	0.0113	994.466	0.09
0.0038	310.15	0.01342	994.544	0.09
0.0038	310.15	0.01519	994.608	0.09
0.0038	310.15	0.01892	994.738	0.09
0.0038	315.15	0	992.118	0.091
0.0038	315.15	0.00289	992.236	0.091
0.0038	315.15	0.00516	992.326	0.091
0.0038	315.15	0.00776	992.427	0.091
0.0038	315.15	0.00952	992.494	0.091
0.0038	315.15	0.0113	992.56	0.09
0.0038	315.15	0.01342	992.636	0.09
0.0038	315.15	0.01519	992.699	0.09
0.0038	315.15	0.01892	992.828	0.09
