Measured thermophysical data. Densities and Viscosities of Binary Mixtures Containing Diethylene Glycol and 2-Alkanol
Source: J. Chem. Eng. Data, 2012, 10.1021/je300827f
Compound 1: diethylene glycol, C4H10O3, InChI=1S/C4H10O3/c5-1-3-7-4-2-6/h5-6H,1-4H2, purity 99%
Compound 2: propan-2-ol, C3H8O, InChI=1S/C3H8O/c1-3(2)4/h3-4H,1-2H3, purity 99.5%
Compound 3: butan-2-ol, C4H10O, InChI=1S/C4H10O/c1-3-4(2)5/h4-5H,3H2,1-2H3, purity 99.5%
Compound 4: pentan-2-ol, C5H12O, InChI=1S/C5H12O/c1-3-4-5(2)6/h5-6H,3-4H2,1-2H3, purity 99%
Compound 5: 2-heptanol, C7H16O, InChI=1S/C7H16O/c1-3-4-5-6-7(2)8/h7-8H,3-6H2,1-2H3, purity 99.5%
Compound 6: 2-hexanol, C6H14O, InChI=1S/C6H14O/c1-3-4-5-6(2)7/h6-7H,3-5H2,1-2H3, purity 99%

System: propan-2-ol + diethylene glycol; phases: Liquid
Fixed: Pressure, kPa = 101
Property: Viscosity, Pa*s (Liquid); method: Capillary tube (Ostwald; Ubbelohde) method
Temperature, K	Mole fraction of diethylene glycol	Viscosity, Pa*s	uncertainty
298.15	0	0.00206	8e-05
298.15	0.0808	0.00271	0.00011
298.15	0.1599	0.00359	0.00015
298.15	0.2398	0.00473	0.00019
298.15	0.3501	0.00667	0.00027
298.15	0.4399	0.00859	0.00035
298.15	0.5596	0.01159	0.00047
298.15	0.6499	0.0142	0.00057
298.15	0.7396	0.01708	0.00069
298.15	0.8501	0.02104	0.00085
298.15	0.9402	0.02461	0.001
298.15	1	0.02715	0.0011
303.15	0	0.00179	7e-05
303.15	0.0808	0.00254	0.0001
303.15	0.1599	0.00338	0.00014
303.15	0.2398	0.00435	0.00018
303.15	0.3501	0.00593	0.00024
303.15	0.4399	0.00744	0.0003
303.15	0.5596	0.0098	0.0004
303.15	0.6499	0.01184	0.00048
303.15	0.7396	0.0141	0.00057
303.15	0.8501	0.01719	0.0007
303.15	0.9402	0.01994	0.00081
303.15	1	0.02187	0.00089
308.15	0	0.00156	6e-05
308.15	0.0808	0.00222	9e-05
308.15	0.1599	0.00289	0.00012
308.15	0.2398	0.00363	0.00015
308.15	0.3501	0.00483	0.0002
308.15	0.4399	0.006	0.00024
308.15	0.5596	0.00784	0.00032
308.15	0.6499	0.00947	0.00038
308.15	0.7396	0.01127	0.00046
308.15	0.8501	0.0137	0.00055
308.15	0.9402	0.01582	0.00064
308.15	1	0.01726	0.0007
313.15	0	0.00138	6e-05
313.15	0.0808	0.0019	8e-05
313.15	0.1599	0.00252	0.0001
313.15	0.2398	0.00325	0.00013
313.15	0.3501	0.00441	0.00018
313.15	0.4399	0.00549	0.00022
313.15	0.5596	0.00709	0.00029
313.15	0.6499	0.00844	0.00034
313.15	0.7396	0.00989	0.0004
313.15	0.8501	0.01184	0.00048
313.15	0.9402	0.01358	0.00055
313.15	1	0.01481	0.0006

System: propan-2-ol + diethylene glycol; phases: Liquid
Fixed: Pressure, kPa = 101
Property: Mass density, kg/m3 (Liquid); method: Vibrating tube method
Temperature, K	Mole fraction of diethylene glycol	Mass density, kg/m3	uncertainty
298.15	0	781.1	0.2
298.15	0.0808	814.9	0.2
298.15	0.1599	846.9	0.2
298.15	0.2398	877.8	0.2
298.15	0.3501	918.3	0.2
298.15	0.4399	949.6	0.2
298.15	0.5596	988.8	0.2
298.15	0.6499	1016.8	0.2
298.15	0.7396	1043.2	0.2
298.15	0.8501	1073.9	0.3
298.15	0.9402	1097.4	0.3
298.15	1	1112.4	0.3
303.15	0	776.7	0.2
303.15	0.0808	810.2	0.2
303.15	0.1599	841.8	0.2
303.15	0.2398	872.4	0.2
303.15	0.3501	912.7	0.2
303.15	0.4399	943.9	0.2
303.15	0.5596	983.3	0.2
303.15	0.6499	1011.5	0.2
303.15	0.7396	1038.2	0.2
303.15	0.8501	1069.5	0.3
303.15	0.9402	1093.8	0.3
303.15	1	1109.1	0.3
308.15	0	771.8	0.2
308.15	0.0808	805.2	0.2
308.15	0.1599	836.5	0.2
308.15	0.2398	867	0.2
308.15	0.3501	907.3	0.2
308.15	0.4399	938.5	0.2
308.15	0.5596	978.1	0.2
308.15	0.6499	1006.4	0.2
308.15	0.7396	1033.4	0.2
308.15	0.8501	1065.2	0.3
308.15	0.9402	1089.8	0.3
308.15	1	1105.6	0.3
313.15	0	767.4	0.2
313.15	0.0808	800.5	0.2
313.15	0.1599	831.7	0.2
313.15	0.2398	862	0.2
313.15	0.3501	902.2	0.2
313.15	0.4399	933.4	0.2
313.15	0.5596	973.1	0.2
313.15	0.6499	1001.4	0.2
313.15	0.7396	1028.8	0.2
313.15	0.8501	1061.1	0.3
313.15	0.9402	1086.2	0.3
313.15	1	1102.3	0.3

System: butan-2-ol + diethylene glycol; phases: Liquid
Fixed: Pressure, kPa = 101
Property: Viscosity, Pa*s (Liquid); method: Capillary tube (Ostwald; Ubbelohde) method
Temperature, K	Mole fraction of diethylene glycol	Viscosity, Pa*s	uncertainty
298.15	0	0.0031	0.00013
298.15	0.0808	0.00369	0.00015
298.15	0.1598	0.00442	0.00018
298.15	0.2398	0.00533	0.00022
298.15	0.3494	0.00694	0.00028
298.15	0.4399	0.00861	0.00035
298.15	0.5591	0.01134	0.00046
298.15	0.6501	0.01386	0.00056
298.15	0.7399	0.01672	0.00068
298.15	0.8499	0.02075	0.00084
298.15	0.9399	0.02446	0.00099
298.15	1	0.02715	0.0011
303.15	0	0.0026	0.00011
303.15	0.0833	0.0031	0.00013
303.15	0.161	0.00369	0.00015
303.15	0.2402	0.00441	0.00018
303.15	0.3498	0.00569	0.00023
303.15	0.441	0.00703	0.00028
303.15	0.5609	0.00925	0.00037
303.15	0.6498	0.01131	0.00046
303.15	0.7398	0.01364	0.00055
303.15	0.8501	0.01688	0.00068
303.15	0.9405	0.0198	0.0008
303.15	1	0.02187	0.00089
308.15	0	0.00215	9e-05
308.15	0.0833	0.00265	0.00011
308.15	0.161	0.00317	0.00013
308.15	0.2402	0.00377	0.00015
308.15	0.3498	0.00477	0.00019
308.15	0.441	0.00579	0.00023
308.15	0.5609	0.00744	0.0003
308.15	0.6498	0.00898	0.00036
308.15	0.7398	0.01074	0.00043
308.15	0.8501	0.01324	0.00054
308.15	0.9405	0.01556	0.00063
308.15	1	0.01726	0.0007
313.15	0	0.00173	7e-05
313.15	0.0833	0.00222	9e-05
313.15	0.161	0.00274	0.00011
313.15	0.2402	0.00331	0.00013
313.15	0.3498	0.00425	0.00017
313.15	0.441	0.00516	0.00021
313.15	0.5609	0.00662	0.00027
313.15	0.6498	0.00793	0.00032
313.15	0.7398	0.00942	0.00038
313.15	0.8501	0.0115	0.00047
313.15	0.9405	0.01342	0.00054
313.15	1	0.01481	0.0006

System: butan-2-ol + diethylene glycol; phases: Liquid
Fixed: Pressure, kPa = 101
Property: Mass density, kg/m3 (Liquid); method: Vibrating tube method
Temperature, K	Mole fraction of diethylene glycol	Mass density, kg/m3	uncertainty
298.15	0	802.7	0.2
298.15	0.0808	829.4	0.2
298.15	0.1598	855.3	0.2
298.15	0.2398	881.3	0.2
298.15	0.3494	916.4	0.2
298.15	0.4399	944.9	0.2
298.15	0.5591	981.9	0.2
298.15	0.6501	1009.7	0.2
298.15	0.7399	1036.7	0.2
298.15	0.8499	1069.2	0.3
298.15	0.9399	1095.3	0.3
298.15	1	1112.4	0.3
303.15	0	798.3	0.2
303.15	0.0808	824.8	0.2
303.15	0.1598	850.5	0.2
303.15	0.2398	876.3	0.2
303.15	0.3494	911.3	0.2
303.15	0.4399	939.8	0.2
303.15	0.5591	977.8	0.2
303.15	0.6501	1004.9	0.2
303.15	0.7399	1032.3	0.2
303.15	0.8499	1065.1	0.3
303.15	0.9399	1091.7	0.3
303.15	1	1109.1	0.3
308.15	0	793.6	0.2
308.15	0.0808	819.9	0.2
308.15	0.1598	845.5	0.2
308.15	0.2398	871.2	0.2
308.15	0.3494	906.2	0.2
308.15	0.4399	934.7	0.2
308.15	0.5591	971.9	0.2
308.15	0.6501	1000.1	0.2
308.15	0.7399	1027.6	0.2
308.15	0.8499	1060.9	0.3
308.15	0.9399	1087.9	0.3
308.15	1	1105.6	0.3
313.15	0	789.1	0.2
313.15	0.0808	815.3	0.2
313.15	0.1598	840.7	0.2
313.15	0.2398	866.3	0.2
313.15	0.3494	901.2	0.2
313.15	0.4399	929.8	0.2
313.15	0.5591	967.1	0.2
313.15	0.6501	995.4	0.2
313.15	0.7399	1023.1	0.2
313.15	0.8499	1056.8	0.3
313.15	0.9399	1084.2	0.3
313.15	1	1102.3	0.3

System: diethylene glycol + pentan-2-ol; phases: Liquid
Fixed: Pressure, kPa = 101
Property: Viscosity, Pa*s (Liquid); method: Capillary tube (Ostwald; Ubbelohde) method
Temperature, K	Mole fraction of diethylene glycol	Viscosity, Pa*s	uncertainty
298.15	0	0.0032	0.00013
298.15	0.0811	0.00385	0.00016
298.15	0.1598	0.00444	0.00018
298.15	0.2399	0.00512	0.00021
298.15	0.3501	0.00637	0.00026
298.15	0.4398	0.00779	0.00032
298.15	0.5599	0.01037	0.00042
298.15	0.6501	0.0129	0.00052
298.15	0.7399	0.01592	0.00065
298.15	0.8499	0.02026	0.00082
298.15	0.9399	0.02428	0.00098
298.15	1	0.02714	0.0011
303.15	0	0.0028	0.00011
303.15	0.0811	0.00317	0.00013
303.15	0.1598	0.00355	0.00014
303.15	0.2399	0.00405	0.00016
303.15	0.3501	0.00503	0.0002
303.15	0.4398	0.00617	0.00025
303.15	0.5599	0.0083	0.00034
303.15	0.6501	0.01035	0.00042
303.15	0.7399	0.01281	0.00052
303.15	0.8499	0.01633	0.00066
303.15	0.9399	0.01956	0.00079
303.15	1	0.02187	0.00089
308.15	0	0.00233	9e-05
308.15	0.0811	0.00284	0.00012
308.15	0.1598	0.00329	0.00013
308.15	0.2399	0.00379	0.00015
308.15	0.3501	0.00458	0.00019
308.15	0.4398	0.00542	0.00022
308.15	0.5599	0.0069	0.00028
308.15	0.6501	0.00833	0.00034
308.15	0.7399	0.01008	0.00041
308.15	0.8499	0.01272	0.00052
308.15	0.9399	0.01531	0.00062
308.15	1	0.01726	0.0007
313.15	0	0.00199	8e-05
313.15	0.0811	0.00247	0.0001
313.15	0.1598	0.00293	0.00012
313.15	0.2399	0.00344	0.00014
313.15	0.3501	0.00426	0.00017
313.15	0.4398	0.00508	0.00021
313.15	0.5599	0.00646	0.00026
313.15	0.6501	0.00774	0.00031
313.15	0.7399	0.00922	0.00037
313.15	0.8499	0.01136	0.00046
313.15	0.9399	0.01335	0.00054
313.15	1	0.01481	0.0006

System: diethylene glycol + pentan-2-ol; phases: Liquid
Fixed: Pressure, kPa = 101
Property: Mass density, kg/m3 (Liquid); method: Vibrating tube method
Temperature, K	Mole fraction of diethylene glycol	Mass density, kg/m3	uncertainty
298.15	0	805.4	0.2
298.15	0.0811	827.8	0.2
298.15	0.1598	849.9	0.2
298.15	0.2399	872.9	0.2
298.15	0.3501	905.1	0.2
298.15	0.4398	931.9	0.2
298.15	0.5599	968.7	0.2
298.15	0.6501	997.1	0.2
298.15	0.7399	1025.8	0.3
298.15	0.8499	1061.8	0.3
298.15	0.9399	1091.9	0.3
298.15	1	1112.4	0.3
303.15	0	801.2	0.2
303.15	0.0811	823.5	0.2
303.15	0.1598	845.5	0.2
303.15	0.2399	868.4	0.2
303.15	0.3501	900.6	0.2
303.15	0.4398	927.5	0.2
303.15	0.5599	964.2	0.2
303.15	0.6501	992.8	0.2
303.15	0.7399	1021.7	0.3
303.15	0.8499	1058.1	0.3
303.15	0.9399	1088.3	0.3
303.15	1	1109.1	0.3
308.15	0	796.6	0.2
308.15	0.0811	818.9	0.2
308.15	0.1598	840.8	0.2
308.15	0.2399	863.5	0.2
308.15	0.3501	895.7	0.2
308.15	0.4398	922.6	0.2
308.15	0.5599	959.5	0.2
308.15	0.6501	988.1	0.2
308.15	0.7399	1017.4	0.3
308.15	0.8499	1053.9	0.3
308.15	0.9399	1084.7	0.3
308.15	1	1105.6	0.3
313.15	0	792.5	0.2
313.15	0.0811	814.6	0.2
313.15	0.1598	836.5	0.2
313.15	0.2399	859.2	0.2
313.15	0.3501	891.3	0.2
313.15	0.4398	918.2	0.2
313.15	0.5599	955.2	0.2
313.15	0.6501	983.9	0.2
313.15	0.7399	1013.1	0.3
313.15	0.8499	1050	0.3
313.15	0.9399	1081.1	0.3
313.15	1	1102.3	0.3

System: diethylene glycol + 2-hexanol; phases: Liquid
Fixed: Pressure, kPa = 101
Property: Viscosity, Pa*s (Liquid); method: Capillary tube (Ostwald; Ubbelohde) method
Temperature, K	Mole fraction of diethylene glycol	Viscosity, Pa*s	uncertainty
298.15	0	0.0041	0.00017
298.15	0.0809	0.00424	0.00017
298.15	0.1597	0.00439	0.00018
298.15	0.2398	0.00471	0.00019
298.15	0.3501	0.00569	0.00023
298.15	0.4398	0.00707	0.00029
298.15	0.5602	0.00989	0.0004
298.15	0.6501	0.01269	0.00051
298.15	0.7403	0.01604	0.00065
298.15	0.8502	0.02063	0.00084
298.15	0.9398	0.02455	0.00099
298.15	1	0.02715	0.0011
303.15	0	0.00341	0.00014
303.15	0.0809	0.00393	0.00016
303.15	0.1597	0.00419	0.00017
303.15	0.2398	0.00443	0.00018
303.15	0.3501	0.00503	0.0002
303.15	0.4398	0.00596	0.00024
303.15	0.5602	0.008	0.00032
303.15	0.6501	0.01016	0.00041
303.15	0.7403	0.01283	0.00052
303.15	0.8502	0.01656	0.00067
303.15	0.9398	0.01977	0.0008
303.15	1	0.02187	0.00089
308.15	0	0.00282	0.00011
308.15	0.0809	0.00313	0.00013
308.15	0.1597	0.00338	0.00014
308.15	0.2398	0.00366	0.00015
308.15	0.3501	0.00424	0.00017
308.15	0.4398	0.00499	0.0002
308.15	0.5602	0.00649	0.00026
308.15	0.6501	0.00804	0.00033
308.15	0.7403	0.00996	0.0004
308.15	0.8502	0.01276	0.00052
308.15	0.9398	0.01538	0.00062
308.15	1	0.01726	0.0007
313.15	0	0.00222	9e-05
313.15	0.0809	0.00226	9e-05
313.15	0.1597	0.00247	0.0001
313.15	0.2398	0.00285	0.00012
313.15	0.3501	0.00363	0.00015
313.15	0.4398	0.0045	0.00018
313.15	0.5602	0.00599	0.00024
313.15	0.6501	0.00737	0.0003
313.15	0.7403	0.00896	0.00036
313.15	0.8502	0.0112	0.00045
313.15	0.9398	0.01328	0.00054
313.15	1	0.01481	0.0006

System: diethylene glycol + 2-hexanol; phases: Liquid
Fixed: Pressure, kPa = 101
Property: Mass density, kg/m3 (Liquid); method: Vibrating tube method
Temperature, K	Mole fraction of diethylene glycol	Mass density, kg/m3	uncertainty
298.15	0	810.1	0.2
298.15	0.0809	828.8	0.2
298.15	0.1597	847.7	0.2
298.15	0.2398	867.8	0.2
298.15	0.3501	896.9	0.2
298.15	0.4398	921.9	0.2
298.15	0.5602	957.6	0.2
298.15	0.6501	985.9	0.2
298.15	0.7403	1015.9	0.3
298.15	0.8502	1054.8	0.3
298.15	0.9398	1088.6	0.3
298.15	1	1112.4	0.3
303.15	0	806.1	0.2
303.15	0.0809	824.7	0.2
303.15	0.1597	843.5	0.2
303.15	0.2398	863.5	0.2
303.15	0.3501	892.5	0.2
303.15	0.4398	917.6	0.2
303.15	0.5602	953.2	0.2
303.15	0.6501	981.6	0.2
303.15	0.7403	1011.7	0.3
303.15	0.8502	1050.9	0.3
303.15	0.9398	1084.9	0.3
303.15	1	1109.1	0.3
308.15	0	802.1	0.2
308.15	0.0809	820.3	0.2
308.15	0.1597	839.1	0.2
308.15	0.2398	858.9	0.2
308.15	0.3501	887.8	0.2
308.15	0.4398	912.7	0.2
308.15	0.5602	948.4	0.2
308.15	0.6501	976.9	0.2
308.15	0.7403	1007.2	0.3
308.15	0.8502	1046.6	0.3
308.15	0.9398	1081.1	0.3
308.15	1	1105.6	0.3
313.15	0	798	0.2
313.15	0.0809	816.1	0.2
313.15	0.1597	834.7	0.2
313.15	0.2398	854.4	0.2
313.15	0.3501	883.1	0.2
313.15	0.4398	908.2	0.2
313.15	0.5602	943.7	0.2
313.15	0.6501	972.3	0.2
313.15	0.7403	1002.7	0.2
313.15	0.8502	1042.5	0.3
313.15	0.9398	1077.5	0.3
313.15	1	1102.3	0.3

System: diethylene glycol + 2-heptanol; phases: Liquid
Fixed: Pressure, kPa = 101
Property: Viscosity, Pa*s (Liquid); method: Capillary tube (Ostwald; Ubbelohde) method
Temperature, K	Mole fraction of diethylene glycol	Viscosity, Pa*s	uncertainty
298.15	0	0.00502	0.0002
298.15	0.0807	0.00522	0.00021
298.15	0.1596	0.00527	0.00021
298.15	0.2397	0.00538	0.00022
298.15	0.3501	0.00594	0.00024
298.15	0.4398	0.00695	0.00028
298.15	0.5602	0.00932	0.00038
298.15	0.6501	0.01189	0.00048
298.15	0.7402	0.01513	0.00061
298.15	0.8501	0.01986	0.0008
298.15	0.9397	0.02415	0.00098
298.15	1	0.02714	0.0011
303.15	0	0.00415	0.00017
303.15	0.0807	0.00445	0.00018
303.15	0.1596	0.00466	0.00019
303.15	0.2397	0.00489	0.0002
303.15	0.3501	0.00544	0.00022
303.15	0.4398	0.00621	0.00025
303.15	0.5602	0.00787	0.00032
303.15	0.6501	0.00969	0.00039
303.15	0.7402	0.01204	0.00049
303.15	0.8501	0.01565	0.00063
303.15	0.9397	0.0192	0.00078
303.15	1	0.02187	0.00089
308.15	0	0.00348	0.00014
308.15	0.0807	0.00398	0.00016
308.15	0.1596	0.00423	0.00017
308.15	0.2397	0.00439	0.00018
308.15	0.3501	0.0047	0.00019
308.15	0.4398	0.0052	0.00021
308.15	0.5602	0.00643	0.00026
308.15	0.6501	0.00784	0.00032
308.15	0.7402	0.00971	0.00039
308.15	0.8501	0.01254	0.00051
308.15	0.9397	0.01527	0.00062
308.15	1	0.01726	0.0007
313.15	0	0.00285	0.00012
313.15	0.0807	0.00304	0.00012
313.15	0.1596	0.00321	0.00013
313.15	0.2397	0.00342	0.00014
313.15	0.3501	0.00387	0.00016
313.15	0.4398	0.00445	0.00018
313.15	0.5602	0.00564	0.00023
313.15	0.6501	0.00689	0.00028
313.15	0.7402	0.00846	0.00034
313.15	0.8501	0.01082	0.00044
313.15	0.9397	0.0131	0.00053
313.15	1	0.01481	0.0006

System: diethylene glycol + 2-heptanol; phases: Liquid
Fixed: Pressure, kPa = 101
Property: Mass density, kg/m3 (Liquid); method: Vibrating tube method
Temperature, K	Mole fraction of diethylene glycol	Mass density, kg/m3	uncertainty
298.15	0	813.2	0.1
298.15	0.0807	829.4	0.2
298.15	0.1596	846.1	0.2
298.15	0.2397	864.1	0.2
298.15	0.3501	890.9	0.2
298.15	0.4398	914.4	0.2
298.15	0.5602	948.9	0.2
298.15	0.6501	977.1	0.2
298.15	0.7402	1007.7	0.2
298.15	0.8501	1048.8	0.3
298.15	0.9397	1085.7	0.3
298.15	1	1112.4	0.3
303.15	0	809.3	0.1
303.15	0.0807	825.2	0.2
303.15	0.1596	841.8	0.2
303.15	0.2397	859.8	0.2
303.15	0.3501	886.5	0.2
303.15	0.4398	910.1	0.2
303.15	0.5602	944.5	0.2
303.15	0.6501	972.8	0.2
303.15	0.7402	1003.6	0.2
303.15	0.8501	1044.9	0.3
303.15	0.9397	1082.1	0.3
303.15	1	1109.1	0.3
308.15	0	805	0.2
308.15	0.0807	820.9	0.2
308.15	0.1596	837.5	0.2
308.15	0.2397	855.3	0.2
308.15	0.3501	881.9	0.2
308.15	0.4398	905.3	0.2
308.15	0.5602	939.8	0.2
308.15	0.6501	968.2	0.2
308.15	0.7402	999.1	0.2
308.15	0.8501	1040.6	0.2
308.15	0.9397	1078.4	0.3
308.15	1	1105.6	0.3
313.15	0	801.1	0.2
313.15	0.0807	817	0.2
313.15	0.1596	833.5	0.2
313.15	0.2397	851.2	0.2
313.15	0.3501	877.7	0.2
313.15	0.4398	901.2	0.2
313.15	0.5602	935.5	0.2
313.15	0.6501	963.9	0.2
313.15	0.7402	994.9	0.2
313.15	0.8501	1036.6	0.2
313.15	0.9397	1074.6	0.3
313.15	1	1102.3	0.3
