Measured thermophysical data. Extraction of Butylbenzene from Dodecane Using Hexafluorophosphate-Based Ionic Liquids: Effect of Cation Change
Source: J. Chem. Eng. Data, 2012, 10.1021/je3002305
Compound 1: 1-butyl-3-methylimidazolium hexafluorophosphate, C8H15F6N2P, InChI=1S/C8H15N2.F6P/c1-3-4-5-10-7-6-9(2)8-10;1-7(2,3,4,5)6/h6-8H,3-5H2,1-2H3;/q+1;-1, purity 98%
Compound 2: 1-hexyl-3-methylimidazolium hexafluorophosphate, C10H19F6N2P, InChI=1S/C10H19N2.F6P/c1-3-4-5-6-7-12-9-8-11(2)10-12;1-7(2,3,4,5)6/h8-10H,3-7H2,1-2H3;/q+1;-1, purity 98%
Compound 3: 1-octyl-3-methylimidazolium hexafluorophosphate, C12H23F6N2P, InChI=1S/C12H23N2.F6P/c1-3-4-5-6-7-8-9-14-11-10-13(2)12-14;1-7(2,3,4,5)6/h10-12H,3-9H2,1-2H3;/q+1;-1, purity 98%
Compound 4: dodecane, C12H26, InChI=1S/C12H26/c1-3-5-7-9-11-12-10-8-6-4-2/h3-12H2,1-2H3, purity 99%
Compound 5: butylbenzene, C10H14, InChI=1S/C10H14/c1-2-3-7-10-8-5-4-6-9-10/h4-6,8-9H,2-3,7H2,1H3, purity 99%

System: 1-butyl-3-methylimidazolium hexafluorophosphate; phases: Liquid
Property: Refractive index (Na D-line) (Liquid); method: Standard Abbe refractometry
Temperature, K	Pressure, kPa	Refractive index (Na D-line)	uncertainty
293.1	101.325	1.4101	0.0008

System: 1-hexyl-3-methylimidazolium hexafluorophosphate; phases: Liquid
Property: Refractive index (Na D-line) (Liquid); method: Standard Abbe refractometry
Temperature, K	Pressure, kPa	Refractive index (Na D-line)	uncertainty
293.1	101.325	1.4176	0.0008

System: 1-octyl-3-methylimidazolium hexafluorophosphate; phases: Liquid
Property: Refractive index (Na D-line) (Liquid); method: Standard Abbe refractometry
Temperature, K	Pressure, kPa	Refractive index (Na D-line)	uncertainty
293.1	101.325	1.4231	0.0008

System: dodecane; phases: Liquid
Property: Refractive index (Na D-line) (Liquid); method: Standard Abbe refractometry
Temperature, K	Pressure, kPa	Refractive index (Na D-line)	uncertainty
293.1	101.325	1.4221	0.0008

System: butylbenzene; phases: Liquid
Property: Refractive index (Na D-line) (Liquid); method: Standard Abbe refractometry
Temperature, K	Pressure, kPa	Refractive index (Na D-line)	uncertainty
293.1	101.325	1.4894	0.0008

System: butylbenzene + dodecane + 1-butyl-3-methylimidazolium hexafluorophosphate; phases: Liquid mixture 1, Liquid mixture 2
Fixed: Pressure, kPa = 101.3
Property: Mole fraction of dodecane (Liquid mixture 1); method: Chromatography
Property: Mole fraction of dodecane (Liquid mixture 2); method: Chromatography
Property: Mole fraction of butylbenzene (Liquid mixture 2); method: Chromatography
Temperature, K	Mole fraction of butylbenzene	Mole fraction of dodecane	uncertainty	Mole fraction of dodecane	uncertainty	Mole fraction of butylbenzene	uncertainty
313	0.1076	0.8924	0.0016	0.018	0.001	0.0352	
313	0.1956	0.8044	0.002	0.0183	0.001	0.066	
313	0.2691	0.7309	0.0024	0.0186	0.001	0.0923	
313	0.3302	0.6698	0.0027	0.0189	0.001	0.1176	
313	0.382	0.618	0.003	0.0192	0.001	0.1412	
313	0.4262	0.5738	0.0034	0.0195	0.001	0.1641	
313	0.4652	0.5348	0.0037	0.0198	0.001	0.184	
313	0.4994	0.5006	0.004	0.0201	0.001	0.2026	
313	0.5295	0.4705	0.0038	0.0204	0.001	0.2204	
313	0.5561	0.4439	0.0036	0.0207	0.001	0.2377	
313	0.5803	0.4197	0.0034	0.021	0.001	0.2528	
333	0.1059	0.8941	0.0016	0.0201	0.001	0.0379	
333	0.1926	0.8074	0.002	0.0205	0.001	0.0715	
333	0.2651	0.7349	0.0023	0.0211	0.001	0.1008	
333	0.3259	0.6741	0.0027	0.0215	0.001	0.128	
333	0.3779	0.6221	0.0031	0.0216	0.001	0.1523	
333	0.423	0.577	0.003	0.0218	0.001	0.174	
333	0.462	0.538	0.004	0.022	0.001	0.1948	
333	0.4963	0.5037	0.004	0.0223	0.001	0.2139	
333	0.5267	0.4733	0.0038	0.0226	0.001	0.2316	

System: butylbenzene + dodecane + 1-hexyl-3-methylimidazolium hexafluorophosphate; phases: Liquid mixture 1, Liquid mixture 2
Fixed: Pressure, kPa = 101.3
Property: Mole fraction of dodecane (Liquid mixture 1); method: Chromatography
Property: Mole fraction of dodecane (Liquid mixture 2); method: Chromatography
Property: Mole fraction of butylbenzene (Liquid mixture 2); method: Chromatography
Temperature, K	Mole fraction of butylbenzene	Mole fraction of dodecane	uncertainty	Mole fraction of dodecane	uncertainty	Mole fraction of butylbenzene	uncertainty
313	0.1034	0.8966	0.0016	0.019	0.001	0.0443	
313	0.1891	0.8109	0.0019	0.0193	0.001	0.082	
313	0.2608	0.7392	0.0023	0.0196	0.001	0.1151	
313	0.3215	0.6785	0.0027	0.0199	0.001	0.1444	
313	0.3721	0.6279	0.0031	0.0202	0.001	0.1743	
313	0.4176	0.5824	0.0034	0.0205	0.001	0.1972	
313	0.457	0.543	0.0037	0.0208	0.001	0.2187	
313	0.4917	0.5083	0.0039	0.0211	0.001	0.2387	
313	0.5218	0.4782	0.0038	0.0214	0.001	0.259	
313	0.5493	0.4507	0.0036	0.0217	0.001	0.2755	
313	0.5737	0.4263	0.0035	0.022	0.001	0.292	
333	0.1029	0.8971	0.0016	0.0211	0.001	0.0453	
333	0.1873	0.8127	0.0019	0.0215	0.001	0.0854	
333	0.2585	0.7415	0.0023	0.0221	0.001	0.12	
333	0.3187	0.6813	0.0027	0.0225	0.001	0.1513	
333	0.3708	0.6292	0.003	0.0226	0.001	0.1782	
333	0.4158	0.5842	0.0034	0.0228	0.001	0.2028	
333	0.4546	0.5454	0.0037	0.023	0.001	0.2268	
333	0.4895	0.5105	0.0039	0.0233	0.001	0.2465	
333	0.5196	0.4804	0.0039	0.0236	0.001	0.2674	
333	0.5473	0.4527	0.0036	0.0236	0.001	0.2839	
333	0.5718	0.4282	0.0035	0.0239	0.001	0.3004	

System: butylbenzene + dodecane + 1-octyl-3-methylimidazolium hexafluorophosphate; phases: Liquid mixture 1, Liquid mixture 2
Fixed: Pressure, kPa = 101.3
Property: Mole fraction of dodecane (Liquid mixture 1); method: Chromatography
Property: Mole fraction of dodecane (Liquid mixture 2); method: Chromatography
Property: Mole fraction of butylbenzene (Liquid mixture 2); method: Chromatography
Temperature, K	Mole fraction of butylbenzene	Mole fraction of dodecane	uncertainty	Mole fraction of dodecane	uncertainty	Mole fraction of butylbenzene	uncertainty
313	0.1015	0.8985	0.0016	0.025	0.001	0.0703	
313	0.1846	0.8154	0.0019	0.0253	0.001	0.1307	
313	0.2542	0.7458	0.0023	0.0256	0.001	0.1824	
313	0.3133	0.6867	0.0026	0.0259	0.001	0.2273	
313	0.3638	0.6362	0.003	0.0262	0.001	0.2674	
313	0.4072	0.5928	0.0033	0.0265	0.001	0.304	
313	0.4453	0.5547	0.0036	0.0268	0.001	0.3368	
313	0.4791	0.5209	0.0038	0.0271	0.001	0.3654	
313	0.5085	0.4915	0.0039	0.0274	0.001	0.3938	
313	0.5355	0.4645	0.0037	0.0277	0.001	0.417	
313	0.5595	0.4405	0.0036	0.028	0.001	0.4395	
333	0.1006	0.8994	0.0016	0.0271	0.001	0.0723	
333	0.1836	0.8164	0.0019	0.0275	0.001	0.1334	
333	0.2528	0.7472	0.0023	0.0281	0.001	0.1864	
333	0.3118	0.6882	0.0026	0.0285	0.001	0.2317	
333	0.3622	0.6378	0.003	0.0286	0.001	0.2721	
333	0.4059	0.5941	0.0033	0.0288	0.001	0.3083	
333	0.4441	0.5559	0.0036	0.029	0.001	0.3407	
333	0.4778	0.5222	0.0038	0.0293	0.001	0.37	
333	0.5068	0.4932	0.0039	0.0296	0.001	0.3997	
333	0.5336	0.4664	0.0037	0.0296	0.001	0.4238	
333	0.5574	0.4426	0.0036	0.0299	0.001	0.4469	
