Measured thermophysical data. Vapor Liquid Equilibrium for Mixtures of Ethylethylenediamine, Ethylenediamine, and Water
Source: J. Chem. Eng. Data, 2013, 10.1021/je300819g
Compound 1: ethane-1,2-diamine, C2H8N2, InChI=1S/C2H8N2/c3-1-2-4/h1-4H2, purity 99.8%
Compound 2: N-ethylethane-1,2-diamine, C4H12N2, InChI=1S/C4H12N2/c1-2-6-4-3-5/h6H,2-5H2,1H3, purity 99.6%
Compound 3: water, H2O, InChI=1S/H2O/h1H2, purity 99.9%

System: N-ethylethane-1,2-diamine; phases: Liquid, Gas
Property: Vapor or sublimation pressure, kPa (Liquid); method: Ebulliometric method (Recirculating still)
Temperature, K	Vapor or sublimation pressure, kPa	uncertainty
358	20.8	1.2
366.5	29.6	1.2
374.1	39.5	1.2
380.3	49.7	1.3
390.2	69.5	1.3
398.3	90.2	1.3
401.9	101.2	3.542
402.2	101.5	1.3

System: ethane-1,2-diamine + water; phases: Liquid, Gas
Property: Boiling temperature at pressure P, K (Liquid); method: Ebulliometric method (Recirculating still)
Mole fraction of water	Pressure, kPa	Boiling temperature at pressure P, K	uncertainty
0.001	101.8	390.8	0.7
0.001	101.8	390.8	0.7
0.005	19.8	346.7	1.3
0.027	49.9	369.3	0.9
0.028	101.7	389.9	1.1
0.041	100.2	389.5	0.6
0.115	101.7	390.6	0.7
0.166	19.8	348.6	1.3
0.219	101.7	391.2	0.7
0.267	49.7	371.2	0.9
0.285	100.1	391	0.7
0.32	101.8	391.7	0.7
0.327	19.8	350.2	1.3
0.389	49.8	372.5	0.8
0.445	101.9	391.8	0.3
0.465	100	391.3	0.7
0.506	19.8	351.6	1.3
0.514	49.8	372.9	0.8
0.555	101.7	391.2	0.7
0.593	99.9	390.1	0.7
0.612	19.8	351.2	1.3
0.616	49.8	371.7	0.8
0.648	101.7	389.5	0.7
0.706	101.6	387.7	0.5
0.715	49.9	368.9	0.9
0.717	100	387	0.6
0.721	19.8	347.6	1.4
0.757	101.6	385.1	0.6
0.76	49.8	367.1	0.8
0.761	100.1	384.6	0.5
0.778	100.2	384.8	0.7
0.797	49.8	364.9	1.2
0.801	101.7	382.7	1
0.803	99.8	383.3	1
0.817	19.8	341.4	1.4
0.841	101.8	380.2	0.7
0.846	49.8	361.1	1
0.852	99.8	379.8	0.8
0.888	100	376.8	0.7
0.89	49.8	358.2	1
0.891	101.9	377.2	0.9
0.904	19.8	336.9	1.3
0.929	101.9	375.5	0.9
0.945	99.9	373.9	0.7
0.946	49.8	355.9	1.1
0.966	101.9	373.9	0.7
0.969	19.8	334.4	1.2
0.973	100.1	373.3	0.5
0.976	49.8	354.8	0.8
1	19.8	333.6	1.2
1	49.8	354.3	0.8
1	100	372.7	0.5
1	101.9	373.2	0.5

System: ethane-1,2-diamine + water; phases: Gas, Liquid
Property: Mole fraction of water (Gas); method: Chromatography
Mole fraction of water	Pressure, kPa	Mole fraction of water	uncertainty
0.001	101.8	0.001	0.001
0.001	101.8	0.001	0.001
0.005	19.8	0	
0.027	49.9	0.023	0.012
0.028	101.7	0.03	0.014
0.041	100.2	0.042	0.012
0.115	101.7	0.085	0.013
0.166	19.8	0.05	0.012
0.219	101.7	0.195	0.015
0.267	49.7	0.165	0.013
0.285	100.1	0.258	0.016
0.32	101.8	0.287	0.016
0.327	19.8	0.21	0.016
0.389	49.8	0.344	0.018
0.445	101.9	0.457	0.019
0.465	100	0.479	0.018
0.506	19.8	0.463	0.02
0.514	49.8	0.527	0.02
0.555	101.7	0.621	0.019
0.593	99.9	0.682	0.019
0.612	19.8	0.686	0.022
0.616	49.8	0.711	0.019
0.648	101.7	0.767	0.019
0.706	101.6	0.861	0.018
0.715	49.9	0.857	0.018
0.717	100	0.863	0.018
0.721	19.8	0.889	0.018
0.757	101.6	0.919	0.014
0.76	49.8	0.927	0.016
0.761	100.1	0.919	0.017
0.778	100.2	0.936	0.016
0.797	49.8	0.961	0.012
0.801	101.7	0.957	0.016
0.803	99.8	0.969	0.012
0.817	19.8	0.985	0.012
0.841	101.8	0.98	0.011
0.846	49.8	0.979	0.011
0.852	99.8	0.984	0.01
0.888	100	0.994	0.006
0.89	49.8	0.996	0.004
0.891	101.9	0.993	0.007
0.904	19.8	0.997	0.003
0.929	101.9	0.997	0.003
0.945	99.9	0.998	0.002
0.946	49.8	0.999	0.001
0.966	101.9	1	
0.969	19.8	1	
0.973	100.1	0.999	0.001
0.976	49.8	1	
1	19.8	1	
1	49.8	1	
1	100	1	
1	101.9	1	

System: N-ethylethane-1,2-diamine + water; phases: Liquid, Gas
Property: Boiling temperature at pressure P, K (Liquid); method: Ebulliometric method (Recirculating still)
Mole fraction of water	Pressure, kPa	Boiling temperature at pressure P, K	uncertainty
0	101.2	401.9	0.7
0.015	49.8	380.2	1.2
0.027	19.8	355.8	1.4
0.077	19.8	355.6	1.4
0.078	49.8	380	0.9
0.226	101.2	392.2	0.8
0.267	19.8	351	1.2
0.285	49.8	372.6	0.9
0.46	101.1	386.4	0.7
0.475	49.8	368.3	0.8
0.482	19.8	347.8	1.2
0.632	19.8	344.2	1.2
0.634	49.8	365.3	0.8
0.645	101.9	382.7	0.7
0.707	101.2	380.9	0.7
0.724	19.8	342.3	1.2
0.731	49.8	362.9	0.8
0.79	49.8	360.5	0.9
0.792	19.8	340.5	1.2
0.803	101.2	378.5	0.7
0.842	49.8	358.7	0.9
0.857	19.8	337.8	1.2
0.858	101.3	376.8	0.7
0.9	101.3	375.3	0.7
0.901	19.8	336.2	1.2
0.905	49.8	356.8	0.9
0.934	19.8	335.1	1.2
0.934	49.8	356	0.9
0.941	101.3	374.2	0.7
0.964	49.8	355.2	1
0.968	19.8	334.1	1.2
0.968	101.4	373.3	0.7
0.987	101.4	373.3	0.7
0.989	19.8	333.7	1.2
0.989	49.8	354.6	1
1	19.8	333.5	1.2
1	49.8	354.3	0.8
1	101.4	373.1	0.7

System: N-ethylethane-1,2-diamine + water; phases: Gas, Liquid
Property: Mole fraction of water (Gas); method: Chromatography
Mole fraction of water	Pressure, kPa	Mole fraction of water	uncertainty
0	101.2	0.001	0.001
0.015	49.8	0.029	0.019
0.027	19.8	0.042	0.016
0.077	19.8	0.106	0.018
0.078	49.8	0.124	0.018
0.226	101.2	0.448	0.019
0.267	19.8	0.402	0.017
0.285	49.8	0.441	0.017
0.46	101.1	0.695	0.014
0.475	49.8	0.667	0.015
0.482	19.8	0.655	0.015
0.632	19.8	0.808	0.015
0.634	49.8	0.796	0.013
0.645	101.9	0.832	0.012
0.707	101.2	0.874	0.011
0.724	19.8	0.907	0.013
0.731	49.8	0.891	0.014
0.79	49.8	0.938	0.012
0.792	19.8	0.947	0.011
0.803	101.2	0.92	0.011
0.842	49.8	0.967	0.011
0.857	19.8	0.974	0.011
0.858	101.3	0.958	0.012
0.9	101.3	0.978	0.011
0.901	19.8	0.989	0.01
0.905	49.8	0.985	0.01
0.934	19.8	0.995	0.005
0.934	49.8	0.991	0.009
0.941	101.3	0.99	0.01
0.964	49.8	0.996	0.004
0.968	19.8	0.997	0.003
0.968	101.4	0.994	0.006
0.987	101.4	0.997	0.003
0.989	19.8	0.999	0.001
0.989	49.8	0.999	0.001
1	19.8	1	
1	49.8	1	
1	101.4	1	

System: ethane-1,2-diamine + N-ethylethane-1,2-diamine; phases: Liquid, Gas
Property: Boiling temperature at pressure P, K (Liquid); method: Ebulliometric method (Recirculating still)
Mole fraction of ethane-1,2-diamine	Pressure, kPa	Boiling temperature at pressure P, K	uncertainty
0.002	19.8	355.8	0.3
0.002	101.2	402.2	0.3
0.002	102.1	403	
0.003	49.8	380.2	0.4
0.045	101.2	400.6	0.4
0.048	49.8	378.7	0.3
0.053	19.8	354.7	0.4
0.13	19.8	353.2	0.3
0.138	101.3	398.6	0.4
0.145	49.8	376.5	0.3
0.204	101.3	397.5	0.3
0.275	49.8	374.2	0.3
0.28	19.8	351.3	0.3
0.326	101.5	396.4	0.3
0.425	19.8	349.7	0.3
0.434	49.8	372.9	0.3
0.522	101.6	393	0.3
0.537	49.8	371.6	0.3
0.545	19.8	348.5	0.3
0.644	101.7	392	0.3
0.662	19.8	347.8	0.3
0.676	49.8	370.8	0.3
0.718	101.7	391.4	0.3
0.754	19.8	347.3	0.3
0.754	49.8	370.4	0.3
0.77	101.7	391.1	0.3
0.829	19.8	346.9	0.3
0.83	101.7	390.7	0.3
0.833	49.8	369.9	0.3
0.873	101.7	390.5	0.3
0.903	49.8	369.7	0.3
0.905	19.8	346.7	0.3
0.908	101.7	390.2	0.3
0.946	101.7	390.1	0.3
0.972	101.7	390.1	0.3
0.979	49.8	369.3	3
0.983	19.8	346.3	0.4
0.993	101.8	390	0.3
0.994	49.9	369.3	1.9
0.999	19.8	346.7	0.3
0.999	101.8	390.8	0.3

System: ethane-1,2-diamine + N-ethylethane-1,2-diamine; phases: Gas, Liquid
Property: Mole fraction of ethane-1,2-diamine (Gas); method: Chromatography
Mole fraction of ethane-1,2-diamine	Pressure, kPa	Mole fraction of ethane-1,2-diamine	uncertainty
0.002	19.8	0.005	0.005
0.002	101.2	0.002	0.002
0.003	49.8	0.004	0.004
0.045	101.2	0.098	0.02
0.048	49.8	0.09	0.02
0.053	19.8	0.099	0.021
0.13	19.8	0.237	0.016
0.138	101.3	0.243	0.018
0.145	49.8	0.258	0.017
0.204	101.3	0.327	0.016
0.275	49.8	0.398	0.015
0.28	19.8	0.399	0.015
0.326	101.5	0.472	0.015
0.425	19.8	0.549	0.015
0.434	49.8	0.549	0.015
0.522	101.6	0.652	0.013
0.537	49.8	0.668	0.013
0.545	19.8	0.661	0.014
0.644	101.7	0.74	0.013
0.662	19.8	0.757	0.012
0.676	49.8	0.753	0.012
0.718	101.7	0.793	0.012
0.754	19.8	0.807	0.012
0.754	49.8	0.807	0.013
0.77	101.7	0.824	0.012
0.829	19.8	0.861	0.013
0.83	101.7	0.867	0.012
0.833	49.8	0.869	0.013
0.873	101.7	0.896	0.013
0.903	49.8	0.92	0.013
0.905	19.8	0.931	0.013
0.908	101.7	0.929	0.013
0.946	101.7	0.96	0.013
0.972	101.7	0.977	0.013
0.979	49.8	0.981	0.013
0.983	19.8	0.986	0.013
0.993	101.8	0.996	0.004
0.994	49.9	0.995	0.005
0.999	19.8	1	
0.999	101.8	0.999	0.001

System: ethane-1,2-diamine + N-ethylethane-1,2-diamine + water; phases: Liquid, Gas
Property: Mole fraction of ethane-1,2-diamine (Liquid); method: Chromatography
Property: Mole fraction of ethane-1,2-diamine (Gas); method: Chromatography
Property: Mole fraction of water (Gas); method: Chromatography
Temperature, K	Pressure, kPa	Mole fraction of water	Mole fraction of ethane-1,2-diamine	uncertainty	Mole fraction of ethane-1,2-diamine	uncertainty	Mole fraction of water	uncertainty
403	102.1	0	0.002	0.002	0.001	0.001	0	
399.7	102.1	0.059	0.017	0.01	0.027	0.01	0.249	
393.8	102.1	0.143	0.017	0.01	0.02	0.01	0.417	
393.9	102.1	0.226	0.05	0.01	0.064	0.01	0.341	
394.5	102.1	0.136	0.123	0.01	0.147	0.01	0.293	
389.7	102.1	0.341	0.094	0.01	0.085	0.01	0.521	
387.9	102.1	0.475	0.076	0.01	0.054	0.01	0.643	
386	102.1	0.516	0.071	0.01	0.04	0.01	0.708	
385.6	102.1	0.591	0.096	0.01	0.049	0.01	0.74	
386.3	102.1	0.531	0.146	0.01	0.079	0.01	0.702	
387	101.3	0.539	0.173	0.01	0.105	0.01	0.673	
387.7	101.3	0.517	0.215	0.01	0.149	0.01	0.623	
386.5	101.2	0.57	0.192	0.01	0.108	0.01	0.7	
385.5	101.2	0.626	0.169	0.01	0.081	0.01	0.757	
384	101.2	0.685	0.144	0.01	0.052	0.01	0.821	
382.8	101.2	0.727	0.125	0.01	0.036	0.01	0.864	
381.6	101.2	0.756	0.112	0.01	0.026	0.01	0.894	
383	101.1	0.732	0.14	0.01	0.041	0.01	0.867	
384.4	101.1	0.702	0.175	0.01	0.062	0.01	0.835	
386.1	101.1	0.656	0.23	0.01	0.113	0.01	0.77	
387.2	101.1	0.622	0.268	0.01	0.15	0.01	0.728	
388.2	101.1	0.588	0.311	0.01	0.201	0.01	0.675	
388.7	101.1	0.561	0.342	0.01	0.248	0.01	0.627	
389.6	101.2	0.531	0.379	0.01	0.299	0.01	0.579	
388.8	101.2	0.587	0.336	0.01	0.246	0.01	0.634	
388	101.2	0.631	0.301	0.01	0.217	0.01	0.631	
386.6	101.2	0.676	0.265	0.01	0.128	0.01	0.798	
385.5	101.3	0.722	0.229	0.01	0.093	0.01	0.848	
384.3	101.3	0.748	0.208	0.01	0.068	0.01	0.885	
382.6	101.3	0.779	0.183	0.01	0.044	0.01	0.922	
381.6	101.3	0.803	0.164	0.01	0.03	0.01	0.945	
383.4	101.3	0.766	0.202	0.01	0.053	0.01	0.916	
384.7	101.4	0.739	0.23	0.01	0.082	0.01	0.882	
386.2	101.3	0.672	0.296	0.01	0.113	0.01	0.848	
387.5	101.3	0.646	0.323	0.01	0.162	0.01	0.795	
388.4	101.3	0.606	0.365	0.01	0.213	0.01	0.742	
389.3	101.3	0.594	0.381	0.01	0.238	0.01	0.722	
389.9	101	0.59	0.388	0.01	0.282	0.01	0.68	
390.5	101.1	0.568	0.413	0.01	0.34	0.01	0.625	
388.9	101.2	0.626	0.358	0.01	0.254	0.01	0.718	
386.1	101.2	0.724	0.263	0.01	0.116	0.01	0.868	
382.7	101.2	0.804	0.187	0.01	0.036	0.01	0.956	
380.8	101.3	0.823	0.17	0.01	0.03	0.01	0.964	
