Measured thermophysical data. Liquid Liquid Equilibria for Dipropylene Glycol Hydrocarbon Binary Systems: Experimental Data and Regression
Source: J. Chem. Eng. Data, 2012, 10.1021/je3009039
Compound 1: hexane, C6H14, InChI=1S/C6H14/c1-3-5-6-4-2/h3-6H2,1-2H3, purity 99.7%
Compound 2: cyclohexane, C6H12, InChI=1S/C6H12/c1-2-4-6-5-3-1/h1-6H2, purity 99.5%
Compound 3: heptane, C7H16, InChI=1S/C7H16/c1-3-5-7-6-4-2/h3-7H2,1-2H3, purity 99.7%
Compound 4: octane, C8H18, InChI=1S/C8H18/c1-3-5-7-8-6-4-2/h3-8H2,1-2H3, purity 99.2%
Compound 5: 2,2,4-trimethylpentane, C8H18, InChI=1S/C8H18/c1-7(2)6-8(3,4)5/h7H,6H2,1-5H3, purity 99.5%
Compound 6: 4-oxa-1,7-heptanediol, C6H14O3, InChI=1S/C6H14O3/c7-3-1-5-9-6-2-4-8/h7-8H,1-6H2, purity 98%

System: hexane + 4-oxa-1,7-heptanediol; phases: Liquid mixture 1, Liquid mixture 2
Fixed: Pressure, kPa = 101.3
Property: Mole fraction of hexane (Liquid mixture 1); method: Titration method
Temperature, K	Mole fraction of hexane	uncertainty
298.15	0.0296	0.01001
303.15	0.05061	0.01003
308.15	0.07347	0.01006
313.15	0.08974	0.01008
318.15	0.12024	0.01015
323.15	0.13443	0.01018
328.15	0.14028	0.0102
333.15	0.15709	0.01024

System: hexane + 4-oxa-1,7-heptanediol; phases: Liquid mixture 2, Liquid mixture 1
Fixed: Pressure, kPa = 101.3
Property: Mole fraction of hexane (Liquid mixture 2); method: Titration method
Temperature, K	Mole fraction of hexane	uncertainty
298.15	0.99296	0.00061
303.15	0.99145	0.00061
308.15	0.9889	0.00062
313.15	0.98631	0.00063
318.15	0.98408	0.00064
323.15	0.98059	0.00066
328.15	0.97527	0.0007
333.15	0.97122	0.00073

System: cyclohexane + 4-oxa-1,7-heptanediol; phases: Liquid mixture 1, Liquid mixture 2
Fixed: Pressure, kPa = 101.3
Property: Mole fraction of cyclohexane (Liquid mixture 1); method: Titration method
Temperature, K	Mole fraction of cyclohexane	uncertainty
298.15	0.0399	0.016
303.15	0.0527	0.016
308.15	0.1117	0.0161
313.15	0.1252	0.0161
318.15	0.1493	0.0161
323.15	0.2059	0.0163
328.15	0.2595	0.0164
333.15	0.3183	0.0166
338.15	0.3979	0.017
343.15	0.4361	0.0172

System: cyclohexane + 4-oxa-1,7-heptanediol; phases: Liquid mixture 2, Liquid mixture 1
Fixed: Pressure, kPa = 101.3
Property: Mole fraction of cyclohexane (Liquid mixture 2); method: Titration method
Temperature, K	Mole fraction of cyclohexane	uncertainty
298.15	0.9869	0.002
303.15	0.9846	0.002
308.15	0.9823	0.002
313.15	0.9784	0.002
318.15	0.9735	0.002
323.15	0.9642	0.0021
328.15	0.9521	0.0021
333.15	0.9412	0.0022
338.15	0.9173	0.0023
343.15	0.8836	0.0026

System: heptane + 4-oxa-1,7-heptanediol; phases: Liquid mixture 1, Liquid mixture 2
Fixed: Pressure, kPa = 101.3
Property: Mole fraction of heptane (Liquid mixture 1); method: Titration method
Temperature, K	Mole fraction of heptane	uncertainty
298.15	0.0896	0.0101
303.15	0.1101	0.0101
313.15	0.1257	0.0102
318.15	0.1298	0.0102
323.15	0.1314	0.0102
328.15	0.132	0.0102
333.15	0.1337	0.0102
338.15	0.1447	0.0102
343.15	0.1536	0.0102
348.15	0.1569	0.0102

System: heptane + 4-oxa-1,7-heptanediol; phases: Liquid mixture 2, Liquid mixture 1
Fixed: Pressure, kPa = 101.3
Property: Mole fraction of heptane (Liquid mixture 2); method: Titration method
Temperature, K	Mole fraction of heptane	uncertainty
298.15	0.9888	0.001
303.15	0.9865	0.001
313.15	0.9831	0.001
318.15	0.9804	0.001
323.15	0.9781	0.001
328.15	0.9753	0.0011
333.15	0.9708	0.0011
338.15	0.9653	0.0011
343.15	0.9598	0.0012
348.15	0.9522	0.0012

System: octane + 4-oxa-1,7-heptanediol; phases: Liquid mixture 1, Liquid mixture 2
Fixed: Pressure, kPa = 101.3
Property: Mole fraction of octane (Liquid mixture 1); method: Titration method
Temperature, K	Mole fraction of octane	uncertainty
298.15	0.0143	0.01
308.15	0.0244	0.01
318.15	0.0378	0.01
323.15	0.0455	0.01
328.15	0.0488	0.01
333.15	0.0716	0.0101
338.15	0.0753	0.0101
343.15	0.0836	0.0101
348.15	0.0979	0.0101
353.15	0.1212	0.0102
358.15	0.1299	0.0102
363.15	0.1385	0.0102

System: octane + 4-oxa-1,7-heptanediol; phases: Liquid mixture 2, Liquid mixture 1
Fixed: Pressure, kPa = 101.3
Property: Mole fraction of octane (Liquid mixture 2); method: Titration method
Temperature, K	Mole fraction of octane	uncertainty
298.15	0.9926	0.002
308.15	0.9901	0.002
318.15	0.9864	0.002
323.15	0.9827	0.002
328.15	0.9802	0.002
333.15	0.9747	0.002
338.15	0.9704	0.002
343.15	0.9668	0.0021
348.15	0.9605	0.0021
353.15	0.9543	0.0021
358.15	0.9498	0.0021
363.15	0.9334	0.0023

System: 2,2,4-trimethylpentane + 4-oxa-1,7-heptanediol; phases: Liquid mixture 1, Liquid mixture 2
Fixed: Pressure, kPa = 101.3
Property: Mole fraction of 2,2,4-trimethylpentane (Liquid mixture 1); method: Titration method
Temperature, K	Mole fraction of 2,2,4-trimethylpentane	uncertainty
300.35	0.0682	0.0061
308.15	0.0923	0.0061
313.35	0.1039	0.0062
318.15	0.1108	0.0062
323.15	0.1112	0.0062
328.15	0.1145	0.0062
333.35	0.116	0.0062
338.35	0.1186	0.0062
343.15	0.1249	0.0063
347.15	0.1289	0.0063

System: 2,2,4-trimethylpentane + 4-oxa-1,7-heptanediol; phases: Liquid mixture 2, Liquid mixture 1
Fixed: Pressure, kPa = 101.3
Property: Mole fraction of 2,2,4-trimethylpentane (Liquid mixture 2); method: Titration method
Temperature, K	Mole fraction of 2,2,4-trimethylpentane	uncertainty
300.35	0.9938	0.002
308.15	0.9896	0.002
313.35	0.9876	0.002
318.15	0.9852	0.002
323.15	0.9801	0.002
328.15	0.9775	0.002
333.35	0.9704	0.002
338.35	0.9678	0.0021
343.15	0.9638	0.0021
347.15	0.9576	0.0021
