Measured thermophysical data. Speed of Sound, Density, and Derivative Properties of Fatty Acid Methyl and Ethyl Esters under High Pressure: Methyl Caprate and Ethyl Caprate
Source: J. Chem. Eng. Data, 2012, 10.1021/je300405a
Compound 1: methyl decanoate, C11H22O2, InChI=1S/C11H22O2/c1-3-4-5-6-7-8-9-10-11(12)13-2/h3-10H2,1-2H3, purity 99%
Compound 2: ethyl decanoate, C12H24O2, InChI=1S/C12H24O2/c1-3-5-6-7-8-9-10-11-12(13)14-4-2/h3-11H2,1-2H3, purity 99%

System: methyl decanoate; phases: Liquid
Property: Speed of sound, m/s (Liquid); method: Pulse-echo method
Temperature, K	Pressure, kPa	Speed of sound, m/s	uncertainty
283.15	101.3	1362.6	5.6
283.15	10000	1408.9	5.8
283.15	20000	1452.2	6
283.15	30000	1493.2	6.1
283.15	40000	1531.7	6.3
283.15	50000	1568	6.4
283.15	60000	1602.6	6.6
283.15	70000	1634.5	6.7
283.15	80000	1666.4	6.8
283.15	90000	1696.9	6.9
283.15	100000	1726.9	10.5
283.15	110000	1755.2	10.6
283.15	120000	1783.4	10.8
283.15	130000	1809.5	11
283.15	140000	1835.9	11.1
303.15	101.3	1287.7	5.3
303.15	10000	1339.2	5.5
303.15	20000	1385.8	5.7
303.15	30000	1429.6	5.9
303.15	40000	1470.3	6
303.15	50000	1508.7	6.2
303.15	60000	1544.9	6.3
303.15	70000	1580.2	6.5
303.15	80000	1614.1	6.6
303.15	90000	1646.1	6.7
303.15	100000	1676.9	10.2
303.15	110000	1706.8	10.3
303.15	120000	1735.1	10.5
303.15	130000	1762.8	10.7
303.15	140000	1789.2	10.8
303.15	150000	1815.2	11
303.15	170000	1864.9	11.3
303.15	190000	1912.7	11.6
303.15	210000	1957.6	11.9
323.15	101.3	1214.8	5
323.15	10000	1269.1	5.3
323.15	20000	1319.3	5.4
323.15	30000	1365.7	5.6
323.15	40000	1409	5.8
323.15	50000	1449.5	6
323.15	60000	1487.8	6.1
323.15	70000	1524	6.3
323.15	80000	1558.3	6.4
323.15	90000	1591.2	6.5
323.15	100000	1623.3	9.9
323.15	110000	1653.9	10
323.15	120000	1684.6	10.2
323.15	130000	1711.9	10.4
323.15	140000	1739.6	10.6
323.15	150000	1765.9	10.7
323.15	170000	1817	11
323.15	190000	1864.8	11.3
323.15	210000	1910.9	11.6
343.15	101.3	1142.8	4.8
343.15	10000	1202.4	5
343.15	20000	1255.9	5.2
343.15	30000	1304.9	5.4
343.15	40000	1350.5	5.6
343.15	50000	1393.5	5.7
343.15	60000	1433.7	5.9
343.15	70000	1471.7	6.1
343.15	80000	1508.2	6.2
343.15	90000	1541.7	6.3
343.15	100000	1574.1	9.6
343.15	110000	1606	9.7
343.15	120000	1636.2	9.9
343.15	130000	1665.9	10.1
343.15	140000	1694	10.3
343.15	150000	1721.2	10.4
343.15	170000	1773.2	10.8
343.15	190000	1822	11.1
343.15	210000	1868.7	11.3
363.15	10000	1138.5	4.7
363.15	20000	1195.9	5
363.15	30000	1247.9	5.2
363.15	40000	1296.3	5.4
363.15	50000	1341.1	5.5
363.15	60000	1382.7	5.7
363.15	70000	1421.6	5.9
363.15	80000	1458.4	6
363.15	90000	1493.8	6.1
363.15	100000	1527.4	9.3
363.15	110000	1559.7	9.5
363.15	120000	1590.9	9.7
363.15	130000	1620.7	9.8
363.15	140000	1649.4	10
363.15	150000	1677.2	10.2
363.15	170000	1730.6	10.5
363.15	190000	1780.4	10.8
363.15	210000	1827.2	11.1
383.15	10000	1077.4	4.5
383.15	20000	1138.6	4.7
383.15	30000	1193.5	4.9
383.15	40000	1244.5	5.2
383.15	50000	1291.3	5.3
383.15	60000	1334.9	5.5
383.15	70000	1375.4	5.7
383.15	80000	1414.2	5.8
383.15	90000	1450.6	6
383.15	100000	1485.3	9
383.15	110000	1518.9	9.2
383.15	120000	1550.9	9.4
383.15	130000	1581.2	9.6
383.15	140000	1610.8	9.8
383.15	150000	1641	10
383.15	170000	1692.7	10.3
383.15	190000	1743	10.6
383.15	210000	1791.1	10.9
403.15	10000	1017.7	4.3
403.15	20000	1083.2	4.5
403.15	30000	1141.7	4.7
403.15	40000	1194.7	5
403.15	50000	1242.9	5.1
403.15	60000	1288.1	5.3
403.15	70000	1330.6	5.5
403.15	80000	1370.3	5.7
403.15	90000	1407.7	5.8
403.15	100000	1442.8	8.8
403.15	110000	1476.6	9
403.15	120000	1509.7	9.2
403.15	130000	1541.7	9.4
403.15	140000	1571.6	9.6
403.15	150000	1600.1	9.7
403.15	170000	1655.5	10.1
403.15	190000	1706.6	10.4
403.15	210000	1754.5	10.7

System: methyl decanoate; phases: Liquid
Property: Mass density, kg/m3 (Liquid); method: Vibrating tube method
Temperature, K	Pressure, kPa	Mass density, kg/m3	uncertainty
293.15	101.3	872.05	1.04
293.15	10000	878.88	1.04
293.15	20000	885.04	1.05
293.15	30000	890.91	1.06
293.15	40000	896.46	1.07
293.15	50000	901.66	1.08
293.15	60000	906.63	1.09
293.15	70000	911.3	1.1
293.15	80000	915.52	1.11
293.15	90000	920.05	1.11
293.15	100000	924.3	1.12
303.15	101.3	863.6	1.03
303.15	10000	870.96	1.04
303.15	20000	877.43	1.05
303.15	30000	883.54	1.07
303.15	40000	889.26	1.08
303.15	50000	894.61	1.09
303.15	60000	899.63	1.1
303.15	70000	904.55	1.1
303.15	80000	909.11	1.11
303.15	90000	913.59	1.12
303.15	100000	917.87	1.13
313.15	101.3	855.85	1.03
313.15	10000	863.12	1.04
313.15	20000	869.91	1.06
313.15	30000	876.23	1.07
313.15	40000	882.19	1.08
313.15	50000	887.77	1.09
313.15	60000	893.04	1.1
313.15	70000	898.12	1.11
313.15	80000	902.9	1.12
313.15	90000	907.5	1.13
313.15	100000	911.9	1.14
323.15	101.3	847.65	1.04
323.15	10000	855.36	1.05
323.15	20000	862.49	1.06
323.15	30000	869.02	1.07
323.15	40000	875.03	1.08
323.15	50000	880.76	1.1
323.15	60000	886.55	1.11
323.15	70000	891.71	1.12
323.15	80000	896.69	1.13
323.15	90000	901.4	1.14
323.15	100000	905.81	1.15
333.15	101.3	839.36	1.04
333.15	10000	847.25	1.05
333.15	20000	854.44	1.06
333.15	30000	861.45	1.07
333.15	40000	867.94	1.09
333.15	50000	873.98	1.1
333.15	60000	879.63	1.11
333.15	70000	885.02	1.13
333.15	80000	890.12	1.14
333.15	90000	894.95	1.15
333.15	100000	899.64	1.16
343.15	101.3	830.82	1.04
343.15	10000	839.54	1.05
343.15	20000	847.61	1.06
343.15	30000	854.58	1.07
343.15	40000	861.37	1.09
343.15	50000	867.59	1.1
343.15	60000	873.44	1.12
343.15	70000	879.04	1.13
343.15	80000	884.27	1.14
343.15	90000	889.44	1.16
343.15	100000	894.26	1.17
353.15	101.3	822.35	1.04
353.15	10000	831.43	1.05
353.15	20000	839.8	1.06
353.15	30000	847.35	1.08
353.15	40000	854.31	1.09
353.15	50000	860.82	1.11
353.15	60000	866.96	1.12
353.15	70000	872.65	1.14
353.15	80000	878.11	1.15
353.15	90000	883.27	1.17
353.15	100000	888.25	1.18
363.15	101.3	814.51	1.04
363.15	10000	823.75	1.05
363.15	20000	832.39	1.06
363.15	30000	840.33	1.08
363.15	40000	847.71	1.1
363.15	50000	854.36	1.11
363.15	60000	860.65	1.13
363.15	70000	866.47	1.15
363.15	80000	872.03	1.16
363.15	90000	877.31	1.18
363.15	100000	882.47	1.19
373.15	101.3	805.43	1.04
373.15	10000	816.05	1.05
373.15	20000	825.16	1.07
373.15	30000	833.45	1.08
373.15	40000	841.07	1.1
373.15	50000	848.03	1.12
373.15	60000	854.82	1.14
373.15	70000	860.9	1.15
373.15	80000	866.94	1.17
373.15	90000	872.3	1.18
373.15	100000	877.6	1.2
383.15	101.3	797.49	1.04
383.15	10000	808.37	1.05
383.15	20000	818.07	1.07
383.15	30000	826.67	1.09
383.15	40000	834.58	1.11
383.15	50000	841.72	1.12
383.15	60000	848.65	1.14
383.15	70000	855.07	1.16
383.15	80000	861.06	1.18
383.15	90000	866.74	1.19
383.15	100000	872.09	1.21
393.15	101.3	788.67	1.04
393.15	10000	800.06	1.06
393.15	20000	810.12	1.07
393.15	30000	819.15	1.09
393.15	40000	827.46	1.11
393.15	50000	834.97	1.13
393.15	60000	842.04	1.15
393.15	70000	848.64	1.17
393.15	80000	854.73	1.19
393.15	90000	860.61	1.21
393.15	100000	866.13	1.22

System: ethyl decanoate; phases: Liquid
Property: Speed of sound, m/s (Liquid); method: Pulse-echo method
Temperature, K	Pressure, kPa	Speed of sound, m/s	uncertainty
283.15	101.3	1352.7	5.6
283.15	10000	1398.5	5.8
283.15	20000	1442.3	6
283.15	30000	1483.7	6.1
283.15	40000	1522.5	6.3
283.15	50000	1558.3	6.4
283.15	60000	1593.9	6.6
283.15	70000	1627	6.7
283.15	80000	1658.8	6.9
283.15	90000	1689.9	7
283.15	100000	1720.7	10.5
283.15	110000	1753.7	10.7
283.15	120000	1781.4	10.9
283.15	130000	1808.5	11
283.15	140000	1834.6	11.2
283.15	150000	1860.3	11.4
283.15	170000	1908.7	11.7
283.15	190000	1951.8	12
283.15	210000	1998	12.3
303.15	101.3	1275	5.3
303.15	10000	1325.7	5.5
303.15	20000	1373.2	5.7
303.15	30000	1416.8	5.9
303.15	40000	1458.3	6.1
303.15	50000	1498	6.2
303.15	60000	1535.5	6.4
303.15	70000	1569.9	6.5
303.15	80000	1603.2	6.7
303.15	90000	1635.3	6.8
303.15	100000	1666.2	10.2
303.15	110000	1696.2	10.4
303.15	120000	1724.8	10.5
303.15	130000	1752.9	10.7
303.15	140000	1779.2	10.9
303.15	150000	1805.4	11.1
303.15	170000	1854.6	11.4
303.15	190000	1902.4	11.7
303.15	210000	1947.7	12
323.15	101.3	1203.1	5
323.15	10000	1258.2	5.3
323.15	20000	1309.5	5.5
323.15	30000	1355.9	5.6
323.15	40000	1399.1	5.8
323.15	50000	1439.4	6
323.15	60000	1478.4	6.1
323.15	70000	1515.1	6.3
323.15	80000	1550.3	6.4
323.15	90000	1583.7	6.6
323.15	100000	1615.7	9.9
323.15	110000	1645.8	10.1
323.15	120000	1676.7	10.3
323.15	130000	1705.7	10.4
323.15	140000	1733.7	10.6
323.15	150000	1760.3	10.8
323.15	170000	1811.6	11.1
323.15	190000	1861.2	11.4
323.15	210000	1909.8	11.8
343.15	101.3	1133.3	4.8
343.15	10000	1192.8	5
343.15	20000	1247	5.2
343.15	30000	1297.2	5.4
343.15	40000	1343	5.6
343.15	50000	1385.7	5.8
343.15	60000	1425.7	5.9
343.15	70000	1463.9	6.1
343.15	80000	1500.3	6.3
343.15	90000	1535.3	6.4
343.15	100000	1568.4	9.6
343.15	110000	1600.4	9.8
343.15	120000	1631.5	10
343.15	130000	1661.5	10.2
343.15	140000	1690	10.4
343.15	150000	1717.3	10.5
343.15	170000	1769.7	10.9
343.15	190000	1818.5	11.2
343.15	210000	1865	11.5
363.15	101.3	1065.9	4.5
363.15	10000	1130.1	4.8
363.15	20000	1188.5	5
363.15	30000	1241.2	5.2
363.15	40000	1289.6	5.4
363.15	50000	1334.7	5.6
363.15	60000	1376.5	5.8
363.15	70000	1415.4	5.9
363.15	80000	1452.8	6.1
363.15	90000	1488.9	6.2
363.15	100000	1522.8	9.3
363.15	110000	1556	9.5
363.15	120000	1586.9	9.7
363.15	130000	1617.1	9.9
363.15	140000	1646.6	10.1
363.15	150000	1675.1	10.3
363.15	170000	1727.6	10.6
363.15	190000	1777	10.9
363.15	210000	1824.5	11.3
383.15	101.3	1001.3	4.3
383.15	10000	1071.1	4.5
383.15	20000	1132.9	4.8
383.15	30000	1188.3	5
383.15	40000	1239.3	5.2
383.15	50000	1286.4	5.4
383.15	60000	1329.7	5.6
383.15	70000	1370.2	5.7
383.15	80000	1408.3	5.9
383.15	90000	1445	6.1
383.15	100000	1480	9.1
383.15	110000	1513.4	9.3
383.15	120000	1545.8	9.5
383.15	130000	1576.6	9.7
383.15	140000	1606.2	9.9
383.15	150000	1634.6	10
383.15	170000	1687.7	10.4
383.15	190000	1740.7	10.7
383.15	210000	1786.8	11
403.15	101.3	937.8	4
403.15	10000	1013.4	4.3
403.15	20000	1080.3	4.6
403.15	30000	1138.6	4.8
403.15	40000	1191.3	5
403.15	50000	1240.5	5.2
403.15	60000	1285.9	5.4
403.15	70000	1328.1	5.6
403.15	80000	1367.6	5.7
403.15	90000	1404.6	5.9
403.15	100000	1439.8	8.8
403.15	110000	1473.4	9
403.15	120000	1506.4	9.3
403.15	130000	1537.5	9.4
403.15	140000	1567.3	9.6
403.15	150000	1596.2	9.8
403.15	170000	1650.9	10.2
403.15	190000	1702.8	10.5
403.15	210000	1751.8	10.8

System: ethyl decanoate; phases: Liquid
Property: Mass density, kg/m3 (Liquid); method: Vibrating tube method
Temperature, K	Pressure, kPa	Mass density, kg/m3	uncertainty
293.15	101.3	863.82	1.04
293.15	10000	870.79	1.04
293.15	20000	877.08	1.05
293.15	30000	882.99	1.06
293.15	40000	888.58	1.08
293.15	50000	893.79	1.09
293.15	60000	898.83	1.1
293.15	70000	903.51	1.1
293.15	80000	907.69	1.11
293.15	90000	912.24	1.12
293.15	100000	916.37	1.13
303.15	101.3	855.53	1.03
303.15	10000	863.17	1.04
303.15	20000	869.73	1.06
303.15	30000	875.81	1.07
303.15	40000	881.53	1.08
303.15	50000	887	1.09
303.15	60000	892.12	1.1
303.15	70000	897.09	1.11
303.15	80000	901.73	1.12
303.15	90000	906.27	1.13
303.15	100000	910.56	1.14
313.15	101.3	847.99	1.03
313.15	10000	855.19	1.05
313.15	20000	862	1.06
313.15	30000	868.5	1.07
313.15	40000	874.4	1.08
313.15	50000	880	1.1
313.15	60000	885.4	1.11
313.15	70000	890.5	1.12
313.15	80000	895.4	1.13
313.15	90000	900	1.14
313.15	100000	904.4	1.15
323.15	101.3	839.75	1.04
323.15	10000	847.49	1.05
323.15	20000	854.78	1.06
323.15	30000	861.46	1.07
323.15	40000	867.52	1.09
323.15	50000	873.23	1.1
323.15	60000	879.07	1.11
323.15	70000	884.28	1.13
323.15	80000	889.28	1.14
323.15	90000	894.05	1.15
323.15	100000	898.41	1.16
333.15	101.3	831.19	1.04
333.15	10000	839.38	1.05
333.15	20000	846.93	1.06
333.15	30000	853.95	1.08
333.15	40000	860.39	1.09
333.15	50000	866.43	1.1
333.15	60000	872.17	1.12
333.15	70000	877.53	1.13
333.15	80000	882.56	1.15
333.15	90000	887.46	1.16
333.15	100000	892.18	1.17
343.15	101.3	822.9	1.04
343.15	10000	831.45	1.05
343.15	20000	839.59	1.06
343.15	30000	846.94	1.08
343.15	40000	853.75	1.09
343.15	50000	860.03	1.11
343.15	60000	865.88	1.13
343.15	70000	871.46	1.14
343.15	80000	876.76	1.15
343.15	90000	881.86	1.17
343.15	100000	886.72	1.18
353.15	101.3	814.4	1.04
353.15	10000	823.62	1.05
353.15	20000	832.14	1.06
353.15	30000	839.63	1.08
353.15	40000	846.7	1.1
353.15	50000	853.22	1.12
353.15	60000	859.34	1.13
353.15	70000	865.16	1.15
353.15	80000	870.61	1.16
353.15	90000	875.77	1.18
353.15	100000	880.75	1.19
363.15	101.3	806.38	1.04
363.15	10000	815.94	1.05
363.15	20000	824.71	1.07
363.15	30000	832.73	1.08
363.15	40000	840.08	1.1
363.15	50000	846.82	1.12
363.15	60000	853.11	1.14
363.15	70000	859.26	1.16
363.15	80000	864.82	1.17
363.15	90000	870.11	1.19
363.15	100000	875.14	1.2
373.15	101.3	797.32	1.04
373.15	10000	807.87	1.05
373.15	20000	817.14	1.07
373.15	30000	825.49	1.09
373.15	40000	833.44	1.11
373.15	50000	840.48	1.12
373.15	60000	847.06	1.14
373.15	70000	853.14	1.16
373.15	80000	859.2	1.18
373.15	90000	864.65	1.2
373.15	100000	869.76	1.21
383.15	101.3	789.45	1.04
383.15	10000	800.55	1.05
383.15	20000	810.35	1.07
383.15	30000	819.06	1.09
383.15	40000	826.96	1.11
383.15	50000	834.28	1.13
383.15	60000	841.17	1.15
383.15	70000	847.62	1.17
383.15	80000	853.58	1.19
383.15	90000	859.32	1.21
383.15	100000	864.87	1.22
393.15	101.3	780.85	1.04
393.15	10000	792.15	1.06
393.15	20000	802.27	1.08
393.15	30000	811.47	1.1
393.15	40000	819.79	1.12
393.15	50000	827.43	1.14
393.15	60000	834.45	1.16
393.15	70000	840.99	1.18
393.15	80000	847.2	1.2
393.15	90000	852.99	1.22
393.15	100000	858.42	1.24
