Measured thermophysical data. Vapor Liquid Equilibrium, Excess Molar Enthalpies, and Excess Molar Volumes of Binary Mixtures Containing Methyl Isobutyl Ketone (MIBK) and 2-Butanol, tert-Pentanol, or 2-Ethyl-1-hexanol
Source: J. Chem. Eng. Data, 2012, 10.1021/je300678r
Compound 1: 4-methylpentan-2-one, C6H12O, InChI=1S/C6H12O/c1-5(2)4-6(3)7/h5H,4H2,1-3H3
Compound 2: 2-methylbutan-2-ol, C5H12O, InChI=1S/C5H12O/c1-4-5(2,3)6/h6H,4H2,1-3H3
Compound 3: 2-ethyl-1-hexanol, C8H18O, InChI=1S/C8H18O/c1-3-5-6-8(4-2)7-9/h8-9H,3-7H2,1-2H3
Compound 4: butan-2-ol, C4H10O, InChI=1S/C4H10O/c1-3-4(2)5/h4-5H,3H2,1-2H3

System: 4-methylpentan-2-one; phases: Liquid, Gas
Property: Vapor or sublimation pressure, kPa (Liquid); method: Ebulliometric method (Recirculating still)
Temperature, K	Vapor or sublimation pressure, kPa	uncertainty
340.18	19.35	0.2
340.66	19.78	0.2
343.42	21.92	0.21
351.55	30.01	0.21
352.71	31.12	0.23
353.11	31.71	0.31
359.22	39.35	0.18
359.39	39.63	0.21
359.58	40.05	0.24
362.88	44.7	0.17
365.9	49.68	0.16
366.61	50.66	0.18
368.06	53.01	0.27
368.07	53.42	0.24
368.14	53.26	0.32
368.15	53.24	0.27
368.7	54.29	0.21
371.34	59.43	0.14
371.64	59.75	0.16
371.91	60.19	0.18
374.37	65.18	0.22
376.26	69.16	0.37
376.49	69.98	0.37
378.8	74.83	0.25
380.65	79.56	0.17
381.06	80.16	0.25
382.66	84.16	0.28
384.99	90.58	0.29
388.07	98.7	0.66
388.31	99.4	0.31
388.63	100.35	0.34
388.65	100.41	0.34
389.06	101.85	0.3
389.49	102.78	0.24

System: 4-methylpentan-2-one; phases: Liquid
Fixed: Pressure, kPa = 101.325
Property: Refractive index (Na D-line) (Liquid); method: Standard Abbe refractometry
Temperature, K	Refractive index (Na D-line)	uncertainty
297.84	1.3935	0.0003
298.15	1.393464	0.000328
298.15	1.393517	0.000328

System: 4-methylpentan-2-one; phases: Liquid
Property: Mass density, kg/m3 (Liquid); method: Vibrating tube method
Temperature, K	Pressure, kPa	Mass density, kg/m3	uncertainty
297.84	101.325	796.4	0.4

System: 2-methylbutan-2-ol; phases: Liquid, Gas
Property: Vapor or sublimation pressure, kPa (Liquid); method: Ebulliometric method (Recirculating still)
Temperature, K	Vapor or sublimation pressure, kPa	uncertainty
336.04	19.84	0.25
344.75	29.94	0.28
351.29	39.96	0.35
356.6	49.95	0.42
361.18	60.05	0.48
365.4	70.74	0.53
368.07	78.27	0.54
368.16	78.09	0.37
368.75	80.2	0.38
371.97	90.23	0.34
375.14	100.74	0.49
375.38	101.88	0.5
375.53	102.61	0.5

System: 2-methylbutan-2-ol; phases: Liquid
Fixed: Pressure, kPa = 101.325
Property: Refractive index (Na D-line) (Liquid); method: Standard Abbe refractometry
Temperature, K	Refractive index (Na D-line)	uncertainty
297.85	1.4025	0.0004
298.15	1.402529	0.000371

System: 2-methylbutan-2-ol; phases: Liquid
Property: Mass density, kg/m3 (Liquid); method: Vibrating tube method
Temperature, K	Pressure, kPa	Mass density, kg/m3	uncertainty
297.85	101.325	805.3	0.4

System: 2-ethyl-1-hexanol; phases: Liquid, Gas
Property: Vapor or sublimation pressure, kPa (Liquid); method: Ebulliometric method (Recirculating still)
Temperature, K	Vapor or sublimation pressure, kPa	uncertainty
389.76	9.88	0.24
407.11	19.88	0.29
418.24	30.03	0.41
426.95	39.67	0.25
430.79	45.05	0.3
433.51	49.22	0.34
437.24	55.52	0.19
439.49	59.61	0.21
442.12	64.64	0.22
445	70.55	0.23
447.04	75.01	0.24
449.02	79.55	0.25
451.06	84.49	0.27
456.77	99.44	0.28
457.83	102.2	0.26
458.23	102.91	0.2
458.24	103.26	0.27

System: 2-ethyl-1-hexanol; phases: Liquid
Fixed: Pressure, kPa = 101.325
Property: Refractive index (Na D-line) (Liquid); method: Standard Abbe refractometry
Temperature, K	Refractive index (Na D-line)	uncertainty
297.86	1.4295	0.0003
298.15	1.429492	0.000322

System: 2-ethyl-1-hexanol; phases: Liquid
Property: Mass density, kg/m3 (Liquid); method: Vibrating tube method
Temperature, K	Pressure, kPa	Mass density, kg/m3	uncertainty
297.86	101.325	828.8	0.3

System: butan-2-ol; phases: Liquid, Gas
Property: Vapor or sublimation pressure, kPa (Liquid); method: Ebulliometric method (Recirculating still)
Temperature, K	Vapor or sublimation pressure, kPa	uncertainty
358.16	57.27	0.29
367.97	84.94	0.31
367.97	85.16	0.75
372.43	100.62	0.46
372.71	101.88	0.46

System: butan-2-ol; phases: Liquid
Fixed: Pressure, kPa = 101.325
Property: Refractive index (Na D-line) (Liquid); method: Standard Abbe refractometry
Temperature, K	Refractive index (Na D-line)	uncertainty
297.83	1.3951	0.0003
298.15	1.395124	0.000328

System: butan-2-ol; phases: Liquid
Property: Mass density, kg/m3 (Liquid); method: Vibrating tube method
Temperature, K	Pressure, kPa	Mass density, kg/m3	uncertainty
297.83	101.325	802.7	0.4

System: butan-2-ol + 4-methylpentan-2-one; phases: Liquid
Fixed: Pressure, kPa = 101
Fixed: Temperature, K = 298.15
Property: Excess molar enthalpy (molar enthalpy of mixing), kJ/mol (Liquid); method: Flow calorimetry
Mole fraction of 4-methylpentan-2-one	Excess molar enthalpy (molar enthalpy of mixing), kJ/mol	uncertainty
0.1009	0.6746	0.0187
0.2009	1.138	0.0312
0.3007	1.4389	0.0391
0.4015	1.6051	0.0435
0.4015	1.6121	0.0436
0.5008	1.6587	0.0449
0.6021	1.5886	0.043
0.7004	1.4079	0.0382
0.7998	1.0977	0.0299
0.8998	0.648	0.0177

System: butan-2-ol + 4-methylpentan-2-one; phases: Liquid
Fixed: Pressure, kPa = 101
Fixed: Temperature, K = 298.15
Property: Refractive index (Na D-line) (Liquid); method: Standard Abbe refractometry
Mole fraction of 4-methylpentan-2-one	Refractive index (Na D-line)	uncertainty
0	1.395124	0.000328
0.0502	1.394728	0.000328
0.1005	1.39443	0.000328
0.2005	1.393922	0.000328
0.3998	1.393347	0.000328
0.602	1.393093	0.000328
0.7988	1.393127	0.000328
0.8985	1.393252	0.000328
0.9508	1.39335	0.000328
1	1.393464	0.000328

System: butan-2-ol + 4-methylpentan-2-one; phases: Liquid
Fixed: Pressure, kPa = 101
Fixed: Temperature, K = 298.15
Property: Mass density, kg/m3 (Liquid); method: Vibrating tube method
Mole fraction of 4-methylpentan-2-one	Mass density, kg/m3	uncertainty
0.1009	800.64	0.35
0.2009	799.14	0.35
0.3007	798.02	0.35
0.4015	797.16	0.35
0.4015	797.13	0.35
0.5008	796.55	0.35
0.6021	796.12	0.35
0.7004	795.9	0.35
0.7998	795.84	0.35
0.8998	795.97	0.35

System: butan-2-ol + 4-methylpentan-2-one; phases: Liquid, Gas
Property: Vapor or sublimation pressure, kPa (Liquid); method: Ebulliometric method (Recirculating still)
Mole fraction of 4-methylpentan-2-one	Temperature, K	Vapor or sublimation pressure, kPa	uncertainty
0	367.97	85.16	0.75
0.107	368.1	84.14	0.6
0.16	368.1	83.33	0.72
0.206	368.1	82.47	0.63
0.302	368.09	80.49	0.37
0.363	367.99	78.98	0.44
0.39	368.09	78.39	0.69
0.424	368.11	77.46	0.88
0.456	368.01	76.3	0.88
0.494	368.05	75.24	0.62
0.537	368.05	73.81	0.67
0.581	368.08	72.52	0.39
0.629	367.98	70.57	0.94
0.685	368.17	68.96	1.12
0.738	368.04	66.47	0.63
0.8	368	63.69	1.36
0.859	367.99	60.88	2.71
0.929	367.96	57.04	2.71

System: butan-2-ol + 4-methylpentan-2-one; phases: Gas, Liquid
Property: Mole fraction of 4-methylpentan-2-one (Gas); method: Index of refraction calibration data
Mole fraction of 4-methylpentan-2-one	Temperature, K	Mole fraction of 4-methylpentan-2-one	uncertainty
0	367.97	1	
0.107	368.1	0.091	0.091
0.16	368.1	0.132	0.132
0.206	368.1	0.167	0.009
0.302	368.09	0.238	0.005
0.363	367.99	0.277	0.003
0.39	368.09	0.301	0.009
0.424	368.11	0.327	0.006
0.456	368.01	0.353	0.017
0.494	368.05	0.382	0.004
0.537	368.05	0.416	0.008
0.581	368.08	0.453	0.007
0.629	367.98	0.495	0.017
0.685	368.17	0.547	0.016
0.738	368.04	0.604	0.01
0.8	368	0.676	0.036
0.859	367.99	0.755	0.081
0.929	367.96	0.861	0.081

System: butan-2-ol + 4-methylpentan-2-one; phases: Gas, Liquid
Fixed: Temperature, K = 368.2
Property: Mole fraction of 4-methylpentan-2-one (Gas); method: Chromatography
Mole fraction of 4-methylpentan-2-one	Mole fraction of 4-methylpentan-2-one	uncertainty
0.053	0.038	0.008
0.1	0.077	0.008
0.201	0.156	0.008
0.304	0.232	0.008
0.405	0.306	0.008
0.503	0.382	0.008
0.601	0.464	0.009
0.698	0.556	0.01
0.797	0.668	0.01
0.897	0.808	0.011
0.947	0.894	0.012

System: 2-methylbutan-2-ol + 4-methylpentan-2-one; phases: Liquid
Fixed: Pressure, kPa = 101
Fixed: Temperature, K = 298.15
Property: Excess molar enthalpy (molar enthalpy of mixing), kJ/mol (Liquid); method: Flow calorimetry
Mole fraction of 4-methylpentan-2-one	Excess molar enthalpy (molar enthalpy of mixing), kJ/mol	uncertainty
0.1012	0.4417	0.0125
0.2017	0.8181	0.0227
0.3013	1.0993	0.0301
0.4017	1.2831	0.0349
0.4017	1.283	0.0349
0.5008	1.3674	0.037
0.6006	1.3433	0.0364
0.7009	1.2068	0.0328
0.8017	0.948	0.0259
0.9007	0.5508	0.0152

System: 2-methylbutan-2-ol + 4-methylpentan-2-one; phases: Liquid
Fixed: Pressure, kPa = 101
Fixed: Temperature, K = 298.15
Property: Refractive index (Na D-line) (Liquid); method: Standard Abbe refractometry
Mole fraction of 4-methylpentan-2-one	Refractive index (Na D-line)	uncertainty
0	1.402529	0.000371
0.0598	1.402167	0.000367
0.1216	1.401561	0.000364
0.2171	1.400431	0.000359
0.4095	1.398111	0.00035
0.5982	1.396151	0.000342
0.8202	1.394388	0.000333
0.9177	1.393827	0.00033
0.9563	1.39364	0.000329
1	1.393517	0.000328

System: 2-methylbutan-2-ol + 4-methylpentan-2-one; phases: Liquid
Fixed: Pressure, kPa = 101
Fixed: Temperature, K = 298.15
Property: Mass density, kg/m3 (Liquid); method: Vibrating tube method
Mole fraction of 4-methylpentan-2-one	Mass density, kg/m3	uncertainty
0.1012	804.47	0.38
0.2017	803	0.38
0.3013	801.45	0.37
0.4017	800.01	0.37
0.4017	800	0.37
0.5008	798.73	0.36
0.6006	797.67	0.36
0.7009	796.87	0.36
0.8017	796.33	0.35
0.9007	796.12	0.35

System: 2-methylbutan-2-ol + 4-methylpentan-2-one; phases: Liquid, Gas
Property: Vapor or sublimation pressure, kPa (Liquid); method: Ebulliometric method (Recirculating still)
Mole fraction of 4-methylpentan-2-one	Temperature, K	Vapor or sublimation pressure, kPa	uncertainty
0	368.07	78.27	0.54
0.018	368.08	78.07	0.54
0.046	368.08	77.63	0.54
0.057	368.08	77.44	0.54
0.07	368.08	77.24	0.53
0.082	368.07	77	0.53
0.11	368.07	76.53	0.53
0.145	368.07	75.93	0.52
0.194	368.08	75.05	0.52
0.265	368.08	73.71	0.51
0.328	368.07	72.4	0.5
0.438	368.08	70.24	0.48
0.484	368.07	69.44	0.48
0.559	368.08	67.49	0.46
0.564	368.07	66.93	0.46
0.588	368.07	66.74	0.46
0.612	368.08	65.78	0.45
0.664	368.08	64.45	0.44
0.722	368.08	62.96	0.43
0.786	368.08	60.88	0.42
0.857	368.07	58.26	0.4
0.86	368.07	58.24	0.4
0.909	368.07	56.87	0.39
0.96	368.08	54.77	0.38
1	368.07	53.42	0.37

System: 2-methylbutan-2-ol + 4-methylpentan-2-one; phases: Gas, Liquid
Property: Mole fraction of 4-methylpentan-2-one (Gas); method: Index of refraction calibration data
Mole fraction of 4-methylpentan-2-one	Temperature, K	Mole fraction of 4-methylpentan-2-one	uncertainty
0	368.07	0	
0.018	368.08	0.015	0.009
0.046	368.08	0.037	0.003
0.057	368.08	0.047	0.012
0.07	368.08	0.056	0.056
0.082	368.07	0.066	0.003
0.11	368.07	0.088	0.003
0.145	368.07	0.116	0.003
0.194	368.08	0.155	0.003
0.265	368.08	0.212	0.038
0.328	368.07	0.261	0.003
0.438	368.08	0.354	0.162
0.484	368.07	0.393	0.003
0.559	368.08	0.464	0.46
0.564	368.07	0.468	0.004
0.588	368.07	0.49	0.004
0.612	368.08	0.513	0.487
0.664	368.08	0.565	0.435
0.722	368.08	0.627	0.373
0.786	368.08	0.704	0.296
0.857	368.07	0.792	0.003
0.86	368.07	0.795	0.003
0.909	368.07	0.862	0.003
0.96	368.08	0.936	0.064
1	368.07	1	

System: 2-methylbutan-2-ol + 4-methylpentan-2-one; phases: Gas, Liquid
Property: Mole fraction of 4-methylpentan-2-one (Gas); method: Chromatography
Temperature, K	Mole fraction of 4-methylpentan-2-one	Mole fraction of 4-methylpentan-2-one	uncertainty
294.7	0.048	0.1	0.006
294.7	0.099	0.183	0.006
294.7	0.202	0.32	0.007
294.7	0.3	0.418	0.007
294.7	0.403	0.502	0.008
294.7	0.501	0.573	0.007
294.7	0.603	0.645	0.007
294.7	0.7	0.713	0.007
294.7	0.802	0.798	0.006
294.7	0.902	0.889	0.006
294.7	0.95	0.942	0.006
333.2	0.048	0.052	0.006
333.2	0.099	0.104	0.006
333.2	0.3	0.291	0.007
333.2	0.403	0.387	0.007
333.2	0.407	0.381	0.007
333.2	0.503	0.468	0.008
333.2	0.601	0.557	0.008
333.2	0.603	0.563	0.008
333.2	0.697	0.65	0.007
333.2	0.7	0.656	0.007
333.2	0.802	0.759	0.007
333.2	0.803	0.758	0.007
333.2	0.902	0.868	0.006
333.2	0.95	0.932	0.006
368.2	0.01	0.008	0.006
368.2	0.03	0.025	0.006
368.2	0.049	0.04	0.006
368.2	0.05	0.038	0.006
368.2	0.051	0.041	0.006
368.2	0.1	0.081	0.006
368.2	0.101	0.077	0.006
368.2	0.202	0.154	0.006
368.2	0.206	0.161	0.006
368.2	0.209	0.164	0.006
368.2	0.3	0.232	0.006
368.2	0.304	0.241	0.006
368.2	0.31	0.244	0.006
368.2	0.359	0.286	0.007
368.2	0.405	0.324	0.007
368.2	0.449	0.359	0.007
368.2	0.455	0.366	0.007
368.2	0.502	0.406	0.007
368.2	0.505	0.411	0.007
368.2	0.597	0.495	0.008
368.2	0.604	0.503	0.008
368.2	0.656	0.555	0.008
368.2	0.703	0.598	0.007
368.2	0.705	0.605	0.007
368.2	0.799	0.713	0.007
368.2	0.8	0.715	0.007
368.2	0.897	0.844	0.006
368.2	0.899	0.844	0.006
368.2	0.95	0.92	0.006
368.2	0.954	0.926	0.006
368.2	0.01	0.008	0.006
368.2	0.03	0.025	0.006
368.2	0.05	0.041	0.006
368.2	0.101	0.08	0.006
368.2	0.01	0.009	0.006

System: 2-ethyl-1-hexanol + 4-methylpentan-2-one; phases: Liquid
Fixed: Pressure, kPa = 101
Fixed: Temperature, K = 298.15
Property: Excess molar enthalpy (molar enthalpy of mixing), kJ/mol (Liquid); method: Flow calorimetry
Mole fraction of 4-methylpentan-2-one	Excess molar enthalpy (molar enthalpy of mixing), kJ/mol	uncertainty
0.1009	0.5502	0.0157
0.2001	0.9865	0.0278
0.3019	1.3089	0.0362
0.4014	1.5096	0.0412
0.5009	1.5912	0.0431
0.6018	1.5514	0.0422
0.7019	1.3771	0.0385
0.8009	1.0793	0.032
0.8009	1.0746	0.0319
0.9004	0.6222	0.0193

System: 2-ethyl-1-hexanol + 4-methylpentan-2-one; phases: Liquid
Fixed: Pressure, kPa = 101
Fixed: Temperature, K = 298.15
Property: Refractive index (Na D-line) (Liquid); method: Standard Abbe refractometry
Mole fraction of 4-methylpentan-2-one	Refractive index (Na D-line)	uncertainty
0	1.429492	0.000322
0.0516	1.428058	0.000322
0.1017	1.426595	0.000323
0.2045	1.423512	0.000323
0.397	1.417226	0.000324
0.605	1.409997	0.000326
0.7986	1.402493	0.000326
0.9051	1.39848	0.000327
0.9491	1.395874	0.000327
1	1.393464	0.000328

System: 2-ethyl-1-hexanol + 4-methylpentan-2-one; phases: Liquid
Fixed: Pressure, kPa = 101
Fixed: Temperature, K = 298.15
Property: Mass density, kg/m3 (Liquid); method: Vibrating tube method
Mole fraction of 4-methylpentan-2-one	Mass density, kg/m3	uncertainty
0.1009	826.11	0.34
0.2001	823.29	0.35
0.3019	820.27	0.35
0.4014	817.23	0.36
0.5009	813.99	0.37
0.6018	810.67	0.37
0.7019	807.13	0.37
0.8009	803.8	0.37
0.8009	803.62	0.37
0.9004	800.06	0.35

System: 2-ethyl-1-hexanol + 4-methylpentan-2-one; phases: Liquid, Gas
Property: Vapor or sublimation pressure, kPa (Liquid); method: Ebulliometric method (Recirculating still)
Mole fraction of 4-methylpentan-2-one	Temperature, K	Vapor or sublimation pressure, kPa	uncertainty
0.036	388.1	12.52	1.26
0.143	388.2	22.78	0.69
0.16	388.1	24.17	0.58
0.31	388.12	37.46	1.11
0.313	387.99	38.77	0.7
0.363	388.02	43.29	0.87
0.416	388.04	48.05	1.03
0.444	388.08	50.04	0.47
0.461	388.19	52.3	0.69
0.512	388.07	56.4	0.33
0.614	388.08	64.89	0.77
0.704	388.07	72.28	0.59
0.765	388.09	77.94	0.44
0.816	388.07	82.43	1.02
0.875	388.07	87.44	0.48
0.91	388.08	90.61	0.79
0.94	388.07	93.25	0.59
0.964	388.08	95.48	0.8
1	388.07	98.7	0.66

System: 2-ethyl-1-hexanol + 4-methylpentan-2-one; phases: Gas, Liquid
Property: Mole fraction of 4-methylpentan-2-one (Gas); method: Index of refraction calibration data
Mole fraction of 4-methylpentan-2-one	Temperature, K	Mole fraction of 4-methylpentan-2-one	uncertainty
0.036	388.1	0.306	0.095
0.143	388.2	0.658	0.035
0.16	388.1	0.688	0.047
0.31	388.12	0.834	0.047
0.313	387.99	0.844	0.04
0.363	388.02	0.865	0.037
0.416	388.04	0.885	0.018
0.444	388.08	0.899	0.003
0.461	388.19	0.902	0.009
0.512	388.07	0.919	0.005
0.614	388.08	0.945	0.005
0.704	388.07	0.962	0.004
0.765	388.09	0.971	0.003
0.816	388.07	0.978	0.003
0.875	388.07	0.985	0.007
0.91	388.08	0.99	0.004
0.94	388.07	0.993	0.003
0.964	388.08	0.996	0.004
1	388.07	1	
