Measured thermophysical data. Vapor Liquid Equilibrium Data for Binary Systems of 1H-Pyrrole with Butan-1-ol, Propan-1-ol, or Pentan-1-ol
Source: J. Chem. Eng. Data, 2012, 10.1021/je3004194
Compound 1: butan-1-ol, C4H10O, InChI=1S/C4H10O/c1-2-3-4-5/h5H,2-4H2,1H3, purity 99.9%
Compound 2: propan-1-ol, C3H8O, InChI=1S/C3H8O/c1-2-3-4/h4H,2-3H2,1H3, purity 99.8%
Compound 3: pentan-1-ol, C5H12O, InChI=1S/C5H12O/c1-2-3-4-5-6/h6H,2-5H2,1H3, purity 99.4%
Compound 4: pyrrole, C4H5N, InChI=1S/C4H5N/c1-2-4-5-3-1/h1-5H, purity 99%

System: butan-1-ol; phases: Liquid
Property: Refractive index (Na D-line) (Liquid); method: Standard Abbe refractometry
Temperature, K	Pressure, kPa	Refractive index (Na D-line)	uncertainty
293.2	101.325	1.3993	0.0019

System: butan-1-ol; phases: Liquid
Property: Mass density, kg/m3 (Liquid); method: Vibrating tube method
Temperature, K	Pressure, kPa	Mass density, kg/m3	uncertainty
293.2	101.325	810.2	1.7

System: butan-1-ol; phases: Liquid, Gas
Property: Vapor or sublimation pressure, kPa (Liquid); method: Ebulliometric method (Recirculating still)
Temperature, K	Vapor or sublimation pressure, kPa	uncertainty
337.2	10	0.62
351.1	20	0.63
353.2	21.84	0.64
360	30	0.65
363.2	34.5	0.67
366.7	40	0.69
366.8	40	1
372.1	50	0.73
373.2	52.31	0.75
376.6	60	0.77
380.5	70	0.81
384	80	0.85
387.2	90	0.89
390.1	100	0.91

System: propan-1-ol; phases: Liquid
Property: Refractive index (Na D-line) (Liquid); method: Standard Abbe refractometry
Temperature, K	Pressure, kPa	Refractive index (Na D-line)	uncertainty
293.2	101.325	1.3851	0.0019

System: propan-1-ol; phases: Liquid
Property: Mass density, kg/m3 (Liquid); method: Vibrating tube method
Temperature, K	Pressure, kPa	Mass density, kg/m3	uncertainty
293.2	101.325	801.3	1.7

System: propan-1-ol; phases: Liquid, Gas
Property: Vapor or sublimation pressure, kPa (Liquid); method: Ebulliometric method (Recirculating still)
Temperature, K	Vapor or sublimation pressure, kPa	uncertainty
319.5	10	0.62
332.9	20	0.63
341.2	30	0.66
347.6	40	1
347.7	40	0.7
348.2	40.9	0.7
352.7	50	0.74
357.2	60	0.81
358.2	62.69	0.83
360.7	70	0.84
364.1	80	0.87
367.1	90	0.91
368.2	94.03	0.98
369.7	100	1

System: pentan-1-ol; phases: Liquid
Property: Refractive index (Na D-line) (Liquid); method: Standard Abbe refractometry
Temperature, K	Pressure, kPa	Refractive index (Na D-line)	uncertainty
293.2	101.325	1.4097	0.0019

System: pentan-1-ol; phases: Liquid
Property: Mass density, kg/m3 (Liquid); method: Vibrating tube method
Temperature, K	Pressure, kPa	Mass density, kg/m3	uncertainty
293.2	101.325	816.1	1.7

System: pentan-1-ol; phases: Liquid, Gas
Property: Vapor or sublimation pressure, kPa (Liquid); method: Ebulliometric method (Recirculating still)
Temperature, K	Vapor or sublimation pressure, kPa	uncertainty
353.2	9.83	0.6
354	10	0.6
363.2	15.58	0.62
368.7	20	0.62
373.2	24.26	0.64
378	30	0.66
385.2	40	1
385.3	40	0.67
391	50	0.71
395.9	60	0.74
400.2	70	0.78
403.9	80	0.82
407.3	90	0.86
410.4	100	0.88

System: pyrrole; phases: Liquid
Property: Refractive index (Na D-line) (Liquid); method: Standard Abbe refractometry
Temperature, K	Pressure, kPa	Refractive index (Na D-line)	uncertainty
293.2	101.325	1.5103	0.0019

System: pyrrole; phases: Liquid
Property: Mass density, kg/m3 (Liquid); method: Vibrating tube method
Temperature, K	Pressure, kPa	Mass density, kg/m3	uncertainty
293.2	101.325	970.4	1.7

System: pyrrole; phases: Liquid, Gas
Property: Vapor or sublimation pressure, kPa (Liquid); method: Ebulliometric method (Recirculating still)
Temperature, K	Vapor or sublimation pressure, kPa	uncertainty
339.9	10	0.61
348.2	14.4	0.61
353.2	18.02	0.62
356.2	20	0.62
358.2	21.8	0.63
363.2	26.88	0.63
366.5	30	0.63
368.2	32.06	0.65
373.2	38.24	0.65
374.5	40	0.66
374.7	40	1
380.8	50	0.7
386.1	60	0.72
390.9	70	0.75
395.2	80	0.78
399.1	90	0.82
402.4	100	0.86

System: propan-1-ol + pyrrole; phases: Liquid, Gas
Property: Vapor or sublimation pressure, kPa (Liquid); method: Ebulliometric method (Recirculating still)
Mole fraction of pyrrole	Temperature, K	Vapor or sublimation pressure, kPa	uncertainty
0	348.2	40.9	0.76
0	358.2	62.69	0.84
0	368.2	94.03	0.94
0.056	358.2	61.17	0.94
0.1	368.2	88.72	1.06
0.134	358.2	58.69	0.87
0.155	348.2	37.07	0.79
0.156	358.2	57.74	0.86
0.181	358.2	57.17	1.03
0.2	368.2	85.03	1
0.23	358.2	55.29	0.96
0.24	348.2	35.61	0.76
0.265	368.2	82.61	1.05
0.329	348.2	34.05	0.76
0.329	358.2	52.39	1.71
0.338	368.2	78.71	1.11
0.345	348.2	33.73	0.76
0.351	358.2	51.68	1.07
0.401	358.2	50.17	0.84
0.405	368.2	74.42	1.01
0.419	348.2	32.31	0.74
0.474	358.2	47.74	0.84
0.535	368.2	69.35	0.97
0.536	348.2	30.35	0.72
0.539	358.2	45.6	0.87
0.61	358.2	42.98	0.85
0.64	348.2	28.64	0.71
0.64	368.2	64.12	1.05
0.716	348.2	26.89	0.73
0.736	358.2	37.68	0.81
0.765	368.2	56.46	1.1
0.767	348.2	25.21	0.75
0.789	358.2	35.33	0.92
0.798	368.2	53.16	1.24
0.813	348.2	23.91	0.76
0.83	358.2	33.19	1.23
0.848	348.2	22.43	0.82
0.869	368.2	47.72	1.3
0.873	358.2	30.61	0.83
0.897	348.2	20.34	0.81
0.908	358.2	28.54	1.02
0.919	368.2	42.08	1.56
0.929	348.2	19.02	0.88
0.939	368.2	39.56	1.71
0.94	358.2	26.18	1.16
0.965	348.2	16.86	1
0.968	358.2	24.25	0.91
0.983	358.2	22.98	0.85
0.989	358.2	22.46	0.71
0.989	368.2	32.94	1.6
1	348.2	14.4	0.62
1	358.2	21.8	0.64
1	368.2	32.06	0.65

System: propan-1-ol + pyrrole; phases: Liquid, Gas
Fixed: Pressure, kPa = 40
Property: Boiling temperature at pressure P, K (Liquid); method: Ebulliometric method (Recirculating still)
Mole fraction of pyrrole	Boiling temperature at pressure P, K	uncertainty
0	347.6	0.4
0.045	347.9	0.4
0.108	348.5	0.4
0.171	349.4	0.4
0.23	350.1	0.4
0.265	350.4	0.4
0.354	351.7	0.4
0.385	352.1	0.4
0.565	355.1	0.4
0.652	356.8	0.5
0.736	359.6	0.6
0.801	361.9	0.6
0.802	361.9	0.6
0.846	363.6	0.6
0.882	365.3	0.8
0.904	366.9	0.9
0.964	370.8	1
1	374.7	0.4

System: propan-1-ol + pyrrole; phases: Gas, Liquid
Property: Mole fraction of pyrrole (Gas); method: Chromatography
Mole fraction of pyrrole	Temperature, K	Mole fraction of pyrrole	uncertainty
0	348.2	0	
0	358.2	0	
0	368.2	0	
0.056	358.2	0.029	0.014
0.1	368.2	0.05	0.013
0.134	358.2	0.07	0.014
0.155	348.2	0.082	0.014
0.156	358.2	0.082	0.013
0.181	358.2	0.096	0.014
0.2	368.2	0.099	0.014
0.23	358.2	0.127	0.014
0.24	348.2	0.129	0.014
0.265	368.2	0.141	0.014
0.329	348.2	0.176	0.014
0.329	358.2	0.174	0.013
0.338	368.2	0.18	0.014
0.345	348.2	0.186	0.014
0.351	358.2	0.183	0.014
0.401	358.2	0.215	0.014
0.405	368.2	0.221	0.014
0.419	348.2	0.226	0.014
0.474	358.2	0.254	0.014
0.535	368.2	0.297	0.014
0.536	348.2	0.295	0.014
0.539	358.2	0.296	0.014
0.61	358.2	0.34	0.016
0.64	348.2	0.366	0.015
0.64	368.2	0.36	0.015
0.716	348.2	0.434	0.017
0.736	358.2	0.451	0.017
0.765	368.2	0.472	0.017
0.767	348.2	0.487	0.018
0.789	358.2	0.505	0.019
0.798	368.2	0.517	0.021
0.813	348.2	0.535	0.021
0.83	358.2	0.56	0.023
0.848	348.2	0.6	0.024
0.869	368.2	0.615	0.024
0.873	358.2	0.635	0.025
0.897	348.2	0.681	0.026
0.908	358.2	0.704	0.03
0.919	368.2	0.723	0.03
0.929	348.2	0.752	0.034
0.939	368.2	0.778	0.038
0.94	358.2	0.785	0.036
0.965	348.2	0.858	0.044
0.968	358.2	0.871	0.04
0.983	358.2	0.929	0.048
0.989	358.2	0.956	0.042
0.989	368.2	0.934	0.036
1	348.2	1	
1	358.2	1	
1	368.2	1	

System: propan-1-ol + pyrrole; phases: Gas, Liquid
Fixed: Pressure, kPa = 40
Property: Mole fraction of pyrrole (Gas); method: Chromatography
Mole fraction of pyrrole	Mole fraction of pyrrole	uncertainty
0	0	
0.045	0.023	0.014
0.108	0.058	0.014
0.171	0.091	0.014
0.23	0.122	0.014
0.265	0.142	0.014
0.354	0.191	0.014
0.385	0.211	0.014
0.565	0.314	0.014
0.652	0.378	0.016
0.736	0.463	0.018
0.801	0.537	0.02
0.802	0.541	0.02
0.846	0.609	0.023
0.882	0.665	0.025
0.904	0.718	0.033
0.964	0.872	0.037
1	1	

System: butan-1-ol + pyrrole; phases: Liquid, Gas
Property: Vapor or sublimation pressure, kPa (Liquid); method: Ebulliometric method (Recirculating still)
Mole fraction of pyrrole	Temperature, K	Vapor or sublimation pressure, kPa	uncertainty
0	353.2	21.84	0.66
0	363.2	34.5	0.69
0	373.2	52.31	0.73
0.015	363.2	34.45	0.71
0.029	353.2	21.88	0.66
0.037	363.2	34.45	0.7
0.052	353.2	21.97	0.66
0.059	373.2	52.45	0.74
0.067	363.2	34.41	0.69
0.071	353.2	22.02	0.66
0.071	373.2	52.61	0.74
0.096	373.2	52.71	0.74
0.098	353.2	22.11	0.66
0.1	363.2	34.35	0.69
0.11	353.2	22.14	0.66
0.124	363.2	34.31	0.7
0.15	373.2	52.67	0.74
0.153	363.2	34.31	0.7
0.159	353.2	22.21	0.66
0.204	363.2	34.28	0.7
0.207	353.2	22.28	0.66
0.213	353.2	22.3	0.66
0.269	373.2	52.3	0.74
0.274	353.2	22.3	0.66
0.292	373.2	52.13	0.74
0.306	363.2	34.28	0.69
0.366	373.2	51.39	0.74
0.376	353.2	22.33	0.65
0.383	353.2	22.3	0.65
0.399	363.2	33.98	0.69
0.46	353.2	22.21	0.65
0.472	363.2	33.65	0.66
0.516	353.2	22.08	0.65
0.538	363.2	33.31	0.68
0.559	373.2	49.07	0.72
0.582	373.2	48.86	0.73
0.597	353.2	21.91	0.65
0.607	363.2	32.75	0.68
0.628	373.2	48.17	0.73
0.648	353.2	21.69	0.65
0.672	363.2	32.23	0.69
0.672	373.2	47.48	0.73
0.712	373.2	46.77	0.73
0.719	353.2	21.13	0.65
0.719	363.2	31.8	0.7
0.729	363.2	31.63	0.68
0.74	373.2	46.42	0.73
0.759	373.2	45.97	0.76
0.763	353.2	20.9	0.65
0.787	363.2	30.92	0.68
0.809	373.2	44.66	0.75
0.823	353.2	20.4	0.65
0.827	353.2	20.31	0.65
0.836	363.2	30.25	0.73
0.878	373.2	43.2	0.74
0.879	353.2	19.86	0.65
0.88	363.2	29.43	0.7
0.914	373.2	42.24	0.77
0.921	363.2	28.63	0.68
0.923	353.2	19.24	0.66
0.942	373.2	41.29	0.83
0.943	363.2	28.22	0.83
0.95	363.2	28.01	0.66
0.953	373.2	40.69	0.88
0.965	373.2	40.25	0.93
0.968	353.2	18.54	0.66
0.969	363.2	27.59	0.76
1	353.2	18.02	0.63
1	363.2	26.88	0.65
1	373.2	38.24	0.67

System: butan-1-ol + pyrrole; phases: Liquid, Gas
Fixed: Pressure, kPa = 40
Property: Boiling temperature at pressure P, K (Liquid); method: Ebulliometric method (Recirculating still)
Mole fraction of pyrrole	Boiling temperature at pressure P, K	uncertainty
0	366.8	0.4
0.048	366.5	0.4
0.049	366.4	0.4
0.072	366.4	0.4
0.09	366.4	0.4
0.105	366.3	0.4
0.168	366.4	0.4
0.21	366.4	0.4
0.223	366.4	0.4
0.312	366.6	0.4
0.405	366.9	0.4
0.495	367.3	0.4
0.564	367.7	0.4
0.61	367.9	0.4
0.625	368.1	0.4
0.69	368.7	0.4
0.771	369.6	0.4
0.838	370.5	0.4
0.873	371.2	0.4
0.912	371.8	0.4
0.941	372.4	0.5
0.954	372.9	0.5
0.98	373.4	0.6
1	374.7	0.4

System: butan-1-ol + pyrrole; phases: Gas, Liquid
Property: Mole fraction of pyrrole (Gas); method: Chromatography
Mole fraction of pyrrole	Temperature, K	Mole fraction of pyrrole	uncertainty
0	353.2	0	
0	363.2	0	
0	373.2	0	
0.015	363.2	0.021	0.017
0.029	353.2	0.041	0.021
0.037	363.2	0.04	0.016
0.052	353.2	0.075	0.02
0.059	373.2	0.06	0.017
0.067	363.2	0.068	0.017
0.071	353.2	0.097	0.015
0.071	373.2	0.061	0.016
0.096	373.2	0.091	0.017
0.098	353.2	0.108	0.016
0.1	363.2	0.104	0.017
0.11	353.2	0.123	0.016
0.124	363.2	0.125	0.016
0.15	373.2	0.141	0.016
0.153	363.2	0.151	0.017
0.159	353.2	0.171	0.017
0.204	363.2	0.204	0.016
0.207	353.2	0.215	0.017
0.213	353.2	0.223	0.017
0.269	373.2	0.25	0.015
0.274	353.2	0.278	0.015
0.292	373.2	0.267	0.015
0.306	363.2	0.288	0.016
0.366	373.2	0.326	0.016
0.376	353.2	0.352	0.016
0.383	353.2	0.368	0.016
0.399	363.2	0.364	0.016
0.46	353.2	0.424	0.016
0.472	363.2	0.42	0.016
0.516	353.2	0.469	0.016
0.538	363.2	0.47	0.016
0.559	373.2	0.481	0.014
0.582	373.2	0.493	0.016
0.597	353.2	0.528	0.016
0.607	363.2	0.525	0.016
0.628	373.2	0.538	0.017
0.648	353.2	0.569	0.016
0.672	363.2	0.578	0.016
0.672	373.2	0.58	0.017
0.712	373.2	0.616	0.016
0.719	353.2	0.629	0.016
0.719	363.2	0.616	0.017
0.729	363.2	0.629	0.017
0.74	373.2	0.635	0.017
0.759	373.2	0.662	0.019
0.763	353.2	0.67	0.017
0.787	363.2	0.686	0.018
0.809	373.2	0.719	0.018
0.823	353.2	0.731	0.018
0.827	353.2	0.739	0.018
0.836	363.2	0.74	0.018
0.878	373.2	0.797	0.019
0.879	353.2	0.801	0.02
0.88	363.2	0.795	0.02
0.914	373.2	0.852	0.022
0.921	363.2	0.852	0.022
0.923	353.2	0.867	0.022
0.942	373.2	0.896	0.023
0.943	363.2	0.889	0.022
0.95	363.2	0.9	0.024
0.953	373.2	0.912	0.024
0.965	373.2	0.933	0.025
0.968	353.2	0.939	0.024
0.969	363.2	0.933	0.027
1	353.2	1	
1	363.2	1	
1	373.2	1	

System: butan-1-ol + pyrrole; phases: Gas, Liquid
Fixed: Pressure, kPa = 40
Property: Mole fraction of pyrrole (Gas); method: Chromatography
Mole fraction of pyrrole	Mole fraction of pyrrole	uncertainty
0	0	
0.048	0.047	0.017
0.049	0.049	0.017
0.072	0.071	0.017
0.09	0.089	0.018
0.105	0.109	0.02
0.168	0.164	0.016
0.21	0.195	0.016
0.223	0.211	0.019
0.312	0.278	0.016
0.405	0.362	0.016
0.495	0.431	0.016
0.564	0.485	0.016
0.61	0.52	0.016
0.625	0.532	0.016
0.69	0.589	0.017
0.771	0.663	0.017
0.838	0.737	0.02
0.873	0.794	0.02
0.912	0.837	0.02
0.941	0.882	0.025
0.954	0.914	0.024
0.98	0.952	0.025
1	1	

System: pentan-1-ol + pyrrole; phases: Liquid, Gas
Property: Vapor or sublimation pressure, kPa (Liquid); method: Ebulliometric method (Recirculating still)
Mole fraction of pyrrole	Temperature, K	Vapor or sublimation pressure, kPa	uncertainty
0	353.2	9.83	0.62
0	363.2	15.58	0.62
0	373.2	24.26	0.64
0.009	373.2	24.51	0.75
0.028	363.2	16.16	0.63
0.052	373.2	26.43	0.76
0.063	353.2	10.72	0.65
0.066	363.2	16.92	0.65
0.108	353.2	11.59	0.65
0.114	373.2	28.02	0.73
0.119	353.2	11.82	0.65
0.14	363.2	18.36	0.68
0.147	373.2	29.03	0.74
0.157	353.2	12.33	0.64
0.19	373.2	30.22	0.73
0.212	353.2	13.12	0.64
0.216	373.2	30.89	0.73
0.226	363.2	19.86	0.66
0.227	363.2	19.94	0.66
0.253	373.2	31.82	0.71
0.294	353.2	14.06	0.63
0.312	363.2	21.1	1.14
0.322	373.2	33.21	0.7
0.329	363.2	21.65	0.64
0.368	353.2	14.79	0.64
0.381	373.2	34.18	0.7
0.39	363.2	22.57	0.65
0.409	373.2	34.69	0.69
0.441	353.2	15.48	0.64
0.465	363.2	23.53	0.66
0.473	373.2	35.49	0.68
0.506	353.2	16.04	0.64
0.522	363.2	24.25	0.67
0.555	353.2	16.29	0.63
0.562	373.2	36.59	0.68
0.581	363.2	24.89	0.65
0.612	353.2	16.64	0.64
0.618	373.2	36.98	0.67
0.632	363.2	25.39	0.65
0.662	353.2	16.79	0.63
0.683	363.2	25.67	0.66
0.721	353.2	17.01	0.64
0.731	373.2	37.77	0.67
0.733	363.2	25.99	0.65
0.763	363.2	26.13	0.74
0.798	373.2	38.21	0.68
0.824	353.2	17.53	0.64
0.85	373.2	38.62	0.68
0.878	373.2	38.64	0.67
0.897	353.2	17.64	0.63
0.902	353.2	17.73	0.63
0.902	363.2	26.47	0.65
0.938	373.2	38.63	0.67
0.977	373.2	38.41	0.67
0.991	373.2	38.31	0.67
1	353.2	18.02	0.63
1	363.2	26.88	0.65
1	373.2	38.24	0.67

System: pentan-1-ol + pyrrole; phases: Liquid, Gas
Fixed: Pressure, kPa = 40
Property: Boiling temperature at pressure P, K (Liquid); method: Ebulliometric method (Recirculating still)
Mole fraction of pyrrole	Boiling temperature at pressure P, K	uncertainty
0	385.2	0.4
0.034	383.6	0.6
0.046	383.2	0.6
0.064	382.8	0.5
0.115	381.2	0.5
0.147	380.5	0.5
0.184	379.5	0.5
0.199	379.2	0.4
0.229	378.7	0.4
0.289	377.7	0.4
0.291	377.6	0.4
0.379	376.4	0.4
0.404	376.2	0.4
0.476	375.3	0.4
0.514	375.1	0.4
0.563	374.6	0.4
0.651	373.9	0.4
0.673	373.8	0.4
0.789	373.3	0.4
0.888	373.6	0.4
0.928	373.6	0.4
0.933	373.8	0.4
1	374.7	0.4

System: pentan-1-ol + pyrrole; phases: Gas, Liquid
Property: Mole fraction of pyrrole (Gas); method: Chromatography
Mole fraction of pyrrole	Temperature, K	Mole fraction of pyrrole	uncertainty
0	353.2	0	
0	363.2	0	
0	373.2	0	
0.009	373.2	0.018	0.018
0.028	363.2	0.06	0.027
0.052	373.2	0.093	0.024
0.063	353.2	0.142	0.027
0.066	363.2	0.131	0.023
0.108	353.2	0.219	0.024
0.114	373.2	0.198	0.022
0.119	353.2	0.243	0.024
0.14	363.2	0.244	0.022
0.147	373.2	0.24	0.021
0.157	353.2	0.305	0.023
0.19	373.2	0.308	0.02
0.212	353.2	0.39	0.02
0.216	373.2	0.332	0.021
0.226	363.2	0.374	0.02
0.227	363.2	0.383	0.02
0.253	373.2	0.394	0.018
0.294	353.2	0.482	0.018
0.312	363.2	0.467	0.022
0.322	373.2	0.45	0.017
0.329	363.2	0.497	0.018
0.368	353.2	0.543	0.016
0.381	373.2	0.505	0.018
0.39	363.2	0.554	0.017
0.409	373.2	0.545	0.017
0.441	353.2	0.605	0.016
0.465	363.2	0.612	0.016
0.473	373.2	0.593	0.016
0.506	353.2	0.654	0.015
0.522	363.2	0.655	0.015
0.555	353.2	0.685	0.015
0.562	373.2	0.669	0.015
0.581	363.2	0.693	0.015
0.612	353.2	0.72	0.014
0.618	373.2	0.693	0.015
0.632	363.2	0.726	0.015
0.662	353.2	0.749	0.014
0.683	363.2	0.759	0.014
0.721	353.2	0.778	0.015
0.731	373.2	0.777	0.015
0.733	363.2	0.79	0.014
0.763	363.2	0.807	0.015
0.798	373.2	0.817	0.015
0.824	353.2	0.855	0.015
0.85	373.2	0.869	0.017
0.878	373.2	0.892	0.016
0.897	353.2	0.909	0.016
0.902	353.2	0.916	0.016
0.902	363.2	0.905	0.015
0.938	373.2	0.941	0.016
0.977	373.2	0.977	0.015
0.991	373.2	0.982	0.012
1	353.2	1	
1	363.2	1	
1	373.2	1	

System: pentan-1-ol + pyrrole; phases: Gas, Liquid
Fixed: Pressure, kPa = 40
Property: Mole fraction of pyrrole (Gas); method: Chromatography
Mole fraction of pyrrole	Mole fraction of pyrrole	uncertainty
0	0	
0.034	0.08	0.03
0.046	0.107	0.03
0.064	0.144	0.025
0.115	0.236	0.024
0.147	0.286	0.022
0.184	0.338	0.021
0.199	0.357	0.019
0.229	0.394	0.018
0.289	0.458	0.017
0.291	0.459	0.017
0.379	0.538	0.017
0.404	0.557	0.016
0.476	0.609	0.015
0.514	0.633	0.015
0.563	0.664	0.015
0.651	0.716	0.014
0.673	0.729	0.014
0.789	0.8	0.015
0.888	0.874	0.015
0.928	0.911	0.018
0.933	0.916	0.018
1	1	
