Measured thermophysical data. Liquid Liquid Extraction of Aromatic Compounds from Cycloalkanes Using 1-Butyl-3-methylimidazolium Methylsulfate Ionic Liquid
Source: J. Chem. Eng. Data, 2013, 10.1021/je300826t
Compound 1: cyclohexane, C6H12, InChI=1S/C6H12/c1-2-4-6-5-3-1/h1-6H2, purity 99.9%
Compound 2: methylcyclohexane, C7H14, InChI=1S/C7H14/c1-7-5-3-2-4-6-7/h7H,2-6H2,1H3, purity 99%
Compound 3: cyclooctane, C8H16, InChI=1S/C8H16/c1-2-4-6-8-7-5-3-1/h1-8H2, purity 99%
Compound 4: benzene, C6H6, InChI=1S/C6H6/c1-2-4-6-5-3-1/h1-6H, purity 99.9%
Compound 5: ethylbenzene, C8H10, InChI=1S/C8H10/c1-2-8-6-4-3-5-7-8/h3-7H,2H2,1H3, purity 99.8%
Compound 6: 1-butyl-3-methylimidazolium methyl sulfate, C9H18N2O4S, InChI=1S/C8H15N2.CH4O4S/c1-3-4-5-10-7-6-9(2)8-10;1-5-6(2,3)4/h6-8H,3-5H2,1-2H3;1H3,(H,2,3,4)/q+1;/p-1

System: cyclohexane; phases: Liquid
Property: Refractive index (Na D-line) (Liquid); method: Standard Abbe refractometry
Temperature, K	Pressure, kPa	Refractive index (Na D-line)	uncertainty
298.15	101.325	1.4236	0.00068

System: cyclohexane; phases: Liquid
Property: Mass density, kg/m3 (Liquid); method: Vibrating tube method
Temperature, K	Pressure, kPa	Mass density, kg/m3	uncertainty
298.15	101.325	773.8	0.13

System: methylcyclohexane; phases: Liquid
Property: Refractive index (Na D-line) (Liquid); method: Standard Abbe refractometry
Temperature, K	Pressure, kPa	Refractive index (Na D-line)	uncertainty
298.15	101.325	1.42062	0.0007

System: methylcyclohexane; phases: Liquid
Property: Mass density, kg/m3 (Liquid); method: Vibrating tube method
Temperature, K	Pressure, kPa	Mass density, kg/m3	uncertainty
298.15	101.325	765.02	0.24

System: cyclooctane; phases: Liquid
Property: Refractive index (Na D-line) (Liquid); method: Standard Abbe refractometry
Temperature, K	Pressure, kPa	Refractive index (Na D-line)	uncertainty
298.15	101.325	1.45598	0.0007

System: cyclooctane; phases: Liquid
Property: Mass density, kg/m3 (Liquid); method: Vibrating tube method
Temperature, K	Pressure, kPa	Mass density, kg/m3	uncertainty
298.15	101.325	831.47	0.24

System: benzene; phases: Liquid
Property: Refractive index (Na D-line) (Liquid); method: Standard Abbe refractometry
Temperature, K	Pressure, kPa	Refractive index (Na D-line)	uncertainty
298.15	101.325	1.49774	0.00068

System: benzene; phases: Liquid
Property: Mass density, kg/m3 (Liquid); method: Vibrating tube method
Temperature, K	Pressure, kPa	Mass density, kg/m3	uncertainty
298.15	101.325	873.57	0.11

System: ethylbenzene; phases: Liquid
Property: Refractive index (Na D-line) (Liquid); method: Standard Abbe refractometry
Temperature, K	Pressure, kPa	Refractive index (Na D-line)	uncertainty
298.15	101.325	1.49304	0.00068

System: ethylbenzene; phases: Liquid
Property: Mass density, kg/m3 (Liquid); method: Vibrating tube method
Temperature, K	Pressure, kPa	Mass density, kg/m3	uncertainty
298.15	101.325	862.51	0.11

System: 1-butyl-3-methylimidazolium methyl sulfate; phases: Liquid
Property: Refractive index (Na D-line) (Liquid); method: Standard Abbe refractometry
Temperature, K	Pressure, kPa	Refractive index (Na D-line)	uncertainty
298.15	101.325	1.47792	0.0007

System: 1-butyl-3-methylimidazolium methyl sulfate; phases: Liquid
Property: Mass density, kg/m3 (Liquid); method: Vibrating tube method
Temperature, K	Pressure, kPa	Mass density, kg/m3	uncertainty
298.15	101.325	1212.59	0.41

System: benzene + cyclohexane + 1-butyl-3-methylimidazolium methyl sulfate; phases: Liquid mixture 1, Liquid mixture 2
Fixed: Temperature, K = 298.15
Fixed: Pressure, kPa = 101
Property: Mole fraction of benzene (Liquid mixture 1); method: Titration method
Mole fraction of cyclohexane	Mole fraction of benzene	uncertainty
0	0.554	0.017
0.014	0.489	0.018
0.017	0.449	0.017
0.021	0.391	0.016
0.026	0.298	0.015
0.026	0.344	0.015
0.03	0.246	0.014
0.031	0.189	0.013
0.032	0.106	0.012
0.034	0.142	0.013
0.039	0	

System: benzene + cyclohexane + 1-butyl-3-methylimidazolium methyl sulfate; phases: Liquid
Fixed: Temperature, K = 298.15
Fixed: Pressure, kPa = 101
Property: Mass density, kg/m3 (Liquid); method: Vibrating tube method
Mole fraction of cyclohexane	Mole fraction of benzene	Mass density, kg/m3	uncertainty
0	0.554	1105.54	1.33
0.014	0.489	1123.21	1.91
0.016	0.469	1128.1	2.76
0.017	0.449	1132.54	3.91
0.021	0.391	1143.59	2.83
0.026	0.298	1160.56	2.52
0.026	0.344	1152.16	2.72
0.027	0.318	1157.1	2.6
0.03	0.246	1169.66	2.34
0.031	0.189	1178.93	2.42
0.031	0.214	1174.88	2.42
0.032	0.106	1191.65	2.05
0.034	0.142	1186.29	2.34
0.039	0	1204.53	1.49

System: benzene + cyclohexane + 1-butyl-3-methylimidazolium methyl sulfate; phases: Liquid mixture 2, Liquid mixture 1
Fixed: Temperature, K = 298.15
Fixed: Pressure, kPa = 101.3
Property: Mole fraction of cyclohexane (Liquid mixture 2); method: Titration method
Property: Mole fraction of cyclohexane (Liquid mixture 1); method: Titration method
Property: Mole fraction of benzene (Liquid mixture 1); method: Titration method
Mole fraction of benzene	Mole fraction of cyclohexane	uncertainty	Mole fraction of cyclohexane	uncertainty	Mole fraction of benzene	uncertainty
0.037	0.037	0.012	0.948	0.012	0.052	
0.073	0.034	0.012	0.896	0.017	0.104	
0.11	0.033	0.012	0.84	0.018	0.16	
0.145	0.032	0.012	0.784	0.018	0.216	
0.179	0.031	0.012	0.726	0.019	0.274	
0.211	0.031	0.012	0.668	0.019	0.332	
0.269	0.029	0.012	0.55	0.021	0.45	
0.327	0.027	0.012	0.427	0.021	0.573	
0.386	0.023	0.012	0.301	0.019	0.699	
0.453	0.016	0.012	0.161	0.013	0.839	

System: benzene + methylcyclohexane + 1-butyl-3-methylimidazolium methyl sulfate; phases: Liquid mixture 1, Liquid mixture 2
Fixed: Temperature, K = 298.15
Fixed: Pressure, kPa = 101
Property: Mole fraction of benzene (Liquid mixture 1); method: Titration method
Mole fraction of methylcyclohexane	Mole fraction of benzene	uncertainty
0	0.554	0.017
0.012	0.45	0.018
0.016	0.346	0.015
0.016	0.396	0.016
0.017	0.146	0.013
0.018	0.102	0.012
0.018	0.245	0.014
0.018	0.293	0.015
0.019	0.198	0.013
0.025	0.052	0.012
0.028	0	

System: benzene + methylcyclohexane + 1-butyl-3-methylimidazolium methyl sulfate; phases: Liquid
Fixed: Temperature, K = 298.15
Fixed: Pressure, kPa = 101
Property: Mass density, kg/m3 (Liquid); method: Vibrating tube method
Mole fraction of methylcyclohexane	Mole fraction of benzene	Mass density, kg/m3	uncertainty
0	0.554	1105.54	1.33
0.012	0.45	1131.94	1.93
0.013	0.416	1139.25	2.96
0.016	0.346	1153.82	2.9
0.016	0.396	1143.26	2.89
0.017	0.146	1188.83	2.4
0.018	0.102	1194.27	2.06
0.018	0.245	1172.31	2.53
0.018	0.293	1163.29	2.66
0.019	0.198	1180.13	2.47
0.02	0.281	1165.35	2.64
0.022	0.125	1191.09	2.1
0.025	0.052	1201.37	2.9
0.028	0	1207.3	1.5

System: benzene + methylcyclohexane + 1-butyl-3-methylimidazolium methyl sulfate; phases: Liquid mixture 1, Liquid mixture 2
Fixed: Temperature, K = 298.15
Fixed: Pressure, kPa = 101.3
Property: Mole fraction of methylcyclohexane (Liquid mixture 1); method: Titration method
Property: Mole fraction of methylcyclohexane (Liquid mixture 2); method: Titration method
Property: Mole fraction of benzene (Liquid mixture 2); method: Titration method
Mole fraction of benzene	Mole fraction of methylcyclohexane	uncertainty	Mole fraction of methylcyclohexane	uncertainty	Mole fraction of benzene	uncertainty
0.054	0.946	0.012	0.021	0.012	0.042	
0.105	0.895	0.017	0.02	0.012	0.077	
0.159	0.841	0.018	0.018	0.012	0.113	
0.211	0.789	0.018	0.018	0.012	0.147	
0.268	0.732	0.019	0.018	0.012	0.179	
0.328	0.672	0.019	0.018	0.012	0.206	
0.445	0.555	0.021	0.018	0.012	0.263	
0.57	0.43	0.021	0.018	0.012	0.32	
0.702	0.298	0.015	0.016	0.012	0.38	

System: ethylbenzene + cyclohexane + 1-butyl-3-methylimidazolium methyl sulfate; phases: Liquid mixture 1, Liquid mixture 2
Fixed: Temperature, K = 298.15
Fixed: Pressure, kPa = 101
Property: Mole fraction of ethylbenzene (Liquid mixture 1); method: Titration method
Mole fraction of cyclohexane	Mole fraction of ethylbenzene	uncertainty
0	0.189	0.013
0.009	0.13	0.013
0.016	0.098	0.012
0.02	0.069	0.012
0.025	0.049	0.012
0.031	0.024	0.012
0.039	0	

System: ethylbenzene + cyclohexane + 1-butyl-3-methylimidazolium methyl sulfate; phases: Liquid
Fixed: Temperature, K = 298.15
Fixed: Pressure, kPa = 101
Property: Mass density, kg/m3 (Liquid); method: Vibrating tube method
Mole fraction of cyclohexane	Mole fraction of ethylbenzene	Mass density, kg/m3	uncertainty
0	0.189	1174.49	1.44
0.009	0.13	1184.64	1.81
0.012	0.148	1182.21	2.03
0.016	0.098	1188.38	2.16
0.02	0.069	1197.33	2.55
0.022	0.09	1192.21	2.05
0.025	0.049	1197.08	42.75
0.031	0.024	1200.34	2.07
0.037	0.039	1199.88	2.07
0.039	0	1201.85	1.49

System: ethylbenzene + cyclohexane + 1-butyl-3-methylimidazolium methyl sulfate; phases: Liquid mixture 1, Liquid mixture 2
Fixed: Temperature, K = 298.15
Fixed: Pressure, kPa = 101.3
Property: Mole fraction of cyclohexane (Liquid mixture 1); method: Titration method
Property: Mole fraction of cyclohexane (Liquid mixture 2); method: Titration method
Property: Mole fraction of ethylbenzene (Liquid mixture 2); method: Titration method
Mole fraction of ethylbenzene	Mole fraction of cyclohexane	uncertainty	Mole fraction of cyclohexane	uncertainty	Mole fraction of ethylbenzene	uncertainty
0.133	0.867	0.013	0.032	0.012	0.024	
0.195	0.805	0.018	0.032	0.012	0.035	
0.257	0.743	0.018	0.029	0.012	0.048	
0.324	0.676	0.019	0.027	0.012	0.062	
0.382	0.618	0.02	0.025	0.012	0.073	
0.515	0.485	0.022	0.022	0.012	0.094	
0.651	0.349	0.02	0.018	0.012	0.119	
0.781	0.219	0.018	0.013	0.012	0.142	
0.904	0.096	0.012	0.008	0.008	0.164	

System: ethylbenzene + methylcyclohexane + 1-butyl-3-methylimidazolium methyl sulfate; phases: Liquid mixture 1, Liquid mixture 2
Fixed: Temperature, K = 298.15
Fixed: Pressure, kPa = 101
Property: Mole fraction of ethylbenzene (Liquid mixture 1); method: Titration method
Mole fraction of methylcyclohexane	Mole fraction of ethylbenzene	uncertainty
0	0.189	0.013
0.004	0.167	0.013
0.009	0.151	0.013
0.01	0.123	0.013
0.013	0.09	0.012
0.016	0.059	0.012
0.02	0.038	0.012
0.028	0	

System: ethylbenzene + methylcyclohexane + 1-butyl-3-methylimidazolium methyl sulfate; phases: Liquid
Fixed: Temperature, K = 298.15
Fixed: Pressure, kPa = 101
Property: Mass density, kg/m3 (Liquid); method: Vibrating tube method
Mole fraction of methylcyclohexane	Mole fraction of ethylbenzene	Mass density, kg/m3	uncertainty
0	0.189	1174.49	1.44
0.004	0.167	1179.73	3.76
0.009	0.151	1182.72	2.3
0.009	0.159	1181.52	1.8
0.01	0.123	1187.49	2.3
0.012	0.081	1195.11	2.63
0.013	0.09	1193.55	3.24
0.016	0.059	1199.13	3.15
0.02	0.038	1202.6	2.08
0.021	0.039	1202.42	2.08
0.028	0	1207.3	1.5

System: ethylbenzene + methylcyclohexane + 1-butyl-3-methylimidazolium methyl sulfate; phases: Liquid mixture 1, Liquid mixture 2
Fixed: Temperature, K = 298.15
Fixed: Pressure, kPa = 101.3
Property: Mole fraction of methylcyclohexane (Liquid mixture 1); method: Titration method
Property: Mole fraction of methylcyclohexane (Liquid mixture 2); method: Titration method
Property: Mole fraction of ethylbenzene (Liquid mixture 2); method: Titration method
Mole fraction of ethylbenzene	Mole fraction of methylcyclohexane	uncertainty	Mole fraction of methylcyclohexane	uncertainty	Mole fraction of ethylbenzene	uncertainty
0.113	0.887	0.012	0.02	0.012	0.022	
0.197	0.803	0.018	0.019	0.012	0.038	
0.262	0.738	0.019	0.018	0.012	0.049	
0.327	0.673	0.019	0.016	0.012	0.062	
0.387	0.613	0.02	0.015	0.012	0.073	
0.525	0.475	0.022	0.013	0.012	0.098	
0.657	0.343	0.02	0.011	0.011	0.119	
0.786	0.214	0.018	0.008	0.008	0.143	
0.904	0.096	0.012	0.005	0.005	0.163	

System: ethylbenzene + cyclooctane + 1-butyl-3-methylimidazolium methyl sulfate; phases: Liquid mixture 1, Liquid mixture 2
Fixed: Temperature, K = 298.15
Fixed: Pressure, kPa = 101
Property: Mole fraction of ethylbenzene (Liquid mixture 1); method: Titration method
Mole fraction of cyclooctane	Mole fraction of ethylbenzene	uncertainty
0	0.189	0.013
0.006	0.151	0.013
0.01	0.101	0.012
0.01	0.13	0.013
0.013	0.07	0.012
0.014	0.049	0.012
0.017	0.024	0.012
0.02	0	

System: ethylbenzene + cyclooctane + 1-butyl-3-methylimidazolium methyl sulfate; phases: Liquid
Fixed: Temperature, K = 298.15
Fixed: Pressure, kPa = 101
Property: Mass density, kg/m3 (Liquid); method: Vibrating tube method
Mole fraction of cyclooctane	Mole fraction of ethylbenzene	Mass density, kg/m3	uncertainty
0	0.189	1174.49	1.44
0.006	0.151	1182.34	0.81
0.006	0.151	1182.34	0.81
0.01	0.101	1191.88	2.2
0.01	0.13	1187.49	2.2
0.013	0.07	1197.33	2.71
0.013	0.09	1193.55	2.71
0.014	0.049	1200.86	2.5
0.017	0.024	1205.09	2.28
0.02	0	1207.63	1.5
0.02	0.04	1201.91	2.07

System: ethylbenzene + cyclooctane + 1-butyl-3-methylimidazolium methyl sulfate; phases: Liquid mixture 1, Liquid mixture 2
Fixed: Temperature, K = 298.15
Fixed: Pressure, kPa = 101.3
Property: Mole fraction of cyclooctane (Liquid mixture 1); method: Titration method
Property: Mole fraction of cyclooctane (Liquid mixture 2); method: Titration method
Property: Mole fraction of ethylbenzene (Liquid mixture 2); method: Titration method
Mole fraction of ethylbenzene	Mole fraction of cyclooctane	uncertainty	Mole fraction of cyclooctane	uncertainty	Mole fraction of ethylbenzene	uncertainty
0.135	0.865	0.013	0.016	0.012	0.022	
0.192	0.808	0.018	0.016	0.012	0.032	
0.259	0.741	0.018	0.015	0.012	0.045	
0.353	0.647	0.02	0.014	0.012	0.065	
0.474	0.526	0.022	0.012	0.012	0.09	
0.599	0.401	0.02	0.01	0.01	0.111	
0.719	0.281	0.019	0.008	0.008	0.135	
0.867	0.133	0.013	0.005	0.005	0.162	
