Measured thermophysical data. Liquid Liquid Equilibria for the Ternary System Water + Dodecane + 1-(1-Methyl-2-propoxyethoxy)-2-propanol
Source: J. Chem. Eng. Data, 2012, 10.1021/je300450j
Compound 1: water, H2O, InChI=1S/H2O/h1H2, purity 99.9%
Compound 2: dodecane, C12H26, InChI=1S/C12H26/c1-3-5-7-9-11-12-10-8-6-4-2/h3-12H2,1-2H3, purity 99%
Compound 3: 1-(1-methyl-2-propoxyethoxy)-2-propanol, C9H20O3, InChI=1S/C9H20O3/c1-4-5-11-7-9(3)12-6-8(2)10/h8-10H,4-7H2,1-3H3, purity 99.5%

System: dodecane + water + 1-(1-methyl-2-propoxyethoxy)-2-propanol; phases: Liquid mixture 2, Liquid mixture 1
Fixed: Pressure, kPa = 101.3
Property: Mass fraction of water (Liquid mixture 2); method: Chromatography
Property: Mass fraction of water (Liquid mixture 1); method: Chromatography
Property: Mass fraction of 1-(1-methyl-2-propoxyethoxy)-2-propanol (Liquid mixture 1); method: Chromatography
Temperature, K	Mass fraction of 1-(1-methyl-2-propoxyethoxy)-2-propanol	Mass fraction of water	uncertainty	Mass fraction of water	uncertainty	Mass fraction of 1-(1-methyl-2-propoxyethoxy)-2-propanol	uncertainty
288.15	0.0736	0.9264	0.0026	0.0001	0.0001	0.0294	
288.15	0.1225	0.8775	0.0027	0.0003	0.0003	0.0677	
288.15	0.1652	0.8339	0.0028	0.0009	0.0009	0.1272	
288.15	0.188	0.8109	0.0029	0.0029	0.0018	0.2024	
288.15	0.2057	0.7931	0.003	0.0074	0.0018	0.2888	
288.15	0.2074	0.7914	0.0028	0.0154	0.0018	0.3868	
288.15	0.2089	0.7898	0.0028	0.0269	0.0018	0.4816	
288.15	0.2096	0.7894	0.0028	0.0426	0.0019	0.5711	
288.15	0.2097	0.7893	0.0028	0.0524	0.0063	0.6194	
288.15	0.2104	0.7896	0.0028	0.0679	0.0037	0.6798	
288.15	0.2146	0.7854	0.003	0.0982	0.0021	0.7548	
288.15	0.2992	0.7008	0.0033	0.344	0.0034	0.656	
298.15	0.0576	0.9417	0.0026	0.0002	0.0002	0.0427	
298.15	0.0949	0.9042	0.0026	0.0005	0.0005	0.099	
298.15	0.1205	0.8787	0.0027	0.0023	0.0018	0.1722	
298.15	0.1319	0.8672	0.0028	0.0049	0.0018	0.2518	
298.15	0.1421	0.8563	0.0026	0.0095	0.0018	0.3381	
298.15	0.1439	0.8548	0.0024	0.0162	0.0018	0.4271	
298.15	0.1445	0.8546	0.0024	0.0257	0.0018	0.5149	
298.15	0.1455	0.8537	0.0025	0.038	0.0018	0.6009	
298.15	0.1467	0.8533	0.0025	0.0471	0.002	0.6515	
298.15	0.1469	0.8531	0.0025	0.0617	0.0019	0.7133	
298.15	0.1493	0.8507	0.0028	0.0904	0.013	0.7823	
298.15	0.0576	0.9417	0.0026	0.2053	0.013	0.7947	
308.15	0.0441	0.9537	0.0025	0.0002	0.0002	0.0557	
308.15	0.071	0.9279	0.0025	0.001	0.001	0.1323	
308.15	0.0834	0.9159	0.0026	0.0026	0.0018	0.2036	
308.15	0.0904	0.9089	0.0026	0.0055	0.0018	0.2812	
308.15	0.0994	0.9006	0.0026	0.0095	0.0018	0.3673	
308.15	0.0994	0.9006	0.0026	0.0158	0.0018	0.4525	
308.15	0.1027	0.8973	0.0026	0.0234	0.0018	0.5362	
308.15	0.1043	0.8957	0.0027	0.0323	0.0018	0.6145	
308.15	0.1051	0.8949	0.0027	0.0433	0.0019	0.6689	
308.15	0.1055	0.8945	0.0027	0.0556	0.0019	0.7304	
308.15	0.1147	0.8853	0.0027	0.0789	0.0027	0.8012	
308.15	0.171	0.829	0.0028	0.1743	0.0073	0.8257	
