Measured thermophysical data. Vapor-Liquid Equilibrium (PTxy) Measurements and Modeling for the CO-C2H4 Binary System
Source: J. Chem. Eng. Data, 2012, 10.1021/je300599p
Compound 1: carbon monoxide, CO, InChI=1S/CO/c1-2
Compound 2: ethene, C2H4, InChI=1S/C2H4/c1-2/h1-2H2

System: ethene; phases: Liquid, Gas
Property: Vapor or sublimation pressure, kPa (Liquid); method: Closed cell (Static) method
Temperature, K	Vapor or sublimation pressure, kPa	uncertainty
233.73	1476	5
243.08	1932.3	6.4
253.22	2534.8	8.3
263.22	3247.5	10.6
273.18	4102	13.2

System: ethene + carbon monoxide; phases: Liquid, Gas
Property: Vapor or sublimation pressure, kPa (Liquid); method: Closed cell (Static) method
Mole fraction of carbon monoxide	Temperature, K	Vapor or sublimation pressure, kPa	uncertainty
0	233.73	1476	5
0	243.08	1932.3	6.4
0	253.22	2534.8	8.3
0	263.22	3247.5	10.6
0	273.18	4102	13.2
0.0003	253.22	2543.3	11.8
0.0004	243.08	1943.6	12.2
0.0005	263.22	3263.5	16
0.001	233.73	1510.6	28.5
0.0016	253.22	2587.6	44.1
0.0017	243.08	1984.6	42.6
0.0017	263.22	3298.3	40.5
0.0021	273.18	4163.8	62.6
0.0024	243.08	2008.8	63.6
0.0034	263.22	3350.7	72.1
0.0045	233.73	1615.9	123.2
0.0053	243.08	2096.8	128.7
0.0053	273.18	4252.8	142.9
0.0062	253.22	2736.4	171.6
0.0079	243.08	2174.1	168.1
0.0088	233.73	1729.1	167.5
0.0099	273.18	4391	161.7
0.01	263.22	3539.1	169.5
0.0104	253.22	2866.6	173.9
0.0132	243.08	2325.8	167.4
0.0136	233.73	1864.9	165.2
0.0138	233.73	1859.8	165.3
0.0186	263.22	3786	155
0.0228	253.22	3217.2	165.7
0.023	273.18	4727.7	149.7
0.0236	233.73	2141.4	165.6
0.0237	243.08	2621.7	173.9
0.0371	273.18	5066.5	136.2
0.0393	243.08	3088.5	167.8
0.0401	253.22	3696	164
0.0411	233.73	2614.4	159.4
0.0416	263.22	4362.4	148.2
0.0534	273.18	5413.8	118.8
0.0607	253.22	4251.2	147.2
0.0623	263.22	4872.7	141.5
0.0655	243.08	3796.6	150.3
0.0712	233.73	3405.5	154.2
0.0721	273.18	5753.3	109.4
0.0783	273.18	5860.4	85.5
0.0811	263.22	5314.3	138.4
0.0864	253.22	4827.5	139.1
0.0875	273.18	5970.1	61.4
0.0927	273.18	6011.5	65.7
0.0949	273.18	6020.8	45.2
0.0975	273.18	6029.4	40.2
0.0993	243.08	4592.9	146.6
0.1029	263.22	5802.7	127.2
0.104	233.73	4227.8	144.6
0.1113	253.22	5411.4	130
0.1244	263.22	6230.8	105.4
0.134	243.08	5466.4	140.8
0.1403	253.22	6005.7	119.9
0.1476	233.73	5241.7	135.7
0.1525	263.22	6664.1	86.6
0.1676	253.22	6519.3	107.6
0.1687	263.22	6843.8	55.6
0.1715	243.08	6293.5	127.2
0.1921	263.22	7008	47
0.1928	263.22	7013	47
0.1935	233.73	6237.5	112.2
0.1955	233.73	6273.1	112.5
0.1992	253.22	7043.2	94.7
0.2069	243.08	6993	115
0.212	253.22	7198.2	78
0.229	253.22	7414.1	73.8
0.236	233.73	6865.1	93.5
0.236	243.08	7500.5	96.2
0.246	253.22	7595.8	55.6
0.268	233.73	7374.6	95.7
0.2696	243.08	7921.9	66.1
0.273	253.22	7788.7	49.2
0.2848	243.08	8110.5	119.4
0.302	233.73	7887.2	96.1
0.302	243.08	8286	60
0.311	233.73	8046.9	93.2
0.3227	243.08	8450.5	46.7
0.334	233.73	8372.6	87.8
0.3444	243.08	8559.6	40.2
0.349	233.73	8577.5	75.8
0.3667	233.73	8760.8	63.6
0.387	233.73	8942.4	45.9
0.408	233.73	9013.2	32.9
0.418	233.73	9028.3	29.5

System: ethene + carbon monoxide; phases: Gas, Liquid
Property: Mole fraction of carbon monoxide (Gas); method: Chromatography
Mole fraction of carbon monoxide	Temperature, K	Mole fraction of carbon monoxide	uncertainty
0	233.73	0	
0	243.08	0	
0	253.22	0	
0	263.22	0	
0	273.18	0	
0.0003	253.22	0.0025	0.0025
0.0004	243.08	0.0045	0.0045
0.0005	263.22	0.003	0.003
0.001	233.73	0.0173	0.0144
0.0016	253.22	0.0141	0.0135
0.0017	243.08	0.0198	0.019
0.0017	263.22	0.0095	0.0095
0.0021	273.18	0.0078	0.0078
0.0024	243.08	0.0277	0.0242
0.0034	263.22	0.0191	0.0176
0.0045	233.73	0.0664	0.0526
0.0053	243.08	0.0588	0.0481
0.0053	273.18	0.0185	0.0157
0.0062	253.22	0.0505	0.0386
0.0079	243.08	0.084	0.0482
0.0088	233.73	0.1196	0.0631
0.0099	273.18	0.0334	0.0178
0.01	263.22	0.0506	0.0262
0.0104	253.22	0.0787	0.0386
0.0132	243.08	0.1298	0.0461
0.0136	233.73	0.172	0.0603
0.0138	233.73	0.1752	0.0603
0.0186	263.22	0.0844	0.0216
0.0228	253.22	0.1505	0.0295
0.023	273.18	0.0668	0.0152
0.0236	233.73	0.2577	0.0414
0.0237	243.08	0.203	0.0371
0.0371	273.18	0.0967	0.0119
0.0393	243.08	0.292	0.0261
0.0401	253.22	0.225	0.0223
0.0411	233.73	0.3638	0.0278
0.0416	263.22	0.1615	0.0175
0.0534	273.18	0.1188	0.0087
0.0607	253.22	0.287	0.0158
0.0623	263.22	0.205	0.0128
0.0655	243.08	0.384	0.0158
0.0712	233.73	0.476	0.018
0.0721	273.18	0.133	0.0072
0.0783	273.18	0.1335	0.0061
0.0811	263.22	0.2379	0.0106
0.0864	253.22	0.3369	0.0123
0.0875	273.18	0.1322	0.0063
0.0927	273.18	0.1312	0.0062
0.0949	273.18	0.1296	0.0065
0.0975	273.18	0.128	0.0066
0.0993	243.08	0.4384	0.011
0.1029	263.22	0.263	0.008
0.104	233.73	0.537	0.01
0.1113	253.22	0.375	0.0097
0.1244	263.22	0.273	0.0066
0.134	243.08	0.4766	0.0087
0.1403	253.22	0.397	0.0076
0.1476	233.73	0.567	0.0079
0.1525	263.22	0.275	0.0065
0.1676	253.22	0.407	0.007
0.1687	263.22	0.27	0.0073
0.1715	243.08	0.495	0.0078
0.1921	263.22	0.253	0.0077
0.1928	263.22	0.25	0.0081
0.1935	233.73	0.5905	0.0073
0.1955	233.73	0.594	0.0073
0.1992	253.22	0.4053	0.0072
0.2069	243.08	0.5075	0.0074
0.212	253.22	0.4003	0.0074
0.229	253.22	0.392	0.0081
0.236	233.73	0.5995	0.0069
0.236	243.08	0.5042	0.0074
0.246	253.22	0.3756	0.0084
0.268	233.73	0.599	0.0069
0.2696	243.08	0.4971	0.0077
0.273	253.22	0.356	0.008
0.2848	243.08	0.4878	0.0076
0.302	233.73	0.5926	0.0071
0.302	243.08	0.476	0.0085
0.311	233.73	0.586	0.0077
0.3227	243.08	0.4599	0.0089
0.334	233.73	0.575	0.0076
0.3444	243.08	0.4386	0.0092
0.349	233.73	0.5682	0.0081
0.3667	233.73	0.554	0.0088
0.387	233.73	0.536	0.0083
0.408	233.73	0.5251	0.0081
0.418	233.73	0.5167	0.0089
