Measured thermophysical data. Excess Molar Volumes and Speed of Sound in Bromotrichloromethane + n-Heptane, Dibromomethane + n-Heptane, Bromotrichloromethane + Dibromomethane, and Bromotrichloromethane + Bromochloromethane at Temperatures from (293.15 to 313.15) K
Source: J. Chem. Eng. Data, 2013, 10.1021/je300775u
Compound 1: bromotrichloromethane, CBrCl3, InChI=1S/CBrCl3/c2-1(3,4)5, purity 99%
Compound 2: heptane, C7H16, InChI=1S/C7H16/c1-3-5-7-6-4-2/h3-7H2,1-2H3, purity 99.5%
Compound 3: dibromomethane, CH2Br2, InChI=1S/CH2Br2/c2-1-3/h1H2, purity 99%
Compound 4: bromochloromethane, CH2BrCl, InChI=1S/CH2BrCl/c2-1-3/h1H2, purity 99%

System: bromotrichloromethane; phases: Liquid
Fixed: Pressure, kPa = 101.3
Property: Speed of sound, m/s (Liquid); method: Pulse-echo method
Temperature, K	Speed of sound, m/s	uncertainty
293.15	917.1	1.2
293.15	917.1	1.2
293.15	917.1	1.2
298.15	903.6	1.2
298.15	903.6	1.2
298.15	903.6	1.2
303.15	890.2	1.2
303.15	890.2	1.2
303.15	890.2	1.2
308.15	876.8	1.2
308.15	876.8	1.2
308.15	876.8	1.2
313.15	863.6	1.2
313.15	863.6	1.2
313.15	863.6	1.2

System: bromotrichloromethane; phases: Liquid
Fixed: Pressure, kPa = 101.3
Property: Mass density, kg/m3 (Liquid); method: Vibrating tube method
Temperature, K	Mass density, kg/m3	uncertainty
293.15	2013.06	1.23
298.15	2002.14	1.22
303.15	1991.2	1.2
308.15	1980.24	1.19
313.15	1969.25	1.18

System: heptane; phases: Liquid
Fixed: Pressure, kPa = 101.3
Property: Speed of sound, m/s (Liquid); method: Pulse-echo method
Temperature, K	Speed of sound, m/s	uncertainty
293.15	1152.6	0.9
293.15	1152.2	0.9
298.15	1131	0.9
298.15	1130.9	0.9
303.15	1109.6	0.9
303.15	1109.1	0.9
308.15	1088.2	0.9
308.15	1088.1	0.9
313.15	1067.1	0.9
313.15	1066.9	0.9

System: heptane; phases: Liquid
Fixed: Pressure, kPa = 101.3
Property: Mass density, kg/m3 (Liquid); method: Vibrating tube method
Temperature, K	Mass density, kg/m3	uncertainty
293.15	683.84	0.18
298.15	679.6	0.18
303.15	675.33	0.18
308.15	671.04	0.18
313.15	666.71	0.18

System: dibromomethane; phases: Liquid
Fixed: Pressure, kPa = 101.3
Property: Speed of sound, m/s (Liquid); method: Pulse-echo method
Temperature, K	Speed of sound, m/s	uncertainty
293.15	961.8	1.2
298.15	949.2	1.2
303.15	936.6	1.2
308.15	924	1.2
313.15	911.4	1.2

System: dibromomethane; phases: Liquid
Fixed: Pressure, kPa = 101.3
Property: Mass density, kg/m3 (Liquid); method: Vibrating tube method
Temperature, K	Mass density, kg/m3	uncertainty
293.15	2491.67	1.84
298.15	2478.61	1.82
303.15	2465.53	1.81
308.15	2452.42	1.79
313.15	2439.26	1.77

System: bromochloromethane; phases: Liquid
Fixed: Pressure, kPa = 101.3
Property: Speed of sound, m/s (Liquid); method: Pulse-echo method
Temperature, K	Speed of sound, m/s	uncertainty
293.15	1001.2	1.2
298.15	986.1	1.2
303.15	971	1.2
308.15	955.9	1.2
313.15	940.8	1.2

System: bromochloromethane; phases: Liquid
Fixed: Pressure, kPa = 101.3
Property: Mass density, kg/m3 (Liquid); method: Vibrating tube method
Temperature, K	Mass density, kg/m3	uncertainty
293.15	1933.23	1.13
298.15	1921.71	1.12
303.15	1910.15	1.11
308.15	1898.51	1.09
313.15	1886.82	1.08

System: bromotrichloromethane + heptane; phases: Liquid
Fixed: Pressure, kPa = 101
Property: Speed of sound, m/s (Liquid); method: Pulse-echo method
Temperature, K	Mole fraction of bromotrichloromethane	Speed of sound, m/s	uncertainty
293.15	0	1152.6	0.9
293.15	0.0527	1126.6	0.9
293.15	0.1116	1100.3	0.9
293.15	0.152	1083.8	0.9
293.15	0.2038	1064.1	0.9
293.15	0.2512	1047.4	1
293.15	0.2988	1031.9	1
293.15	0.3556	1015	1
293.15	0.4027	1001.9	1
293.15	0.4603	987.5	1
293.15	0.4989	978.4	1
293.15	0.5537	966.7	1
293.15	0.5961	958.4	1.1
293.15	0.6562	948	1.1
293.15	0.7088	940.1	1.1
293.15	0.7486	934.8	1.1
293.15	0.8001	929	1.1
293.15	0.8456	924.6	1.2
293.15	0.899	920.6	1.2
293.15	0.9521	918	1.2
293.15	1	917.1	1.2
298.15	0	1131	0.9
298.15	0.0527	1105.8	0.9
298.15	0.1116	1080.2	0.9
298.15	0.152	1064.4	0.9
298.15	0.2038	1045.2	0.9
298.15	0.2512	1028.9	1
298.15	0.2988	1013.7	1
298.15	0.3556	997.3	1
298.15	0.4027	984.7	1
298.15	0.4603	970.6	1
298.15	0.4989	962	1
298.15	0.5537	950.6	1
298.15	0.5961	942.8	1.1
298.15	0.6562	932.8	1.1
298.15	0.7088	925.2	1.1
298.15	0.7486	920	1.1
298.15	0.8001	914.5	1.1
298.15	0.8456	910.4	1.1
298.15	0.899	906.7	1.2
298.15	0.9521	904.4	1.2
298.15	1	903.6	1.2
303.15	0	1109.6	0.9
303.15	0.0527	1085.1	0.9
303.15	0.1116	1060.4	0.9
303.15	0.152	1044.9	0.9
303.15	0.2038	1026	0.9
303.15	0.2512	1010.4	0.9
303.15	0.2988	995.8	1
303.15	0.3556	979.7	1
303.15	0.4027	967.5	1
303.15	0.4603	953.9	1
303.15	0.4989	945.5	1
303.15	0.5537	934.7	1
303.15	0.5961	927.1	1.1
303.15	0.6562	917.4	1.1
303.15	0.7088	910.3	1.1
303.15	0.7486	905.3	1.1
303.15	0.8001	900.1	1.1
303.15	0.8456	896.2	1.1
303.15	0.899	892.8	1.2
303.15	0.9521	890.7	1.2
303.15	1	890.2	1.2
308.15	0	1088.2	0.9
308.15	0.0527	1064.5	0.9
308.15	0.1116	1040.5	0.9
308.15	0.152	1025.3	0.9
308.15	0.2038	1007	0.9
308.15	0.2512	992	0.9
308.15	0.2988	977.7	1
308.15	0.3556	962.2	1
308.15	0.4027	950.4	1
308.15	0.4603	937.2	1
308.15	0.4989	929.2	1
308.15	0.5537	918.8	1
308.15	0.5961	911.3	1.1
308.15	0.6562	902.2	1.1
308.15	0.7088	895.4	1.1
308.15	0.7486	890.7	1.1
308.15	0.8001	885.8	1.1
308.15	0.8456	882.2	1.1
308.15	0.899	879	1.2
308.15	0.9521	877.2	1.2
308.15	1	876.8	1.2
313.15	0	1067.1	0.9
313.15	0.0527	1044	0.9
313.15	0.1116	1020.7	0.9
313.15	0.152	1005.8	0.9
313.15	0.2038	988.3	0.9
313.15	0.2512	973.6	0.9
313.15	0.2988	959.8	1
313.15	0.3556	944.8	1
313.15	0.4027	933.3	1
313.15	0.4603	920.7	1
313.15	0.4989	912.9	1
313.15	0.5537	902.9	1
313.15	0.5961	895.9	1
313.15	0.6562	887.1	1.1
313.15	0.7088	880.6	1.1
313.15	0.7486	876.2	1.1
313.15	0.8001	871.5	1.1
313.15	0.8456	868.2	1.1
313.15	0.899	865.3	1.2
313.15	0.9521	863.7	1.2
313.15	1	863.6	1.2

System: bromotrichloromethane + heptane; phases: Liquid
Fixed: Pressure, kPa = 101
Property: Mass density, kg/m3 (Liquid); method: Vibrating tube method
Temperature, K	Mole fraction of bromotrichloromethane	Mass density, kg/m3	uncertainty
293.15	0	683.84	0.18
293.15	0.0527	731.54	0.25
293.15	0.1116	786.88	0.24
293.15	0.152	826.09	0.24
293.15	0.2038	878.08	0.24
293.15	0.2512	927.29	0.25
293.15	0.2988	978.53	0.25
293.15	0.3556	1041.97	0.27
293.15	0.4027	1096.65	0.3
293.15	0.4603	1166.3	0.34
293.15	0.4989	1214.82	0.38
293.15	0.5537	1286.16	0.43
293.15	0.5961	1343.68	0.48
293.15	0.6562	1428.79	0.56
293.15	0.7088	1506.86	0.63
293.15	0.7486	1568.29	0.7
293.15	0.8001	1651.09	0.79
293.15	0.8456	1727.53	0.89
293.15	0.899	1821.57	1.01
293.15	0.9521	1919.55	1.15
293.15	1	2013.06	1.23
298.15	0	679.6	0.18
298.15	0.0527	727.03	0.25
298.15	0.1116	782.07	0.24
298.15	0.152	821.09	0.24
298.15	0.2038	872.78	0.24
298.15	0.2512	921.75	0.25
298.15	0.2988	972.69	0.25
298.15	0.3556	1035.81	0.27
298.15	0.4027	1090.21	0.3
298.15	0.4603	1159.5	0.34
298.15	0.4989	1207.8	0.37
298.15	0.5537	1278.76	0.43
298.15	0.5961	1336	0.48
298.15	0.6562	1420.68	0.55
298.15	0.7088	1498.38	0.63
298.15	0.7486	1559.53	0.69
298.15	0.8001	1641.91	0.78
298.15	0.8456	1717.98	0.88
298.15	0.899	1811.56	1
298.15	0.9521	1909.09	1.14
298.15	1	2002.14	1.22
303.15	0	675.33	0.18
303.15	0.0527	722.5	0.25
303.15	0.1116	777.25	0.24
303.15	0.152	816.04	0.24
303.15	0.2038	867.43	0.24
303.15	0.2512	916.16	0.25
303.15	0.2988	966.84	0.25
303.15	0.3556	1029.61	0.26
303.15	0.4027	1083.75	0.29
303.15	0.4603	1152.66	0.33
303.15	0.4989	1200.71	0.37
303.15	0.5537	1271.34	0.42
303.15	0.5961	1328.29	0.47
303.15	0.6562	1412.54	0.54
303.15	0.7088	1489.86	0.62
303.15	0.7486	1550.71	0.68
303.15	0.8001	1632.7	0.78
303.15	0.8456	1708.38	0.87
303.15	0.899	1801.52	0.99
303.15	0.9521	1898.58	1.13
303.15	1	1991.2	1.2
308.15	0	671.04	0.18
308.15	0.0527	717.94	0.25
308.15	0.1116	772.39	0.24
308.15	0.152	810.96	0.24
308.15	0.2038	862.07	0.24
308.15	0.2512	910.53	0.25
308.15	0.2988	960.93	0.25
308.15	0.3556	1023.38	0.26
308.15	0.4027	1077.23	0.29
308.15	0.4603	1145.8	0.33
308.15	0.4989	1193.57	0.37
308.15	0.5537	1263.88	0.42
308.15	0.5961	1320.53	0.46
308.15	0.6562	1404.37	0.54
308.15	0.7088	1481.3	0.61
308.15	0.7486	1541.85	0.68
308.15	0.8001	1623.44	0.77
308.15	0.8456	1698.77	0.86
308.15	0.899	1791.47	0.98
308.15	0.9521	1888.06	1.11
308.15	1	1980.24	1.19
313.15	0	666.71	0.18
313.15	0.0527	713.35	0.25
313.15	0.1116	767.5	0.24
313.15	0.152	805.84	0.24
313.15	0.2038	856.67	0.24
313.15	0.2512	904.88	0.25
313.15	0.2988	955.01	0.25
313.15	0.3556	1017.12	0.26
313.15	0.4027	1070.68	0.29
313.15	0.4603	1138.9	0.33
313.15	0.4989	1186.41	0.36
313.15	0.5537	1256.37	0.41
313.15	0.5961	1312.74	0.46
313.15	0.6562	1396.16	0.53
313.15	0.7088	1472.71	0.61
313.15	0.7486	1532.96	0.67
313.15	0.8001	1614.16	0.76
313.15	0.8456	1689.12	0.85
313.15	0.899	1781.35	0.97
313.15	0.9521	1877.49	1.1
313.15	1	1969.25	1.18

System: dibromomethane + heptane; phases: Liquid
Fixed: Pressure, kPa = 101
Property: Speed of sound, m/s (Liquid); method: Pulse-echo method
Temperature, K	Mole fraction of dibromomethane	Speed of sound, m/s	uncertainty
293.15	0	1152.2	0.9
293.15	0.0504	1128.1	0.9
293.15	0.1039	1104.9	0.9
293.15	0.1552	1084	0.9
293.15	0.2037	1065.7	0.9
293.15	0.2532	1048.3	1
293.15	0.3019	1032.4	1
293.15	0.354	1016.7	1
293.15	0.4022	1003.5	1
293.15	0.4552	990.1	1
293.15	0.4962	980.6	1
293.15	0.5532	969.3	1
293.15	0.6119	959.2	1.1
293.15	0.6543	953.4	1.1
293.15	0.7032	948	1.1
293.15	0.7514	944.6	1.1
293.15	0.8024	942.9	1.1
293.15	0.8518	943.8	1.2
293.15	0.9004	947.2	1.2
293.15	0.9502	953.1	1.2
293.15	1	961.8	1.2
298.15	0	1130.9	0.9
298.15	0.0504	1107.3	0.9
298.15	0.1039	1084.7	0.9
298.15	0.1552	1064.4	0.9
298.15	0.2037	1046.5	0.9
298.15	0.2532	1029.7	1
298.15	0.3019	1014.2	1
298.15	0.354	999.1	1
298.15	0.4022	986.1	1
298.15	0.4552	973.2	1
298.15	0.4962	964.2	1
298.15	0.5532	953.3	1
298.15	0.6119	943.8	1.1
298.15	0.6543	938.2	1.1
298.15	0.7032	933.3	1.1
298.15	0.7514	930.2	1.1
298.15	0.8024	928.9	1.1
298.15	0.8518	930.2	1.2
298.15	0.9004	933.8	1.2
298.15	0.9502	940.1	1.2
298.15	1	949.2	1.2
303.15	0	1109.1	0.9
303.15	0.0504	1086.4	0.9
303.15	0.1039	1064.4	0.9
303.15	0.1552	1044.8	0.9
303.15	0.2037	1027.3	0.9
303.15	0.2532	1010.9	0.9
303.15	0.3019	995.8	1
303.15	0.354	981.2	1
303.15	0.4022	968.8	1
303.15	0.4552	956.4	1
303.15	0.4962	947.8	1
303.15	0.5532	937.4	1
303.15	0.6119	928.3	1.1
303.15	0.6543	923.1	1.1
303.15	0.7032	918.6	1.1
303.15	0.7514	915.8	1.1
303.15	0.8024	915	1.1
303.15	0.8518	916.5	1.2
303.15	0.9004	920.3	1.2
303.15	0.9502	927.1	1.2
303.15	1	936.6	1.2
308.15	0	1088.1	0.9
308.15	0.0504	1065.7	0.9
308.15	0.1039	1044.3	0.9
308.15	0.1552	1025.2	0.9
308.15	0.2037	1008.2	0.9
308.15	0.2532	992.3	0.9
308.15	0.3019	977.6	1
308.15	0.354	963.5	1
308.15	0.4022	951.5	1
308.15	0.4552	939.6	1
308.15	0.4962	931.2	1
308.15	0.5532	921.4	1
308.15	0.6119	912.9	1.1
308.15	0.6543	908	1.1
308.15	0.7032	903.9	1.1
308.15	0.7514	901.5	1.1
308.15	0.8024	901.1	1.1
308.15	0.8518	902.9	1.2
308.15	0.9004	907.1	1.2
308.15	0.9502	914.1	1.2
308.15	1	924	1.2
313.15	0	1066.9	0.9
313.15	0.0504	1045.1	0.9
313.15	0.1039	1024.3	0.9
313.15	0.1552	1005.6	0.9
313.15	0.2037	989	0.9
313.15	0.2532	973.7	0.9
313.15	0.3019	959.6	1
313.15	0.354	946	1
313.15	0.4022	934.5	1
313.15	0.4552	923	1
313.15	0.4962	914.8	1
313.15	0.5532	905.5	1
313.15	0.6119	897.5	1.1
313.15	0.6543	893	1.1
313.15	0.7032	889.2	1.1
313.15	0.7514	887.2	1.1
313.15	0.8024	887	1.1
313.15	0.8518	889.3	1.1
313.15	0.9004	893.8	1.2
313.15	0.9502	901.1	1.2
313.15	1	911.4	1.2

System: dibromomethane + heptane; phases: Liquid
Fixed: Pressure, kPa = 101
Property: Mass density, kg/m3 (Liquid); method: Vibrating tube method
Temperature, K	Mole fraction of dibromomethane	Mass density, kg/m3	uncertainty
293.15	0	683.84	0.18
293.15	0.0504	727.59	0.24
293.15	0.1039	776.8	0.24
293.15	0.1552	826.84	0.25
293.15	0.2037	877.02	0.25
293.15	0.2532	931.38	0.26
293.15	0.3019	988.09	0.27
293.15	0.354	1052.94	0.3
293.15	0.4022	1117.05	0.34
293.15	0.4552	1192.54	0.39
293.15	0.4962	1254.87	0.44
293.15	0.5532	1347.9	0.51
293.15	0.6119	1452.49	0.6
293.15	0.6543	1534.18	0.69
293.15	0.7032	1635.75	0.79
293.15	0.7514	1744.18	0.91
293.15	0.8024	1869.64	1.06
293.15	0.8518	2003.09	1.24
293.15	0.9004	2147.05	1.44
293.15	0.9502	2310.37	1.69
293.15	1	2491.67	1.84
298.15	0	679.6	0.18
298.15	0.0504	723.09	0.24
298.15	0.1039	772.01	0.24
298.15	0.1552	821.77	0.25
298.15	0.2037	871.66	0.25
298.15	0.2532	925.72	0.26
298.15	0.3019	982.12	0.27
298.15	0.354	1046.61	0.3
298.15	0.4022	1110.37	0.34
298.15	0.4552	1185.46	0.38
298.15	0.4962	1247.47	0.44
298.15	0.5532	1339.98	0.51
298.15	0.6119	1444.09	0.6
298.15	0.6543	1525.37	0.68
298.15	0.7032	1626.46	0.78
298.15	0.7514	1734.39	0.9
298.15	0.8024	1859.25	1.05
298.15	0.8518	1992.14	1.23
298.15	0.9004	2135.43	1.43
298.15	0.9502	2298.08	1.68
298.15	1	2478.61	1.82
303.15	0	675.33	0.18
303.15	0.0504	718.56	0.24
303.15	0.1039	767.19	0.24
303.15	0.1552	816.67	0.25
303.15	0.2037	866.26	0.25
303.15	0.2532	920.03	0.26
303.15	0.3019	976.09	0.27
303.15	0.354	1040.23	0.29
303.15	0.4022	1103.65	0.33
303.15	0.4552	1178.34	0.38
303.15	0.4962	1240.03	0.43
303.15	0.5532	1332.06	0.5
303.15	0.6119	1435.65	0.59
303.15	0.6543	1516.52	0.67
303.15	0.7032	1617.14	0.78
303.15	0.7514	1724.55	0.9
303.15	0.8024	1848.85	1.04
303.15	0.8518	1981.12	1.22
303.15	0.9004	2123.78	1.42
303.15	0.9502	2285.74	1.66
303.15	1	2465.53	1.81
308.15	0	671.04	0.18
308.15	0.0504	714	0.24
308.15	0.1039	762.36	0.24
308.15	0.1552	811.54	0.25
308.15	0.2037	860.84	0.25
308.15	0.2532	914.3	0.26
308.15	0.3019	970.04	0.27
308.15	0.354	1033.82	0.29
308.15	0.4022	1096.88	0.33
308.15	0.4552	1171.15	0.38
308.15	0.4962	1232.54	0.43
308.15	0.5532	1324.08	0.5
308.15	0.6119	1427.16	0.58
308.15	0.6543	1507.63	0.67
308.15	0.7032	1607.76	0.77
308.15	0.7514	1714.66	0.89
308.15	0.8024	1838.4	1.03
308.15	0.8518	1970.07	1.2
308.15	0.9004	2112.21	1.4
308.15	0.9502	2273.36	1.65
308.15	1	2452.42	1.79
313.15	0	666.71	0.18
313.15	0.0504	709.41	0.25
313.15	0.1039	757.48	0.24
313.15	0.1552	806.36	0.25
313.15	0.2037	855.37	0.25
313.15	0.2532	908.53	0.26
313.15	0.3019	963.95	0.27
313.15	0.354	1027.38	0.29
313.15	0.4022	1090.09	0.33
313.15	0.4552	1163.95	0.37
313.15	0.4962	1225	0.42
313.15	0.5532	1316.09	0.49
313.15	0.6119	1418.62	0.58
313.15	0.6543	1498.69	0.66
313.15	0.7032	1598.32	0.76
313.15	0.7514	1704.72	0.88
313.15	0.8024	1827.87	1.02
313.15	0.8518	1958.96	1.19
313.15	0.9004	2100.38	1.39
313.15	0.9502	2260.95	1.63
313.15	1	2439.26	1.77

System: dibromomethane + bromotrichloromethane; phases: Liquid
Fixed: Pressure, kPa = 101
Property: Speed of sound, m/s (Liquid); method: Pulse-echo method
Temperature, K	Mole fraction of bromotrichloromethane	Speed of sound, m/s	uncertainty
293.15	0	961.8	1.2
293.15	0.0506	957	1.2
293.15	0.0993	953	1.2
293.15	0.1491	948.9	1.2
293.15	0.1991	945.3	1.2
293.15	0.2473	942.1	1.2
293.15	0.2986	939.1	1.2
293.15	0.3465	936.3	1.2
293.15	0.3979	933.6	1.2
293.15	0.4468	931.3	1.2
293.15	0.4967	929.1	1.2
293.15	0.5462	927.2	1.2
293.15	0.5975	925.3	1.2
293.15	0.6479	923.7	1.2
293.15	0.6947	922.4	1.2
293.15	0.7469	921	1.2
293.15	0.7959	919.9	1.2
293.15	0.8494	918.8	1.2
293.15	0.898	918	1.2
293.15	0.9469	917.4	1.2
293.15	1	917.1	1.2
298.15	0	949.2	1.2
298.15	0.0506	944.4	1.2
298.15	0.0993	940.3	1.2
298.15	0.1491	936.2	1.2
298.15	0.1991	932.6	1.2
298.15	0.2473	929.3	1.2
298.15	0.2986	926.2	1.2
298.15	0.3465	923.3	1.2
298.15	0.3979	920.7	1.2
298.15	0.4468	918.3	1.2
298.15	0.4967	916.1	1.2
298.15	0.5462	914.1	1.2
298.15	0.5975	912.2	1.2
298.15	0.6479	910.6	1.2
298.15	0.6947	909.2	1.2
298.15	0.7469	907.7	1.2
298.15	0.7959	906.6	1.2
298.15	0.8494	905.5	1.2
298.15	0.898	904.6	1.2
298.15	0.9469	904	1.2
298.15	1	903.6	1.2
303.15	0	936.6	1.2
303.15	0.0506	931.7	1.2
303.15	0.0993	927.6	1.2
303.15	0.1491	923.4	1.2
303.15	0.1991	919.8	1.2
303.15	0.2473	916.5	1.2
303.15	0.2986	913.2	1.2
303.15	0.3465	910.5	1.2
303.15	0.3979	907.7	1.2
303.15	0.4468	905.3	1.2
303.15	0.4967	903.1	1.2
303.15	0.5462	901.1	1.2
303.15	0.5975	899.1	1.2
303.15	0.6479	897.4	1.2
303.15	0.6947	896	1.2
303.15	0.7469	894.5	1.2
303.15	0.7959	893.4	1.2
303.15	0.8494	892.2	1.2
303.15	0.898	891.3	1.2
303.15	0.9469	890.6	1.2
303.15	1	890.2	1.2
308.15	0	924	1.2
308.15	0.0506	919.1	1.2
308.15	0.0993	914.8	1.2
308.15	0.1491	910.7	1.2
308.15	0.1991	907.1	1.2
308.15	0.2473	903.7	1.2
308.15	0.2986	900.4	1.2
308.15	0.3465	897.6	1.2
308.15	0.3979	894.8	1.2
308.15	0.4468	892.4	1.2
308.15	0.4967	890.1	1.2
308.15	0.5462	888	1.2
308.15	0.5975	886.1	1.2
308.15	0.6479	884.4	1.2
308.15	0.6947	882.8	1.2
308.15	0.7469	881.4	1.2
308.15	0.7959	880.2	1.2
308.15	0.8494	879	1.2
308.15	0.898	878.1	1.2
308.15	0.9469	877.3	1.2
308.15	1	876.8	1.2
313.15	0	911.4	1.2
313.15	0.0506	906.4	1.2
313.15	0.0993	902.2	1.2
313.15	0.1491	898.1	1.2
313.15	0.1991	894.4	1.2
313.15	0.2473	891	1.2
313.15	0.2986	887.7	1.2
313.15	0.3465	884.8	1.2
313.15	0.3979	882	1.2
313.15	0.4468	879.5	1.2
313.15	0.4967	877.1	1.2
313.15	0.5462	875.1	1.2
313.15	0.5975	873.1	1.2
313.15	0.6479	871.4	1.2
313.15	0.6947	869.9	1.2
313.15	0.7469	868.4	1.2
313.15	0.7959	867.1	1.2
313.15	0.8494	865.9	1.2
313.15	0.898	865	1.2
313.15	0.9469	864.1	1.2
313.15	1	863.6	1.2

System: dibromomethane + bromotrichloromethane; phases: Liquid
Fixed: Pressure, kPa = 101
Property: Mass density, kg/m3 (Liquid); method: Vibrating tube method
Temperature, K	Mole fraction of bromotrichloromethane	Mass density, kg/m3	uncertainty
293.15	0	2491.67	1.84
293.15	0.0506	2455.57	1.8
293.15	0.0993	2424.17	1.75
293.15	0.1491	2392.98	1.71
293.15	0.1991	2363.17	1.67
293.15	0.2473	2335.59	1.64
293.15	0.2986	2307.34	1.6
293.15	0.3465	2281.89	1.56
293.15	0.3979	2255.64	1.53
293.15	0.4468	2231.41	1.5
293.15	0.4967	2207.74	1.47
293.15	0.5462	2185.38	1.44
293.15	0.5975	2162.89	1.41
293.15	0.6479	2141.49	1.39
293.15	0.6947	2122.35	1.36
293.15	0.7469	2101.9	1.34
293.15	0.7959	2083.33	1.31
293.15	0.8494	2063.55	1.29
293.15	0.898	2046.2	1.27
293.15	0.9469	2029.71	1.25
293.15	1	2013.06	1.23
298.15	0	2478.61	1.82
298.15	0.0506	2442.67	1.78
298.15	0.0993	2411.4	1.74
298.15	0.1491	2380.34	1.69
298.15	0.1991	2350.66	1.66
298.15	0.2473	2323.21	1.62
298.15	0.2986	2295.08	1.58
298.15	0.3465	2269.75	1.55
298.15	0.3979	2243.64	1.52
298.15	0.4468	2219.49	1.48
298.15	0.4967	2195.91	1.45
298.15	0.5462	2173.66	1.43
298.15	0.5975	2151.29	1.4
298.15	0.6479	2130.01	1.37
298.15	0.6947	2110.96	1.35
298.15	0.7469	2090.59	1.32
298.15	0.7959	2072.08	1.3
298.15	0.8494	2052.39	1.28
298.15	0.898	2035.13	1.26
298.15	0.9469	2018.65	1.24
298.15	1	2002.14	1.22
303.15	0	2465.53	1.81
303.15	0.0506	2429.69	1.76
303.15	0.0993	2398.59	1.72
303.15	0.1491	2367.61	1.68
303.15	0.1991	2338.13	1.64
303.15	0.2473	2310.8	1.6
303.15	0.2986	2282.77	1.57
303.15	0.3465	2257.58	1.53
303.15	0.3979	2231.57	1.5
303.15	0.4468	2207.52	1.47
303.15	0.4967	2184.02	1.44
303.15	0.5462	2161.9	1.41
303.15	0.5975	2139.5	1.38
303.15	0.6479	2118.46	1.36
303.15	0.6947	2099.49	1.33
303.15	0.7469	2079.21	1.31
303.15	0.7959	2060.79	1.29
303.15	0.8494	2041.21	1.26
303.15	0.898	2024.04	1.24
303.15	0.9469	2007.69	1.22
303.15	1	1991.2	1.2
308.15	0	2452.42	1.79
308.15	0.0506	2416.74	1.74
308.15	0.0993	2385.75	1.7
308.15	0.1491	2354.94	1.66
308.15	0.1991	2325.48	1.62
308.15	0.2473	2298.33	1.59
308.15	0.2986	2270.45	1.55
308.15	0.3465	2245.37	1.52
308.15	0.3979	2219.48	1.48
308.15	0.4468	2195.5	1.45
308.15	0.4967	2172.16	1.42
308.15	0.5462	2150.12	1.4
308.15	0.5975	2128	1.37
308.15	0.6479	2106.9	1.34
308.15	0.6947	2087.96	1.32
308.15	0.7469	2067.83	1.3
308.15	0.7959	2049.47	1.27
308.15	0.8494	2030.02	1.25
308.15	0.898	2012.93	1.23
308.15	0.9469	1996.65	1.21
308.15	1	1980.24	1.19
313.15	0	2439.26	1.77
313.15	0.0506	2403.73	1.73
313.15	0.0993	2372.87	1.69
313.15	0.1491	2342.21	1.64
313.15	0.1991	2312.93	1.61
313.15	0.2473	2285.84	1.57
313.15	0.2986	2258.08	1.53
313.15	0.3465	2233.11	1.5
313.15	0.3979	2207.34	1.47
313.15	0.4468	2183.5	1.44
313.15	0.4967	2160.25	1.41
313.15	0.5462	2138.31	1.38
313.15	0.5975	2116.3	1.36
313.15	0.6479	2095.25	1.33
313.15	0.6947	2076.47	1.31
313.15	0.7469	2056.41	1.28
313.15	0.7959	2038.17	1.26
313.15	0.8494	2018.79	1.24
313.15	0.898	2001.78	1.22
313.15	0.9469	1985.57	1.2
313.15	1	1969.25	1.18

System: bromochloromethane + bromotrichloromethane; phases: Liquid
Fixed: Pressure, kPa = 101
Property: Speed of sound, m/s (Liquid); method: Pulse-echo method
Temperature, K	Mole fraction of bromotrichloromethane	Speed of sound, m/s	uncertainty
293.15	0	1001.2	1.2
293.15	0.052	992.8	1.2
293.15	0.103	985.2	1.2
293.15	0.1538	978.4	1.2
293.15	0.2031	972.2	1.2
293.15	0.2551	966.1	1.2
293.15	0.305	960.7	1.2
293.15	0.3522	956.4	1.2
293.15	0.4063	950.8	1.2
293.15	0.4553	946.7	1.2
293.15	0.5058	942.7	1.2
293.15	0.5665	938.2	1.2
293.15	0.6027	935.8	1.2
293.15	0.6567	932.3	1.2
293.15	0.7046	929.6	1.2
293.15	0.7543	926.9	1.2
293.15	0.8025	924.5	1.2
293.15	0.8516	922.3	1.2
293.15	0.8996	920.3	1.2
293.15	0.9228	919.8	1.2
293.15	1	917.1	1.2
298.15	0	986.1	1.2
298.15	0.052	977.9	1.2
298.15	0.103	970.4	1.2
298.15	0.1538	963.6	1.2
298.15	0.2031	957.5	1.2
298.15	0.2551	951.6	1.2
298.15	0.305	946.3	1.2
298.15	0.3522	942.1	1.2
298.15	0.4063	936.7	1.2
298.15	0.4553	932.6	1.2
298.15	0.5058	928.6	1.2
298.15	0.5665	924.2	1.2
298.15	0.6027	921.9	1.2
298.15	0.6567	918.5	1.2
298.15	0.7046	915.8	1.2
298.15	0.7543	913.2	1.2
298.15	0.8025	910.8	1.2
298.15	0.8516	908.7	1.2
298.15	0.8996	906.8	1.2
298.15	0.9228	906.3	1.2
298.15	1	903.6	1.2
303.15	0	971	1.2
303.15	0.052	962.9	1.2
303.15	0.103	955.5	1.2
303.15	0.1538	948.9	1.2
303.15	0.2031	942.8	1.2
303.15	0.2551	937	1.2
303.15	0.305	931.8	1.2
303.15	0.3522	927.8	1.2
303.15	0.4063	922.4	1.2
303.15	0.4553	918.4	1.2
303.15	0.5058	914.5	1.2
303.15	0.5665	910.3	1.2
303.15	0.6027	908	1.2
303.15	0.6567	904.7	1.2
303.15	0.7046	902	1.2
303.15	0.7543	899.5	1.2
303.15	0.8025	897.2	1.2
303.15	0.8516	895.1	1.2
303.15	0.8996	893.3	1.2
303.15	0.9228	892.9	1.2
303.15	1	890.2	1.2
308.15	0	955.9	1.2
308.15	0.052	947.9	1.2
308.15	0.103	940.7	1.2
308.15	0.1538	934.2	1.2
308.15	0.2031	928.1	1.2
308.15	0.2551	922.6	1.2
308.15	0.305	917.3	1.2
308.15	0.3522	913.5	1.2
308.15	0.4063	908.2	1.2
308.15	0.4553	904.2	1.2
308.15	0.5058	900.5	1.2
308.15	0.5665	896.4	1.2
308.15	0.6027	894.1	1.2
308.15	0.6567	891	1.2
308.15	0.7046	888.3	1.2
308.15	0.7543	885.9	1.2
308.15	0.8025	883.7	1.2
308.15	0.8516	881.6	1.2
308.15	0.8996	879.9	1.2
308.15	0.9228	879.4	1.2
308.15	1	876.8	1.2
313.15	0	940.8	1.2
313.15	0.052	933	1.2
313.15	0.103	925.9	1.2
313.15	0.1538	919.1	1.2
313.15	0.2031	913.6	1.2
313.15	0.2551	908.1	1.2
313.15	0.305	903	1.2
313.15	0.3522	898.9	1.2
313.15	0.4063	894	1.2
313.15	0.4553	890.3	1.2
313.15	0.5058	886.5	1.2
313.15	0.5665	882.6	1.2
313.15	0.6027	880.3	1.2
313.15	0.6567	877.2	1.2
313.15	0.7046	874.7	1.2
313.15	0.7543	872.3	1.2
313.15	0.8025	870.2	1.2
313.15	0.8516	868.3	1.2
313.15	0.8996	866.5	1.2
313.15	0.9228	865.9	1.2
313.15	1	863.6	1.2

System: bromochloromethane + bromotrichloromethane; phases: Liquid
Fixed: Pressure, kPa = 101
Property: Mass density, kg/m3 (Liquid); method: Vibrating tube method
Temperature, K	Mole fraction of bromotrichloromethane	Mass density, kg/m3	uncertainty
293.15	0	1933.23	1.13
293.15	0.052	1938.2	1.14
293.15	0.103	1942.79	1.15
293.15	0.1538	1947.34	1.15
293.15	0.2031	1951.55	1.16
293.15	0.2551	1956.05	1.16
293.15	0.305	1960.19	1.17
293.15	0.3522	1963.98	1.17
293.15	0.4063	1968.54	1.18
293.15	0.4553	1972.41	1.18
293.15	0.5058	1976.4	1.18
293.15	0.5665	1981.04	1.19
293.15	0.6027	1983.79	1.19
293.15	0.6567	1987.81	1.2
293.15	0.7046	1991.31	1.2
293.15	0.7543	1994.91	1.21
293.15	0.8025	1998.2	1.21
293.15	0.8516	2001.94	1.21
293.15	0.8996	2005.35	1.22
293.15	0.9228	2007.14	1.22
293.15	1	2013.06	1.23
298.15	0	1921.71	1.12
298.15	0.052	1926.72	1.13
298.15	0.103	1931.34	1.13
298.15	0.1538	1935.88	1.14
298.15	0.2031	1940.16	1.14
298.15	0.2551	1944.71	1.15
298.15	0.305	1948.82	1.15
298.15	0.3522	1952.66	1.16
298.15	0.4063	1957.3	1.16
298.15	0.4553	1961.2	1.17
298.15	0.5058	1965.21	1.17
298.15	0.5665	1969.89	1.18
298.15	0.6027	1972.67	1.18
298.15	0.6567	1976.74	1.19
298.15	0.7046	1980.21	1.19
298.15	0.7543	1983.88	1.19
298.15	0.8025	1987.2	1.2
298.15	0.8516	1990.96	1.2
298.15	0.8996	1994.38	1.21
298.15	0.9228	1996.17	1.21
298.15	1	2002.14	1.22
303.15	0	1910.15	1.11
303.15	0.052	1915.19	1.11
303.15	0.103	1919.85	1.12
303.15	0.1538	1924.46	1.12
303.15	0.2031	1928.76	1.13
303.15	0.2551	1933.31	1.13
303.15	0.305	1937.49	1.14
303.15	0.3522	1941.28	1.14
303.15	0.4063	1946.02	1.15
303.15	0.4553	1949.96	1.15
303.15	0.5058	1954	1.16
303.15	0.5665	1958.74	1.16
303.15	0.6027	1961.52	1.17
303.15	0.6567	1965.63	1.17
303.15	0.7046	1969.15	1.18
303.15	0.7543	1972.83	1.18
303.15	0.8025	1976.2	1.18
303.15	0.8516	1979.93	1.19
303.15	0.8996	1983.39	1.19
303.15	0.9228	1985.15	1.2
303.15	1	1991.2	1.2
308.15	0	1898.51	1.09
308.15	0.052	1903.6	1.1
308.15	0.103	1908.3	1.11
308.15	0.1538	1912.93	1.11
308.15	0.2031	1917.27	1.12
308.15	0.2551	1921.86	1.12
308.15	0.305	1926.18	1.13
308.15	0.3522	1929.99	1.13
308.15	0.4063	1934.68	1.14
308.15	0.4553	1938.65	1.14
308.15	0.5058	1942.75	1.15
308.15	0.5665	1947.52	1.15
308.15	0.6027	1950.31	1.15
308.15	0.6567	1954.45	1.16
308.15	0.7046	1958.12	1.16
308.15	0.7543	1961.75	1.17
308.15	0.8025	1965.14	1.17
308.15	0.8516	1968.92	1.18
308.15	0.8996	1972.42	1.18
308.15	0.9228	1974.22	1.18
308.15	1	1980.24	1.19
313.15	0	1886.82	1.08
313.15	0.052	1891.94	1.09
313.15	0.103	1896.67	1.09
313.15	0.1538	1901.44	1.1
313.15	0.2031	1905.74	1.1
313.15	0.2551	1910.36	1.11
313.15	0.305	1914.72	1.11
313.15	0.3522	1918.58	1.12
313.15	0.4063	1923.3	1.12
313.15	0.4553	1927.29	1.13
313.15	0.5058	1931.42	1.13
313.15	0.5665	1936.26	1.14
313.15	0.6027	1939.1	1.14
313.15	0.6567	1943.26	1.15
313.15	0.7046	1946.95	1.15
313.15	0.7543	1950.61	1.15
313.15	0.8025	1954.05	1.16
313.15	0.8516	1957.85	1.16
313.15	0.8996	1961.38	1.17
313.15	0.9228	1963.19	1.17
313.15	1	1969.25	1.18
