Measured thermophysical data. An Experimental Investigation of the Solubility of CO2 in (N,N-Dimethylmethanamide + Water)
Source: J. Chem. Eng. Data, 2012, 10.1021/je300105q
Compound 1: carbon dioxide, CO2, InChI=1S/CO2/c2-1-3, purity 99.99%
Compound 2: dimethylformamide, C3H7NO, InChI=1S/C3H7NO/c1-4(2)3-5/h3H,1-2H3, purity 99.9%
Compound 3: water, H2O, InChI=1S/H2O/h1H2, purity 99.9%

System: dimethylformamide + carbon dioxide; phases: Liquid, Gas
Property: Vapor or sublimation pressure, kPa (Liquid); method: Closed cell (Static) method
Temperature, K	Molality, mol/kg of carbon dioxide	Vapor or sublimation pressure, kPa	uncertainty
313.15	10.9	4190	50
313.75	0.216	141	28
313.75	1.65	953	30
313.75	3.34	1780	20
313.75	5.27	2650	30
313.75	13.9	4860	50
313.75	31	6590	50
313.8	17.8	5440	50
313.8	23.3	6050	50
313.85	7.21	3310	30
354.35	3.59	3420	30
354.35	5.04	4520	50
354.35	8.31	6470	60
354.35	14.8	9130	60
354.4	2.4	2370	30
354.4	6.51	5450	60
354.4	12	8090	50
354.45	0.959	1020	20
354.45	9.96	7300	60
394.95	0.578	956	30
394.95	1.93	3030	40
394.95	3.86	5420	60
394.95	7.7	9170	80
395	1.47	2280	40
395	2.77	4140	50
395	3.49	4990	60
395	4.58	6230	60
395.1	5.73	7300	60
395.15	6.66	8220	60

System: dimethylformamide + carbon dioxide + water; phases: Liquid, Gas
Property: Vapor or sublimation pressure, kPa (Liquid); method: Closed cell (Static) method
Temperature, K	Molality, mol/kg of carbon dioxide	Solvent: Mole fraction of dimethylformamide	Vapor or sublimation pressure, kPa	uncertainty
313.65	3.2	0.8992	1900	30
313.65	6.79	0.7468	4020	40
313.65	11	0.8992	4620	50
313.7	0.254	0.2521	688	29
313.7	0.407	0.1004	1530	30
313.7	0.863	0.2521	2320	30
313.7	1.87	0.8992	1200	20
313.7	2.88	0.2521	8990	70
313.7	7.38	0.5029	6360	50
313.75	0.163	0.05	639	29
313.75	0.291	0.05	1170	20
313.75	0.303	0.1004	1120	30
313.75	0.444	0.05	1820	30
313.75	0.622	0.1004	2420	40
313.75	0.95	0.05	4430	70
313.75	1.01	0.7468	862	31
313.75	1.09	0.05	5530	170
313.75	1.31	0.05	7210	270
313.75	1.43	0.05	9150	330
313.75	1.52	0.1004	7710	200
313.75	1.59	0.1004	8920	160
313.75	2.18	0.2521	6090	60
313.75	2.32	0.5029	2830	30
313.75	2.6	0.2521	7370	60
313.75	3.09	0.5029	3570	200
313.75	3.78	0.7468	2650	30
313.75	5.2	0.8992	2890	30
313.75	7.2	0.8992	3600	30
313.75	10.4	0.8992	4470	50
313.75	12.2	0.5029	7820	50
313.75	17.3	0.8992	5710	50
313.75	22	0.8992	6230	50
313.75	27.2	0.8992	6630	50
313.75	28.5	0.7468	7210	4560
313.8	0.173	0.1004	632	29
313.8	0.688	0.05	3080	40
313.8	1.03	0.1004	4370	120
313.8	1.08	0.2521	2910	50
313.8	1.25	0.05	6810	160
313.8	1.31	0.1004	6040	140
313.8	5.04	0.5029	5090	50
313.8	5.52	0.7468	3500	30
313.8	6.4	0.5029	5890	60
313.8	9.76	0.5029	7240	50
313.8	10.4	0.7468	5130	50
313.8	14	0.7468	5850	50
313.8	15.7	0.7468	6130	50
313.8	23	0.7468	6870	50
313.85	0.662	0.5029	915	29
313.9	0.886	0.1004	3700	50
313.95	0.547	0.2521	1470	30
313.95	1.58	0.2521	4310	90
314	0.824	0.05	3740	60
314	1.05	0.05	5150	170
314.05	1.89	0.2521	5190	70
354.15	5.79	0.8992	5400	50
354.25	1.75	0.2521	6400	50
354.3	0.456	0.5029	965	29
354.3	2.58	0.5029	4720	50
354.3	5.91	0.5029	8790	70
354.35	0.122	0.1004	719	30
354.35	0.131	0.05	907	32
354.35	0.203	0.05	1380	40
354.35	0.208	0.2521	796	29
354.35	0.22	0.1004	1270	40
354.35	0.381	0.1004	2200	50
354.35	0.456	0.2521	1690	40
354.35	0.496	0.1004	2880	50
354.35	0.624	0.1004	3690	50
354.35	0.759	0.05	5640	80
354.35	0.763	0.1004	4580	70
354.35	0.812	0.2521	2970	50
354.35	0.976	0.2521	3560	60
354.35	0.982	0.05	7750	130
354.35	0.984	0.1004	6110	80
354.35	1.15	0.1004	7400	190
354.35	1.155	0.05	9800	190
354.35	1.26	0.1004	8410	220
354.35	1.28	0.1004	8600	210
354.35	1.28	0.5029	2510	40
354.35	1.38	0.1004	9520	120
354.35	1.4	0.2521	5110	80
354.35	1.56	0.2521	5690	50
354.35	2.12	0.2521	7720	60
354.35	2.38	0.2521	8730	70
354.35	2.61	0.2521	9580	70
354.35	3.26	0.8992	3440	30
354.35	4.2	0.7468	4850	80
354.35	4.21	0.5029	6780	70
354.35	4.38	0.8992	4400	50
354.35	4.84	0.5029	7820	70
354.4	0.36	0.05	2460	50
354.4	0.46	0.05	3220	50
354.4	0.596	0.05	4250	60
354.4	0.85	0.05	6470	90
354.4	0.94	0.8992	1090	30
354.4	1.81	0.7468	2370	30
354.4	1.86	0.5029	3530	40
354.4	2.27	0.8992	2570	30
354.4	3.45	0.7468	4140	50
354.4	3.63	0.5029	6250	50
354.4	6.53	0.7468	6720	70
354.4	6.59	0.5029	9730	120
354.4	7.64	0.8992	6570	60
354.4	8.18	0.7468	7790	60
354.4	9.81	0.8992	7710	60
354.4	11	0.7468	9300	60
354.4	11.3	0.8992	8320	60
354.4	13.4	0.8992	9110	60
354.45	4.3	0.7468	4920	80
354.45	9.61	0.7468	8610	60
354.5	0.909	0.7468	1280	20
394.9	0.117	0.1004	968	31
394.9	0.189	0.1004	1440	30
394.9	0.946	0.7468	1880	30
394.9	1.38	0.5029	3520	60
394.9	2.32	0.5029	5590	60
394.9	4.44	0.7468	7130	80
394.95	0.207	0.2521	1037	29
394.95	0.303	0.1004	2220	30
394.95	0.367	0.5029	1090	20
394.95	0.377	0.2521	1750	30
394.95	0.418	0.1004	2990	40
394.95	0.609	0.2521	2700	30
394.95	0.709	0.05	6440	90
394.95	0.852	0.05	7900	100
394.95	1.25	0.1004	9020	130
394.95	1.32	0.2521	5630	100
394.95	1.32	0.8992	2210	40
394.95	1.78	0.5029	4320	60
394.95	2.02	0.7468	3720	40
394.95	2.71	0.5029	6380	60
394.95	2.87	0.7468	5010	70
394.95	4.83	0.8992	6830	60
394.95	5.75	0.7468	8650	70
394.95	6.54	0.8992	8490	80
394.95	7.25	0.8992	9210	80
395	0.105	0.05	1050	30
395	0.185	0.05	1660	30
395	0.289	0.05	2580	40
395	0.4	0.05	3550	40
395	0.445	0.7468	952	29
395	0.519	0.05	4630	70
395	0.598	0.5029	1670	30
395	0.628	0.05	5670	70
395	0.654	0.1004	4650	60
395	0.806	0.2521	3500	40
395	0.887	0.1004	6370	70
395	0.992	0.05	9480	120
395	1.04	0.2521	4470	120
395	1.14	0.1004	8130	130
395	1.35	0.1004	10200	100
395	1.59	0.2521	6700	70
395	1.63	0.7468	3060	40
395	1.78	0.2521	7370	50
395	2.02	0.2521	8390	60
395	2.28	0.2521	9410	60
395	2.79	0.8992	4400	50
395	3.31	0.5029	7510	60
395	3.57	0.7468	6000	50
395	3.87	0.5029	8520	90
395	4.5	0.8992	6450	70
395	4.7	0.7468	7470	100
395	5.59	0.8992	7650	60
395	6.4	0.7468	9360	80
395.05	0.56	0.8992	1010	20
395.05	4.46	0.5029	9520	80
395.2	3.57	0.8992	5410	50
395.25	2.13	0.8992	3500	40
