Measured thermophysical data. Evolution of the Liquid Vapor Equilibrium Properties of Several Unsymmetrical Amines: Determination of Their Binary Isobaric Diagrams and Applications to the Distillation
Source: J. Chem. Eng. Data, 2013, 10.1021/je3009649
Compound 1: water, H2O, InChI=1S/H2O/h1H2, purity 99.8%
Compound 2: pyrrolidine, C4H9N, InChI=1S/C4H9N/c1-2-4-5-3-1/h5H,1-4H2, purity 99%
Compound 3: 1-butanamine, C4H11N, InChI=1S/C4H11N/c1-2-3-4-5/h2-5H2,1H3, purity 99.5%
Compound 4: diethylamine, C4H11N, InChI=1S/C4H11N/c1-3-5-4-2/h5H,3-4H2,1-2H3, purity 99.5%

System: pyrrolidine; phases: Liquid, Gas
Property: Vapor or sublimation pressure, kPa (Liquid); method: Ebulliometric method (Recirculating still)
Temperature, K	Vapor or sublimation pressure, kPa	uncertainty
359.4	101.33	0.77
354.9	86.66	0.71
347.5	66.66	0.61
337.6	46.66	0.54
329	33.33	0.49
323.4	26.66	0.46
316.9	19.99	0.45

System: 1-butanamine; phases: Liquid, Gas
Property: Vapor or sublimation pressure, kPa (Liquid); method: Ebulliometric method (Recirculating still)
Temperature, K	Vapor or sublimation pressure, kPa	uncertainty
350	101.33	0.72
345.1	86.66	0.7
337.9	66.66	0.66
334.8	59.99	0.57
328.2	46.66	0.54
319.9	33.33	0.5
314.7	26.66	0.46
308.3	19.99	0.45

System: diethylamine; phases: Liquid, Gas
Property: Vapor or sublimation pressure, kPa (Liquid); method: Ebulliometric method (Recirculating still)
Temperature, K	Vapor or sublimation pressure, kPa	uncertainty
328.3	101.33	0.78
323.9	86.66	0.72
316.7	66.66	0.63
307.6	46.66	0.56
299.5	33.33	0.51
294.7	26.66	0.49

System: pyrrolidine + water; phases: Gas, Liquid
Fixed: Pressure, kPa = 101.33
Property: Mole fraction of pyrrolidine (Gas); method: Titration method
Mole fraction of pyrrolidine	Mole fraction of pyrrolidine	uncertainty
0	0	
0.006	0.066	0.038
0.011	0.116	0.044
0.025	0.183	0.015
0.055	0.219	0.01
0.091	0.247	0.009
0.138	0.269	0.009
0.138	0.271	0.009
0.196	0.306	0.009
0.268	0.357	0.01
0.363	0.453	0.01
0.481	0.575	0.01
0.645	0.687	0.01
1	1	

System: pyrrolidine + water; phases: Gas, Liquid
Fixed: Pressure, kPa = 101.33
Property: Boiling temperature at pressure P, K (Gas); method: Ebulliometric method (Recirculating still)
Mole fraction of pyrrolidine	Boiling temperature at pressure P, K	uncertainty
0	373	0.2
0.006	371.8	1
0.011	370.5	1
0.025	368.8	0.4
0.055	367.6	0.3
0.091	366.8	0.3
0.138	366	0.2
0.138	366.1	0.2
0.196	365.4	0.2
0.268	364.6	0.2
0.363	363.5	0.2
0.481	362.3	0.2
0.645	360.8	0.2
1	359.4	0.2

System: 1-butanamine + water; phases: Gas, Liquid
Fixed: Pressure, kPa = 101.33
Property: Mole fraction of 1-butanamine (Gas); method: Titration method
Mole fraction of 1-butanamine	Mole fraction of 1-butanamine	uncertainty
0	0	
0.005	0.094	0.065
0.006	0.181	0.054
0.009	0.292	0.079
0.024	0.34	0.018
0.048	0.399	0.01
0.085	0.402	0.008
0.13	0.423	0.009
0.187	0.451	0.009
0.259	0.494	0.009
0.352	0.557	0.009
0.467	0.659	0.009
0.665	0.78	0.009
0.797	0.864	0.009
0.951	0.999	0.001
1	1	

System: 1-butanamine + water; phases: Gas, Liquid
Fixed: Pressure, kPa = 101.33
Property: Boiling temperature at pressure P, K (Gas); method: Ebulliometric method (Recirculating still)
Mole fraction of 1-butanamine	Boiling temperature at pressure P, K	uncertainty
0	373	0.2
0.005	371	2.6
0.006	367.8	2.3
0.009	365	2.9
0.024	361	0.8
0.048	360	0.3
0.085	359.5	0.2
0.13	359	0.2
0.187	358.2	0.2
0.259	357.1	0.2
0.352	355.6	0.2
0.467	353.8	0.2
0.665	351.6	0.2
0.797	350.4	0.2
0.951	349.9	0.2
1	350	0.2

System: diethylamine + water; phases: Gas, Liquid
Fixed: Pressure, kPa = 101.33
Property: Mole fraction of diethylamine (Gas); method: Titration method
Mole fraction of diethylamine	Mole fraction of diethylamine	uncertainty
0	0	
0.003	0.261	0.07
0.007	0.455	0.199
0.017	0.588	0.033
0.043	0.67	0.012
0.074	0.7	0.004
0.116	0.704	0.002
0.171	0.708	0.003
0.239	0.723	0.003
0.331	0.747	0.003
0.447	0.774	0.003
0.629	0.837	0.003
0.758	0.893	0.003
1	1	

System: diethylamine + water; phases: Gas, Liquid
Fixed: Pressure, kPa = 101.33
Property: Boiling temperature at pressure P, K (Gas); method: Ebulliometric method (Recirculating still)
Mole fraction of diethylamine	Boiling temperature at pressure P, K	uncertainty
0	373	0.2
0.003	367	3.2
0.007	359.2	7.2
0.017	351.9	2.1
0.043	345.6	0.8
0.074	344	0.3
0.116	343	0.3
0.171	342	0.3
0.239	340.7	0.3
0.331	338.8	0.3
0.447	336	0.3
0.629	332.6	0.3
0.758	330.4	0.2
1	328.3	0.2

System: diethylamine + water; phases: Liquid, Gas
Property: Boiling temperature at pressure P, K (Liquid); method: Ebulliometric method (Recirculating still)
Mole fraction of diethylamine	Pressure, kPa	Boiling temperature at pressure P, K	uncertainty
0.121	101.33	370.4	0.2
