Measured thermophysical data. Vapor Pressure and Evaporation Coefficient Measurements at Elevated Temperatures with a Knudsen Cell and a Quartz Crystal Microbalance: New Data for SiO
Source: J. Chem. Eng. Data, 2012, 10.1021/je300199a
Compound 1: copper, Cu, InChI=1S/Cu, purity 99.9999%
Compound 2: silicon monooxide, OSi, InChI=1S/OSi/c1-2, purity 99.9%

System: copper; phases: Crystal, Gas
Property: Vapor or sublimation pressure, kPa (Crystal); method: Calculated from knudsen effusion weight loss
Temperature, K	Vapor or sublimation pressure, kPa	uncertainty
1211	3.2e-06	1e-06
1229	2.6e-06	8e-07
1229	2.6e-06	8e-07
1249	6.5e-06	2e-06
1249	5.9e-06	1.8e-06
1267	1e-05	2e-06
1267	1e-05	2e-06
1281	1.4e-05	4e-06
1281	1.5e-05	4e-06
1300	1.9e-05	6e-06
1300	2.1e-05	6e-06
1314	2.8e-05	8e-06
1314	2.7e-05	8e-06
1329	4.5e-05	1.4e-05
1329	3.8e-05	1.2e-05
1343	5.4e-05	1.6e-05
1343	5.1e-05	1.6e-05
1356	7e-05	2e-05

System: copper; phases: Liquid, Gas
Property: Vapor or sublimation pressure, kPa (Liquid); method: Calculated from knudsen effusion weight loss
Temperature, K	Vapor or sublimation pressure, kPa	uncertainty
1370	9e-05	2e-05
1379	0.00013	4e-05
1384	0.00012	4e-05
1388	0.00014	4e-05
1397	0.00015	4e-05
1397	0.00015	4e-05
1409	0.00018	6e-05
1409	0.00019	6e-05
1421	0.00023	6e-05
1421	0.00023	6e-05
1432	0.00027	8e-05
1432	0.00028	8e-05
1434	0.00033	0.0001
1443	0.00034	0.0001
1454	0.0004	0.00012
1454	0.00041	0.00012
1463	0.00047	0.00014
1463	0.00049	0.00014
1474	0.00055	0.00016
1474	0.00057	0.00018
1484	0.00065	0.0002
1484	0.0007	0.0002
1494	0.0007	0.0002
1494	0.0008	0.0002
1503	0.0008	0.0002
1503	0.0009	0.0002
1512	0.0008	0.0002
1512	0.0011	0.0004
1522	0.0013	0.0004
1522	0.0012	0.0004
1530	0.0015	0.0004
1530	0.0014	0.0004
1539	0.0016	0.0004
1539	0.0016	0.0004
1547	0.0018	0.0006
1547	0.0019	0.0006
1555	0.0021	0.0006
1555	0.0021	0.0006
1565	0.0023	0.0006
1565	0.0024	0.0008
1565	0.0027	0.0008
1572	0.0026	0.0008
1572	0.0028	0.0008
1572	0.0031	0.001
1581	0.0029	0.0008
1581	0.0031	0.001
1581	0.0035	0.001
1588	0.0031	0.001
1588	0.0036	0.0011
1588	0.004	0.0013
1596	0.0038	0.0013
1596	0.0041	0.0013
1596	0.0045	0.0015
1604	0.0039	0.0013
1604	0.0046	0.0015
1604	0.005	0.0015
1611	0.0042	0.0013
1611	0.0052	0.0017
1611	0.0055	0.0017
1619	0.0046	0.0015
1619	0.0058	0.0019
1619	0.006	0.0019
1628	0.005	0.0017
1628	0.0066	0.0021

System: silicon monooxide; phases: Crystal, Gas
Property: Vapor or sublimation pressure, kPa (Crystal); method: Calculated from knudsen effusion weight loss
Temperature, K	Vapor or sublimation pressure, kPa	uncertainty
1211	3e-06	4e-06
1229	1.6e-06	1.4e-06
1249	8e-06	6e-06
1267	1.3e-05	1e-05
1281	2.2e-05	1.8e-05
1300	4e-05	4e-05
1314	6e-05	4e-05
1329	9e-05	6e-05
1343	0.00013	0.0001
1356	0.0002	0.00014
1370	0.00028	0.0002
1384	0.0004	0.0002
1397	0.0005	0.0004
1409	0.0007	0.0004
1421	0.001	0.0006
1432	0.0013	0.0008
1443	0.0017	0.001
1454	0.0023	0.0012
1463	0.0029	0.0016
1474	0.0036	0.002
1484	0.005	0.002
1494	0.006	0.002
1503	0.007	0.004
1512	0.009	0.004
1522	0.011	0.004
1530	0.013	0.006
1539	0.015	0.006
1547	0.018	0.008
1555	0.021	0.008
1565	0.024	0.01
