Measured thermophysical data. Thermophysical Properties of Three Compounds from the Acrylate Family
Source: J. Chem. Eng. Data, 2013, 10.1021/je301333b
Compound 1: methyl propenoate, C4H6O2, InChI=1S/C4H6O2/c1-3-4(5)6-2/h3H,1H2,2H3, purity 99%
Compound 2: ethyl propenoate, C5H8O2, InChI=1S/C5H8O2/c1-3-5(6)7-4-2/h3H,1,4H2,2H3, purity 99%
Compound 3: butyl 2-propenoate, C7H12O2, InChI=1S/C7H12O2/c1-3-5-6-9-7(8)4-2/h4H,2-3,5-6H2,1H3, purity 99%

System: methyl propenoate; phases: Liquid
Fixed: Pressure, kPa = 101.325
Property: Mass density, kg/m3 (Liquid); method: Vibrating tube method
Temperature, K	Mass density, kg/m3	uncertainty
278.15	973.52	0.233
280.65	970.515	0.233
283.15	967.49	0.233
285.65	964.457	0.233
288.15	961.418	0.233
290.65	958.368	0.233
293.15	955.313	0.233
295.65	952.248	0.233
298.15	949.174	0.233
300.65	946.095	0.233
303.15	943.005	0.233
305.65	939.907	0.233
308.15	936.797	0.234
310.65	933.679	0.234
313.15	930.548	0.234
315.65	927.406	0.234
318.15	924.254	0.234
320.65	921.091	0.234
323.15	917.914	0.234
325.65	914.727	0.234
328.15	911.529	0.234
330.65	908.313	0.235
333.15	905.085	0.235
335.65	901.845	0.235
338.15	898.589	0.235

System: methyl propenoate; phases: Liquid
Fixed: Pressure, kPa = 101.325
Property: Refractive index (Na D-line) (Liquid); method: Standard Abbe refractometry
Temperature, K	Refractive index (Na D-line)	uncertainty
283.15	1.40826	0.000369
285.65	1.406919	0.000369
288.15	1.405614	0.000369
290.65	1.404251	0.000369
293.15	1.402929	0.000369
295.65	1.40159	0.000369
298.15	1.400245	0.000369
300.65	1.398869	0.000369
303.15	1.397495	0.000369
305.65	1.396148	0.000369
308.15	1.394766	0.000369
310.65	1.393399	0.000369
313.15	1.391997	0.000369
315.65	1.390616	0.000369
318.15	1.38923	0.000369
320.65	1.38783	0.000369
323.15	1.386428	0.000369
325.65	1.385031	0.000369
328.15	1.383633	0.000369
330.65	1.382244	0.000369
333.15	1.380803	0.000369
335.65	1.379418	0.000369
338.15	1.377982	0.000369

System: methyl propenoate; phases: Liquid
Fixed: Pressure, kPa = 101.325
Property: Speed of sound, m/s (Liquid); method: Pulse-echo method
Temperature, K	Speed of sound, m/s	uncertainty
278.15	1254.4	1.19
280.65	1243.79	1.19
283.15	1233.05	1.19
285.65	1222.33	1.18
288.15	1211.63	1.18
290.65	1200.98	1.18
293.15	1190.33	1.18
295.65	1179.65	1.18
298.15	1168.97	1.17
300.65	1158.36	1.17
303.15	1147.76	1.17
305.65	1137.2	1.17
308.15	1126.66	1.16
310.65	1116.16	1.16
313.15	1105.67	1.16
315.65	1095.21	1.16
318.15	1084.76	1.16
320.65	1074.31	1.15
323.15	1063.9	1.15
325.65	1053.51	1.15
328.15	1043.12	1.15
330.65	1032.75	1.15
333.15	1022.41	1.14
335.65	1012.05	1.14
338.15	1001.74	1.14

System: methyl propenoate; phases: Liquid, Gas
Property: Surface tension liquid-gas, N/m (Liquid); method: Drop volume
Temperature, K	Surface tension liquid-gas, N/m	uncertainty
278.15	0.029	0.00021
280.65	0.02862	0.00021
283.15	0.02831	0.00021
285.65	0.02805	0.00021
288.15	0.02767	0.00021
290.65	0.02735	0.0002
293.15	0.02696	0.0002
295.65	0.02663	0.0002
298.15	0.02626	0.0002
300.65	0.02601	0.0002
303.15	0.02567	0.0002
305.65	0.02534	0.00019
308.15	0.02509	0.00019
310.65	0.02475	0.00019
313.15	0.02443	0.00019
315.65	0.02411	0.00019
318.15	0.02383	0.00019
320.65	0.02349	0.00018
323.15	0.0232	0.00018
325.65	0.02282	0.00018
328.15	0.02252	0.00018
330.65	0.02222	0.00018
333.15	0.02194	0.00018
335.65	0.02157	0.00017
338.15	0.02125	0.00017

System: methyl propenoate; phases: Liquid
Fixed: Pressure, kPa = 101.325
Property: Viscosity, Pa*s (Liquid); method: Capillary tube (Ostwald; Ubbelohde) method
Temperature, K	Viscosity, Pa*s	uncertainty
278.15	0.0006023	1.3e-05
280.65	0.0005821	1.25e-05
283.15	0.0005625	1.21e-05
285.65	0.0005441	1.17e-05
288.15	0.0005263	1.13e-05
290.65	0.000509	1.1e-05
293.15	0.0004924	1.06e-05
295.65	0.0004765	1.03e-05
298.15	0.0004611	1e-05
300.65	0.0004471	9.7e-06
303.15	0.0004348	9.4e-06
305.65	0.0004246	9.2e-06
308.15	0.0004152	9e-06
310.65	0.0004058	8.8e-06
313.15	0.0003958	8.6e-06
315.65	0.0003855	8.4e-06
318.15	0.0003756	8.2e-06
320.65	0.0003657	7.9e-06
323.15	0.0003562	7.7e-06
325.65	0.000347	7.6e-06
328.15	0.0003381	7.4e-06
330.65	0.0003293	7.2e-06
333.15	0.0003209	7e-06
335.65	0.0003113	6.8e-06
338.15	0.0003057	6.7e-06

System: methyl propenoate; phases: Liquid
Fixed: Pressure, kPa = 101.325
Property: Relative permittivity at zero frequency (Liquid); method: capacitive measurement method
Temperature, K	Relative permittivity at zero frequency	uncertainty
278.15	7.681	0.038
280.65	7.603	0.038
283.15	7.51	0.038
285.65	7.437	0.037
288.15	7.372	0.037
290.65	7.271	0.036
293.15	7.17	0.036
295.65	7.098	0.035
298.15	7.021	0.035
300.65	6.949	0.035
303.15	6.84	0.034
305.65	6.739	0.034
308.15	6.651	0.033
310.65	6.57	0.033
313.15	6.479	0.032
315.65	6.399	0.032
318.15	6.308	0.032
320.65	6.215	0.031
323.15	6.113	0.031
325.65	6.021	0.03
328.15	5.933	0.03
330.65	5.844	0.029
333.15	5.759	0.029
335.65	5.676	0.028
338.15	5.596	0.028

System: methyl propenoate; phases: Liquid, Gas
Property: Vapor or sublimation pressure, kPa (Liquid); method: EBULLIO:UFactor:8
Temperature, K	Vapor or sublimation pressure, kPa	uncertainty
278.15	4.075	0.065
283.15	5.345	0.066
288.15	6.97	0.067
293.15	9.06	0.069
298.15	11.46	0.071
303.15	14.51	0.074
308.15	18.295	0.077
313.15	22.71	0.082
318.15	28.1	0.087
323.15	34.425	0.094
328.15	42.11	0.103
333.15	50.71	0.113
338.15	60.69	0.124
343.15	72.5	0.139
348.15	86.26	0.154

System: ethyl propenoate; phases: Liquid
Fixed: Pressure, kPa = 101.325
Property: Mass density, kg/m3 (Liquid); method: Vibrating tube method
Temperature, K	Mass density, kg/m3	uncertainty
278.15	939.092	0.233
280.65	936.249	0.233
283.15	933.389	0.233
285.65	930.524	0.233
288.15	927.655	0.234
290.65	924.78	0.234
293.15	921.899	0.234
295.65	919.015	0.234
298.15	916.121	0.234
300.65	913.223	0.234
303.15	910.319	0.234
305.65	907.407	0.234
308.15	904.487	0.234
310.65	901.562	0.234
313.15	898.626	0.235
315.65	895.683	0.235
318.15	892.732	0.235
320.65	889.772	0.235
323.15	886.802	0.235
325.65	883.823	0.235
328.15	880.833	0.235
330.65	877.834	0.236
333.15	874.826	0.236
335.65	871.807	0.236
338.15	868.779	0.236

System: ethyl propenoate; phases: Liquid
Fixed: Pressure, kPa = 101.325
Property: Refractive index (Na D-line) (Liquid); method: Standard Abbe refractometry
Temperature, K	Refractive index (Na D-line)	uncertainty
283.15	1.411519	0.000369
285.65	1.410216	0.000369
288.15	1.408881	0.000369
290.65	1.407541	0.000369
293.15	1.406235	0.000369
295.65	1.404898	0.000369
298.15	1.403568	0.000369
300.65	1.402262	0.000369
303.15	1.400924	0.000369
305.65	1.399572	0.000369
308.15	1.398201	0.000369
310.65	1.396868	0.000369
313.15	1.395505	0.000369
315.65	1.394154	0.000369
318.15	1.39278	0.000369
320.65	1.39143	0.000369
323.15	1.39002	0.000369
325.65	1.388686	0.000369
328.15	1.387293	0.000369
330.65	1.385921	0.000369
333.15	1.384542	0.000369
335.65	1.383153	0.000369
338.15	1.381751	0.000369

System: ethyl propenoate; phases: Liquid
Fixed: Pressure, kPa = 101.325
Property: Speed of sound, m/s (Liquid); method: Pulse-echo method
Temperature, K	Speed of sound, m/s	uncertainty
278.15	1244.02	1.19
280.65	1233.5	1.19
283.15	1222.83	1.18
285.65	1212.25	1.18
288.15	1201.63	1.18
290.65	1191.08	1.18
293.15	1180.55	1.18
295.65	1170.02	1.17
298.15	1159.47	1.17
300.65	1149.01	1.17
303.15	1138.59	1.17
305.65	1128.2	1.17
308.15	1117.84	1.16
310.65	1107.53	1.16
313.15	1097.23	1.16
315.65	1086.96	1.16
318.15	1076.72	1.15
320.65	1066.51	1.15
323.15	1056.33	1.15
325.65	1046.18	1.15
328.15	1036.03	1.15
330.65	1025.91	1.15
333.15	1015.8	1.14
335.65	1005.73	1.14
338.15	995.72	1.14

System: ethyl propenoate; phases: Liquid, Gas
Property: Surface tension liquid-gas, N/m (Liquid); method: Drop volume
Temperature, K	Surface tension liquid-gas, N/m	uncertainty
278.15	0.02754	0.00021
280.65	0.02729	0.0002
283.15	0.02699	0.0002
285.65	0.02672	0.0002
288.15	0.02638	0.0002
290.65	0.02606	0.0002
293.15	0.02572	0.0002
295.65	0.02548	0.00019
298.15	0.02515	0.00019
300.65	0.02483	0.00019
303.15	0.02455	0.00019
305.65	0.02422	0.00019
308.15	0.02394	0.00019
310.65	0.0237	0.00018
313.15	0.0234	0.00018
315.65	0.02308	0.00018
318.15	0.0228	0.00018
320.65	0.02249	0.00018
323.15	0.02222	0.00018
325.65	0.0219	0.00018
328.15	0.0216	0.00017
330.65	0.02131	0.00017
333.15	0.02101	0.00017
335.65	0.02071	0.00017
338.15	0.02042	0.00017

System: ethyl propenoate; phases: Liquid
Fixed: Pressure, kPa = 101.325
Property: Viscosity, Pa*s (Liquid); method: Capillary tube (Ostwald; Ubbelohde) method
Temperature, K	Viscosity, Pa*s	uncertainty
278.15	0.0007086	1.52e-05
280.65	0.0006826	1.47e-05
283.15	0.0006587	1.41e-05
285.65	0.0006361	1.37e-05
288.15	0.0006146	1.32e-05
290.65	0.0005942	1.28e-05
293.15	0.0005746	1.24e-05
295.65	0.0005561	1.2e-05
298.15	0.0005377	1.16e-05
300.65	0.0005206	1.12e-05
303.15	0.000504	1.09e-05
305.65	0.0004885	1.05e-05
308.15	0.0004732	1.02e-05
310.65	0.0004587	9.9e-06
313.15	0.0004449	9.6e-06
315.65	0.0004328	9.4e-06
318.15	0.0004221	9.1e-06
320.65	0.0004121	8.9e-06
323.15	0.0004029	8.7e-06
325.65	0.0003938	8.5e-06
328.15	0.0003839	8.3e-06
330.65	0.000374	8.1e-06
333.15	0.0003648	7.9e-06
335.65	0.0003555	7.7e-06
338.15	0.000347	7.6e-06

System: ethyl propenoate; phases: Liquid
Fixed: Pressure, kPa = 101.325
Property: Relative permittivity at zero frequency (Liquid); method: capacitive measurement method
Temperature, K	Relative permittivity at zero frequency	uncertainty
278.15	6.794	0.034
280.65	6.701	0.034
283.15	6.628	0.033
285.65	6.562	0.033
288.15	6.489	0.032
290.65	6.422	0.032
293.15	6.34	0.032
295.65	6.279	0.031
298.15	6.209	0.031
300.65	6.123	0.031
303.15	6.043	0.03
305.65	5.98	0.03
308.15	5.893	0.029
310.65	5.817	0.029
313.15	5.743	0.029
315.65	5.664	0.028
318.15	5.587	0.028
320.65	5.512	0.028
323.15	5.434	0.027
325.65	5.362	0.027
328.15	5.291	0.026
330.65	5.194	0.026
333.15	5.125	0.026
335.65	5.052	0.025
338.15	4.989	0.025

System: ethyl propenoate; phases: Liquid, Gas
Property: Vapor or sublimation pressure, kPa (Liquid); method: EBULLIO:UFactor:8
Temperature, K	Vapor or sublimation pressure, kPa	uncertainty
278.15	1.54	0.063
283.15	2.1	0.063
288.15	2.84	0.064
293.15	3.765	0.065
298.15	4.97	0.065
303.15	6.48	0.067
308.15	8.27	0.068
313.15	10.59	0.07
318.15	13.28	0.072
323.15	16.69	0.076
328.15	20.59	0.079
333.15	25.29	0.084
338.15	30.8	0.09
343.15	37.18	0.097
348.15	44.68	0.105
353.15	53.49	0.115
358.15	63.32	0.127
363.15	74.77	0.14
368.15	87.775	0.155

System: butyl 2-propenoate; phases: Liquid
Fixed: Pressure, kPa = 101.325
Property: Mass density, kg/m3 (Liquid); method: Vibrating tube method
Temperature, K	Mass density, kg/m3	uncertainty
278.15	913.925	0.234
280.65	911.466	0.234
283.15	908.991	0.234
285.65	906.513	0.234
288.15	904.036	0.234
290.65	901.556	0.234
293.15	899.072	0.234
295.65	896.585	0.234
298.15	894.095	0.234
300.65	891.605	0.234
303.15	889.111	0.235
305.65	886.611	0.235
308.15	884.111	0.235
310.65	881.608	0.235
313.15	879.097	0.235
315.65	876.582	0.235
318.15	874.067	0.235
320.65	871.546	0.235
323.15	869.019	0.236
325.65	866.488	0.236
328.15	863.951	0.236
330.65	861.409	0.236
333.15	858.861	0.236
335.65	856.307	0.236
338.15	853.747	0.236

System: butyl 2-propenoate; phases: Liquid
Fixed: Pressure, kPa = 101.325
Property: Refractive index (Na D-line) (Liquid); method: Standard Abbe refractometry
Temperature, K	Refractive index (Na D-line)	uncertainty
283.15	1.423544	0.000369
285.65	1.422364	0.000369
288.15	1.421184	0.000369
290.65	1.419953	0.000369
293.15	1.418748	0.000369
295.65	1.417523	0.000369
298.15	1.416316	0.000369
300.65	1.415067	0.000369
303.15	1.413855	0.000369
305.65	1.41263	0.000369
308.15	1.411405	0.000369
310.65	1.410174	0.000369
313.15	1.408939	0.000369
315.65	1.407693	0.000369
318.15	1.406467	0.000369
320.65	1.405249	0.000369
323.15	1.403978	0.000369
325.65	1.402754	0.000369
328.15	1.401518	0.000369
330.65	1.400283	0.000369
333.15	1.39903	0.000369
335.65	1.39779	0.000369
338.15	1.396565	0.000369

System: butyl 2-propenoate; phases: Liquid
Fixed: Pressure, kPa = 101.325
Property: Speed of sound, m/s (Liquid); method: Pulse-echo method
Temperature, K	Speed of sound, m/s	uncertainty
278.15	1284.35	1.2
280.65	1274.46	1.19
283.15	1264.45	1.19
285.65	1254.47	1.19
288.15	1244.54	1.19
290.65	1234.6	1.19
293.15	1224.69	1.18
295.65	1214.82	1.18
298.15	1204.94	1.18
300.65	1195.16	1.18
303.15	1185.38	1.18
305.65	1175.66	1.17
308.15	1165.95	1.17
310.65	1156.32	1.17
313.15	1146.68	1.17
315.65	1137.09	1.17
318.15	1127.55	1.16
320.65	1118.02	1.16
323.15	1108.52	1.16
325.65	1099.04	1.16
328.15	1089.64	1.16
330.65	1080.23	1.16
333.15	1070.83	1.15
335.65	1061.47	1.15
338.15	1052.2	1.15

System: butyl 2-propenoate; phases: Liquid, Gas
Property: Surface tension liquid-gas, N/m (Liquid); method: Drop volume
Temperature, K	Surface tension liquid-gas, N/m	uncertainty
278.15	0.02816	0.00021
280.65	0.02795	0.00021
283.15	0.02766	0.00021
285.65	0.02736	0.0002
288.15	0.02707	0.0002
290.65	0.02679	0.0002
293.15	0.02653	0.0002
295.65	0.02622	0.0002
298.15	0.02593	0.0002
300.65	0.02566	0.0002
303.15	0.02536	0.00019
305.65	0.02512	0.00019
308.15	0.02487	0.00019
310.65	0.02455	0.00019
313.15	0.02427	0.00019
315.65	0.02403	0.00019
318.15	0.02373	0.00018
320.65	0.02347	0.00018
323.15	0.02311	0.00018
325.65	0.0229	0.00018
328.15	0.02261	0.00018
330.65	0.02234	0.00018
333.15	0.02205	0.00018
335.65	0.02181	0.00017
338.15	0.0215	0.00017

System: butyl 2-propenoate; phases: Liquid
Fixed: Pressure, kPa = 101.325
Property: Viscosity, Pa*s (Liquid); method: Capillary tube (Ostwald; Ubbelohde) method
Temperature, K	Viscosity, Pa*s	uncertainty
278.15	0.0011132	2.38e-05
280.65	0.0010651	2.28e-05
283.15	0.0010199	2.18e-05
285.65	0.0009781	2.09e-05
288.15	0.0009399	2.01e-05
290.65	0.0009036	1.93e-05
293.15	0.0008696	1.86e-05
295.65	0.0008375	1.79e-05
298.15	0.0008074	1.73e-05
300.65	0.0007789	1.67e-05
303.15	0.000752	1.61e-05
305.65	0.0007264	1.56e-05
308.15	0.0007025	1.51e-05
310.65	0.0006791	1.46e-05
313.15	0.0006574	1.41e-05
315.65	0.0006363	1.37e-05
318.15	0.000617	1.33e-05
320.65	0.0005985	1.29e-05
323.15	0.0005809	1.25e-05
325.65	0.0005635	1.21e-05
328.15	0.0005478	1.18e-05
330.65	0.0005319	1.15e-05
333.15	0.0005171	1.11e-05
335.65	0.0005025	1.08e-05
338.15	0.000489	1.06e-05

System: butyl 2-propenoate; phases: Liquid
Fixed: Pressure, kPa = 101.325
Property: Relative permittivity at zero frequency (Liquid); method: capacitive measurement method
Temperature, K	Relative permittivity at zero frequency	uncertainty
278.15	5.761	0.029
280.65	5.705	0.029
283.15	5.651	0.028
285.65	5.591	0.028
288.15	5.531	0.028
290.65	5.468	0.027
293.15	5.418	0.027
295.65	5.364	0.027
298.15	5.31	0.027
300.65	5.264	0.026
303.15	5.205	0.026
305.65	5.141	0.026
308.15	5.076	0.025
310.65	5.015	0.025
313.15	4.961	0.025
315.65	4.901	0.025
318.15	4.841	0.024
320.65	4.784	0.024
323.15	4.725	0.024
325.65	4.667	0.023
328.15	4.614	0.023
330.65	4.56	0.023
333.15	4.511	0.023
335.65	4.459	0.022
338.15	4.409	0.022

System: butyl 2-propenoate; phases: Liquid, Gas
Property: Vapor or sublimation pressure, kPa (Liquid); method: EBULLIO:UFactor:8
Temperature, K	Vapor or sublimation pressure, kPa	uncertainty
278.15	0.11	0.062
283.15	0.165	0.062
288.15	0.25	0.062
293.15	0.36	0.062
298.15	0.525	0.062
303.15	0.735	0.062
308.15	1.01	0.063
313.15	1.38	0.063
318.15	1.82	0.063
323.15	2.41	0.064
328.15	3.22	0.064
333.15	4.2	0.065
338.15	5.29	0.066
343.15	6.71	0.067
348.15	8.4	0.068
353.15	10.5	0.07
358.15	12.955	0.072
363.15	15.785	0.075
368.15	19.195	0.078
373.15	23.12	0.081
378.15	27.4	0.086
383.15	32.655	0.091
388.15	38.42	0.097
393.15	45.19	0.105
398.15	52.58	0.113
403.15	61.13	0.122
408.15	70.39	0.133
413.15	80.67	0.145
418.15	92.6	0.158
