Measured thermophysical data. Freezing Point Depressions of Phase Change CO2 Solvents
Source: J. Chem. Eng. Data, 2013, 10.1021/je3013167
Compound 1: (diethylamino)ethanol, C6H15NO, InChI=1S/C6H15NO/c1-3-7(4-2)5-6-8/h8H,3-6H2,1-2H3, purity 99%
Compound 2: N-methyl-1,3-diaminopropane, C4H12N2, InChI=1S/C4H12N2/c1-6-4-2-3-5/h6H,2-5H2,1H3, purity 98%
Compound 3: water, H2O, InChI=1S/H2O/h1H2, purity 99.9%

System: (diethylamino)ethanol + water; phases: Liquid, Crystal
Fixed: Pressure, kPa = 101
Property: Solid-liquid equilibrium temperature, K (Liquid); method: VISOBS
Mass fraction of (diethylamino)ethanol	Solid-liquid equilibrium temperature, K	uncertainty
0.0254	272.71	0.16
0.0505	272.28	0.16
0.07543	271.84	0.16
0.10012	271.35	0.16
0.12551	270.79	0.16
0.15053	270.21	0.16
0.17506	269.54	0.16
0.20061	268.8	0.16
0.22536	268.01	0.16
0.2501	267.09	0.16
0.27552	266.09	0.16
0.30024	265.14	0.16
0.32529	264.05	0.16
0.3501	263.01	0.16
0.37524	261.8	0.16
0.40034	260.55	0.16
0.44988	257.64	0.16
0.49991	253.91	0.16
0.5501	248.56	0.16

System: (diethylamino)ethanol + N-methyl-1,3-diaminopropane + water; phases: Liquid, Crystal
Fixed: Pressure, kPa = 101
Property: Solid-liquid equilibrium temperature, K (Liquid); method: VISOBS
Mass fraction of (diethylamino)ethanol	Mass fraction of N-methyl-1,3-diaminopropane	Solid-liquid equilibrium temperature, K	uncertainty
0.02108	0.0792	270.69	0.16
0.03096	0.06981	270.78	0.16
0.03157	0.11858	268.95	0.16
0.04205	0.15795	266.48	0.16
0.04615	0.10409	269.12	0.16
0.05262	0.19767	262.81	0.16
0.05722	0.04308	271.02	0.16
0.06155	0.13882	266.8	0.16
0.06304	0.23682	257.33	0.16
0.06836	0.25678	252.76	0.16
0.07685	0.17332	263.47	0.16
0.08011	0.02009	271.21	0.16
0.08576	0.06456	269.58	0.16
0.0875	0.01318	271.25	0.16
0.09226	0.20806	258.29	0.16
0.10453	0.23574	251.91	0.16
0.11416	0.08594	267.66	0.16
0.12047	0.03021	269.93	0.16
0.13044	0.01965	270.03	0.16
0.14272	0.10744	264.98	0.16
0.16071	0.04031	268.27	0.16
0.17132	0.12897	261.15	0.16
0.17711	0.02668	268.35	0.16
0.19966	0.1503	255.67	0.16
0.19988	0.05013	266.23	0.16
0.21209	0.15966	253.12	0.16
0.21725	0.03272	266.56	0.16
0.24002	0.0602	263.43	0.16
0.26278	0.03958	263.97	0.16
0.28049	0.07035	260	0.16
0.30445	0.04585	261.11	0.16
0.3202	0.08031	255.1	0.16
0.34777	0.05238	257.6	0.16
0.39184	0.05902	252.67	0.16
0.0154	0.0348	272.02	0.16
0.0202	0.0051	272.68	0.16
0.0054	0.0201	272.57	0.16
0.0219	0.0033	272.69	0.16
0.0286	0.0215	272.13	0.16
0.0078	0.0175	272.59	0.16
0.0106	0.0399	272.03	0.16
0.0406	0.0102	272.22	0.16
0.0144	0.0108	272.63	0.16
0.044	0.0066	272.25	0.16

System: N-methyl-1,3-diaminopropane + water; phases: Liquid, Crystal
Fixed: Pressure, kPa = 101
Property: Solid-liquid equilibrium temperature, K (Liquid); method: VISOBS
Mass fraction of N-methyl-1,3-diaminopropane	Solid-liquid equilibrium temperature, K	uncertainty
0.0259	272.53	0.16
0.0505	271.93	0.16
0.07493	271.28	0.16
0.09998	270.49	0.16
0.1255	269.55	0.16
0.15073	268.46	0.16
0.17495	267.18	0.16
0.20042	265.56	0.16
0.22497	263.68	0.16
0.25056	261.29	0.16
0.27536	258.28	0.16
0.3005	254.07	0.16
0.32501	249.28	0.16
