Measured thermophysical data. Vapor Liquid Equilibria, Excess Enthalpy, and Excess Volume of Binary Mixtures Containing an Alcohol (1-Butanol, 2-Butanol, or 2-Methyl-2-butanol) and 2-Ethoxy-2-methylbutane
Source: J. Chem. Eng. Data, 2012, 10.1021/je300670n
Compound 1: 1,1-dimethylpropyl ethyl ether, C7H16O, InChI=1S/C7H16O/c1-5-7(3,4)8-6-2/h5-6H2,1-4H3
Compound 2: butan-1-ol, C4H10O, InChI=1S/C4H10O/c1-2-3-4-5/h5H,2-4H2,1H3
Compound 3: butan-2-ol, C4H10O, InChI=1S/C4H10O/c1-3-4(2)5/h4-5H,3H2,1-2H3
Compound 4: 2-methylbutan-2-ol, C5H12O, InChI=1S/C5H12O/c1-4-5(2,3)6/h6H,4H2,1-3H3

System: 1,1-dimethylpropyl ethyl ether; phases: Liquid
Property: Refractive index (Na D-line) (Liquid); method: Standard Abbe refractometry
Temperature, K	Pressure, kPa	Refractive index (Na D-line)	uncertainty
298.15	101.325	1.38858	0.00031

System: 1,1-dimethylpropyl ethyl ether; phases: Liquid
Property: Refractive index (Na D-line) (Liquid); method: Standard Abbe refractometry
Temperature, K	Pressure, kPa	Refractive index (Na D-line)	uncertainty
293.15	101.325	1.39112	0.00031

System: 1,1-dimethylpropyl ethyl ether; phases: Liquid
Property: Mass density, kg/m3 (Liquid); method: Vibrating tube method
Temperature, K	Pressure, kPa	Mass density, kg/m3	uncertainty
298.15	101.325	760.52	0.34

System: 1,1-dimethylpropyl ethyl ether; phases: Liquid, Gas
Property: Vapor or sublimation pressure, kPa (Liquid); method: Ebulliometric method (Recirculating still)
Temperature, K	Vapor or sublimation pressure, kPa	uncertainty
324.31	17.7	0.4
331.83	24	0.4
343.83	37.6	0.4
345.82	40.3	0.4
349.21	45.4	0.4
351.71	49.5	0.4
355.12	55.5	0.4
357.39	59.9	0.4
358.01	61	0.4
358.09	61.3	0.4
359.96	65.1	0.4
362.13	69.7	0.4
364.42	74.9	0.4
366.44	79.6	0.4
367.36	81.8	0.4
368.16	83.8	0.4
373.7	98.9	0.5
374.41	101	0.5

System: butan-1-ol; phases: Liquid
Property: Refractive index (Na D-line) (Liquid); method: Standard Abbe refractometry
Temperature, K	Pressure, kPa	Refractive index (Na D-line)	uncertainty
298.15	101.325	1.3972	0.0003

System: butan-1-ol; phases: Liquid
Property: Mass density, kg/m3 (Liquid); method: Vibrating tube method
Temperature, K	Pressure, kPa	Mass density, kg/m3	uncertainty
298.15	101.325	805.97	0.34

System: butan-1-ol; phases: Liquid, Gas
Property: Vapor or sublimation pressure, kPa (Liquid); method: Ebulliometric method (Recirculating still)
Temperature, K	Vapor or sublimation pressure, kPa	uncertainty
345.91	15.6	0.4
358.05	27.4	0.4
359.46	29.4	0.4
366.26	39.3	0.4
369.57	45.1	0.4
372.02	49.8	0.4
374.43	54.9	0.4
376.72	60.1	0.4
378.46	64.2	0.4
380.74	70.2	0.4
382.55	75.1	0.4
384.3	80.1	0.5
385.78	84.6	0.5
390.41	100	0.5

System: butan-2-ol; phases: Liquid
Property: Refractive index (Na D-line) (Liquid); method: Standard Abbe refractometry
Temperature, K	Pressure, kPa	Refractive index (Na D-line)	uncertainty
298.15	101.325	1.3951	0.0003

System: butan-2-ol; phases: Liquid
Property: Mass density, kg/m3 (Liquid); method: Vibrating tube method
Temperature, K	Pressure, kPa	Mass density, kg/m3	uncertainty
298.15	101.325	802.71	0.35

System: butan-2-ol; phases: Liquid, Gas
Property: Vapor or sublimation pressure, kPa (Liquid); method: Ebulliometric method (Recirculating still)
Temperature, K	Vapor or sublimation pressure, kPa	uncertainty
330.11	15.7	0.4
337.99	23.3	0.4
345.15	32.7	0.4
354.49	49.4	0.4
357.15	55.3	0.4
358.16	57.3	0.4
358.98	59.6	0.4
362.88	69.9	0.4
365.08	76.3	0.5
366.13	79.5	0.5
367.13	82.9	0.5
371.51	98.3	0.4
372.43	100.6	0.4

System: 2-methylbutan-2-ol; phases: Liquid
Property: Refractive index (Na D-line) (Liquid); method: Standard Abbe refractometry
Temperature, K	Pressure, kPa	Refractive index (Na D-line)	uncertainty
298.15	101.325	1.40248	0.00037

System: 2-methylbutan-2-ol; phases: Liquid
Property: Mass density, kg/m3 (Liquid); method: Vibrating tube method
Temperature, K	Pressure, kPa	Mass density, kg/m3	uncertainty
298.15	101.325	805.29	0.39

System: 2-methylbutan-2-ol; phases: Liquid, Gas
Property: Vapor or sublimation pressure, kPa (Liquid); method: Ebulliometric method (Recirculating still)
Temperature, K	Vapor or sublimation pressure, kPa	uncertainty
334.98	18.8	0.4
344.45	29.4	0.4
351.18	39.5	0.4
354.1	44.7	0.4
356.81	50.1	0.4
358.12	52.8	0.4
359.14	55	0.4
361.21	59.7	0.4
363.43	65.2	0.4
365.23	69.8	0.4
367.1	75	0.5
368.88	80.1	0.5
371.04	86.7	0.5
375.78	102.7	0.5

System: butan-1-ol + 1,1-dimethylpropyl ethyl ether; phases: Liquid
Fixed: Temperature, K = 298.15
Fixed: Pressure, kPa = 101
Property: Excess molar enthalpy (molar enthalpy of mixing), kJ/mol (Liquid); method: Flow calorimetry
Mole fraction of 1,1-dimethylpropyl ethyl ether	Excess molar enthalpy (molar enthalpy of mixing), kJ/mol	uncertainty
0.101	0.1192	0.0063
0.2005	0.251	0.0087
0.3022	0.3788	0.0114
0.401	0.485	0.0138
0.5023	0.5669	0.0157
0.6005	0.6131	0.0167
0.7009	0.6157	0.0168
0.7999	0.5563	0.0159
0.902	0.3819	0.0125

System: butan-1-ol + 1,1-dimethylpropyl ethyl ether; phases: Liquid, Gas
Property: Vapor or sublimation pressure, kPa (Liquid); method: Ebulliometric method (Recirculating still)
Mole fraction of 1,1-dimethylpropyl ethyl ether	Temperature, K	Vapor or sublimation pressure, kPa	uncertainty
0	358.05	27.4	0.4
0.074	358.11	35.5	0.7
0.123	358.11	39.7	0.7
0.183	358.1	43.8	0.6
0.225	358.02	46.3	0.6
0.273	358.02	48.8	0.6
0.321	358.14	51.1	0.6
0.364	358.11	52.8	0.5
0.402	358.1	54	0.5
0.445	358.07	55.3	0.5
0.472	358.01	55.9	0.5
0.514	358.14	57.2	0.5
0.567	358.14	58.3	0.5
0.611	358.14	59.2	0.5
0.655	358.13	59.9	0.5
0.688	358.16	60.5	0.5
0.723	358.11	60.9	0.5
0.761	358.05	61.2	0.5
0.809	358.09	61.7	0.5
0.856	358.15	62	0.5
0.922	358.16	62	0.5
0.956	358.12	61.7	0.5
1	358.01	61	0.5

System: butan-1-ol + 1,1-dimethylpropyl ethyl ether; phases: Liquid
Fixed: Pressure, kPa = 101
Property: Mass density, kg/m3 (Liquid); method: Vibrating tube method
Temperature, K	Mole fraction of 1,1-dimethylpropyl ethyl ether	Mass density, kg/m3	uncertainty
297.7	0.101	801	0.4
297.7	0.2005	796.1	0.4
297.7	0.401	786.6	0.4
297.7	0.5023	782	0.4
297.7	0.902	764.8	0.5
297.71	0.3022	791.1	0.4
297.71	0.6005	777.5	0.4
297.71	0.7009	773.3	0.4
297.71	0.7999	769.2	0.4

System: butan-1-ol + 1,1-dimethylpropyl ethyl ether; phases: Gas, Liquid
Property: Mole fraction of 1,1-dimethylpropyl ethyl ether (Gas); method: Chromatography
Mole fraction of 1,1-dimethylpropyl ethyl ether	Temperature, K	Mole fraction of 1,1-dimethylpropyl ethyl ether	uncertainty
0	358.05	0	
0.074	358.11	0.273	0.014
0.123	358.11	0.378	0.015
0.183	358.1	0.469	0.011
0.225	358.02	0.518	0.009
0.273	358.02	0.562	0.009
0.321	358.14	0.598	0.009
0.364	358.11	0.626	0.008
0.402	358.1	0.648	0.008
0.445	358.07	0.671	0.007
0.472	358.01	0.684	0.007
0.514	358.14	0.703	0.007
0.567	358.14	0.726	0.007
0.611	358.14	0.745	0.007
0.655	358.13	0.763	0.007
0.688	358.16	0.778	0.007
0.723	358.11	0.793	0.007
0.761	358.05	0.812	0.007
0.809	358.09	0.837	0.008
0.856	358.15	0.865	0.008
0.922	358.16	0.914	0.008
0.956	358.12	0.947	0.008
1	358.01	1	

System: 2-methylbutan-2-ol + 1,1-dimethylpropyl ethyl ether; phases: Liquid
Fixed: Temperature, K = 298.15
Fixed: Pressure, kPa = 101
Property: Excess molar enthalpy (molar enthalpy of mixing), kJ/mol (Liquid); method: Flow calorimetry
Mole fraction of 1,1-dimethylpropyl ethyl ether	Excess molar enthalpy (molar enthalpy of mixing), kJ/mol	uncertainty
0.1005	0.2362	0.0107
0.2006	0.448	0.0146
0.3013	0.6323	0.0185
0.4018	0.7813	0.0219
0.5013	0.8937	0.0245
0.601	0.9611	0.0261
0.7003	0.9727	0.0264
0.8011	0.9002	0.0252
0.9003	0.6636	0.0204

System: 2-methylbutan-2-ol + 1,1-dimethylpropyl ethyl ether; phases: Liquid, Gas
Property: Vapor or sublimation pressure, kPa (Liquid); method: Ebulliometric method (Recirculating still)
Mole fraction of 1,1-dimethylpropyl ethyl ether	Temperature, K	Vapor or sublimation pressure, kPa	uncertainty
0	358.12	52.8	0.4
0.121	358.1	59.3	0.5
0.161	358.03	60.7	0.5
0.202	358.02	62.2	0.5
0.253	358.06	63.9	0.5
0.296	358.11	65.1	0.5
0.341	358.11	66.1	0.5
0.379	358.12	66.8	0.5
0.417	358.06	67.3	0.5
0.455	358.02	67.6	0.5
0.49	358.1	68.1	0.5
0.526	358.1	68.5	0.5
0.56	358.09	68.6	0.5
0.592	358.1	68.8	0.8
0.622	358.11	68.8	0.5
0.649	358.1	68.8	0.5
0.704	358.1	68.5	0.5
0.733	358.1	68.4	0.5
0.769	358.13	68.1	0.5
0.804	358.12	67.6	0.5
0.837	358.04	66.8	0.5
0.868	358.03	66.1	0.5
0.898	358.09	65.4	0.5
0.933	358.06	64	0.4
0.964	358.09	62.8	0.5
1	358.01	61	0.4

System: 2-methylbutan-2-ol + 1,1-dimethylpropyl ethyl ether; phases: Liquid
Fixed: Pressure, kPa = 101
Property: Mass density, kg/m3 (Liquid); method: Vibrating tube method
Temperature, K	Mole fraction of 1,1-dimethylpropyl ethyl ether	Mass density, kg/m3	uncertainty
297.7	0.1005	798.8	0.5
297.71	0.2006	793.2	0.5
297.71	0.3013	788.2	0.5
297.71	0.4018	783.4	0.4
297.71	0.5013	778.9	0.4
297.71	0.601	774.7	0.4
297.71	0.7003	770.9	0.4
297.71	0.8011	767.1	0.4
297.72	0.9003	763.7	0.5

System: 2-methylbutan-2-ol + 1,1-dimethylpropyl ethyl ether; phases: Gas, Liquid
Property: Mole fraction of 1,1-dimethylpropyl ethyl ether (Gas); method: Chromatography
Mole fraction of 1,1-dimethylpropyl ethyl ether	Temperature, K	Mole fraction of 1,1-dimethylpropyl ethyl ether	uncertainty
0	358.12	0	
0.121	358.1	0.207	0.009
0.161	358.03	0.258	0.009
0.202	358.02	0.305	0.01
0.253	358.06	0.357	0.008
0.296	358.11	0.395	0.009
0.341	358.11	0.432	0.009
0.379	358.12	0.461	0.009
0.417	358.06	0.489	0.009
0.455	358.02	0.515	0.009
0.49	358.1	0.538	0.008
0.526	358.1	0.562	0.008
0.56	358.09	0.584	0.008
0.592	358.1	0.604	0.007
0.622	358.11	0.624	0.008
0.649	358.1	0.641	0.008
0.704	358.1	0.679	0.008
0.733	358.1	0.699	0.008
0.769	358.13	0.727	0.008
0.804	358.12	0.755	0.008
0.837	358.04	0.784	0.009
0.868	358.03	0.815	0.009
0.898	358.09	0.848	0.01
0.933	358.06	0.891	0.008
0.964	358.09	0.936	0.01
1	358.01	1	

System: butan-2-ol + 1,1-dimethylpropyl ethyl ether; phases: Liquid
Fixed: Temperature, K = 298.15
Fixed: Pressure, kPa = 101
Property: Excess molar enthalpy (molar enthalpy of mixing), kJ/mol (Liquid); method: Flow calorimetry
Mole fraction of 1,1-dimethylpropyl ethyl ether	Excess molar enthalpy (molar enthalpy of mixing), kJ/mol	uncertainty
0.1011	0.2713	0.0124
0.2007	0.5158	0.0167
0.3008	0.7192	0.0208
0.4013	0.8684	0.0241
0.5005	0.9577	0.0261
0.6008	0.986	0.0268
0.7012	0.9448	0.0259
0.8001	0.8192	0.0236
0.899	0.5569	0.0185

System: butan-2-ol + 1,1-dimethylpropyl ethyl ether; phases: Liquid, Gas
Property: Vapor or sublimation pressure, kPa (Liquid); method: Ebulliometric method (Recirculating still)
Mole fraction of 1,1-dimethylpropyl ethyl ether	Temperature, K	Vapor or sublimation pressure, kPa	uncertainty
0	358.16	57.3	0.5
0.064	358	61.8	0.6
0.095	358.12	64.1	0.7
0.13	358.15	66.1	0.6
0.167	358.11	67.7	0.6
0.203	358.11	69	0.6
0.242	358.07	70.3	0.6
0.283	358.06	71.3	0.6
0.321	358.01	72	0.6
0.363	358.06	73	0.6
0.398	358.02	73.4	0.6
0.402	358.1	73.4	0.7
0.429	358.12	74	0.7
0.45	358.13	73.9	0.6
0.459	358.07	74.1	0.6
0.491	358.04	74.3	0.6
0.502	358.11	74.2	0.6
0.523	358.08	74.5	0.6
0.567	358.08	74.2	0.6
0.585	358.1	74.6	0.6
0.64	358.06	73.9	0.6
0.706	358.06	72.9	0.6
0.753	358.07	72.7	0.6
0.79	358.03	71.8	0.6
0.831	358.06	70.7	0.6
0.864	358.03	69.5	0.6
0.91	358.06	67.4	0.6
0.93	358.03	66.1	0.7
0.94	358.09	65.7	0.7
1	358.09	61.3	0.5

System: butan-2-ol + 1,1-dimethylpropyl ethyl ether; phases: Liquid
Fixed: Pressure, kPa = 101
Property: Mass density, kg/m3 (Liquid); method: Vibrating tube method
Temperature, K	Mole fraction of 1,1-dimethylpropyl ethyl ether	Mass density, kg/m3	uncertainty
297.67	0.7012	770.2	0.4
297.67	0.8001	766.9	0.4
297.68	0.5005	777.9	0.4
297.68	0.6008	774	0.4
297.68	0.899	763.8	0.5
297.69	0.1011	796.8	0.4
297.69	0.2007	791.6	0.4
297.69	0.3008	786.6	0.4
297.69	0.4013	782	0.4

System: butan-2-ol + 1,1-dimethylpropyl ethyl ether; phases: Gas, Liquid
Property: Mole fraction of 1,1-dimethylpropyl ethyl ether (Gas); method: Chromatography
Mole fraction of 1,1-dimethylpropyl ethyl ether	Temperature, K	Mole fraction of 1,1-dimethylpropyl ethyl ether	uncertainty
0	358.16	0	
0.064	358	0.135	0.009
0.095	358.12	0.187	0.012
0.13	358.15	0.235	0.01
0.167	358.11	0.279	0.009
0.203	358.11	0.316	0.009
0.242	358.07	0.351	0.008
0.283	358.06	0.384	0.008
0.321	358.01	0.412	0.008
0.363	358.06	0.44	0.008
0.398	358.02	0.462	0.008
0.402	358.1	0.465	0.008
0.429	358.12	0.481	0.008
0.45	358.13	0.493	0.008
0.459	358.07	0.498	0.008
0.491	358.04	0.516	0.008
0.502	358.11	0.523	0.008
0.523	358.08	0.534	0.008
0.567	358.08	0.559	0.008
0.585	358.1	0.569	0.008
0.64	358.06	0.601	0.008
0.706	358.06	0.643	0.008
0.753	358.07	0.676	0.008
0.79	358.03	0.705	0.008
0.831	358.06	0.743	0.009
0.864	358.03	0.777	0.009
0.91	358.06	0.835	0.01
0.93	358.03	0.864	0.011
0.94	358.09	0.879	0.014
1	358.09	1	
