Measured thermophysical data. Experiments and Correlations of the Vapor Liquid Equilibria for Carbon Monoxide + Propionic Acid and Carbon Monoxide + Methyl Formate Systems
Source: J. Chem. Eng. Data, 2012, 10.1021/je3001969
Compound 1: propanoic acid, C3H6O2, InChI=1S/C3H6O2/c1-2-3(4)5/h2H2,1H3,(H,4,5), purity 99.8%
Compound 2: methyl methanoate, C2H4O2, InChI=1S/C2H4O2/c1-4-2-3/h2H,1H3, purity 99.8%
Compound 3: carbon monoxide, CO, InChI=1S/CO/c1-2, purity 99.99%

System: propanoic acid + carbon monoxide; phases: Gas, Liquid
Property: Vapor or sublimation pressure, kPa (Gas); method: Closed cell (Static) method
Mole fraction of carbon monoxide	Temperature, K	Vapor or sublimation pressure, kPa	uncertainty
0.0082	353.2	1390	440
0.0105	333.2	1550	360
0.0108	353.2	1960	370
0.0121	313.2	1500	370
0.0125	333.2	1910	360
0.0146	313.2	1960	350
0.0156	293.2	1750	280
0.0165	353.2	2940	340
0.0179	333.2	2880	340
0.0202	313.2	2900	310
0.0211	293.2	2530	300
0.0225	353.2	3970	380
0.0237	293.2	2980	350
0.024	333.2	3890	370
0.0267	353.2	4880	370
0.0269	313.2	3880	350
0.028	333.2	4850	370
0.0298	293.2	4050	310
0.0311	313.2	4800	330
0.0331	353.2	5930	300
0.0341	333.2	5750	300
0.0353	293.2	4750	280
0.0387	313.2	5850	270
0.0407	353.2	7000	280
0.0418	293.2	5720	300
0.0418	333.2	6860	260
0.0465	313.2	6880	230
0.0478	353.2	7980	280
0.0487	293.2	6730	230
0.0508	333.2	7870	230
0.0557	313.2	7780	200
0.0596	293.2	7800	200

System: propanoic acid + carbon monoxide; phases: Liquid, Gas
Property: Mass density, kg/m3 (Liquid); method: Pycnometric method
Temperature, K	Mole fraction of carbon monoxide	Mass density, kg/m3	uncertainty
293.2	0.0156	988.2	10.1
293.2	0.0211	983.1	10.1
293.2	0.0237	978.3	10.2
293.2	0.0298	970.5	10.1
293.2	0.0353	962.3	10.2
293.2	0.0418	950.4	10.2
293.2	0.0487	937.2	10
293.2	0.0596	919.7	9.7
313.2	0.0121	985.4	11.4
313.2	0.0146	978.3	10.2
313.2	0.0202	972.6	10
313.2	0.0269	965.1	10.1
313.2	0.0311	957.4	10.1
313.2	0.0387	945.2	10.1
313.2	0.0465	931.2	10.1
313.2	0.0557	913.3	9.9
333.2	0.0105	977.4	10.3
333.2	0.0125	971.2	10.1
333.2	0.0179	964.9	9.9
333.2	0.024	958	10
333.2	0.028	949.8	10.3
333.2	0.0341	938.5	10.1
333.2	0.0418	925.3	10
333.2	0.0508	907.7	9.9
353.2	0.0082	968.4	10.5
353.2	0.0108	963	10
353.2	0.0165	956.7	9.7
353.2	0.0225	952.3	9.8
353.2	0.0267	944.7	10.1
353.2	0.0331	933.4	10
353.2	0.0407	919.6	10.1
353.2	0.0478	902.3	10.3

System: propanoic acid + carbon monoxide; phases: Gas, Liquid
Property: Mass density, kg/m3 (Gas); method: Pycnometric method
Temperature, K	Mole fraction of carbon monoxide	Mass density, kg/m3	uncertainty
293.2	0.0156	23.1	2.6
293.2	0.0211	30.1	3.2
293.2	0.0237	36.6	3.6
293.2	0.0298	46.1	3
293.2	0.0353	53.7	3.2
293.2	0.0418	65.1	3.3
293.2	0.0487	75.2	2.9
293.2	0.0596	89.7	2.8
313.2	0.0121	17.4	2.6
313.2	0.0146	20.7	3.6
313.2	0.0202	31.1	3.5
313.2	0.0269	41.7	3.5
313.2	0.0311	50.2	3.6
313.2	0.0387	62.7	2.7
313.2	0.0465	70.3	2.7
313.2	0.0557	84.2	3.1
333.2	0.0105	11.2	3.9
333.2	0.0125	15	3.8
333.2	0.0179	25.9	3.8
333.2	0.024	37.1	3.9
333.2	0.028	46.6	4
333.2	0.0341	56.5	3
333.2	0.0418	66.6	3
333.2	0.0508	80.6	3.2
353.2	0.0082	6.2	3
353.2	0.0108	10.1	3.5
353.2	0.0165	20.5	3.8
353.2	0.0225	32.5	3.9
353.2	0.0267	40.4	4
353.2	0.0331	53.7	3.5
353.2	0.0407	64.7	3.3
353.2	0.0478	77.2	3.6

System: propanoic acid + carbon monoxide; phases: Gas, Liquid
Property: Mole fraction of carbon monoxide (Gas); method: gravimetric
Mole fraction of carbon monoxide	Temperature, K	Mole fraction of carbon monoxide	uncertainty
0.0082	353.2	0.9943	0.002
0.0105	333.2	0.996	0.002
0.0108	353.2	0.9942	0.002
0.0121	313.2	0.9971	0.002
0.0125	333.2	0.9963	0.002
0.0146	313.2	0.9973	0.002
0.0156	293.2	0.9985	0.0015
0.0165	353.2	0.9933	0.0021
0.0179	333.2	0.9955	0.002
0.0202	313.2	0.9967	0.002
0.0211	293.2	0.9981	0.0019
0.0225	353.2	0.9912	0.0022
0.0237	293.2	0.9977	0.002
0.024	333.2	0.9939	0.0021
0.0267	353.2	0.9892	0.0022
0.0269	313.2	0.9958	0.002
0.028	333.2	0.9923	0.0021
0.0298	293.2	0.9966	0.002
0.0311	313.2	0.9946	0.0021
0.0331	353.2	0.9869	0.0022
0.0341	333.2	0.9899	0.0022
0.0353	293.2	0.9959	0.002
0.0387	313.2	0.9919	0.0021
0.0407	353.2	0.9824	0.0025
0.0418	293.2	0.9945	0.0021
0.0418	333.2	0.9861	0.0024
0.0465	313.2	0.9889	0.0022
0.0478	353.2	0.9755	0.0028
0.0487	293.2	0.9918	0.0022
0.0508	333.2	0.9789	0.0026
0.0557	313.2	0.9846	0.0022
0.0596	293.2	0.9871	0.0022

System: methyl methanoate + carbon monoxide; phases: Liquid, Gas
Property: Vapor or sublimation pressure, kPa (Liquid); method: Closed cell (Static) method
Mole fraction of carbon monoxide	Temperature, K	Vapor or sublimation pressure, kPa	uncertainty
0.0063	353.2	1890	440
0.01	353.2	2710	360
0.0101	333.2	1780	440
0.012	313.2	1650	320
0.0136	333.2	2630	330
0.0159	353.2	3650	280
0.0184	293.2	1760	490
0.0196	313.2	2850	300
0.0204	333.2	3560	270
0.0214	293.2	2500	300
0.0224	353.2	4430	230
0.0259	313.2	3730	240
0.0274	293.2	3150	250
0.0286	333.2	4660	210
0.0297	353.2	5210	220
0.0342	293.2	4080	230
0.0358	313.2	4810	210
0.0401	353.2	6360	200
0.0412	333.2	5740	180
0.0445	293.2	5100	200
0.0473	313.2	5950	190
0.0496	333.2	6580	210
0.054	293.2	6060	190
0.0549	353.2	7750	180
0.0598	313.2	7100	200
0.0613	333.2	7790	190
0.0691	313.2	8060	180
0.0696	353.2	8980	170
0.0735	293.2	7830	160
0.0744	333.2	8860	170
0.0812	313.2	8960	150
0.0914	293.2	8950	130

System: methyl methanoate + carbon monoxide; phases: Liquid, Gas
Property: Mass density, kg/m3 (Liquid); method: Pycnometric method
Temperature, K	Mole fraction of carbon monoxide	Mass density, kg/m3	uncertainty
293.2	0.0184	976.3	9.8
293.2	0.0214	976.1	9.8
293.2	0.0274	974.9	9.8
293.2	0.0342	971.3	9.8
293.2	0.0445	964.7	9.8
293.2	0.054	954.7	9.8
293.2	0.0735	932.5	9.6
293.2	0.0914	911.2	9.4
313.2	0.012	972.1	9.7
313.2	0.0196	971.5	9.7
313.2	0.0259	969.3	9.8
313.2	0.0358	962.4	9.8
313.2	0.0473	950.8	9.7
313.2	0.0598	937.3	9.7
313.2	0.0691	924.7	9.7
313.2	0.0812	904.3	9.7
333.2	0.0101	969.2	9.7
333.2	0.0136	968.7	9.7
333.2	0.0204	967.6	9.7
333.2	0.0286	960.7	9.8
333.2	0.0412	947.8	9.7
333.2	0.0496	937.5	9.7
333.2	0.0613	923	9.7
333.2	0.0744	901.3	9.6
353.2	0.0063	964.6	9.7
353.2	0.01	964.2	9.7
353.2	0.0159	963.2	9.7
353.2	0.0224	956.8	9.8
353.2	0.0297	948.7	9.8
353.2	0.0401	935.3	9.7
353.2	0.0549	916.8	9.6
353.2	0.0696	895.8	9.4

System: methyl methanoate + carbon monoxide; phases: Gas, Liquid
Property: Mass density, kg/m3 (Gas); method: Pycnometric method
Temperature, K	Mole fraction of carbon monoxide	Mass density, kg/m3	uncertainty
293.2	0.0184	19.2	1.5
293.2	0.0214	21.5	1.3
293.2	0.0274	25.2	2.2
293.2	0.0342	35.6	2.7
293.2	0.0445	48.2	2.6
293.2	0.054	61.3	3.3
293.2	0.0735	94.3	3.1
293.2	0.0914	116.1	2.7
313.2	0.012	13.2	1.5
313.2	0.0196	18.9	1.9
313.2	0.0259	26.7	2.5
313.2	0.0358	39.1	2.7
313.2	0.0473	54.8	3
313.2	0.0598	74.2	3.7
313.2	0.0691	94.1	3.5
313.2	0.0812	111.2	3
333.2	0.0101	12.3	1.1
333.2	0.0136	14	1.7
333.2	0.0204	20.8	2.6
333.2	0.0286	33.2	2.4
333.2	0.0412	45.5	2.6
333.2	0.0496	60.3	3.7
333.2	0.0613	82.6	3.6
333.2	0.0744	104.3	3.5
353.2	0.0063	10.3	0.5
353.2	0.01	11.2	1.4
353.2	0.0159	16.9	2.4
353.2	0.0224	25.9	2.6
353.2	0.0297	34.6	2.7
353.2	0.0401	49.3	3.1
353.2	0.0549	73.6	3.4
353.2	0.0696	98.4	3.5

System: methyl methanoate + carbon monoxide; phases: Gas, Liquid
Property: Mole fraction of carbon monoxide (Gas); method: gravimetric
Mole fraction of carbon monoxide	Temperature, K	Mole fraction of carbon monoxide	uncertainty
0.0063	353.2	0.0103	0.0021
0.01	353.2	0.0112	0.0025
0.0101	333.2	0.0123	0.0023
0.012	313.2	0.0132	0.0025
0.0136	333.2	0.014	0.0026
0.0159	353.2	0.0169	0.0031
0.0184	293.2	0.0192	0.0025
0.0196	313.2	0.0189	0.0028
0.0204	333.2	0.0208	0.0033
0.0214	293.2	0.0215	0.0024
0.0224	353.2	0.0259	0.0033
0.0259	313.2	0.0267	0.0032
0.0274	293.2	0.0252	0.003
0.0286	333.2	0.0332	0.0031
0.0297	353.2	0.0346	0.0033
0.0342	293.2	0.0356	0.0033
0.0358	313.2	0.0391	0.0033
0.0401	353.2	0.0493	0.0037
0.0412	333.2	0.0455	0.0032
0.0445	293.2	0.0482	0.0033
0.0473	313.2	0.0548	0.0035
0.0496	333.2	0.0603	0.0042
0.054	293.2	0.0613	0.0038
0.0549	353.2	0.0736	0.0039
0.0598	313.2	0.0742	0.0041
0.0613	333.2	0.0826	0.0041
0.0691	313.2	0.0941	0.0039
0.0696	353.2	0.0984	0.0039
0.0735	293.2	0.0943	0.0036
0.0744	333.2	0.1043	0.0039
0.0812	313.2	0.1112	0.0035
0.0914	293.2	0.1161	0.0032
