Measured thermophysical data. Surface Tension and Refractive Index of Benzylamine and 1,2-Diaminopropane Aqueous Solutions from T = (283.15 to 323.15) K
Source: J. Chem. Eng. Data, 2012, 10.1021/je300382a
Compound 1: benzylamine, C7H9N, InChI=1S/C7H9N/c8-6-7-4-2-1-3-5-7/h1-5H,6,8H2, purity 99%
Compound 2: 1,2-propanediamine, C3H10N2, InChI=1S/C3H10N2/c1-3(5)2-4/h3H,2,4-5H2,1H3, purity 99%
Compound 3: water, H2O, InChI=1S/H2O/h1H2, purity 99.9%

System: benzylamine; phases: Liquid, Air at 1 atmosphere
Property: Surface tension liquid-gas, N/m (Liquid); method: Ring tensiometer
Temperature, K	Surface tension liquid-gas, N/m	uncertainty
283.15	0.0379	0.0006
293.15	0.0371	0.0005
303.15	0.0363	0.0005
313.15	0.0356	0.0005
323.15	0.035	0.001

System: benzylamine; phases: Liquid
Fixed: Pressure, kPa = 101.325
Property: Refractive index (Na D-line) (Liquid); method: Standard Abbe refractometry
Temperature, K	Refractive index (Na D-line)	uncertainty
283.15	1.5516	0.0004
293.15	1.5445	0.0004
303.15	1.5393	0.0004
313.15	1.5328	0.0004
323.15	1.5279	0.0004

System: 1,2-propanediamine; phases: Liquid, Air at 1 atmosphere
Property: Surface tension liquid-gas, N/m (Liquid); method: Ring tensiometer
Temperature, K	Surface tension liquid-gas, N/m	uncertainty
283.15	0.035	0.0005
293.15	0.0338	0.0005
303.15	0.0327	0.0005
313.15	0.0314	0.0005
323.15	0.0303	0.0005

System: 1,2-propanediamine; phases: Liquid
Fixed: Pressure, kPa = 101.325
Property: Refractive index (Na D-line) (Liquid); method: Standard Abbe refractometry
Temperature, K	Refractive index (Na D-line)	uncertainty
283.15	1.451	0.0004
293.15	1.4458	0.0004
303.15	1.4409	0.0004
313.15	1.4362	0.0004
323.15	1.4314	0.0004

System: benzylamine + water; phases: Liquid, Air at 1 atmosphere
Property: Surface tension liquid-gas, N/m (Liquid); method: Ring tensiometer
Temperature, K	Mole fraction of benzylamine	Surface tension liquid-gas, N/m	uncertainty
283.15	0	0.0742	0.0009
283.15	0.0001	0.0695	0.0011
283.15	0.0005	0.0604	0.0025
283.15	0.001	0.0549	0.0032
283.15	0.003	0.0486	0.0086
283.15	0.006	0.0421	0.0017
283.15	0.01	0.0414	0.0006
283.15	0.03	0.0395	0.0005
283.15	0.05	0.0393	0.0005
283.15	0.07	0.0389	0.0005
283.15	0.1	0.0387	0.0005
283.15	0.2	0.0386	0.0005
283.15	0.3	0.0384	0.0005
283.15	0.4	0.0384	0.0005
283.15	0.5	0.0383	0.0005
283.15	0.6	0.0382	0.0005
283.15	0.7	0.0381	0.0005
283.15	0.8	0.0381	0.0005
283.15	0.9	0.038	0.0005
283.15	1	0.0379	0.0006
293.15	0	0.0726	0.0009
293.15	0.0001	0.0677	0.0016
293.15	0.0005	0.0581	0.0042
293.15	0.001	0.0531	0.0048
293.15	0.003	0.0461	0.0085
293.15	0.006	0.0407	0.0014
293.15	0.01	0.04	0.0006
293.15	0.03	0.0384	0.0005
293.15	0.05	0.0383	0.0005
293.15	0.07	0.0381	0.0005
293.15	0.1	0.038	0.0005
293.15	0.2	0.0378	0.0005
293.15	0.3	0.0375	0.0005
293.15	0.4	0.0375	0.0005
293.15	0.5	0.0376	0.0005
293.15	0.6	0.0374	0.0005
293.15	0.7	0.0373	0.0005
293.15	0.8	0.0373	0.0005
293.15	0.9	0.0372	0.0005
293.15	1	0.0371	0.0005
303.15	0	0.0711	0.0009
303.15	0.0001	0.0655	0.0015
303.15	0.0005	0.0561	0.0042
303.15	0.001	0.0506	0.0046
303.15	0.003	0.0443	0.0085
303.15	0.006	0.0392	0.0013
303.15	0.01	0.0386	0.0006
303.15	0.03	0.0375	0.0005
303.15	0.05	0.0375	0.0005
303.15	0.07	0.0373	0.0005
303.15	0.1	0.0372	0.0005
303.15	0.2	0.037	0.0005
303.15	0.3	0.0369	0.0005
303.15	0.4	0.0369	0.0005
303.15	0.5	0.0368	0.0005
303.15	0.6	0.0366	0.0005
303.15	0.7	0.0365	0.0005
303.15	0.8	0.0365	0.0005
303.15	0.9	0.0364	0.0005
303.15	1	0.0363	0.0005
313.15	0	0.0692	0.0009
313.15	0.0001	0.0632	0.0016
313.15	0.0005	0.0543	0.0042
313.15	0.001	0.0488	0.0045
313.15	0.003	0.0426	0.0084
313.15	0.006	0.0377	0.0012
313.15	0.01	0.0375	0.0005
313.15	0.03	0.0363	0.0005
313.15	0.05	0.0363	0.0005
313.15	0.07	0.0362	0.0005
313.15	0.1	0.0362	0.0005
313.15	0.2	0.0361	0.0005
313.15	0.3	0.0359	0.0005
313.15	0.4	0.0359	0.0005
313.15	0.5	0.0359	0.0005
313.15	0.6	0.0357	0.0005
313.15	0.7	0.0358	0.0005
313.15	0.8	0.0358	0.0005
313.15	0.9	0.0357	0.0005
313.15	1	0.0356	0.0005
323.15	0	0.0677	0.0009
323.15	0.0001	0.0616	0.0011
323.15	0.0005	0.0523	0.0025
323.15	0.001	0.0472	0.0036
323.15	0.003	0.0401	0.0084
323.15	0.006	0.0364	0.001
323.15	0.01	0.036	0.0005
323.15	0.03	0.0356	0.0005
323.15	0.05	0.0355	0.0005
323.15	0.07	0.0355	0.0005
323.15	0.1	0.0354	0.0005
323.15	0.2	0.0354	0.0005
323.15	0.3	0.0352	0.0005
323.15	0.4	0.0352	0.0005
323.15	0.5	0.0352	0.0005
323.15	0.6	0.0352	0.0005
323.15	0.7	0.0351	0.0005
323.15	0.8	0.0351	0.0005
323.15	0.9	0.0351	0.0005
323.15	1	0.035	0.001

System: benzylamine + water; phases: Liquid
Fixed: Pressure, kPa = 101
Property: Refractive index (Na D-line) (Liquid); method: Standard Abbe refractometry
Temperature, K	Mole fraction of benzylamine	Refractive index (Na D-line)	uncertainty
283.15	0	1.3343	0.0003
283.15	0.0001	1.3338	0.0003
283.15	0.0005	1.3344	0.0007
283.15	0.001	1.3351	0.0013
283.15	0.003	1.3376	0.0018
283.15	0.006	1.3411	0.002
283.15	0.01	1.3461	0.002
283.15	0.03	1.3683	0.0017
283.15	0.05	1.387	0.0015
283.15	0.07	1.4047	0.0013
283.15	0.1	1.4252	0.0008
283.15	0.2	1.468	0.0006
283.15	0.3	1.4957	0.0005
283.15	0.4	1.5143	0.0004
283.15	0.5	1.5263	0.0004
283.15	0.6	1.5343	0.0004
283.15	0.7	1.5399	0.0004
283.15	0.8	1.5447	0.0004
283.15	0.9	1.5491	0.0004
283.15	1	1.5516	0.0004
293.15	0	1.333	0.0003
293.15	0.0001	1.3331	0.0004
293.15	0.0005	1.3337	0.0007
293.15	0.001	1.3343	0.0013
293.15	0.003	1.3368	0.002
293.15	0.006	1.3403	0.0019
293.15	0.01	1.3449	0.0019
293.15	0.03	1.367	0.0016
293.15	0.05	1.3853	0.0014
293.15	0.07	1.4007	0.0012
293.15	0.1	1.4214	0.0008
293.15	0.2	1.4648	0.0006
293.15	0.3	1.4918	0.0005
293.15	0.4	1.5097	0.0004
293.15	0.5	1.5218	0.0004
293.15	0.6	1.5296	0.0004
293.15	0.7	1.5355	0.0004
293.15	0.8	1.5397	0.0004
293.15	0.9	1.5429	0.0004
293.15	1	1.5445	0.0004
303.15	0	1.3319	0.0003
303.15	0.0001	1.3321	0.0006
303.15	0.0005	1.3326	0.0007
303.15	0.001	1.3333	0.0013
303.15	0.003	1.3357	0.002
303.15	0.006	1.3392	0.002
303.15	0.01	1.3441	0.0019
303.15	0.03	1.3654	0.0016
303.15	0.05	1.3834	0.0014
303.15	0.07	1.3985	0.0012
303.15	0.1	1.4183	0.0008
303.15	0.2	1.4614	0.0006
303.15	0.3	1.4879	0.0005
303.15	0.4	1.5057	0.0004
303.15	0.5	1.5172	0.0004
303.15	0.6	1.5252	0.0004
303.15	0.7	1.5307	0.0004
303.15	0.8	1.5344	0.0004
303.15	0.9	1.5375	0.0004
303.15	1	1.5393	0.0004
313.15	0	1.3306	0.0003
313.15	0.0001	1.331	0.0004
313.15	0.0005	1.3312	0.0007
313.15	0.001	1.3318	0.0013
313.15	0.003	1.3342	0.0019
313.15	0.006	1.3376	0.0019
313.15	0.01	1.3423	0.0019
313.15	0.03	1.3634	0.0016
313.15	0.05	1.381	0.0013
313.15	0.07	1.3961	0.0012
313.15	0.1	1.4163	0.0008
313.15	0.2	1.4592	0.0006
313.15	0.3	1.4848	0.0005
313.15	0.4	1.5024	0.0004
313.15	0.5	1.5129	0.0004
313.15	0.6	1.5202	0.0004
313.15	0.7	1.5259	0.0004
313.15	0.8	1.5296	0.0004
313.15	0.9	1.5319	0.0004
313.15	1	1.5328	0.0004
323.15	0	1.329	0.0003
323.15	0.0001	1.3298	0.0003
323.15	0.0005	1.3297	0.0007
323.15	0.001	1.3303	0.0012
323.15	0.003	1.3327	0.0019
323.15	0.006	1.3361	0.0018
323.15	0.01	1.3405	0.0018
323.15	0.03	1.3614	0.0016
323.15	0.05	1.3787	0.0013
323.15	0.07	1.3937	0.0012
323.15	0.1	1.4136	0.0008
323.15	0.2	1.4569	0.0006
323.15	0.3	1.4818	0.0005
323.15	0.4	1.4985	0.0004
323.15	0.5	1.5084	0.0004
323.15	0.6	1.5159	0.0004
323.15	0.7	1.5211	0.0004
323.15	0.8	1.5247	0.0004
323.15	0.9	1.527	0.0004
323.15	1	1.5279	0.0004

System: 1,2-propanediamine + water; phases: Liquid, Air at 1 atmosphere
Property: Surface tension liquid-gas, N/m (Liquid); method: Ring tensiometer
Temperature, K	Mole fraction of 1,2-propanediamine	Surface tension liquid-gas, N/m	uncertainty
283.15	0	0.0742	0.0009
283.15	0.01	0.0674	0.0011
283.15	0.03	0.0621	0.0009
283.15	0.05	0.0581	0.0008
283.15	0.07	0.055	0.0007
283.15	0.1	0.0517	0.0007
283.15	0.2	0.0476	0.0006
283.15	0.3	0.0448	0.0006
283.15	0.4	0.0425	0.0006
283.15	0.5	0.0406	0.0006
283.15	0.6	0.0383	0.0005
283.15	0.7	0.0375	0.0005
283.15	0.8	0.0362	0.0005
283.15	0.9	0.0354	0.0005
283.15	1	0.035	0.0005
293.15	0	0.0726	0.0009
293.15	0.01	0.0661	0.001
293.15	0.03	0.0605	0.0009
293.15	0.05	0.0564	0.0008
293.15	0.07	0.0535	0.0007
293.15	0.1	0.0505	0.0007
293.15	0.2	0.0464	0.0006
293.15	0.3	0.0437	0.0006
293.15	0.4	0.0411	0.0006
293.15	0.5	0.0392	0.0005
293.15	0.6	0.0372	0.0005
293.15	0.7	0.0364	0.0005
293.15	0.8	0.0351	0.0005
293.15	0.9	0.0342	0.0005
293.15	1	0.0338	0.0005
303.15	0	0.0713	0.0009
303.15	0.01	0.0647	0.001
303.15	0.03	0.0587	0.0009
303.15	0.05	0.055	0.0008
303.15	0.07	0.0519	0.0007
303.15	0.1	0.0489	0.0007
303.15	0.2	0.045	0.0006
303.15	0.3	0.0424	0.0006
303.15	0.4	0.0401	0.0006
303.15	0.5	0.0379	0.0005
303.15	0.6	0.0361	0.0005
303.15	0.7	0.0352	0.0005
303.15	0.8	0.0339	0.0005
303.15	0.9	0.033	0.0005
303.15	1	0.0327	0.0005
313.15	0	0.0692	0.0009
313.15	0.01	0.0628	0.001
313.15	0.03	0.0573	0.0008
313.15	0.05	0.0537	0.0008
313.15	0.07	0.0505	0.0007
313.15	0.1	0.0473	0.0006
313.15	0.2	0.0432	0.0006
313.15	0.3	0.041	0.0006
313.15	0.4	0.0386	0.0005
313.15	0.5	0.0366	0.0005
313.15	0.6	0.0351	0.0005
313.15	0.7	0.0341	0.0005
313.15	0.8	0.0327	0.0005
313.15	0.9	0.0319	0.0005
313.15	1	0.0314	0.0005
323.15	0	0.0677	0.0009
323.15	0.01	0.061	0.001
323.15	0.03	0.056	0.0008
323.15	0.05	0.0522	0.0007
323.15	0.07	0.0491	0.0007
323.15	0.1	0.0458	0.0006
323.15	0.2	0.0419	0.0006
323.15	0.3	0.0397	0.0005
323.15	0.4	0.0374	0.0005
323.15	0.5	0.0355	0.0005
323.15	0.6	0.0339	0.0005
323.15	0.7	0.0329	0.0005
323.15	0.8	0.0317	0.0005
323.15	0.9	0.0307	0.0005
323.15	1	0.0303	0.0005

System: 1,2-propanediamine + water; phases: Liquid
Fixed: Pressure, kPa = 101
Property: Refractive index (Na D-line) (Liquid); method: Standard Abbe refractometry
Temperature, K	Mole fraction of 1,2-propanediamine	Refractive index (Na D-line)	uncertainty
283.15	0	1.3343	0.0003
283.15	0.01	1.34	0.001
283.15	0.03	1.3522	0.001
283.15	0.05	1.3635	0.0009
283.15	0.07	1.374	0.0008
283.15	0.1	1.3882	0.0006
283.15	0.2	1.4209	0.0005
283.15	0.3	1.4356	0.0004
283.15	0.4	1.4448	0.0003
283.15	0.5	1.4486	0.0003
283.15	0.6	1.4504	0.0003
283.15	0.7	1.4511	0.0003
283.15	0.8	1.4515	0.0004
283.15	0.9	1.4512	0.0004
283.15	1	1.451	0.0004
293.15	0	1.333	0.0003
293.15	0.01	1.3392	0.001
293.15	0.03	1.3512	0.001
293.15	0.05	1.3621	0.0009
293.15	0.07	1.3723	0.0008
293.15	0.1	1.3859	0.0006
293.15	0.2	1.4173	0.0005
293.15	0.3	1.4317	0.0004
293.15	0.4	1.4405	0.0003
293.15	0.5	1.4443	0.0003
293.15	0.6	1.4459	0.0003
293.15	0.7	1.4466	0.0003
293.15	0.8	1.4468	0.0004
293.15	0.9	1.4465	0.0004
293.15	1	1.4458	0.0004
303.15	0	1.3319	0.0003
303.15	0.01	1.3381	0.001
303.15	0.03	1.3499	0.0009
303.15	0.05	1.3604	0.0009
303.15	0.07	1.3703	0.0008
303.15	0.1	1.3835	0.0006
303.15	0.2	1.4137	0.0005
303.15	0.3	1.4273	0.0004
303.15	0.4	1.4363	0.0003
303.15	0.5	1.4401	0.0003
303.15	0.6	1.4415	0.0003
303.15	0.7	1.4418	0.0003
303.15	0.8	1.442	0.0004
303.15	0.9	1.4415	0.0004
303.15	1	1.4409	0.0004
313.15	0	1.3306	0.0003
313.15	0.01	1.3366	0.001
313.15	0.03	1.3488	0.001
313.15	0.05	1.3592	0.0008
313.15	0.07	1.3685	0.0008
313.15	0.1	1.3816	0.0006
313.15	0.2	1.4111	0.0005
313.15	0.3	1.4236	0.0004
313.15	0.4	1.4321	0.0003
313.15	0.5	1.4356	0.0003
313.15	0.6	1.4369	0.0003
313.15	0.7	1.4374	0.0003
313.15	0.8	1.4371	0.0004
313.15	0.9	1.4368	0.0004
313.15	1	1.4362	0.0004
323.15	0	1.329	0.0003
323.15	0.01	1.3352	0.0011
323.15	0.03	1.3478	0.001
323.15	0.05	1.3579	0.0008
323.15	0.07	1.3667	0.0008
323.15	0.1	1.3797	0.0006
323.15	0.2	1.4085	0.0005
323.15	0.3	1.4208	0.0004
323.15	0.4	1.4279	0.0003
323.15	0.5	1.4311	0.0003
323.15	0.6	1.4323	0.0003
323.15	0.7	1.4325	0.0003
323.15	0.8	1.4323	0.0004
323.15	0.9	1.4319	0.0004
323.15	1	1.4314	0.0004
