Measured thermophysical data. Solubility and Induction Period Study of Asiaticoside and Madecassoside in a Methanol + Water Mixture
Source: J. Chem. Eng. Data, 2012, 10.1021/je300883a
Compound 1: madecassoside, C48H78O20, InChI=1S/C48H78O20/c1-19-10-11-48(13-12-46(6)22(28(48)20(19)2)8-9-27-44(4)14-24(52)39(61)45(5,18-50)38(44)23(51)15-47(27,46)7)43(62)68-42-35(59)32(56)30(54)26(66-42)17-63-40-36(60)33(57)37(25(16-49)65-40)67-41-34(58)31(55)29(53)21(3)64-41/h8,19-21,23-42,49-61H,9-18H2,1-7H3, purity 90%
Compound 2: methanol, CH4O, InChI=1S/CH4O/c1-2/h2H,1H3, purity 99.5%
Compound 3: water, H2O, InChI=1S/H2O/h1H2

System: methanol + water + madecassoside; phases: Liquid, Crystal
Fixed: Pressure, kPa = 101
Property: Mole fraction of madecassoside (Liquid); method: Chromatography
Temperature, K	Solvent: Mole fraction of methanol	Mole fraction of madecassoside	uncertainty
298.15	0	8.11e-05	1.02e-05
298.15	0.0288	7.28e-05	9e-06
298.15	0.0588	7.35e-05	8.8e-06
298.15	0.0903	8.43e-05	9.9e-06
298.15	0.1233	0.0001054	1.21e-05
298.15	0.1942	0.0001278	1.4e-05
298.15	0.2727	0.0001818	1.89e-05
298.15	0.36	0.0002505	2.46e-05
298.15	0.4576	0.0002799	2.6e-05
298.15	0.5676	0.0002646	2.31e-05
298.15	0.6923	0.0002014	1.65e-05
298.15	0.8351	0.0001504	1.15e-05
298.15	0.874	0.0001624	1.22e-05
298.15	0.9144	0.0001927	1.42e-05
298.15	0.9564	0.0002887	2.08e-05
298.15	0.978	0.0004156	2.97e-05
298.15	0.9889	0.0006589	4.69e-05
298.15	1	0.0013826	9.8e-05
303.15	0	0.0001057	1.33e-05
303.15	0.0288	8.82e-05	1.09e-05
303.15	0.0588	9.23e-05	1.11e-05
303.15	0.0903	0.0001061	1.25e-05
303.15	0.1233	0.0001283	1.47e-05
303.15	0.1942	0.0001544	1.69e-05
303.15	0.2727	0.0002289	2.38e-05
303.15	0.36	0.0002946	2.9e-05
303.15	0.4576	0.000347	3.2e-05
303.15	0.5676	0.0003139	2.74e-05
303.15	0.6923	0.0002397	1.96e-05
303.15	0.8351	0.000183	1.4e-05
303.15	0.874	0.0001931	1.45e-05
303.15	0.9144	0.0002117	1.56e-05
303.15	0.9564	0.0003144	2.27e-05
303.15	0.978	0.0004641	3.32e-05
303.15	0.9889	0.0007163	5.1e-05
303.15	1	0.0015434	0.0001094
308.15	0	0.0001607	2.04e-05
308.15	0.0288	0.0001363	1.68e-05
308.15	0.0588	0.0001407	1.7e-05
308.15	0.0903	0.0001499	1.76e-05
308.15	0.1233	0.0001612	1.85e-05
308.15	0.1942	0.0001985	2.17e-05
308.15	0.2727	0.0002854	2.97e-05
308.15	0.36	0.0003619	3.56e-05
308.15	0.4576	0.0004361	4.05e-05
308.15	0.5676	0.0003928	3.43e-05
308.15	0.6923	0.0003046	2.49e-05
308.15	0.8351	0.0002107	1.61e-05
308.15	0.874	0.0002238	1.68e-05
308.15	0.9144	0.0002434	1.79e-05
308.15	0.9564	0.0003557	2.57e-05
308.15	0.978	0.0005246	3.75e-05
308.15	0.9889	0.0007933	5.65e-05
308.15	1	0.0017501	0.000124
313.15	0	0.0003494	6.1e-05
313.15	0.0288	0.0002181	2.71e-05
313.15	0.0588	0.0001923	2.32e-05
313.15	0.0903	0.0001933	2.28e-05
313.15	0.1233	0.0002032	2.33e-05
313.15	0.1942	0.0002483	2.72e-05
313.15	0.2727	0.0003752	3.9e-05
313.15	0.36	0.0004573	4.5e-05
313.15	0.4576	0.0005268	4.89e-05
313.15	0.5676	0.0004731	4.13e-05
313.15	0.6923	0.0003592	2.94e-05
313.15	0.8351	0.0002544	1.94e-05
313.15	0.874	0.0002614	1.96e-05
313.15	0.9144	0.0002952	2.17e-05
313.15	0.9564	0.0004049	2.92e-05
313.15	0.978	0.000603	4.3e-05
313.15	0.9889	0.0009049	6.44e-05
313.15	1	0.0017286	0.0001225
314.15	0	0.0007729	9.87e-05
318.15	0	0.0012545	0.0001591
318.15	0.0288	0.0004852	7.44e-05
318.15	0.0588	0.0003364	4.12e-05
318.15	0.0903	0.0002713	3.2e-05
318.15	0.1233	0.0002633	3.03e-05
318.15	0.1942	0.0003372	3.69e-05
318.15	0.2727	0.0004866	5.06e-05
318.15	0.36	0.0006006	5.91e-05
318.15	0.4576	0.0006681	6.21e-05
318.15	0.5676	0.0005948	5.2e-05
318.15	0.6923	0.0004461	3.65e-05
318.15	0.8351	0.0003094	2.36e-05
318.15	0.874	0.0003142	2.35e-05
318.15	0.9144	0.0003403	2.5e-05
318.15	0.9564	0.0004734	3.42e-05
318.15	0.978	0.000685	4.9e-05
318.15	0.9889	0.0010171	7.24e-05
318.15	1	0.0015927	0.0001226
319.15	0	0.0018551	0.0002597
320.15	0	0.0035163	0.0004813
321.15	0	0.0055786	0.0007351
323.15	0.0288	0.0018	0.000268
323.15	0.0588	0.0009663	0.0001274
323.15	0.0903	0.0003965	4.67e-05
323.15	0.1233	0.0003537	4.07e-05
323.15	0.1942	0.0004729	5.18e-05
323.15	0.2727	0.0006311	6.56e-05
323.15	0.36	0.0007974	7.85e-05
323.15	0.4576	0.0008472	7.88e-05
323.15	0.5676	0.0007766	6.79e-05
323.15	0.6923	0.0005202	4.51e-05
323.15	0.8351	0.0003614	2.76e-05
323.15	0.874	0.0003688	2.77e-05
323.15	0.9144	0.000417	3.1e-05
323.15	0.9564	0.0005759	4.16e-05
323.15	0.978	0.0008035	5.85e-05
323.15	0.9889	0.0012082	8.61e-05
324.15	0.0288	0.0033017	0.0004362
325.15	0.0288	0.0049101	0.0006295
326.15	0.0288	0.006632	0.000839
328.15	0.0588	0.0023183	0.0002812
328.15	0.0903	0.0005638	6.79e-05
328.15	0.1233	0.000482	5.5e-05
328.15	0.1942	0.0006491	7.11e-05
328.15	0.2727	0.0008308	8.64e-05
328.15	0.36	0.0010333	0.0001017
328.15	0.4576	0.001095	0.000102
328.15	0.5676	0.0010108	8.83e-05
328.15	0.6923	0.0006618	5.43e-05
328.15	0.8351	0.0004452	3.4e-05
328.15	0.874	0.0004562	3.42e-05
328.15	0.9144	0.000541	4e-05
328.15	0.9564	0.0007308	5.29e-05
328.15	0.978	0.0009743	7e-05
328.15	0.9889	0.0014718	0.0001049
