Measured thermophysical data. Liquid Liquid Equilibrium for the Ternary System Acetone Oxime Methyl Ether Acetone Water
Source: J. Chem. Eng. Data, 2013, 10.1021/je301319g
Compound 1: propan-2-one O-methyl oxime, C4H9NO, InChI=1S/C4H9NO/c1-4(2)5-6-3/h1-3H3
Compound 2: acetone, C3H6O, InChI=1S/C3H6O/c1-3(2)4/h1-2H3, purity 99.5%
Compound 3: water, H2O, InChI=1S/H2O/h1H2, purity 99.9%

System: propan-2-one O-methyl oxime; phases: Liquid
Property: Mass density, kg/m3 (Liquid); method: Vibrating tube method
Temperature, K	Pressure, kPa	Mass density, kg/m3	uncertainty
293.15	101.325	830	2

System: propan-2-one O-methyl oxime; phases: Liquid
Property: Refractive index (Na D-line) (Liquid); method: Standard Abbe refractometry
Temperature, K	Pressure, kPa	Refractive index (Na D-line)	uncertainty
293.15	101.325	1.397	0.0041

System: acetone; phases: Liquid
Property: Mass density, kg/m3 (Liquid); method: Vibrating tube method
Temperature, K	Pressure, kPa	Mass density, kg/m3	uncertainty
293.15	101.325	784.3	2

System: acetone; phases: Liquid
Property: Refractive index (Na D-line) (Liquid); method: Standard Abbe refractometry
Temperature, K	Pressure, kPa	Refractive index (Na D-line)	uncertainty
293.15	101.325	1.3559	0.0041

System: acetone + propan-2-one O-methyl oxime + water; phases: Liquid mixture 2, Liquid mixture 1
Fixed: Pressure, kPa = 101
Property: Mole fraction of acetone (Liquid mixture 2); method: Chromatography
Property: Mole fraction of acetone (Liquid mixture 1); method: Chromatography
Property: Mole fraction of propan-2-one O-methyl oxime (Liquid mixture 1); method: Chromatography
Temperature, K	Mole fraction of propan-2-one O-methyl oxime	Mole fraction of acetone	uncertainty	Mole fraction of acetone	uncertainty	Mole fraction of propan-2-one O-methyl oxime	uncertainty
293.15	0.0955	0		0		0.9814	
293.15	0.1202	0.0601	0.0196	0.0179	0.0106	0.9626	
293.15	0.1386	0.0958	0.0149	0.0278	0.0102	0.9495	
293.15	0.1671	0.1348	0.013	0.041	0.011	0.933	
293.15	0.1995	0.173	0.0132	0.0599	0.0108	0.9152	
293.15	0.2639	0.2602	0.0101	0.0792	0.0096	0.891	
293.15	0.3399	0.2791	0.0083	0.1189	0.0098	0.8259	
293.15	0.4196	0.2742	0.0083	0.1402	0.0099	0.8063	
293.15	0.5089	0.2616	0.0083	0.1674	0.0094	0.7604	
303.15	0.1088	0		0		0.9884	
303.15	0.119	0.0561	0.0382	0.0108	0.01	0.9768	
303.15	0.1306	0.1015	0.0191	0.0209	0.0101	0.9609	
303.15	0.1727	0.1724	0.0143	0.043	0.0105	0.9346	
303.15	0.1983	0.2059	0.012	0.0599	0.0104	0.9153	
303.15	0.2549	0.2602	0.0099	0.0818	0.0102	0.8879	
303.15	0.3131	0.2863	0.0084	0.0935	0.0095	0.8731	
303.15	0.3997	0.2892	0.0084	0.1226	0.0093	0.8241	
303.15	0.5105	0.2567	0.0085	0.1819	0.0094	0.7248	
313.15	0.1181	0		0		0.9874	
313.15	0.1303	0.0429	0.0277	0.0127	0.0106	0.9798	
313.15	0.1493	0.1087	0.0214	0.0305	0.0095	0.9558	
313.15	0.1932	0.1993	0.0164	0.0404	0.0098	0.9399	
313.15	0.2196	0.2326	0.0128	0.0643	0.0098	0.9074	
313.15	0.2493	0.2676	0.0109	0.0743	0.0104	0.8929	
313.15	0.2887	0.2924	0.0085	0.0735	0.0102	0.9	
313.15	0.3437	0.2934	0.0083	0.0831	0.0117	0.8829	
313.15	0.4354	0.28	0.0083	0.1258	0.0099	0.8264	
323.15	0.144	0		0		0.9914	
323.15	0.1523	0.0403	0.0403	0.007	0.007	0.9806	
323.15	0.1618	0.1038	0.027	0.0152	0.0098	0.9736	
323.15	0.186	0.1573	0.0153	0.0357	0.01	0.9412	
323.15	0.2395	0.2335	0.0111	0.055	0.0108	0.9222	
323.15	0.3153	0.2815	0.0091	0.0802	0.0103	0.8922	
323.15	0.3618	0.2891	0.0083	0.0892	0.0096	0.8794	
323.15	0.4347	0.2704	0.0084	0.117	0.0097	0.8371	
323.15	0.504	0.2595	0.0083	0.1371	0.0098	0.8086	
