Measured thermophysical data. Surface Tension of Dialkyl Carbonates + (Alkanes or 1,4-Dimethylbenzene) and 1,4-Dimethylbenzene + Alkanes Binary Mixtures at T = 308.15 K
Source: J. Chem. Eng. Data, 2013, 10.1021/je301282p
Compound 1: dimethyl carbonate, C3H6O3, InChI=1S/C3H6O3/c1-5-3(4)6-2/h1-2H3, purity 99%
Compound 2: diethyl carbonate, C5H10O3, InChI=1S/C5H10O3/c1-3-7-5(6)8-4-2/h3-4H2,1-2H3, purity 99.5%
Compound 3: 1,4-dimethylbenzene, C8H10, InChI=1S/C8H10/c1-7-3-5-8(2)6-4-7/h3-6H,1-2H3, purity 99%
Compound 4: octane, C8H18, InChI=1S/C8H18/c1-3-5-7-8-6-4-2/h3-8H2,1-2H3, purity 99.5%
Compound 5: decane, C10H22, InChI=1S/C10H22/c1-3-5-7-9-10-8-6-4-2/h3-10H2,1-2H3, purity 99%

System: dimethyl carbonate; phases: Liquid, Gas
Property: Surface tension liquid-gas, N/m (Liquid); method: Drop volume
Temperature, K	Surface tension liquid-gas, N/m	uncertainty
308.15	0.02655	0.00023

System: diethyl carbonate; phases: Liquid, Gas
Property: Surface tension liquid-gas, N/m (Liquid); method: Drop volume
Temperature, K	Surface tension liquid-gas, N/m	uncertainty
308.15	0.02402	0.00019

System: 1,4-dimethylbenzene; phases: Liquid, Gas
Property: Surface tension liquid-gas, N/m (Liquid); method: Drop volume
Temperature, K	Surface tension liquid-gas, N/m	uncertainty
308.15	0.02629	0.00023

System: octane; phases: Liquid, Gas
Property: Surface tension liquid-gas, N/m (Liquid); method: Drop volume
Temperature, K	Surface tension liquid-gas, N/m	uncertainty
308.15	0.0199	0.0002

System: decane; phases: Liquid, Gas
Property: Surface tension liquid-gas, N/m (Liquid); method: Drop volume
Temperature, K	Surface tension liquid-gas, N/m	uncertainty
308.15	0.0221	0.00021

System: octane + dimethyl carbonate; phases: Liquid, Gas
Fixed: Temperature, K = 308.15
Property: Surface tension liquid-gas, N/m (Liquid); method: Drop volume
Mole fraction of dimethyl carbonate	Surface tension liquid-gas, N/m	uncertainty
0.0503	0.0198	0.00024
0.0976	0.01978	0.00024
0.196	0.01985	0.00024
0.2941	0.01993	0.00024
0.3969	0.02009	0.00024
0.495	0.02025	0.00025
0.5455	0.02039	0.00025
0.5971	0.02054	0.00025
0.6977	0.0208	0.00025
0.7977	0.02147	0.00025
0.8983	0.02304	0.00026
0.9492	0.02453	0.00027

System: decane + dimethyl carbonate; phases: Liquid, Gas
Fixed: Temperature, K = 308.15
Property: Surface tension liquid-gas, N/m (Liquid); method: Drop volume
Mole fraction of dimethyl carbonate	Surface tension liquid-gas, N/m	uncertainty
0.0512	0.02195	0.00026
0.09	0.02192	0.00026
0.2006	0.0219	0.00026
0.2853	0.02192	0.00026
0.3971	0.02197	0.00026
0.4949	0.02211	0.00026
0.5987	0.02201	0.00026
0.6988	0.02218	0.00026
0.7971	0.02254	0.00026
0.8983	0.02381	0.00027
0.9505	0.02482	0.00027

System: diethyl carbonate + octane; phases: Liquid, Gas
Fixed: Temperature, K = 308.15
Property: Surface tension liquid-gas, N/m (Liquid); method: Drop volume
Mole fraction of diethyl carbonate	Surface tension liquid-gas, N/m	uncertainty
0.049	0.01983	0.00024
0.1008	0.01989	0.00024
0.2	0.01991	0.00024
0.2969	0.02005	0.00024
0.3972	0.02026	0.00024
0.4971	0.0205	0.00024
0.5495	0.02063	0.00024
0.5991	0.02079	0.00024
0.695	0.02116	0.00024
0.7938	0.0217	0.00024
0.8978	0.02263	0.00024
0.9504	0.02333	0.00024

System: diethyl carbonate + decane; phases: Liquid, Gas
Fixed: Temperature, K = 308.15
Property: Surface tension liquid-gas, N/m (Liquid); method: Drop volume
Mole fraction of diethyl carbonate	Surface tension liquid-gas, N/m	uncertainty
0.0512	0.0219	0.00026
0.0983	0.02184	0.00026
0.1997	0.02175	0.00026
0.2968	0.02178	0.00025
0.406	0.02184	0.00025
0.499	0.02188	0.00025
0.5621	0.02196	0.00025
0.5994	0.02199	0.00025
0.6966	0.02219	0.00025
0.7951	0.02249	0.00025
0.9018	0.0231	0.00025
0.9511	0.0235	0.00025

System: 1,4-dimethylbenzene + dimethyl carbonate; phases: Liquid, Gas
Fixed: Temperature, K = 308.15
Property: Surface tension liquid-gas, N/m (Liquid); method: Drop volume
Mole fraction of dimethyl carbonate	Surface tension liquid-gas, N/m	uncertainty
0.0503	0.02619	0.00027
0.1937	0.02597	0.00027
0.2988	0.02584	0.00027
0.4013	0.02576	0.00027
0.5016	0.0257	0.00027
0.6032	0.02567	0.00027
0.7029	0.02567	0.00027
0.7964	0.02574	0.00027
0.8945	0.02598	0.00027
0.9442	0.02613	0.00027

System: diethyl carbonate + 1,4-dimethylbenzene; phases: Liquid, Gas
Fixed: Temperature, K = 308.15
Property: Surface tension liquid-gas, N/m (Liquid); method: Drop volume
Mole fraction of diethyl carbonate	Surface tension liquid-gas, N/m	uncertainty
0.0995	0.02598	0.00027
0.2009	0.02568	0.00027
0.2985	0.02542	0.00026
0.3971	0.02518	0.00026
0.4956	0.02494	0.00026
0.5433	0.02483	0.00026
0.6007	0.0247	0.00025
0.6457	0.0246	0.00025
0.6995	0.02449	0.00025
0.7986	0.0243	0.00025
0.899	0.02412	0.00025
0.9497	0.02406	0.00025

System: 1,4-dimethylbenzene + octane; phases: Liquid, Gas
Fixed: Temperature, K = 308.15
Property: Surface tension liquid-gas, N/m (Liquid); method: Drop volume
Mole fraction of 1,4-dimethylbenzene	Surface tension liquid-gas, N/m	uncertainty
0.0488	0.02002	0.00024
0.109	0.02025	0.00024
0.1953	0.02052	0.00024
0.2973	0.02096	0.00024
0.3959	0.02141	0.00025
0.4978	0.02191	0.00025
0.5503	0.0222	0.00025
0.5935	0.02246	0.00025
0.6966	0.02311	0.00026
0.8004	0.02393	0.00026
0.9017	0.02492	0.00027
0.9504	0.0255	0.00027

System: 1,4-dimethylbenzene + decane; phases: Liquid, Gas
Fixed: Temperature, K = 308.15
Property: Surface tension liquid-gas, N/m (Liquid); method: Drop volume
Mole fraction of 1,4-dimethylbenzene	Surface tension liquid-gas, N/m	uncertainty
0.1047	0.02218	0.00026
0.2152	0.02239	0.00026
0.2977	0.02257	0.00026
0.3945	0.02279	0.00026
0.4993	0.02311	0.00026
0.549	0.02328	0.00026
0.5997	0.02346	0.00027
0.7004	0.02388	0.00027
0.8018	0.02447	0.00027
0.9004	0.0252	0.00027
0.9501	0.02567	0.00027
