Measured thermophysical data. Density and Viscosity of Binary Mixtures of n-Butyl Acetate with Ketones at (298.15, 303.15, 308.15, and 313.15) K
Source: J. Chem. Eng. Data, 2012, 10.1021/je300085z
Compound 1: butyl ethanoate, C6H12O2, InChI=1S/C6H12O2/c1-3-4-5-8-6(2)7/h3-5H2,1-2H3, purity 98%
Compound 2: acetophenone, C8H8O, InChI=1S/C8H8O/c1-7(9)8-5-3-2-4-6-8/h2-6H,1H3, purity 98%
Compound 3: cyclopentanone, C5H8O, InChI=1S/C5H8O/c6-5-3-1-2-4-5/h1-4H2, purity 99%
Compound 4: cyclohexanone, C6H10O, InChI=1S/C6H10O/c7-6-4-2-1-3-5-6/h1-5H2, purity 99%
Compound 5: pentan-3-one, C5H10O, InChI=1S/C5H10O/c1-3-5(6)4-2/h3-4H2,1-2H3, purity 99%

System: butyl ethanoate; phases: Liquid
Fixed: Pressure, kPa = 101
Property: Viscosity, Pa*s (Liquid); method: Capillary tube (Ostwald; Ubbelohde) method
Temperature, K	Viscosity, Pa*s	uncertainty
298.15	0.000686	1.1e-05
303.15	0.000625	1e-05
308.15	0.000589	9e-06
313.15	0.000545	9e-06

System: butyl ethanoate; phases: Liquid
Fixed: Pressure, kPa = 101
Property: Mass density, kg/m3 (Liquid); method: Vibrating tube method
Temperature, K	Mass density, kg/m3	uncertainty
298.15	874.8	1.1
303.15	870.2	1.1
308.15	865.9	1.1
313.15	860.9	1.1

System: acetophenone; phases: Liquid
Fixed: Pressure, kPa = 101
Property: Viscosity, Pa*s (Liquid); method: Capillary tube (Ostwald; Ubbelohde) method
Temperature, K	Viscosity, Pa*s	uncertainty
298.15	0.001674	2.6e-05
303.15	0.001508	2.4e-05
308.15	0.001379	2.1e-05
313.15	0.001266	2e-05

System: acetophenone; phases: Liquid
Fixed: Pressure, kPa = 101
Property: Mass density, kg/m3 (Liquid); method: Vibrating tube method
Temperature, K	Mass density, kg/m3	uncertainty
298.15	1023.6	1.3
303.15	1019.8	1.3
308.15	1016.8	1.3
313.15	1013	1.3

System: cyclopentanone; phases: Liquid
Fixed: Pressure, kPa = 101
Property: Viscosity, Pa*s (Liquid); method: Capillary tube (Ostwald; Ubbelohde) method
Temperature, K	Viscosity, Pa*s	uncertainty
298.15	0.001084	1.4e-05
303.15	0.000998	1.3e-05
308.15	0.000923	1.2e-05
313.15	0.000861	1.1e-05

System: cyclopentanone; phases: Liquid
Fixed: Pressure, kPa = 101
Property: Mass density, kg/m3 (Liquid); method: Vibrating tube method
Temperature, K	Mass density, kg/m3	uncertainty
298.15	943.2	1
303.15	939.4	1
308.15	934.9	1
313.15	929.9	1

System: cyclohexanone; phases: Liquid
Fixed: Pressure, kPa = 101
Property: Viscosity, Pa*s (Liquid); method: Capillary tube (Ostwald; Ubbelohde) method
Temperature, K	Viscosity, Pa*s	uncertainty
298.15	0.002019	2.6e-05
303.15	0.001817	2.4e-05
308.15	0.001631	2.1e-05
313.15	0.001476	1.9e-05

System: cyclohexanone; phases: Liquid
Fixed: Pressure, kPa = 101
Property: Mass density, kg/m3 (Liquid); method: Vibrating tube method
Temperature, K	Mass density, kg/m3	uncertainty
298.15	941.1	1
303.15	937.5	1
308.15	933.4	1
313.15	929	1

System: pentan-3-one; phases: Liquid
Fixed: Pressure, kPa = 101
Property: Viscosity, Pa*s (Liquid); method: Capillary tube (Ostwald; Ubbelohde) method
Temperature, K	Viscosity, Pa*s	uncertainty
298.15	0.000449	6e-06
303.15	0.000419	6e-06
308.15	0.000396	5e-06
313.15	0.000376	5e-06

System: pentan-3-one; phases: Liquid
Fixed: Pressure, kPa = 101
Property: Mass density, kg/m3 (Liquid); method: Vibrating tube method
Temperature, K	Mass density, kg/m3	uncertainty
298.15	809.1	0.8
303.15	805.4	0.8
308.15	801.2	0.8
313.15	796.7	0.8

System: acetophenone + butyl ethanoate; phases: Liquid
Fixed: Pressure, kPa = 101
Property: Viscosity, Pa*s (Liquid); method: Capillary tube (Ostwald; Ubbelohde) method
Temperature, K	Mole fraction of butyl ethanoate	Viscosity, Pa*s	uncertainty
298.15	0	0.001674	2.6e-05
298.15	0.0904	0.001557	2.4e-05
298.15	0.1786	0.001452	2.3e-05
298.15	0.2746	0.001341	2.1e-05
298.15	0.37	0.001232	1.9e-05
298.15	0.4671	0.001129	1.8e-05
298.15	0.5675	0.001028	1.6e-05
298.15	0.672	0.000933	1.5e-05
298.15	0.7729	0.000848	1.3e-05
298.15	0.8848	0.000763	1.2e-05
298.15	1	0.000686	1.1e-05
303.15	0	0.001508	2.4e-05
303.15	0.0904	0.001405	2.2e-05
303.15	0.1786	0.001312	2e-05
303.15	0.2746	0.001212	1.9e-05
303.15	0.37	0.001115	1.7e-05
303.15	0.4671	0.001024	1.6e-05
303.15	0.5675	0.000934	1.5e-05
303.15	0.672	0.000849	1.3e-05
303.15	0.7729	0.000772	1.2e-05
303.15	0.8848	0.000696	1.1e-05
303.15	1	0.000625	1e-05
308.15	0	0.001379	2.1e-05
308.15	0.0904	0.00129	2e-05
308.15	0.1786	0.001207	1.9e-05
308.15	0.2746	0.001119	1.7e-05
308.15	0.37	0.001034	1.6e-05
308.15	0.4671	0.00095	1.5e-05
308.15	0.5675	0.00087	1.4e-05
308.15	0.672	0.000792	1.2e-05
308.15	0.7729	0.000724	1.1e-05
308.15	0.8848	0.000655	1e-05
308.15	1	0.000589	9e-06
313.15	0	0.001266	2e-05
313.15	0.0904	0.001188	1.8e-05
313.15	0.1786	0.001112	1.7e-05
313.15	0.2746	0.001032	1.6e-05
313.15	0.37	0.000954	1.5e-05
313.15	0.4671	0.000877	1.4e-05
313.15	0.5675	0.000804	1.3e-05
313.15	0.672	0.000734	1.1e-05
313.15	0.7729	0.000671	1.1e-05
313.15	0.8848	0.000608	1e-05
313.15	1	0.000545	9e-06

System: acetophenone + butyl ethanoate; phases: Liquid
Fixed: Pressure, kPa = 101
Property: Mass density, kg/m3 (Liquid); method: Vibrating tube method
Temperature, K	Mole fraction of butyl ethanoate	Mass density, kg/m3	uncertainty
298.15	0	1023.6	1.3
298.15	0.0904	1010.2	1.3
298.15	0.1786	997	1.3
298.15	0.2746	982.9	1.2
298.15	0.37	968.7	1.2
298.15	0.4671	954.5	1.2
298.15	0.5675	940	1.2
298.15	0.672	924.7	1.2
298.15	0.7729	909.9	1.1
298.15	0.8848	893.2	1.1
298.15	1	874.8	1.1
303.15	0	1019.8	1.3
303.15	0.0904	1006.2	1.3
303.15	0.1786	992.9	1.3
303.15	0.2746	978.6	1.2
303.15	0.37	964.4	1.2
303.15	0.4671	950.1	1.2
303.15	0.5675	935.5	1.2
303.15	0.672	920.1	1.1
303.15	0.7729	905.2	1.1
303.15	0.8848	888.5	1.1
303.15	1	870.2	1.1
308.15	0	1016.8	1.3
308.15	0.0904	1002.9	1.3
308.15	0.1786	989.3	1.2
308.15	0.2746	974.9	1.2
308.15	0.37	960.5	1.2
308.15	0.4671	946	1.2
308.15	0.5675	931.3	1.2
308.15	0.672	915.8	1.1
308.15	0.7729	900.7	1.1
308.15	0.8848	884	1.1
308.15	1	865.9	1.1
313.15	0	1013	1.3
313.15	0.0904	998.8	1.3
313.15	0.1786	985.1	1.2
313.15	0.2746	970.5	1.2
313.15	0.37	956	1.2
313.15	0.4671	941.3	1.2
313.15	0.5675	926.4	1.2
313.15	0.672	910.8	1.1
313.15	0.7729	895.6	1.1
313.15	0.8848	878.9	1.1
313.15	1	860.9	1.1

System: cyclopentanone + butyl ethanoate; phases: Liquid
Fixed: Pressure, kPa = 101
Property: Viscosity, Pa*s (Liquid); method: Capillary tube (Ostwald; Ubbelohde) method
Temperature, K	Mole fraction of butyl ethanoate	Viscosity, Pa*s	uncertainty
298.15	0	0.001084	1.4e-05
298.15	0.0703	0.001044	1.4e-05
298.15	0.1461	0.001	1.3e-05
298.15	0.2264	0.000957	1.3e-05
298.15	0.3112	0.000913	1.2e-05
298.15	0.4036	0.000867	1.2e-05
298.15	0.4995	0.000826	1.2e-05
298.15	0.6079	0.000785	1.1e-05
298.15	0.7264	0.000749	1.1e-05
298.15	0.8541	0.000714	1.1e-05
298.15	1	0.000686	1.1e-05
303.15	0	0.000998	1.3e-05
303.15	0.0703	0.000961	1.3e-05
303.15	0.1461	0.000921	1.2e-05
303.15	0.2264	0.000881	1.2e-05
303.15	0.3112	0.00084	1.1e-05
303.15	0.4036	0.000797	1.1e-05
303.15	0.4995	0.000758	1.1e-05
303.15	0.6079	0.00072	1e-05
303.15	0.7264	0.000686	1e-05
303.15	0.8541	0.000654	1e-05
303.15	1	0.000625	1e-05
308.15	0	0.000923	1.2e-05
308.15	0.0703	0.000892	1.2e-05
308.15	0.1461	0.000856	1.1e-05
308.15	0.2264	0.00082	1.1e-05
308.15	0.3112	0.000783	1.1e-05
308.15	0.4036	0.000746	1e-05
308.15	0.4995	0.00071	1e-05
308.15	0.6079	0.000676	1e-05
308.15	0.7264	0.000645	1e-05
308.15	0.8541	0.000618	9e-06
308.15	1	0.000589	9e-06
313.15	0	0.000861	1.1e-05
313.15	0.0703	0.000835	1.1e-05
313.15	0.1461	0.0008	1.1e-05
313.15	0.2264	0.000766	1e-05
313.15	0.3112	0.000732	1e-05
313.15	0.4036	0.000697	1e-05
313.15	0.4995	0.000662	9e-06
313.15	0.6079	0.00063	9e-06
313.15	0.7264	0.0006	9e-06
313.15	0.8541	0.000575	9e-06
313.15	1	0.000545	9e-06

System: cyclopentanone + butyl ethanoate; phases: Liquid
Fixed: Pressure, kPa = 101
Property: Mass density, kg/m3 (Liquid); method: Vibrating tube method
Temperature, K	Mole fraction of butyl ethanoate	Mass density, kg/m3	uncertainty
298.15	0	943.2	1
298.15	0.0703	936.4	1
298.15	0.1461	929.7	1
298.15	0.2264	923.1	1
298.15	0.3112	916.5	1
298.15	0.4036	909.6	1
298.15	0.4995	902.9	1
298.15	0.6079	895.9	1
298.15	0.7264	888.9	1
298.15	0.8541	882	1
298.15	1	874.8	1.1
303.15	0	939.4	1
303.15	0.0703	932.8	1
303.15	0.1461	926.2	1
303.15	0.2264	919.5	1
303.15	0.3112	912.8	1
303.15	0.4036	905.8	1
303.15	0.4995	899	1
303.15	0.6079	891.9	1
303.15	0.7264	884.8	1
303.15	0.8541	877.6	1
303.15	1	870.2	1.1
308.15	0	934.9	1
308.15	0.0703	928.7	1
308.15	0.1461	922.1	1
308.15	0.2264	915.4	1
308.15	0.3112	908.6	1
308.15	0.4036	901.6	1
308.15	0.4995	894.8	1
308.15	0.6079	887.7	1
308.15	0.7264	880.5	1
308.15	0.8541	873.3	1
308.15	1	865.9	1.1
313.15	0	929.9	1
313.15	0.0703	924.2	1
313.15	0.1461	917.6	1
313.15	0.2264	910.9	1
313.15	0.3112	904.1	1
313.15	0.4036	897	1
313.15	0.4995	890.1	1
313.15	0.6079	882.9	1
313.15	0.7264	875.6	1
313.15	0.8541	868.4	1
313.15	1	860.9	1.1

System: cyclohexanone + butyl ethanoate; phases: Liquid
Fixed: Pressure, kPa = 101
Property: Viscosity, Pa*s (Liquid); method: Capillary tube (Ostwald; Ubbelohde) method
Temperature, K	Mole fraction of butyl ethanoate	Viscosity, Pa*s	uncertainty
298.15	0	0.002019	2.6e-05
298.15	0.0814	0.001757	2.3e-05
298.15	0.165	0.001536	2.1e-05
298.15	0.2509	0.001362	1.9e-05
298.15	0.3438	0.001214	1.7e-05
298.15	0.4391	0.001099	1.5e-05
298.15	0.5412	0.000995	1.4e-05
298.15	0.6451	0.000914	1.3e-05
298.15	0.7589	0.000836	1.3e-05
298.15	0.8707	0.000767	1.2e-05
298.15	1	0.000686	1.1e-05
303.15	0	0.001817	2.4e-05
303.15	0.0814	0.001589	2.1e-05
303.15	0.165	0.001393	1.9e-05
303.15	0.2509	0.001235	1.7e-05
303.15	0.3438	0.001101	1.5e-05
303.15	0.4391	0.000999	1.4e-05
303.15	0.5412	0.000904	1.3e-05
303.15	0.6451	0.00083	1.2e-05
303.15	0.7589	0.000763	1.1e-05
303.15	0.8707	0.0007	1.1e-05
303.15	1	0.000625	1e-05
308.15	0	0.001631	2.1e-05
308.15	0.0814	0.001445	1.9e-05
308.15	0.165	0.001274	1.7e-05
308.15	0.2509	0.001137	1.5e-05
308.15	0.3438	0.001016	1.4e-05
308.15	0.4391	0.000922	1.3e-05
308.15	0.5412	0.000838	1.2e-05
308.15	0.6451	0.000774	1.1e-05
308.15	0.7589	0.000711	1.1e-05
308.15	0.8707	0.000658	1e-05
308.15	1	0.000589	9e-06
313.15	0	0.001476	1.9e-05
313.15	0.0814	0.001321	1.7e-05
313.15	0.165	0.001166	1.5e-05
313.15	0.2509	0.001045	1.4e-05
313.15	0.3438	0.000934	1.3e-05
313.15	0.4391	0.000852	1.2e-05
313.15	0.5412	0.000775	1.1e-05
313.15	0.6451	0.000715	1e-05
313.15	0.7589	0.00066	1e-05
313.15	0.8707	0.00061	9e-06
313.15	1	0.000545	9e-06

System: cyclohexanone + butyl ethanoate; phases: Liquid
Fixed: Pressure, kPa = 101
Property: Mass density, kg/m3 (Liquid); method: Vibrating tube method
Temperature, K	Mole fraction of butyl ethanoate	Mass density, kg/m3	uncertainty
298.15	0	941.1	1
298.15	0.0814	935.7	1
298.15	0.165	929.7	1
298.15	0.2509	923.6	1
298.15	0.3438	917.1	1
298.15	0.4391	910.5	1
298.15	0.5412	903.7	1
298.15	0.6451	897.1	1
298.15	0.7589	890	1
298.15	0.8707	883.1	1.1
298.15	1	874.8	1.1
303.15	0	937.5	1
303.15	0.0814	932.1	1
303.15	0.165	926	1
303.15	0.2509	919.8	1
303.15	0.3438	913.2	1
303.15	0.4391	906.5	1
303.15	0.5412	899.6	1
303.15	0.6451	892.9	1
303.15	0.7589	885.7	1
303.15	0.8707	878.7	1
303.15	1	870.2	1.1
308.15	0	933.4	1
308.15	0.0814	928.1	1
308.15	0.165	922	1
308.15	0.2509	915.8	1
308.15	0.3438	909.1	1
308.15	0.4391	902.4	1
308.15	0.5412	895.5	1
308.15	0.6451	888.7	1
308.15	0.7589	881.5	1
308.15	0.8707	874.5	1
308.15	1	865.9	1.1
313.15	0	929	1
313.15	0.0814	923.7	1
313.15	0.165	917.6	1
313.15	0.2509	911.4	1
313.15	0.3438	904.6	1
313.15	0.4391	897.8	1
313.15	0.5412	890.8	1
313.15	0.6451	883.9	1
313.15	0.7589	876.7	1
313.15	0.8707	869.6	1
313.15	1	860.9	1.1

System: pentan-3-one + butyl ethanoate; phases: Liquid
Fixed: Pressure, kPa = 101
Property: Viscosity, Pa*s (Liquid); method: Capillary tube (Ostwald; Ubbelohde) method
Temperature, K	Mole fraction of butyl ethanoate	Viscosity, Pa*s	uncertainty
298.15	0	0.000449	6e-06
298.15	0.0808	0.000478	6e-06
298.15	0.1652	0.0005	7e-06
298.15	0.2542	0.000523	7e-06
298.15	0.349	0.000543	8e-06
298.15	0.4451	0.000558	8e-06
298.15	0.5459	0.000573	8e-06
298.15	0.65	0.00059	9e-06
298.15	0.7613	0.000614	9e-06
298.15	0.8771	0.000645	1e-05
298.15	1	0.000686	1.1e-05
303.15	0	0.000419	6e-06
303.15	0.0808	0.000445	6e-06
303.15	0.1652	0.000464	6e-06
303.15	0.2542	0.000485	7e-06
303.15	0.349	0.0005	7e-06
303.15	0.4451	0.000513	7e-06
303.15	0.5459	0.000526	8e-06
303.15	0.65	0.000541	8e-06
303.15	0.7613	0.000562	8e-06
303.15	0.8771	0.000589	9e-06
303.15	1	0.000625	1e-05
308.15	0	0.000396	5e-06
308.15	0.0808	0.000419	6e-06
308.15	0.1652	0.000437	6e-06
308.15	0.2542	0.000455	6e-06
308.15	0.349	0.000471	7e-06
308.15	0.4451	0.000483	7e-06
308.15	0.5459	0.000495	7e-06
308.15	0.65	0.000509	7e-06
308.15	0.7613	0.000528	8e-06
308.15	0.8771	0.000554	8e-06
308.15	1	0.000589	9e-06
313.15	0	0.000376	5e-06
313.15	0.0808	0.000395	5e-06
313.15	0.1652	0.000411	6e-06
313.15	0.2542	0.000429	6e-06
313.15	0.349	0.000441	6e-06
313.15	0.4451	0.000452	6e-06
313.15	0.5459	0.000461	7e-06
313.15	0.65	0.000474	7e-06
313.15	0.7613	0.000491	7e-06
313.15	0.8771	0.000514	8e-06
313.15	1	0.000545	9e-06

System: pentan-3-one + butyl ethanoate; phases: Liquid
Fixed: Pressure, kPa = 101
Property: Mass density, kg/m3 (Liquid); method: Vibrating tube method
Temperature, K	Mole fraction of butyl ethanoate	Mass density, kg/m3	uncertainty
298.15	0	809.1	0.8
298.15	0.0808	816	0.9
298.15	0.1652	822.8	0.9
298.15	0.2542	829.6	0.9
298.15	0.349	836.4	0.9
298.15	0.4451	843	0.9
298.15	0.5459	849.5	0.9
298.15	0.65	855.8	1
298.15	0.7613	862.2	1
298.15	0.8771	868.5	1
298.15	1	874.8	1.1
303.15	0	805.4	0.8
303.15	0.0808	812.1	0.8
303.15	0.1652	818.8	0.9
303.15	0.2542	825.5	0.9
303.15	0.349	832.2	0.9
303.15	0.4451	838.7	0.9
303.15	0.5459	845.1	0.9
303.15	0.65	851.4	1
303.15	0.7613	857.7	1
303.15	0.8771	863.9	1
303.15	1	870.2	1.1
308.15	0	801.2	0.8
308.15	0.0808	807.8	0.8
308.15	0.1652	814.4	0.9
308.15	0.2542	821.1	0.9
308.15	0.349	827.9	0.9
308.15	0.4451	834.4	0.9
308.15	0.5459	840.8	0.9
308.15	0.65	847	1
308.15	0.7613	853.3	1
308.15	0.8771	859.5	1
308.15	1	865.9	1.1
313.15	0	796.7	0.8
313.15	0.0808	803.1	0.8
313.15	0.1652	809.7	0.9
313.15	0.2542	816.3	0.9
313.15	0.349	823	0.9
313.15	0.4451	829.5	0.9
313.15	0.5459	835.8	0.9
313.15	0.65	842	1
313.15	0.7613	848.3	1
313.15	0.8771	854.5	1
313.15	1	860.9	1.1
