Measured thermophysical data. Speed of Sound and Adiabatic Compressibility of 1-Ethyl-3-methylimidazolium Bis(trifluoromethylsulfonyl)imide under Pressures up to 100 MPa
Source: J. Chem. Eng. Data, 2013, 10.1021/je301192s
Compound 1: 1-ethyl-3-methylimidazolium bis((trifluoromethyl)sulfonyl)imide, C8H11F6N3O4S2, InChI=1S/C6H11N2.C2F6NO4S2/c1-3-8-5-4-7(2)6-8;3-1(4,5)14(10,11)9-15(12,13)2(6,7)8/h4-6H,3H2,1-2H3;/q+1;-1, purity 99%

System: 1-ethyl-3-methylimidazolium bis((trifluoromethyl)sulfonyl)imide; phases: Liquid
Fixed: Pressure, kPa = 101.325
Property: Speed of sound, m/s (Liquid); method: Pulse-echo method
Temperature, K	Speed of sound, m/s	uncertainty
287.05	1265.75	1.19
287.95	1263.58	1.18
288.94	1261.33	1.18
291.9	1254.5	1.18
292.91	1252.24	1.18
293.91	1249.98	1.18
297.89	1240.96	1.18
298.89	1238.76	1.18
302.23	1231.41	1.18
302.89	1229.85	1.18
308.13	1218.5	1.17
313.23	1207.47	1.17
318.21	1196.8	1.17
323.37	1185.92	1.17

System: 1-ethyl-3-methylimidazolium bis((trifluoromethyl)sulfonyl)imide; phases: Liquid
Fixed: Pressure, kPa = 101.325
Property: Mass density, kg/m3 (Liquid); method: Vibrating tube method
Temperature, K	Mass density, kg/m3	uncertainty
278.15	1538.73	0.27
283.15	1533.61	0.26
298.15	1518.37	0.26
313.15	1503.3	0.25
323.15	1493.32	0.25
333.15	1483.42	0.25
348.15	1468.6	0.24
363.15	1454.02	0.24

System: 1-ethyl-3-methylimidazolium bis((trifluoromethyl)sulfonyl)imide; phases: Liquid
Fixed: Pressure, kPa = 101.325
Property: Molar heat capacity at constant pressure, J/K/mol (Liquid); method: Large sample (1 g) DSC
Temperature, K	Molar heat capacity at constant pressure, J/K/mol	uncertainty
293.15	509.9	12.5
295.65	511	12.5
298.15	512	12.5
300.65	513	12.6
303.15	514	12.6
305.65	515.1	12.6
308.15	516.2	12.6
310.65	517.3	12.7
313.15	518.5	12.7
315.65	519.8	12.7
318.15	521.1	12.8
320.65	522.5	12.8
323.15	524	12.8

System: 1-ethyl-3-methylimidazolium bis((trifluoromethyl)sulfonyl)imide; phases: Liquid
Property: Speed of sound, m/s (Liquid); method: Pulse-echo method
Temperature, K	Pressure, kPa	Speed of sound, m/s	uncertainty
288.07	15200	1309.08	2.1
288.07	30390	1350.9	2.12
288.06	45590	1389.68	2.13
288.06	60800	1426.12	2.15
288.05	75990	1460.66	2.17
288.05	91180	1493.55	2.2
288.05	101320	1514.48	2.21
292.87	15200	1298.85	2.1
292.87	30390	1340.83	2.12
292.87	45590	1379.98	2.13
292.87	60800	1416.8	2.15
292.87	75990	1451.5	2.17
292.87	91180	1484.55	2.2
292.87	101320	1505.74	2.21
298.13	15200	1287.27	2.1
298.13	30390	1329.68	2.12
298.13	45590	1369.04	2.13
298.13	60800	1406.29	2.15
298.13	75990	1441.57	2.17
298.12	91180	1475.01	2.2
298.13	101320	1495.92	2.21
308.11	15200	1266.53	2.1
308.11	30390	1309.79	2.11
308.11	45590	1350.01	2.13
308.11	60800	1387.64	2.15
308.11	75990	1423.4	2.17
308.1	91180	1457.24	2.2
308.1	101320	1478.85	2.21
318.25	15200	1245.95	2.1
318.24	30390	1290.11	2.11
318.24	45590	1331.02	2.13
318.23	60800	1369.19	2.15
318.24	75990	1405.41	2.17
318.23	91180	1439.56	2.2
318.24	101320	1461.36	2.21
