Measured thermophysical data. Solubility of Hydrogen Chloride in Three 1-Alkyl-3-methylimidazolium Chloride Ionic Liquids in the Pressure Range (0 to 100) kPa and Temperature Range (298.15 to 363.15) K
Source: J. Chem. Eng. Data, 2012, 10.1021/je3003783
Compound 1: hydrogen chloride, ClH, InChI=1S/ClH/h1H
Compound 2: 1-butyl-3-methylimidazolium chloride, C8H15ClN2, InChI=1S/C8H15N2.ClH/c1-3-4-5-10-7-6-9(2)8-10;/h6-8H,3-5H2,1-2H3;1H/q+1;/p-1
Compound 3: 1-hexyl-3-methylimidazolium chloride, C10H19ClN2, InChI=1S/C10H19N2.ClH/c1-3-4-5-6-7-12-9-8-11(2)10-12;/h8-10H,3-7H2,1-2H3;1H/q+1;/p-1
Compound 4: 1-methyl-3-octylimidazolium chloride, C12H23ClN2, InChI=1S/C12H23N2.ClH/c1-3-4-5-6-7-8-9-14-11-10-13(2)12-14;/h10-12H,3-9H2,1-2H3;1H/q+1;/p-1

System: 1-butyl-3-methylimidazolium chloride; phases: Liquid
Fixed: Pressure, kPa = 101.325
Property: Mass density, kg/m3 (Liquid); method: Vibrating tube method
Temperature, K	Mass density, kg/m3	uncertainty
298.15	1081.59	0.38
323.15	1067.28	0.37
348.15	1053.35	0.35
363.15	1045.06	0.34

System: 1-hexyl-3-methylimidazolium chloride; phases: Liquid
Fixed: Pressure, kPa = 101.325
Property: Mass density, kg/m3 (Liquid); method: Vibrating tube method
Temperature, K	Mass density, kg/m3	uncertainty
298.15	1040.92	0.34
323.15	1026.73	0.32
348.15	1012.81	0.31
363.15	1004.49	0.3

System: 1-methyl-3-octylimidazolium chloride; phases: Liquid
Fixed: Pressure, kPa = 101.325
Property: Mass density, kg/m3 (Liquid); method: Vibrating tube method
Temperature, K	Mass density, kg/m3	uncertainty
298.15	1012.35	0.31
323.15	998.05	0.3
348.15	983.99	0.3
363.15	975.67	0.3

System: hydrogen chloride + 1-butyl-3-methylimidazolium chloride; phases: Liquid, Gas
Property: Mole fraction of hydrogen chloride (Liquid); method: Pressure difference
Temperature, K	Pressure, kPa	Mole fraction of hydrogen chloride	uncertainty
298.15	3.44	0.346	0.001
298.15	4.56	0.403	0.001
298.15	6.13	0.459	0.001
298.15	9.44	0.515	0.001
298.15	15.53	0.556	0.001
298.15	23.65	0.59	0.001
298.15	33.21	0.617	0.001
298.15	46	0.638	0.001
298.15	61.33	0.656	0.001
298.15	74.93	0.67	0.001
298.15	88.92	0.68	0.001
298.15	100.28	0.687	0.001
323.15	2.67	0.319	0.001
323.15	3.41	0.372	0.001
323.15	4.32	0.423	0.001
323.15	6.19	0.472	0.001
323.15	10.35	0.514	0.001
323.15	19.57	0.553	0.001
323.15	32.08	0.581	0.001
323.15	45.74	0.598	0.001
323.15	57.41	0.613	0.001
323.15	70.85	0.626	0.001
323.15	86.59	0.639	0.001
323.15	98.28	0.648	0.001
323.15	104.71	0.652	0.001
348.15	3.6	0.271	0.001
348.15	5.33	0.339	0.001
348.15	7.92	0.41	0.001
348.15	12.25	0.467	0.001
348.15	23.54	0.515	0.001
348.15	44.61	0.554	0.001
348.15	69.65	0.591	0.001
348.15	90.84	0.608	0.001
348.15	99.94	0.613	0.001
363.15	7	0.316	0.001
363.15	11	0.399	0.001
363.15	20.33	0.467	0.001
363.15	36.2	0.506	0.001
363.15	57.93	0.534	0.001
363.15	74.86	0.549	0.001
363.15	88.71	0.56	0.001
363.15	99.99	0.567	0.001

System: hydrogen chloride + 1-hexyl-3-methylimidazolium chloride; phases: Liquid, Gas
Property: Mole fraction of hydrogen chloride (Liquid); method: Pressure difference
Temperature, K	Pressure, kPa	Mole fraction of hydrogen chloride	uncertainty
298.15	3.33	0.276	0.001
298.15	4.53	0.354	0.001
298.15	5.96	0.419	0.001
298.15	8.35	0.475	0.001
298.15	12.53	0.524	0.001
298.15	18.43	0.562	0.001
298.15	26.74	0.594	0.001
298.15	36.72	0.618	0.001
298.15	49.38	0.638	0.001
298.15	64.93	0.655	0.001
298.15	81.6	0.671	0.001
298.15	96.79	0.681	0.001
298.15	108.32	0.688	0.001
323.15	0.85	0.129	0.001
323.15	1.52	0.199	0.001
323.15	2.53	0.278	0.001
323.15	4	0.365	0.001
323.15	6.29	0.427	0.001
323.15	11.05	0.485	0.001
323.15	19.87	0.53	0.001
323.15	31.18	0.562	0.001
323.15	45.89	0.588	0.001
323.15	64.86	0.609	0.001
323.15	82.13	0.624	0.001
323.15	97.79	0.636	0.001
323.15	111.59	0.644	0.001
348.15	2.21	0.253	0.001
348.15	3.36	0.327	0.001
348.15	5.2	0.393	0.001
348.15	9.2	0.452	0.001
348.15	18.21	0.497	0.001
348.15	37.05	0.539	0.001
348.15	57.69	0.567	0.001
348.15	77.53	0.586	0.001
348.15	93.32	0.598	0.001
348.15	104.31	0.605	0.001
363.15	3.47	0.249	0.001
363.15	5.23	0.326	0.001
363.15	8.69	0.396	0.001
363.15	15.36	0.449	0.001
363.15	28.33	0.489	0.001
363.15	46.78	0.519	0.001
363.15	66.93	0.541	0.001
363.15	85.46	0.557	0.001
363.15	102.19	0.568	0.001

System: hydrogen chloride + 1-methyl-3-octylimidazolium chloride; phases: Liquid, Gas
Property: Mole fraction of hydrogen chloride (Liquid); method: Pressure difference
Temperature, K	Pressure, kPa	Mole fraction of hydrogen chloride	uncertainty
298.15	2.13	0.266	0.001
298.15	3.11	0.355	0.001
298.15	4.37	0.417	0.001
298.15	6.93	0.475	0.001
298.15	12.17	0.529	0.001
298.15	18.85	0.565	0.001
298.15	28.08	0.595	0.001
298.15	40.17	0.62	0.001
298.15	54.13	0.64	0.001
298.15	67.99	0.654	0.001
298.15	81.19	0.665	0.001
298.15	93.28	0.674	0.001
298.15	104.59	0.68	0.001
323.15	2.29	0.25	0.001
323.15	3.49	0.332	0.001
323.15	5.47	0.408	0.001
323.15	10	0.469	0.001
323.15	17.89	0.515	0.001
323.15	29.3	0.552	0.001
323.15	42.88	0.58	0.001
323.15	65.57	0.599	0.001
323.15	80.25	0.611	0.001
323.15	92.23	0.621	0.001
323.15	104	0.629	0.001
348.15	4.69	0.33	0.001
348.15	7.73	0.391	0.001
348.15	13.47	0.445	0.001
348.15	24.24	0.49	0.001
348.15	38.85	0.524	0.001
348.15	53.56	0.546	0.001
348.15	67	0.566	0.001
348.15	81.76	0.579	0.001
348.15	93.06	0.59	0.001
348.15	101.64	0.596	0.001
363.15	6.51	0.254	0.001
363.15	10.09	0.337	0.001
363.15	15.92	0.41	0.001
363.15	27.02	0.463	0.001
363.15	44.89	0.504	0.001
363.15	61.7	0.529	0.001
363.15	77.73	0.546	0.001
363.15	93.99	0.561	0.001
363.15	105.87	0.569	0.001
