Measured thermophysical data. Phase Behavior of the Ternary System Acetylferrocene, The Ionic Liquid 1-Butyl-3-methylimidazolium Bis(trifluoromethylsulfonyl)imide, and Carbon Dioxide To Be Applied in Friedel Crafts Acylation Reactions
Source: J. Chem. Eng. Data, 2013, 10.1021/je301241k
Compound 1: acetylferrocene, C12H12FeO, InChI=1S/C7H7O.C5H5.Fe/c1-6(8)7-4-2-3-5-7;1-2-4-5-3-1;/h2-5H,1H3;1-5H;/q2*-1;+2, purity 98%
Compound 2: carbon dioxide, CO2, InChI=1S/CO2/c2-1-3, purity 99.99%
Compound 3: 1-butyl-3-methylimidazolium bis(trifluoromethylsulfonyl)imide, C10H15F6N3O4S2, InChI=1S/C8H15N2.C2F6NO4S2/c1-3-4-5-10-7-6-9(2)8-10;3-1(4,5)14(10,11)9-15(12,13)2(6,7)8/h6-8H,3-5H2,1-2H3;/q+1;-1, purity 99%

System: carbon dioxide + acetylferrocene + 1-butyl-3-methylimidazolium bis(trifluoromethylsulfonyl)imide; phases: Liquid, Gas
Fixed: Solvent: Mole fraction of acetylferrocene = 0.05
Property: Vapor or sublimation pressure, kPa (Liquid); method: Closed cell (Static) method
Mole fraction of carbon dioxide	Temperature, K	Vapor or sublimation pressure, kPa	uncertainty
0.101	278.36	257	54
0.101	283.36	307	57
0.101	288.4	327	60
0.101	293.29	347	66
0.101	298.33	387	71
0.101	303.39	408	75
0.101	308.38	466	79
0.101	313.4	498	83
0.101	318.36	542	89
0.101	323.37	587	94
0.101	328.42	622	100
0.101	333.49	672	105
0.101	338.44	727	112
0.101	343.43	784	118
0.101	348.45	833	123
0.101	353.45	893	131
0.101	358.39	933	137
0.101	363.51	988	145
0.101	368.41	1038	152
0.1997	278.37	783	44
0.1997	283.31	852	47
0.1997	288.38	919	51
0.1997	293.38	1003	57
0.1997	298.33	1075	61
0.1997	303.32	1154	68
0.1997	308.39	1233	72
0.1997	313.36	1320	78
0.1997	318.35	1418	86
0.1997	323.38	1513	92
0.1997	328.34	1608	99
0.1997	333.37	1712	106
0.1997	338.43	1829	112
0.1997	343.32	1938	119
0.1997	348.3	2051	126
0.1997	353.4	2174	133
0.1997	358.47	2292	141
0.1997	363.39	2412	149
0.1997	368.43	2540	157
0.3076	278.36	1158	49
0.3076	283.31	1262	53
0.3076	288.29	1380	59
0.3076	293.36	1519	65
0.3076	298.34	1652	72
0.3076	303.33	1800	78
0.3076	308.33	1948	89
0.3076	313.33	2106	98
0.3076	318.34	2309	106
0.3076	323.27	2481	115
0.3076	328.32	2659	124
0.3076	333.34	2852	133
0.3076	338.43	3039	142
0.3076	343.4	3232	151
0.3076	348.36	3435	160
0.3076	353.34	3637	170
0.3076	358.32	3844	180
0.3076	363.39	4062	191
0.3076	368.46	4284	201
0.401	278.43	1766	52
0.401	283.45	1927	59
0.401	288.39	2101	68
0.401	293.44	2316	76
0.401	298.41	2528	86
0.401	303.45	2741	94
0.401	308.47	3033	103
0.401	313.46	3303	114
0.401	318.42	3573	124
0.401	323.49	3848	136
0.401	328.5	4119	149
0.401	333.49	4414	163
0.401	338.48	4699	178
0.401	343.52	5000	193
0.401	348.52	5310	209
0.401	353.54	5625	224
0.401	358.52	5940	240
0.401	363.53	6290	258
0.401	368.48	6606	300
0.5004	278.39	2152	40
0.5004	283.38	2402	50
0.5004	288.34	2678	60
0.5004	293.45	2971	68
0.5004	298.37	3297	78
0.5004	303.42	3612	89
0.5004	308.42	3927	93
0.5004	313.48	4298	102
0.5004	318.41	4689	114
0.5004	323.44	5099	128
0.5004	328.45	5525	144
0.5004	333.49	5981	160
0.5004	338.49	6456	179
0.5004	343.44	6941	198
0.5004	348.52	7457	217
0.5004	353.48	7942	236
0.5004	358.47	8458	257
0.5004	363.54	9028	293
0.5004	368.57	10059	348
