Measured thermophysical data. Densities, Viscosities, and Refractive Indices of Binary Mixtures of 1,2,3,4-Tetrahydronaphthalene with Some n-Alkanes at T = (293.15 to 313.15) K
Source: J. Chem. Eng. Data, 2012, 10.1021/je300899n
Compound 1: 1,2,3,4-tetrahydronaphthalene, C10H12, InChI=1S/C10H12/c1-2-6-10-8-4-3-7-9(10)5-1/h1-2,5-6H,3-4,7-8H2, purity 99%
Compound 2: octane, C8H18, InChI=1S/C8H18/c1-3-5-7-8-6-4-2/h3-8H2,1-2H3, purity 99%
Compound 3: nonane, C9H20, InChI=1S/C9H20/c1-3-5-7-9-8-6-4-2/h3-9H2,1-2H3, purity 99%
Compound 4: decane, C10H22, InChI=1S/C10H22/c1-3-5-7-9-10-8-6-4-2/h3-10H2,1-2H3, purity 99%

System: 1,2,3,4-tetrahydronaphthalene; phases: Liquid
Fixed: Pressure, kPa = 101.325
Property: Refractive index (Na D-line) (Liquid); method: Standard Abbe refractometry
Temperature, K	Refractive index (Na D-line)	uncertainty
293.15	1.54	0.004
303.15	1.536	0.004

System: 1,2,3,4-tetrahydronaphthalene; phases: Liquid
Fixed: Pressure, kPa = 101
Property: Viscosity, Pa*s (Liquid); method: Concentric cylinders viscometry
Temperature, K	Viscosity, Pa*s	uncertainty
293.15	0.002229	1.6e-05
298.15	0.002021	1.4e-05
303.15	0.00184	1.3e-05
313.15	0.001549	1.2e-05

System: 1,2,3,4-tetrahydronaphthalene; phases: Liquid
Fixed: Pressure, kPa = 101
Property: Mass density, kg/m3 (Liquid); method: Vibrating tube method
Temperature, K	Mass density, kg/m3	uncertainty
293.15	968.9	0.229
298.15	964.948	0.229
303.15	960.985	0.229
313.15	953.06	0.229

System: octane; phases: Liquid
Fixed: Pressure, kPa = 101.325
Property: Refractive index (Na D-line) (Liquid); method: Standard Abbe refractometry
Temperature, K	Refractive index (Na D-line)	uncertainty
293.15	1.397	0.004
303.15	1.3923	0.004

System: octane; phases: Liquid
Fixed: Pressure, kPa = 101
Property: Viscosity, Pa*s (Liquid); method: Concentric cylinders viscometry
Temperature, K	Viscosity, Pa*s	uncertainty
293.15	0.000556	7e-06
298.15	0.000529	6e-06
303.15	0.000501	6e-06
313.15	0.000456	6e-06

System: octane; phases: Liquid
Fixed: Pressure, kPa = 101
Property: Mass density, kg/m3 (Liquid); method: Vibrating tube method
Temperature, K	Mass density, kg/m3	uncertainty
293.15	702.758	0.245
298.15	698.734	0.246
303.15	694.686	0.246
313.15	686.521	0.247

System: nonane; phases: Liquid
Fixed: Pressure, kPa = 101.325
Property: Refractive index (Na D-line) (Liquid); method: Standard Abbe refractometry
Temperature, K	Refractive index (Na D-line)	uncertainty
293.15	1.4068	0.004
303.15	1.4022	0.004

System: nonane; phases: Liquid
Fixed: Pressure, kPa = 101
Property: Viscosity, Pa*s (Liquid); method: Concentric cylinders viscometry
Temperature, K	Viscosity, Pa*s	uncertainty
293.15	0.000727	7e-06
298.15	0.000681	7e-06
303.15	0.000641	7e-06
313.15	0.000572	7e-06

System: nonane; phases: Liquid
Fixed: Pressure, kPa = 101
Property: Mass density, kg/m3 (Liquid); method: Vibrating tube method
Temperature, K	Mass density, kg/m3	uncertainty
293.15	718.442	0.244
298.15	714.563	0.244
303.15	710.6	0.244
313.15	702.808	0.245

System: decane; phases: Liquid
Fixed: Pressure, kPa = 101.325
Property: Refractive index (Na D-line) (Liquid); method: Standard Abbe refractometry
Temperature, K	Refractive index (Na D-line)	uncertainty
293.15	1.4123	0.004
303.15	1.4087	0.004

System: decane; phases: Liquid
Fixed: Pressure, kPa = 101
Property: Viscosity, Pa*s (Liquid); method: Concentric cylinders viscometry
Temperature, K	Viscosity, Pa*s	uncertainty
293.15	0.000925	8e-06
298.15	0.00086	8e-06
303.15	0.000802	8e-06
313.15	0.000705	7e-06

System: decane; phases: Liquid
Fixed: Pressure, kPa = 101
Property: Mass density, kg/m3 (Liquid); method: Vibrating tube method
Temperature, K	Mass density, kg/m3	uncertainty
293.15	731.056	0.242
298.15	727.291	0.243
303.15	723.504	0.243
313.15	715.893	0.244

System: octane + 1,2,3,4-tetrahydronaphthalene; phases: Liquid
Fixed: Pressure, kPa = 101
Property: Viscosity, Pa*s (Liquid); method: Concentric cylinders viscometry
Temperature, K	Mole fraction of octane	Viscosity, Pa*s	uncertainty
293.15	0	0.002229	1.6e-05
293.15	0.0997	0.001831	1.3e-05
293.15	0.2011	0.001527	1.2e-05
293.15	0.3013	0.001303	1e-05
293.15	0.3997	0.001143	9e-06
293.15	0.5003	0.000976	9e-06
293.15	0.5995	0.00085	8e-06
293.15	0.7001	0.000747	7e-06
293.15	0.8014	0.000673	7e-06
293.15	0.8955	0.000612	7e-06
293.15	1	0.000556	7e-06
298.15	0	0.002021	1.4e-05
298.15	0.0997	0.001675	1.2e-05
298.15	0.2011	0.001405	1.1e-05
298.15	0.3013	0.001207	1e-05
298.15	0.3997	0.001063	9e-06
298.15	0.5003	0.000918	8e-06
298.15	0.5995	0.000811	8e-06
298.15	0.7001	0.000702	7e-06
298.15	0.8014	0.000635	7e-06
298.15	0.8955	0.00058	7e-06
298.15	1	0.000529	6e-06
303.15	0	0.00184	1.3e-05
303.15	0.0997	0.001533	1.2e-05
303.15	0.2011	0.001294	1e-05
303.15	0.3013	0.001118	9e-06
303.15	0.3997	0.000989	9e-06
303.15	0.5003	0.000857	8e-06
303.15	0.5995	0.000762	8e-06
303.15	0.7001	0.000662	7e-06
303.15	0.8014	0.000599	7e-06
303.15	0.8955	0.00055	7e-06
303.15	1	0.000501	6e-06
313.15	0	0.001549	1.2e-05
313.15	0.0997	0.001308	1e-05
313.15	0.2011	0.001117	9e-06
313.15	0.3013	0.000971	9e-06
313.15	0.3997	0.000866	8e-06
313.15	0.5003	0.000757	7e-06
313.15	0.5995	0.000675	7e-06
313.15	0.7001	0.000592	7e-06
313.15	0.8014	0.000539	6e-06
313.15	0.8955	0.000496	6e-06
313.15	1	0.000456	6e-06

System: octane + 1,2,3,4-tetrahydronaphthalene; phases: Liquid
Fixed: Pressure, kPa = 101
Property: Refractive index (Na D-line) (Liquid); method: Standard Abbe refractometry
Temperature, K	Mole fraction of octane	Refractive index (Na D-line)	uncertainty
293.15	0	1.54	0.004
293.15	0.0997	1.5238	0.004
293.15	0.2011	1.5068	0.004
293.15	0.3013	1.495	0.004
293.15	0.3997	1.4846	0.004
293.15	0.5003	1.4681	0.004
293.15	0.5995	1.4602	0.004
293.15	0.7001	1.4415	0.004
293.15	0.8014	1.4275	0.004
293.15	0.8955	1.4121	0.004
293.15	1	1.397	0.004
303.15	0	1.536	0.004
303.15	0.0997	1.5202	0.004
303.15	0.2011	1.506	0.004
303.15	0.3013	1.4914	0.004
303.15	0.3997	1.4825	0.004
303.15	0.5003	1.4654	0.004
303.15	0.5995	1.4567	0.004
303.15	0.7001	1.4403	0.004
303.15	0.8014	1.4265	0.004
303.15	0.8955	1.4085	0.004
303.15	1	1.3923	0.004

System: octane + 1,2,3,4-tetrahydronaphthalene; phases: Liquid
Fixed: Pressure, kPa = 101
Property: Mass density, kg/m3 (Liquid); method: Vibrating tube method
Temperature, K	Mole fraction of octane	Mass density, kg/m3	uncertainty
293.15	0	968.9	0.229
293.15	0.0997	939.208	0.237
293.15	0.2011	909.747	0.238
293.15	0.3013	881.396	0.238
293.15	0.3997	854.286	0.239
293.15	0.5003	827.219	0.24
293.15	0.5995	801.233	0.242
293.15	0.7001	775.536	0.244
293.15	0.8014	750.332	0.245
293.15	0.8955	727.504	0.247
293.15	1	702.758	0.245
298.15	0	964.948	0.229
298.15	0.0997	935.108	0.237
298.15	0.2011	905.647	0.238
298.15	0.3013	877.296	0.238
298.15	0.3997	850.266	0.239
298.15	0.5003	823.119	0.241
298.15	0.5995	797.133	0.242
298.15	0.7001	771.436	0.244
298.15	0.8014	746.232	0.246
298.15	0.8955	723.404	0.248
298.15	1	698.734	0.246
303.15	0	960.985	0.229
303.15	0.0997	931.198	0.237
303.15	0.2011	901.727	0.238
303.15	0.3013	873.366	0.238
303.15	0.3997	846.317	0.239
303.15	0.5003	819.169	0.241
303.15	0.5995	793.173	0.242
303.15	0.7001	767.466	0.244
303.15	0.8014	742.252	0.246
303.15	0.8955	719.414	0.248
303.15	1	694.686	0.246
313.15	0	953.06	0.229
313.15	0.0997	923.27	0.24
313.15	0.2011	893.773	0.238
313.15	0.3013	865.388	0.239
313.15	0.3997	838.337	0.24
313.15	0.5003	811.144	0.241
313.15	0.5995	785.122	0.243
313.15	0.7001	759.385	0.245
313.15	0.8014	734.137	0.247
313.15	0.8955	711.262	0.249
313.15	1	686.521	0.247

System: nonane + 1,2,3,4-tetrahydronaphthalene; phases: Liquid
Fixed: Pressure, kPa = 101
Property: Viscosity, Pa*s (Liquid); method: Concentric cylinders viscometry
Temperature, K	Mole fraction of nonane	Viscosity, Pa*s	uncertainty
293.15	0	0.002229	1.6e-05
293.15	0.1063	0.001814	1.3e-05
293.15	0.2018	0.001585	1.2e-05
293.15	0.3066	0.001352	1.1e-05
293.15	0.4057	0.001198	1e-05
293.15	0.5014	0.001082	9e-06
293.15	0.6005	0.000976	9e-06
293.15	0.704	0.00089	8e-06
293.15	0.7942	0.000826	8e-06
293.15	0.8898	0.000784	8e-06
293.15	1	0.000727	7e-06
298.15	0	0.002021	1.4e-05
298.15	0.1063	0.001653	1.2e-05
298.15	0.2018	0.00145	1.1e-05
298.15	0.3066	0.001254	1e-05
298.15	0.4057	0.001111	9e-06
298.15	0.5014	0.001006	9e-06
298.15	0.6005	0.000908	8e-06
298.15	0.704	0.000833	8e-06
298.15	0.7942	0.000775	8e-06
298.15	0.8898	0.000735	7e-06
298.15	1	0.000681	7e-06
303.15	0	0.00184	1.3e-05
303.15	0.1063	0.001518	1.1e-05
303.15	0.2018	0.001334	1e-05
303.15	0.3066	0.001151	9e-06
303.15	0.4057	0.001034	9e-06
303.15	0.5014	0.000937	8e-06
303.15	0.6005	0.000848	8e-06
303.15	0.704	0.000777	8e-06
303.15	0.7942	0.000728	7e-06
303.15	0.8898	0.00069	7e-06
303.15	1	0.000641	7e-06
313.15	0	0.001549	1.2e-05
313.15	0.1063	0.001308	1e-05
313.15	0.2018	0.001148	9e-06
313.15	0.3066	0.000997	9e-06
313.15	0.4057	0.000905	8e-06
313.15	0.5014	0.000821	8e-06
313.15	0.6005	0.000749	7e-06
313.15	0.704	0.00069	7e-06
313.15	0.7942	0.000649	7e-06
313.15	0.8898	0.000615	7e-06
313.15	1	0.000572	7e-06

System: nonane + 1,2,3,4-tetrahydronaphthalene; phases: Liquid
Fixed: Pressure, kPa = 101
Property: Refractive index (Na D-line) (Liquid); method: Standard Abbe refractometry
Temperature, K	Mole fraction of nonane	Refractive index (Na D-line)	uncertainty
293.15	0	1.54	0.004
293.15	0.1063	1.5221	0.004
293.15	0.2018	1.5091	0.004
293.15	0.3066	1.4935	0.004
293.15	0.4057	1.4833	0.004
293.15	0.5014	1.4725	0.004
293.15	0.6005	1.4567	0.004
293.15	0.704	1.4455	0.004
293.15	0.7942	1.4338	0.004
293.15	0.8898	1.4225	0.004
293.15	1	1.4068	0.004
303.15	0	1.536	0.004
303.15	0.1063	1.518	0.004
303.15	0.2018	1.5052	0.004
303.15	0.3066	1.4905	0.004
303.15	0.4057	1.4809	0.004
303.15	0.5014	1.4696	0.004
303.15	0.6005	1.4527	0.004
303.15	0.704	1.4433	0.004
303.15	0.7942	1.4302	0.004
303.15	0.8898	1.4189	0.004
303.15	1	1.4022	0.004

System: nonane + 1,2,3,4-tetrahydronaphthalene; phases: Liquid
Fixed: Pressure, kPa = 101
Property: Mass density, kg/m3 (Liquid); method: Vibrating tube method
Temperature, K	Mole fraction of nonane	Mass density, kg/m3	uncertainty
293.15	0	968.9	0.229
293.15	0.1063	936.155	0.238
293.15	0.2018	908.216	0.238
293.15	0.3066	878.929	0.238
293.15	0.4057	852.642	0.239
293.15	0.5014	828.44	0.239
293.15	0.6005	804.514	0.241
293.15	0.704	780.708	0.242
293.15	0.7942	760.842	0.243
293.15	0.8898	740.66	0.245
293.15	1	718.442	0.244
298.15	0	964.948	0.229
298.15	0.1063	932.175	0.238
298.15	0.2018	904.284	0.238
298.15	0.3066	874.974	0.238
298.15	0.4057	848.697	0.239
298.15	0.5014	824.502	0.24
298.15	0.6005	800.584	0.241
298.15	0.704	776.784	0.242
298.15	0.7942	756.925	0.244
298.15	0.8898	736.75	0.245
298.15	1	714.563	0.244
303.15	0	960.985	0.229
303.15	0.1063	928.194	0.238
303.15	0.2018	900.288	0.238
303.15	0.3066	871.019	0.238
303.15	0.4057	844.751	0.239
303.15	0.5014	820.565	0.24
303.15	0.6005	796.654	0.241
303.15	0.704	772.861	0.243
303.15	0.7942	753.008	0.244
303.15	0.8898	732.84	0.246
303.15	1	710.6	0.244
313.15	0	953.06	0.229
313.15	0.1063	920.394	0.238
313.15	0.2018	892.498	0.238
313.15	0.3066	863.219	0.238
313.15	0.4057	836.951	0.239
313.15	0.5014	812.765	0.24
313.15	0.6005	788.854	0.242
313.15	0.704	765.061	0.243
313.15	0.7942	745.208	0.245
313.15	0.8898	725.04	0.246
313.15	1	702.808	0.245

System: 1,2,3,4-tetrahydronaphthalene + decane; phases: Liquid
Fixed: Pressure, kPa = 101
Property: Viscosity, Pa*s (Liquid); method: Concentric cylinders viscometry
Temperature, K	Mole fraction of decane	Viscosity, Pa*s	uncertainty
293.15	0	0.002229	1.6e-05
293.15	0.1001	0.001873	1.4e-05
293.15	0.2044	0.001629	1.2e-05
293.15	0.2961	0.001471	1.1e-05
293.15	0.3964	0.001345	1.1e-05
293.15	0.4994	0.001226	1e-05
293.15	0.6017	0.001143	9e-06
293.15	0.6964	0.001071	9e-06
293.15	0.7971	0.001015	9e-06
293.15	0.8894	0.000968	8e-06
293.15	1	0.000925	8e-06
298.15	0	0.002021	1.4e-05
298.15	0.1001	0.001703	1.3e-05
298.15	0.2044	0.001486	1.1e-05
298.15	0.2961	0.001349	1.1e-05
298.15	0.3964	0.001238	1e-05
298.15	0.4994	0.001134	9e-06
298.15	0.6017	0.00106	9e-06
298.15	0.6964	0.000993	9e-06
298.15	0.7971	0.000942	8e-06
298.15	0.8894	0.0009	8e-06
298.15	1	0.00086	8e-06
303.15	0	0.00184	1.3e-05
303.15	0.1001	0.00156	1.2e-05
303.15	0.2044	0.001368	1.1e-05
303.15	0.2961	0.001245	1e-05
303.15	0.3964	0.001148	9e-06
303.15	0.4994	0.001053	9e-06
303.15	0.6017	0.000986	9e-06
303.15	0.6964	0.000925	8e-06
303.15	0.7971	0.000878	8e-06
303.15	0.8894	0.000838	8e-06
303.15	1	0.000802	8e-06
313.15	0	0.001549	1.2e-05
313.15	0.1001	0.001328	1e-05
313.15	0.2044	0.001175	1e-05
313.15	0.2961	0.001073	9e-06
313.15	0.3964	0.000995	9e-06
313.15	0.4994	0.000917	8e-06
313.15	0.6017	0.000862	8e-06
313.15	0.6964	0.000809	8e-06
313.15	0.7971	0.00077	8e-06
313.15	0.8894	0.000737	7e-06
313.15	1	0.000705	7e-06

System: 1,2,3,4-tetrahydronaphthalene + decane; phases: Liquid
Fixed: Pressure, kPa = 101
Property: Refractive index (Na D-line) (Liquid); method: Standard Abbe refractometry
Temperature, K	Mole fraction of decane	Refractive index (Na D-line)	uncertainty
293.15	0	1.54	0.004
293.15	0.1001	1.5229	0.004
293.15	0.2044	1.506	0.004
293.15	0.2961	1.4884	0.004
293.15	0.3964	1.4787	0.004
293.15	0.4994	1.4634	0.004
293.15	0.6017	1.4519	0.004
293.15	0.6964	1.4406	0.004
293.15	0.7971	1.4304	0.004
293.15	0.8894	1.4219	0.004
293.15	1	1.4123	0.004
303.15	0	1.536	0.004
303.15	0.1001	1.5185	0.004
303.15	0.2044	1.5019	0.004
303.15	0.2961	1.4865	0.004
303.15	0.3964	1.4745	0.004
303.15	0.4994	1.4607	0.004
303.15	0.6017	1.448	0.004
303.15	0.6964	1.4372	0.004
303.15	0.7971	1.4267	0.004
303.15	0.8894	1.4182	0.004
303.15	1	1.4087	0.004

System: 1,2,3,4-tetrahydronaphthalene + decane; phases: Liquid
Fixed: Pressure, kPa = 101
Property: Mass density, kg/m3 (Liquid); method: Vibrating tube method
Temperature, K	Mole fraction of decane	Mass density, kg/m3	uncertainty
293.15	0	968.9	0.229
293.15	0.1001	936.94	0.238
293.15	0.2044	906.067	0.238
293.15	0.2961	880.814	0.238
293.15	0.3964	854.931	0.238
293.15	0.4994	830.231	0.239
293.15	0.6017	807.346	0.24
293.15	0.6964	787.503	0.241
293.15	0.7971	767.648	0.242
293.15	0.8894	750.444	0.243
293.15	1	731.056	0.242
298.15	0	964.948	0.229
298.15	0.1001	933.068	0.238
298.15	0.2044	902.22	0.238
298.15	0.2961	876.992	0.238
298.15	0.3964	851.125	0.238
298.15	0.4994	826.444	0.239
298.15	0.6017	803.576	0.24
298.15	0.6964	783.749	0.241
298.15	0.7971	763.91	0.242
298.15	0.8894	746.723	0.243
298.15	1	727.291	0.243
303.15	0	960.985	0.229
303.15	0.1001	929.105	0.238
303.15	0.2044	898.291	0.238
303.15	0.2961	873.106	0.238
303.15	0.3964	847.243	0.238
303.15	0.4994	822.581	0.239
303.15	0.6017	799.73	0.24
303.15	0.6964	779.916	0.241
303.15	0.7971	760.089	0.243
303.15	0.8894	742.912	0.244
303.15	1	723.504	0.243
313.15	0	953.06	0.229
313.15	0.1001	921.243	0.238
313.15	0.2044	890.465	0.238
313.15	0.2961	865.311	0.238
313.15	0.3964	839.476	0.239
313.15	0.4994	814.843	0.24
313.15	0.6017	792.02	0.241
313.15	0.6964	772.231	0.242
313.15	0.7971	752.431	0.243
313.15	0.8894	735.28	0.244
313.15	1	715.893	0.244
