Measured thermophysical data. Vapor Liquid Equilibrium Measurements for a Tetrafluoromethane + Propane System over a Temperature Range from (142.96 to 293.23) K
Source: J. Chem. Eng. Data, 2012, 10.1021/je300806e
Compound 1: tetrafluoromethane, CF4, InChI=1S/CF4/c2-1(3,4)5, purity 99.999%
Compound 2: propane, C3H8, InChI=1S/C3H8/c1-3-2/h3H2,1-2H3, purity 99.99%

System: propane + tetrafluoromethane; phases: Gas, Liquid
Property: Mole fraction of tetrafluoromethane (Gas); method: Chromatography
Temperature, K	Pressure, kPa	Mole fraction of tetrafluoromethane	uncertainty
142.96	1.1	0.7118	0.0072
142.96	4.8	0.9479	0.0042
142.96	10	0.9715	0.0175
142.96	21.6	0.9925	0.0075
142.96	29.7	0.9971	0.0029
142.96	60.7	0.9965	0.0035
163.07	1.3	0.1169	0.0138
163.07	1.5	0.206	0.013
163.07	1.8	0.2904	0.0125
163.07	2.3	0.4628	0.0116
163.07	3	0.5885	0.0097
163.07	3.6	0.6581	0.0091
163.07	3.7	0.6532	0.0092
163.07	5.8	0.7991	0.0084
163.07	12.8	0.9001	0.079
163.07	22.7	0.9451	0.0132
163.07	51.3	0.975	0.004
163.07	102.5	0.987	0.004
163.07	150.8	0.9911	0.004
183.1	7.3	0.1834	0.0118
183.1	10.7	0.3755	0.0422
183.1	14.3	0.5385	0.0486
183.1	16	0.5795	0.0348
183.1	27.5	0.736	0.04
183.1	41.3	0.8358	0.0105
183.1	82	0.9134	0.0047
183.1	132	0.9479	0.0041
183.1	313.6	0.977	0.004
183.1	505	0.9849	0.004
183.1	669.4	0.9878	0.004
203.16	27.4	0.0998	0.0256
203.16	32.3	0.2243	0.0202
203.16	39.2	0.3692	0.0207
203.16	51.9	0.5231	0.0196
203.16	71.7	0.6501	0.0086
203.16	111.1	0.7705	0.0055
203.16	213.4	0.8777	0.0043
203.16	436.9	0.9328	0.004
203.16	886.4	0.9655	0.004
203.16	1219.5	0.9713	0.004
203.16	1397.5	0.9743	0.004
203.16	1475.5	0.9766	0.004
223.17	87.1	0.1765	0.0097
223.17	110.8	0.3399	0.0094
223.17	140.5	0.4722	0.0089
223.17	175.8	0.577	0.006
223.17	289.8	0.7364	0.0048
223.17	528.2	0.8467	0.0042
223.17	998.6	0.9117	0.0041
223.17	1492	0.9337	0.004
223.17	1980.5	0.9437	0.004
243.12	186.1	0.0792	0.0092
243.12	220.8	0.2225	0.0077
243.12	278.6	0.3731	0.006
243.12	305.5	0.4298	0.0056
243.12	431.4	0.5707	0.0056
243.12	657.5	0.7102	0.0048
243.12	1033.3	0.8025	0.0044
243.12	1654.9	0.8619	0.0042
243.12	2436.5	0.8912	0.0041
243.12	3581	0.9007	0.0041
243.12	3917.1	0.8977	0.0041
263.15	408.2	0.1227	0.0053
263.15	448.3	0.1896	0.0053
263.15	507.2	0.2737	0.0052
263.15	614	0.388	0.006
263.15	691.4	0.4522	0.0057
263.15	884.5	0.5569	0.0056
263.15	934.5	0.5733	0.0054
263.15	1240.9	0.6655	0.0049
263.15	2020.3	0.7678	0.0045
263.15	2825.8	0.8107	0.0043
263.15	3555.6	0.8276	0.0043
263.15	4373	0.8287	0.0043
263.15	4978.7	0.8245	0.0043
283.01	767.3	0.1257	0.0044
283.01	946.8	0.2676	0.0048
283.01	1193.7	0.3978	0.0053
283.01	1429.3	0.4798	0.0057
283.01	2006.2	0.5972	0.0053
283.01	2765	0.6749	0.0049
283.01	4092.3	0.7296	0.0046
283.01	5071.8	0.7351	0.0046
283.01	6009.4	0.6987	0.0047
293.23	961.1	0.0844	0.0043
293.23	1077.4	0.1607	0.0044
293.23	1268.9	0.2603	0.0047
293.23	1519.4	0.3491	0.005
293.23	2044.8	0.4766	0.0057
293.23	2517.4	0.5504	0.0055
293.23	3495.5	0.6291	0.0051
293.23	4683.5	0.6711	0.0049
293.23	5988.6	0.6533	0.005
