Measured thermophysical data. On the Solubility of Carbon Dioxide in Binary Water Methanol Mixtures
Source: J. Chem. Eng. Data, 2012, 10.1021/je300332b
Compound 1: carbon dioxide, CO2, InChI=1S/CO2/c2-1-3, purity 99.995%
Compound 2: methanol, CH4O, InChI=1S/CH4O/c1-2/h2H,1H3, purity 99.9%
Compound 3: water, H2O, InChI=1S/H2O/h1H2, purity 99.9%

System: carbon dioxide + water; phases: Liquid, Gas
Fixed: Pressure, kPa = 103
Property: Mole fraction of carbon dioxide (Liquid); method: gas volume change
Temperature, K	Mole fraction of carbon dioxide	uncertainty
303	0.000713	7.1e-05
308	0.000608	6.1e-05
313	0.000531	5.3e-05
318	0.00047	5e-05
324	0.000399	5e-05
328	0.000354	5e-05
333	0.000315	5e-05

System: methanol + carbon dioxide; phases: Liquid, Gas
Fixed: Pressure, kPa = 103
Property: Mole fraction of carbon dioxide (Liquid); method: gas volume change
Temperature, K	Mole fraction of carbon dioxide	uncertainty
299	0.00537	0.00054
307	0.00518	0.00052
313	0.00468	0.00047
318	0.00343	0.00034
322	0.00199	0.0002
327	0.000366	5e-05

System: methanol + carbon dioxide + water; phases: Liquid, Gas
Fixed: Pressure, kPa = 101
Property: Mole fraction of carbon dioxide (Liquid); method: gas volume change
Temperature, K	Solvent: Mass fraction of methanol	Mole fraction of carbon dioxide	uncertainty
301	0.0568	0.000921	0.000129
302	0.008	0.000773	0.000108
302	0.0241	0.00075	0.000105
302	0.127	0.00105	0.00015
302	0.4444	0.000595	8.3e-05
303	0.0816	0.000865	0.000121
307	0.0568	0.000816	0.000114
308	0.008	0.000635	8.9e-05
308	0.0241	0.000647	9.1e-05
308	0.0816	0.000819	0.000115
308	0.127	0.000959	0.000134
308	0.4444	0.000476	6.7e-05
313	0.008	0.000507	7.1e-05
313	0.0241	0.000523	7.3e-05
313	0.0568	0.000681	9.5e-05
313	0.0816	0.000705	9.9e-05
313	0.127	0.00085	0.000119
314	0.4444	0.00038	5.3e-05
318	0.008	0.000434	6.1e-05
318	0.0241	0.000456	6.4e-05
318	0.0568	0.000591	8.3e-05
318	0.127	0.000774	0.000108
319	0.0816	0.000621	8.7e-05
319	0.4444	0.000287	5e-05
322	0.0816	0.000545	7.6e-05
323	0.008	0.000281	5e-05
323	0.0241	0.000337	5e-05
323	0.0568	0.000403	5.6e-05
323	0.4444	0.000146	5e-05
325	0.127	0.000657	9.2e-05
327	0.0816	0.000216	5e-05
327	0.127	0.000565	7.9e-05
328	0.008	4.63e-05	4.63e-05
328	0.0241	0.000137	5e-05
328	0.0568	0.000199	5e-05
328	0.4444	0.000146	5e-05
332	0.0241	3.17e-05	3.17e-05
333	0.008	0	
333	0.0568	5.25e-05	5e-05
333	0.0816	4.41e-05	4.41e-05
333	0.4444	2.27e-06	2.27e-06
334	0.127	0.000175	5e-05
