Measured thermophysical data. Solubility of Xylose, Mannose, Maltose Monohydrate, and Trehalose Dihydrate in Ethanol Water Solutions
Source: J. Chem. Eng. Data, 2012, 10.1021/je300885g
Compound 1: .alpha.-trehalose, C12H22O11, InChI=1S/C12H22O11/c13-1-3-5(15)7(17)9(19)11(21-3)23-12-10(20)8(18)6(16)4(2-14)22-12/h3-20H,1-2H2/t3-,4-,5-,6-,7+,8+,9-,10-,11-,12-/m1/s1, purity 99%
Compound 2: D-(+)-maltose monohydrate, C12H24O12, InChI=1S/C12H22O11.H2O/c13-1-3-5(15)6(16)9(19)12(22-3)23-10-4(2-14)21-11(20)8(18)7(10)17;/h3-20H,1-2H2;1H2/t3-,4-,5-,6+,7-,8-,9-,10-,11-,12-;/m1./s1, purity 99%
Compound 3: D-xylose, C5H10O5, InChI=1S/C5H10O5/c6-1-3(8)5(10)4(9)2-7/h1,3-5,7-10H,2H2/t3-,4+,5+/m0/s1, purity 99%
Compound 4: D-mannose, C6H12O6, InChI=1S/C6H12O6/c7-1-3(9)5(11)6(12)4(10)2-8/h1,3-6,8-12H,2H2/t3-,4-,5-,6-/m1/s1, purity 99%
Compound 5: ethanol, C2H6O, InChI=1S/C2H6O/c1-2-3/h3H,2H2,1H3, purity 99.7%
Compound 6: water, H2O, InChI=1S/H2O/h1H2, purity 99.99%

System: D-xylose + water; phases: Liquid, Crystal
Fixed: Pressure, kPa = 101
Property: Mass fraction of D-xylose (Liquid); method: OTHER::sMethod:gravimetric method
Temperature, K	Mass fraction of D-xylose	uncertainty
278.2	0.511	0.014
288.2	0.5288	0.0397
298.2	0.568	0.019

System: D-xylose + ethanol; phases: Liquid, Crystal
Fixed: Pressure, kPa = 101
Property: Mass fraction of D-xylose (Liquid); method: OTHER::sMethod:gravimetric method
Temperature, K	Mass fraction of D-xylose	uncertainty
278.2	0.0051	0.0002
288.2	0.0064	0.0002
298.2	0.0076	0.0002

System: D-mannose + water; phases: Liquid, Crystal
Fixed: Pressure, kPa = 101
Property: Mass fraction of D-mannose (Liquid); method: OTHER::sMethod:gravimetric method
Temperature, K	Mass fraction of D-mannose	uncertainty
278.2	0.745	0.0261
288.2	0.7653	0.0092
298.2	0.7763	0.0131

System: ethanol + D-mannose; phases: Liquid, Crystal
Fixed: Pressure, kPa = 101
Property: Mass fraction of D-mannose (Liquid); method: OTHER::sMethod:gravimetric method
Temperature, K	Mass fraction of D-mannose	uncertainty
278.2	0.0028	0.001
288.2	0.004	0.0002
298.2	0.0056	0.0002

System: D-(+)-maltose monohydrate + water; phases: Liquid, Crystal
Fixed: Pressure, kPa = 101
Property: Mass fraction of D-(+)-maltose monohydrate (Liquid); method: OTHER::sMethod:gravimetric method
Temperature, K	Mass fraction of D-(+)-maltose monohydrate	uncertainty
278.2	0.4106	0.0119
288.2	0.4424	0.0119
298.2	0.4792	0.0746

System: ethanol + D-(+)-maltose monohydrate; phases: Liquid, Crystal
Fixed: Pressure, kPa = 101
Property: Mass fraction of D-(+)-maltose monohydrate (Liquid); method: OTHER::sMethod:gravimetric method
Temperature, K	Mass fraction of D-(+)-maltose monohydrate	uncertainty
278.2	0.0103	0.0006
288.2	0.0108	0.0006
298.2	0.0118	0.0002

System: .alpha.-trehalose + water; phases: Liquid, Crystal
Fixed: Pressure, kPa = 101
Property: Mass fraction of .alpha.-trehalose (Liquid); method: OTHER::sMethod:gravimetric method
Temperature, K	Mass fraction of .alpha.-trehalose	uncertainty
278.2	0.3581	0.0115
288.2	0.426	0.0189
298.2	0.492	0.0357

System: ethanol + .alpha.-trehalose; phases: Liquid, Crystal
Fixed: Pressure, kPa = 101
Property: Mass fraction of .alpha.-trehalose (Liquid); method: OTHER::sMethod:gravimetric method
Temperature, K	Mass fraction of .alpha.-trehalose	uncertainty
278.2	0.0001	0.0001
288.2	0.0002	0.0002
298.2	0.0003	0.0002

System: D-xylose + ethanol + water; phases: Liquid, Crystal
Fixed: Pressure, kPa = 101
Property: Mass fraction of D-xylose (Liquid); method: gravimetric method
Temperature, K	Solvent: Mass fraction of ethanol	Mass fraction of D-xylose	uncertainty
278.2	0	0.511	0.014
278.2	0.2	0.4078	0.0104
278.2	0.35	0.3154	0.0083
278.2	0.5	0.2594	0.0088
278.2	0.6	0.1798	0.003
278.2	0.7	0.1196	0.003
278.2	0.8	0.0577	0.0021
278.2	0.9	0.0202	0.0013
278.2	1	0.0051	0.0002
288.2	0	0.5288	0.0397
288.2	0.2	0.4576	0.0495
288.2	0.35	0.3665	0.018
288.2	0.5	0.2956	0.0174
288.2	0.6	0.2019	0.0075
288.2	0.7	0.1374	0.0047
288.2	0.8	0.0692	0.0032
288.2	0.9	0.0255	0.0025
288.2	1	0.0064	0.0002
298.2	0	0.568	0.019
298.2	0.2	0.5082	0.0057
298.2	0.35	0.4428	0.029
298.2	0.5	0.3234	0.0238
298.2	0.6	0.241	0.0069
298.2	0.7	0.1583	0.0157
298.2	0.8	0.0844	0.0031
298.2	0.9	0.0306	0.0018
298.2	1	0.0076	0.0002

System: ethanol + D-mannose + water; phases: Liquid, Crystal
Fixed: Pressure, kPa = 101
Property: Mass fraction of D-mannose (Liquid); method: gravimetric method
Temperature, K	Solvent: Mass fraction of ethanol	Mass fraction of D-mannose	uncertainty
278.2	0	0.745	0.0261
278.2	0.35	0.6337	0.0277
278.2	0.5	0.5186	0.0221
278.2	0.6	0.4593	0.0179
278.2	0.7	0.3244	0.02
278.2	0.8	0.1583	0.0112
278.2	0.9	0.0593	0.0048
278.2	1	0.0028	0.001
288.2	0	0.7653	0.0092
288.2	0.35	0.6596	0.0197
288.2	0.5	0.5668	0.0067
288.2	0.6	0.4862	0.0144
288.2	0.7	0.3509	0.008
288.2	0.8	0.1713	0.0083
288.2	0.9	0.0642	0.0034
288.2	1	0.004	0.0002
298.2	0	0.7763	0.0131
298.2	0.35	0.686	0.0097
298.2	0.5	0.603	0.0078
298.2	0.6	0.5196	0.0259
298.2	0.7	0.3756	0.0219
298.2	0.8	0.1814	0.0098
298.2	0.9	0.0706	0.006
298.2	1	0.0056	0.0002

System: ethanol + D-(+)-maltose monohydrate + water; phases: Liquid, Crystal
Fixed: Pressure, kPa = 101
Property: Mass fraction of D-(+)-maltose monohydrate (Liquid); method: gravimetric method
Temperature, K	Solvent: Mass fraction of ethanol	Mass fraction of D-(+)-maltose monohydrate	uncertainty
278.2	0	0.4106	0.0119
278.2	0.5	0.1069	0.0091
278.2	0.6	0.0552	0.0022
278.2	0.7	0.0298	0.0016
278.2	0.8	0.0123	0.0011
278.2	0.9	0.0039	0.0008
278.2	1	0.0103	0.0006
288.2	0	0.4424	0.0119
288.2	0.5	0.1315	0.0092
288.2	0.6	0.0679	0.0025
288.2	0.7	0.0372	0.0017
288.2	0.8	0.0166	0.0012
288.2	0.9	0.0045	0.0008
288.2	1	0.0108	0.0006
298.2	0	0.4792	0.0746
298.2	0.5	0.163	0.0038
298.2	0.6	0.0791	0.0031
298.2	0.7	0.0474	0.0013
298.2	0.8	0.0233	0.0013
298.2	0.9	0.0056	0.0009
298.2	1	0.0118	0.0002

System: ethanol + .alpha.-trehalose + water; phases: Liquid, Crystal
Fixed: Pressure, kPa = 101
Property: Mass fraction of .alpha.-trehalose (Liquid); method: gravimetric method
Temperature, K	Solvent: Mass fraction of ethanol	Mass fraction of .alpha.-trehalose	uncertainty
278.2	0	0.3581	0.0115
278.2	0.2	0.1853	0.0094
278.2	0.35	0.1024	0.0033
278.2	0.5	0.0602	0.0038
278.2	0.6	0.0339	0.001
278.2	0.7	0.0133	0.0006
278.2	0.8	0.0033	0.0008
278.2	0.9	0.0007	0.0002
278.2	1	0.0001	0.0001
288.2	0	0.426	0.0189
288.2	0.2	0.2632	0.0105
288.2	0.35	0.15	0.0032
288.2	0.5	0.0921	0.0068
288.2	0.6	0.0454	0.0047
288.2	0.7	0.0182	0.0009
288.2	0.8	0.0047	0.0004
288.2	0.9	0.0011	0.0002
288.2	1	0.0002	0.0002
298.2	0	0.492	0.0357
298.2	0.2	0.3662	0.0097
298.2	0.35	0.24	0.0044
298.2	0.5	0.1257	0.0108
298.2	0.6	0.0624	0.0118
298.2	0.7	0.0257	0.0013
298.2	0.8	0.0075	0.0008
298.2	0.9	0.0017	0.0016
298.2	1	0.0003	0.0002
