Measured thermophysical data. Synthesis and Physical Properties of Choline Carboxylate Ionic Liquids
Source: J. Chem. Eng. Data, 2012, 10.1021/je300086w
Compound 1: 2-acetoxy-N,N,N-trimethylethanaminium, C7H16NO2, InChI=1S/C7H16NO2/c1-7(9)10-6-5-8(2,3)4/h5-6H2,1-4H3/q+1, purity 99%
Compound 2: choline pivalate, C10H23NO3, InChI=1S/C5H14NO.C5H10O2/c1-6(2,3)4-5-7;1-5(2,3)4(6)7/h7H,4-5H2,1-3H3;1-3H3,(H,6,7)/q+1;/p-1, purity 99%
Compound 3: cholinium propanoate, C8H19NO3, InChI=1S/C5H14NO.C3H6O2/c1-6(2,3)4-5-7;1-2-3(4)5/h7H,4-5H2,1-3H3;2H2,1H3,(H,4,5)/q+1;/p-1, purity 99%
Compound 4: choline butanoate, C9H21NO3, InChI=1S/C5H14NO.C4H8O2/c1-6(2,3)4-5-7;1-2-3-4(5)6/h7H,4-5H2,1-3H3;2-3H2,1H3,(H,5,6)/q+1;/p-1, purity 99%
Compound 5: 2-hydroxy-N,N,N-trimethylethanaminium hexanoate, C11H25NO3, InChI=1S/C6H12O2.C5H14NO/c1-2-3-4-5-6(7)8;1-6(2,3)4-5-7/h2-5H2,1H3,(H,7,8);7H,4-5H2,1-3H3/q;+1/p-1, purity 99%

System: 2-acetoxy-N,N,N-trimethylethanaminium; phases: Crystal, Liquid, Air at 1 atmosphere
Property: Normal melting temperature, K (Crystal); method: AC calorimetry
Normal melting temperature, K	uncertainty
345.1	1

System: choline pivalate; phases: Crystal, Liquid, Air at 1 atmosphere
Property: Normal melting temperature, K (Crystal); method: AC calorimetry
Normal melting temperature, K	uncertainty
369.1	1

System: cholinium propanoate; phases: Liquid
Fixed: Pressure, kPa = 101.325
Property: Viscosity, Pa*s (Liquid); method: CONCYL:UFactor:2
Temperature, K	Viscosity, Pa*s	uncertainty
293.15	0.3958	0.0222
298.15	0.2902	0.0139
303.15	0.2156	0.0086
308.15	0.1632	0.0053
313.15	0.1258	0.0032
318.15	0.0985	0.0019
323.15	0.0783	0.0011
328.15	0.063	0.0006
333.15	0.0514	0.0004
338.15	0.0424	0.0004
343.15	0.0354	0.0004
348.15	0.0298	0.0003
353.15	0.0254	0.0003

System: cholinium propanoate; phases: Liquid
Fixed: Pressure, kPa = 101.325
Property: Refractive index (Na D-line) (Liquid); method: Standard Abbe refractometry
Temperature, K	Refractive index (Na D-line)	uncertainty
293.15	1.4705	0.0004
298.15	1.4686	0.0004
303.15	1.4668	0.0004
308.15	1.465	0.0004
313.15	1.4631	0.0004
318.15	1.4611	0.0004
323.15	1.4592	0.0004
328.15	1.4573	0.0004
333.15	1.4555	0.0004

System: cholinium propanoate; phases: Liquid
Fixed: Pressure, kPa = 101.325
Property: Mass density, kg/m3 (Liquid); method: Vibrating tube method
Temperature, K	Mass density, kg/m3	uncertainty
293.15	1074.6	1
298.15	1071.5	1
303.15	1068.6	1
308.15	1065.7	1
313.15	1062.8	1
318.15	1060	1
323.15	1057.2	1
328.15	1054.3	1
333.15	1051.4	1
338.15	1048.6	1
343.15	1045.8	1
348.15	1042.9	1
353.15	1040.1	1

System: choline butanoate; phases: Liquid
Fixed: Pressure, kPa = 101.325
Property: Viscosity, Pa*s (Liquid); method: CONCYL:UFactor:2
Temperature, K	Viscosity, Pa*s	uncertainty
293.15	0.8331	0.0633
298.15	0.6306	0.0432
303.15	0.4593	0.0276
308.15	0.3442	0.018
313.15	0.254	0.0112
318.15	0.1938	0.0072
323.15	0.1502	0.0045
328.15	0.1182	0.0028
333.15	0.0943	0.0017
338.15	0.0761	0.001
343.15	0.0622	0.0006
348.15	0.0514	0.0004
353.15	0.0429	0.0004

System: choline butanoate; phases: Liquid
Fixed: Pressure, kPa = 101.325
Property: Refractive index (Na D-line) (Liquid); method: Standard Abbe refractometry
Temperature, K	Refractive index (Na D-line)	uncertainty
293.15	1.4716	0.0004
298.15	1.47	0.0004
303.15	1.4683	0.0004
308.15	1.4667	0.0004
313.15	1.465	0.0004
318.15	1.4633	0.0004
323.15	1.4617	0.0004
328.15	1.46	0.0004
333.15	1.4585	0.0004

System: choline butanoate; phases: Liquid
Fixed: Pressure, kPa = 101.325
Property: Mass density, kg/m3 (Liquid); method: Vibrating tube method
Temperature, K	Mass density, kg/m3	uncertainty
293.15	1049.5	1
298.15	1046.5	1
303.15	1043.4	1
308.15	1040.5	1
313.15	1037.6	1
318.15	1034.6	1
323.15	1031.9	1
328.15	1029	1
333.15	1026.2	1
338.15	1023.4	1
343.15	1020.5	1
348.15	1017.2	1
353.15	1014.5	1

System: 2-hydroxy-N,N,N-trimethylethanaminium hexanoate; phases: Liquid
Fixed: Pressure, kPa = 101.325
Property: Viscosity, Pa*s (Liquid); method: CONCYL:UFactor:2
Temperature, K	Viscosity, Pa*s	uncertainty
293.15	0.9292	0.0733
298.15	0.7107	0.051
303.15	0.5304	0.0339
308.15	0.4003	0.0226
313.15	0.298	0.0145
318.15	0.2259	0.0093
323.15	0.1753	0.006
328.15	0.1403	0.004
333.15	0.1109	0.0025
338.15	0.0897	0.0015
343.15	0.0737	0.0009
348.15	0.0609	0.0006
353.15	0.051	0.0004

System: 2-hydroxy-N,N,N-trimethylethanaminium hexanoate; phases: Liquid
Fixed: Pressure, kPa = 101.325
Property: Refractive index (Na D-line) (Liquid); method: Standard Abbe refractometry
Temperature, K	Refractive index (Na D-line)	uncertainty
293.15	1.4726	0.0004
298.15	1.4709	0.0004
303.15	1.4692	0.0004
308.15	1.4675	0.0004
313.15	1.4658	0.0004
318.15	1.464	0.0004
323.15	1.4624	0.0004
328.15	1.4607	0.0004
333.15	1.459	0.0004

System: 2-hydroxy-N,N,N-trimethylethanaminium hexanoate; phases: Liquid
Fixed: Pressure, kPa = 101.325
Property: Mass density, kg/m3 (Liquid); method: Vibrating tube method
Temperature, K	Mass density, kg/m3	uncertainty
293.15	1018.8	1
298.15	1015.7	1
303.15	1012.5	1
308.15	1009.8	1
313.15	1006.8	1
318.15	1003.9	1
323.15	1001.3	1
328.15	998.4	1
333.15	995.5	1
338.15	992.6	1
343.15	989.7	1
348.15	986.8	1
353.15	984	1
