Measured thermophysical data. Solubility of CO2 in Acetone, 1-Butyl-3-methylimidazolium Tetrafluoroborate, and Their Mixtures
Source: J. Chem. Eng. Data, 2012, 10.1021/je300611q
Compound 1: carbon dioxide, CO2, InChI=1S/CO2/c2-1-3, purity 99.99%
Compound 2: 1-butyl-3-methylimidazolium tetrafluoroborate, C8H15BF4N2, InChI=1S/C8H15N2.BF4/c1-3-4-5-10-7-6-9(2)8-10;2-1(3,4)5/h6-8H,3-5H2,1-2H3;/q+1;-1, purity 99%
Compound 3: acetone, C3H6O, InChI=1S/C3H6O/c1-3(2)4/h1-2H3, purity 99.5%

System: acetone + carbon dioxide; phases: Gas, Liquid
Property: Vapor or sublimation pressure, kPa (Gas); method: Closed cell (Static) method
Temperature, K	Mole fraction of carbon dioxide	Vapor or sublimation pressure, kPa	uncertainty
298.2	0.151	810	80
298.2	0.231	1170	80
298.2	0.275	1520	80
298.2	0.378	2020	80
298.2	0.456	2490	90
298.2	0.523	2980	90
298.2	0.604	3500	90
298.2	0.682	3960	90
298.2	0.765	4460	90
298.2	0.856	5020	100
298.2	0.896	5470	140
313.2	0.171	1190	80
313.2	0.227	1500	90
313.2	0.296	2030	100
313.2	0.348	2500	90
313.2	0.439	3050	90
313.2	0.532	3700	110
313.2	0.589	4280	120
313.2	0.666	4990	100
313.2	0.734	5320	80
333.2	0.097	880	100
333.2	0.186	1570	110
333.2	0.225	2000	120
333.2	0.29	2620	120
333.2	0.346	3200	120
333.2	0.381	3540	120
333.2	0.433	4060	110
333.2	0.494	4590	130
333.2	0.55	5360	150

System: acetone + carbon dioxide; phases: Gas, Liquid
Property: Mole fraction of carbon dioxide (Gas); method: Chromatography
Temperature, K	Mole fraction of acetone	Mole fraction of carbon dioxide	uncertainty
298.2	0.151	0.952	0.007
298.2	0.231	0.973	0.006
298.2	0.275	0.975	0.006
298.2	0.378	0.979	0.006
298.2	0.456	0.988	0.006
298.2	0.523	0.989	0.006
298.2	0.604	0.989	0.006
298.2	0.682	0.992	0.006
298.2	0.765	0.993	0.006
298.2	0.856	0.993	0.006
298.2	0.896	0.993	0.006
313.2	0.171	0.946	0.007
313.2	0.227	0.971	0.007
313.2	0.296	0.979	0.006
313.2	0.348	0.977	0.006
313.2	0.439	0.979	0.006
313.2	0.532	0.982	0.006
313.2	0.589	0.973	0.006
313.2	0.666	0.982	0.006
313.2	0.734	0.984	0.006
333.2	0.097	0.943	0.006
333.2	0.186	0.953	0.006
333.2	0.225	0.96	0.006
333.2	0.29	0.963	0.006
333.2	0.346	0.965	0.006
333.2	0.381	0.975	0.006
333.2	0.433	0.975	0.006
333.2	0.494	0.975	0.006
333.2	0.55	0.982	0.006

System: carbon dioxide + 1-butyl-3-methylimidazolium tetrafluoroborate; phases: Gas, Liquid
Property: Vapor or sublimation pressure, kPa (Gas); method: Closed cell (Static) method
Temperature, K	Mole fraction of carbon dioxide	Vapor or sublimation pressure, kPa	uncertainty
298.2	0.137	1240	100
298.2	0.264	2310	120
298.2	0.331	3290	130
298.2	0.393	3690	120
298.2	0.435	4330	160
298.2	0.477	4930	210
298.2	0.49	5500	440
313.2	0.082	860	130
313.2	0.154	1650	140
313.2	0.197	2270	140
313.2	0.285	3260	140
313.2	0.325	3840	180
313.2	0.35	4290	180
313.2	0.38	4810	160
313.2	0.466	5980	150
333.2	0.072	980	150
333.2	0.119	1650	160
333.2	0.169	2440	170
333.2	0.2	2960	190
333.2	0.244	3760	160
333.2	0.284	4170	220
333.2	0.324	5430	240
333.2	0.362	5950	150

System: carbon dioxide + 1-butyl-3-methylimidazolium tetrafluoroborate; phases: Gas, Liquid
Property: Mole fraction of carbon dioxide (Gas); method: Chromatography
Temperature, K	Mole fraction of carbon dioxide	Mole fraction of carbon dioxide	uncertainty
298.2	0.137	1	
298.2	0.264	1	
298.2	0.331	1	
298.2	0.393	1	
298.2	0.435	1	
298.2	0.477	1	
298.2	0.49	1	
313.2	0.082	1	
313.2	0.154	1	
313.2	0.197	1	
313.2	0.285	1	
313.2	0.325	1	
313.2	0.35	1	
313.2	0.38	1	
313.2	0.466	1	
333.2	0.072	1	
333.2	0.119	1	
333.2	0.169	1	
333.2	0.2	1	
333.2	0.244	1	
333.2	0.284	1	
333.2	0.324	1	
333.2	0.362	1	

System: acetone + carbon dioxide + 1-butyl-3-methylimidazolium tetrafluoroborate; phases: Liquid, Gas
Property: Vapor or sublimation pressure, kPa (Liquid); method: Closed cell (Static) method
Temperature, K	Solvent: Mole fraction of 1-butyl-3-methylimidazolium tetrafluoroborate	Mole fraction of carbon dioxide	Vapor or sublimation pressure, kPa	uncertainty
298.2	0.06	0.094	500	80
298.2	0.06	0.17	920	80
298.2	0.06	0.292	1590	80
298.2	0.06	0.387	2100	80
298.2	0.06	0.483	2660	90
298.2	0.06	0.557	3130	90
298.2	0.204	0.133	800	80
298.2	0.204	0.233	1310	80
298.2	0.204	0.296	1810	80
298.2	0.204	0.387	2200	90
298.2	0.204	0.463	2850	100
298.2	0.204	0.537	3400	100
298.2	0.507	0.119	780	90
298.2	0.507	0.192	1310	90
298.2	0.507	0.258	1750	90
298.2	0.507	0.329	2200	100
298.2	0.507	0.392	2730	100
298.2	0.507	0.469	3360	100
313.2	0.06	0.143	1010	90
313.2	0.06	0.219	1510	90
313.2	0.06	0.293	2030	100
313.2	0.06	0.325	2400	110
313.2	0.06	0.398	2960	100
313.2	0.06	0.455	3410	100
313.2	0.06	0.53	4030	100
313.2	0.204	0.07	520	90
313.2	0.204	0.142	1010	90
313.2	0.204	0.21	1480	100
313.2	0.204	0.283	2080	110
313.2	0.204	0.357	2890	100
313.2	0.204	0.428	3250	100
313.2	0.204	0.453	3610	130
313.2	0.204	0.495	4020	110
313.2	0.507	0.068	530	110
313.2	0.507	0.119	1020	100
313.2	0.507	0.187	1530	110
313.2	0.507	0.232	1990	110
313.2	0.507	0.292	2530	110
313.2	0.507	0.361	3180	120
313.2	0.507	0.398	3560	120
313.2	0.507	0.457	4170	120
333.2	0.06	0.115	1100	120
333.2	0.06	0.182	1770	120
333.2	0.06	0.228	2240	100
333.2	0.06	0.305	2800	100
333.2	0.06	0.361	3380	120
333.2	0.06	0.426	4020	130
333.2	0.06	0.467	4610	160
333.2	0.204	0.109	1020	110
333.2	0.204	0.169	1600	120
333.2	0.204	0.233	2270	130
333.2	0.204	0.28	2840	130
333.2	0.204	0.337	3470	130
333.2	0.204	0.382	4000	130
333.2	0.204	0.433	4550	120
333.2	0.507	0.098	1020	150
333.2	0.507	0.154	1770	130
333.2	0.507	0.216	2380	130
333.2	0.507	0.247	2910	160
333.2	0.507	0.29	3480	140
333.2	0.507	0.325	3930	130
333.2	0.507	0.373	4470	130

System: acetone + carbon dioxide + 1-butyl-3-methylimidazolium tetrafluoroborate; phases: Gas, Liquid
Property: Mole fraction of carbon dioxide (Gas); method: Chromatography
Temperature, K	Solvent: Mole fraction of 1-butyl-3-methylimidazolium tetrafluoroborate	Mole fraction of carbon dioxide	Mole fraction of carbon dioxide	uncertainty
298.2	0.06	0.094	0.953	0.007
298.2	0.06	0.17	0.973	0.006
298.2	0.06	0.292	0.98	0.006
298.2	0.06	0.387	0.986	0.006
298.2	0.06	0.483	0.989	0.006
298.2	0.06	0.557	0.991	0.006
298.2	0.204	0.133	0.967	0.006
298.2	0.204	0.233	0.98	0.006
298.2	0.204	0.296	0.985	0.006
298.2	0.204	0.387	0.987	0.006
298.2	0.204	0.463	0.988	0.006
298.2	0.204	0.537	0.997	0.003
298.2	0.507	0.119	0.983	0.006
298.2	0.507	0.192	0.987	0.006
298.2	0.507	0.258	0.991	0.006
298.2	0.507	0.329	0.992	0.006
298.2	0.507	0.392	0.993	0.006
298.2	0.507	0.469	0.994	0.006
313.2	0.06	0.143	0.957	0.006
313.2	0.06	0.219	0.971	0.006
313.2	0.06	0.293	0.981	0.006
313.2	0.06	0.325	0.983	0.006
313.2	0.06	0.398	0.988	0.006
313.2	0.06	0.455	0.991	0.006
313.2	0.06	0.53	0.993	0.006
313.2	0.204	0.07	0.935	0.007
313.2	0.204	0.142	0.962	0.006
313.2	0.204	0.21	0.971	0.006
313.2	0.204	0.283	0.973	0.006
313.2	0.204	0.357	0.983	0.006
313.2	0.204	0.428	0.983	0.006
313.2	0.204	0.453	0.984	0.006
313.2	0.204	0.495	0.985	0.006
313.2	0.507	0.068	0.965	0.006
313.2	0.507	0.119	0.977	0.006
313.2	0.507	0.187	0.983	0.006
313.2	0.507	0.232	0.986	0.006
313.2	0.507	0.292	0.99	0.006
313.2	0.507	0.361	0.99	0.006
313.2	0.507	0.398	0.99	0.006
313.2	0.507	0.457	0.991	0.006
333.2	0.06	0.115	0.943	0.006
333.2	0.06	0.182	0.944	0.006
333.2	0.06	0.228	0.947	0.006
333.2	0.06	0.305	0.947	0.006
333.2	0.06	0.361	0.964	0.006
333.2	0.06	0.426	0.964	0.006
333.2	0.06	0.467	0.965	0.006
333.2	0.204	0.109	0.908	0.007
333.2	0.204	0.169	0.91	0.007
333.2	0.204	0.233	0.939	0.007
333.2	0.204	0.28	0.952	0.006
333.2	0.204	0.337	0.958	0.006
333.2	0.204	0.382	0.97	0.006
333.2	0.204	0.433	0.97	0.006
333.2	0.507	0.098	0.958	0.006
333.2	0.507	0.154	0.961	0.006
333.2	0.507	0.216	0.976	0.006
333.2	0.507	0.247	0.976	0.006
333.2	0.507	0.29	0.981	0.006
333.2	0.507	0.325	0.983	0.006
333.2	0.507	0.373	0.985	0.006
