Measured thermophysical data. Partial Molar Isentropic Compressions and Partial Molar Volumes of Selected Branched Aliphatic Alcohols at Infinite Dilution in Water at Temperatures from T = (278 to 318) K and Atmospheric Pressure
Source: J. Chem. Eng. Data, 2012, 10.1021/je300175w
Compound 1: 2-methyl-1,3-propanediol, C4H10O2, InChI=1S/C4H10O2/c1-4(2-5)3-6/h4-6H,2-3H2,1H3, purity 99%
Compound 2: 2,2-dimethyl-1-propanol, C5H12O, InChI=1S/C5H12O/c1-5(2,3)4-6/h6H,4H2,1-3H3, purity 99%
Compound 3: 2,2-dimethyl-1,3-propanediol, C5H12O2, InChI=1S/C5H12O2/c1-5(2,3-6)4-7/h6-7H,3-4H2,1-2H3, purity 99%
Compound 4: 1,1,1-trimethylolethane, C5H12O3, InChI=1S/C5H12O3/c1-5(2-6,3-7)4-8/h6-8H,2-4H2,1H3, purity 99%
Compound 5: 2-ethyl-2-(hydroxymethyl)-1,3-propanediol, C6H14O3, InChI=1S/C6H14O3/c1-2-6(3-7,4-8)5-9/h7-9H,2-5H2,1H3, purity 99%
Compound 6: 2,2-bis(hydroxymethyl)-1,3-propanediol, C5H12O4, InChI=1S/C5H12O4/c6-1-5(2-7,3-8)4-9/h6-9H,1-4H2, purity 99%
Compound 7: 3,3,7,7-tetrakis(hydroxymethyl)-5-oxanonane, C12H26O5, InChI=1S/C12H26O5/c1-3-11(5-13,6-14)9-17-10-12(4-2,7-15)8-16/h13-16H,3-10H2,1-2H3, purity 99%
Compound 8: water, H2O, InChI=1S/H2O/h1H2

System: 2-methyl-1,3-propanediol + water; phases: Liquid
Fixed: Pressure, kPa = 101
Property: Speed of sound, m/s (Liquid); method: Sing-around technique in a fixed-path interferometer
Temperature, K	Molality, mol/kg of 2-methyl-1,3-propanediol	Speed of sound, m/s	uncertainty
278.15	0.109745	1433.96	0.72
278.15	0.199656	1440.32	0.73
278.15	0.309109	1447.95	0.73
278.15	0.398301	1454.06	0.73
278.15	0.109745	1433.99	0.72
278.15	0.199656	1440.36	0.73
278.15	0.309109	1447.99	0.73
278.15	0.398301	1454.1	0.73
283.15	0.109745	1454.43	0.73
283.15	0.199656	1460.26	0.73
283.15	0.309109	1467.27	0.74
283.15	0.398301	1472.9	0.74
283.15	0.109745	1454.45	0.73
283.15	0.199656	1460.3	0.73
283.15	0.309109	1467.33	0.74
283.15	0.398301	1472.95	0.74
288.15	0.109745	1472.56	0.74
288.15	0.199656	1477.93	0.74
288.15	0.309109	1484.37	0.74
288.15	0.398301	1489.57	0.75
288.15	0.109745	1472.58	0.74
288.15	0.199656	1477.95	0.74
288.15	0.309109	1484.39	0.74
288.15	0.398301	1489.58	0.75
293.15	0.109745	1488.46	0.74
293.15	0.199656	1493.42	0.74
293.15	0.309109	1499.37	0.75
293.15	0.398301	1504.13	0.75
293.15	0.109745	1488.48	0.74
293.15	0.199656	1493.44	0.74
293.15	0.309109	1499.4	0.75
293.15	0.398301	1504.16	0.75
298.15	0.109745	1502.34	0.75
298.15	0.199656	1506.92	0.75
298.15	0.309109	1512.42	0.75
298.15	0.398301	1516.8	0.76
298.15	0.109745	1502.36	0.75
298.15	0.199656	1506.94	0.75
298.15	0.309109	1512.44	0.75
298.15	0.398301	1516.83	0.76
308.15	0.109745	1524.68	0.75
308.15	0.199656	1528.58	0.76
308.15	0.309109	1533.61	0.76
308.15	0.398301	1537.35	0.76
308.15	0.309109	1533.26	0.76
308.15	0.398301	1537	0.76
318.15	0.109745	1540.41	0.76
318.15	0.199656	1543.75	0.76
318.15	0.309109	1547.85	0.77
318.15	0.398301	1551.06	0.77
318.15	0.109745	1540.57	0.76
318.15	0.199656	1544.04	0.76
318.15	0.309109	1548.01	0.77
318.15	0.398301	1551.16	0.77

System: 2,2-dimethyl-1-propanol + water; phases: Liquid
Fixed: Pressure, kPa = 101
Property: Speed of sound, m/s (Liquid); method: Sing-around technique in a fixed-path interferometer
Temperature, K	Molality, mol/kg of 2,2-dimethyl-1-propanol	Speed of sound, m/s	uncertainty
278.15	0.048498	1430.19	0.72
278.15	0.099947	1434.38	0.72
278.15	0.147155	1438.15	0.73
278.15	0.199879	1442.31	0.73
278.15	0.048498	1430.2	0.72
278.15	0.099947	1434.37	0.72
278.15	0.147155	1438.14	0.73
278.15	0.199879	1442.3	0.73
283.15	0.048498	1452.54	0.73
283.15	0.099947	1457.98	0.73
283.15	0.147155	1462.98	0.73
283.15	0.199879	1468.48	0.74
283.15	0.048498	1452.52	0.73
283.15	0.099947	1457.94	0.73
283.15	0.147155	1462.92	0.73
283.15	0.199879	1468.38	0.74
288.15	0.048498	1470.74	0.74
288.15	0.099947	1475.74	0.74
288.15	0.147155	1480.25	0.74
288.15	0.199879	1485.23	0.74
288.15	0.048498	1470.7	0.74
288.15	0.099947	1475.7	0.74
288.15	0.147155	1480.21	0.74
288.15	0.199879	1485.17	0.74
293.15	0.048498	1486.75	0.74
293.15	0.099947	1491.33	0.74
293.15	0.147155	1495.47	0.74
293.15	0.199879	1500.02	0.75
293.15	0.048498	1486.76	0.74
293.15	0.099947	1491.33	0.74
293.15	0.147155	1495.45	0.74
293.15	0.199879	1499.99	0.75
298.15	0.048498	1500.72	0.75
298.15	0.099947	1504.91	0.75
298.15	0.147155	1508.68	0.75
298.15	0.199879	1512.84	0.75
298.15	0.048498	1500.73	0.75
298.15	0.099947	1504.9	0.75
298.15	0.147155	1508.67	0.75
298.15	0.199879	1512.83	0.75
308.15	0.048498	1523.31	0.75
308.15	0.099947	1526.59	0.75
308.15	0.147155	1529.73	0.76
308.15	0.199879	1532.91	0.76
308.15	0.048498	1523.06	0.75
308.15	0.099947	1526.43	0.75
308.15	0.147155	1529.52	0.76
308.15	0.199879	1532.87	0.76
318.15	0.048498	1539.07	0.76
318.15	0.099947	1541.76	0.76
318.15	0.147155	1544.26	0.76
318.15	0.199879	1546.91	0.76
318.15	0.048498	1539.15	0.76
318.15	0.099947	1541.78	0.76
318.15	0.147155	1544.23	0.76
318.15	0.199879	1546.9	0.76

System: 2,2-dimethyl-1,3-propanediol + water; phases: Liquid
Fixed: Pressure, kPa = 101
Property: Speed of sound, m/s (Liquid); method: Sing-around technique in a fixed-path interferometer
Temperature, K	Molality, mol/kg of 2,2-dimethyl-1,3-propanediol	Speed of sound, m/s	uncertainty
278.15	0.100116	1435.85	0.72
278.15	0.200606	1445.36	0.73
278.15	0.299683	1454.49	0.73
278.15	0.402055	1463.79	0.74
278.15	0.500081	1472.51	0.74
278.15	0.600673	1481.26	0.75
278.15	0.100116	1435.84	0.72
278.15	0.200606	1445.36	0.73
278.15	0.299683	1454.5	0.73
278.15	0.402055	1463.76	0.74
278.15	0.500081	1472.52	0.74
278.15	0.600673	1481.28	0.75
278.15	0.402055	1463.79	0.74
278.15	0.500081	1472.53	0.74
278.15	0.600673	1481.28	0.75
283.15	0.100116	1456.15	0.73
283.15	0.200606	1464.9	0.74
283.15	0.299683	1473.32	0.74
283.15	0.402055	1481.86	0.74
283.15	0.500081	1489.86	0.75
283.15	0.600673	1497.9	0.75
283.15	0.100116	1456.17	0.73
283.15	0.200606	1464.9	0.74
283.15	0.299683	1473.33	0.74
283.15	0.402055	1481.87	0.74
283.15	0.500081	1489.88	0.75
283.15	0.600673	1497.91	0.75
283.15	0.200606	1464.93	0.74
283.15	0.299683	1473.36	0.74
283.15	0.402055	1481.9	0.74
283.15	0.500081	1489.92	0.75
283.15	0.600673	1497.96	0.75
288.15	0.100116	1474.12	0.74
288.15	0.200606	1482.22	0.74
288.15	0.299683	1489.98	0.75
288.15	0.402055	1497.84	0.75
288.15	0.500081	1505.2	0.75
288.15	0.600673	1512.57	0.76
288.15	0.100116	1474.14	0.74
288.15	0.200606	1482.17	0.74
288.15	0.299683	1489.94	0.75
288.15	0.402055	1497.8	0.75
288.15	0.500081	1505.18	0.75
288.15	0.600673	1512.58	0.76
288.15	0.100116	1474.15	0.74
288.15	0.200606	1482.21	0.74
288.15	0.299683	1489.97	0.75
288.15	0.402055	1497.83	0.75
288.15	0.500081	1505.2	0.75
288.15	0.600673	1512.59	0.76
293.15	0.100116	1489.93	0.74
293.15	0.200606	1497.37	0.75
293.15	0.299683	1504.51	0.75
293.15	0.402055	1511.76	0.75
293.15	0.500081	1518.51	0.76
293.15	0.600673	1525.28	0.76
293.15	0.100116	1489.92	0.74
293.15	0.200606	1497.36	0.75
293.15	0.299683	1504.51	0.75
293.15	0.402055	1511.75	0.75
293.15	0.500081	1518.51	0.76
293.15	0.600673	1525.27	0.76
293.15	0.200606	1497.33	0.75
293.15	0.299683	1504.49	0.75
293.15	0.402055	1511.75	0.75
293.15	0.500081	1518.51	0.76
293.15	0.600673	1525.28	0.76
298.15	0.100116	1503.66	0.75
298.15	0.200606	1510.51	0.75
298.15	0.299683	1517.11	0.75
298.15	0.402055	1523.77	0.76
298.15	0.500081	1530	0.76
298.15	0.600673	1536.23	0.77
298.15	0.100116	1503.69	0.75
298.15	0.200606	1510.55	0.75
298.15	0.299683	1517.16	0.75
298.15	0.402055	1523.83	0.76
298.15	0.500081	1530.07	0.76
298.15	0.600673	1536.3	0.77
298.15	0.200606	1510.6	0.75
298.15	0.299683	1517.2	0.75
298.15	0.402055	1523.86	0.76
298.15	0.500081	1530.09	0.76
298.15	0.600673	1536.32	0.77
303.15	0.100116	1515.61	0.75
303.15	0.200606	1521.93	0.75
303.15	0.299683	1527.99	0.76
303.15	0.402055	1534.11	0.76
303.15	0.500081	1539.82	0.77
303.15	0.600673	1545.49	0.77
303.15	0.100116	1515.6	0.75
303.15	0.200606	1521.92	0.75
303.15	0.299683	1527.98	0.76
303.15	0.402055	1534.09	0.76
303.15	0.500081	1539.8	0.77
303.15	0.600673	1545.48	0.77
303.15	0.100116	1515.6	0.75
303.15	0.200606	1521.9	0.75
303.15	0.299683	1527.98	0.76
303.15	0.402055	1534.12	0.76
303.15	0.500081	1539.86	0.77
303.15	0.600673	1545.56	0.77
308.15	0.100116	1525.76	0.75
308.15	0.200606	1531.56	0.76
308.15	0.299683	1537.15	0.76
308.15	0.402055	1542.77	0.77
308.15	0.500081	1547.98	0.77
308.15	0.600673	1553.15	0.77
308.15	0.100116	1525.82	0.75
308.15	0.200606	1531.64	0.76
308.15	0.299683	1537.23	0.76
308.15	0.402055	1542.84	0.77
308.15	0.500081	1548.06	0.77
308.15	0.600673	1553.21	0.77
308.15	0.100116	1525.75	0.75
308.15	0.200606	1531.55	0.76
308.15	0.299683	1537.14	0.76
308.15	0.402055	1542.75	0.77
308.15	0.500081	1547.95	0.77
308.15	0.600673	1553.12	0.77
318.15	0.100116	1541.48	0.76
318.15	0.200606	1546.38	0.76
318.15	0.299683	1550.98	0.77
318.15	0.402055	1555.63	0.77
318.15	0.500081	1559.94	0.77
318.15	0.600673	1564.2	0.78
318.15	0.100116	1541.47	0.76
318.15	0.200606	1546.37	0.76
318.15	0.299683	1551.01	0.77
318.15	0.402055	1555.66	0.77
318.15	0.500081	1559.97	0.77
318.15	0.600673	1564.22	0.78
318.15	0.100116	1541.44	0.76
318.15	0.200606	1546.35	0.76
318.15	0.299683	1550.99	0.77
318.15	0.402055	1555.64	0.77
318.15	0.500081	1560	0.77
318.15	0.600673	1564.26	0.78
318.15	0.600673	1564.22	0.78
318.15	0.600673	1564.26	0.78

System: 2,2-dimethyl-1,3-propanediol + water; phases: Liquid
Fixed: Pressure, kPa = 101
Property: Mass density, kg/m3 (Liquid); method: Vibrating tube method
Temperature, K	Molality, mol/kg of 2,2-dimethyl-1,3-propanediol	Mass density, kg/m3	uncertainty
273.15	0.100116	1000.252	0.033
273.15	0.200606	1000.57	0.034
273.15	0.299683	1000.908	0.035
273.15	0.402055	1001.285	0.035
273.15	0.500081	1001.663	0.036
273.15	0.600673	1002.068	0.036
273.15	0.100116	1000.251	0.033
273.15	0.200606	1000.569	0.034
273.15	0.299683	1000.908	0.035
273.15	0.402055	1001.283	0.035
273.15	0.500081	1001.663	0.036
273.15	0.600673	1002.067	0.036
273.15	0.100116	1000.252	0.033
273.15	0.200606	1000.57	0.034
273.15	0.299683	1000.909	0.035
273.15	0.402055	1001.285	0.035
273.15	0.500081	1001.664	0.036
273.15	0.600673	1002.069	0.036
283.15	0.100116	999.968	0.033
283.15	0.200606	1000.26	0.034
283.15	0.299683	1000.574	0.034
283.15	0.402055	1000.917	0.035
283.15	0.500081	1001.262	0.036
283.15	0.600673	1001.632	0.036
283.15	0.100116	999.967	0.033
283.15	0.200606	1000.259	0.034
283.15	0.299683	1000.574	0.034
283.15	0.402055	1000.917	0.035
283.15	0.500081	1001.263	0.036
283.15	0.600673	1001.633	0.036
283.15	0.100116	999.967	0.033
283.15	0.200606	1000.262	0.034
283.15	0.299683	1000.574	0.034
283.15	0.402055	1000.918	0.035
283.15	0.500081	1001.265	0.036
283.15	0.600673	1001.636	0.036
288.15	0.100116	999.35	0.034
288.15	0.200606	999.623	0.034
288.15	0.299683	999.911	0.034
288.15	0.402055	1000.229	0.035
288.15	0.500081	1000.545	0.035
288.15	0.600673	1000.884	0.036
288.15	0.100116	999.351	0.034
288.15	0.200606	999.623	0.034
288.15	0.299683	999.913	0.034
288.15	0.402055	1000.229	0.035
288.15	0.500081	1000.547	0.035
288.15	0.600673	1000.884	0.036
288.15	0.100116	999.35	0.034
288.15	0.200606	999.623	0.034
288.15	0.299683	999.913	0.034
288.15	0.402055	1000.229	0.035
288.15	0.500081	1000.547	0.035
288.15	0.600673	1000.885	0.036
293.15	0.100116	998.435	0.034
293.15	0.200606	998.688	0.034
293.15	0.299683	998.956	0.035
293.15	0.402055	999.245	0.035
293.15	0.500081	999.536	0.036
293.15	0.600673	999.846	0.036
293.15	0.100116	998.438	0.034
293.15	0.200606	998.69	0.034
293.15	0.299683	998.958	0.035
293.15	0.402055	999.25	0.035
293.15	0.500081	999.541	0.036
293.15	0.600673	999.849	0.036
293.15	0.100116	998.44	0.034
293.15	0.200606	998.693	0.034
293.15	0.299683	998.96	0.035
293.15	0.402055	999.252	0.035
293.15	0.500081	999.543	0.036
293.15	0.600673	999.851	0.036
298.15	0.100116	997.263	0.035
298.15	0.200606	997.499	0.035
298.15	0.299683	997.744	0.035
298.15	0.402055	998.013	0.036
298.15	0.500081	998.28	0.036
298.15	0.600673	998.56	0.037
298.15	0.100116	997.264	0.035
298.15	0.200606	997.499	0.035
298.15	0.299683	997.745	0.035
298.15	0.402055	998.013	0.036
298.15	0.500081	998.279	0.036
298.15	0.600673	998.559	0.037
298.15	0.100116	997.261	0.035
298.15	0.200606	997.499	0.035
298.15	0.299683	997.742	0.035
298.15	0.402055	998.015	0.036
298.15	0.500081	998.282	0.036
298.15	0.600673	998.562	0.037
303.15	0.100116	995.85	0.035
303.15	0.200606	996.067	0.036
303.15	0.299683	996.293	0.036
303.15	0.402055	996.538	0.036
303.15	0.500081	996.781	0.037
303.15	0.600673	997.036	0.037
303.15	0.100116	995.85	0.035
303.15	0.200606	996.067	0.036
303.15	0.299683	996.294	0.036
303.15	0.402055	996.539	0.036
303.15	0.500081	996.781	0.037
303.15	0.600673	997.037	0.037
303.15	0.100116	995.849	0.035
303.15	0.200606	996.066	0.036
303.15	0.299683	996.293	0.036
303.15	0.402055	996.538	0.036
303.15	0.500081	996.781	0.037
303.15	0.600673	997.036	0.037
308.15	0.100116	994.216	0.036
308.15	0.200606	994.415	0.037
308.15	0.299683	994.624	0.037
308.15	0.402055	994.845	0.037
308.15	0.500081	995.067	0.038
308.15	0.600673	995.297	0.038
308.15	0.100116	994.215	0.036
308.15	0.200606	994.415	0.037
308.15	0.299683	994.621	0.037
308.15	0.402055	994.845	0.037
308.15	0.500081	995.065	0.038
308.15	0.600673	995.296	0.038
308.15	0.100116	994.216	0.036
308.15	0.200606	994.416	0.037
308.15	0.299683	994.624	0.037
308.15	0.402055	994.847	0.037
308.15	0.500081	995.068	0.038
308.15	0.600673	995.298	0.038
318.15	0.100116	990.368	0.038
318.15	0.200606	990.531	0.038
318.15	0.299683	990.701	0.039
318.15	0.402055	990.883	0.039
318.15	0.500081	991.06	0.039
318.15	0.600673	991.242	0.04
318.15	0.100116	990.367	0.038
318.15	0.200606	990.532	0.038
318.15	0.299683	990.7	0.039
318.15	0.402055	990.882	0.039
318.15	0.500081	991.057	0.039
318.15	0.600673	991.241	0.04
318.15	0.100116	990.368	0.038
318.15	0.200606	990.533	0.038
318.15	0.299683	990.701	0.039
318.15	0.402055	990.882	0.039
318.15	0.500081	991.058	0.039
318.15	0.600673	991.241	0.04

System: 1,1,1-trimethylolethane + water; phases: Liquid
Fixed: Pressure, kPa = 101
Property: Speed of sound, m/s (Liquid); method: Sing-around technique in a fixed-path interferometer
Temperature, K	Molality, mol/kg of 1,1,1-trimethylolethane	Speed of sound, m/s	uncertainty
278.15	0.099952	1433.86	0.72
278.15	0.198504	1441.3	0.73
278.15	0.290953	1448.16	0.73
278.15	0.392296	1455.6	0.74
278.15	0.496187	1463.11	0.74
278.15	0.604245	1470.7	0.75
278.15	0.099952	1433.84	0.72
278.15	0.198504	1441.3	0.73
278.15	0.290953	1448.17	0.73
278.15	0.392296	1455.6	0.74
278.15	0.496187	1463.11	0.74
278.15	0.604245	1470.71	0.75
283.15	0.099952	1454.41	0.73
283.15	0.198504	1461.3	0.73
283.15	0.290953	1467.69	0.74
283.15	0.392296	1474.58	0.74
283.15	0.496187	1481.55	0.75
283.15	0.604245	1488.59	0.75
283.15	0.099952	1454.4	0.73
283.15	0.198504	1461.31	0.73
283.15	0.290953	1467.7	0.74
283.15	0.392296	1474.61	0.74
283.15	0.496187	1481.57	0.75
283.15	0.604245	1488.6	0.75
288.15	0.099952	1472.57	0.74
288.15	0.198504	1479	0.74
288.15	0.290953	1484.93	0.74
288.15	0.392296	1491.35	0.75
288.15	0.496187	1497.83	0.75
288.15	0.604245	1504.39	0.76
288.15	0.099952	1472.58	0.74
288.15	0.198504	1479.01	0.74
288.15	0.290953	1484.94	0.74
288.15	0.392296	1491.36	0.75
288.15	0.496187	1497.84	0.75
288.15	0.604245	1504.4	0.76
293.15	0.099952	1488.52	0.74
293.15	0.198504	1494.52	0.75
293.15	0.290953	1500.06	0.75
293.15	0.392296	1506.07	0.75
293.15	0.496187	1512.1	0.76
293.15	0.604245	1518.19	0.76
293.15	0.099952	1488.52	0.74
293.15	0.198504	1494.53	0.75
293.15	0.290953	1500.07	0.75
293.15	0.392296	1506.09	0.75
293.15	0.496187	1512.11	0.76
293.15	0.604245	1518.21	0.76
298.15	0.099952	1502.44	0.75
298.15	0.198504	1508.05	0.75
298.15	0.290953	1513.23	0.75
298.15	0.392296	1518.81	0.76
298.15	0.496187	1524.44	0.76
298.15	0.604245	1530.12	0.77
298.15	0.099952	1502.47	0.75
298.15	0.198504	1508.08	0.75
298.15	0.290953	1513.25	0.75
298.15	0.392296	1518.83	0.76
298.15	0.496187	1524.46	0.76
298.15	0.604245	1530.15	0.77
308.15	0.099952	1524.96	0.75
308.15	0.198504	1529.9	0.76
308.15	0.290953	1534.39	0.76
308.15	0.392296	1539.3	0.76
308.15	0.496187	1544.24	0.77
308.15	0.604245	1549.2	0.77
308.15	0.290953	1534.73	0.76
308.15	0.392296	1539.64	0.77
308.15	0.496187	1544.53	0.77
308.15	0.604245	1548.92	0.77
318.15	0.099952	1540.86	0.76
318.15	0.198504	1545.2	0.76
318.15	0.290953	1549.12	0.77
318.15	0.392296	1553.34	0.77
318.15	0.496187	1557.62	0.77
318.15	0.604245	1561.94	0.78
318.15	0.198504	1545.51	0.76
318.15	0.290953	1548.97	0.77
318.15	0.392296	1553.17	0.77
318.15	0.496187	1557.43	0.77
318.15	0.604245	1561.73	0.78

System: 2-ethyl-2-(hydroxymethyl)-1,3-propanediol + water; phases: Liquid
Fixed: Pressure, kPa = 101
Property: Speed of sound, m/s (Liquid); method: Sing-around technique in a fixed-path interferometer
Temperature, K	Molality, mol/kg of 2-ethyl-2-(hydroxymethyl)-1,3-propanediol	Speed of sound, m/s	uncertainty
278.15	0.099736	1436.05	0.72
278.15	0.19981	1445.66	0.73
278.15	0.299981	1455.09	0.74
278.15	0.396143	1463.96	0.74
278.15	0.504794	1473.78	0.75
278.15	0.099736	1436.08	0.72
278.15	0.19981	1445.68	0.73
278.15	0.299981	1455.12	0.74
278.15	0.396143	1463.99	0.74
278.15	0.504794	1473.8	0.75
283.15	0.099736	1456.43	0.73
283.15	0.19981	1465.34	0.74
283.15	0.299981	1474.11	0.74
283.15	0.396143	1482.33	0.75
283.15	0.504794	1491.41	0.75
283.15	0.099736	1456.45	0.73
283.15	0.19981	1465.37	0.74
283.15	0.299981	1474.13	0.74
283.15	0.396143	1482.37	0.75
283.15	0.504794	1491.44	0.75
288.15	0.099736	1474.48	0.74
288.15	0.19981	1482.76	0.74
288.15	0.299981	1490.89	0.75
288.15	0.396143	1498.52	0.75
288.15	0.504794	1506.96	0.76
288.15	0.099736	1474.48	0.74
288.15	0.19981	1482.76	0.74
288.15	0.299981	1490.89	0.75
288.15	0.396143	1498.53	0.75
288.15	0.504794	1506.97	0.76
293.15	0.099736	1490.29	0.74
293.15	0.19981	1498	0.75
293.15	0.299981	1505.57	0.75
293.15	0.396143	1512.67	0.76
293.15	0.504794	1520.49	0.76
293.15	0.099736	1490.3	0.74
293.15	0.19981	1498.02	0.75
293.15	0.299981	1505.6	0.75
293.15	0.396143	1512.7	0.76
293.15	0.504794	1520.52	0.76
298.15	0.099736	1504.09	0.75
298.15	0.19981	1511.27	0.75
298.15	0.299981	1518.32	0.76
298.15	0.396143	1524.9	0.76
298.15	0.504794	1532.17	0.77
298.15	0.099736	1504.1	0.75
298.15	0.19981	1511.29	0.75
298.15	0.299981	1518.33	0.76
298.15	0.396143	1524.92	0.76
298.15	0.504794	1532.2	0.77
308.15	0.099736	1526.49	0.76
308.15	0.19981	1532.73	0.76
308.15	0.299981	1538.86	0.76
308.15	0.396143	1544.58	0.77
308.15	0.504794	1550.87	0.77
308.15	0.099736	1526.17	0.76
308.15	0.19981	1532.4	0.76
308.15	0.299981	1538.53	0.76
308.15	0.396143	1544.3	0.77
308.15	0.504794	1550.55	0.77
318.15	0.099736	1542.18	0.76
318.15	0.19981	1547.56	0.76
318.15	0.299981	1552.8	0.77
318.15	0.396143	1557.41	0.77
318.15	0.504794	1562.78	0.78
318.15	0.099736	1542.01	0.76
318.15	0.19981	1547.42	0.76
318.15	0.299981	1552.67	0.77
318.15	0.396143	1557.59	0.77
318.15	0.504794	1562.99	0.78

System: 2,2-bis(hydroxymethyl)-1,3-propanediol + water; phases: Liquid
Fixed: Pressure, kPa = 101
Property: Speed of sound, m/s (Liquid); method: Sing-around technique in a fixed-path interferometer
Temperature, K	Molality, mol/kg of 2,2-bis(hydroxymethyl)-1,3-propanediol	Speed of sound, m/s	uncertainty
278.15	0.100236	1432.63	0.72
278.15	0.150101	1435.79	0.73
278.15	0.200125	1438.99	0.73
278.15	0.250294	1442.17	0.73
278.15	0.300478	1445.31	0.73
278.15	0.350045	1448.38	0.73
278.15	0.100236	1432.65	0.72
278.15	0.150101	1435.81	0.73
278.15	0.200125	1438.99	0.73
278.15	0.250294	1442.13	0.73
278.15	0.300478	1445.26	0.73
278.15	0.350045	1448.33	0.73
278.15	0.100236	1432.63	0.72
278.15	0.150101	1435.8	0.73
278.15	0.200125	1439	0.73
278.15	0.250294	1442.14	0.73
278.15	0.300478	1445.28	0.73
278.15	0.350045	1448.35	0.73
283.15	0.100236	1453.29	0.73
283.15	0.150101	1456.25	0.73
283.15	0.200125	1459.23	0.73
283.15	0.250294	1462.17	0.74
283.15	0.300478	1465.1	0.74
283.15	0.350045	1467.99	0.74
283.15	0.100236	1453.3	0.73
283.15	0.150101	1456.26	0.73
283.15	0.200125	1459.23	0.73
283.15	0.250294	1462.18	0.74
283.15	0.300478	1465.11	0.74
283.15	0.350045	1467.99	0.74
283.15	0.100236	1453.31	0.73
283.15	0.150101	1456.28	0.73
283.15	0.200125	1459.25	0.73
283.15	0.250294	1462.2	0.74
283.15	0.300478	1465.13	0.74
283.15	0.350045	1468.02	0.74
288.15	0.100236	1471.6	0.74
288.15	0.150101	1474.37	0.74
288.15	0.200125	1477.16	0.74
288.15	0.250294	1479.89	0.74
288.15	0.300478	1482.62	0.74
288.15	0.350045	1485.31	0.75
288.15	0.100236	1471.62	0.74
288.15	0.150101	1474.4	0.74
288.15	0.200125	1477.18	0.74
288.15	0.250294	1479.93	0.74
288.15	0.300478	1482.67	0.74
288.15	0.350045	1485.36	0.75
288.15	0.100236	1471.61	0.74
288.15	0.150101	1474.39	0.74
288.15	0.200125	1477.18	0.74
288.15	0.250294	1479.94	0.74
288.15	0.300478	1482.67	0.74
288.15	0.350045	1485.37	0.75
293.15	0.100236	1487.65	0.74
293.15	0.150101	1490.26	0.74
293.15	0.200125	1492.87	0.75
293.15	0.250294	1495.48	0.75
293.15	0.300478	1498.05	0.75
293.15	0.350045	1500.59	0.75
293.15	0.100236	1487.66	0.74
293.15	0.150101	1490.28	0.74
293.15	0.200125	1492.89	0.75
293.15	0.250294	1495.49	0.75
293.15	0.300478	1498.06	0.75
293.15	0.350045	1500.6	0.75
293.15	0.200125	1492.85	0.75
293.15	0.250294	1495.45	0.75
293.15	0.300478	1498.02	0.75
293.15	0.350045	1500.56	0.75
298.15	0.100236	1501.68	0.75
298.15	0.150101	1504.12	0.75
298.15	0.200125	1506.6	0.75
298.15	0.250294	1509.04	0.75
298.15	0.300478	1511.5	0.75
298.15	0.350045	1513.86	0.76
298.15	0.100236	1501.68	0.75
298.15	0.150101	1504.12	0.75
298.15	0.200125	1506.61	0.75
298.15	0.250294	1509.05	0.75
298.15	0.300478	1511.5	0.75
298.15	0.350045	1513.87	0.76
298.15	0.100236	1501.69	0.75
298.15	0.150101	1504.15	0.75
298.15	0.200125	1506.62	0.75
298.15	0.250294	1509.06	0.75
298.15	0.300478	1511.49	0.75
298.15	0.350045	1513.88	0.76
303.15	0.100236	1513.84	0.75
303.15	0.150101	1516.16	0.75
303.15	0.200125	1518.47	0.75
303.15	0.250294	1520.77	0.76
303.15	0.300478	1523.05	0.76
303.15	0.350045	1525.29	0.76
303.15	0.100236	1513.85	0.75
303.15	0.150101	1516.17	0.75
303.15	0.200125	1518.48	0.75
303.15	0.250294	1520.79	0.76
303.15	0.300478	1523.07	0.76
303.15	0.350045	1525.33	0.76
303.15	0.100236	1513.85	0.75
303.15	0.200125	1518.46	0.75
303.15	0.250294	1520.77	0.76
303.15	0.300478	1523.07	0.76
303.15	0.350045	1525.34	0.76
308.15	0.100236	1524.29	0.75
308.15	0.150101	1526.46	0.76
308.15	0.200125	1528.63	0.76
308.15	0.250294	1530.79	0.76
308.15	0.300478	1532.95	0.76
308.15	0.350045	1535.06	0.76
308.15	0.100236	1524.26	0.75
308.15	0.150101	1526.43	0.76
308.15	0.200125	1528.62	0.76
308.15	0.250294	1530.78	0.76
308.15	0.300478	1532.93	0.76
308.15	0.350045	1535.06	0.76
308.15	0.100236	1524.3	0.75
308.15	0.150101	1526.43	0.76
308.15	0.200125	1528.61	0.76
308.15	0.250294	1530.77	0.76
308.15	0.300478	1532.91	0.76
308.15	0.350045	1535.03	0.76
318.15	0.100236	1540.37	0.76
318.15	0.150101	1542.3	0.76
318.15	0.200125	1544.25	0.76
318.15	0.250294	1546.17	0.77
318.15	0.300478	1548.07	0.77
318.15	0.350045	1549.94	0.77
318.15	0.100236	1540.41	0.76
318.15	0.150101	1542.36	0.76
318.15	0.200125	1544.33	0.76
318.15	0.250294	1546.25	0.77
318.15	0.300478	1548.16	0.77
318.15	0.350045	1550.03	0.77
318.15	0.100236	1540.42	0.76
318.15	0.150101	1542.38	0.76
318.15	0.200125	1544.34	0.76
318.15	0.250294	1546.28	0.77
318.15	0.300478	1548.19	0.77
318.15	0.350045	1550.07	0.77

System: 2,2-bis(hydroxymethyl)-1,3-propanediol + water; phases: Liquid
Fixed: Pressure, kPa = 101
Property: Mass density, kg/m3 (Liquid); method: Vibrating tube method
Temperature, K	Molality, mol/kg of 2,2-bis(hydroxymethyl)-1,3-propanediol	Mass density, kg/m3	uncertainty
273.15	0.100236	1003.544	0.035
273.15	0.150101	1005.295	0.036
273.15	0.200125	1007.044	0.037
273.15	0.250294	1008.767	0.038
273.15	0.300478	1010.475	0.039
273.15	0.350045	1012.152	0.04
273.15	0.100236	1003.545	0.035
273.15	0.150101	1005.296	0.036
273.15	0.200125	1007.045	0.037
273.15	0.250294	1008.77	0.038
273.15	0.300478	1010.478	0.039
273.15	0.350045	1012.154	0.04
273.15	0.100236	1003.546	0.035
273.15	0.150101	1005.297	0.036
273.15	0.200125	1007.049	0.037
273.15	0.250294	1008.772	0.038
273.15	0.300478	1010.482	0.039
273.15	0.350045	1012.156	0.04
283.15	0.100236	1003.23	0.035
283.15	0.150101	1004.959	0.036
283.15	0.200125	1006.681	0.037
283.15	0.250294	1008.385	0.038
283.15	0.300478	1010.069	0.039
283.15	0.350045	1011.723	0.04
283.15	0.100236	1003.231	0.035
283.15	0.150101	1004.959	0.036
283.15	0.200125	1006.682	0.037
283.15	0.250294	1008.386	0.038
283.15	0.300478	1010.071	0.039
283.15	0.350045	1011.722	0.04
283.15	0.100236	1003.232	0.035
283.15	0.150101	1004.963	0.036
283.15	0.200125	1006.687	0.037
283.15	0.250294	1008.392	0.038
283.15	0.300478	1010.077	0.039
283.15	0.350045	1011.729	0.04
288.15	0.100236	1002.591	0.035
288.15	0.150101	1004.298	0.036
288.15	0.200125	1006.004	0.037
288.15	0.250294	1007.684	0.038
288.15	0.300478	1009.347	0.038
288.15	0.350045	1010.983	0.039
288.15	0.100236	1002.589	0.035
288.15	0.150101	1004.298	0.036
288.15	0.200125	1006.006	0.037
288.15	0.250294	1007.685	0.038
288.15	0.300478	1009.351	0.038
288.15	0.350045	1010.984	0.039
288.15	0.100236	1002.592	0.035
288.15	0.150101	1004.301	0.036
288.15	0.200125	1006.01	0.037
288.15	0.250294	1007.69	0.038
288.15	0.300478	1009.355	0.038
288.15	0.350045	1010.989	0.039
293.15	0.100236	1001.659	0.034
293.15	0.150101	1003.35	0.035
293.15	0.200125	1005.036	0.036
293.15	0.250294	1006.701	0.037
293.15	0.300478	1008.349	0.038
293.15	0.350045	1009.968	0.039
293.15	0.100236	1001.658	0.034
293.15	0.150101	1003.349	0.035
293.15	0.200125	1005.035	0.036
293.15	0.250294	1006.7	0.037
293.15	0.300478	1008.348	0.038
293.15	0.350045	1009.966	0.039
293.15	0.100236	1001.661	0.034
293.15	0.150101	1003.353	0.035
293.15	0.200125	1005.04	0.036
293.15	0.250294	1006.706	0.037
293.15	0.300478	1008.353	0.038
293.15	0.350045	1009.971	0.039
298.15	0.100236	1000.471	0.034
298.15	0.150101	1002.145	0.035
298.15	0.200125	1003.815	0.036
298.15	0.250294	1005.467	0.037
298.15	0.300478	1007.099	0.038
298.15	0.350045	1008.703	0.039
298.15	0.100236	1000.469	0.034
298.15	0.150101	1002.145	0.035
298.15	0.200125	1003.815	0.036
298.15	0.250294	1005.467	0.037
298.15	0.300478	1007.1	0.038
298.15	0.350045	1008.7	0.039
298.15	0.100236	1000.467	0.034
298.15	0.150101	1002.147	0.035
298.15	0.200125	1003.819	0.036
298.15	0.250294	1005.472	0.037
298.15	0.300478	1007.105	0.038
298.15	0.350045	1008.709	0.039
303.15	0.100236	999.045	0.034
303.15	0.150101	1000.706	0.035
303.15	0.200125	1002.365	0.036
303.15	0.250294	1004.003	0.036
303.15	0.300478	1005.622	0.037
303.15	0.350045	1007.213	0.038
303.15	0.100236	999.045	0.034
303.15	0.150101	1000.706	0.035
303.15	0.200125	1002.365	0.036
303.15	0.250294	1004.002	0.036
303.15	0.300478	1005.622	0.037
303.15	0.350045	1007.215	0.038
303.15	0.100236	999.044	0.034
303.15	0.150101	1000.707	0.035
303.15	0.200125	1002.363	0.036
303.15	0.250294	1004.002	0.036
303.15	0.300478	1005.622	0.037
303.15	0.350045	1007.217	0.038
308.15	0.100236	997.404	0.035
308.15	0.150101	999.052	0.035
308.15	0.200125	1000.697	0.035
308.15	0.250294	1002.325	0.036
308.15	0.300478	1003.932	0.037
308.15	0.350045	1005.513	0.038
308.15	0.100236	997.404	0.035
308.15	0.150101	999.053	0.035
308.15	0.200125	1000.698	0.035
308.15	0.250294	1002.326	0.036
308.15	0.300478	1003.935	0.037
308.15	0.350045	1005.52	0.038
308.15	0.100236	997.402	0.035
308.15	0.150101	999.053	0.035
308.15	0.200125	1000.7	0.035
308.15	0.250294	1002.328	0.036
308.15	0.300478	1003.938	0.037
308.15	0.350045	1005.519	0.038
318.15	0.100236	993.545	0.037
318.15	0.150101	995.176	0.036
318.15	0.200125	996.806	0.036
318.15	0.250294	998.41	0.036
318.15	0.300478	1000	0.035
318.15	0.350045	1001.559	0.036
318.15	0.100236	993.545	0.037
318.15	0.150101	995.176	0.036
318.15	0.200125	996.806	0.036
318.15	0.250294	998.41	0.036
318.15	0.300478	1000	0.035
318.15	0.350045	1001.559	0.036
318.15	0.100236	993.543	0.037
318.15	0.150101	995.177	0.036
318.15	0.200125	996.808	0.036
318.15	0.250294	998.412	0.036
318.15	0.300478	1000.001	0.035
318.15	0.350045	1001.563	0.036

System: water + 3,3,7,7-tetrakis(hydroxymethyl)-5-oxanonane; phases: Liquid
Fixed: Pressure, kPa = 101
Property: Speed of sound, m/s (Liquid); method: Sing-around technique in a fixed-path interferometer
Temperature, K	Molality, mol/kg of 3,3,7,7-tetrakis(hydroxymethyl)-5-oxanonane	Speed of sound, m/s	uncertainty
278.15	0.019719	1429.79	0.72
278.15	0.04105	1433.62	0.72
278.15	0.060452	1437.06	0.73
278.15	0.079001	1440.34	0.73
278.15	0.019719	1429.77	0.72
278.15	0.04105	1433.65	0.72
278.15	0.060452	1437.07	0.73
278.15	0.079001	1440.31	0.73
283.15	0.019719	1450.62	0.73
283.15	0.04105	1454.14	0.73
283.15	0.060452	1457.3	0.73
283.15	0.079001	1460.28	0.73
283.15	0.019719	1450.6	0.73
283.15	0.04105	1454.13	0.73
283.15	0.060452	1457.29	0.73
283.15	0.079001	1460.28	0.73
288.15	0.019719	1469	0.73
288.15	0.04105	1472.28	0.74
288.15	0.060452	1475.21	0.74
288.15	0.079001	1477.96	0.74
288.15	0.019719	1469.01	0.73
288.15	0.04105	1472.27	0.74
288.15	0.060452	1475.22	0.74
288.15	0.079001	1477.96	0.74
293.15	0.019719	1485.17	0.74
293.15	0.04105	1488.18	0.74
293.15	0.060452	1490.88	0.74
293.15	0.079001	1493.43	0.74
293.15	0.019719	1485.18	0.74
293.15	0.04105	1488.2	0.74
293.15	0.060452	1490.9	0.74
293.15	0.079001	1493.42	0.74
298.15	0.019719	1499.32	0.74
298.15	0.04105	1502.1	0.75
298.15	0.060452	1504.59	0.75
298.15	0.079001	1506.93	0.75
298.15	0.019719	1499.32	0.74
298.15	0.04105	1502.11	0.75
298.15	0.060452	1504.61	0.75
298.15	0.079001	1506.93	0.75
308.15	0.019719	1522.16	0.75
308.15	0.04105	1524.52	0.75
308.15	0.060452	1526.64	0.76
308.15	0.079001	1528.63	0.76
308.15	0.019719	1521.98	0.75
308.15	0.04105	1524.33	0.75
308.15	0.060452	1526.44	0.76
308.15	0.079001	1528.42	0.76
318.15	0.019719	1538.22	0.76
318.15	0.04105	1540.21	0.76
318.15	0.060452	1541.99	0.76
318.15	0.079001	1543.65	0.76
318.15	0.019719	1538.33	0.76
318.15	0.04105	1540.32	0.76
318.15	0.060452	1542.09	0.76
318.15	0.079001	1543.77	0.76
