Measured thermophysical data. Composition Dependent Physicochemical Property Data for the Binary System Water and the Ionic Liquid 1-Butyl-3-methylimidazolium Methanesulfonate ([C4mim][MeSO3])
Source: J. Chem. Eng. Data, 2012, 10.1021/je300045c
Compound 1: water, H2O, InChI=1S/H2O/h1H2, purity 99.9%
Compound 2: 1-butyl-3-methylimidazolium methanesulfonate, C9H18N2O3S, InChI=1S/C8H15N2.CH4O3S/c1-3-4-5-10-7-6-9(2)8-10;1-5(2,3)4/h6-8H,3-5H2,1-2H3;1H3,(H,2,3,4)/q+1;/p-1, purity 99%

System: 1-butyl-3-methylimidazolium methanesulfonate; phases: Liquid
Property: Electrical conductivity, S/m (Liquid); method: Alternating current cell with electrodes
Temperature, K	Pressure, kPa	Electrical conductivity, S/m	uncertainty
358.15	101	0.805	0.14

System: 1-butyl-3-methylimidazolium methanesulfonate; phases: Liquid
Property: Mass density, kg/m3 (Liquid); method: Vibrating tube method
Pressure, kPa	Temperature, K	Mass density, kg/m3	uncertainty
101	358.15	1134	2

System: water + 1-butyl-3-methylimidazolium methanesulfonate; phases: Liquid
Fixed: Temperature, K = 358.15
Fixed: Pressure, kPa = 101
Property: Molar heat capacity at constant pressure, J/K/mol (Liquid); method: Small sample (50 mg) DSC
Mass fraction of water	Molar heat capacity at constant pressure, J/K/mol	uncertainty
0.002	1.768	0.221
0.014	1.793	0.222
0.032	1.996	0.222
0.032	2.027	0.222
0.087	2.267	0.222
0.097	2.252	0.222
0.15	2.244	0.222
0.233	2.448	0.223
0.429	2.926	0.224
1	4.12	0.228

System: water + 1-butyl-3-methylimidazolium methanesulfonate; phases: Liquid
Fixed: Temperature, K = 358.15
Fixed: Pressure, kPa = 101
Property: Electrical conductivity, S/m (Liquid); method: Alternating current cell with electrodes
Mole fraction of water	Electrical conductivity, S/m	uncertainty
0	0.805	0.14
0.012	0.821	0.14
0.028	0.84	0.14
0.049	0.871	0.14
0.074	0.907	0.14
0.106	0.955	0.14
0.131	1.005	0.14
0.147	1.026	0.14
0.156	1.057	0.14
0.185	1.12	0.14
0.203	1.135	0.14
0.217	1.197	0.14
0.252	1.287	0.14
0.27	1.3	0.14
0.306	1.443	0.14
0.358	1.615	0.14
0.363	1.595	0.14
0.423	1.868	0.14
0.457	1.996	0.14
0.495	2.22	0.141
0.535	2.46	0.14
0.556	2.58	0.141
0.61	3.02	0.141
0.643	3.14	0.142
0.677	3.71	0.143
0.744	4.6	0.157
0.75	4.81	0.157
0.836	6.82	0.205
0.842	7.27	0.205
0.878	9	0.17

System: water + 1-butyl-3-methylimidazolium methanesulfonate; phases: Liquid
Fixed: Temperature, K = 358.15
Fixed: Pressure, kPa = 101
Property: Molar enthalpy of solution, kJ/mol (Liquid); method: Flow calorimetry
Mole fraction of water	Molar enthalpy of solution, kJ/mol	uncertainty
0.012	4.49	0.6
0.028	3.55	0.2
0.049	4.49	0.2
0.074	4.29	0.2
0.106	4.24	0.2
0.14	3.96	1
0.147	4.1	0.2
0.159	3.86	1
0.187	3.48	1
0.203	3.7	0.2
0.224	3.31	1
0.27	3.48	0.6
0.271	3.2	0.2
0.329	2.77	0.2
0.363	2.88	0.6
0.4	2.57	0.2
0.457	2.43	0.6
0.478	2.01	0.2
0.555	1.95	0.2
0.556	1.72	0.6
0.628	1.29	0.6
0.643	1.39	0.6
0.692	1.1	0.6
0.744	0.77	0.6
0.771	0.54	0.6
0.836	0.69	0.6
0.848	0.63	0.6
0.886	0.19	0.6

System: water + 1-butyl-3-methylimidazolium methanesulfonate; phases: Liquid
Fixed: Temperature, K = 358.15
Fixed: Pressure, kPa = 101
Property: Viscosity, Pa*s (Liquid); method: Falling or rolling sphere viscometry
Mole fraction of water	Viscosity, Pa*s	uncertainty
0.559	0.007514	0.000755
0.654	0.005344	0.000538
0.702	0.004549	0.000458
0.749	0.003616	0.000364
0.801	0.002795	0.000282
0.852	0.002048	0.000207
0.9	0.001486	0.000151
0.925	0.001149	0.000118
0.95	0.000834	8.7e-05
0.975	0.000547	5.8e-05
1	0.000334	3.3e-05

System: water + 1-butyl-3-methylimidazolium methanesulfonate; phases: Liquid
Fixed: Temperature, K = 358.15
Fixed: Pressure, kPa = 101
Property: Mass density, kg/m3 (Liquid); method: Vibrating tube method
Mole fraction of water	Mass density, kg/m3	uncertainty
0.559	1120.7	2
0.654	1114.4	2
0.702	1110.3	2
0.749	1104.1	2
0.801	1094.9	2
0.852	1081.2	2
0.9	1062.3	2
0.925	1048.2	2
0.95	1029.7	2
0.975	1003.9	2

System: water + 1-butyl-3-methylimidazolium methanesulfonate; phases: Liquid
Fixed: Pressure, kPa = 101
Fixed: Temperature, K = 358.15
Property: Mass density, kg/m3 (Liquid); method: Vibrating tube method
Mole fraction of water	Mass density, kg/m3	uncertainty
0	1134	2
0.012	1134	2
0.028	1134	2
0.049	1134	2
0.074	1133	2
0.106	1133	2
0.131	1132	2
0.14	1132	2
0.147	1132	2
0.159	1131	2
0.187	1130	2
0.203	1130	2
0.224	1129	2
0.27	1129	2
0.271	1128	2
0.329	1126	4
0.363	1126	4
0.4	1125	4
0.457	1124	4
0.478	1122	4
0.555	1121	4
0.556	1120	4
0.628	1118	4
0.643	1116	6
0.692	1113	6
0.744	1106	6
0.771	1105	6
0.836	1087	10
0.848	1085	10
0.886	1072	10
