Measured thermophysical data. Solubility of Ethylene Glycol in Supercritical Carbon Dioxide at Pressures up to 19.0 MPa
Source: J. Chem. Eng. Data, 2012, 10.1021/je3002249
Compound 1: carbon dioxide, CO2, InChI=1S/CO2/c2-1-3, purity 99.99%
Compound 2: 1,2-ethanediol, C2H6O2, InChI=1S/C2H6O2/c3-1-2-4/h3-4H,1-2H2, purity 99.7%

System: 1,2-ethanediol + carbon dioxide; phases: Gas, Liquid
Property: Mole fraction of 1,2-ethanediol (Gas); method: Chromatography
Temperature, K	Pressure, kPa	Mole fraction of 1,2-ethanediol	uncertainty
313.15	7000	0.0125	0.0014
313.15	9000	0.0148	0.0016
313.15	11000	0.0179	0.0019
313.15	13000	0.0198	0.0021
313.15	15000	0.0226	0.0023
313.15	17000	0.0249	0.0025
313.15	19000	0.0254	0.0026
323.15	7000	0.0103	0.0011
323.15	9000	0.0129	0.0014
323.15	11000	0.0152	0.0016
323.15	13000	0.0181	0.0019
323.15	15000	0.0217	0.0023
323.15	17000	0.0263	0.0027
323.15	19000	0.0283	0.0029
333.15	7000	0.0102	0.0012
333.15	9000	0.0124	0.0013
333.15	11000	0.0147	0.0016
333.15	13000	0.0176	0.0019
333.15	15000	0.0213	0.0023
333.15	17000	0.0272	0.0029
333.15	19000	0.0316	0.0034
343.15	7000	0.009	0.001
343.15	9000	0.011	0.0012
343.15	11000	0.0133	0.0015
343.15	13000	0.0161	0.0018
343.15	15000	0.0201	0.0024
343.15	17000	0.0292	0.0034
343.15	19000	0.0358	0.0041
353.15	7000	0.0083	0.0009
353.15	9000	0.0097	0.0011
353.15	11000	0.012	0.0013
353.15	13000	0.0146	0.0016
353.15	15000	0.019	0.0026
353.15	17000	0.0316	0.004
353.15	19000	0.0429	0.0051
