Measured thermophysical data. Octanol/Air Partition Coefficients of Volatile Methylsiloxanes and Their Temperature Dependence
Source: J. Chem. Eng. Data, 2013, 10.1021/je301005b
Compound 1: octamethylcyclotetrasiloxane, C8H24O4Si4, InChI=1S/C8H24O4Si4/c1-13(2)9-14(3,4)11-16(7,8)12-15(5,6)10-13/h1-8H3
Compound 2: decamethylcyclopentasiloxane, C10H30O5Si5, InChI=1S/C10H30O5Si5/c1-16(2)11-17(3,4)13-19(7,8)15-20(9,10)14-18(5,6)12-16/h1-10H3
Compound 3: dodecamethylcyclohexasiloxane, C12H36O6Si6, InChI=1S/C12H36O6Si6/c1-19(2)13-20(3,4)15-22(7,8)17-24(11,12)18-23(9,10)16-21(5,6)14-19/h1-12H3
Compound 4: hexamethyldisiloxane, C6H18OSi2, InChI=1S/C6H18OSi2/c1-8(2,3)7-9(4,5)6/h1-6H3
Compound 5: octamethyltrisiloxane, C8H24O2Si3, InChI=1S/C8H24O2Si3/c1-11(2,3)9-13(7,8)10-12(4,5)6/h1-8H3
Compound 6: decamethyltetrasiloxane, C10H30O3Si4, InChI=1S/C10H30O3Si4/c1-14(2,3)11-16(7,8)13-17(9,10)12-15(4,5)6/h1-10H3
Compound 7: octan-1-ol, C8H18O, InChI=1S/C8H18O/c1-2-3-4-5-6-7-8-9/h9H,2-8H2,1H3

System: octan-1-ol + octamethylcyclotetrasiloxane; phases: Liquid, Gas
Fixed: Pressure, kPa = 101
Property: Amount concentration (molarity), mol/dm3 (Liquid); method: Radioactivity
Temperature, K	Amount concentration (molarity), mol/dm3	uncertainty
269.55	170000	62500
269.55	120000	38200
278.45	61700	22650
296.15	26900	15120
297.25	16600	6727
312.85	8320	3130
313.15	10500	6058

System: octan-1-ol + decamethylcyclopentasiloxane; phases: Liquid, Gas
Fixed: Pressure, kPa = 101
Property: Amount concentration (molarity), mol/dm3 (Liquid); method: Radioactivity
Temperature, K	Amount concentration (molarity), mol/dm3	uncertainty
268.15	513000	216600
269.55	851000	246900
278.45	427000	145700
296.15	100000	61870
297.25	91200	49170
312.85	37200	16290
313.15	34700	17160

System: octan-1-ol + dodecamethylcyclohexasiloxane; phases: Liquid, Gas
Fixed: Pressure, kPa = 101
Property: Amount concentration (molarity), mol/dm3 (Liquid); method: Radioactivity
Temperature, K	Amount concentration (molarity), mol/dm3	uncertainty
269.55	7080000	2426000
278.45	3090000	1453000
296.15	724000	344100
297.25	562000	387800
312.85	204000	132000

System: hexamethyldisiloxane + octan-1-ol; phases: Liquid, Gas
Fixed: Pressure, kPa = 101
Property: Amount concentration (molarity), mol/dm3 (Liquid); method: Radioactivity
Temperature, K	Amount concentration (molarity), mol/dm3	uncertainty
268.15	3240	1306
269.55	2690	944
278.75	1860	490
280.15	2000	368
296.15	1070	337
296.75	891	443
313.15	692	326
313.35	513	211

System: octamethyltrisiloxane + octan-1-ol; phases: Liquid, Gas
Fixed: Pressure, kPa = 101
Property: Amount concentration (molarity), mol/dm3 (Liquid); method: Radioactivity
Temperature, K	Amount concentration (molarity), mol/dm3	uncertainty
268.15	29500	13410
269.55	28800	7858
278.75	15500	5282
280.15	18600	3640
296.15	7240	2229
296.75	4790	1915
313.15	3800	911
313.35	2340	961

System: octan-1-ol + decamethyltetrasiloxane; phases: Liquid, Gas
Fixed: Pressure, kPa = 101
Property: Amount concentration (molarity), mol/dm3 (Liquid); method: Radioactivity
Temperature, K	Amount concentration (molarity), mol/dm3	uncertainty
268.15	339000	185800
269.45	295000	111400
278.75	162000	62690
280.15	170000	65190
296.15	57500	23600
296.75	35500	17820
313.15	25700	10980
313.35	13800	5566
