Measured thermophysical data. Validation of a New Apparatus Using the Dynamic Method for Determining the Critical Properties of Binary Gas/Gas Mixtures
Source: J. Chem. Eng. Data, 2013, 10.1021/je301209u
Compound 1: carbon dioxide, CO2, InChI=1S/CO2/c2-1-3
Compound 2: propane, C3H8, InChI=1S/C3H8/c1-3-2/h3H2,1-2H3
Compound 3: butane, C4H10, InChI=1S/C4H10/c1-3-4-2/h3-4H2,1-2H3

System: carbon dioxide; phases: Liquid, Gas
Property: Critical temperature, K (Liquid); method: VISOBSS::UFactor:2
Critical temperature, K	uncertainty
304.3	0.16

System: carbon dioxide; phases: Liquid, Gas
Property: Critical pressure, kPa (Liquid); method: DIRECT::UFactor:4
Critical pressure, kPa	uncertainty
7379.8	24.8

System: propane; phases: Liquid, Gas
Property: Critical temperature, K (Liquid); method: VISOBSS::UFactor:2
Critical temperature, K	uncertainty
369.84	0.16

System: propane; phases: Liquid, Gas
Property: Critical pressure, kPa (Liquid); method: DIRECT::UFactor:4
Critical pressure, kPa	uncertainty
4242.6	24.8

System: butane; phases: Liquid, Gas
Property: Critical temperature, K (Liquid); method: VISOBSS::UFactor:2
Critical temperature, K	uncertainty
424.82	0.16

System: butane; phases: Liquid, Gas
Property: Critical pressure, kPa (Liquid); method: DIRECT::UFactor:4
Critical pressure, kPa	uncertainty
3798.3	24.8

System: propane + carbon dioxide; phases: Liquid, Gas
Property: Critical temperature, K (Liquid); method: VISOBSS:UFactor:2
Mole fraction of carbon dioxide	Critical temperature, K	uncertainty
0	369.84	0.16
0.11569	362.84	0.19
0.21289	356.93	0.2
0.36536	344.98	0.23
0.49283	333.78	0.16
0.67726	319	0.3
0.82536	307.12	0.19
0.92515	303.46	0.19
1	304.3	0.16

System: propane + carbon dioxide; phases: Liquid, Gas
Property: Critical pressure, kPa (Liquid); method: DIRECT:UFactor:4
Mole fraction of carbon dioxide	Critical pressure, kPa	uncertainty
0	4242.6	24.8
0.11569	4790.6	24.8
0.21289	5192.8	29.6
0.36536	5899.1	24.8
0.49283	6275.9	29.2
0.67726	6528.7	29.7
0.82536	6689.7	28.9
0.92515	6893.8	24.8
1	7379.8	24.8

System: butane + carbon dioxide; phases: Liquid, Gas
Property: Critical temperature, K (Liquid); method: VISOBSS:UFactor:2
Mole fraction of carbon dioxide	Critical temperature, K	uncertainty
0	424.82	0.16
0.10522	418.38	0.16
0.17362	412.48	0.19
0.26514	405.58	0.23
0.33653	398.71	0.26
0.43027	388.66	0.21
0.51597	377.29	0.2
0.63551	359.42	0.16
0.73943	342.29	0.21
0.87324	318.81	0.28
0.94027	309.41	0.16
1	304.3	0.16

System: butane + carbon dioxide; phases: Liquid, Gas
Property: Critical pressure, kPa (Liquid); method: DIRECT:UFactor:4
Mole fraction of carbon dioxide	Critical pressure, kPa	uncertainty
0	3798.3	24.8
0.10522	4494	24.8
0.17362	4999.7	24.8
0.26514	5641.9	25.4
0.33653	6203.6	29.5
0.43027	6867.6	24.8
0.51597	7426.3	24.8
0.63551	7944.1	24.8
0.73943	8012.2	31.1
0.87324	7448.5	32.1
0.94027	7224.2	25.4
1	7379.8	24.8

System: propane + butane; phases: Liquid, Gas
Property: Critical temperature, K (Liquid); method: VISOBSS:UFactor:2
Mole fraction of propane	Critical temperature, K	uncertainty
0	424.82	0.16
0.25401	413.84	0.16
0.49409	402.02	0.16
0.75213	386.48	0.16
1	369.84	0.16

System: propane + butane; phases: Liquid, Gas
Property: Critical pressure, kPa (Liquid); method: DIRECT:UFactor:4
Mole fraction of propane	Critical pressure, kPa	uncertainty
0	3798.3	24.8
0.25401	4014	24.8
0.49409	4183.7	24.8
0.75213	4309.1	24.8
1	4242.6	24.8
