Measured thermophysical data. Effect of Ionic Liquids on the Isobaric Vapor-Liquid  equilibrium behavior of methanol-methyl ethyl  ketone (MEK)
Source: J. Chem. Eng. Data, 2013, 10.1021/je301062g
Compound 1: 1-ethyl-3-methylimidazolium tetrafluoroborate, C6H11BF4N2, InChI=1S/C6H11N2.BF4/c1-3-8-5-4-7(2)6-8;2-1(3,4)5/h4-6H,3H2,1-2H3;/q+1;-1, purity 99%
Compound 2: 1-butyl-3-methylimidazolium tetrafluoroborate, C8H15BF4N2, InChI=1S/C8H15N2.BF4/c1-3-4-5-10-7-6-9(2)8-10;2-1(3,4)5/h6-8H,3-5H2,1-2H3;/q+1;-1, purity 99%
Compound 3: 1-methyl-3-octylimidazolium tetrafluoroborate, C12H23BF4N2, InChI=1S/C12H23N2.BF4/c1-3-4-5-6-7-8-9-14-11-10-13(2)12-14;2-1(3,4)5/h10-12H,3-9H2,1-2H3;/q+1;-1, purity 99%
Compound 4: methanol, CH4O, InChI=1S/CH4O/c1-2/h2H,1H3, purity 99.9%
Compound 5: butanone, C4H8O, InChI=1S/C4H8O/c1-3-4(2)5/h3H2,1-2H3, purity 99.6%

System: methanol + butanone; phases: Liquid, Gas
Fixed: Pressure, kPa = 101.32
Property: Boiling temperature at pressure P, K (Liquid); method: Ebulliometric method (Recirculating still)
Mole fraction of methanol	Boiling temperature at pressure P, K	uncertainty
0.091	348.2	0.3
0.145	345.9	0.3
0.191	344.5	0.2
0.344	340.9	0.2
0.39	340.5	0.2
0.493	339.3	0.2
0.548	338.7	0.2
0.594	338.3	0.2
0.624	338.1	0.2
0.654	337.8	0.2
0.701	337.7	0.2
0.754	337.5	0.2
0.802	337.4	0.2
0.902	337.5	0.2
0.902	337.6	0.2
0.95	337.8	0.2
0.976	337.9	0.2
1	338.2	0.2

System: methanol + butanone; phases: Gas, Liquid
Fixed: Pressure, kPa = 101.23
Property: Mole fraction of methanol (Gas); method: Chromatography
Mole fraction of methanol	Mole fraction of methanol	uncertainty
0.091	0.24	0.008
0.145	0.321	0.007
0.191	0.373	0.007
0.344	0.52	0.007
0.39	0.555	0.006
0.493	0.628	0.006
0.548	0.656	0.006
0.594	0.69	0.005
0.624	0.702	0.005
0.654	0.725	0.005
0.701	0.746	0.005
0.754	0.777	0.005
0.802	0.811	0.005
0.902	0.888	0.005
0.902	0.889	0.005
0.95	0.939	0.006
0.976	0.968	0.006
1	1	

System: methanol + butanone + 1-ethyl-3-methylimidazolium tetrafluoroborate; phases: Gas, Liquid
Fixed: Pressure, kPa = 101.32
Property: Mole fraction of methanol (Gas); method: Chromatography
Mole fraction of methanol	Mole fraction of 1-ethyl-3-methylimidazolium tetrafluoroborate	Mole fraction of methanol	uncertainty
0.089	0.010619	0.193	0.01
0.181	0.010087	0.35	0.007
0.3	0.011401	0.469	0.01
0.388	0.011003	0.539	0.008
0.496	0.011877	0.606	0.008
0.589	0.011303	0.67	0.007
0.703	0.012001	0.741	0.007
0.805	0.011829	0.811	0.006
0.905	0.011767	0.897	0.005
0.954	0.010633	0.947	0.005
0.08	0.020911	0.148	0.01
0.162	0.020709	0.283	0.011
0.292	0.021007	0.427	0.01
0.379	0.019098	0.508	0.01
0.494	0.020106	0.583	0.009
0.588	0.02001	0.654	0.009
0.7	0.020337	0.723	0.007
0.803	0.020676	0.804	0.007
0.903	0.020091	0.894	0.008
0.953	0.019594	0.944	0.009
0.085	0.031682	0.139	0.007
0.152	0.029155	0.241	0.01
0.275	0.030106	0.381	0.012
0.374	0.030655	0.454	0.011
0.483	0.029854	0.537	0.011
0.502	0.030632	0.54	0.011
0.591	0.029276	0.606	0.011
0.694	0.028599	0.694	0.008
0.818	0.030887	0.781	0.009
0.922	0.031089	0.857	0.011

System: methanol + butanone + 1-ethyl-3-methylimidazolium tetrafluoroborate; phases: Gas, Liquid
Fixed: Pressure, kPa = 101.32
Property: Mole fraction of butanone (Gas); method: Chromatography
Mole fraction of methanol	Mole fraction of 1-ethyl-3-methylimidazolium tetrafluoroborate	Mole fraction of butanone	uncertainty
0.089	0.010619	0.807	0.01
0.181	0.010087	0.65	0.008
0.3	0.011401	0.531	0.01
0.388	0.011003	0.461	0.008
0.496	0.011877	0.394	0.008
0.589	0.011303	0.33	0.006
0.703	0.012001	0.259	0.007
0.805	0.011829	0.189	0.006
0.905	0.011767	0.103	0.005
0.954	0.010633	0.053	0.005
0.08	0.020911	0.852	0.01
0.162	0.020709	0.717	0.011
0.292	0.021007	0.573	0.01
0.379	0.019098	0.492	0.01
0.494	0.020106	0.417	0.009
0.588	0.02001	0.346	0.009
0.7	0.020337	0.277	0.007
0.803	0.020676	0.196	0.007
0.903	0.020091	0.106	0.008
0.953	0.019594	0.056	0.009
0.085	0.031682	0.861	0.007
0.152	0.029155	0.759	0.01
0.275	0.030106	0.619	0.012
0.374	0.030655	0.546	0.011
0.483	0.029854	0.463	0.011
0.502	0.030632	0.46	0.011
0.591	0.029276	0.394	0.011
0.694	0.028599	0.306	0.008
0.818	0.030887	0.219	0.009
0.922	0.031089	0.143	0.011

System: methanol + butanone + 1-ethyl-3-methylimidazolium tetrafluoroborate; phases: Liquid, Gas
Fixed: Pressure, kPa = 101.32
Property: Boiling temperature at pressure P, K (Liquid); method: Ebulliometric method (Recirculating still)
Mole fraction of methanol	Mole fraction of 1-ethyl-3-methylimidazolium tetrafluoroborate	Boiling temperature at pressure P, K	uncertainty
0.089	0.010619	349.7	0.3
0.181	0.010087	346.7	0.3
0.3	0.011401	345.1	0.4
0.388	0.011003	343.5	0.5
0.496	0.011877	342.1	0.5
0.589	0.011303	340.7	0.5
0.703	0.012001	339.9	0.5
0.805	0.011829	339.5	0.4
0.905	0.011767	339.5	0.4
0.954	0.010633	339.4	0.5
0.08	0.020911	350.1	0.2
0.162	0.020709	348.6	0.4
0.292	0.021007	347	0.4
0.379	0.019098	345.4	0.5
0.494	0.020106	344.1	0.5
0.588	0.02001	343	0.6
0.7	0.020337	341.8	0.6
0.803	0.020676	341.2	0.6
0.903	0.020091	341.1	0.6
0.953	0.019594	341.3	0.6
0.085	0.031682	352.3	0.5
0.152	0.029155	350.5	0.5
0.275	0.030106	348.5	0.4
0.374	0.030655	347.5	0.4
0.483	0.029854	346.6	0.5
0.502	0.030632	346.2	0.5
0.591	0.029276	345.5	0.6
0.694	0.028599	344.8	0.8
0.818	0.030887	344.6	0.7
0.922	0.031089	344.7	0.7

System: methanol + butanone + 1-butyl-3-methylimidazolium tetrafluoroborate; phases: Liquid, Gas
Fixed: Pressure, kPa = 101.32
Property: Boiling temperature at pressure P, K (Liquid); method: Ebulliometric method (Recirculating still)
Mole fraction of methanol	Mole fraction of 1-butyl-3-methylimidazolium tetrafluoroborate	Boiling temperature at pressure P, K	uncertainty
0.132	0.009504	348	0.7
0.279	0.011257	345.4	0.7
0.389	0.010644	343.6	0.7
0.491	0.010065	342.4	0.7
0.539	0.009854	341.9	0.7
0.592	0.009905	341.2	0.7
0.791	0.010184	340.2	0.7
0.814	0.009653	339.9	0.7
0.9	0.009972	340	0.6
0.953	0.010258	340.2	0.6
0.17	0.020654	350.7	0.6
0.275	0.020132	348.5	0.7
0.383	0.020283	346.9	0.7
0.504	0.020441	345.5	0.7
0.542	0.019981	345	0.7
0.603	0.019954	344.5	0.8
0.707	0.019304	343.8	0.8
0.804	0.019785	343.3	0.8
0.903	0.01971	342.9	0.8
0.956	0.01906	342.7	0.7
0.068	0.030913	355.6	0.6
0.142	0.030237	354	0.6
0.254	0.030656	352.2	0.7
0.347	0.030347	350.7	0.7
0.434	0.030152	349.7	0.7
0.577	0.03049	348.8	0.8
0.688	0.030298	348.2	0.8
0.787	0.029469	347.6	0.9
0.891	0.030101	347.3	0.9
0.949	0.029602	347	0.9

System: methanol + butanone + 1-butyl-3-methylimidazolium tetrafluoroborate; phases: Gas, Liquid
Fixed: Pressure, kPa = 101.32
Property: Mole fraction of methanol (Gas); method: Chromatography
Mole fraction of methanol	Mole fraction of 1-butyl-3-methylimidazolium tetrafluoroborate	Mole fraction of methanol	uncertainty
0.132	0.009504	0.295	0.01
0.279	0.011257	0.449	0.009
0.389	0.010644	0.54	0.008
0.491	0.010065	0.611	0.006
0.539	0.009854	0.642	0.007
0.592	0.009905	0.68	0.006
0.791	0.010184	0.804	0.006
0.814	0.009653	0.821	0.006
0.9	0.009972	0.898	0.006
0.953	0.010258	0.948	0.006
0.17	0.020654	0.294	0.01
0.275	0.020132	0.419	0.009
0.383	0.020283	0.51	0.009
0.504	0.020441	0.608	0.007
0.542	0.019981	0.626	0.007
0.603	0.019954	0.674	0.007
0.707	0.019304	0.748	0.006
0.804	0.019785	0.819	0.006
0.903	0.01971	0.903	0.006
0.956	0.01906	0.954	0.006
0.068	0.030913	0.135	0.008
0.142	0.030237	0.233	0.009
0.254	0.030656	0.367	0.01
0.347	0.030347	0.446	0.009
0.434	0.030152	0.523	0.009
0.577	0.03049	0.63	0.007
0.688	0.030298	0.719	0.006
0.787	0.029469	0.808	0.006
0.891	0.030101	0.897	0.006
0.949	0.029602	0.95	0.006

System: methanol + butanone + 1-butyl-3-methylimidazolium tetrafluoroborate; phases: Gas, Liquid
Fixed: Pressure, kPa = 101.32
Property: Mole fraction of butanone (Gas); method: Chromatography
Mole fraction of methanol	Mole fraction of 1-butyl-3-methylimidazolium tetrafluoroborate	Mole fraction of butanone	uncertainty
0.132	0.009504	0.705	0.01
0.279	0.011257	0.551	0.009
0.389	0.010644	0.46	0.008
0.491	0.010065	0.389	0.006
0.539	0.009854	0.358	0.007
0.592	0.009905	0.32	0.006
0.791	0.010184	0.196	0.005
0.814	0.009653	0.179	0.006
0.9	0.009972	0.102	0.006
0.953	0.010258	0.052	0.006
0.17	0.020654	0.706	0.01
0.275	0.020132	0.581	0.009
0.383	0.020283	0.49	0.009
0.504	0.020441	0.392	0.007
0.542	0.019981	0.374	0.007
0.603	0.019954	0.326	0.007
0.707	0.019304	0.252	0.006
0.804	0.019785	0.181	0.005
0.903	0.01971	0.097	0.005
0.956	0.01906	0.046	0.006
0.068	0.030913	0.865	0.008
0.142	0.030237	0.767	0.009
0.254	0.030656	0.633	0.01
0.347	0.030347	0.554	0.009
0.434	0.030152	0.477	0.009
0.577	0.03049	0.37	0.007
0.688	0.030298	0.281	0.006
0.787	0.029469	0.192	0.006
0.891	0.030101	0.103	0.006
0.949	0.029602	0.05	0.006

System: methanol + butanone + 1-methyl-3-octylimidazolium tetrafluoroborate; phases: Liquid, Gas
Fixed: Pressure, kPa = 101.32
Property: Boiling temperature at pressure P, K (Liquid); method: Ebulliometric method (Recirculating still)
Mole fraction of methanol	Mole fraction of 1-methyl-3-octylimidazolium tetrafluoroborate	Boiling temperature at pressure P, K	uncertainty
0.131	0.010475	350	0.9
0.201	0.010311	347.1	1
0.225	0.011128	347.2	0.9
0.336	0.00987	345	1
0.427	0.010353	343.5	1
0.521	0.010222	342.3	1
0.65	0.009765	340.8	1
0.753	0.011049	340.6	1.2
0.855	0.010383	340.4	0.8
0.906	0.009875	340.3	0.8
0.953	0.00976	340.3	0.8
0.09	0.020901	355.4	1.1
0.16	0.020173	352.8	1.2
0.23	0.019874	350.8	1
0.379	0.019321	348.8	1.3
0.5	0.020713	347.5	1.2
0.601	0.020679	346.6	1.1
0.697	0.019873	345.8	1.1
0.803	0.020665	344.8	0.9
0.9	0.019776	344.3	0.8
0.952	0.019838	344.1	0.8
0.141	0.030494	360.9	1.4
0.309	0.031955	358.5	1.5
0.401	0.029763	356.6	1.7
0.444	0.030487	355.5	1.5
0.504	0.029886	354.4	1.5
0.548	0.030263	353.4	1.5
0.593	0.030223	352.6	1.3
0.682	0.028728	350.3	1
0.799	0.029427	348.7	0.9
0.896	0.029652	347.5	0.7

System: methanol + butanone + 1-methyl-3-octylimidazolium tetrafluoroborate; phases: Gas, Liquid
Fixed: Pressure, kPa = 101.32
Property: Mole fraction of methanol (Gas); method: Chromatography
Mole fraction of methanol	Mole fraction of 1-methyl-3-octylimidazolium tetrafluoroborate	Mole fraction of methanol	uncertainty
0.131	0.010475	0.287	0.009
0.201	0.010311	0.38	0.009
0.225	0.011128	0.397	0.007
0.336	0.00987	0.505	0.008
0.427	0.010353	0.572	0.008
0.521	0.010222	0.653	0.007
0.65	0.009765	0.729	0.006
0.753	0.011049	0.795	0.007
0.855	0.010383	0.872	0.005
0.906	0.009875	0.912	0.005
0.953	0.00976	0.953	0.006
0.09	0.020901	0.176	0.011
0.16	0.020173	0.299	0.01
0.23	0.019874	0.383	0.009
0.379	0.019321	0.517	0.008
0.5	0.020713	0.608	0.007
0.601	0.020679	0.701	0.006
0.697	0.019873	0.772	0.006
0.803	0.020665	0.844	0.006
0.9	0.019776	0.914	0.005
0.952	0.019838	0.959	0.006
0.141	0.030494	0.235	0.006
0.309	0.031955	0.431	0.007
0.401	0.029763	0.517	0.008
0.444	0.030487	0.55	0.007
0.504	0.029886	0.612	0.007
0.548	0.030263	0.649	0.007
0.593	0.030223	0.7	0.007
0.682	0.028728	0.768	0.006
0.799	0.029427	0.847	0.006
0.896	0.029652	0.921	0.006

System: methanol + butanone + 1-methyl-3-octylimidazolium tetrafluoroborate; phases: Gas, Liquid
Fixed: Pressure, kPa = 101.32
Property: Mole fraction of butanone (Gas); method: Chromatography
Mole fraction of methanol	Mole fraction of 1-methyl-3-octylimidazolium tetrafluoroborate	Mole fraction of butanone	uncertainty
0.131	0.010475	0.713	0.009
0.201	0.010311	0.62	0.009
0.225	0.011128	0.603	0.008
0.336	0.00987	0.495	0.008
0.427	0.010353	0.428	0.008
0.521	0.010222	0.347	0.007
0.65	0.009765	0.271	0.006
0.753	0.011049	0.205	0.007
0.855	0.010383	0.128	0.005
0.906	0.009875	0.088	0.005
0.953	0.00976	0.047	0.006
0.09	0.020901	0.824	0.011
0.16	0.020173	0.701	0.01
0.23	0.019874	0.617	0.009
0.379	0.019321	0.483	0.008
0.5	0.020713	0.392	0.007
0.601	0.020679	0.299	0.006
0.697	0.019873	0.228	0.006
0.803	0.020665	0.156	0.006
0.9	0.019776	0.086	0.005
0.952	0.019838	0.041	0.005
0.141	0.030494	0.765	0.007
0.309	0.031955	0.569	0.007
0.401	0.029763	0.483	0.008
0.444	0.030487	0.45	0.007
0.504	0.029886	0.388	0.007
0.548	0.030263	0.351	0.006
0.593	0.030223	0.3	0.007
0.682	0.028728	0.232	0.005
0.799	0.029427	0.153	0.005
0.896	0.029652	0.079	0.005
