Measured thermophysical data. Vapor Pressures and Sublimation Thermodynamic Parameters for Novel Drug-Like Spiro-Derivatives
Source: J. Chem. Eng. Data, 2012, 10.1021/je300610y
Compound 1: N-phenyl-1-thia-3-azaspiro[5.5]undec-2-en-2-amine, C15H20N2S, InChI=1S/C15H20N2S/c1-3-7-13(8-4-1)17-14-16-12-11-15(18-14)9-5-2-6-10-15/h1,3-4,7-8H,2,5-6,9-12H2,(H,16,17)
Compound 2: N-(4-methylphenyl)-1-thia-3-azaspiro[5.5]undec-2-en-2-amine, C16H22N2S, InChI=1S/C16H22N2S/c1-13-5-7-14(8-6-13)18-15-17-12-11-16(19-15)9-3-2-4-10-16/h5-8H,2-4,9-12H2,1H3,(H,17,18)
Compound 3: N-(4-ethylphenyl)-1-thia-3-azaspiro[5.5]undec-2-en-2-amine, C17H24N2S, InChI=1S/C17H24N2S/c1-2-14-6-8-15(9-7-14)19-16-18-13-12-17(20-16)10-4-3-5-11-17/h6-9H,2-5,10-13H2,1H3,(H,18,19)
Compound 4: N-(4-isopropylphenyl)-1-thia-3-azaspiro[5.5]undec-2-en-2-amine, C18H26N2S, InChI=1S/C18H26N2S/c1-14(2)15-6-8-16(9-7-15)20-17-19-13-12-18(21-17)10-4-3-5-11-18/h6-9,14H,3-5,10-13H2,1-2H3,(H,19,20)
Compound 5: N-(3-chloro-4-methylphenyl)-1-thia-3-azaspiro[5.5]undec-2-en-2-amine, C16H21ClN2S, InChI=1S/C16H21ClN2S/c1-12-5-6-13(11-14(12)17)19-15-18-10-9-16(20-15)7-3-2-4-8-16/h5-6,11H,2-4,7-10H2,1H3,(H,18,19)
Compound 6: N-(4-(trifluoromethyl)phenyl)-1-thia-3-azaspiro[5.5]undec-2-en-2-amine, C16H19F3N2S, InChI=1S/C16H19F3N2S/c17-16(18,19)12-4-6-13(7-5-12)21-14-20-11-10-15(22-14)8-2-1-3-9-15/h4-7H,1-3,8-11H2,(H,20,21)
Compound 7: N-(4-chlorophenyl)-1-thia-3-azaspiro[5.5]undec-2-en-2-amine, C15H19ClN2S, InChI=1S/C15H19ClN2S/c16-12-4-6-13(7-5-12)18-14-17-11-10-15(19-14)8-2-1-3-9-15/h4-7H,1-3,8-11H2,(H,17,18)
Compound 8: N-(4-bromophenyl)-1-thia-3-azaspiro[5.5]undec-2-en-2-amine, C15H19BrN2S, InChI=1S/C15H19BrN2S/c16-12-4-6-13(7-5-12)18-14-17-11-10-15(19-14)8-2-1-3-9-15/h4-7H,1-3,8-11H2,(H,17,18)

System: N-phenyl-1-thia-3-azaspiro[5.5]undec-2-en-2-amine; phases: Crystal, Liquid, Air at 1 atmosphere
Property: Molar enthalpy of transition or fusion, kJ/mol (Crystal); method: DSC
Molar enthalpy of transition or fusion, kJ/mol	uncertainty
21.6	1.1

System: N-phenyl-1-thia-3-azaspiro[5.5]undec-2-en-2-amine; phases: Crystal, Liquid, Air at 1 atmosphere
Property: Normal melting temperature, K (Crystal); method: DTA
Normal melting temperature, K	uncertainty
386.5	0.5

System: N-phenyl-1-thia-3-azaspiro[5.5]undec-2-en-2-amine; phases: Crystal, Gas
Property: Vapor or sublimation pressure, kPa (Crystal); method: Transpiration method
Temperature, K	Vapor or sublimation pressure, kPa	uncertainty
342.15	6.9e-06	8e-07
343.15	8.2e-06	9e-07
345.15	1.01e-05	1.1e-06
347.15	1.32e-05	1.4e-06
349.15	1.47e-05	1.6e-06
350.15	1.8e-05	1.9e-06
352.15	2.39e-05	2.6e-06
355.15	3.14e-05	3.4e-06
357.15	4.42e-05	4.7e-06
360.15	6.22e-05	6.6e-06
361.15	6.34e-05	6.8e-06
362.15	9.1e-05	9.7e-06
365.15	0.0001035	1.1e-05
367.15	0.0001298	1.38e-05
368.15	0.0001351	1.44e-05
369.15	0.0001541	1.64e-05

System: N-(4-methylphenyl)-1-thia-3-azaspiro[5.5]undec-2-en-2-amine; phases: Crystal, Liquid, Air at 1 atmosphere
Property: Molar enthalpy of transition or fusion, kJ/mol (Crystal); method: DSC
Molar enthalpy of transition or fusion, kJ/mol	uncertainty
29.7	1.2

System: N-(4-methylphenyl)-1-thia-3-azaspiro[5.5]undec-2-en-2-amine; phases: Crystal, Liquid, Air at 1 atmosphere
Property: Normal melting temperature, K (Crystal); method: DTA
Normal melting temperature, K	uncertainty
401.2	0.5

System: N-(4-methylphenyl)-1-thia-3-azaspiro[5.5]undec-2-en-2-amine; phases: Crystal, Gas
Property: Vapor or sublimation pressure, kPa (Crystal); method: Transpiration method
Temperature, K	Vapor or sublimation pressure, kPa	uncertainty
353.15	9.4e-06	1e-06
355.15	1.29e-05	1.4e-06
356.15	1.58e-05	1.7e-06
360.15	2.24e-05	2.4e-06
363.15	3.02e-05	3.2e-06
365.15	3.66e-05	3.9e-06
366.15	4.54e-05	4.8e-06
369.15	6.73e-05	7.2e-06
372.15	9.76e-05	1.04e-05
375.15	0.0001314	1.4e-05
376.15	0.0001366	1.45e-05
377.15	0.0001547	1.65e-05
378.15	0.0001852	1.97e-05
380.15	0.0002336	2.48e-05
384.15	0.0003508	3.73e-05

System: N-(4-ethylphenyl)-1-thia-3-azaspiro[5.5]undec-2-en-2-amine; phases: Crystal, Liquid, Air at 1 atmosphere
Property: Molar enthalpy of transition or fusion, kJ/mol (Crystal); method: DSC
Molar enthalpy of transition or fusion, kJ/mol	uncertainty
42.8	1.3

System: N-(4-ethylphenyl)-1-thia-3-azaspiro[5.5]undec-2-en-2-amine; phases: Crystal, Liquid, Air at 1 atmosphere
Property: Normal melting temperature, K (Crystal); method: DTA
Normal melting temperature, K	uncertainty
412.5	0.5

System: N-(4-ethylphenyl)-1-thia-3-azaspiro[5.5]undec-2-en-2-amine; phases: Crystal, Gas
Property: Vapor or sublimation pressure, kPa (Crystal); method: Transpiration method
Temperature, K	Vapor or sublimation pressure, kPa	uncertainty
366.15	3.45e-05	3.7e-06
367.15	4.16e-05	4.4e-06
370.15	5.31e-05	5.7e-06
372.15	7.08e-05	7.5e-06
374.15	8.22e-05	8.8e-06
376.15	0.0001151	1.22e-05
377.15	0.0001434	1.52e-05
380.15	0.0001583	1.68e-05
382.15	0.0002134	2.27e-05
384.15	0.0002567	2.73e-05
386.15	0.000327	3.47e-05
387.15	0.0003632	3.86e-05
390.15	0.0004631	4.92e-05
392.15	0.000642	6.82e-05
394.15	0.0007981	8.47e-05

System: N-(4-isopropylphenyl)-1-thia-3-azaspiro[5.5]undec-2-en-2-amine; phases: Crystal, Liquid, Air at 1 atmosphere
Property: Molar enthalpy of transition or fusion, kJ/mol (Crystal); method: DSC
Molar enthalpy of transition or fusion, kJ/mol	uncertainty
29.2	1.2

System: N-(4-isopropylphenyl)-1-thia-3-azaspiro[5.5]undec-2-en-2-amine; phases: Crystal, Liquid, Air at 1 atmosphere
Property: Normal melting temperature, K (Crystal); method: DTA
Normal melting temperature, K	uncertainty
412.7	0.5

System: N-(4-isopropylphenyl)-1-thia-3-azaspiro[5.5]undec-2-en-2-amine; phases: Crystal, Gas
Property: Vapor or sublimation pressure, kPa (Crystal); method: Transpiration method
Temperature, K	Vapor or sublimation pressure, kPa	uncertainty
365.15	1.98e-05	2.1e-06
366.15	2.34e-05	2.5e-06
369.15	3.21e-05	3.4e-06
371.15	3.7e-05	4e-06
373.15	4.74e-05	5.1e-06
375.15	5.94e-05	6.3e-06
376.15	7.14e-05	7.6e-06
379.15	8.3e-05	8.8e-06
381.15	0.0001048	1.11e-05
383.15	0.0001249	1.33e-05
385.15	0.0001533	1.63e-05
386.15	0.0001933	2.05e-05
388.15	0.0001988	2.11e-05
390.15	0.0002603	2.77e-05
393.15	0.0003364	3.57e-05

System: N-(3-chloro-4-methylphenyl)-1-thia-3-azaspiro[5.5]undec-2-en-2-amine; phases: Crystal, Liquid, Air at 1 atmosphere
Property: Molar enthalpy of transition or fusion, kJ/mol (Crystal); method: DSC
Molar enthalpy of transition or fusion, kJ/mol	uncertainty
33.2	1.2

System: N-(3-chloro-4-methylphenyl)-1-thia-3-azaspiro[5.5]undec-2-en-2-amine; phases: Crystal, Liquid, Air at 1 atmosphere
Property: Normal melting temperature, K (Crystal); method: DTA
Normal melting temperature, K	uncertainty
422.3	0.5

System: N-(3-chloro-4-methylphenyl)-1-thia-3-azaspiro[5.5]undec-2-en-2-amine; phases: Crystal, Gas
Property: Vapor or sublimation pressure, kPa (Crystal); method: Transpiration method
Temperature, K	Vapor or sublimation pressure, kPa	uncertainty
385.15	7.9e-06	9e-07
386.15	8.8e-06	1e-06
387.15	1.13e-05	1.2e-06
388.15	1.22e-05	1.3e-06
389.15	1.29e-05	1.4e-06
391.15	1.59e-05	1.7e-06
393.15	1.79e-05	1.9e-06
395.15	2.05e-05	2.2e-06
396.15	2.29e-05	2.5e-06
397.15	2.95e-05	3.2e-06
399.15	3.31e-05	3.5e-06
401.15	3.4e-05	3.6e-06
402.15	3.75e-05	4e-06
404.15	4.55e-05	4.9e-06
405.7	5.09e-05	5.4e-06
406.4	5.34e-05	5.7e-06
407.3	6.09e-05	6.5e-06

System: N-(4-(trifluoromethyl)phenyl)-1-thia-3-azaspiro[5.5]undec-2-en-2-amine; phases: Crystal, Liquid, Air at 1 atmosphere
Property: Molar enthalpy of transition or fusion, kJ/mol (Crystal); method: DSC
Molar enthalpy of transition or fusion, kJ/mol	uncertainty
32.9	1.2

System: N-(4-(trifluoromethyl)phenyl)-1-thia-3-azaspiro[5.5]undec-2-en-2-amine; phases: Crystal, Liquid, Air at 1 atmosphere
Property: Normal melting temperature, K (Crystal); method: DTA
Normal melting temperature, K	uncertainty
422.8	0.5

System: N-(4-(trifluoromethyl)phenyl)-1-thia-3-azaspiro[5.5]undec-2-en-2-amine; phases: Crystal, Gas
Property: Vapor or sublimation pressure, kPa (Crystal); method: Transpiration method
Temperature, K	Vapor or sublimation pressure, kPa	uncertainty
384.15	4.95e-05	5.3e-06
385.15	5.32e-05	5.7e-06
386.15	5.53e-05	5.9e-06
387.15	6.2e-05	6.6e-06
389.15	7.35e-05	7.8e-06
390.15	8.5e-05	9e-06
392.15	9.41e-05	1e-05
393.15	0.0001076	1.14e-05
394.15	0.0001185	1.26e-05
395.15	0.0001376	1.46e-05
397.15	0.0001497	1.59e-05
398.15	0.0001884	2e-05
399.15	0.0002215	2.35e-05
401.15	0.0002241	2.38e-05
402.15	0.0002762	2.93e-05
403.15	0.0002858	3.04e-05

System: N-(4-chlorophenyl)-1-thia-3-azaspiro[5.5]undec-2-en-2-amine; phases: Crystal, Liquid, Air at 1 atmosphere
Property: Molar enthalpy of transition or fusion, kJ/mol (Crystal); method: DSC
Molar enthalpy of transition or fusion, kJ/mol	uncertainty
41.9	1.3

System: N-(4-chlorophenyl)-1-thia-3-azaspiro[5.5]undec-2-en-2-amine; phases: Crystal, Liquid, Air at 1 atmosphere
Property: Normal melting temperature, K (Crystal); method: DTA
Normal melting temperature, K	uncertainty
435.7	0.5

System: N-(4-chlorophenyl)-1-thia-3-azaspiro[5.5]undec-2-en-2-amine; phases: Crystal, Gas
Property: Vapor or sublimation pressure, kPa (Crystal); method: Transpiration method
Temperature, K	Vapor or sublimation pressure, kPa	uncertainty
370.15	1.08e-05	1.2e-06
372.15	1.28e-05	1.4e-06
373.15	1.3e-05	1.4e-06
376.15	2e-05	2.1e-06
377.15	2.79e-05	3e-06
380.15	3.58e-05	3.8e-06
383.15	5.41e-05	5.8e-06
384.15	7.05e-05	7.5e-06
387.15	7.69e-05	8.2e-06
389.15	8.96e-05	9.5e-06
391.15	0.0001171	1.25e-05
393.15	0.0001487	1.58e-05
395.15	0.0001855	1.97e-05
398.15	0.0002176	2.31e-05
400.15	0.0002803	2.98e-05
403.15	0.0003898	4.14e-05

System: N-(4-bromophenyl)-1-thia-3-azaspiro[5.5]undec-2-en-2-amine; phases: Crystal, Liquid, Air at 1 atmosphere
Property: Molar enthalpy of transition or fusion, kJ/mol (Crystal); method: DSC
Molar enthalpy of transition or fusion, kJ/mol	uncertainty
44.3	1.3

System: N-(4-bromophenyl)-1-thia-3-azaspiro[5.5]undec-2-en-2-amine; phases: Crystal, Liquid, Air at 1 atmosphere
Property: Normal melting temperature, K (Crystal); method: DTA
Normal melting temperature, K	uncertainty
448.3	0.5

System: N-(4-bromophenyl)-1-thia-3-azaspiro[5.5]undec-2-en-2-amine; phases: Crystal, Gas
Property: Vapor or sublimation pressure, kPa (Crystal); method: Transpiration method
Temperature, K	Vapor or sublimation pressure, kPa	uncertainty
374.15	5.7e-06	6e-07
375.15	7.6e-06	8e-07
378.15	1.05e-05	1.1e-06
380.15	1.35e-05	1.5e-06
385.15	1.92e-05	2.1e-06
388.15	3.2e-05	3.4e-06
391.15	4.17e-05	4.5e-06
393.15	5.5e-05	5.9e-06
395.15	6.74e-05	7.2e-06
397.15	7.99e-05	8.5e-06
399.15	9.5e-05	1.01e-05
401.15	0.0001235	1.31e-05
403.15	0.0001454	1.55e-05
405.15	0.0001813	1.93e-05
406.15	0.0002145	2.28e-05
409.15	0.000277	2.94e-05
411.15	0.0003482	3.7e-05
