Measured thermophysical data. Enthalpies of Dilution of Penicillamines in N,N-Dimethylformamide + Water Mixtures at 298.15 K
Source: J. Chem. Eng. Data, 2013, 10.1021/je300783e
Compound 1: 3-sulfanyl-D-valine, C5H11NO2S, InChI=1S/C5H11NO2S/c1-5(2,9)3(6)4(7)8/h3,9H,6H2,1-2H3,(H,7,8)/t3-/m0/s1, purity 99%
Compound 2: 3-sulfanyl-L-valine, C5H11NO2S, InChI=1S/C5H11NO2S/c1-5(2,9)3(6)4(7)8/h3,9H,6H2,1-2H3,(H,7,8)/t3-/m1/s1, purity 99%
Compound 3: 2-amino-3-mercapto-3-methylbutanoic acid, C5H11NO2S, InChI=1S/C5H11NO2S/c1-5(2,9)3(6)4(7)8/h3,9H,6H2,1-2H3,(H,7,8), purity 98%
Compound 4: dimethylformamide, C3H7NO, InChI=1S/C3H7NO/c1-4(2)3-5/h3H,1-2H3, purity 99.8%
Compound 5: water, H2O, InChI=1S/H2O/h1H2, purity 99.99%

System: 3-sulfanyl-D-valine + water; phases: Liquid
Fixed: Temperature, K = 298.15
Fixed: Pressure, kPa = 101.3
Property: Molar enthalpy of dilution, kJ/mol (Liquid); method: isothermal titration calorimetry
Initial molality of solute, mol/kg	Final molality of solute, mol/kg	Molar enthalpy of dilution, kJ/mol	uncertainty
0.00158	0.00473	-0.23574	0.0026
0.00473	0.00784	-0.23299	0.00258
0.00784	0.01092	-0.22869	0.00255
0.01092	0.01396	-0.22659	0.00253
0.01396	0.01698	-0.22084	0.00249
0.01698	0.01996	-0.21771	0.00246
0.01996	0.02292	-0.21378	0.00243
0.02292	0.02584	-0.20997	0.0024
0.02584	0.02873	-0.20575	0.00237
0.02873	0.03158	-0.20316	0.00235
0.03158	0.03441	-0.1975	0.0023
0.03441	0.03721	-0.19477	0.00228
0.03721	0.03997	-0.19133	0.00226
0.03997	0.0427	-0.18662	0.00222
0.0427	0.0454	-0.18392	0.0022
0.0454	0.04807	-0.17975	0.00217
0.04807	0.0507	-0.17743	0.00215
0.0507	0.05331	-0.17406	0.00212
0.05331	0.05588	-0.16987	0.00209

System: 3-sulfanyl-L-valine + water; phases: Liquid
Fixed: Temperature, K = 298.15
Fixed: Pressure, kPa = 101.3
Property: Molar enthalpy of dilution, kJ/mol (Liquid); method: isothermal titration calorimetry
Initial molality of solute, mol/kg	Final molality of solute, mol/kg	Molar enthalpy of dilution, kJ/mol	uncertainty
0.00158	0.00471	-0.24751	0.00269
0.00471	0.00781	-0.245	0.00267
0.00781	0.01088	-0.24193	0.00265
0.01088	0.01392	-0.23758	0.00262
0.01392	0.01693	-0.23286	0.00258
0.01693	0.0199	-0.22926	0.00255
0.0199	0.02285	-0.22572	0.00252
0.02285	0.02576	-0.22234	0.0025
0.02576	0.02864	-0.21758	0.00246
0.02864	0.03149	-0.213	0.00243
0.03149	0.03431	-0.20915	0.0024
0.03431	0.03709	-0.20574	0.00237
0.03709	0.03985	-0.20256	0.00234
0.03985	0.04257	-0.19837	0.00231
0.04257	0.04526	-0.19458	0.00228
0.04526	0.04792	-0.19037	0.00225
0.04792	0.05055	-0.18727	0.00223
0.05055	0.05315	-0.18319	0.00219
0.05315	0.05571	-0.18028	0.00217

System: 2-amino-3-mercapto-3-methylbutanoic acid + water; phases: Liquid
Fixed: Temperature, K = 298.15
Fixed: Pressure, kPa = 101.3
Property: Molar enthalpy of dilution, kJ/mol (Liquid); method: isothermal titration calorimetry
Initial molality of solute, mol/kg	Final molality of solute, mol/kg	Molar enthalpy of dilution, kJ/mol	uncertainty
0.00159	0.00473	-0.24049	0.00264
0.00473	0.00785	-0.23739	0.00262
0.00785	0.01094	-0.2368	0.00261
0.01094	0.01399	-0.23252	0.00258
0.01399	0.01701	-0.22833	0.00255
0.01701	0.02	-0.22447	0.00252
0.02	0.02296	-0.22082	0.00249
0.02296	0.02589	-0.21709	0.00246
0.02589	0.02878	-0.21281	0.00243
0.02589	0.02878	-0.21281	0.00243
0.02878	0.03165	-0.20941	0.0024
0.03165	0.03448	-0.20568	0.00237
0.03448	0.03728	-0.20215	0.00234
0.03728	0.04005	-0.19781	0.00231
0.04005	0.04278	-0.1942	0.00228
0.04278	0.04549	-0.19054	0.00225
0.04549	0.04816	-0.18675	0.00222
0.04816	0.0508	-0.18421	0.0022
0.0508	0.05341	-0.18117	0.00218
0.05341	0.05599	-0.17711	0.00215

System: 3-sulfanyl-D-valine + dimethylformamide + water; phases: Liquid
Fixed: Temperature, K = 298.15
Fixed: Pressure, kPa = 101.3
Property: Molar enthalpy of dilution, kJ/mol (Liquid); method: isothermal titration calorimeter
Initial molality of solute, mol/kg	Solvent: Mass fraction of dimethylformamide	Final molality of solute, mol/kg	Molar enthalpy of dilution, kJ/mol	uncertainty
0.0047	0.2516	0.00779	-0.20019	0.00233
0.0047	0.3008	0.00779	-0.13798	0.00184
0.00471	0.2	0.0078	-0.2601	0.00279
0.00471	0.05	0.00782	-0.24287	0.00266
0.00472	0.1499	0.00783	-0.24284	0.00266
0.00601	0.1	0.00997	-0.32354	0.00328
0.00779	0.3008	0.01085	-0.13649	0.00183
0.00779	0.2516	0.01086	-0.19903	0.00232
0.0078	0.2	0.01087	-0.25985	0.00279
0.00782	0.05	0.01089	-0.24077	0.00264
0.00783	0.1499	0.01091	-0.24263	0.00265
0.00997	0.1	0.01388	-0.31947	0.00325
0.01085	0.3008	0.01388	-0.1343	0.00182
0.01086	0.2516	0.01389	-0.19571	0.00229
0.01087	0.2	0.0139	-0.25538	0.00275
0.01089	0.05	0.01393	-0.2368	0.00261
0.01091	0.1499	0.01395	-0.23818	0.00262
0.01388	0.3008	0.01687	-0.13247	0.0018
0.01388	0.1	0.01776	-0.31361	0.0032
0.01389	0.2516	0.01689	-0.19234	0.00226
0.0139	0.2	0.01691	-0.25111	0.00272
0.01393	0.05	0.01694	-0.23333	0.00258
0.01395	0.1499	0.01696	-0.23389	0.00259
0.01687	0.3008	0.01984	-0.13052	0.00179
0.01689	0.2516	0.01986	-0.18943	0.00224
0.01691	0.2	0.01988	-0.24738	0.00269
0.01694	0.05	0.01992	-0.22827	0.00254
0.01696	0.1499	0.01995	-0.22903	0.00255
0.01776	0.1	0.02159	-0.30887	0.00317
0.01984	0.3008	0.02278	-0.12784	0.00177
0.01986	0.2516	0.02279	-0.1863	0.00222
0.01988	0.2	0.02282	-0.23886	0.00263
0.01992	0.05	0.02286	-0.22476	0.00252
0.01995	0.1499	0.0229	-0.22607	0.00253
0.02159	0.1	0.02539	-0.30344	0.00313
0.02278	0.3008	0.02568	-0.12602	0.00175
0.02279	0.2516	0.0257	-0.18365	0.0022
0.02282	0.2	0.02573	-0.23658	0.00261
0.02286	0.05	0.02578	-0.21934	0.00247
0.0229	0.1499	0.02581	-0.22083	0.00249
0.02539	0.1	0.02915	-0.2976	0.00308
0.02568	0.3008	0.02855	-0.12367	0.00173
0.0257	0.2516	0.02857	-0.17971	0.00217
0.02573	0.2	0.0286	-0.23095	0.00256
0.02578	0.05	0.02866	-0.2154	0.00244
0.02581	0.1499	0.0287	-0.21711	0.00246
0.02855	0.3008	0.03139	-0.12087	0.00171
0.02857	0.2516	0.03142	-0.17605	0.00214
0.0286	0.2	0.03145	-0.22808	0.00254
0.02866	0.05	0.03151	-0.21107	0.00241
0.0287	0.1499	0.03156	-0.2128	0.00242
0.02915	0.1	0.03286	-0.29271	0.00304
0.03139	0.3008	0.0342	-0.11856	0.00169
0.03142	0.2516	0.03423	-0.17215	0.00211
0.03145	0.2	0.03426	-0.22172	0.00249
0.03151	0.05	0.03433	-0.20736	0.00238
0.03156	0.1499	0.03438	-0.20872	0.00239
0.03286	0.1	0.03654	-0.28705	0.003
0.0342	0.3008	0.03698	-0.1166	0.00168
0.03423	0.2516	0.03701	-0.16937	0.00209
0.03426	0.2	0.03705	-0.21921	0.00247
0.03433	0.05	0.03712	-0.20413	0.00236
0.03438	0.1499	0.03717	-0.20507	0.00236
0.03654	0.1	0.04017	-0.28277	0.00297
0.03698	0.3008	0.03972	-0.11447	0.00166
0.03701	0.2516	0.03975	-0.16703	0.00207
0.03705	0.2	0.0398	-0.21448	0.00244
0.03712	0.05	0.03987	-0.20045	0.00233
0.03717	0.1499	0.03993	-0.20122	0.00233
0.03972	0.3008	0.04244	-0.11208	0.00164
0.03975	0.2516	0.04247	-0.16217	0.00203
0.0398	0.2	0.04252	-0.20921	0.0024
0.03987	0.05	0.0426	-0.19571	0.00229
0.03993	0.1499	0.04266	-0.19685	0.0023
0.04017	0.1	0.04376	-0.27642	0.00292
0.04244	0.3008	0.04512	-0.11003	0.00163
0.04247	0.2516	0.04516	-0.15933	0.00201
0.04252	0.2	0.0452	-0.2051	0.00236
0.0426	0.05	0.04529	-0.19251	0.00227
0.04266	0.1499	0.04536	-0.19291	0.00227
0.04376	0.1	0.04732	-0.27174	0.00288
0.04512	0.3008	0.04777	-0.10798	0.00161
0.04516	0.2516	0.04781	-0.15597	0.00198
0.0452	0.2	0.04786	-0.20107	0.00233
0.04529	0.05	0.04795	-0.18761	0.00223
0.04536	0.1499	0.04802	-0.18862	0.00224
0.04732	0.1	0.05083	-0.26709	0.00284
0.04777	0.3008	0.05039	-0.10613	0.0016
0.04781	0.2516	0.05043	-0.15317	0.00196
0.04786	0.2	0.05049	-0.19606	0.00229
0.04795	0.05	0.05059	-0.18445	0.0022
0.04802	0.1499	0.05066	-0.18528	0.00221
0.05039	0.3008	0.05298	-0.10382	0.00158
0.05043	0.2516	0.05302	-0.14973	0.00193
0.05049	0.2	0.05308	-0.19244	0.00227
0.05059	0.05	0.05318	-0.18056	0.00217
0.05066	0.1499	0.05326	-0.18208	0.00219
0.05083	0.1	0.05431	-0.26216	0.00281
0.05298	0.3008	0.05554	-0.1017	0.00156
0.05302	0.2516	0.05558	-0.14671	0.00191
0.05308	0.2	0.05564	-0.19003	0.00225
0.05318	0.05	0.05575	-0.17758	0.00215
0.05326	0.1499	0.05583	-0.17774	0.00215
0.05431	0.1	0.05774	-0.25674	0.00276
0.05774	0.1	0.06113	-0.25214	0.00273
0.06113	0.1	0.06449	-0.24763	0.00269
0.06449	0.1	0.0678	-0.24262	0.00265
0.0678	0.1	0.07107	-0.2367	0.00261

System: dimethylformamide + 3-sulfanyl-L-valine + water; phases: Liquid
Fixed: Temperature, K = 298.15
Fixed: Pressure, kPa = 101.3
Property: Molar enthalpy of dilution, kJ/mol (Liquid); method: isothermal titration calorimeter
Initial molality of solute, mol/kg	Solvent: Mass fraction of dimethylformamide	Final molality of solute, mol/kg	Molar enthalpy of dilution, kJ/mol	uncertainty
0.00468	0.2	0.00775	-0.27361	0.00289
0.00468	0.3008	0.00777	-0.1595	0.00201
0.0047	0.2516	0.00779	-0.22159	0.00249
0.00471	0.1499	0.00781	-0.27	0.00287
0.00471	0.1	0.00782	-0.26229	0.00281
0.00597	0.05	0.00989	-0.31925	0.00325
0.00775	0.2	0.0108	-0.27005	0.00287
0.00777	0.3008	0.01082	-0.15655	0.00199
0.00779	0.2516	0.01086	-0.21711	0.00246
0.00781	0.1499	0.01088	-0.26425	0.00282
0.00782	0.1	0.01089	-0.25862	0.00278
0.00989	0.05	0.01378	-0.31417	0.00321
0.0108	0.2	0.01381	-0.26239	0.00281
0.01082	0.3008	0.01384	-0.15428	0.00197
0.01086	0.2516	0.01389	-0.2134	0.00243
0.01088	0.1499	0.01392	-0.25714	0.00277
0.01089	0.1	0.01393	-0.25165	0.00272
0.01378	0.05	0.01763	-0.30893	0.00317
0.01381	0.2	0.0168	-0.25599	0.00276
0.01384	0.3008	0.01683	-0.1511	0.00195
0.01389	0.2516	0.01689	-0.2082	0.00239
0.01392	0.1499	0.01693	-0.25192	0.00273
0.01393	0.1	0.01693	-0.24464	0.00267
0.0168	0.2	0.01975	-0.2501	0.00271
0.01683	0.3008	0.01979	-0.14877	0.00193
0.01689	0.2516	0.01985	-0.20363	0.00235
0.01693	0.1	0.01991	-0.23867	0.00262
0.01693	0.1499	0.01991	-0.24543	0.00268
0.01763	0.05	0.02144	-0.30391	0.00313
0.01975	0.2	0.02267	-0.2434	0.00266
0.01979	0.3008	0.02272	-0.14571	0.0019
0.01985	0.2516	0.02279	-0.19939	0.00232
0.01991	0.1499	0.02285	-0.23917	0.00263
0.01991	0.1	0.02286	-0.23295	0.00258
0.02144	0.05	0.02521	-0.29826	0.00309
0.02267	0.2	0.02556	-0.23846	0.00262
0.02272	0.3008	0.02561	-0.14349	0.00189
0.02279	0.2516	0.0257	-0.19541	0.00229
0.02285	0.1499	0.02576	-0.23093	0.00256
0.02286	0.1	0.02577	-0.22796	0.00254
0.02521	0.05	0.02893	-0.28592	0.00299
0.02556	0.2	0.02842	-0.23249	0.00258
0.02561	0.3008	0.02848	-0.14046	0.00186
0.0257	0.2516	0.02857	-0.19149	0.00226
0.02576	0.1499	0.02864	-0.22961	0.00255
0.02577	0.1	0.02865	-0.22225	0.0025
0.02842	0.2	0.03125	-0.22665	0.00253
0.02848	0.3008	0.03131	-0.13759	0.00184
0.02857	0.2516	0.03141	-0.18769	0.00223
0.02864	0.1499	0.03149	-0.22454	0.00251
0.02865	0.1	0.0315	-0.21848	0.00247
0.02893	0.05	0.03262	-0.28678	0.003
0.03125	0.2	0.03404	-0.22181	0.00249
0.03131	0.3008	0.03411	-0.13508	0.00182
0.03141	0.2516	0.03422	-0.18367	0.0022
0.03149	0.1499	0.03431	-0.21931	0.00247
0.0315	0.1	0.03432	-0.21244	0.00242
0.03262	0.05	0.03627	-0.28087	0.00295
0.03404	0.2	0.03681	-0.21598	0.00245
0.03411	0.3008	0.03688	-0.13291	0.0018
0.03422	0.2516	0.037	-0.18024	0.00217
0.03431	0.1499	0.0371	-0.21504	0.00244
0.03432	0.1	0.03711	-0.20898	0.00239
0.03627	0.05	0.03988	-0.27525	0.00291
0.03681	0.2	0.03954	-0.21346	0.00243
0.03688	0.3008	0.03962	-0.13056	0.00179
0.037	0.2516	0.03975	-0.17699	0.00215
0.0371	0.1499	0.03985	-0.21063	0.00241
0.03711	0.1	0.03986	-0.20508	0.00236
0.03954	0.2	0.04224	-0.2084	0.00239
0.03962	0.3008	0.04233	-0.12711	0.00176
0.03975	0.2516	0.04247	-0.17323	0.00212
0.03985	0.1499	0.04258	-0.20603	0.00237
0.03986	0.1	0.04259	-0.20071	0.00233
0.03988	0.05	0.04345	-0.26865	0.00286
0.04224	0.2	0.04492	-0.20382	0.00235
0.04233	0.3008	0.045	-0.12538	0.00175
0.04247	0.2516	0.04515	-0.16924	0.00209
0.04258	0.1499	0.04527	-0.20163	0.00234
0.04259	0.1	0.04528	-0.19668	0.0023
0.04345	0.05	0.04698	-0.26445	0.00282
0.04492	0.2	0.04756	-0.19938	0.00232
0.045	0.3008	0.04765	-0.12298	0.00173
0.04515	0.2516	0.0478	-0.16601	0.00206
0.04527	0.1499	0.04793	-0.19731	0.0023
0.04528	0.1	0.04794	-0.19261	0.00227
0.04698	0.05	0.05046	-0.25932	0.00278
0.04756	0.2	0.05016	-0.19519	0.00229
0.04765	0.3008	0.05026	-0.12086	0.00171
0.0478	0.2516	0.05043	-0.16318	0.00204
0.04793	0.1499	0.05056	-0.19284	0.00227
0.04794	0.1	0.05057	-0.18969	0.00224
0.05016	0.2	0.05274	-0.19064	0.00225
0.05026	0.3008	0.05285	-0.11816	0.00169
0.05043	0.2516	0.05302	-0.15941	0.00201
0.05046	0.05	0.05391	-0.25396	0.00274
0.05056	0.1499	0.05316	-0.18835	0.00223
0.05057	0.1	0.05317	-0.18593	0.00222
0.05274	0.2	0.05529	-0.18648	0.00222
0.05285	0.3008	0.0554	-0.1154	0.00167
0.05302	0.2516	0.05558	-0.15641	0.00199
0.05316	0.1499	0.05572	-0.18365	0.0022
0.05317	0.1	0.05574	-0.18223	0.00219
0.05391	0.05	0.05732	-0.24919	0.00271
0.05732	0.05	0.06069	-0.24466	0.00267
0.06069	0.05	0.06402	-0.24088	0.00264
0.06402	0.05	0.06731	-0.23648	0.00261
0.06731	0.05	0.07056	-0.23192	0.00257

System: 2-amino-3-mercapto-3-methylbutanoic acid + dimethylformamide + water; phases: Liquid
Fixed: Temperature, K = 298.15
Fixed: Pressure, kPa = 101.3
Property: Molar enthalpy of dilution, kJ/mol (Liquid); method: isothermal titration calorimeter
Initial molality of solute, mol/kg	Solvent: Mass fraction of dimethylformamide	Final molality of solute, mol/kg	Molar enthalpy of dilution, kJ/mol	uncertainty
0.003	0.3008	0.00497	-0.09525	0.00151
0.00341	0.2516	0.00566	-0.15096	0.00195
0.00361	0.2	0.00599	-0.20173	0.00234
0.0047	0.1499	0.0078	-0.2468	0.00269
0.00471	0.1	0.00781	-0.23705	0.00261
0.00472	0.05	0.00783	-0.23024	0.00256
0.00497	0.3008	0.00692	-0.0948	0.00151
0.00566	0.2516	0.00788	-0.14912	0.00193
0.00599	0.2	0.00834	-0.19997	0.00232
0.00692	0.3008	0.00885	-0.09406	0.0015
0.0078	0.1499	0.01087	-0.24426	0.00267
0.00781	0.1	0.01088	-0.23466	0.00259
0.00783	0.05	0.01091	-0.22878	0.00255
0.00788	0.2516	0.01008	-0.14803	0.00192
0.00834	0.2	0.01067	-0.19872	0.00232
0.00885	0.3008	0.01076	-0.09332	0.0015
0.01008	0.2516	0.01226	-0.14576	0.00191
0.01067	0.2	0.01298	-0.19578	0.00229
0.01076	0.3008	0.01266	-0.09248	0.00149
0.01087	0.1499	0.0139	-0.24009	0.00264
0.01088	0.1	0.01392	-0.23084	0.00256
0.01091	0.05	0.01395	-0.22698	0.00253
0.01226	0.2516	0.01441	-0.14403	0.00189
0.01266	0.3008	0.01453	-0.09164	0.00149
0.01298	0.2	0.01526	-0.19326	0.00227
0.0139	0.1499	0.0169	-0.23629	0.00261
0.01392	0.1	0.01693	-0.22729	0.00254
0.01395	0.05	0.01697	-0.22409	0.00251
0.01441	0.2516	0.01654	-0.14177	0.00187
0.01453	0.3008	0.01638	-0.09008	0.00147
0.01526	0.2	0.01752	-0.18948	0.00224
0.01638	0.3008	0.01821	-0.08852	0.00146
0.01654	0.2516	0.01865	-0.13999	0.00186
0.0169	0.1499	0.01988	-0.23169	0.00257
0.01693	0.1	0.0199	-0.22336	0.00251
0.01697	0.05	0.01995	-0.22008	0.00248
0.01752	0.2	0.01975	-0.18582	0.00222
0.01821	0.3008	0.02002	-0.08674	0.00145
0.01865	0.2516	0.02074	-0.13663	0.00183
0.01975	0.2	0.02196	-0.18283	0.00219
0.01988	0.1499	0.02282	-0.22749	0.00254
0.0199	0.1	0.02284	-0.2189	0.00247
0.01995	0.05	0.0229	-0.21617	0.00245
0.02002	0.3008	0.02181	-0.08541	0.00144
0.02074	0.2516	0.0228	-0.13406	0.00181
0.02181	0.3008	0.02359	-0.08402	0.00143
0.02196	0.2	0.02414	-0.17917	0.00216
0.0228	0.2516	0.02484	-0.13115	0.00179
0.02282	0.1499	0.02572	-0.22353	0.00251
0.02284	0.1	0.02576	-0.21428	0.00244
0.0229	0.05	0.02582	-0.21257	0.00242
0.02359	0.3008	0.02534	-0.08295	0.00142
0.02414	0.2	0.0263	-0.17493	0.00213
0.02484	0.2516	0.02686	-0.12944	0.00178
0.02534	0.3008	0.02707	-0.08152	0.00141
0.02572	0.1499	0.0286	-0.2191	0.00247
0.02576	0.1	0.02864	-0.2104	0.00241
0.02582	0.05	0.02871	-0.20812	0.00239
0.0263	0.2	0.02844	-0.17189	0.00211
0.02686	0.2516	0.02885	-0.12699	0.00176
0.02707	0.3008	0.02878	-0.07939	0.00139
0.02844	0.2	0.03055	-0.16851	0.00208
0.0286	0.1499	0.03145	-0.21507	0.00244
0.02864	0.1	0.03148	-0.20674	0.00238
0.02871	0.05	0.03157	-0.20385	0.00235
0.02878	0.3008	0.03047	-0.07766	0.00138
0.02885	0.2516	0.03083	-0.12433	0.00174
0.03047	0.3008	0.03214	-0.0758	0.00136
0.03055	0.2	0.03264	-0.16458	0.00205
0.03083	0.2516	0.03278	-0.12189	0.00172
0.03145	0.1499	0.03426	-0.21043	0.00241
0.03148	0.1	0.0343	-0.20193	0.00234
0.03157	0.05	0.03439	-0.19948	0.00232
0.03214	0.3008	0.0338	-0.07513	0.00136
0.03264	0.2	0.0347	-0.16179	0.00203
0.03278	0.2516	0.0347	-0.11942	0.0017
0.0338	0.3008	0.03543	-0.07435	0.00135
0.03426	0.1499	0.03704	-0.20662	0.00238
0.0343	0.1	0.03709	-0.19843	0.00231
0.03439	0.05	0.03718	-0.19563	0.00229
0.0347	0.2516	0.0366	-0.11726	0.00168
0.0347	0.2	0.03674	-0.15772	0.002
0.0366	0.2516	0.03849	-0.11327	0.00165
0.03674	0.2	0.03875	-0.15422	0.00197
0.03704	0.1499	0.03979	-0.20298	0.00235
0.03709	0.1	0.03984	-0.19449	0.00228
0.03718	0.05	0.03994	-0.1926	0.00227
0.03849	0.2516	0.04034	-0.11095	0.00164
0.03875	0.2	0.04075	-0.15137	0.00195
0.03979	0.1499	0.04251	-0.19861	0.00231
0.03984	0.1	0.04256	-0.19039	0.00225
0.03994	0.05	0.04267	-0.18855	0.00224
0.04075	0.2	0.04271	-0.14794	0.00192
0.04251	0.1499	0.0452	-0.1946	0.00228
0.04256	0.1	0.04526	-0.18663	0.00222
0.04267	0.05	0.04537	-0.18437	0.0022
0.0452	0.1499	0.04786	-0.19089	0.00225
0.04526	0.1	0.04792	-0.18284	0.00219
0.04537	0.05	0.04804	-0.17887	0.00216
0.04786	0.1499	0.05048	-0.18739	0.00223
0.04792	0.1	0.05054	-0.17976	0.00217
0.04804	0.05	0.05067	-0.17768	0.00215
0.05048	0.1499	0.05308	-0.18393	0.0022
0.05054	0.1	0.05314	-0.176	0.00214
0.05067	0.05	0.05328	-0.17347	0.00212
0.05308	0.1499	0.05564	-0.1801	0.00217
0.05314	0.1	0.05571	-0.17198	0.00211
0.05328	0.05	0.05585	-0.16959	0.00209
