Measured thermophysical data. Isobaric Vapor Liquid Equilibria for the Binary and Ternary Systems of 2-Methyl-1-butanol, 2-Methyl-butanol Acetate, and Dimethylformamide (DMF) at 101.3 kPa
Source: J. Chem. Eng. Data, 2013, 10.1021/je3012925
Compound 1: 2-methyl-1-butanol, C5H12O, InChI=1S/C5H12O/c1-3-5(2)4-6/h5-6H,3-4H2,1-2H3, purity 99.9%
Compound 2: 2-methylbutyl ethanoate, C7H14O2, InChI=1S/C7H14O2/c1-4-6(2)5-9-7(3)8/h6H,4-5H2,1-3H3, purity 99%
Compound 3: dimethylformamide, C3H7NO, InChI=1S/C3H7NO/c1-4(2)3-5/h3H,1-2H3, purity 99%

System: 2-methyl-1-butanol; phases: Liquid, Gas
Property: Normal boiling temperature, K (Liquid); method: mercury-in-glass thermometers
Normal boiling temperature, K	uncertainty
401.27	0.2

System: 2-methyl-1-butanol; phases: Liquid
Property: Refractive index (Na D-line) (Liquid); method: Standard Abbe refractometry
Temperature, K	Pressure, kPa	Refractive index (Na D-line)	uncertainty
293.15	101.325	1.4096	0.0007

System: 2-methyl-1-butanol; phases: Liquid
Property: Mass density, kg/m3 (Liquid); method: Vibrating tube method
Temperature, K	Pressure, kPa	Mass density, kg/m3	uncertainty
293.15	101.325	817.6	0.2

System: 2-methylbutyl ethanoate; phases: Liquid, Gas
Property: Normal boiling temperature, K (Liquid); method: mercury-in-glass thermometers
Normal boiling temperature, K	uncertainty
411.38	0.2

System: 2-methylbutyl ethanoate; phases: Liquid
Property: Refractive index (Na D-line) (Liquid); method: Standard Abbe refractometry
Temperature, K	Pressure, kPa	Refractive index (Na D-line)	uncertainty
293.15	101.325	1.4034	0.0007

System: 2-methylbutyl ethanoate; phases: Liquid
Property: Mass density, kg/m3 (Liquid); method: Vibrating tube method
Temperature, K	Pressure, kPa	Mass density, kg/m3	uncertainty
293.15	101.325	873.5	0.3

System: dimethylformamide; phases: Liquid, Gas
Property: Normal boiling temperature, K (Liquid); method: mercury-in-glass thermometers
Normal boiling temperature, K	uncertainty
426.21	0.2

System: dimethylformamide; phases: Liquid
Property: Refractive index (Na D-line) (Liquid); method: Standard Abbe refractometry
Temperature, K	Pressure, kPa	Refractive index (Na D-line)	uncertainty
293.15	101.325	1.4328	0.0007

System: dimethylformamide; phases: Liquid
Property: Mass density, kg/m3 (Liquid); method: Vibrating tube method
Temperature, K	Pressure, kPa	Mass density, kg/m3	uncertainty
293.15	101.325	942.6	0.3

System: dimethylformamide + 2-methyl-1-butanol; phases: Liquid, Gas
Fixed: Pressure, kPa = 101.3
Property: Boiling temperature at pressure P, K (Liquid); method: Ebulliometric method (Recirculating still)
Mole fraction of 2-methyl-1-butanol	Boiling temperature at pressure P, K	uncertainty
0.0935	421.9	0.24
0.1538	419.67	0.23
0.1981	418.23	0.22
0.2432	416.72	0.22
0.2875	415.37	0.2
0.3367	414.09	0.18
0.433	411.72	0.16
0.5463	409.58	0.16
0.5841	408.61	0.17
0.6305	407.62	0.14
0.7436	405.82	0.14
0.7985	404.97	0.14
0.8905	403.36	0.14
0.9478	402.61	0.12

System: dimethylformamide + 2-methyl-1-butanol; phases: Gas, Liquid
Fixed: Pressure, kPa = 101.3
Property: Mole fraction of 2-methyl-1-butanol (Gas); method: Chromatography
Mole fraction of 2-methyl-1-butanol	Mole fraction of 2-methyl-1-butanol	uncertainty
0.0935	0.1849	0.0065
0.1538	0.2838	0.0067
0.1981	0.3486	0.0066
0.2432	0.4087	0.0067
0.2875	0.4629	0.0069
0.3367	0.5185	0.0068
0.433	0.6149	0.0061
0.5463	0.7126	0.0054
0.5841	0.742	0.0052
0.6305	0.7765	0.005
0.7436	0.8537	0.0047
0.7985	0.8881	0.0045
0.8905	0.9418	0.0044
0.9478	0.973	0.0043

System: dimethylformamide + 2-methylbutyl ethanoate; phases: Liquid, Gas
Fixed: Pressure, kPa = 101.3
Property: Boiling temperature at pressure P, K (Liquid); method: EBULLIO:UFactor:2
Mole fraction of 2-methylbutyl ethanoate	Boiling temperature at pressure P, K	uncertainty
0.0664	423.46	0.18
0.1654	421.87	0.18
0.2418	420.6	0.18
0.2937	419.78	0.18
0.3462	419.15	0.18
0.414	418.17	0.18
0.4808	417.4	0.18
0.5485	416.75	0.18
0.6035	415.91	0.18
0.6696	415.15	0.18
0.7481	414.37	0.18
0.8119	413.75	0.18
0.8694	413.15	0.18
0.9281	412.49	0.18

System: dimethylformamide + 2-methylbutyl ethanoate; phases: Gas, Liquid
Fixed: Pressure, kPa = 101.3
Property: Mole fraction of 2-methylbutyl ethanoate (Gas); method: Chromatography
Mole fraction of 2-methylbutyl ethanoate	Mole fraction of 2-methylbutyl ethanoate	uncertainty
0.0664	0.0989	0.0058
0.1654	0.2336	0.006
0.2418	0.3283	0.0063
0.2937	0.3885	0.0066
0.3462	0.4464	0.007
0.414	0.5173	0.0074
0.4808	0.5828	0.007
0.5485	0.6453	0.0066
0.6035	0.6941	0.0062
0.6696	0.7501	0.0058
0.7481	0.8135	0.0054
0.8119	0.8631	0.005
0.8694	0.9062	0.0048
0.9281	0.9491	0.0046

System: dimethylformamide + 2-methyl-1-butanol + 2-methylbutyl ethanoate; phases: Liquid, Gas
Fixed: Pressure, kPa = 101.3
Property: Mole fraction of 2-methylbutyl ethanoate (Liquid); method: Chromatography
Property: Mole fraction of 2-methylbutyl ethanoate (Gas); method: Chromatography
Property: Mole fraction of 2-methyl-1-butanol (Gas); method: Chromatography
Temperature, K	Mole fraction of 2-methyl-1-butanol	Mole fraction of 2-methylbutyl ethanoate	uncertainty	Mole fraction of 2-methylbutyl ethanoate	uncertainty	Mole fraction of 2-methyl-1-butanol	uncertainty
406.74	0.6731	0.0868	0.0031	0.0738	0.004	0.7839	
408.05	0.4089	0.2914	0.0037	0.2613	0.0046	0.5212	
409.78	0.3624	0.4033	0.0042	0.3794	0.0053	0.4603	
412.62	0.2513	0.0975	0.0031	0.1018	0.0041	0.3926	
413.87	0.1942	0.2404	0.0035	0.2716	0.0047	0.2973	
414.54	0.0654	0.6183	0.0043	0.6736	0.0056	0.0871	
414.72	0.2042	0.4104	0.0043	0.4378	0.0058	0.2961	
415.22	0.1962	0.1526	0.0032	0.1663	0.0043	0.3161	
416.7	0.1642	0.4249	0.0044	0.4517	0.006	0.2463	
417.62	0.0922	0.1581	0.0032	0.1981	0.0044	0.1645	
417.81	0.1041	0.2198	0.0034	0.2755	0.0047	0.1769	
406.74	0.6731	0.0868	0.0031	0.0738	0.004	0.7839	
