Measured thermophysical data. Solubility of 2-Hydroxybenzoic Acid in Water, 1-Propanol, 2-Propanol, and 2-Propanone at (298.2 to 338.2) K and Their Aqueous Binary Mixtures at 298.2 K
Source: J. Chem. Eng. Data, 2012, 10.1021/je300980k
Compound 1: 2-hydroxybenzoic acid, C7H6O3, InChI=1S/C7H6O3/c8-6-4-2-1-3-5(6)7(9)10/h1-4,8H,(H,9,10), purity 99%
Compound 2: propan-1-ol, C3H8O, InChI=1S/C3H8O/c1-2-3-4/h4H,2-3H2,1H3, purity 99.9%
Compound 3: propan-2-ol, C3H8O, InChI=1S/C3H8O/c1-3(2)4/h3-4H,1-2H3, purity 99.9%
Compound 4: acetone, C3H6O, InChI=1S/C3H6O/c1-3(2)4/h1-2H3, purity 99.5%
Compound 5: water, H2O, InChI=1S/H2O/h1H2

System: 2-hydroxybenzoic acid + water; phases: Liquid, Crystal
Fixed: Pressure, kPa = 101
Property: Mass density, kg/m3 (Liquid); method: Pycnometric method
Temperature, K	Mass density, kg/m3	uncertainty
298.2	984	2
308.2	983	2
318.2	981	2
328.2	979	2
338.2	977	2

System: 2-hydroxybenzoic acid + water; phases: Liquid, Crystal
Fixed: Pressure, kPa = 101
Property: Mole fraction of 2-hydroxybenzoic acid (Liquid); method: UV-Vis Spectrophotometer
Temperature, K	Mole fraction of 2-hydroxybenzoic acid	uncertainty
298.2	0.000295	8e-06
308.2	0.000355	1e-05
318.2	0.000507	1.5e-05
328.2	0.000699	2e-05
338.2	0.000944	2.6e-05

System: 2-hydroxybenzoic acid + propan-1-ol; phases: Liquid, Crystal
Fixed: Pressure, kPa = 101
Property: Mass density, kg/m3 (Liquid); method: Pycnometric method
Temperature, K	Mass density, kg/m3	uncertainty
298.2	886	2
308.2	890	2
318.2	898	2
328.2	904	2
338.2	917	2

System: 2-hydroxybenzoic acid + propan-1-ol; phases: Liquid, Crystal
Fixed: Pressure, kPa = 101
Property: Mole fraction of 2-hydroxybenzoic acid (Liquid); method: UV-Vis Spectrophotometer
Temperature, K	Mole fraction of 2-hydroxybenzoic acid	uncertainty
298.2	0.132	0.003
308.2	0.15	0.003
318.2	0.163	0.003
328.2	0.179	0.004
338.2	0.195	0.004

System: propan-2-ol + 2-hydroxybenzoic acid; phases: Liquid, Crystal
Fixed: Pressure, kPa = 101
Property: Mass density, kg/m3 (Liquid); method: Pycnometric method
Temperature, K	Mass density, kg/m3	uncertainty
298.2	883	2
308.2	889	2
318.2	899	2
328.2	907	2
338.2	922	2

System: propan-2-ol + 2-hydroxybenzoic acid; phases: Liquid, Crystal
Fixed: Pressure, kPa = 101
Property: Mole fraction of 2-hydroxybenzoic acid (Liquid); method: UV-Vis Spectrophotometer
Temperature, K	Mole fraction of 2-hydroxybenzoic acid	uncertainty
298.2	0.144	0.003
308.2	0.161	0.003
318.2	0.173	0.004
328.2	0.195	0.004
338.2	0.214	0.005

System: acetone + 2-hydroxybenzoic acid; phases: Liquid, Crystal
Fixed: Pressure, kPa = 101
Property: Mass density, kg/m3 (Liquid); method: Pycnometric method
Temperature, K	Mass density, kg/m3	uncertainty
298.2	909	2
308.2	912	2
318.2	920	2
328.2	927	2

System: acetone + 2-hydroxybenzoic acid; phases: Liquid, Crystal
Fixed: Pressure, kPa = 101
Property: Mole fraction of 2-hydroxybenzoic acid (Liquid); method: UV-Vis Spectrophotometer
Temperature, K	Mole fraction of 2-hydroxybenzoic acid	uncertainty
298.2	0.137	0.003
308.2	0.139	0.003
318.2	0.156	0.003
328.2	0.196	0.004

System: 2-hydroxybenzoic acid + propan-1-ol + water; phases: Liquid, Crystal
Fixed: Pressure, kPa = 101
Fixed: Temperature, K = 298.2
Property: Mass density, kg/m3 (Liquid); method: Pycnometric method
Solvent: Mole fraction of propan-1-ol	Mass density, kg/m3	uncertainty
0	984	2
0.032	970	2
0.07	958	2
0.231	937	2
0.31	931	2
0.411	928	2
0.545	921	2
0.73	912	2
1	886	2

System: 2-hydroxybenzoic acid + propan-1-ol + water; phases: Liquid, Crystal
Fixed: Pressure, kPa = 101
Fixed: Temperature, K = 298.2
Property: Mole fraction of 2-hydroxybenzoic acid (Liquid); method: UV-Vis Spectrophotometer
Solvent: Mole fraction of propan-1-ol	Mole fraction of 2-hydroxybenzoic acid	uncertainty
0	0.000295	8e-06
0.032	0.0011	3e-05
0.07	0.00401	0.0001
0.231	0.0467	0.0011
0.31	0.0637	0.0014
0.411	0.0975	0.0021
0.545	0.121	0.003
0.73	0.138	0.003
1	0.132	0.003

System: propan-2-ol + 2-hydroxybenzoic acid + water; phases: Liquid, Crystal
Fixed: Pressure, kPa = 101
Fixed: Temperature, K = 298.2
Property: Mass density, kg/m3 (Liquid); method: Pycnometric method
Solvent: Mole fraction of propan-2-ol	Mass density, kg/m3	uncertainty
0	984	2
0.032	969	2
0.07	956	2
0.114	944	2
0.167	936	2
0.231	930	2
0.31	926	2
0.411	924	2
0.545	917	2
0.73	904	2
1	883	2

System: propan-2-ol + 2-hydroxybenzoic acid + water; phases: Liquid, Crystal
Fixed: Pressure, kPa = 101
Fixed: Temperature, K = 298.2
Property: Mole fraction of 2-hydroxybenzoic acid (Liquid); method: UV-Vis Spectrophotometer
Solvent: Mole fraction of propan-2-ol	Mole fraction of 2-hydroxybenzoic acid	uncertainty
0	0.000295	8e-06
0.032	0.00106	2.2e-05
0.07	0.00452	8e-05
0.114	0.0126	0.00018
0.167	0.0282	0.0004
0.231	0.0504	0.0006
0.31	0.0692	0.0007
0.411	0.106	0.001
0.545	0.129	0.0011
0.73	0.14	0.0011
1	0.144	0.001

System: acetone + 2-hydroxybenzoic acid + water; phases: Liquid, Crystal
Fixed: Pressure, kPa = 101
Fixed: Temperature, K = 298.2
Property: Mass density, kg/m3 (Liquid); method: Pycnometric method
Solvent: Mole fraction of acetone	Mass density, kg/m3	uncertainty
0	984	2
0.033	971	2
0.072	961	2
0.117	957	2
0.317	974	2
0.42	975	2
0.554	968	2
0.736	950	2
1	909	2

System: acetone + 2-hydroxybenzoic acid + water; phases: Liquid, Crystal
Fixed: Pressure, kPa = 101
Fixed: Temperature, K = 298.2
Property: Mole fraction of 2-hydroxybenzoic acid (Liquid); method: UV-Vis Spectrophotometer
Solvent: Mole fraction of acetone	Mole fraction of 2-hydroxybenzoic acid	uncertainty
0	0.000295	8e-06
0.033	0.000934	2.3e-05
0.072	0.00275	7e-05
0.117	0.0125	0.0003
0.317	0.0948	0.0021
0.42	0.146	0.003
0.554	0.169	0.004
0.736	0.145	0.003
1	0.137	0.003
