Measured thermophysical data. Isothermal Vapor Liquid Equilibrium Measurements of 1,1-Difluoroethane + N,N-Dimethylformamide and N,N-Dimethylacetamide
Source: J. Chem. Eng. Data, 2013, 10.1021/je3013793
Compound 1: 1,1-difluoroethane, C2H4F2, InChI=1S/C2H4F2/c1-2(3)4/h2H,1H3, purity 99.98%
Compound 2: dimethylformamide, C3H7NO, InChI=1S/C3H7NO/c1-4(2)3-5/h3H,1-2H3, purity 99.9%
Compound 3: N,N-dimethylethanamide, C4H9NO, InChI=1S/C4H9NO/c1-4(6)5(2)3/h1-3H3, purity 99.9%
Compound 4: carbon dioxide, CO2, InChI=1S/CO2/c2-1-3, purity 99%
Compound 5: ethanol, C2H6O, InChI=1S/C2H6O/c1-2-3/h3H,2H2,1H3, purity 99%

System: ethanol + carbon dioxide; phases: Liquid, Gas
Property: Vapor or sublimation pressure, kPa (Liquid); method: Closed cell (Static) method
Temperature, K	Mole fraction of carbon dioxide	Vapor or sublimation pressure, kPa	uncertainty
293.15	0.053	716.3	3.1
293.15	0.1273	1642.9	8.3
293.15	0.1848	2169	11
303.15	0.0622	930.6	3.6
303.15	0.1282	1970.3	8
303.15	0.2061	2903.5	12.8

System: dimethylformamide + 1,1-difluoroethane; phases: Liquid, Gas
Property: Vapor or sublimation pressure, kPa (Liquid); method: Closed cell (Static) method
Temperature, K	Mole fraction of 1,1-difluoroethane	Vapor or sublimation pressure, kPa	uncertainty
293.15	0.1689	108.4	4.5
293.15	0.2595	165.2	6.5
293.15	0.3769	235.6	8.7
293.15	0.4664	282.2	9.6
293.15	0.5726	334	11
293.15	0.69	386.8	12.2
293.15	0.7795	423.8	14.3
293.15	0.8801	472.2	17.3
293.15	0.9305	497.1	18.6
303.15	0.1605	140.2	5.6
303.15	0.2687	230.3	8.9
303.15	0.3538	294.9	11.3
303.15	0.4366	353.5	13.1
303.15	0.483	387.8	12
303.15	0.5914	454.1	14.3
303.15	0.6895	511	16.8
303.15	0.7639	554.2	18.8
303.15	0.8879	630.7	26.7
313.15	0.1382	154.8	6.1
313.15	0.2043	225.3	9.2
313.15	0.2797	310.5	11.3
313.15	0.3846	408.2	14.5
313.15	0.4893	510.5	17.4
313.15	0.6045	600.4	18.9
313.15	0.7197	690.4	23
313.15	0.7853	743.3	25.2
313.15	0.8973	837	31.8
323.15	0.1283	182.6	7
323.15	0.1981	276.7	10.9
323.15	0.2773	382.8	13.6
323.15	0.4158	548.5	19.9
323.15	0.5165	665.7	24.9
323.15	0.5859	752.2	24.7
323.15	0.6905	848.3	28.7
323.15	0.7726	934.7	31
323.15	0.8804	1038.5	35.6
323.15	0.9314	1081.6	31.9
333.15	0.1284	232.2	8.7
333.15	0.192	340.8	12.8
333.15	0.3091	533.6	20.4
333.15	0.3777	642.3	24.8
333.15	0.4463	746	26.6
333.15	0.5211	854.9	30
333.15	0.5947	958.6	32.1
333.15	0.6516	1032.6	35.5
333.15	0.767	1190.8	40
333.15	0.8691	1314.3	45.7
333.15	0.931	1393.4	47.9
343.15	0.1251	286.6	10.7
343.15	0.197	434.8	16.3
343.15	0.2656	578.1	21.9
343.15	0.3392	726.3	26
343.15	0.4345	899.3	31.1
343.15	0.5178	1042.6	37.8
343.15	0.6182	1230.3	44.6
343.15	0.6817	1334	45
343.15	0.7419	1432.9	49.6
343.15	0.8156	1556.4	55.1
353.15	0.1064	297.6	11.5
353.15	0.1602	443.4	16.8
353.15	0.2406	647.4	24.8
353.15	0.2898	775.6	30.1
353.15	0.3344	889.8	31.7
353.15	0.4003	1036.5	37.2
353.15	0.4617	1183.4	40.5
353.15	0.5779	1426.6	50.5
353.15	0.6632	1619.6	57
353.15	0.8601	2030	72.2

System: 1,1-difluoroethane + N,N-dimethylethanamide; phases: Liquid, Gas
Property: Vapor or sublimation pressure, kPa (Liquid); method: Closed cell (Static) method
Temperature, K	Mole fraction of 1,1-difluoroethane	Vapor or sublimation pressure, kPa	uncertainty
293.15	0.1832	110.3	4.1
293.15	0.211	124.8	4.8
293.15	0.3086	178.2	6.8
293.15	0.4097	230.8	8.6
293.15	0.5223	288	10.4
293.15	0.639	343.6	12.4
293.15	0.7626	402.2	14.4
293.15	0.8773	454.2	15.4
293.15	0.9649	489.2	14.3
303.15	0.1419	111.4	4.4
303.15	0.2242	173.3	6.8
303.15	0.3154	238.8	8.9
303.15	0.4103	303.5	11.3
303.15	0.5105	370.9	14.3
303.15	0.5916	428.1	16.1
303.15	0.7344	522	18.8
303.15	0.8605	597.5	21.5
303.15	0.9445	646	27.2
313.15	0.1194	115.4	4.7
313.15	0.2057	193.9	7.9
313.15	0.2905	275.3	11.2
313.15	0.3789	358.4	14.4
313.15	0.4797	451.2	17.6
313.15	0.592	551.8	21
313.15	0.7158	659.3	24.7
313.15	0.8291	754.8	27.8
313.15	0.9373	843.2	41.9
323.15	0.1039	118.7	4.7
323.15	0.1653	190.3	8
323.15	0.2421	282.9	11.7
323.15	0.3229	379.8	15.1
323.15	0.4225	498.5	20.4
323.15	0.4926	581.6	23.2
323.15	0.6054	714.4	27
323.15	0.6972	810	30.8
323.15	0.8049	925	41.8
323.15	0.8503	968.8	30.6
323.15	0.9656	1101	39.9
333.15	0.1489	217.4	8.8
333.15	0.2158	312.9	12.9
333.15	0.2681	394.3	16.8
333.15	0.3619	538.9	22.3
333.15	0.4395	657.6	26.7
333.15	0.5199	778.5	31.3
333.15	0.5905	883.4	37.8
333.15	0.6509	972.2	38
333.15	0.7658	1138.1	45.1
333.15	0.9421	1397.8	55.8
343.15	0.12	218.8	8.7
343.15	0.1934	349.2	14.5
343.15	0.2636	483.9	20.4
343.15	0.3492	646.8	26.8
343.15	0.4416	820.8	33.4
343.15	0.5398	1006.1	40.4
343.15	0.6455	1203.8	48.4
343.15	0.7669	1429.9	59.2
343.15	0.8316	1549.9	62
353.15	0.1251	281.4	10.4
353.15	0.197	429.4	17.2
353.15	0.2831	627	26.7
353.15	0.3686	829.8	35.4
353.15	0.4723	1077.3	45.3
353.15	0.5333	1224.8	51.6
353.15	0.6179	1426.5	59.4
353.15	0.7034	1629.9	66.4
353.15	0.7896	1828.9	73.3
