Measured thermophysical data. Effect of Temperature and Concentration on Density, Apparent Molar Volume, Ultrasound Velocity, Isoentropic Compressibility, Viscosity, and Conductivity of Hexadecyldimethylethylammonium Bromide
Source: J. Chem. Eng. Data, 2012, 10.1021/je3003404
Compound 1: ethylhexadecyldimethylammonium bromide, C20H44BrN, InChI=1S/C20H44N.BrH/c1-5-7-8-9-10-11-12-13-14-15-16-17-18-19-20-21(3,4)6-2;/h5-20H2,1-4H3;1H/q+1;/p-1, purity 99%
Compound 2: water, H2O, InChI=1S/H2O/h1H2

System: ethylhexadecyldimethylammonium bromide + water; phases: Liquid
Fixed: Pressure, kPa = 101
Property: Electrical conductivity, S/m (Liquid); method: Dip type conductivity cell
Temperature, K	Molality, mol/kg of ethylhexadecyldimethylammonium bromide	Electrical conductivity, S/m	uncertainty
298.15	0.0002	0.0027	0.00011
298.15	0.0005	0.00707	0.00028
298.15	0.0008	0.01046	0.00042
298.15	0.0012	0.01187	0.00048
298.15	0.0016	0.0127	0.00051
298.15	0.002	0.01375	0.00055
298.15	0.0025	0.01523	0.00061
298.15	0.003	0.0161	0.00065
303.15	0.0002	0.00301	0.00012
303.15	0.0005	0.00808	0.00032
303.15	0.0008	0.0127	0.00051
303.15	0.0012	0.0144	0.00058
303.15	0.0016	0.0153	0.00061
303.15	0.002	0.0167	0.00067
303.15	0.0025	0.01783	0.00071
303.15	0.003	0.01938	0.00078
308.15	0.0002	0.00338	0.00014
308.15	0.0005	0.00879	0.00035
308.15	0.0008	0.01396	0.00056
308.15	0.0012	0.0161	0.00065
308.15	0.0016	0.01701	0.00068
308.15	0.002	0.01845	0.00074
308.15	0.0025	0.0195	0.00078
308.15	0.003	0.02172	0.00087
313.15	0.0002	0.00364	0.00015
313.15	0.0005	0.00952	0.00038
313.15	0.0008	0.0153	0.00061
313.15	0.0012	0.0183	0.00073
313.15	0.0016	0.01872	0.00075
313.15	0.002	0.02088	0.00084
313.15	0.0025	0.02242	0.0009
313.15	0.003	0.0243	0.00097
318.15	0.0002	0.00396	0.00016
318.15	0.0005	0.0107	0.00043
318.15	0.0008	0.0171	0.00068
318.15	0.0012	0.02102	0.00084
318.15	0.0016	0.02301	0.00092
318.15	0.002	0.02502	0.001
318.15	0.0025	0.0265	0.00106
318.15	0.003	0.02802	0.00112

System: ethylhexadecyldimethylammonium bromide + water; phases: Liquid
Fixed: Pressure, kPa = 101
Property: Viscosity, Pa*s (Liquid); method: Capillary tube (Ostwald; Ubbelohde) method
Temperature, K	Molality, mol/kg of ethylhexadecyldimethylammonium bromide	Viscosity, Pa*s	uncertainty
298.15	0.0002	0.0008803	3.58e-05
298.15	0.0005	0.0008841	3.59e-05
298.15	0.0008	0.000887	3.6e-05
298.15	0.0012	0.0008904	3.62e-05
298.15	0.0016	0.0008929	3.63e-05
298.15	0.002	0.0008952	3.64e-05
298.15	0.0025	0.0008979	3.65e-05
298.15	0.003	0.0009007	3.66e-05
303.15	0.0002	0.0007889	3.21e-05
303.15	0.0005	0.000792	3.22e-05
303.15	0.0008	0.0007945	3.23e-05
303.15	0.0012	0.0007978	3.24e-05
303.15	0.0016	0.0008001	3.25e-05
303.15	0.002	0.0008021	3.26e-05
303.15	0.0025	0.0008047	3.27e-05
303.15	0.003	0.000807	3.28e-05
308.15	0.0002	0.0007097	2.89e-05
308.15	0.0005	0.0007125	2.9e-05
308.15	0.0008	0.0007157	2.91e-05
308.15	0.0012	0.000719	2.92e-05
308.15	0.0016	0.0007209	2.93e-05
308.15	0.002	0.0007228	2.94e-05
308.15	0.0025	0.000725	2.95e-05
308.15	0.003	0.0007271	2.96e-05
313.15	0.0002	0.000641	2.61e-05
313.15	0.0005	0.0006432	2.61e-05
313.15	0.0008	0.0006469	2.63e-05
313.15	0.0012	0.0006502	2.64e-05
313.15	0.0016	0.000652	2.65e-05
313.15	0.002	0.0006539	2.66e-05
313.15	0.0025	0.0006558	2.67e-05
313.15	0.003	0.0006576	2.67e-05
318.15	0.0002	0.000582	2.37e-05
318.15	0.0005	0.0005832	2.37e-05
318.15	0.0008	0.000587	2.39e-05
318.15	0.0012	0.0005903	2.4e-05
318.15	0.0016	0.0005922	2.41e-05
318.15	0.002	0.0005935	2.41e-05
318.15	0.0025	0.0005954	2.42e-05
318.15	0.003	0.0005971	2.43e-05
323.15	0.0002	0.0005274	2.15e-05
323.15	0.0005	0.0005298	2.16e-05
323.15	0.0008	0.0005334	2.17e-05
323.15	0.0012	0.0005357	2.18e-05
323.15	0.0016	0.0005384	2.19e-05
323.15	0.002	0.0005398	2.2e-05
323.15	0.0025	0.0005413	2.2e-05
323.15	0.003	0.0005426	2.21e-05

System: ethylhexadecyldimethylammonium bromide + water; phases: Liquid
Fixed: Pressure, kPa = 101
Property: Speed of sound, m/s (Liquid); method: Sing-around technique in a fixed-path interferometer
Temperature, K	Molality, mol/kg of ethylhexadecyldimethylammonium bromide	Speed of sound, m/s	uncertainty
298.15	0.0002	1498.5	0.94
298.15	0.0005	1499.32	0.94
298.15	0.0008	1499.96	0.94
298.15	0.0012	1500.27	0.94
298.15	0.0016	1500.08	0.94
298.15	0.002	1499.91	0.94
298.15	0.0025	1499.89	0.94
298.15	0.003	1499.72	0.94
303.15	0.0002	1510.35	0.93
303.15	0.0005	1511.02	0.93
303.15	0.0008	1511.84	0.93
303.15	0.0012	1512.34	0.93
303.15	0.0016	1512.15	0.93
303.15	0.002	1511.97	0.93
303.15	0.0025	1511.78	0.93
303.15	0.003	1511.59	0.93
308.15	0.0002	1518.56	0.93
308.15	0.0005	1519.24	0.94
308.15	0.0008	1519.91	0.94
308.15	0.0012	1520.41	0.94
308.15	0.0016	1520.23	0.94
308.15	0.002	1520.04	0.94
308.15	0.0025	1519.95	0.94
308.15	0.003	1519.5	0.94
313.15	0.0002	1528.82	0.94
313.15	0.0005	1529.87	0.94
313.15	0.0008	1530.37	0.94
313.15	0.0012	1531.25	0.94
313.15	0.0016	1531.06	0.94
313.15	0.002	1530.88	0.94
313.15	0.0025	1530.68	0.94
313.15	0.003	1530.5	0.94
318.15	0.0002	1537.09	0.93
318.15	0.0005	1538.17	0.94
318.15	0.0008	1538.51	0.94
318.15	0.0012	1539.39	0.94
318.15	0.0016	1539.2	0.94
318.15	0.002	1539.01	0.94
318.15	0.0025	1538.83	0.94
318.15	0.003	1538.63	0.94
323.15	0.0002	1541.69	0.93
323.15	0.0005	1542.76	0.93
323.15	0.0008	1543.47	0.93
323.15	0.0012	1544.55	0.93
323.15	0.0016	1544.35	0.94
323.15	0.002	1544.07	0.94
323.15	0.0025	1543.97	0.94
323.15	0.003	1543.78	0.94

System: ethylhexadecyldimethylammonium bromide + water; phases: Liquid
Fixed: Pressure, kPa = 101
Property: Mass density, kg/m3 (Liquid); method: Pycnometric method
Temperature, K	Molality, mol/kg of ethylhexadecyldimethylammonium bromide	Mass density, kg/m3	uncertainty
298.15	0.0002	996.43	0.43
298.15	0.0005	996.47	0.43
298.15	0.0008	996.51	0.42
298.15	0.0012	996.54	0.41
298.15	0.0016	996.56	0.41
298.15	0.002	996.58	0.41
298.15	0.0025	996.6	0.41
298.15	0.003	996.62	0.41
303.15	0.0002	994.49	0.42
303.15	0.0005	994.52	0.43
303.15	0.0008	994.56	0.42
303.15	0.0012	994.59	0.42
303.15	0.0016	994.61	0.41
303.15	0.002	994.62	0.42
303.15	0.0025	994.64	0.42
303.15	0.003	994.66	0.42
308.15	0.0002	992.55	0.43
308.15	0.0005	992.58	0.43
308.15	0.0008	992.61	0.42
308.15	0.0012	992.63	0.42
308.15	0.0016	992.65	0.42
308.15	0.002	992.66	0.42
308.15	0.0025	992.67	0.42
308.15	0.003	992.69	0.42
313.15	0.0002	990.61	0.43
313.15	0.0005	990.63	0.44
313.15	0.0008	990.67	0.43
313.15	0.0012	990.68	0.42
313.15	0.0016	990.69	0.43
313.15	0.002	990.7	0.43
313.15	0.0025	990.72	0.43
313.15	0.003	990.73	0.43
318.15	0.0002	988.67	0.43
318.15	0.0005	988.68	0.43
318.15	0.0008	988.7	0.44
318.15	0.0012	988.73	0.43
318.15	0.0016	988.74	0.43
318.15	0.002	988.75	0.43
318.15	0.0025	988.76	0.43
318.15	0.003	988.78	0.43
323.15	0.0002	986.71	0.44
323.15	0.0005	986.72	0.44
323.15	0.0008	986.74	0.44
323.15	0.0012	986.76	0.44
323.15	0.0016	986.78	0.44
323.15	0.002	986.79	0.44
323.15	0.0025	986.8	0.44
323.15	0.003	986.81	0.44
