Measured thermophysical data. Electrical Conductivities, Viscosities, and Densities of N-Acetoxyethyl-N,N-dimethyl-N-ethylammonium and N,N-Dimethyl-N-ethyl-N-methoxyethoxyethylammonium Bis(trifluoromethanesulfonyl)amide and Their Nonfunctionalized Analogues
Source: J. Chem. Eng. Data, 2013, 10.1021/je3010062
Compound 1: 2-(acetyloxy)-N-ethyl-N,N-dimethylethanaminium 1,1,1-trifluoro-N-[(trifluoromethyl)sulfonyl]methanesulfonamide, C10H18F6N2O6S2, InChI=1S/C8H18NO2.C2F6NO4S2/c1-5-9(3,4)6-7-11-8(2)10;3-1(4,5)14(10,11)9-15(12,13)2(6,7)8/h5-7H2,1-4H3;/q+1;-1, purity 99%
Compound 2: N-ethyl-2-(2-methoxyethoxy)-N,N-dimethylethanaminium bis(trifluoromethylsulfonyl)imide, C11H22F6N2O6S2, InChI=1S/C9H22NO2.C2F6NO4S2/c1-5-10(2,3)6-7-12-9-8-11-4;3-1(4,5)14(10,11)9-15(12,13)2(6,7)8/h5-9H2,1-4H3;/q+1;-1, purity 99%
Compound 3: N,N-dimethyl-N-ethyl-N-pentylammonium bis(trifluoromethylsulfonyl), C11H22F6N2O4S2, InChI=1S/C9H22N.C2F6NO4S2/c1-5-7-8-9-10(3,4)6-2;3-1(4,5)14(10,11)9-15(12,13)2(6,7)8/h5-9H2,1-4H3;/q+1;-1, purity 99%
Compound 4: N-ethyl-N,N-dimethylheptanaminium bis((trifluoromethyl)sulfonyl)amide, C13H26F6N2O4S2, InChI=1S/C11H26N.C2F6NO4S2/c1-5-7-8-9-10-11-12(3,4)6-2;3-1(4,5)14(10,11)9-15(12,13)2(6,7)8/h5-11H2,1-4H3;/q+1;-1, purity 99%

System: 2-(acetyloxy)-N-ethyl-N,N-dimethylethanaminium 1,1,1-trifluoro-N-[(trifluoromethyl)sulfonyl]methanesulfonamide; phases: Liquid
Fixed: Pressure, kPa = 101.325
Property: Electrical conductivity, S/m (Liquid); method: syringe-type cell with a pair of platinum electrodes
Temperature, K	Electrical conductivity, S/m	uncertainty
273.15	0.01589	0.00064
278.15	0.02507	0.001
283.15	0.03784	0.00151
288.15	0.05491	0.0022
293.15	0.07714	0.00309
298.15	0.1052	0.0042
303.15	0.1395	0.0056
313.15	0.2287	0.0091
323.15	0.3481	0.0139
333.15	0.498	0.0199
343.15	0.68	0.0272
353.15	0.8913	0.0357

System: 2-(acetyloxy)-N-ethyl-N,N-dimethylethanaminium 1,1,1-trifluoro-N-[(trifluoromethyl)sulfonyl]methanesulfonamide; phases: Liquid
Fixed: Pressure, kPa = 101.325
Property: Viscosity, Pa*s (Liquid); method: Concentric cylinders viscometry
Temperature, K	Viscosity, Pa*s	uncertainty
273.15	1.539	0.093
278.15	0.9537	0.0549
283.15	0.6173	0.0332
288.15	0.4153	0.021
293.15	0.2891	0.0139
298.15	0.2075	0.0095
303.15	0.153	0.0067
313.15	0.0894	0.00379
323.15	0.05656	0.00234
333.15	0.03815	0.00157
343.15	0.0271	0.00111
353.15	0.02006	0.00082
363.15	0.01537	0.00063

System: 2-(acetyloxy)-N-ethyl-N,N-dimethylethanaminium 1,1,1-trifluoro-N-[(trifluoromethyl)sulfonyl]methanesulfonamide; phases: Liquid
Fixed: Pressure, kPa = 101.325
Property: Mass density, kg/m3 (Liquid); method: Vibrating tube method
Temperature, K	Mass density, kg/m3	uncertainty
273.15	1481.9	1.6
278.15	1477.1	1.6
283.15	1472.2	1.6
288.15	1467.3	1.6
293.15	1463.24	1.58
298.15	1458.65	1.57
303.15	1454.07	1.56
313.15	1444.94	1.55
323.15	1435.92	1.54
333.15	1426.99	1.53
343.15	1418.13	1.52
353.15	1409.35	1.51
363.15	1400.64	1.5

System: N-ethyl-2-(2-methoxyethoxy)-N,N-dimethylethanaminium bis(trifluoromethylsulfonyl)imide; phases: Liquid
Fixed: Pressure, kPa = 101.325
Property: Electrical conductivity, S/m (Liquid); method: syringe-type cell with a pair of platinum electrodes
Temperature, K	Electrical conductivity, S/m	uncertainty
273.15	0.06811	0.00272
278.15	0.09358	0.00374
283.15	0.1249	0.005
288.15	0.1622	0.0065
293.15	0.2061	0.0082
298.15	0.2571	0.0103
303.15	0.3152	0.0126
313.15	0.4513	0.0181
323.15	0.6164	0.0247
333.15	0.8099	0.0324
343.15	1.025	0.041
353.15	1.269	0.051

System: N-ethyl-2-(2-methoxyethoxy)-N,N-dimethylethanaminium bis(trifluoromethylsulfonyl)imide; phases: Liquid
Fixed: Pressure, kPa = 101.325
Property: Viscosity, Pa*s (Liquid); method: Concentric cylinders viscometry
Temperature, K	Viscosity, Pa*s	uncertainty
273.15	0.2435	0.0113
278.15	0.1736	0.0078
283.15	0.1275	0.0056
288.15	0.09635	0.0041
293.15	0.07427	0.00311
298.15	0.05857	0.00243
303.15	0.04719	0.00194
313.15	0.03203	0.00132
323.15	0.02289	0.00094
333.15	0.01702	0.00069
343.15	0.01314	0.00054
353.15	0.01039	0.00042
363.15	0.008433	0.000343

System: N-ethyl-2-(2-methoxyethoxy)-N,N-dimethylethanaminium bis(trifluoromethylsulfonyl)imide; phases: Liquid
Fixed: Pressure, kPa = 101.325
Property: Mass density, kg/m3 (Liquid); method: Vibrating tube method
Temperature, K	Mass density, kg/m3	uncertainty
273.15	1414.1	1.5
278.15	1409.65	1.51
283.15	1404.97	1.5
288.15	1400.31	1.5
293.15	1395.68	1.49
298.15	1391.07	1.49
303.15	1386.49	1.48
313.15	1377.4	1.47
323.15	1368.39	1.46
333.15	1359.45	1.45
343.15	1350.57	1.44
353.15	1341.75	1.43
363.15	1332.98	1.41

System: N,N-dimethyl-N-ethyl-N-pentylammonium bis(trifluoromethylsulfonyl); phases: Crystal, Liquid, Air at 1 atmosphere
Property: Normal melting temperature, K (Crystal); method: DTA
Normal melting temperature, K	uncertainty
266.7	1.1

System: N,N-dimethyl-N-ethyl-N-pentylammonium bis(trifluoromethylsulfonyl); phases: Liquid
Fixed: Pressure, kPa = 101.325
Property: Electrical conductivity, S/m (Liquid); method: syringe-type cell with a pair of platinum electrodes
Temperature, K	Electrical conductivity, S/m	uncertainty
273.15	0.02856	0.00114
278.15	0.04151	0.00166
283.15	0.05842	0.00234
288.15	0.07997	0.0032
293.15	0.1067	0.0043
298.15	0.1392	0.0056
303.15	0.1779	0.0071
313.15	0.2754	0.011
323.15	0.4011	0.016
333.15	0.556	0.0222
343.15	0.7407	0.0296
353.15	0.9545	0.0382

System: N,N-dimethyl-N-ethyl-N-pentylammonium bis(trifluoromethylsulfonyl); phases: Liquid
Fixed: Pressure, kPa = 101.325
Property: Viscosity, Pa*s (Liquid); method: Concentric cylinders viscometry
Temperature, K	Viscosity, Pa*s	uncertainty
273.15	0.6888	0.0367
278.15	0.4642	0.0238
283.15	0.3231	0.0157
288.15	0.2312	0.0107
293.15	0.1699	0.0076
298.15	0.1276	0.0055
303.15	0.09788	0.00412
313.15	0.06094	0.00253
323.15	0.04043	0.00167
333.15	0.02825	0.00116
343.15	0.0206	0.00084
353.15	0.01556	0.00063
363.15	0.01212	0.00049

System: N,N-dimethyl-N-ethyl-N-pentylammonium bis(trifluoromethylsulfonyl); phases: Liquid
Fixed: Pressure, kPa = 101.325
Property: Mass density, kg/m3 (Liquid); method: Vibrating tube method
Temperature, K	Mass density, kg/m3	uncertainty
273.15	1363.19	1.45
278.15	1358.79	1.45
283.15	1354.43	1.44
288.15	1350.08	1.43
293.15	1345.71	1.43
298.15	1341.37	1.42
303.15	1337.04	1.42
313.15	1328.44	1.41
323.15	1319.93	1.4
333.15	1311.48	1.39
343.15	1303.1	1.38
353.15	1294.77	1.37
363.15	1286.49	1.36

System: N-ethyl-N,N-dimethylheptanaminium bis((trifluoromethyl)sulfonyl)amide; phases: Liquid
Fixed: Pressure, kPa = 101.325
Property: Electrical conductivity, S/m (Liquid); method: syringe-type cell with a pair of platinum electrodes
Temperature, K	Electrical conductivity, S/m	uncertainty
273.15	0.0157	0.00063
278.15	0.02302	0.00092
283.15	0.0328	0.00131
288.15	0.04538	0.00182
293.15	0.06135	0.00245
298.15	0.08104	0.00324
303.15	0.1049	0.0042
313.15	0.1668	0.0067
323.15	0.2489	0.01
333.15	0.3529	0.0141
343.15	0.4796	0.0192
353.15	0.6308	0.0252

System: N-ethyl-N,N-dimethylheptanaminium bis((trifluoromethyl)sulfonyl)amide; phases: Liquid
Fixed: Pressure, kPa = 101.325
Property: Viscosity, Pa*s (Liquid); method: Concentric cylinders viscometry
Temperature, K	Viscosity, Pa*s	uncertainty
273.15	0.9443	0.0526
278.15	0.6341	0.0339
283.15	0.4378	0.0221
288.15	0.3105	0.015
293.15	0.2257	0.0104
298.15	0.1677	0.0075
303.15	0.1276	0.0055
313.15	0.07777	0.00326
323.15	0.05063	0.00209
333.15	0.03468	0.00143
343.15	0.02484	0.00102
353.15	0.01849	0.00076
363.15	0.01418	0.00058

System: N-ethyl-N,N-dimethylheptanaminium bis((trifluoromethyl)sulfonyl)amide; phases: Liquid
Fixed: Pressure, kPa = 101.325
Property: Mass density, kg/m3 (Liquid); method: Vibrating tube method
Temperature, K	Mass density, kg/m3	uncertainty
273.15	1311.95	1.39
278.15	1307.78	1.38
283.15	1303.56	1.38
288.15	1299.38	1.37
293.15	1295.2	1.37
298.15	1291	1.36
303.15	1286.82	1.36
313.15	1278.51	1.35
323.15	1270.28	1.34
333.15	1262.09	1.33
343.15	1253.97	1.32
353.15	1245.9	1.31
363.15	1237.87	1.3
