Measured thermophysical data. Solubility of p-Nitroaniline in Supercritical Carbon Dioxide with and without Mixed Cosolvents
Source: J. Chem. Eng. Data, 2013, 10.1021/je300987d
Compound 1: 4-nitrobenzenamine, C6H6N2O2, InChI=1S/C6H6N2O2/c7-5-1-3-6(4-2-5)8(9)10/h1-4H,7H2, purity 99.5%
Compound 2: carbon dioxide, CO2, InChI=1S/CO2/c2-1-3, purity 99.9%
Compound 3: ethanol, C2H6O, InChI=1S/C2H6O/c1-2-3/h3H,2H2,1H3
Compound 4: hexane, C6H14, InChI=1S/C6H14/c1-3-5-6-4-2/h3-6H2,1-2H3

System: 4-nitrobenzenamine + carbon dioxide; phases: Gas, Crystal
Property: Mole fraction of 4-nitrobenzenamine (Gas); method: Spectroscopy
Temperature, K	Pressure, kPa	Mole fraction of 4-nitrobenzenamine	uncertainty
308	11000	1.34e-05	1.4e-06
308	13000	1.7e-05	1.7e-06
308	15000	1.98e-05	2e-06
308	18000	2.11e-05	2.1e-06
308	21000	2.25e-05	2.3e-06
318	11000	1.1e-05	1.1e-06
318	13000	1.62e-05	1.7e-06
318	15000	2.35e-05	2.4e-06
318	18000	2.98e-05	3e-06
318	21000	3.34e-05	3.3e-06
328	11000	6.23e-06	8.3e-07
328	13000	1.71e-05	1.8e-06
328	15000	2.56e-05	2.6e-06
328	18000	3.5e-05	3.5e-06
328	21000	4.26e-05	4.3e-06

System: 4-nitrobenzenamine + hexane + carbon dioxide; phases: Fluid (supercritical or subcritical phases), Crystal
Fixed: Temperature, K = 318
Fixed: Solvent: Mole fraction of hexane = 0.04
Property: Mole fraction of 4-nitrobenzenamine (Fluid (supercritical or subcritical phases)); method: Spectroscopy
Pressure, kPa	Mole fraction of 4-nitrobenzenamine	uncertainty
11000	1.27e-05	1.4e-06
13000	1.86e-05	1.9e-06
15000	2.64e-05	2.7e-06
18000	3.19e-05	3.2e-06
21000	3.66e-05	3.7e-06

System: ethanol + 4-nitrobenzenamine + carbon dioxide; phases: Fluid (supercritical or subcritical phases), Crystal
Fixed: Temperature, K = 318
Fixed: Solvent: Mole fraction of ethanol = 0.04
Property: Mole fraction of 4-nitrobenzenamine (Fluid (supercritical or subcritical phases)); method: Spectroscopy
Pressure, kPa	Mole fraction of 4-nitrobenzenamine	uncertainty
11000	3.61e-06	4.2e-07
13000	7.78e-06	8.1e-07
15000	1.21e-05	1.2e-06
18000	1.64e-05	1.6e-06
21000	2e-05	2e-06
