Measured thermophysical data. Isobaric Vapor Liquid Equilibrium for the Binary Systems of Methanol, Diethylamine, and N,N-Diethylethanolamine at p = (60.0 and 101.3) kPa
Source: J. Chem. Eng. Data, 2013, 10.1021/je301219c
Compound 1: methanol, CH4O, InChI=1S/CH4O/c1-2/h2H,1H3, purity 99.9%
Compound 2: diethylamine, C4H11N, InChI=1S/C4H11N/c1-3-5-4-2/h5H,3-4H2,1-2H3, purity 99%
Compound 3: (diethylamino)ethanol, C6H15NO, InChI=1S/C6H15NO/c1-3-7(4-2)5-6-8/h8H,3-6H2,1-2H3, purity 99%

System: methanol; phases: Liquid, Gas
Property: Vapor or sublimation pressure, kPa (Liquid); method: Ebulliometric method (Recirculating still)
Temperature, K	Vapor or sublimation pressure, kPa	uncertainty
324.92	60	0.87
337.82	101.3	1.57015

System: diethylamine; phases: Liquid, Gas
Property: Vapor or sublimation pressure, kPa (Liquid); method: Ebulliometric method (Recirculating still)
Temperature, K	Vapor or sublimation pressure, kPa	uncertainty
313.64	60	1.02
328.67	101.3	1.8234

System: (diethylamino)ethanol; phases: Liquid, Gas
Property: Vapor or sublimation pressure, kPa (Liquid); method: Ebulliometric method (Recirculating still)
Temperature, K	Vapor or sublimation pressure, kPa	uncertainty
418.34	60	1.17
435.94	101.3	2.1273

System: methanol + diethylamine; phases: Liquid, Gas
Property: Boiling temperature at pressure P, K (Liquid); method: Ebulliometric method (Recirculating still)
Mole fraction of methanol	Pressure, kPa	Boiling temperature at pressure P, K	uncertainty
0	60	313.64	0.34
0	101.3	328.67	0.36
0.057	101.3	329.55	0.35
0.06	60	315.24	0.34
0.149	101.3	331.18	0.35
0.249	101.3	333.05	0.34
0.327	60	320.71	0.32
0.329	101.3	334.64	0.34
0.412	101.3	336.45	0.33
0.448	60	323.81	0.32
0.482	60	324.32	0.31
0.491	101.3	337.89	0.33
0.537	101.3	338.55	0.32
0.538	60	325.56	0.31
0.598	60	326.51	0.3
0.609	101.3	339.33	0.31
0.665	60	327.25	0.29
0.719	101.3	340.2	0.3
0.731	60	327.66	0.29
0.744	60	327.77	0.28
0.752	101.3	340.08	0.3
0.793	60	327.6	0.28
0.839	101.3	339.77	0.3
0.893	60	326.62	0.3
0.91	101.3	339.15	0.31
0.951	101.3	338.58	0.32
0.963	60	325.4	0.3
0.969	101.3	338.31	0.32
0.986	101.3	338.07	0.32
1	60	324.92	0.29
1	101.3	337.82	0.31

System: methanol + diethylamine; phases: Gas, Liquid
Property: Mole fraction of methanol (Gas); method: Chromatography
Mole fraction of methanol	Pressure, kPa	Mole fraction of methanol	uncertainty
0	60	0	
0	101.3	0	
0.057	101.3	0.021	0.004
0.06	60	0.02	0.004
0.149	101.3	0.064	0.005
0.249	101.3	0.129	0.005
0.327	60	0.181	0.005
0.329	101.3	0.196	0.006
0.412	101.3	0.284	0.007
0.448	60	0.29	0.006
0.482	60	0.336	0.007
0.491	101.3	0.376	0.007
0.537	101.3	0.439	0.008
0.538	60	0.41	0.008
0.598	60	0.502	0.009
0.609	101.3	0.542	0.008
0.665	60	0.613	0.009
0.719	101.3	0.711	0.008
0.731	60	0.72	0.008
0.744	60	0.742	0.008
0.752	101.3	0.75	0.007
0.793	60	0.813	0.007
0.839	101.3	0.867	0.007
0.893	60	0.929	0.006
0.91	101.3	0.95	0.006
0.951	101.3	0.984	0.005
0.963	60	0.981	0.005
0.969	101.3	0.992	0.004
0.986	101.3	0.997	0.003
1	60	1	
1	101.3	1	

System: methanol + (diethylamino)ethanol; phases: Liquid, Gas
Property: Boiling temperature at pressure P, K (Liquid); method: Ebulliometric method (Recirculating still)
Mole fraction of methanol	Pressure, kPa	Boiling temperature at pressure P, K	uncertainty
0	60	418.34	0.39
0	101.3	435.94	0.42
0.046	101.3	422.43	1.13
0.051	60	402.16	1.22
0.093	60	391.56	0.79
0.105	101.3	408.75	0.88
0.224	101.3	389.69	0.72
0.233	60	369.86	0.68
0.31	60	361.67	0.53
0.359	101.3	374.83	0.61
0.417	60	352.79	0.48
0.42	101.3	369.54	0.52
0.536	101.3	360.71	0.48
0.539	60	344.31	0.42
0.561	60	343.17	0.42
0.685	101.3	351.51	0.39
0.712	101.3	350.01	0.39
0.796	60	331.79	0.36
0.853	101.3	343.04	0.37
0.895	60	327.93	0.33
1	60	324.92	0.29
1	101.3	337.82	0.31

System: methanol + (diethylamino)ethanol; phases: Gas, Liquid
Property: Mole fraction of methanol (Gas); method: Chromatography
Mole fraction of methanol	Pressure, kPa	Mole fraction of methanol	uncertainty
0	60	0	
0	101.3	0	
0.046	101.3	0.365	0.024
0.051	60	0.455	0.028
0.093	60	0.631	0.01
0.105	101.3	0.616	0.012
0.224	101.3	0.833	0.007
0.233	60	0.872	0.007
0.31	60	0.924	0.005
0.359	101.3	0.923	0.005
0.417	60	0.963	0.004
0.42	101.3	0.953	0.004
0.536	101.3	0.975	0.004
0.539	60	0.983	0.004
0.561	60	0.986	0.004
0.685	101.3	0.991	0.004
0.712	101.3	0.993	0.004
0.796	60	0.997	0.003
0.853	101.3	0.999	0.001
0.895	60	0.999	0.001
1	60	1	
1	101.3	1	

System: (diethylamino)ethanol + diethylamine; phases: Liquid, Gas
Property: Boiling temperature at pressure P, K (Liquid); method: Ebulliometric method (Recirculating still)
Mole fraction of (diethylamino)ethanol	Pressure, kPa	Boiling temperature at pressure P, K	uncertainty
0	60	313.64	0.34
0	101.3	328.67	0.36
0.212	101.3	335.45	0.4
0.218	60	320.76	0.36
0.348	60	326.51	0.38
0.356	101.3	341.95	0.41
0.424	101.3	345.15	0.43
0.429	60	330.72	0.41
0.535	101.3	351.79	0.48
0.559	60	339.34	0.44
0.697	101.3	366.03	0.54
0.699	60	352.23	0.5
0.767	101.3	375.15	0.66
0.77	60	360.84	0.7
0.815	101.3	382.45	0.9
0.876	60	379.97	0.86
0.91	60	388.45	1.29
0.928	101.3	408.31	1.22
1	60	418.34	0.39
1	101.3	435.94	0.42

System: (diethylamino)ethanol + diethylamine; phases: Gas, Liquid
Property: Mole fraction of (diethylamino)ethanol (Gas); method: Chromatography
Mole fraction of (diethylamino)ethanol	Pressure, kPa	Mole fraction of (diethylamino)ethanol	uncertainty
0	60	0	
0	101.3	0	
0.212	101.3	0.005	0.004
0.218	60	0.007	0.004
0.348	60	0.009	0.004
0.356	101.3	0.011	0.004
0.424	101.3	0.016	0.004
0.429	60	0.015	0.004
0.535	101.3	0.027	0.004
0.559	60	0.029	0.004
0.697	101.3	0.065	0.004
0.699	60	0.056	0.004
0.767	101.3	0.101	0.005
0.77	60	0.093	0.006
0.815	101.3	0.143	0.009
0.876	60	0.23	0.008
0.91	60	0.32	0.026
0.928	101.3	0.401	0.019
1	60	1	
1	101.3	1	
