Measured thermophysical data. Determination of Henry's Law Constants Using Internal Standards with Benchmark Values
Source: J. Chem. Eng. Data, 2013, 10.1021/je3010535
Compound 1: dichlorodifluoromethane, CCl2F2, InChI=1S/CCl2F2/c2-1(3,4)5, purity 99%
Compound 2: water, H2O, InChI=1S/H2O/h1H2, purity 99.8%
Compound 3: chloromethane, CH3Cl, InChI=1S/CH3Cl/c1-2/h1H3, purity 99%
Compound 4: chloroethene, C2H3Cl, InChI=1S/C2H3Cl/c1-2-3/h2H,1H2, purity 99%
Compound 5: bromomethane, CH3Br, InChI=1S/CH3Br/c1-2/h1H3, purity 99%
Compound 6: chloroethane, C2H5Cl, InChI=1S/C2H5Cl/c1-2-3/h2H2,1H3, purity 99%
Compound 7: trichlorofluoromethane, CCl3F, InChI=1S/CCl3F/c2-1(3,4)5, purity 99%
Compound 8: diethyl ether, C4H10O, InChI=1S/C4H10O/c1-3-5-4-2/h3-4H2,1-2H3, purity 99%
Compound 9: 1,1,2-trichloro-1,2,2-trifluoroethane, C2Cl3F3, InChI=1S/C2Cl3F3/c3-1(4,6)2(5,7)8, purity 99%
Compound 10: acetone, C3H6O, InChI=1S/C3H6O/c1-3(2)4/h1-2H3, purity 99%
Compound 11: 1,1-dichloroethene, C2H2Cl2, InChI=1S/C2H2Cl2/c1-2(3)4/h1H2, purity 99%
Compound 12: iodomethane, CH3I, InChI=1S/CH3I/c1-2/h1H3, purity 99%
Compound 13: 3-chloro-1-propene, C3H5Cl, InChI=1S/C3H5Cl/c1-2-3-4/h2H,1,3H2, purity 99%
Compound 14: acetonitrile, C2H3N, InChI=1S/C2H3N/c1-2-3/h1H3, purity 99%
Compound 15: methyl ethanoate, C3H6O2, InChI=1S/C3H6O2/c1-3(4)5-2/h1-2H3, purity 99%
Compound 16: carbon disulfide, CS2, InChI=1S/CS2/c2-1-3, purity 99%
Compound 17: dichloromethane, CH2Cl2, InChI=1S/CH2Cl2/c2-1-3/h1H2, purity 99%
Compound 18: 2-methoxy-2-methylpropane, C5H12O, InChI=1S/C5H12O/c1-5(2,3)6-4/h1-4H3, purity 99%
Compound 19: acrylonitrile, C3H3N, InChI=1S/C3H3N/c1-2-3-4/h2H,1H2, purity 99%
Compound 20: (E)-1,2-dichloroethene, C2H2Cl2, InChI=1S/C2H2Cl2/c3-1-2-4/h1-2H/b2-1+, purity 99%
Compound 21: 1,1-dichloroethane, C2H4Cl2, InChI=1S/C2H4Cl2/c1-2(3)4/h2H,1H3, purity 99%
Compound 22: 2,2-dichloropropane, C3H6Cl2, InChI=1S/C3H6Cl2/c1-3(2,4)5/h1-2H3, purity 99%
Compound 23: propanenitrile, C3H5N, InChI=1S/C3H5N/c1-2-3-4/h2H2,1H3, purity 99%
Compound 24: butanone, C4H8O, InChI=1S/C4H8O/c1-3-4(2)5/h3H2,1-2H3, purity 99%
Compound 25: (Z)-1,2-dichloroethene, C2H2Cl2, InChI=1S/C2H2Cl2/c3-1-2-4/h1-2H/b2-1-, purity 99%
Compound 26: isopropenylnitrile, C4H5N, InChI=1S/C4H5N/c1-4(2)3-5/h1H2,2H3, purity 99%
Compound 27: trichloromethane, CHCl3, InChI=1S/CHCl3/c2-1(3)4/h1H, purity 99%
Compound 28: bromochloromethane, CH2BrCl, InChI=1S/CH2BrCl/c2-1-3/h1H2, purity 99%
Compound 29: cyclohexane, C6H12, InChI=1S/C6H12/c1-2-4-6-5-3-1/h1-6H2, purity 99%
Compound 30: 1,1,1-trichloroethane, C2H3Cl3, InChI=1S/C2H3Cl3/c1-2(3,4)5/h1H3, purity 99%
Compound 31: 1,1-dichloro-1-propene, C3H4Cl2, InChI=1S/C3H4Cl2/c1-2-3(4)5/h2H,1H3, purity 99%
Compound 32: tetrachloromethane, CCl4, InChI=1S/CCl4/c2-1(3,4)5, purity 99%
Compound 33: 1,2-dichloroethane, C2H4Cl2, InChI=1S/C2H4Cl2/c3-1-2-4/h1-2H2, purity 99%
Compound 34: benzene, C6H6, InChI=1S/C6H6/c1-2-4-6-5-3-1/h1-6H, purity 99%
Compound 35: trichloroethene, C2HCl3, InChI=1S/C2HCl3/c3-1-2(4)5/h1H, purity 99%
Compound 36: methylcyclohexane, C7H14, InChI=1S/C7H14/c1-7-5-3-2-4-6-7/h7H,2-6H2,1H3, purity 99%
Compound 37: 1,2-dichloropropane, C3H6Cl2, InChI=1S/C3H6Cl2/c1-3(5)2-4/h3H,2H2,1H3, purity 99%
Compound 38: methyl methacrylate, C5H8O2, InChI=1S/C5H8O2/c1-4(2)5(6)7-3/h1H2,2-3H3, purity 99%
Compound 39: dibromomethane, CH2Br2, InChI=1S/CH2Br2/c2-1-3/h1H2, purity 99%
Compound 40: bromodichloromethane, CHBrCl2, InChI=1S/CHBrCl2/c2-1(3)4/h1H, purity 99%
Compound 41: 1,4-dioxane, C4H8O2, InChI=1S/C4H8O2/c1-2-6-4-3-5-1/h1-4H2, purity 99%
Compound 42: 4-methylpentan-2-one, C6H12O, InChI=1S/C6H12O/c1-5(2)4-6(3)7/h5H,4H2,1-3H3, purity 99%
Compound 43: (E)-1,3-dichloro-1-propene, C3H4Cl2, InChI=1S/C3H4Cl2/c4-2-1-3-5/h1-2H,3H2/b2-1+, purity 99%
Compound 44: toluene, C7H8, InChI=1S/C7H8/c1-7-5-3-2-4-6-7/h2-6H,1H3, purity 99%
Compound 45: (Z)-1,3-dichloro-1-propene, C3H4Cl2, InChI=1S/C3H4Cl2/c4-2-1-3-5/h1-2H,3H2/b2-1-, purity 99%
Compound 46: 2-hexanone, C6H12O, InChI=1S/C6H12O/c1-3-4-5-6(2)7/h3-5H2,1-2H3, purity 99%
Compound 47: 1,1,2-trichloroethane, C2H3Cl3, InChI=1S/C2H3Cl3/c3-1-2(4)5/h2H,1H2, purity 99%
Compound 48: 1,3-dichloropropane, C3H6Cl2, InChI=1S/C3H6Cl2/c4-2-1-3-5/h1-3H2, purity 99%
Compound 49: tetrachloroethene, C2Cl4, InChI=1S/C2Cl4/c3-1(4)2(5)6, purity 99%
Compound 50: chlorodibromomethane, CHBr2Cl, InChI=1S/CHBr2Cl/c2-1(3)4/h1H, purity 99%
Compound 51: 1,2-dibromoethane, C2H4Br2, InChI=1S/C2H4Br2/c3-1-2-4/h1-2H2, purity 99%
Compound 52: chlorobenzene, C6H5Cl, InChI=1S/C6H5Cl/c7-6-4-2-1-3-5-6/h1-5H, purity 99%
Compound 53: 1,1,1,2-tetrachloroethane, C2H2Cl4, InChI=1S/C2H2Cl4/c3-1-2(4,5)6/h1H2, purity 99%
Compound 54: ethylbenzene, C8H10, InChI=1S/C8H10/c1-2-8-6-4-3-5-7-8/h3-7H,2H2,1H3, purity 99%
Compound 55: 1,3-dimethylbenzene, C8H10, InChI=1S/C8H10/c1-7-4-3-5-8(2)6-7/h3-6H,1-2H3, purity 99%
Compound 56: 1,4-dimethylbenzene, C8H10, InChI=1S/C8H10/c1-7-3-5-8(2)6-4-7/h3-6H,1-2H3, purity 99%
Compound 57: styrene, C8H8, InChI=1S/C8H8/c1-2-8-6-4-3-5-7-8/h2-7H,1H2, purity 99%
Compound 58: 1,2-dimethylbenzene, C8H10, InChI=1S/C8H10/c1-7-5-3-4-6-8(7)2/h3-6H,1-2H3, purity 99%
Compound 59: isopropylbenzene, C9H12, InChI=1S/C9H12/c1-8(2)9-6-4-3-5-7-9/h3-8H,1-2H3, purity 99%
Compound 60: cis-1,4-dichloro-2-butene, C4H6Cl2, InChI=1S/C4H6Cl2/c5-3-1-2-4-6/h1-2H,3-4H2/b2-1-, purity 99%
Compound 61: 1,1,2,2-tetrachloroethane, C2H2Cl4, InChI=1S/C2H2Cl4/c3-1(4)2(5)6/h1-2H, purity 99%
Compound 62: 1,2,3-trichloropropane, C3H5Cl3, InChI=1S/C3H5Cl3/c4-1-3(6)2-5/h3H,1-2H2, purity 99%
Compound 63: propylbenzene, C9H12, InChI=1S/C9H12/c1-2-6-9-7-4-3-5-8-9/h3-5,7-8H,2,6H2,1H3, purity 99%
Compound 64: bromobenzene, C6H5Br, InChI=1S/C6H5Br/c7-6-4-2-1-3-5-6/h1-5H, purity 99%
Compound 65: trans-1,4-dichloro-2-butene, C4H6Cl2, InChI=1S/C4H6Cl2/c5-3-1-2-4-6/h1-2H,3-4H2/b2-1+, purity 99%
Compound 66: 1,3,5-trimethylbenzene, C9H12, InChI=1S/C9H12/c1-7-4-8(2)6-9(3)5-7/h4-6H,1-3H3, purity 99%
Compound 67: 2-chlorotoluene, C7H7Cl, InChI=1S/C7H7Cl/c1-6-4-2-3-5-7(6)8/h2-5H,1H3, purity 99%
Compound 68: 4-chlorotoluene, C7H7Cl, InChI=1S/C7H7Cl/c1-6-2-4-7(8)5-3-6/h2-5H,1H3, purity 99%
Compound 69: (1,1-dimethylethyl)benzene, C10H14, InChI=1S/C10H14/c1-10(2,3)9-7-5-4-6-8-9/h4-8H,1-3H3, purity 99%
Compound 70: (1-methylpropyl)benzene, C10H14, InChI=1S/C10H14/c1-3-9(2)10-7-5-4-6-8-10/h4-9H,3H2,1-2H3, purity 99%
Compound 71: pentachloroethane, C2HCl5, InChI=1S/C2HCl5/c3-1(4)2(5,6)7/h1H, purity 99%
Compound 72: 1,2,4-trimethylbenzene, C9H12, InChI=1S/C9H12/c1-7-4-5-8(2)9(3)6-7/h4-6H,1-3H3, purity 99%
Compound 73: 1-(1-methylethyl)-4-methylbenzene, C10H14, InChI=1S/C10H14/c1-8(2)10-6-4-9(3)5-7-10/h4-8H,1-3H3, purity 99%
Compound 74: 1,3-dichlorobenzene, C6H4Cl2, InChI=1S/C6H4Cl2/c7-5-2-1-3-6(8)4-5/h1-4H, purity 99%
Compound 75: 1,4-dichlorobenzene, C6H4Cl2, InChI=1S/C6H4Cl2/c7-5-1-2-6(8)4-3-5/h1-4H, purity 99%
Compound 76: butylbenzene, C10H14, InChI=1S/C10H14/c1-2-3-7-10-8-5-4-6-9-10/h4-6,8-9H,2-3,7H2,1H3, purity 99%
Compound 77: 1,2-dichlorobenzene, C6H4Cl2, InChI=1S/C6H4Cl2/c7-5-3-1-2-4-6(5)8/h1-4H, purity 99%
Compound 78: acetophenone, C8H8O, InChI=1S/C8H8O/c1-7(9)8-5-3-2-4-6-8/h2-6H,1H3, purity 99%
Compound 79: 1,2-dibromo-3-chloropropane, C3H5Br2Cl, InChI=1S/C3H5Br2Cl/c4-1-3(5)2-6/h3H,1-2H2, purity 99%
Compound 80: nitrobenzene, C6H5NO2, InChI=1S/C6H5NO2/c8-7(9)6-4-2-1-3-5-6/h1-5H, purity 99%
Compound 81: 1,2,4-trichlorobenzene, C6H3Cl3, InChI=1S/C6H3Cl3/c7-4-1-2-5(8)6(9)3-4/h1-3H, purity 99%
Compound 82: 1,1,2,3,4,4-hexachloro-1,3-butadiene, C4Cl6, InChI=1S/C4Cl6/c5-1(3(7)8)2(6)4(9)10, purity 99%
Compound 83: naphthalene, C10H8, InChI=1S/C10H8/c1-2-6-10-8-4-3-7-9(10)5-1/h1-8H, purity 99%
Compound 84: 1,2,3-trichlorobenzene, C6H3Cl3, InChI=1S/C6H3Cl3/c7-4-2-1-3-5(8)6(4)9/h1-3H, purity 99%
Compound 85: 2-methylnaphthalene, C11H10, InChI=1S/C11H10/c1-9-6-7-10-4-2-3-5-11(10)8-9/h2-8H,1H3, purity 99%
Compound 86: 1-methylnaphthalene, C11H10, InChI=1S/C11H10/c1-9-5-4-7-10-6-2-3-8-11(9)10/h2-8H,1H3, purity 99%
Compound 87: propan-2-ol, C3H8O, InChI=1S/C3H8O/c1-3(2)4/h3-4H,1-2H3, purity 99%
Compound 88: 2-methylpropan-2-ol, C4H10O, InChI=1S/C4H10O/c1-4(2,3)5/h5H,1-3H3, purity 99%
Compound 89: 2-propyn-1-ol, C3H4O, InChI=1S/C3H4O/c1-2-3-4/h1,4H,3H2, purity 99%
Compound 90: 2-methoxyethan-1-ol, C3H8O2, InChI=1S/C3H8O2/c1-5-3-2-4/h4H,2-3H2,1H3, purity 99%
Compound 91: 2-butoxyethan-1-ol, C6H14O2, InChI=1S/C6H14O2/c1-2-3-5-8-6-4-7/h7H,2-6H2,1H3, purity 99%
Compound 92: 2-ethyl-1-hexanol, C8H18O, InChI=1S/C8H18O/c1-3-5-6-8(4-2)7-9/h8-9H,3-7H2,1-2H3, purity 99%
Compound 93: (chloromethyl)benzene, C7H7Cl, InChI=1S/C7H7Cl/c8-6-7-4-2-1-3-5-7/h1-5H,6H2, purity 99%
Compound 94: tribromomethane, CHBr3, InChI=1S/CHBr3/c2-1(3)4/h1H, purity 99%

System: dichlorodifluoromethane + water; phases: Liquid, Gas
Fixed: Mole fraction of dichlorodifluoromethane = 0
Property: Henry's Law constant (molality scale), kPa*kg/mol of dichlorodifluoromethane (Liquid); method: Chromatography
Temperature, K	Henry's Law constant (molality scale), kPa*kg/mol of dichlorodifluoromethane	uncertainty
274.15	1663	499
313.15	40017	12005
326.15	22620	6786

System: chloromethane + water; phases: Liquid, Gas
Fixed: Mole fraction of chloromethane = 0
Property: Henry's Law constant (molality scale), kPa*kg/mol of chloromethane (Liquid); method: Chromatography
Temperature, K	Henry's Law constant (molality scale), kPa*kg/mol of chloromethane	uncertainty
274.15	705	212
313.15	1719	516
326.15	2674	802

System: chloroethene + water; phases: Liquid, Gas
Fixed: Mole fraction of chloroethene = 0
Property: Henry's Law constant (molality scale), kPa*kg/mol of chloroethene (Liquid); method: Chromatography
Temperature, K	Henry's Law constant (molality scale), kPa*kg/mol of chloroethene	uncertainty
274.15	1139	342
313.15	4205	1262
326.15	6496	1949

System: bromomethane + water; phases: Liquid, Gas
Fixed: Mole fraction of bromomethane = 0
Property: Henry's Law constant (molality scale), kPa*kg/mol of bromomethane (Liquid); method: Chromatography
Temperature, K	Henry's Law constant (molality scale), kPa*kg/mol of bromomethane	uncertainty
274.15	399	120
313.15	1123	337
326.15	1920	576

System: chloroethane + water; phases: Liquid, Gas
Fixed: Mole fraction of chloroethane = 0
Property: Henry's Law constant (molality scale), kPa*kg/mol of chloroethane (Liquid); method: Chromatography
Temperature, K	Henry's Law constant (molality scale), kPa*kg/mol of chloroethane	uncertainty
274.15	522	157
313.15	1946	584
326.15	2944	883

System: trichlorofluoromethane + water; phases: Liquid, Gas
Fixed: Mole fraction of trichlorofluoromethane = 0
Property: Henry's Law constant (molality scale), kPa*kg/mol of trichlorofluoromethane (Liquid); method: Chromatography
Temperature, K	Henry's Law constant (molality scale), kPa*kg/mol of trichlorofluoromethane	uncertainty
274.15	987	296
313.15	8107	2432
326.15	15551	4665

System: diethyl ether + water; phases: Liquid, Gas
Fixed: Mole fraction of diethyl ether = 0
Property: Henry's Law constant (molality scale), kPa*kg/mol of diethyl ether (Liquid); method: Chromatography
Temperature, K	Henry's Law constant (molality scale), kPa*kg/mol of diethyl ether	uncertainty
274.15	16	5
294.65	68	20
294.65	70	21
296.15	77	23
310.15	206	62
320.15	427	128
331.15	803	241

System: 1,1,2-trichloro-1,2,2-trifluoroethane + water; phases: Liquid, Gas
Fixed: Mole fraction of 1,1,2-trichloro-1,2,2-trifluoroethane = 0
Property: Henry's Law constant (molality scale), kPa*kg/mol of 1,1,2-trichloro-1,2,2-trifluoroethane (Liquid); method: Chromatography
Temperature, K	Henry's Law constant (molality scale), kPa*kg/mol of 1,1,2-trichloro-1,2,2-trifluoroethane	uncertainty
274.15	1067	320
313.15	16824	5047
326.15	20076	6023

System: acetone + water; phases: Liquid, Gas
Fixed: Mole fraction of acetone = 0
Property: Henry's Law constant (molality scale), kPa*kg/mol of acetone (Liquid); method: Chromatography
Temperature, K	Henry's Law constant (molality scale), kPa*kg/mol of acetone	uncertainty
274.15	0.231	0.092
294.65	1.442	0.577
294.65	1.263	0.505
296.15	1.133	0.453
310.15	7.555	3.022
320.15	11.46	4.58
331.15	16.01	6.4
333.15	41.15	16.46

System: 1,1-dichloroethene + water; phases: Liquid, Gas
Fixed: Mole fraction of 1,1-dichloroethene = 0
Property: Henry's Law constant (molality scale), kPa*kg/mol of 1,1-dichloroethene (Liquid); method: Chromatography
Temperature, K	Henry's Law constant (molality scale), kPa*kg/mol of 1,1-dichloroethene	uncertainty
274.15	787.3	236.2
313.15	4464	1339
326.15	10516	3155

System: iodomethane + water; phases: Liquid, Gas
Fixed: Mole fraction of iodomethane = 0
Property: Henry's Law constant (molality scale), kPa*kg/mol of iodomethane (Liquid); method: Chromatography
Temperature, K	Henry's Law constant (molality scale), kPa*kg/mol of iodomethane	uncertainty
274.15	251	75.3
313.15	813.9	244.2
326.15	1563	469

System: 3-chloro-1-propene + water; phases: Liquid, Gas
Fixed: Mole fraction of 3-chloro-1-propene = 0
Property: Henry's Law constant (molality scale), kPa*kg/mol of 3-chloro-1-propene (Liquid); method: Chromatography
Temperature, K	Henry's Law constant (molality scale), kPa*kg/mol of 3-chloro-1-propene	uncertainty
274.15	254.95	76.49
313.15	1352	406
326.15	3169	951

System: acetonitrile + water; phases: Liquid, Gas
Fixed: Mole fraction of acetonitrile = 0
Property: Henry's Law constant (molality scale), kPa*kg/mol of acetonitrile (Liquid); method: Chromatography
Temperature, K	Henry's Law constant (molality scale), kPa*kg/mol of acetonitrile	uncertainty
274.15	0.21013	0.08405
294.65	1.4114	0.5646
294.65	1.546	0.6184
296.15	1.6992	0.6797
310.15	5.3649	2.146
320.15	12.648	5.059
331.15	6.1692	5

System: methyl ethanoate + water; phases: Liquid, Gas
Fixed: Mole fraction of methyl ethanoate = 0
Property: Henry's Law constant (molality scale), kPa*kg/mol of methyl ethanoate (Liquid); method: Chromatography
Temperature, K	Henry's Law constant (molality scale), kPa*kg/mol of methyl ethanoate	uncertainty
274.15	1.062	0.4248
294.65	5.3344	2.1338
294.65	7.3947	2.9579
296.15	7.5321	3.0128
310.15	34.15	13.66
320.15	52.409	20.964
331.15	83.144	33.258
333.15	124.56	49.82

System: carbon disulfide + water; phases: Liquid, Gas
Fixed: Mole fraction of carbon disulfide = 0
Property: Henry's Law constant (molality scale), kPa*kg/mol of carbon disulfide (Liquid); method: Chromatography
Temperature, K	Henry's Law constant (molality scale), kPa*kg/mol of carbon disulfide	uncertainty
274.15	682.03	204.61
313.15	2926.2	877.9
326.15	5691.2	1707.4

System: dichloromethane + water; phases: Liquid, Gas
Fixed: Mole fraction of dichloromethane = 0
Property: Henry's Law constant (molality scale), kPa*kg/mol of dichloromethane (Liquid); method: Chromatography
Temperature, K	Henry's Law constant (molality scale), kPa*kg/mol of dichloromethane	uncertainty
274.15	85.146	25.544
294.65	222.02	66.61
294.65	214.11	64.23
296.15	250.23	75.07
313.15	522.52	156.76
326.15	685.72	205.72

System: 2-methoxy-2-methylpropane + water; phases: Liquid, Gas
Fixed: Mole fraction of 2-methoxy-2-methylpropane = 0
Property: Henry's Law constant (molality scale), kPa*kg/mol of 2-methoxy-2-methylpropane (Liquid); method: Chromatography
Temperature, K	Henry's Law constant (molality scale), kPa*kg/mol of 2-methoxy-2-methylpropane	uncertainty
274.15	5.5001	3.3001
294.65	52.116	31.27
294.65	41.029	24.617
296.15	58.013	34.808
310.15	59.031	35.419
320.15	367.63	220.58
331.15	1653.4	992

System: acrylonitrile + water; phases: Liquid, Gas
Fixed: Mole fraction of acrylonitrile = 0
Property: Henry's Law constant (molality scale), kPa*kg/mol of acrylonitrile (Liquid); method: Chromatography
Temperature, K	Henry's Law constant (molality scale), kPa*kg/mol of acrylonitrile	uncertainty
274.15	1.2429	0.3729
294.65	5.2308	1.5692
294.65	8.0734	2.422
296.15	9.1868	2.756
310.15	25.299	7.59
320.15	40.028	12.008
331.15	73.904	22.171
333.15	97.824	29.347

System: (E)-1,2-dichloroethene + water; phases: Liquid, Gas
Fixed: Mole fraction of (E)-1,2-dichloroethene = 0
Property: Henry's Law constant (molality scale), kPa*kg/mol of (E)-1,2-dichloroethene (Liquid); method: Chromatography
Temperature, K	Henry's Law constant (molality scale), kPa*kg/mol of (E)-1,2-dichloroethene	uncertainty
274.15	311.4	93.42
294.65	955.82	286.75
294.65	852.5	255.75
296.15	995.13	298.54
313.15	1816.3	544.9
326.15	2900.9	870.3

System: 1,1-dichloroethane + water; phases: Liquid, Gas
Fixed: Mole fraction of 1,1-dichloroethane = 0
Property: Henry's Law constant (molality scale), kPa*kg/mol of 1,1-dichloroethane (Liquid); method: Chromatography
Temperature, K	Henry's Law constant (molality scale), kPa*kg/mol of 1,1-dichloroethane	uncertainty
274.15	187.61	56.28
313.15	952.58	285.77
326.15	1555.84	466.75

System: 2,2-dichloropropane + water; phases: Liquid, Gas
Fixed: Mole fraction of 2,2-dichloropropane = 0
Property: Henry's Law constant (molality scale), kPa*kg/mol of 2,2-dichloropropane (Liquid); method: Chromatography
Temperature, K	Henry's Law constant (molality scale), kPa*kg/mol of 2,2-dichloropropane	uncertainty
274.15	423.34	169.34
313.15	3277.6	1311
326.15	36646	14658

System: propanenitrile + water; phases: Liquid, Gas
Fixed: Mole fraction of propanenitrile = 0
Property: Henry's Law constant (molality scale), kPa*kg/mol of propanenitrile (Liquid); method: Chromatography
Temperature, K	Henry's Law constant (molality scale), kPa*kg/mol of propanenitrile	uncertainty
274.15	0.30245	0.09074
294.65	2.3031	0.6909
294.65	2.1976	0.6593
296.15	2.7792	0.8338
310.15	5.3643	1.6093
320.15	10.973	3.292
331.15	13.997	4.199

System: butanone + water; phases: Liquid, Gas
Fixed: Mole fraction of butanone = 0
Property: Henry's Law constant (molality scale), kPa*kg/mol of butanone (Liquid); method: Chromatography
Temperature, K	Henry's Law constant (molality scale), kPa*kg/mol of butanone	uncertainty
274.15	0.4156	0.12468
294.65	1.7242	0.5173
294.65	2.365	0.7095
296.15	2.6247	0.7874
310.15	8.1284	2.4385
320.15	15.283	4.585
331.15	43.902	13.171
333.15	61.959	18.588

System: (Z)-1,2-dichloroethene + water; phases: Liquid, Gas
Fixed: Mole fraction of (Z)-1,2-dichloroethene = 0
Property: Henry's Law constant (molality scale), kPa*kg/mol of (Z)-1,2-dichloroethene (Liquid); method: Chromatography
Temperature, K	Henry's Law constant (molality scale), kPa*kg/mol of (Z)-1,2-dichloroethene	uncertainty
274.15	131.11	39.33
294.65	316.64	94.99
294.65	329.53	98.86
296.15	404.95	121.49
313.15	635.73	190.72
326.15	1112.4	333.7

System: isopropenylnitrile + water; phases: Liquid, Gas
Fixed: Mole fraction of isopropenylnitrile = 0
Property: Henry's Law constant (molality scale), kPa*kg/mol of isopropenylnitrile (Liquid); method: Chromatography
Temperature, K	Henry's Law constant (molality scale), kPa*kg/mol of isopropenylnitrile	uncertainty
274.15	2.9211	1.1684
294.65	14.671	5.868
294.65	16.775	6.71
296.15	16.674	6.67
310.15	50.895	20.358
320.15	68.516	27.406
331.15	146.59	58.64
333.15	260.7	104.28

System: trichloromethane + water; phases: Liquid, Gas
Fixed: Mole fraction of trichloromethane = 0
Property: Henry's Law constant (molality scale), kPa*kg/mol of trichloromethane (Liquid); method: Chromatography
Temperature, K	Henry's Law constant (molality scale), kPa*kg/mol of trichloromethane	uncertainty
274.15	106.85	32.06
294.65	301.26	90.38
294.65	323.78	97.13
296.15	362.95	108.89
310.15	782.48	234.74
313.15	628.02	188.41
326.15	1165.7	349.7
331.15	1767.4	530.2

System: bromochloromethane + water; phases: Liquid, Gas
Fixed: Mole fraction of bromochloromethane = 0
Property: Henry's Law constant (molality scale), kPa*kg/mol of bromochloromethane (Liquid); method: Chromatography
Temperature, K	Henry's Law constant (molality scale), kPa*kg/mol of bromochloromethane	uncertainty
274.15	50.839	15.252
294.65	120.54	36.16
294.65	123.17	36.95
296.15	125.81	37.74
310.15	258.65	77.6
320.15	479.08	143.72
331.15	795.18	238.55

System: cyclohexane + water; phases: Liquid, Gas
Fixed: Mole fraction of cyclohexane = 0
Property: Henry's Law constant (molality scale), kPa*kg/mol of cyclohexane (Liquid); method: Chromatography
Temperature, K	Henry's Law constant (molality scale), kPa*kg/mol of cyclohexane	uncertainty
274.15	1011.1	303.3
294.65	2251.8	675.5
294.65	2247.7	674.3
296.15	2247.5	674.3
313.15	9460.4	2838.1
326.15	15748	4724

System: 1,1,1-trichloroethane + water; phases: Liquid, Gas
Fixed: Mole fraction of 1,1,1-trichloroethane = 0
Property: Henry's Law constant (molality scale), kPa*kg/mol of 1,1,1-trichloroethane (Liquid); method: Chromatography
Temperature, K	Henry's Law constant (molality scale), kPa*kg/mol of 1,1,1-trichloroethane	uncertainty
274.15	483.51	145.05
294.65	1408.8	422.6
294.65	1213.3	364
296.15	1430.1	429
313.15	2681.9	804.6
326.15	4505.6	1351.7

System: 1,1-dichloro-1-propene + water; phases: Liquid, Gas
Fixed: Mole fraction of 1,1-dichloro-1-propene = 0
Property: Henry's Law constant (molality scale), kPa*kg/mol of 1,1-dichloro-1-propene (Liquid); method: Chromatography
Temperature, K	Henry's Law constant (molality scale), kPa*kg/mol of 1,1-dichloro-1-propene	uncertainty
274.15	556.06	166.82
294.65	1478.5	443.6
294.65	1359.6	407.9
296.15	1456.2	436.9
313.15	3187.4	956.2
326.15	5570.1	1671

System: tetrachloromethane + water; phases: Liquid, Gas
Fixed: Mole fraction of tetrachloromethane = 0
Property: Henry's Law constant (molality scale), kPa*kg/mol of tetrachloromethane (Liquid); method: Chromatography
Temperature, K	Henry's Law constant (molality scale), kPa*kg/mol of tetrachloromethane	uncertainty
274.15	695.88	208.76
294.65	1773.3	532
294.65	1579.4	473.8
296.15	1693.2	508
313.15	4232.2	1269.7
326.15	7592.2	2277.7

System: 1,2-dichloroethane + water; phases: Liquid, Gas
Fixed: Mole fraction of 1,2-dichloroethane = 0
Property: Henry's Law constant (molality scale), kPa*kg/mol of 1,2-dichloroethane (Liquid); method: Chromatography
Temperature, K	Henry's Law constant (molality scale), kPa*kg/mol of 1,2-dichloroethane	uncertainty
274.15	42.87	12.86
294.65	98.2	29.5
294.65	102.1	30.6
296.15	104.9	31.5
310.15	211.4	63.4
320.15	389	116.7
331.15	516.91	155.07

System: benzene + water; phases: Liquid, Gas
Fixed: Molality, mol/kg of benzene = 0
Property: Henry's Law constant (molality scale), kPa*kg/mol of benzene (Liquid); method: Chromatography
Temperature, K	Henry's Law constant (molality scale), kPa*kg/mol of benzene	uncertainty
274.15	193.03	57.91
294.65	479.7	143.9
294.65	474.2	142.3
296.15	527.6	158.3
310.15	1194.2	358.3
313.15	831.5	249.5
326.15	1408.77	422.63
331.15	2237.4	671.2

System: trichloroethene + water; phases: Liquid, Gas
Fixed: Mole fraction of trichloroethene = 0
Property: Henry's Law constant (molality scale), kPa*kg/mol of trichloroethene (Liquid); method: Chromatography
Temperature, K	Henry's Law constant (molality scale), kPa*kg/mol of trichloroethene	uncertainty
274.15	249.4	74.82
294.65	710.71	213.21
294.65	721.09	216.33
296.15	690.95	207.29
310.15	2113.4	634
313.15	1673	501.9
326.15	2634.6	790.4
331.15	4616.9	1385.1

System: methylcyclohexane + water; phases: Liquid, Gas
Fixed: Molality, mol/kg of methylcyclohexane = 0
Property: Henry's Law constant (molality scale), kPa*kg/mol of methylcyclohexane (Liquid); method: Chromatography
Temperature, K	Henry's Law constant (molality scale), kPa*kg/mol of methylcyclohexane	uncertainty
274.15	1058.99	317.7
294.65	2352.82	705.85
294.65	2300.93	690.28
296.15	2006.35	601.91
313.15	9436.8	2831
326.15	15575.7	4672.7

System: 1,2-dichloropropane + water; phases: Liquid, Gas
Fixed: Mole fraction of 1,2-dichloropropane = 0
Property: Henry's Law constant (molality scale), kPa*kg/mol of 1,2-dichloropropane (Liquid); method: Chromatography
Temperature, K	Henry's Law constant (molality scale), kPa*kg/mol of 1,2-dichloropropane	uncertainty
274.15	70.68	21.2
294.65	216.65	65
294.65	197.51	59.25
296.15	224.97	67.49
310.15	417.7	125.3
326.15	698.9	209.7
331.15	1211.6	363.5

System: methyl methacrylate + water; phases: Liquid, Gas
Fixed: Mole fraction of methyl methacrylate = 0
Property: Henry's Law constant (molality scale), kPa*kg/mol of methyl methacrylate (Liquid); method: Chromatography
Temperature, K	Henry's Law constant (molality scale), kPa*kg/mol of methyl methacrylate	uncertainty
274.15	2.574	0.7722
294.65	24.203	7.261
294.65	12.663	3.799
296.15	24.542	7.363
310.15	85.121	25.536
320.15	132.13	39.64
331.15	249.98	74.99

System: dibromomethane + water; phases: Liquid, Gas
Fixed: Mole fraction of dibromomethane = 0
Property: Henry's Law constant (molality scale), kPa*kg/mol of dibromomethane (Liquid); method: Chromatography
Temperature, K	Henry's Law constant (molality scale), kPa*kg/mol of dibromomethane	uncertainty
274.15	24.022	7.2066
294.65	67.53	20.259
294.65	64.694	19.408
296.15	72.877	21.863
310.15	154.296	46.289
320.15	277.51	83.25
331.15	444.06	133.22

System: bromodichloromethane + water; phases: Liquid, Gas
Fixed: Mole fraction of bromodichloromethane = 0
Property: Henry's Law constant (molality scale), kPa*kg/mol of bromodichloromethane (Liquid); method: Chromatography
Temperature, K	Henry's Law constant (molality scale), kPa*kg/mol of bromodichloromethane	uncertainty
274.15	60.508	18.152
294.65	165.43	49.63
294.65	161.51	48.45
296.15	171.51	51.45
310.15	346.63	103.99
331.15	972.6	291.78

System: 1,4-dioxane + water; phases: Liquid, Gas
Fixed: Mole fraction of 1,4-dioxane = 0
Property: Henry's Law constant (molality scale), kPa*kg/mol of 1,4-dioxane (Liquid); method: Chromatography
Temperature, K	Henry's Law constant (molality scale), kPa*kg/mol of 1,4-dioxane	uncertainty
274.15	0.062905	0.018872
294.65	0.48165	0.1445
294.65	0.34951	0.10485
296.15	0.41927	0.12578
310.15	0.84044	0.25213
320.15	1.9962	0.5989
331.15	3.9168	1.175

System: 4-methylpentan-2-one + water; phases: Liquid, Gas
Fixed: Mole fraction of 4-methylpentan-2-one = 0
Property: Henry's Law constant (molality scale), kPa*kg/mol of 4-methylpentan-2-one (Liquid); method: Chromatography
Temperature, K	Henry's Law constant (molality scale), kPa*kg/mol of 4-methylpentan-2-one	uncertainty
274.15	0.83358	0.25007
294.65	8.0847	2.4254
294.65	8.2695	2.4809
296.15	9.335	2.8005
310.15	37.243	11.173
320.15	72.455	21.737
331.15	163.71	49.11
333.15	236.27	70.88

System: water + (E)-1,3-dichloro-1-propene; phases: Liquid, Gas
Fixed: Molality, mol/kg of (E)-1,3-dichloro-1-propene = 0
Property: Henry's Law constant (molality scale), kPa*kg/mol of (E)-1,3-dichloro-1-propene (Liquid); method: Chromatography
Temperature, K	Henry's Law constant (molality scale), kPa*kg/mol of (E)-1,3-dichloro-1-propene	uncertainty
274.15	52.93	15.879
294.65	144.46	43.34
294.65	144.05	43.22
296.15	152.65	45.8
310.15	300.3	90.09
331.15	929.15	278.75

System: toluene + water; phases: Liquid, Gas
Fixed: Molality, mol/kg of toluene = 0
Property: Henry's Law constant (molality scale), kPa*kg/mol of toluene (Liquid); method: Chromatography
Temperature, K	Henry's Law constant (molality scale), kPa*kg/mol of toluene	uncertainty
274.15	164.26	49.28
294.65	458.78	137.63
294.65	470.21	141.06
296.15	489.35	146.81
310.15	315.95	94.79
313.15	981.98	294.59
326.15	1835.68	550.7
331.15	3025.01	907.5

System: water + (Z)-1,3-dichloro-1-propene; phases: Liquid, Gas
Fixed: Molality, mol/kg of (Z)-1,3-dichloro-1-propene = 0
Property: Henry's Law constant (molality scale), kPa*kg/mol of (Z)-1,3-dichloro-1-propene (Liquid); method: Chromatography
Temperature, K	Henry's Law constant (molality scale), kPa*kg/mol of (Z)-1,3-dichloro-1-propene	uncertainty
274.15	25.259	7.578
294.65	87.45	26.235
294.65	89.056	26.717
296.15	94.365	28.31
310.15	202.4	60.72
320.15	385.51	115.65
331.15	657.19	197.16

System: 2-hexanone + water; phases: Liquid, Gas
Fixed: Molality, mol/kg of 2-hexanone = 0
Property: Henry's Law constant (molality scale), kPa*kg/mol of 2-hexanone (Liquid); method: Chromatography
Temperature, K	Henry's Law constant (molality scale), kPa*kg/mol of 2-hexanone	uncertainty
274.15	0.55144	0.16543
294.65	4.8855	1.4657
294.65	5.9131	1.7739
296.15	7.0729	2.1219
310.15	17.901	5.37
320.15	48.244	14.473
331.15	121.57	36.47
333.15	136.04	40.81

System: 1,1,2-trichloroethane + water; phases: Liquid, Gas
Fixed: Molality, mol/kg of 1,1,2-trichloroethane = 0
Property: Henry's Law constant (molality scale), kPa*kg/mol of 1,1,2-trichloroethane (Liquid); method: Chromatography
Temperature, K	Henry's Law constant (molality scale), kPa*kg/mol of 1,1,2-trichloroethane	uncertainty
274.15	16.94496	5.08349
294.65	61.9588	18.5876
294.65	60.3687	18.1106
296.15	65.0119	19.5036
310.15	147.609	44.283
320.15	263.346	79.004
331.15	419.08	125.72

System: 1,3-dichloropropane + water; phases: Liquid, Gas
Fixed: Molality, mol/kg of 1,3-dichloropropane = 0
Property: Henry's Law constant (molality scale), kPa*kg/mol of 1,3-dichloropropane (Liquid); method: Chromatography
Temperature, K	Henry's Law constant (molality scale), kPa*kg/mol of 1,3-dichloropropane	uncertainty
274.15	18.76644	5.62993
294.65	64.9729	19.4919
294.65	65.8889	19.7667
296.15	70.6099	21.183
310.15	155.753	46.726
320.15	287.14	86.142
331.15	420.85	126.26

System: tetrachloroethene + water; phases: Liquid, Gas
Fixed: Molality, mol/kg of tetrachloroethene = 0
Property: Henry's Law constant (molality scale), kPa*kg/mol of tetrachloroethene (Liquid); method: Chromatography
Temperature, K	Henry's Law constant (molality scale), kPa*kg/mol of tetrachloroethene	uncertainty
274.15	320.11	128.04
294.65	755.34	302.14
294.65	878.99	351.6
296.15	813.11	325.24
310.15	2465.8	986.3
313.15	2242.8	897.1
326.15	2747	1098.8
331.15	5597.5	2239

System: chlorodibromomethane + water; phases: Liquid, Gas
Fixed: Molality, mol/kg of chlorodibromomethane = 0
Property: Henry's Law constant (molality scale), kPa*kg/mol of chlorodibromomethane (Liquid); method: Chromatography
Temperature, K	Henry's Law constant (molality scale), kPa*kg/mol of chlorodibromomethane	uncertainty
274.15	22.66	6.8
294.65	80.48	24.14
294.65	82.22	24.67
296.15	85.67	25.7
310.15	179.2	53.8
320.15	327.2	98.2
331.15	535.9	160.8

System: 1,2-dibromoethane + water; phases: Liquid, Gas
Fixed: Molality, mol/kg of 1,2-dibromoethane = 0
Property: Henry's Law constant (molality scale), kPa*kg/mol of 1,2-dibromoethane (Liquid); method: Chromatography
Temperature, K	Henry's Law constant (molality scale), kPa*kg/mol of 1,2-dibromoethane	uncertainty
274.15	12.663	3.799
294.65	54.08	16.224
294.65	41.23	12.369
296.15	57.834	17.35
310.15	129.7	38.9
320.15	218.5	65.6
331.15	333.3	100

System: chlorobenzene + water; phases: Liquid, Gas
Fixed: Molality, mol/kg of chlorobenzene = 0
Property: Henry's Law constant (molality scale), kPa*kg/mol of chlorobenzene (Liquid); method: Chromatography
Temperature, K	Henry's Law constant (molality scale), kPa*kg/mol of chlorobenzene	uncertainty
274.15	83.694	25.108
294.65	246.06	73.82
294.65	237.52	71.26
296.15	269.64	80.89
310.15	422.7	126.81
313.15	531.64	159.49
326.15	1045.9	313.8
331.15	1176.2	352.9

System: 1,1,1,2-tetrachloroethane + water; phases: Liquid, Gas
Fixed: Molality, mol/kg of 1,1,1,2-tetrachloroethane = 0
Property: Henry's Law constant (molality scale), kPa*kg/mol of 1,1,1,2-tetrachloroethane (Liquid); method: Chromatography
Temperature, K	Henry's Law constant (molality scale), kPa*kg/mol of 1,1,1,2-tetrachloroethane	uncertainty
274.15	60.254	18.076
294.65	184.41	55.32
294.65	168.09	50.43
296.15	199.49	59.85
310.15	387.52	116.26
326.15	832.03	249.61
331.15	1089.4	326.8

System: ethylbenzene + water; phases: Liquid, Gas
Fixed: Molality, mol/kg of ethylbenzene = 0
Property: Henry's Law constant (molality scale), kPa*kg/mol of ethylbenzene (Liquid); method: Chromatography
Temperature, K	Henry's Law constant (molality scale), kPa*kg/mol of ethylbenzene	uncertainty
274.15	162.03	81.02
294.65	472.47	236.24
294.65	488.42	244.21
296.15	533.03	266.52
310.15	342.67	171.34
313.15	1288.2	644.1
326.15	2315.7	1157.9
331.15	1832.7	916.4

System: 1,3-dimethylbenzene + water; phases: Liquid, Gas
Fixed: Molality, mol/kg of 1,3-dimethylbenzene = 0
Property: Henry's Law constant (molality scale), kPa*kg/mol of 1,3-dimethylbenzene (Liquid); method: Chromatography
Temperature, K	Henry's Law constant (molality scale), kPa*kg/mol of 1,3-dimethylbenzene	uncertainty
274.15	146.96	58.78
294.65	381.29	152.52
294.65	438.72	175.49
296.15	456.99	182.8
310.15	409.23	163.69
313.15	1171.2	468.5
326.15	2092.4	837
331.15	1813.2	725.3

System: 1,4-dimethylbenzene + water; phases: Liquid, Gas
Fixed: Molality, mol/kg of 1,4-dimethylbenzene = 0
Property: Henry's Law constant (molality scale), kPa*kg/mol of 1,4-dimethylbenzene (Liquid); method: Chromatography
Temperature, K	Henry's Law constant (molality scale), kPa*kg/mol of 1,4-dimethylbenzene	uncertainty
274.15	146.96	58.78
294.65	381.29	152.52
294.65	438.72	175.49
296.15	456.99	182.8
310.15	409.23	163.69
313.15	1171.2	468.5
326.15	2092.4	837
331.15	1813.2	725.3

System: styrene + water; phases: Liquid, Gas
Fixed: Molality, mol/kg of styrene = 0
Property: Henry's Law constant (molality scale), kPa*kg/mol of styrene (Liquid); method: Chromatography
Temperature, K	Henry's Law constant (molality scale), kPa*kg/mol of styrene	uncertainty
274.15	62.44	18.73
294.65	195.66	58.7
294.65	195.89	58.77
296.15	223.87	67.16
310.15	382.21	114.66
313.15	506.7	152
326.15	925.2	277.6
331.15	971.6	291.5

System: 1,2-dimethylbenzene + water; phases: Liquid, Gas
Fixed: Molality, mol/kg of 1,2-dimethylbenzene = 0
Property: Henry's Law constant (molality scale), kPa*kg/mol of 1,2-dimethylbenzene (Liquid); method: Chromatography
Temperature, K	Henry's Law constant (molality scale), kPa*kg/mol of 1,2-dimethylbenzene	uncertainty
274.15	96.07	28.82
294.65	281.2	84.36
294.65	291.07	87.32
296.15	317.72	95.32
310.15	321.2	96.36
313.15	781.3	234.4
326.15	1402.6	420.8
331.15	1356.9	407.1

System: isopropylbenzene + water; phases: Liquid, Gas
Fixed: Molality, mol/kg of isopropylbenzene = 0
Property: Henry's Law constant (molality scale), kPa*kg/mol of isopropylbenzene (Liquid); method: Chromatography
Temperature, K	Henry's Law constant (molality scale), kPa*kg/mol of isopropylbenzene	uncertainty
274.15	212.08	63.62
294.65	536.23	160.87
294.65	587.91	176.37
296.15	622.14	186.64
310.15	1380.18	414.05
313.15	1962.7	588.8
326.15	3257.4	977.2
331.15	3127.4	938.2

System: cis-1,4-dichloro-2-butene + water; phases: Liquid, Gas
Fixed: Mole fraction of cis-1,4-dichloro-2-butene = 0
Property: Henry's Law constant (molality scale), kPa*kg/mol of cis-1,4-dichloro-2-butene (Liquid); method: Chromatography
Temperature, K	Henry's Law constant (molality scale), kPa*kg/mol of cis-1,4-dichloro-2-butene	uncertainty
274.15	3.03	2.42
294.65	28.52	22.82
294.65	17.42	13.94
296.15	31.91	25.53
310.15	102.1	81.68
320.15	182.2	145.8
326.15	1383.9	1107.1
331.15	491.7	393.4

System: 1,1,2,2-tetrachloroethane + water; phases: Liquid, Gas
Fixed: Mole fraction of 1,1,2,2-tetrachloroethane = 0
Property: Henry's Law constant (molality scale), kPa*kg/mol of 1,1,2,2-tetrachloroethane (Liquid); method: Chromatography
Temperature, K	Henry's Law constant (molality scale), kPa*kg/mol of 1,1,2,2-tetrachloroethane	uncertainty
274.15	3.6	1.08
294.65	31.21	9.36
294.65	17.95	5.39
296.15	34.4	10.32
310.15	98.98	29.69
320.15	155.6	46.7
331.15	262.1	78.6

System: 1,2,3-trichloropropane + water; phases: Liquid, Gas
Fixed: Mole fraction of 1,2,3-trichloropropane = 0
Property: Henry's Law constant (molality scale), kPa*kg/mol of 1,2,3-trichloropropane (Liquid); method: Chromatography
Temperature, K	Henry's Law constant (molality scale), kPa*kg/mol of 1,2,3-trichloropropane	uncertainty
274.15	2.9789	0.8937
294.65	23.004	6.901
294.65	13.596	4.079
296.15	28.266	8.48
310.15	78.169	23.451
320.15	113.2	34
331.15	207.8	62.3
333.15	370	111

System: propylbenzene + water; phases: Liquid, Gas
Fixed: Mole fraction of propylbenzene = 0
Property: Henry's Law constant (molality scale), kPa*kg/mol of propylbenzene (Liquid); method: Chromatography
Temperature, K	Henry's Law constant (molality scale), kPa*kg/mol of propylbenzene	uncertainty
274.15	182.3395	91.1698
294.65	409.268	204.634
294.65	488.515	244.258
296.15	505.157	252.579
310.15	412.102	206.051
313.15	1904.9	952.5
326.15	3162	1581
331.15	1917.7	958.9

System: bromobenzene + water; phases: Liquid, Gas
Fixed: Mole fraction of bromobenzene = 0
Property: Henry's Law constant (molality scale), kPa*kg/mol of bromobenzene (Liquid); method: Chromatography
Temperature, K	Henry's Law constant (molality scale), kPa*kg/mol of bromobenzene	uncertainty
274.15	56.1468	16.844
294.65	138.057	41.417
294.65	147.02	44.106
296.15	161.188	48.356
310.15	272.89	81.867
320.15	469.7	140.9
331.15	708.1	212.4

System: trans-1,4-dichloro-2-butene + water; phases: Liquid, Gas
Fixed: Mole fraction of trans-1,4-dichloro-2-butene = 0
Property: Henry's Law constant (molality scale), kPa*kg/mol of trans-1,4-dichloro-2-butene (Liquid); method: Chromatography
Temperature, K	Henry's Law constant (molality scale), kPa*kg/mol of trans-1,4-dichloro-2-butene	uncertainty
274.15	3.8953	1.5581
294.65	28.196	11.278
294.65	17.674	7.07
296.15	31.648	12.659
310.15	96.377	38.551
320.15	174.7	69.9
331.15	155.2	62.1

System: 1,3,5-trimethylbenzene + water; phases: Liquid, Gas
Fixed: Mole fraction of 1,3,5-trimethylbenzene = 0
Property: Henry's Law constant (molality scale), kPa*kg/mol of 1,3,5-trimethylbenzene (Liquid); method: Chromatography
Temperature, K	Henry's Law constant (molality scale), kPa*kg/mol of 1,3,5-trimethylbenzene	uncertainty
274.15	114.5682	45.8273
294.65	304.226	121.69
294.65	351.943	140.777
296.15	407.96	163.184
310.15	718.934	287.574
313.15	1331.8	532.7
326.15	2359.9	944
331.15	1832.4	733

System: 2-chlorotoluene + water; phases: Liquid, Gas
Fixed: Mole fraction of 2-chlorotoluene = 0
Property: Henry's Law constant (molality scale), kPa*kg/mol of 2-chlorotoluene (Liquid); method: Chromatography
Temperature, K	Henry's Law constant (molality scale), kPa*kg/mol of 2-chlorotoluene	uncertainty
274.15	90.3843	36.1537
294.65	248.11	99.244
294.65	316.104	126.442
296.15	355.801	142.32
310.15	502.94	201.176
313.15	889.7	355.9
320.15	532.9	213.2
326.15	1276	510.4
331.15	1037	415

System: 4-chlorotoluene + water; phases: Liquid, Gas
Fixed: Mole fraction of 4-chlorotoluene = 0
Property: Henry's Law constant (molality scale), kPa*kg/mol of 4-chlorotoluene (Liquid); method: Chromatography
Temperature, K	Henry's Law constant (molality scale), kPa*kg/mol of 4-chlorotoluene	uncertainty
274.15	85.5559	42.778
294.65	239.576	119.788
294.65	217.429	108.715
296.15	231.59	115.795
310.15	224.028	112.014
313.15	591.1	295.6
326.15	1241.1	620.6
331.15	887.7	443.9

System: (1,1-dimethylethyl)benzene + water; phases: Liquid, Gas
Fixed: Molality, mol/kg of (1,1-dimethylethyl)benzene = 0
Property: Henry's Law constant (molality scale), kPa*kg/mol of (1,1-dimethylethyl)benzene (Liquid); method: Chromatography
Temperature, K	Henry's Law constant (molality scale), kPa*kg/mol of (1,1-dimethylethyl)benzene	uncertainty
274.15	188.5136	75.4054
294.65	447.855	179.142
294.65	554.169	221.668
296.15	562.376	224.95
310.15	1022.463	408.985
313.15	2069.7	827.9
326.15	3328.5	1331.4
331.15	2160.4	864.2

System: (1-methylpropyl)benzene + water; phases: Liquid, Gas
Fixed: Molality, mol/kg of (1-methylpropyl)benzene = 0
Property: Henry's Law constant (molality scale), kPa*kg/mol of (1-methylpropyl)benzene (Liquid); method: Chromatography
Temperature, K	Henry's Law constant (molality scale), kPa*kg/mol of (1-methylpropyl)benzene	uncertainty
274.15	251.3308	125.6654
294.65	526.563	263.282
294.65	631.925	315.963
296.15	634.204	317.102
310.15	1103.531	551.766
313.15	2691.3	1345.7
326.15	4162.5	2081.3
331.15	2310.4	1155.2

System: pentachloroethane + water; phases: Liquid, Gas
Fixed: Mole fraction of pentachloroethane = 0
Property: Henry's Law constant (molality scale), kPa*kg/mol of pentachloroethane (Liquid); method: Chromatography
Temperature, K	Henry's Law constant (molality scale), kPa*kg/mol of pentachloroethane	uncertainty
274.15	43.4482	17.3793
294.65	133.416	53.366
294.65	141.114	56.446
296.15	163.215	65.286
310.15	267.567	107.027
313.15	470.6	188.2
320.15	505	202
326.15	1073.3	429.3
331.15	989	396

System: 1,2,4-trimethylbenzene + water; phases: Liquid, Gas
Fixed: Molality, mol/kg of 1,2,4-trimethylbenzene = 0
Property: Henry's Law constant (molality scale), kPa*kg/mol of 1,2,4-trimethylbenzene (Liquid); method: Chromatography
Temperature, K	Henry's Law constant (molality scale), kPa*kg/mol of 1,2,4-trimethylbenzene	uncertainty
274.15	82.9278	33.1711
294.65	235.208	94.083
294.65	255.282	102.113
296.15	292.209	116.884
310.15	496.99	198.796
313.15	973.6	389.4
326.15	1766	706.4
331.15	1386	554.4

System: 1-(1-methylethyl)-4-methylbenzene + water; phases: Liquid, Gas
Fixed: Mole fraction of 1-(1-methylethyl)-4-methylbenzene = 0
Property: Henry's Law constant (molality scale), kPa*kg/mol of 1-(1-methylethyl)-4-methylbenzene (Liquid); method: Chromatography
Temperature, K	Henry's Law constant (molality scale), kPa*kg/mol of 1-(1-methylethyl)-4-methylbenzene	uncertainty
274.15	156.941	62.7764
294.65	388.685	155.474
294.65	469.079	187.632
296.15	502.336	200.934
310.15	776.712	310.685
313.15	2151.8	860.7
326.15	3439.5	1375.8
331.15	1828.2	731.3

System: 1,3-dichlorobenzene + water; phases: Liquid, Gas
Fixed: Molality, mol/kg of 1,3-dichlorobenzene = 0
Property: Henry's Law constant (molality scale), kPa*kg/mol of 1,3-dichlorobenzene (Liquid); method: Chromatography
Temperature, K	Henry's Law constant (molality scale), kPa*kg/mol of 1,3-dichlorobenzene	uncertainty
274.15	50.318	20.127
294.65	159.57	63.83
294.65	164.26	65.7
296.15	185.43	74.17
310.15	308.67	123.47
313.15	552.01	220.8
320.15	519.4	207.76
326.15	967.07	386.83
331.15	767.98	307.19

System: 1,4-dichlorobenzene + water; phases: Liquid, Gas
Fixed: Molality, mol/kg of 1,4-dichlorobenzene = 0
Property: Henry's Law constant (molality scale), kPa*kg/mol of 1,4-dichlorobenzene (Liquid); method: Chromatography
Temperature, K	Henry's Law constant (molality scale), kPa*kg/mol of 1,4-dichlorobenzene	uncertainty
274.15	52.83	21.132
294.65	135.58	54.23
294.65	149.11	59.64
296.15	160.45	64.18
310.15	262.98	105.19
313.15	476.22	190.49
320.15	450.73	180.29
326.15	803.66	321.46
331.15	686.34	274.54

System: butylbenzene + water; phases: Liquid, Gas
Fixed: Mole fraction of butylbenzene = 0
Property: Henry's Law constant (molality scale), kPa*kg/mol of butylbenzene (Liquid); method: Chromatography
Temperature, K	Henry's Law constant (molality scale), kPa*kg/mol of butylbenzene	uncertainty
274.15	173.62	104.172
294.65	350.78	210.47
294.65	440.13	264.08
296.15	457.63	274.58
310.15	480.81	288.49
313.15	2294.5	1376.7
326.15	3474.38	2084.63
331.15	1282.38	769.43

System: 1,2-dichlorobenzene + water; phases: Liquid, Gas
Fixed: Mole fraction of 1,2-dichlorobenzene = 0
Property: Henry's Law constant (molality scale), kPa*kg/mol of 1,2-dichlorobenzene (Liquid); method: Chromatography
Temperature, K	Henry's Law constant (molality scale), kPa*kg/mol of 1,2-dichlorobenzene	uncertainty
274.15	41.066	12.32
294.65	101.68	30.5
294.65	115.13	34.54
296.15	119.3	35.79
310.15	207.97	62.39
320.15	349.52	104.86
331.15	509.78	152.93

System: acetophenone + water; phases: Liquid, Gas
Fixed: Mole fraction of acetophenone = 0
Property: Henry's Law constant (molality scale), kPa*kg/mol of acetophenone (Liquid); method: Chromatography
Temperature, K	Henry's Law constant (molality scale), kPa*kg/mol of acetophenone	uncertainty
274.15	0.12844	0.03853
294.65	0.88097	0.26429
294.65	0.73799	0.2214
296.15	1.6015	0.4805
310.15	2.4845	0.7454
320.15	4.5991	1.3797
331.15	8.8708	2.6612

System: 1,2-dibromo-3-chloropropane + water; phases: Liquid, Gas
Fixed: Mole fraction of 1,2-dibromo-3-chloropropane = 0
Property: Henry's Law constant (molality scale), kPa*kg/mol of 1,2-dibromo-3-chloropropane (Liquid); method: Chromatography
Temperature, K	Henry's Law constant (molality scale), kPa*kg/mol of 1,2-dibromo-3-chloropropane	uncertainty
274.15	1.2759	0.3828
294.65	7.756	2.3268
294.65	9.3724	2.8117
296.15	11.776	3.533
310.15	28.083	8.425
320.15	49.738	14.921
331.15	101.44	30.43
333.15	133.18	39.95

System: nitrobenzene + water; phases: Liquid, Gas
Fixed: Mole fraction of nitrobenzene = 0
Property: Henry's Law constant (molality scale), kPa*kg/mol of nitrobenzene (Liquid); method: Chromatography
Temperature, K	Henry's Law constant (molality scale), kPa*kg/mol of nitrobenzene	uncertainty
274.15	0.1754	0.0526
294.65	1.0583	0.3175
294.65	1.1111	0.3333
296.15	2.584	0.775
310.15	4.131	1.239
320.15	8.573	2.572
331.15	17.6	5.28

System: 1,2,4-trichlorobenzene + water; phases: Liquid, Gas
Fixed: Molality, mol/kg of 1,2,4-trichlorobenzene = 0
Property: Henry's Law constant (molality scale), kPa*kg/mol of 1,2,4-trichlorobenzene (Liquid); method: Chromatography
Temperature, K	Henry's Law constant (molality scale), kPa*kg/mol of 1,2,4-trichlorobenzene	uncertainty
274.15	26.8931	10.7572
294.65	75.2014	30.0806
294.65	81.3752	32.5501
296.15	83.169	33.268
310.15	148.409	59.364
320.15	259.503	103.801
326.15	729.8	291.92
331.15	424.69	169.88

System: 1,1,2,3,4,4-hexachloro-1,3-butadiene + water; phases: Liquid, Gas
Fixed: Mole fraction of 1,1,2,3,4,4-hexachloro-1,3-butadiene = 0
Property: Henry's Law constant (molality scale), kPa*kg/mol of 1,1,2,3,4,4-hexachloro-1,3-butadiene (Liquid); method: Chromatography
Temperature, K	Henry's Law constant (molality scale), kPa*kg/mol of 1,1,2,3,4,4-hexachloro-1,3-butadiene	uncertainty
274.15	144.5276	86.7166
294.65	267.7009	160.6205
294.65	302.4059	181.4435
296.15	287.169	172.301
310.15	366.197	219.718
313.15	2181.723	1309.034
326.15	3829.43	2297.66

System: naphthalene + water; phases: Liquid, Gas
Fixed: Mole fraction of naphthalene = 0
Property: Henry's Law constant (molality scale), kPa*kg/mol of naphthalene (Liquid); method: Chromatography
Temperature, K	Henry's Law constant (molality scale), kPa*kg/mol of naphthalene	uncertainty
274.15	5.0017	1.5005
294.65	31.7398	9.5219
294.65	17.7906	5.3372
296.15	34.659	10.398
310.15	90.15	27.045
320.15	116.346	34.904
331.15	195.89	58.77
333.15	277.96	83.39

System: 1,2,3-trichlorobenzene + water; phases: Liquid, Gas
Fixed: Mole fraction of 1,2,3-trichlorobenzene = 0
Property: Henry's Law constant (molality scale), kPa*kg/mol of 1,2,3-trichlorobenzene (Liquid); method: Chromatography
Temperature, K	Henry's Law constant (molality scale), kPa*kg/mol of 1,2,3-trichlorobenzene	uncertainty
274.15	17.7515	5.3255
294.65	56.3775	16.9133
294.65	54.7934	16.438
296.15	62.996	18.899
310.15	124.471	37.341
320.15	199.033	59.71
331.15	323.78	97.13

System: 2-methylnaphthalene + water; phases: Liquid, Gas
Fixed: Mole fraction of 2-methylnaphthalene = 0
Property: Henry's Law constant (molality scale), kPa*kg/mol of 2-methylnaphthalene (Liquid); method: Chromatography
Temperature, K	Henry's Law constant (molality scale), kPa*kg/mol of 2-methylnaphthalene	uncertainty
274.15	4.9065	1.472
294.65	31.3643	9.4093
294.65	16.5713	4.9714
296.15	34.973	10.492
310.15	84.366	25.31
320.15	105.971	31.791
331.15	168.79	50.64
333.15	165.62	49.69

System: 1-methylnaphthalene + water; phases: Liquid, Gas
Fixed: Mole fraction of 1-methylnaphthalene = 0
Property: Henry's Law constant (molality scale), kPa*kg/mol of 1-methylnaphthalene (Liquid); method: Chromatography
Temperature, K	Henry's Law constant (molality scale), kPa*kg/mol of 1-methylnaphthalene	uncertainty
274.15	3.7407	1.1222
294.65	23.3517	7.0055
294.65	13.3107	3.9932
296.15	27.754	8.326
310.15	74.015	22.205
320.15	87.941	26.382
331.15	153.2	45.96
333.15	149.51	44.85

System: propan-2-ol + water; phases: Liquid, Gas
Fixed: Mole fraction of propan-2-ol = 0
Property: Henry's Law constant (molality scale), kPa*kg/mol of propan-2-ol (Liquid); method: Chromatography
Temperature, K	Henry's Law constant (molality scale), kPa*kg/mol of propan-2-ol	uncertainty
273.25	0.088	0.0528
298.15	2.1399	1.2839
311.15	1.1935	0.7161
332.15	22.908	13.745

System: 2-methylpropan-2-ol + water; phases: Liquid, Gas
Fixed: Mole fraction of 2-methylpropan-2-ol = 0
Property: Henry's Law constant (molality scale), kPa*kg/mol of 2-methylpropan-2-ol (Liquid); method: Chromatography
Temperature, K	Henry's Law constant (molality scale), kPa*kg/mol of 2-methylpropan-2-ol	uncertainty
273.25	0.055	0.0165
298.15	1.2459	0.3738
311.15	3.1851	0.9555
332.15	6.96	2.088

System: 2-propyn-1-ol + water; phases: Liquid, Gas
Fixed: Mole fraction of 2-propyn-1-ol = 0
Property: Henry's Law constant (molality scale), kPa*kg/mol of 2-propyn-1-ol (Liquid); method: Chromatography
Temperature, K	Henry's Law constant (molality scale), kPa*kg/mol of 2-propyn-1-ol	uncertainty
273.25	0.039	0.0117
298.15	0.2549	0.0765
311.15	0.7542	0.2263
332.15	3.711	1.113

System: 2-methoxyethan-1-ol + water; phases: Liquid, Gas
Fixed: Mole fraction of 2-methoxyethan-1-ol = 0
Property: Henry's Law constant (molality scale), kPa*kg/mol of 2-methoxyethan-1-ol (Liquid); method: Chromatography
Temperature, K	Henry's Law constant (molality scale), kPa*kg/mol of 2-methoxyethan-1-ol	uncertainty
298.15	0.2234	0.067
311.15	0.665	0.1995
332.15	3.281	0.984

System: 2-butoxyethan-1-ol + water; phases: Liquid, Gas
Fixed: Mole fraction of 2-butoxyethan-1-ol = 0
Property: Henry's Law constant (molality scale), kPa*kg/mol of 2-butoxyethan-1-ol (Liquid); method: Chromatography
Temperature, K	Henry's Law constant (molality scale), kPa*kg/mol of 2-butoxyethan-1-ol	uncertainty
298.15	0.2692	0.0808
311.15	0.9038	0.2711
332.15	4.271	1.281

System: 2-ethyl-1-hexanol + water; phases: Liquid, Gas
Fixed: Mole fraction of 2-ethyl-1-hexanol = 0
Property: Henry's Law constant (molality scale), kPa*kg/mol of 2-ethyl-1-hexanol (Liquid); method: Chromatography
Temperature, K	Henry's Law constant (molality scale), kPa*kg/mol of 2-ethyl-1-hexanol	uncertainty
273.25	0.0797	0.0319
298.15	1.905	0.762
311.15	4.0942	1.6377
332.15	100.18	40.072

System: (chloromethyl)benzene + water; phases: Liquid, Gas
Fixed: Mole fraction of (chloromethyl)benzene = 0
Property: Henry's Law constant (molality scale), kPa*kg/mol of (chloromethyl)benzene (Liquid); method: Chromatography
Temperature, K	Henry's Law constant (molality scale), kPa*kg/mol of (chloromethyl)benzene	uncertainty
273.25	7.8136	2.3441
298.15	50.5504	15.1651
311.15	138.805	41.6415

System: tribromomethane + water; phases: Liquid, Gas
Fixed: Mole fraction of tribromomethane = 0
Property: Henry's Law constant (molality scale), kPa*kg/mol of tribromomethane (Liquid); method: Chromatography
Temperature, K	Henry's Law constant (molality scale), kPa*kg/mol of tribromomethane	uncertainty
274.15	7.4676	2.2403
294.65	46.3569	13.9071
294.65	29.9123	8.9737
296.15	50.89	15.267
310.15	119.961	35.988
320.15	199.751	59.925
331.15	327.79	98.34
