Measured thermophysical data. Densities and Viscosities for Binary Liquid Mixtures of Ethanol + 1-Propanol, 1-Butanol, and 1-Pentanol from (293.15 to 328.15) K at 0.1 MPa
Source: J. Chem. Eng. Data, 2012, 10.1021/je300632p
Compound 1: ethanol, C2H6O, InChI=1S/C2H6O/c1-2-3/h3H,2H2,1H3, purity 99.8%
Compound 2: propan-1-ol, C3H8O, InChI=1S/C3H8O/c1-2-3-4/h4H,2-3H2,1H3, purity 99.7%
Compound 3: butan-1-ol, C4H10O, InChI=1S/C4H10O/c1-2-3-4-5/h5H,2-4H2,1H3, purity 99.9%
Compound 4: pentan-1-ol, C5H12O, InChI=1S/C5H12O/c1-2-3-4-5-6/h6H,2-5H2,1H3, purity 99%

System: ethanol + butan-1-ol; phases: Liquid
Fixed: Pressure, kPa = 101
Property: Viscosity, Pa*s (Liquid); method: Falling or rolling sphere viscometry
Temperature, K	Mole fraction of ethanol	Viscosity, Pa*s	uncertainty
293.15	0	0.003066	6.5e-05
293.15	0.1	0.002693	5.7e-05
293.15	0.2	0.002494	5.3e-05
293.15	0.3	0.002242	4.8e-05
293.15	0.4	0.002048	4.4e-05
293.15	0.501	0.001897	4e-05
293.15	0.602	0.001725	3.7e-05
293.15	0.701	0.001574	3.3e-05
293.15	0.801	0.001445	3.1e-05
293.15	0.9	0.001301	2.8e-05
293.15	1	0.001151	2.4e-05
298.15	0	0.002534	5.38e-05
298.15	0.1	0.002376	5.05e-05
298.15	0.2	0.002214	4.7e-05
298.15	0.3	0.001993	4.23e-05
298.15	0.4	0.001826	3.88e-05
298.15	0.501	0.001705	3.62e-05
298.15	0.602	0.00155	3.29e-05
298.15	0.701	0.001414	3.01e-05
298.15	0.801	0.001302	2.77e-05
298.15	0.9	0.00118	2.51e-05
298.15	1	0.001069	2.27e-05
303.15	0	0.002234	4.7e-05
303.15	0.1	0.002103	4.5e-05
303.15	0.2	0.001967	4.2e-05
303.15	0.3	0.001777	3.8e-05
303.15	0.4	0.001633	3.5e-05
303.15	0.501	0.001533	3.3e-05
303.15	0.602	0.001397	3e-05
303.15	0.701	0.001279	2.7e-05
303.15	0.801	0.001184	2.5e-05
303.15	0.9	0.001072	2.3e-05
303.15	1	0.000973	2.1e-05
308.15	0	0.001978	4.2e-05
308.15	0.1	0.001868	4e-05
308.15	0.2	0.001754	3.7e-05
308.15	0.3	0.001591	3.4e-05
308.15	0.4	0.001465	3.1e-05
308.15	0.501	0.001381	2.9e-05
308.15	0.602	0.001262	2.7e-05
308.15	0.701	0.001159	2.5e-05
308.15	0.801	0.001076	2.3e-05
308.15	0.9	0.000977	2.1e-05
308.15	1	0.000888	1.9e-05
313.15	0	0.001756	3.7e-05
313.15	0.1	0.001664	3.5e-05
313.15	0.2	0.001569	3.3e-05
313.15	0.3	0.001427	3e-05
313.15	0.4	0.001318	2.8e-05
313.15	0.501	0.001246	2.6e-05
313.15	0.602	0.001142	2.4e-05
313.15	0.701	0.001052	2.2e-05
313.15	0.801	0.00098	2.1e-05
313.15	0.9	0.000892	1.9e-05
313.15	1	0.000813	1.7e-05
318.15	0	0.001564	3.32e-05
318.15	0.1	0.001487	3.16e-05
318.15	0.2	0.001407	2.99e-05
318.15	0.3	0.001283	2.73e-05
318.15	0.4	0.001189	2.53e-05
318.15	0.501	0.001127	2.4e-05
318.15	0.602	0.001037	2.2e-05
318.15	0.701	0.000957	2.03e-05
318.15	0.801	0.000895	1.9e-05
318.15	0.9	0.000815	1.73e-05
318.15	1	0.000755	1.61e-05
323.15	0	0.001397	3e-05
323.15	0.1	0.001333	2.8e-05
323.15	0.2	0.001265	2.7e-05
323.15	0.3	0.001158	2.5e-05
323.15	0.4	0.001074	2.3e-05
323.15	0.501	0.001024	2.2e-05
323.15	0.602	0.000943	2e-05
323.15	0.701	0.000874	1.9e-05
323.15	0.801	0.000817	1.7e-05
323.15	0.9	0.000748	1.6e-05
323.15	1	0.000684	1.5e-05
328.15	0	0.001252	2.7e-05
328.15	0.1	0.001199	2.5e-05
328.15	0.2	0.001141	2.4e-05
328.15	0.3	0.001047	2.2e-05
328.15	0.4	0.000974	2.1e-05
328.15	0.501	0.00093	2e-05
328.15	0.602	0.00086	1.8e-05
328.15	0.701	0.000798	1.7e-05
328.15	0.801	0.000749	1.6e-05
328.15	0.9	0.000686	1.5e-05
328.15	1	0.00063	1.3e-05

System: ethanol + butan-1-ol; phases: Liquid
Fixed: Pressure, kPa = 101
Property: Mass density, kg/m3 (Liquid); method: Vibrating tube method
Temperature, K	Mole fraction of ethanol	Mass density, kg/m3	uncertainty
293.15	0	809.02	0.12
293.15	0.1	807.8	0.12
293.15	0.2	806.38	0.12
293.15	0.3	804.85	0.12
293.15	0.4	803.63	0.12
293.15	0.501	801.61	0.12
293.15	0.602	799.54	0.12
293.15	0.701	797.38	0.12
293.15	0.801	795.11	0.12
293.15	0.9	792.58	0.12
293.15	1	790.13	0.12
298.15	0	805.24	0.12
298.15	0.1	803.98	0.12
298.15	0.2	802.53	0.12
298.15	0.3	800.97	0.12
298.15	0.4	799.71	0.12
298.15	0.501	797.65	0.12
298.15	0.602	795.54	0.12
298.15	0.701	793.33	0.12
298.15	0.801	790.98	0.12
298.15	0.9	788.39	0.12
298.15	1	785.86	0.13
303.15	0	801.42	0.12
303.15	0.1	800.13	0.12
303.15	0.2	798.65	0.12
303.15	0.3	797.06	0.12
303.15	0.4	795.75	0.12
303.15	0.501	793.66	0.12
303.15	0.602	791.5	0.12
303.15	0.701	789.23	0.12
303.15	0.801	786.82	0.12
303.15	0.9	784.17	0.13
303.15	1	781.56	0.13
308.15	0	797.57	0.12
308.15	0.1	796.25	0.12
308.15	0.2	794.74	0.12
308.15	0.3	793.12	0.12
308.15	0.4	791.76	0.12
308.15	0.501	789.63	0.12
308.15	0.602	787.42	0.12
308.15	0.701	785.1	0.13
308.15	0.801	782.64	0.13
308.15	0.9	779.92	0.13
308.15	1	777.23	0.13
313.15	0	793.68	0.12
313.15	0.1	792.33	0.12
313.15	0.2	790.79	0.12
313.15	0.3	789.13	0.12
313.15	0.4	787.74	0.12
313.15	0.501	785.57	0.12
313.15	0.602	783.31	0.13
313.15	0.701	780.94	0.13
313.15	0.801	778.41	0.13
313.15	0.9	775.63	0.13
313.15	1	772.86	0.13
318.15	0	789.75	0.12
318.15	0.1	788.37	0.12
318.15	0.2	786.8	0.12
318.15	0.3	785.11	0.12
318.15	0.4	783.67	0.12
318.15	0.501	781.46	0.13
318.15	0.602	779.15	0.13
318.15	0.701	776.73	0.13
318.15	0.801	774.14	0.13
318.15	0.9	771.28	0.13
318.15	1	768.44	0.13
323.15	0	785.78	0.12
323.15	0.1	784.36	0.12
323.15	0.2	782.76	0.12
323.15	0.3	781.03	0.13
323.15	0.4	779.54	0.13
323.15	0.501	777.29	0.13
323.15	0.602	774.95	0.13
323.15	0.701	772.47	0.13
323.15	0.801	769.82	0.13
323.15	0.9	766.89	0.13
323.15	1	763.97	0.13
328.15	0	781.75	0.12
328.15	0.1	780.31	0.12
328.15	0.2	778.67	0.13
328.15	0.3	776.91	0.13
328.15	0.4	775.38	0.13
328.15	0.501	773.09	0.13
328.15	0.602	770.69	0.13
328.15	0.701	768.15	0.13
328.15	0.801	765.44	0.13
328.15	0.9	762.45	0.13
328.15	1	759.44	0.13

System: ethanol + pentan-1-ol; phases: Liquid
Fixed: Pressure, kPa = 101
Property: Viscosity, Pa*s (Liquid); method: Falling or rolling sphere viscometry
Temperature, K	Mole fraction of ethanol	Viscosity, Pa*s	uncertainty
293.15	0	0.003939	3.6e-05
293.15	0.101	0.003557	3.2e-05
293.15	0.2	0.003218	2.8e-05
293.15	0.3	0.002884	2.5e-05
293.15	0.401	0.002584	2.2e-05
293.15	0.5	0.002272	1.9e-05
293.15	0.6	0.002025	1.7e-05
293.15	0.7	0.001784	1.6e-05
293.15	0.801	0.001551	1.4e-05
293.15	0.901	0.001349	1.3e-05
293.15	1	0.001151	1.2e-05
298.15	0	0.003412	3.2e-05
298.15	0.101	0.003098	2.8e-05
298.15	0.2	0.002818	2.5e-05
298.15	0.3	0.002541	2.2e-05
298.15	0.401	0.002288	2e-05
298.15	0.5	0.002021	1.8e-05
298.15	0.6	0.00181	1.6e-05
298.15	0.7	0.001603	1.4e-05
298.15	0.801	0.001399	1.3e-05
298.15	0.901	0.001222	1.2e-05
298.15	1	0.001069	1.1e-05
303.15	0	0.002971	2.8e-05
303.15	0.101	0.002713	2.5e-05
303.15	0.2	0.00248	2.2e-05
303.15	0.3	0.002249	2e-05
303.15	0.401	0.002034	1.8e-05
303.15	0.5	0.001805	1.6e-05
303.15	0.6	0.001624	1.5e-05
303.15	0.7	0.001444	1.3e-05
303.15	0.801	0.001265	1.2e-05
303.15	0.901	0.001109	1.1e-05
303.15	1	0.000973	1.1e-05
308.15	0	0.002599	2.4e-05
308.15	0.101	0.002385	2.2e-05
308.15	0.2	0.002192	2e-05
308.15	0.3	0.001997	1.8e-05
308.15	0.401	0.001814	1.6e-05
308.15	0.5	0.001617	1.5e-05
308.15	0.6	0.001461	1.4e-05
308.15	0.7	0.001304	1.3e-05
308.15	0.801	0.001147	1.2e-05
308.15	0.901	0.00101	1.1e-05
308.15	1	0.000888	1e-05
313.15	0	0.002283	2.1e-05
313.15	0.101	0.002105	2e-05
313.15	0.2	0.001943	1.8e-05
313.15	0.3	0.001779	1.6e-05
313.15	0.401	0.001623	1.5e-05
313.15	0.5	0.001452	1.4e-05
313.15	0.6	0.001317	1.3e-05
313.15	0.7	0.001181	1.2e-05
313.15	0.801	0.001042	1.1e-05
313.15	0.901	0.000921	1e-05
313.15	1	0.000813	1e-05
318.15	0	0.002014	1.9e-05
318.15	0.101	0.001865	1.8e-05
318.15	0.2	0.001728	1.6e-05
318.15	0.3	0.00159	1.5e-05
318.15	0.401	0.001455	1.4e-05
318.15	0.5	0.001308	1.3e-05
318.15	0.6	0.001192	1.2e-05
318.15	0.7	0.001072	1.1e-05
318.15	0.801	0.000949	1.1e-05
318.15	0.901	0.000841	1e-05
318.15	1	0.000755	1e-05
323.15	0	0.001784	1.7e-05
323.15	0.101	0.001658	1.6e-05
323.15	0.2	0.001543	1.5e-05
323.15	0.3	0.001426	1.4e-05
323.15	0.401	0.00131	1.3e-05
323.15	0.5	0.001181	1.2e-05
323.15	0.6	0.00108	1.1e-05
323.15	0.7	0.000975	1.1e-05
323.15	0.801	0.000866	1e-05
323.15	0.901	0.000771	1e-05
323.15	1	0.000684	9e-06
328.15	0	0.001586	1.6e-05
328.15	0.101	0.00148	1.5e-05
328.15	0.2	0.001382	1.4e-05
328.15	0.3	0.001283	1.3e-05
328.15	0.401	0.001182	1.2e-05
328.15	0.5	0.00107	1.2e-05
328.15	0.6	0.000982	1.1e-05
328.15	0.7	0.000889	1e-05
328.15	0.801	0.000792	1e-05
328.15	0.901	0.000707	1e-05
328.15	1	0.00063	9e-06

System: ethanol + pentan-1-ol; phases: Liquid
Fixed: Pressure, kPa = 101
Property: Mass density, kg/m3 (Liquid); method: Vibrating tube method
Temperature, K	Mole fraction of ethanol	Mass density, kg/m3	uncertainty
293.15	0	814.16	0.24
293.15	0.101	812.81	0.21
293.15	0.2	811.19	0.2
293.15	0.3	809.41	0.18
293.15	0.401	807.59	0.17
293.15	0.5	805.44	0.15
293.15	0.6	803.06	0.14
293.15	0.7	800.17	0.14
293.15	0.801	797.32	0.13
293.15	0.901	793.6	0.13
293.15	1	790.13	0.12
298.15	0	810.52	0.24
298.15	0.101	809.14	0.22
298.15	0.2	807.5	0.2
298.15	0.3	805.67	0.18
298.15	0.401	803.79	0.17
298.15	0.5	801.6	0.16
298.15	0.6	799.16	0.15
298.15	0.7	796.21	0.14
298.15	0.801	793.25	0.13
298.15	0.901	789.45	0.13
298.15	1	785.86	0.13
303.15	0	806.84	0.24
303.15	0.101	805.44	0.22
303.15	0.2	803.76	0.2
303.15	0.3	801.9	0.18
303.15	0.401	799.97	0.17
303.15	0.5	797.73	0.16
303.15	0.6	795.24	0.15
303.15	0.7	792.21	0.14
303.15	0.801	789.17	0.13
303.15	0.901	785.28	0.13
303.15	1	781.56	0.13
308.15	0	803.14	0.24
308.15	0.101	801.71	0.22
308.15	0.2	800	0.2
308.15	0.3	798.1	0.18
308.15	0.401	796.12	0.17
308.15	0.5	793.83	0.16
308.15	0.6	791.27	0.15
308.15	0.7	788.18	0.14
308.15	0.801	785.06	0.13
308.15	0.901	781.06	0.13
308.15	1	777.23	0.13
313.15	0	799.42	0.24
313.15	0.101	797.95	0.22
313.15	0.2	796.2	0.2
313.15	0.3	794.26	0.18
313.15	0.401	792.24	0.17
313.15	0.5	789.89	0.16
313.15	0.6	787.27	0.15
313.15	0.7	784.11	0.14
313.15	0.801	780.91	0.14
313.15	0.901	776.81	0.13
313.15	1	772.86	0.13
318.15	0	795.64	0.24
318.15	0.101	794.14	0.22
318.15	0.2	792.36	0.2
318.15	0.3	790.38	0.18
318.15	0.401	788.31	0.17
318.15	0.5	785.91	0.16
318.15	0.6	783.23	0.15
318.15	0.7	780	0.14
318.15	0.801	776.71	0.14
318.15	0.901	772.51	0.13
318.15	1	768.44	0.13
323.15	0	791.84	0.24
323.15	0.101	790.29	0.22
323.15	0.2	788.48	0.2
323.15	0.3	786.46	0.19
323.15	0.401	784.34	0.17
323.15	0.5	781.88	0.16
323.15	0.6	779.14	0.15
323.15	0.7	775.83	0.14
323.15	0.801	772.46	0.14
323.15	0.901	768.16	0.13
323.15	1	763.97	0.13
328.15	0	787.98	0.24
328.15	0.101	786.4	0.22
328.15	0.2	784.55	0.2
328.15	0.3	782.49	0.19
328.15	0.401	780.32	0.17
328.15	0.5	777.8	0.16
328.15	0.6	775	0.15
328.15	0.7	771.63	0.15
328.15	0.801	768.16	0.14
328.15	0.901	763.76	0.14
328.15	1	759.44	0.13

System: ethanol + propan-1-ol; phases: Liquid
Fixed: Pressure, kPa = 101
Property: Viscosity, Pa*s (Liquid); method: Falling or rolling sphere viscometry
Temperature, K	Mole fraction of ethanol	Viscosity, Pa*s	uncertainty
293.15	0	0.002195	1.8e-05
293.15	0.1	0.002034	1.7e-05
293.15	0.2	0.00192	1.6e-05
293.15	0.301	0.001825	1.5e-05
293.15	0.4	0.001684	1.5e-05
293.15	0.5	0.001586	1.4e-05
293.15	0.599	0.001505	1.4e-05
293.15	0.701	0.001408	1.3e-05
293.15	0.8	0.001324	1.2e-05
293.15	0.9	0.001242	1.2e-05
293.15	1	0.001151	1.2e-05
298.15	0	0.001902	1.6e-05
298.15	0.1	0.00181	1.5e-05
298.15	0.2	0.001713	1.5e-05
298.15	0.301	0.001632	1.4e-05
298.15	0.4	0.001511	1.4e-05
298.15	0.5	0.001425	1.3e-05
298.15	0.599	0.001355	1.3e-05
298.15	0.701	0.001272	1.2e-05
298.15	0.8	0.001198	1.2e-05
298.15	0.9	0.001127	1.1e-05
298.15	1	0.001069	1.1e-05
303.15	0	0.001694	1.5e-05
303.15	0.1	0.001615	1.4e-05
303.15	0.2	0.001533	1.4e-05
303.15	0.301	0.001464	1.3e-05
303.15	0.4	0.001359	1.3e-05
303.15	0.5	0.001284	1.2e-05
303.15	0.599	0.001225	1.2e-05
303.15	0.701	0.001152	1.2e-05
303.15	0.8	0.001088	1.1e-05
303.15	0.9	0.001024	1.1e-05
303.15	1	0.000973	1.1e-05
308.15	0	0.001511	1.4e-05
308.15	0.1	0.001446	1.3e-05
308.15	0.2	0.001376	1.3e-05
308.15	0.301	0.001317	1.2e-05
308.15	0.4	0.001225	1.2e-05
308.15	0.5	0.00116	1.2e-05
308.15	0.599	0.00111	1.1e-05
308.15	0.701	0.001046	1.1e-05
308.15	0.8	0.000989	1.1e-05
308.15	0.9	0.000933	1e-05
308.15	1	0.000888	1e-05
313.15	0	0.001352	1.3e-05
313.15	0.1	0.001297	1.2e-05
313.15	0.2	0.001239	1.2e-05
313.15	0.301	0.001188	1.2e-05
313.15	0.4	0.001107	1.1e-05
313.15	0.5	0.001051	1.1e-05
313.15	0.599	0.001007	1.1e-05
313.15	0.701	0.000952	1.1e-05
313.15	0.8	0.000901	1e-05
313.15	0.9	0.000852	1e-05
313.15	1	0.000813	1e-05
318.15	0	0.001214	1.2e-05
318.15	0.1	0.001167	1.2e-05
318.15	0.2	0.001118	1.1e-05
318.15	0.301	0.001074	1.1e-05
318.15	0.4	0.001003	1.1e-05
318.15	0.5	0.000954	1.1e-05
318.15	0.599	0.000916	1e-05
318.15	0.701	0.000867	1e-05
318.15	0.8	0.000823	1e-05
318.15	0.9	0.00078	1e-05
318.15	1	0.000755	1e-05
323.15	0	0.001093	1.1e-05
323.15	0.1	0.001053	1.1e-05
323.15	0.2	0.001012	1.1e-05
323.15	0.301	0.000973	1.1e-05
323.15	0.4	0.000911	1e-05
323.15	0.5	0.000867	1e-05
323.15	0.599	0.000835	1e-05
323.15	0.701	0.000792	1e-05
323.15	0.8	0.000753	1e-05
323.15	0.9	0.000715	1e-05
323.15	1	0.000684	9e-06
328.15	0	0.000986	1.1e-05
328.15	0.1	0.000953	1.1e-05
328.15	0.2	0.000919	1e-05
328.15	0.301	0.000884	1e-05
328.15	0.4	0.000829	1e-05
328.15	0.5	0.00079	1e-05
328.15	0.599	0.000763	1e-05
328.15	0.701	0.000725	1e-05
328.15	0.8	0.00069	9e-06
328.15	0.9	0.000657	9e-06
328.15	1	0.00063	9e-06

System: ethanol + propan-1-ol; phases: Liquid
Fixed: Pressure, kPa = 101
Property: Mass density, kg/m3 (Liquid); method: Vibrating tube method
Temperature, K	Mole fraction of ethanol	Mass density, kg/m3	uncertainty
293.15	0	803.58	0.13
293.15	0.1	802.08	0.13
293.15	0.2	800.86	0.13
293.15	0.301	799.68	0.12
293.15	0.4	798.4	0.12
293.15	0.5	797.31	0.12
293.15	0.599	795.87	0.12
293.15	0.701	794.36	0.12
293.15	0.8	792.88	0.12
293.15	0.9	791.44	0.12
293.15	1	790.13	0.12
298.15	0	799.59	0.13
298.15	0.1	798.08	0.13
298.15	0.2	796.82	0.13
298.15	0.301	795.65	0.13
298.15	0.4	794.33	0.13
298.15	0.5	793.22	0.13
298.15	0.599	791.75	0.13
298.15	0.701	790.21	0.13
298.15	0.8	788.69	0.13
298.15	0.9	787.22	0.13
298.15	1	785.86	0.13
303.15	0	795.58	0.13
303.15	0.1	794.05	0.13
303.15	0.2	792.77	0.13
303.15	0.301	791.57	0.13
303.15	0.4	790.22	0.13
303.15	0.5	789.08	0.13
303.15	0.599	787.59	0.13
303.15	0.701	786.02	0.13
303.15	0.8	784.47	0.13
303.15	0.9	782.96	0.13
303.15	1	781.56	0.13
308.15	0	791.53	0.13
308.15	0.1	789.98	0.13
308.15	0.2	788.8	0.13
308.15	0.301	787.45	0.13
308.15	0.4	786.08	0.13
308.15	0.5	784.92	0.13
308.15	0.599	783.4	0.13
308.15	0.701	781.8	0.13
308.15	0.8	780.21	0.13
308.15	0.9	778.67	0.13
308.15	1	777.23	0.13
313.15	0	787.44	0.13
313.15	0.1	785.86	0.13
313.15	0.2	784.66	0.13
313.15	0.301	783.29	0.13
313.15	0.4	781.9	0.13
313.15	0.5	780.71	0.13
313.15	0.599	779.16	0.13
313.15	0.701	777.53	0.13
313.15	0.8	775.91	0.13
313.15	0.9	774.33	0.13
313.15	1	772.86	0.13
318.15	0	783.3	0.13
318.15	0.1	781.7	0.13
318.15	0.2	780.48	0.13
318.15	0.301	779.09	0.13
318.15	0.4	777.68	0.13
318.15	0.5	776.45	0.13
318.15	0.599	774.88	0.13
318.15	0.701	773.22	0.13
318.15	0.8	771.56	0.13
318.15	0.9	769.95	0.13
318.15	1	768.44	0.13
323.15	0	779.11	0.13
323.15	0.1	777.49	0.13
323.15	0.2	776.24	0.13
323.15	0.301	774.83	0.13
323.15	0.4	773.39	0.13
323.15	0.5	772.14	0.13
323.15	0.599	770.54	0.13
323.15	0.701	768.85	0.13
323.15	0.8	767.16	0.13
323.15	0.9	765.52	0.13
323.15	1	763.97	0.13
328.15	0	774.86	0.13
328.15	0.1	773.22	0.13
328.15	0.2	771.95	0.13
328.15	0.301	770.52	0.13
328.15	0.4	769.06	0.13
328.15	0.5	767.78	0.13
328.15	0.599	766.15	0.13
328.15	0.701	764.43	0.13
328.15	0.8	762.71	0.13
328.15	0.9	761.02	0.13
328.15	1	759.44	0.13
