Measured thermophysical data. Vapor Liquid Phase Equilibria and Physical Properties Measurements for Ternary Systems (Methane + Decane + Hexadecane)
Source: J. Chem. Eng. Data, 2012, 10.1021/je300482b
Compound 1: decane, C10H22, InChI=1S/C10H22/c1-3-5-7-9-10-8-6-4-2/h3-10H2,1-2H3, purity 99%
Compound 2: methane, CH4, InChI=1S/CH4/h1H4, purity 99.97%
Compound 3: hexadecane, C16H34, InChI=1S/C16H34/c1-3-5-7-9-11-13-15-16-14-12-10-8-6-4-2/h3-16H2,1-2H3, purity 99%

System: decane + hexadecane; phases: Liquid
Property: Mass density, kg/m3 (Liquid); method: Vibrating tube method
Mole fraction of decane	Temperature, K	Pressure, kPa	Mass density, kg/m3	uncertainty
0.25	295	1000	760.6	0.4
0.25	295	2000	761.3	0.4
0.25	295	3000	762	0.4
0.25	295	4000	762.6	0.4
0.25	295	5000	763.3	0.4
0.25	295	6000	764	0.4
0.25	295	7000	764.6	0.4
0.25	295	8000	765.3	0.4
0.25	295	9000	765.9	0.4
0.25	295	10000	766.6	0.4
0.5	295.3	1000	751	0.4
0.5	295.3	2000	751.7	0.4
0.5	295.3	3000	752.4	0.4
0.5	295.3	4000	753.1	0.4
0.5	295.3	5000	753.8	0.4
0.5	295.3	6000	754.5	0.4
0.5	295.3	7000	755.1	0.4
0.5	295.3	8000	755.8	0.4
0.5	295.3	9000	756.5	0.4
0.5	295.3	10000	757.2	0.4
0.75	295	1000	739.6	0.4
0.75	295	2000	740.4	0.4
0.75	295	3000	741.1	0.4
0.75	295	4000	741.8	0.4
0.75	295	5000	742.5	0.4
0.75	295	6000	743.3	0.4
0.75	295	7000	744	0.4
0.75	295	8000	744.7	0.4
0.75	295	9000	745.4	0.4
0.75	295	10000	746.2	0.4

System: methane + decane + hexadecane; phases: Liquid, Gas
Property: Viscosity, Pa*s (Liquid); method: Moving piston method
Temperature, K	Mole fraction of methane	Mole fraction of decane	Viscosity, Pa*s	uncertainty
294.1	0.109	0.223	0.00214	0.00022
294.4	0.064	0.234	0.00234	0.00024
294.4	0.292	0.531	0.00086	9e-05
294.5	0.052	0.711	0.00122	0.00013
294.5	0.157	0.211	0.00204	0.00021
294.5	0.233	0.384	0.0014	0.00014
294.5	0.296	0.176	0.00144	0.00015
294.5	0.32	0.51	0.0008	8e-05
294.6	0.1	0.675	0.00118	0.00012
294.6	0.293	0.353	0.00118	0.00012
294.7	0.201	0.2	0.00193	0.0002
294.7	0.323	0.338	0.00105	0.00011
294.8	0.268	0.366	0.00125	0.00013
294.8	0.334	0.167	0.0013	0.00014
294.9	0.059	0.47	0.00188	0.00019
294.9	0.112	0.444	0.00169	0.00017
294.9	0.144	0.642	0.00111	0.00011
295	0.179	0.616	0.00104	0.00011
295	0.238	0.191	0.00178	0.00019
295	0.255	0.559	0.00093	9e-05
295.1	0.16	0.42	0.0016	0.00016
295.1	0.223	0.582	0.00097	0.0001
295.1	0.267	0.183	0.00163	0.00017
295.2	0.195	0.402	0.0015	0.00015

System: methane + decane + hexadecane; phases: Liquid, Gas
Property: Vapor or sublimation pressure, kPa (Liquid); method: Ebulliometric method (Recirculating still)
Temperature, K	Mole fraction of methane	Mole fraction of decane	Vapor or sublimation pressure, kPa	uncertainty
294.1	0.109	0.223	2020	220
294.4	0.064	0.234	1050	90
294.4	0.292	0.531	6900	180
294.5	0.052	0.711	930	110
294.5	0.157	0.211	3010	110
294.5	0.233	0.384	5020	130
294.5	0.296	0.176	6940	120
294.5	0.32	0.51	7920	180
294.6	0.1	0.675	1990	110
294.6	0.293	0.353	6860	140
294.7	0.201	0.2	4060	130
294.7	0.323	0.338	7880	180
294.8	0.268	0.366	6020	140
294.8	0.334	0.167	8010	130
294.9	0.059	0.47	1010	90
294.9	0.112	0.444	2040	110
294.9	0.144	0.642	2900	380
295	0.179	0.616	3870	380
295	0.238	0.191	5090	230
295	0.255	0.559	5920	140
295.1	0.16	0.42	3150	110
295.1	0.223	0.582	4980	130
295.1	0.267	0.183	6020	130
295.2	0.195	0.402	4000	110

System: methane + decane + hexadecane; phases: Liquid, Gas
Property: Mass density, kg/m3 (Liquid); method: Vibrating tube method
Temperature, K	Mole fraction of methane	Mole fraction of decane	Mass density, kg/m3	uncertainty
294.1	0.109	0.223	752	2
294.4	0.064	0.234	756	2
294.4	0.292	0.531	707	2
294.5	0.052	0.711	735	2
294.5	0.157	0.211	748	2
294.5	0.233	0.384	729	2
294.5	0.296	0.176	732	2
294.5	0.32	0.51	702	2
294.6	0.1	0.675	730	2
294.6	0.293	0.353	721	2
294.7	0.201	0.2	744	2
294.7	0.323	0.338	717	3
294.8	0.268	0.366	724	2
294.8	0.334	0.167	728	2
294.9	0.059	0.47	746	2
294.9	0.112	0.444	742	3
294.9	0.144	0.642	725	2
295	0.179	0.616	721	2
295	0.238	0.191	739	2
295	0.255	0.559	712	2
295.1	0.16	0.42	737	2
295.1	0.223	0.582	716	2
295.1	0.267	0.183	735	2
295.2	0.195	0.402	733	2

System: methane + decane + hexadecane; phases: Gas, Liquid
Property: Mole fraction of methane (Gas); method: Chromatography
Temperature, K	Mole fraction of methane	Mole fraction of decane	Mole fraction of methane	uncertainty
294.1	0.109	0.223	0.998	0.002
294.4	0.064	0.234	0.998	0.002
294.4	0.292	0.531	0.998	0.002
294.5	0.052	0.711	0.998	0.002
294.5	0.157	0.211	0.998	0.002
294.5	0.233	0.384	0.998	0.002
294.5	0.296	0.176	0.998	0.002
294.5	0.32	0.51	0.998	0.002
294.6	0.1	0.675	0.998	0.002
294.6	0.293	0.353	0.998	0.002
294.7	0.201	0.2	0.998	0.002
294.7	0.323	0.338	0.998	0.002
294.8	0.268	0.366	0.998	0.002
294.8	0.334	0.167	0.998	0.002
294.9	0.059	0.47	0.998	0.002
294.9	0.112	0.444	0.998	0.002
294.9	0.144	0.642	0.998	0.002
295	0.179	0.616	0.998	0.002
295	0.238	0.191	0.998	0.002
295	0.255	0.559	0.998	0.002
295.1	0.16	0.42	0.998	0.002
295.1	0.223	0.582	0.998	0.002
295.1	0.267	0.183	0.998	0.002
295.2	0.195	0.402	0.998	0.002
