Measured thermophysical data. Density, Electrical Conductivity, and Dynamic Viscosity of N-Alkyl-4-methylpyridinium Bis(trifluoromethylsulfonyl)imide
Source: J. Chem. Eng. Data, 2012, 10.1021/je3004645
Compound 1: 1-ethyl-4-methylpyridinium bis((trifluoromethyl)sulfonyl)amide, C10H12F6N2O4S2, InChI=1S/C8H12N.C2F6NO4S2/c1-3-9-6-4-8(2)5-7-9;3-1(4,5)14(10,11)9-15(12,13)2(6,7)8/h4-7H,3H2,1-2H3;/q+1;-1, purity 99%
Compound 2: 1-butyl-4-methylpyridinium bis((trifluoromethyl)sulfonyl)amide, C12H16F6N2O4S2, InChI=1S/C10H16N.C2F6NO4S2/c1-3-4-7-11-8-5-10(2)6-9-11;3-1(4,5)14(10,11)9-15(12,13)2(6,7)8/h5-6,8-9H,3-4,7H2,1-2H3;/q+1;-1, purity 99%

System: 1-ethyl-4-methylpyridinium bis((trifluoromethyl)sulfonyl)amide; phases: Crystal 2, Crystal 1, Air at 1 atmosphere
Property: Triple point temperature, K (Crystal 2); method: DTA
Triple point temperature, K	uncertainty
278.2	0.5

System: 1-ethyl-4-methylpyridinium bis((trifluoromethyl)sulfonyl)amide; phases: Crystal 1, Liquid, Air at 1 atmosphere
Property: Triple point temperature, K (Crystal 1); method: DTA
Triple point temperature, K	uncertainty
291	0.5

System: 1-ethyl-4-methylpyridinium bis((trifluoromethyl)sulfonyl)amide; phases: Glass, Liquid, Air at 1 atmosphere
Property: Triple point temperature, K (Glass); method: DTA
Triple point temperature, K	uncertainty
198.6	3

System: 1-ethyl-4-methylpyridinium bis((trifluoromethyl)sulfonyl)amide; phases: Liquid
Fixed: Pressure, kPa = 101.325
Property: Electrical conductivity, S/m (Liquid); method: Alternating current cell with electrodes
Temperature, K	Electrical conductivity, S/m	uncertainty
283.15	0.424	0.009
288.15	0.525	0.011
293.15	0.638	0.013
298.15	0.763	0.015
303.15	0.901	0.018
308.15	1.05	0.021
313.15	1.208	0.024
318.15	1.378	0.028
323.15	1.554	0.031
328.15	1.75	0.035
333.15	1.955	0.039
338.15	2.17	0.044

System: 1-ethyl-4-methylpyridinium bis((trifluoromethyl)sulfonyl)amide; phases: Liquid
Fixed: Pressure, kPa = 101.325
Property: Viscosity, Pa*s (Liquid); method: Capillary tube (Ostwald; Ubbelohde) method
Temperature, K	Viscosity, Pa*s	uncertainty
298.15	0.03275	0.00069
303.15	0.02731	0.00058
308.15	0.0231	0.00049
313.15	0.01969	0.00042
318.15	0.01695	0.00036
323.15	0.01466	0.00031
328.15	0.01285	0.00027
333.15	0.01134	0.00024
338.15	0.0101	0.00021
343.15	0.00907	0.00019
348.15	0.00819	0.00017
353.15	0.00743	0.00016
358.15	0.00676	0.00014
363.15	0.00619	0.00013

System: 1-ethyl-4-methylpyridinium bis((trifluoromethyl)sulfonyl)amide; phases: Liquid
Fixed: Pressure, kPa = 101.325
Property: Mass density, kg/m3 (Liquid); method: Pycnometric method
Temperature, K	Mass density, kg/m3	uncertainty
283.15	1505.2	0.9
288.15	1501	0.9
293.15	1496.1	0.9
298.15	1492	0.9
303.15	1487.7	0.9
308.15	1483	0.9
313.15	1478.3	0.9
318.15	1473.4	0.9
323.15	1468.8	0.9
328.15	1464.4	0.9
333.15	1459.9	0.9
338.15	1455.1	0.9

System: 1-butyl-4-methylpyridinium bis((trifluoromethyl)sulfonyl)amide; phases: Crystal 3, Crystal 2, Air at 1 atmosphere
Property: Triple point temperature, K (Crystal 3); method: DTA
Triple point temperature, K	uncertainty
235.8	0.5

System: 1-butyl-4-methylpyridinium bis((trifluoromethyl)sulfonyl)amide; phases: Crystal 2, Crystal 1, Air at 1 atmosphere
Property: Triple point temperature, K (Crystal 2); method: DTA
Triple point temperature, K	uncertainty
242.2	0.5

System: 1-butyl-4-methylpyridinium bis((trifluoromethyl)sulfonyl)amide; phases: Glass, Liquid, Air at 1 atmosphere
Property: Triple point temperature, K (Glass); method: DTA
Triple point temperature, K	uncertainty
195	3

System: 1-butyl-4-methylpyridinium bis((trifluoromethyl)sulfonyl)amide; phases: Crystal 1, Liquid, Air at 1 atmosphere
Property: Triple point temperature, K (Crystal 1); method: DTA
Triple point temperature, K	uncertainty
292.4	0.5

System: 1-butyl-4-methylpyridinium bis((trifluoromethyl)sulfonyl)amide; phases: Liquid
Fixed: Pressure, kPa = 101.325
Property: Electrical conductivity, S/m (Liquid); method: Alternating current cell with electrodes
Temperature, K	Electrical conductivity, S/m	uncertainty
278.15	0.124	0.003
283.15	0.166	0.003
288.15	0.215	0.004
293.15	0.273	0.006
298.15	0.341	0.007
303.15	0.419	0.009
308.15	0.509	0.01
313.15	0.6	0.012
318.15	0.702	0.014
323.15	0.817	0.017
328.15	0.941	0.019
333.15	1.075	0.022
338.15	1.207	0.024

System: 1-butyl-4-methylpyridinium bis((trifluoromethyl)sulfonyl)amide; phases: Liquid
Fixed: Pressure, kPa = 101.325
Property: Viscosity, Pa*s (Liquid); method: Capillary tube (Ostwald; Ubbelohde) method
Temperature, K	Viscosity, Pa*s	uncertainty
298.15	0.05514	0.00116
303.15	0.0442	0.00095
308.15	0.03585	0.00077
313.15	0.02961	0.00063
318.15	0.02477	0.00053
323.15	0.02085	0.00044
328.15	0.01786	0.00038
333.15	0.01537	0.00033
338.15	0.01342	0.00028
343.15	0.01165	0.00025
348.15	0.01015	0.00022
353.15	0.00889	0.00019
358.15	0.00794	0.00017

System: 1-butyl-4-methylpyridinium bis((trifluoromethyl)sulfonyl)amide; phases: Liquid
Fixed: Pressure, kPa = 101.325
Property: Mass density, kg/m3 (Liquid); method: Pycnometric method
Temperature, K	Mass density, kg/m3	uncertainty
283.15	1432.8	0.8
288.15	1428.4	0.8
293.15	1423.4	0.8
298.15	1418.7	0.8
303.15	1414	0.8
308.15	1409.3	0.8
313.15	1404.7	0.8
318.15	1400.2	0.8
323.15	1395.8	0.9
328.15	1391.3	0.9
333.15	1386.9	0.9
338.15	1382.5	0.9
