Measured thermophysical data. Binodal Curves and Tie-Lines of Aliphatic Alcohols + Diammonium Hydrogen Citrate + Water Ternary Systems: Measurement and Modeling
Source: J. Chem. Eng. Data, 2012, 10.1021/je3001574
Compound 1: propan-1-ol, C3H8O, InChI=1S/C3H8O/c1-2-3-4/h4H,2-3H2,1H3, purity 99.5%
Compound 2: propan-2-ol, C3H8O, InChI=1S/C3H8O/c1-3(2)4/h3-4H,1-2H3, purity 99.7%
Compound 3: 2-methylpropan-2-ol, C4H10O, InChI=1S/C4H10O/c1-4(2,3)5/h5H,1-3H3, purity 99%
Compound 4: butan-2-ol, C4H10O, InChI=1S/C4H10O/c1-3-4(2)5/h4-5H,3H2,1-2H3, purity 99%
Compound 5: ammonium citrate, dibasic, C6H14N2O7, InChI=1S/C6H8O7.2H3N/c7-3(8)1-6(13,5(11)12)2-4(9)10;;/h13H,1-2H2,(H,7,8)(H,9,10)(H,11,12);2*1H3, purity 99%
Compound 6: water, H2O, InChI=1S/H2O/h1H2, purity 99.8%

System: propan-2-ol + ammonium citrate, dibasic + water; phases: Liquid mixture 1, Liquid mixture 2
Fixed: Temperature, K = 298.15
Fixed: Pressure, kPa = 101
Property: Refractive index (Na D-line) (Liquid mixture 1); method: Standard Abbe refractometry
Mass fraction of propan-2-ol	Refractive index (Na D-line)	uncertainty
0.4749	1.3888	0.0008
0.5048	1.39	0.0008
0.5298	1.3911	0.0008
0.5507	1.3919	0.0008
0.5742	1.3936	0.0008
0.5932	1.3947	0.0008

System: propan-2-ol + ammonium citrate, dibasic + water; phases: Liquid mixture 2, Liquid mixture 1
Fixed: Temperature, K = 298.15
Fixed: Pressure, kPa = 101
Property: Refractive index (Na D-line) (Liquid mixture 2); method: Standard Abbe refractometry
Mass fraction of propan-2-ol	Refractive index (Na D-line)	uncertainty
0.0962	1.4003	0.0008
0.1187	1.3978	0.0008
0.1272	1.3961	0.0008
0.1383	1.3939	0.0008
0.157	1.3926	0.0008
0.177	1.3908	0.0008

System: propan-2-ol + ammonium citrate, dibasic + water; phases: Liquid
Fixed: Pressure, kPa = 101
Fixed: Temperature, K = 298.15
Property: Refractive index (Na D-line) (Liquid); method: Standard Abbe refractometry
Mass fraction of propan-2-ol	Mass fraction of ammonium citrate, dibasic	Refractive index (Na D-line)	uncertainty
0	0.0512	1.3415	0.0008
0.0061	0.0476	1.3413	0.0008
0.012	0.0425	1.3409	0.0008
0.0149	0.0414	1.341	0.0008
0.0197	0.0393	1.3411	0.0008
0.0258	0.0345	1.3409	0.0008
0.0346	0.0326	1.3414	0.0008
0.0401	0.0254	1.3407	0.0008
0.0462	0.0277	1.3416	0.0008
0.0484	0.0221	1.3409	0.0008
0.0554	0.0209	1.3412	0.0008
0.0663	0.0158	1.3416	0.0008
0.0711	0.0134	1.3415	0.0008
0.0737	0.0092	1.3412	0.0008
0.0853	0.0058	1.3417	0.0008
0.0975	0.0033	1.3424	0.0008
0.1011	0	1.3421	0.0008

System: propan-2-ol + ammonium citrate, dibasic + water; phases: Liquid mixture 1, Liquid mixture 2
Fixed: Pressure, kPa = 101
Property: Mass fraction of ammonium citrate, dibasic (Liquid mixture 1); method: Titration method
Temperature, K	Mass fraction of propan-2-ol	Mass fraction of ammonium citrate, dibasic	uncertainty
298.15	0.0849	0.352	0.011
298.15	0.1139	0.31	0.0097
298.15	0.1381	0.274	0.0085
298.15	0.1753	0.2359	0.0074
298.15	0.2147	0.206	0.0064
298.15	0.2557	0.1752	0.0055
298.15	0.3071	0.1466	0.0046
298.15	0.3357	0.1306	0.0041
298.15	0.358	0.1173	0.0037
298.15	0.3748	0.11	0.0035
298.15	0.3892	0.1013	0.0032
298.15	0.4052	0.0935	0.003
298.15	0.4199	0.0865	0.0028
298.15	0.4593	0.0686	0.0022
298.15	0.4884	0.0577	0.0019
308.15	0.1384	0.2593	0.0081
308.15	0.1618	0.2372	0.0074
308.15	0.1757	0.2262	0.007
308.15	0.2356	0.1836	0.0057
308.15	0.3021	0.1442	0.0045
308.15	0.3254	0.1317	0.0041
308.15	0.3446	0.1214	0.0038
308.15	0.3589	0.1131	0.0035
308.15	0.3762	0.1047	0.0033
308.15	0.3864	0.0989	0.0031
308.15	0.3977	0.0942	0.0029
308.15	0.4088	0.089	0.0028
308.15	0.4223	0.0825	0.0026
308.15	0.4316	0.0782	0.0024
308.15	0.4445	0.073	0.0023
308.15	0.4598	0.0657	0.0021
308.15	0.4705	0.0598	0.0019
308.15	0.4933	0.0517	0.0017
308.15	0.5084	0.0451	0.0015

System: propan-2-ol + ammonium citrate, dibasic + water; phases: Liquid mixture 1, Liquid mixture 2
Fixed: Solvent: Amount ratio of component to other component of binary solvent of propan-2-ol = 0.0885
Fixed: Pressure, kPa = 101
Property: Mole fraction of ammonium citrate, dibasic (Liquid mixture 1); method: Titration method
Temperature, K	Mole fraction of ammonium citrate, dibasic	uncertainty
293.15	0.268	0.008
298.15	0.266	0.008
303.15	0.264	0.008
308.15	0.261	0.008
313.15	0.259	0.008
318.15	0.257	0.008
323.15	0.255	0.008
328.15	0.253	0.008

System: propan-2-ol + ammonium citrate, dibasic + water; phases: Liquid mixture 1, Liquid mixture 2
Fixed: Temperature, K = 298.15
Fixed: Pressure, kPa = 101.3
Property: Mass fraction of ammonium citrate, dibasic (Liquid mixture 1); method: Titration method
Property: Mass fraction of ammonium citrate, dibasic (Liquid mixture 2); method: Titration method
Property: Mass fraction of propan-2-ol (Liquid mixture 2); method: Titration method
Mass fraction of propan-2-ol	Mass fraction of ammonium citrate, dibasic	uncertainty	Mass fraction of ammonium citrate, dibasic	uncertainty	Mass fraction of propan-2-ol	uncertainty
0.4749	0.0643	0.0044	0.2395	0.0079	0.177	
0.5048	0.0547	0.0045	0.2613	0.0093	0.157	
0.5298	0.0476	0.0044	0.279	0.01	0.1383	
0.5507	0.0406	0.0043	0.2975	0.0115	0.1272	
0.5742	0.0373	0.0042	0.3123	0.011	0.1187	
0.5932	0.0336	0.0041	0.3393	0.0105	0.0962	

System: propan-1-ol + ammonium citrate, dibasic + water; phases: Liquid mixture 2, Liquid mixture 1
Fixed: Temperature, K = 298.15
Fixed: Pressure, kPa = 101
Property: Refractive index (Na D-line) (Liquid mixture 2); method: Standard Abbe refractometry
Mass fraction of propan-1-ol	Refractive index (Na D-line)	uncertainty
0.0579	1.3995	0.0008
0.062	1.3974	0.0008
0.0657	1.3916	0.0008
0.068	1.3866	0.0008
0.0775	1.3815	0.0008
0.095	1.3786	0.0008

System: propan-1-ol + ammonium citrate, dibasic + water; phases: Liquid mixture 1, Liquid mixture 2
Fixed: Temperature, K = 298.15
Fixed: Pressure, kPa = 101
Property: Refractive index (Na D-line) (Liquid mixture 1); method: Standard Abbe refractometry
Mass fraction of propan-1-ol	Refractive index (Na D-line)	uncertainty
0.5898	1.3922	0.0008
0.632	1.3955	0.0008
0.6676	1.3981	0.0008
0.7005	1.4007	0.0008
0.7198	1.4024	0.0008
0.7391	1.4038	0.0008

System: propan-1-ol + ammonium citrate, dibasic + water; phases: Liquid
Fixed: Pressure, kPa = 101
Fixed: Temperature, K = 298.15
Property: Refractive index (Na D-line) (Liquid); method: Standard Abbe refractometry
Mass fraction of propan-1-ol	Mass fraction of ammonium citrate, dibasic	Refractive index (Na D-line)	uncertainty
0	0.0487	1.3411	0.0008
0.0056	0.0465	1.3412	0.0008
0.0112	0.0414	1.3408	0.0008
0.0143	0.0426	1.3413	0.0008
0.0221	0.0373	1.3411	0.0008
0.0328	0.0323	1.3412	0.0008
0.0345	0.0315	1.3412	0.0008
0.0416	0.0265	1.341	0.0008
0.0454	0.0268	1.3415	0.0008
0.0534	0.0213	1.3412	0.0008
0.062	0.0164	1.3412	0.0008
0.0675	0.0147	1.3414	0.0008
0.0742	0.0092	1.3411	0.0008
0.0782	0.0073	1.3411	0.0008
0.0838	0.005	1.3413	0.0008
0.0921	0.0024	1.3416	0.0008
0.0999	0	1.3418	0.0008

System: propan-1-ol + ammonium citrate, dibasic + water; phases: Liquid mixture 1, Liquid mixture 2
Fixed: Pressure, kPa = 101
Property: Mass fraction of ammonium citrate, dibasic (Liquid mixture 1); method: Titration method
Temperature, K	Mass fraction of propan-1-ol	Mass fraction of ammonium citrate, dibasic	uncertainty
298.15	0.2922	0.0972	0.003
298.15	0.3161	0.0892	0.0028
298.15	0.3376	0.0821	0.0026
298.15	0.356	0.0764	0.0024
298.15	0.3726	0.0714	0.0022
298.15	0.3878	0.0671	0.0021
298.15	0.4055	0.0605	0.0019
298.15	0.448	0.0494	0.0016
298.15	0.4833	0.0416	0.0014
298.15	0.5152	0.0344	0.0013
308.15	0.0797	0.2515	0.0079
308.15	0.1072	0.213	0.0067
308.15	0.1311	0.1889	0.0059
308.15	0.1714	0.1578	0.0049
308.15	0.288	0.096	0.003
308.15	0.3185	0.086	0.0027
308.15	0.3561	0.0742	0.0023
308.15	0.3833	0.0662	0.0021
308.15	0.4056	0.0605	0.0019
308.15	0.4257	0.055	0.0018

System: propan-1-ol + ammonium citrate, dibasic + water; phases: Liquid mixture 1, Liquid mixture 2
Fixed: Solvent: Amount ratio of component to other component of binary solvent of propan-1-ol = 0.0886
Fixed: Pressure, kPa = 101
Property: Mole fraction of ammonium citrate, dibasic (Liquid mixture 1); method: Titration method
Temperature, K	Mole fraction of ammonium citrate, dibasic	uncertainty
293.15	0.227	0.007
298.15	0.227	0.007
303.15	0.227	0.007
308.15	0.227	0.007
313.15	0.227	0.007
318.15	0.227	0.007
323.15	0.219	0.007
328.15	0.21	0.007

System: propan-1-ol + ammonium citrate, dibasic + water; phases: Liquid mixture 2, Liquid mixture 1
Fixed: Temperature, K = 298.15
Fixed: Pressure, kPa = 101.3
Property: Mass fraction of propan-1-ol (Liquid mixture 2); method: Titration method
Property: Mass fraction of ammonium citrate, dibasic (Liquid mixture 1); method: Titration method
Property: Mass fraction of propan-1-ol (Liquid mixture 1); method: Titration method
Mass fraction of ammonium citrate, dibasic	Mass fraction of propan-1-ol	uncertainty	Mass fraction of ammonium citrate, dibasic	uncertainty	Mass fraction of propan-1-ol	uncertainty
0.2118	0.095	0.0048	0.0251	0.0041	0.5898	
0.2375	0.0775	0.0049	0.0213	0.0041	0.632	
0.2716	0.068	0.0045	0.0172	0.0041	0.6676	
0.3012	0.0657	0.0044	0.0144	0.004	0.7005	
0.3367	0.062	0.0044	0.0137	0.004	0.7198	
0.3507	0.0579	0.0043	0.0115	0.004	0.7391	

System: 2-methylpropan-2-ol + ammonium citrate, dibasic + water; phases: Liquid mixture 2, Liquid mixture 1
Fixed: Temperature, K = 298.15
Fixed: Pressure, kPa = 101
Property: Refractive index (Na D-line) (Liquid mixture 2); method: Standard Abbe refractometry
Mass fraction of 2-methylpropan-2-ol	Refractive index (Na D-line)	uncertainty
0.1103	1.3795	0.0008
0.1186	1.3771	0.0008
0.136	1.3756	0.0008
0.1411	1.3736	0.0008
0.163	1.3728	0.0008
0.1806	1.3719	0.0008

System: 2-methylpropan-2-ol + ammonium citrate, dibasic + water; phases: Liquid mixture 1, Liquid mixture 2
Fixed: Temperature, K = 298.15
Fixed: Pressure, kPa = 101
Property: Refractive index (Na D-line) (Liquid mixture 1); method: Standard Abbe refractometry
Mass fraction of 2-methylpropan-2-ol	Refractive index (Na D-line)	uncertainty
0.5414	1.3928	0.0008
0.5749	1.3954	0.0008
0.5989	1.3976	0.0008
0.6189	1.3995	0.0008
0.638	1.4011	0.0008
0.6601	1.4033	0.0008

System: 2-methylpropan-2-ol + ammonium citrate, dibasic + water; phases: Liquid
Fixed: Pressure, kPa = 101
Fixed: Temperature, K = 298.15
Property: Refractive index (Na D-line) (Liquid); method: Standard Abbe refractometry
Mass fraction of 2-methylpropan-2-ol	Mass fraction of ammonium citrate, dibasic	Refractive index (Na D-line)	uncertainty
0	0.0512	1.3415	0.0008
0.0061	0.0476	1.3413	0.0008
0.012	0.0425	1.3409	0.0008
0.0149	0.0414	1.341	0.0008
0.0197	0.0393	1.3411	0.0008
0.0258	0.0345	1.3409	0.0008
0.0346	0.0326	1.3414	0.0008
0.0401	0.0254	1.3407	0.0008
0.0462	0.0277	1.3416	0.0008
0.0484	0.0221	1.3409	0.0008
0.0554	0.0209	1.3412	0.0008
0.0663	0.0158	1.3416	0.0008
0.0711	0.0134	1.3415	0.0008
0.0737	0.0092	1.3412	0.0008
0.0853	0.0058	1.3417	0.0008
0.0975	0.0033	1.3424	0.0008
0.1011	0	1.3421	0.0008

System: 2-methylpropan-2-ol + ammonium citrate, dibasic + water; phases: Liquid mixture 1, Liquid mixture 2
Fixed: Pressure, kPa = 101
Property: Mass fraction of ammonium citrate, dibasic (Liquid mixture 1); method: Titration method
Temperature, K	Mass fraction of 2-methylpropan-2-ol	Mass fraction of ammonium citrate, dibasic	uncertainty
298.15	0.2444	0.0945	0.0029
298.15	0.2756	0.0833	0.0026
298.15	0.3005	0.0767	0.0024
298.15	0.3185	0.0716	0.0022
298.15	0.3361	0.067	0.0021
298.15	0.3458	0.0645	0.002
298.15	0.357	0.0614	0.0019
298.15	0.3841	0.053	0.0017
298.15	0.4112	0.0472	0.0016
298.15	0.4216	0.0452	0.0015
298.15	0.4342	0.0419	0.0014
298.15	0.4585	0.0365	0.0013
298.15	0.4841	0.0313	0.0012
298.15	0.5109	0.0262	0.0011
308.15	0.2105	0.0932	0.0029
308.15	0.2235	0.0885	0.0028
308.15	0.2392	0.0827	0.0026
308.15	0.259	0.0763	0.0024
308.15	0.2753	0.0715	0.0022
308.15	0.2936	0.0662	0.0021
308.15	0.3145	0.0615	0.0019
308.15	0.325	0.0589	0.0019
308.15	0.3366	0.0562	0.0018
308.15	0.3459	0.0543	0.0017
308.15	0.3539	0.0522	0.0017
308.15	0.3676	0.0491	0.0016
308.15	0.3793	0.0468	0.0016
308.15	0.405	0.0417	0.0014
308.15	0.4263	0.0377	0.0013

System: 2-methylpropan-2-ol + ammonium citrate, dibasic + water; phases: Liquid mixture 1, Liquid mixture 2
Fixed: Solvent: Amount ratio of component to other component of binary solvent of 2-methylpropan-2-ol = 0.0887
Fixed: Pressure, kPa = 101
Property: Mole fraction of ammonium citrate, dibasic (Liquid mixture 1); method: Titration method
Temperature, K	Mole fraction of ammonium citrate, dibasic	uncertainty
293.15	0.138	0.004
298.15	0.124	0.004
303.15	0.107	0.003
308.15	0.092	0.003
313.15	0.08	0.003
318.15	0.071	0.002
323.15	0.065	0.002
328.15	0.058	0.002

System: 2-methylpropan-2-ol + ammonium citrate, dibasic + water; phases: Liquid mixture 1, Liquid mixture 2
Fixed: Temperature, K = 298.15
Fixed: Pressure, kPa = 101.3
Property: Mass fraction of ammonium citrate, dibasic (Liquid mixture 1); method: Titration method
Property: Mass fraction of ammonium citrate, dibasic (Liquid mixture 2); method: Titration method
Property: Mass fraction of 2-methylpropan-2-ol (Liquid mixture 2); method: Titration method
Mass fraction of 2-methylpropan-2-ol	Mass fraction of ammonium citrate, dibasic	uncertainty	Mass fraction of ammonium citrate, dibasic	uncertainty	Mass fraction of 2-methylpropan-2-ol	uncertainty
0.5414	0.0238	0.0041	0.1189	0.0052	0.1806	
0.5749	0.0187	0.0041	0.1343	0.0064	0.163	
0.5989	0.0171	0.004	0.1517	0.0059	0.1411	
0.6189	0.0163	0.004	0.1662	0.0084	0.136	
0.638	0.014	0.004	0.1856	0.0087	0.1186	
0.6601	0.0133	0.004	0.2041	0.007	0.1103	

System: butan-2-ol + ammonium citrate, dibasic + water; phases: Liquid mixture 1, Liquid mixture 2
Fixed: Temperature, K = 298.15
Fixed: Pressure, kPa = 101
Property: Refractive index (Na D-line) (Liquid mixture 1); method: Standard Abbe refractometry
Mass fraction of butan-2-ol	Refractive index (Na D-line)	uncertainty
0.7313	1.4125	0.0008
0.7491	1.4141	0.0008
0.7702	1.4161	0.0008
0.7972	1.4186	0.0008
0.8106	1.4198	0.0008

System: butan-2-ol + ammonium citrate, dibasic + water; phases: Liquid mixture 2, Liquid mixture 1
Fixed: Temperature, K = 298.15
Fixed: Pressure, kPa = 101
Property: Refractive index (Na D-line) (Liquid mixture 2); method: Standard Abbe refractometry
Mass fraction of butan-2-ol	Refractive index (Na D-line)	uncertainty
0.0553	1.3712	0.0008
0.069	1.3661	0.0008
0.086	1.3614	0.0008
0.0928	1.3584	0.0008
0.1048	1.355	0.0008

System: butan-2-ol + ammonium citrate, dibasic + water; phases: Liquid
Fixed: Pressure, kPa = 101
Fixed: Temperature, K = 298.15
Property: Refractive index (Na D-line) (Liquid); method: Standard Abbe refractometry
Mass fraction of butan-2-ol	Mass fraction of ammonium citrate, dibasic	Refractive index (Na D-line)	uncertainty
0	0.0531	1.3416	0.0008
0.0046	0.0473	1.341	0.0008
0.0102	0.0405	1.3405	0.0008
0.0141	0.0401	1.3408	0.0008
0.0214	0.0364	1.341	0.0008
0.0245	0.0333	1.3409	0.0008
0.0317	0.0315	1.3413	0.0008
0.0358	0.0313	1.3416	0.0008
0.0431	0.0272	1.3417	0.0008
0.0466	0.0254	1.3418	0.0008
0.0515	0.0221	1.3418	0.0008
0.0563	0.0204	1.342	0.001
0.0585	0.0162	1.3415	0.0008
0.0663	0.0136	1.3418	0.0008
0.0807	0.0083	1.3426	0.0008
0.0853	0.0036	1.3423	0.0008
0.0946	0.0033	1.3431	0.0008
0.0983	0	1.343	0.0008

System: butan-2-ol + ammonium citrate, dibasic + water; phases: Liquid mixture 1, Liquid mixture 2
Fixed: Pressure, kPa = 101
Property: Mass fraction of ammonium citrate, dibasic (Liquid mixture 1); method: Titration method
Temperature, K	Mass fraction of butan-2-ol	Mass fraction of ammonium citrate, dibasic	uncertainty
298.15	0.1024	0.0815	0.0031
298.15	0.105	0.0758	0.0029
298.15	0.1071	0.0716	0.0028
298.15	0.116	0.0555	0.0023
298.15	0.1206	0.0471	0.0021
298.15	0.1257	0.04	0.002
298.15	0.1278	0.0375	0.0019
298.15	0.13	0.0347	0.0019
298.15	0.1318	0.0322	0.0018
298.15	0.1342	0.0294	0.0017
298.15	0.1377	0.0253	0.0016
298.15	0.1435	0.0191	0.0015
298.15	0.1508	0.0139	0.0015
308.15	0.0786	0.1203	0.0043
308.15	0.0807	0.1146	0.0042
308.15	0.0836	0.1068	0.004
308.15	0.0879	0.0941	0.0036
308.15	0.0908	0.0876	0.0033
308.15	0.0962	0.0745	0.0029
308.15	0.0974	0.0719	0.0029
308.15	0.0992	0.0677	0.0027
308.15	0.1019	0.0625	0.0025
308.15	0.1052	0.056	0.0024
308.15	0.1067	0.0532	0.0023
308.15	0.1087	0.0493	0.0022
308.15	0.1134	0.0409	0.0019
308.15	0.1198	0.0309	0.0017
308.15	0.1218	0.0289	0.0014

System: butan-2-ol + ammonium citrate, dibasic + water; phases: Liquid mixture 1, Liquid mixture 2
Fixed: Solvent: Amount ratio of component to other component of binary solvent of butan-2-ol = 0.0884
Fixed: Pressure, kPa = 101
Property: Mole fraction of ammonium citrate, dibasic (Liquid mixture 1); method: Titration method
Temperature, K	Mole fraction of ammonium citrate, dibasic	uncertainty
293.15	0.029	0.001
298.15	0.027	0.001
303.15	0.027	0.001
308.15	0.025	0.001
313.15	0.025	0.001
318.15	0.025	0.001
323.15	0.025	0.001
328.15	0.025	0.001

System: butan-2-ol + ammonium citrate, dibasic + water; phases: Liquid mixture 2, Liquid mixture 1
Fixed: Temperature, K = 298.15
Fixed: Pressure, kPa = 101.3
Property: Mass fraction of butan-2-ol (Liquid mixture 2); method: Titration method
Property: Mass fraction of ammonium citrate, dibasic (Liquid mixture 1); method: Titration method
Property: Mass fraction of butan-2-ol (Liquid mixture 1); method: Titration method
Mass fraction of ammonium citrate, dibasic	Mass fraction of butan-2-ol	uncertainty	Mass fraction of ammonium citrate, dibasic	uncertainty	Mass fraction of butan-2-ol	uncertainty
0.0664	0.1048	0.005	0.0111	0.004	0.7313	
0.0938	0.0928	0.005	0.0095	0.004	0.7491	
0.1155	0.086	0.0049	0.0079	0.004	0.7702	
0.1541	0.069	0.0047	0.0055	0.004	0.7972	
0.1925	0.0553	0.0043	0.0043	0.004	0.8106	
