Measured thermophysical data. Viscosimetric Study of Binary Mixtures Containing Pyridinium-Based Ionic Liquids and Alkanols
Source: J. Chem. Eng. Data, 2012, 10.1021/je300557g
Compound 1: methanol, CH4O, InChI=1S/CH4O/c1-2/h2H,1H3, purity 99.8%
Compound 2: ethanol, C2H6O, InChI=1S/C2H6O/c1-2-3/h3H,2H2,1H3, purity 99.5%
Compound 3: 1-butylpyridinium tetrafluoroborate, C9H14BF4N, InChI=1S/C9H14N.BF4/c1-2-3-7-10-8-5-4-6-9-10;2-1(3,4)5/h4-6,8-9H,2-3,7H2,1H3;/q+1;-1, purity 99%
Compound 4: 1-butyl-3-methylpyridinium tetrafluoroborate, C10H16BF4N, InChI=1S/C10H16N.BF4/c1-3-4-7-11-8-5-6-10(2)9-11;2-1(3,4)5/h5-6,8-9H,3-4,7H2,1-2H3;/q+1;-1, purity 99%
Compound 5: 1-butyl-4-methylpyridinium tetrafluoroborate, C10H16BF4N, InChI=1S/C10H16N.BF4/c1-3-4-7-11-8-5-10(2)6-9-11;2-1(3,4)5/h5-6,8-9H,3-4,7H2,1-2H3;/q+1;-1, purity 99%

System: methanol; phases: Liquid
Fixed: Pressure, kPa = 101.325
Property: Viscosity, Pa*s (Liquid); method: Capillary tube (Ostwald; Ubbelohde) method
Temperature, K	Viscosity, Pa*s	uncertainty
293.15	0.0005833	6.9e-06
303.15	0.000507	6e-06
313.15	0.0004438	5.3e-06
323.15	0.0003873	4.7e-06

System: methanol; phases: Liquid
Fixed: Pressure, kPa = 101.325
Property: Mass density, kg/m3 (Liquid); method: Vibrating tube method
Temperature, K	Mass density, kg/m3	uncertainty
293.15	791.24	0.23
303.15	781.81	0.23
313.15	772.29	0.24
323.15	762.63	0.24

System: ethanol; phases: Liquid
Fixed: Pressure, kPa = 101.325
Property: Viscosity, Pa*s (Liquid); method: Capillary tube (Ostwald; Ubbelohde) method
Temperature, K	Viscosity, Pa*s	uncertainty
293.15	0.00118	1.38e-05
303.15	0.000981	1.15e-05
313.15	0.000822	9.7e-06
323.15	0.0006939	8.3e-06

System: ethanol; phases: Liquid
Fixed: Pressure, kPa = 101.325
Property: Mass density, kg/m3 (Liquid); method: Vibrating tube method
Temperature, K	Mass density, kg/m3	uncertainty
293.15	789.48	0.24
303.15	781.3	0.24
313.15	772.57	0.24
323.15	763.65	0.25

System: 1-butylpyridinium tetrafluoroborate; phases: Liquid
Fixed: Pressure, kPa = 101.325
Property: Viscosity, Pa*s (Liquid); method: Capillary tube (Ostwald; Ubbelohde) method
Temperature, K	Viscosity, Pa*s	uncertainty
293.15	0.22054	0.00567
303.15	0.11952	0.00211
313.15	0.07111	0.000891
323.15	0.045593	0.000539

System: 1-butylpyridinium tetrafluoroborate; phases: Liquid
Fixed: Pressure, kPa = 101.325
Property: Mass density, kg/m3 (Liquid); method: Vibrating tube method
Temperature, K	Mass density, kg/m3	uncertainty
293.15	1217.11	0.42
303.15	1210.83	0.42
313.15	1203.72	0.42
323.15	1196.68	0.41

System: 1-butyl-3-methylpyridinium tetrafluoroborate; phases: Liquid
Fixed: Pressure, kPa = 101.325
Property: Viscosity, Pa*s (Liquid); method: Capillary tube (Ostwald; Ubbelohde) method
Temperature, K	Viscosity, Pa*s	uncertainty
293.15	0.24662	0.00679
303.15	0.12991	0.00242
313.15	0.076457	0.001
323.15	0.048176	0.00057

System: 1-butyl-3-methylpyridinium tetrafluoroborate; phases: Liquid
Fixed: Pressure, kPa = 101.325
Property: Mass density, kg/m3 (Liquid); method: Vibrating tube method
Temperature, K	Mass density, kg/m3	uncertainty
293.15	1185.66	0.4
303.15	1178.86	0.4
313.15	1172.11	0.39
323.15	1165.37	0.39

System: 1-butyl-4-methylpyridinium tetrafluoroborate; phases: Liquid
Fixed: Pressure, kPa = 101.325
Property: Viscosity, Pa*s (Liquid); method: Capillary tube (Ostwald; Ubbelohde) method
Temperature, K	Viscosity, Pa*s	uncertainty
293.15	0.28462	0.00851
303.15	0.14468	0.0029
313.15	0.08553	0.001201
323.15	0.05553	0.000631

System: 1-butyl-4-methylpyridinium tetrafluoroborate; phases: Liquid
Fixed: Pressure, kPa = 101.325
Property: Mass density, kg/m3 (Liquid); method: Vibrating tube method
Temperature, K	Mass density, kg/m3	uncertainty
293.15	1185.92	0.4
303.15	1179.12	0.4
313.15	1172.12	0.39
323.15	1165.52	0.39

System: methanol + 1-butylpyridinium tetrafluoroborate; phases: Liquid
Fixed: Pressure, kPa = 101
Property: Kinematic viscosity, m2/s (Liquid); method: CAPTUB:UFactor:2
Temperature, K	Mole fraction of 1-butylpyridinium tetrafluoroborate	Kinematic viscosity, m2/s	uncertainty
293.15	0.0478	1.076e-06	1.63e-08
293.15	0.0959	1.5545e-06	2.3e-08
293.15	0.1952	2.7872e-06	4.04e-08
293.15	0.2938	4.6206e-06	6.62e-08
293.15	0.3916	7.4047e-06	1.017e-07
293.15	0.4921	1.194e-05	1.6e-07
293.15	0.5949	1.9984e-05	2.63e-07
293.15	0.6989	3.2583e-05	4.28e-07
293.15	0.7972	5.3178e-05	5.9e-07
293.15	0.8478	7.202e-05	1.148e-06
293.15	0.8978	9.6281e-05	2.248e-06
293.15	0.9471	0.00012991	4.29e-06
303.15	0.0478	8.989e-07	1.38e-08
303.15	0.0959	1.2658e-06	1.89e-08
303.15	0.1952	2.2102e-06	3.23e-08
303.15	0.2938	3.5304e-06	5.09e-08
303.15	0.3916	5.6084e-06	7.93e-08
303.15	0.4921	8.7711e-06	1.195e-07
303.15	0.5949	1.4033e-05	1.87e-07
303.15	0.6989	2.2179e-05	2.94e-07
303.15	0.7972	3.4011e-05	4.5e-07
303.15	0.8478	4.4925e-05	5.96e-07
303.15	0.8978	5.7203e-05	6.8e-07
303.15	0.9471	7.3878e-05	1.232e-06
313.15	0.0478	7.444e-07	1.16e-08
313.15	0.0959	1.0296e-06	1.56e-08
313.15	0.1952	1.7472e-06	2.57e-08
313.15	0.2938	2.7319e-06	3.97e-08
313.15	0.3916	4.2903e-06	6.18e-08
313.15	0.4921	6.5622e-06	9.16e-08
313.15	0.5949	1.0256e-05	1.39e-07
313.15	0.6989	1.5648e-05	2.09e-07
313.15	0.7972	2.3052e-05	3.07e-07
313.15	0.8478	2.9678e-05	3.96e-07
313.15	0.8978	3.6783e-05	4.91e-07
313.15	0.9471	4.6112e-05	6.18e-07
323.15	0.0478	6.213e-07	9.9e-09
323.15	0.0959	8.643e-07	1.33e-08
323.15	0.1952	1.4362e-06	2.13e-08
323.15	0.2938	2.2043e-06	3.23e-08
323.15	0.3916	3.4131e-06	4.95e-08
323.15	0.4921	5.1316e-06	7.37e-08
323.15	0.5949	7.6798e-06	1.064e-07
323.15	0.6989	1.1555e-05	1.57e-07
323.15	0.7972	1.652e-05	2.23e-07
323.15	0.8478	2.0707e-05	2.78e-07
323.15	0.8978	2.5098e-05	3.37e-07
323.15	0.9471	3.0604e-05	4.12e-07

System: methanol + 1-butylpyridinium tetrafluoroborate; phases: Liquid
Fixed: Pressure, kPa = 101
Property: Mass density, kg/m3 (Liquid); method: Vibrating tube method
Temperature, K	Mole fraction of 1-butylpyridinium tetrafluoroborate	Mass density, kg/m3	uncertainty
293.15	0.0478	878.25	0.34
293.15	0.0959	940.74	0.29
293.15	0.1952	1026.08	0.25
293.15	0.2938	1080.36	0.24
293.15	0.3916	1117.45	0.25
293.15	0.4921	1145.14	0.26
293.15	0.5949	1166.53	0.29
293.15	0.6989	1183.41	0.31
293.15	0.7972	1196.34	0.35
293.15	0.8478	1202.15	0.36
293.15	0.8978	1207.4	0.38
293.15	0.9471	1212.3	0.4
303.15	0.0478	869.29	0.34
303.15	0.0959	931.43	0.29
303.15	0.1952	1017.92	0.25
303.15	0.2938	1072.63	0.24
303.15	0.3916	1109.94	0.25
303.15	0.4921	1137.76	0.26
303.15	0.5949	1159.2	0.28
303.15	0.6989	1176.16	0.31
303.15	0.7972	1189.23	0.34
303.15	0.8478	1195.1	0.36
303.15	0.8978	1200.46	0.38
303.15	0.9471	1205.38	0.4
313.15	0.0478	860.54	0.34
313.15	0.0959	923.47	0.29
313.15	0.1952	1010.59	0.25
313.15	0.2938	1065.38	0.24
313.15	0.3916	1102.7	0.25
313.15	0.4921	1130.52	0.26
313.15	0.5949	1152.11	0.28
313.15	0.6989	1169.22	0.31
313.15	0.7972	1182.46	0.34
313.15	0.8478	1188.42	0.36
313.15	0.8978	1193.84	0.37
313.15	0.9471	1198.8	0.39
323.15	0.0478	852.41	0.35
323.15	0.0959	916	0.3
323.15	0.1952	1003.55	0.27
323.15	0.2938	1058.43	0.25
323.15	0.3916	1095.78	0.25
323.15	0.4921	1123.61	0.26
323.15	0.5949	1145.11	0.28
323.15	0.6989	1162.18	0.31
323.15	0.7972	1175.36	0.34
323.15	0.8478	1181.32	0.35
323.15	0.8978	1186.75	0.37
323.15	0.9471	1191.71	0.39

System: ethanol + 1-butylpyridinium tetrafluoroborate; phases: Liquid
Fixed: Pressure, kPa = 101
Property: Kinematic viscosity, m2/s (Liquid); method: CAPTUB:UFactor:2
Temperature, K	Mole fraction of 1-butylpyridinium tetrafluoroborate	Kinematic viscosity, m2/s	uncertainty
303.15	0.0482	1.4216e-06	2.14e-08
303.15	0.0945	1.9612e-06	2.91e-08
303.15	0.1932	3.1737e-06	4.63e-08
303.15	0.2702	4.371e-06	6.34e-08
303.15	0.3959	7.1274e-06	9.95e-08
303.15	0.4954	1.0325e-05	1.41e-07
303.15	0.5999	1.5713e-05	2.11e-07
303.15	0.699	2.3633e-05	3.15e-07
303.15	0.7963	3.5834e-05	4.77e-07
303.15	0.8477	4.4775e-05	5.96e-07
303.15	0.8984	5.8349e-05	7.1e-07
303.15	0.9461	7.3676e-05	1.221e-06
313.15	0.0482	1.2945e-06	1.95e-08
313.15	0.0945	1.681e-06	2.5e-08
313.15	0.1932	2.5736e-06	3.78e-08
313.15	0.2702	3.4514e-06	5.04e-08
313.15	0.3959	5.429e-06	7.8e-08
313.15	0.4954	7.6064e-06	1.061e-07
313.15	0.5999	1.1405e-05	1.56e-07
313.15	0.699	1.6477e-05	2.22e-07
313.15	0.7963	2.4054e-05	3.23e-07
313.15	0.8477	2.9492e-05	3.95e-07
313.15	0.8984	3.7331e-05	5e-07
313.15	0.9461	4.5773e-05	6.15e-07
323.15	0.0482	1.1527e-06	1.75e-08
323.15	0.0945	1.4115e-06	2.12e-08
323.15	0.1932	2.0573e-06	3.05e-08
323.15	0.2702	2.7327e-06	4.02e-08
323.15	0.3959	4.2377e-06	6.18e-08
323.15	0.4954	5.942e-06	8.49e-08
323.15	0.5999	8.5476e-06	1.187e-07
323.15	0.699	1.2038e-05	1.65e-07
323.15	0.7963	1.7024e-05	2.31e-07
323.15	0.8477	2.049e-05	2.77e-07
323.15	0.8984	2.5324e-05	3.42e-07
323.15	0.9461	3.0539e-05	4.12e-07

System: ethanol + 1-butylpyridinium tetrafluoroborate; phases: Liquid
Fixed: Pressure, kPa = 101
Property: Mass density, kg/m3 (Liquid); method: Vibrating tube method
Temperature, K	Mole fraction of 1-butylpyridinium tetrafluoroborate	Mass density, kg/m3	uncertainty
303.15	0.0482	843.38	0.32
303.15	0.0945	892.42	0.29
303.15	0.1932	972.49	0.27
303.15	0.2702	1019.05	0.25
303.15	0.3959	1076.24	0.27
303.15	0.4954	1110.49	0.28
303.15	0.5999	1139.33	0.31
303.15	0.699	1161.67	0.33
303.15	0.7963	1179.99	0.36
303.15	0.8477	1188.5	0.37
303.15	0.8984	1196.25	0.39
303.15	0.9461	1203.06	0.4
313.15	0.0482	834.98	0.32
313.15	0.0945	884.28	0.29
313.15	0.1932	964.73	0.27
313.15	0.2702	1011.49	0.25
313.15	0.3959	1068.89	0.27
313.15	0.4954	1103.28	0.28
313.15	0.5999	1132.29	0.31
313.15	0.699	1154.79	0.33
313.15	0.7963	1173.24	0.36
313.15	0.8477	1181.82	0.37
313.15	0.8984	1189.62	0.38
313.15	0.9461	1196.46	0.4
323.15	0.0482	826.69	0.32
323.15	0.0945	876.45	0.3
323.15	0.1932	957.44	0.28
323.15	0.2702	1004.32	0.25
323.15	0.3959	1061.7	0.27
323.15	0.4954	1096.06	0.28
323.15	0.5999	1125.08	0.3
323.15	0.699	1147.65	0.33
323.15	0.7963	1166.21	0.35
323.15	0.8477	1174.82	0.37
323.15	0.8984	1182.65	0.38
323.15	0.9461	1189.47	0.39

System: methanol + 1-butyl-3-methylpyridinium tetrafluoroborate; phases: Liquid
Fixed: Pressure, kPa = 101
Property: Kinematic viscosity, m2/s (Liquid); method: CAPTUB:UFactor:2
Temperature, K	Mole fraction of 1-butyl-3-methylpyridinium tetrafluoroborate	Kinematic viscosity, m2/s	uncertainty
293.15	0.0481	1.0279e-06	1.56e-08
293.15	0.0975	1.449e-06	2.15e-08
293.15	0.1973	2.7171e-06	3.94e-08
293.15	0.3001	4.4529e-06	6.38e-08
293.15	0.4013	7.0253e-06	9.71e-08
293.15	0.4969	1.1979e-05	1.6e-07
293.15	0.5985	1.98e-05	2.61e-07
293.15	0.6972	3.3599e-05	4.42e-07
293.15	0.7942	5.9225e-05	7.21e-07
293.15	0.8427	7.8011e-05	1.391e-06
293.15	0.8978	0.00010956	2.99e-06
293.15	0.9689	0.00017056	7.18e-06
303.15	0.0481	8.949e-07	1.37e-08
303.15	0.0975	1.2159e-06	1.82e-08
303.15	0.1973	2.2036e-06	3.21e-08
303.15	0.3001	3.4406e-06	4.97e-08
303.15	0.4013	5.6353e-06	7.96e-08
303.15	0.4969	9.0438e-06	1.229e-07
303.15	0.5985	1.4488e-05	1.93e-07
303.15	0.6972	2.3139e-05	3.06e-07
303.15	0.7942	3.5299e-05	4.67e-07
303.15	0.8427	4.5943e-05	6.09e-07
303.15	0.8978	6.2765e-05	8.32e-07
303.15	0.9689	9.2996e-05	2.092e-06
313.15	0.0481	7.879e-07	1.22e-08
313.15	0.0975	1.0609e-06	1.6e-08
313.15	0.1973	1.8809e-06	2.76e-08
313.15	0.3001	3.0418e-06	4.4e-08
313.15	0.4013	4.7314e-06	6.8e-08
313.15	0.4969	7.2276e-06	1e-07
313.15	0.5985	1.0794e-05	1.46e-07
313.15	0.6972	1.6943e-05	2.26e-07
313.15	0.7942	2.5101e-05	3.34e-07
313.15	0.8427	3.1203e-05	4.15e-07
313.15	0.8978	4.0335e-05	5.38e-07
313.15	0.9689	5.6485e-05	6.71e-07
323.15	0.0481	7.001e-07	1.09e-08
323.15	0.0975	9.172e-07	1.4e-08
323.15	0.1973	1.6096e-06	2.38e-08
323.15	0.3001	2.5448e-06	3.71e-08
323.15	0.4013	3.9474e-06	5.7e-08
323.15	0.4969	5.6811e-06	8.06e-08
323.15	0.5985	8.3805e-06	1.152e-07
323.15	0.6972	1.2664e-05	1.71e-07
323.15	0.7942	1.7586e-05	2.36e-07
323.15	0.8427	2.1317e-05	2.86e-07
323.15	0.8978	2.6724e-05	3.59e-07
323.15	0.9689	3.6135e-05	4.87e-07

System: methanol + 1-butyl-3-methylpyridinium tetrafluoroborate; phases: Liquid
Fixed: Pressure, kPa = 101
Property: Mass density, kg/m3 (Liquid); method: Vibrating tube method
Temperature, K	Mole fraction of 1-butyl-3-methylpyridinium tetrafluoroborate	Mass density, kg/m3	uncertainty
293.15	0.0481	876.92	0.33
293.15	0.0975	937.91	0.28
293.15	0.1973	1017.57	0.24
293.15	0.3001	1067.85	0.24
293.15	0.4013	1101.07	0.24
293.15	0.4969	1123.81	0.26
293.15	0.5985	1142.18	0.28
293.15	0.6972	1156.2	0.3
293.15	0.7942	1167.41	0.33
293.15	0.8427	1172.3	0.34
293.15	0.8978	1177.37	0.36
293.15	0.9689	1183.27	0.39
303.15	0.0481	868.11	0.33
303.15	0.0975	929.46	0.28
303.15	0.1973	1009.42	0.25
303.15	0.3001	1059.92	0.24
303.15	0.4013	1093.38	0.24
303.15	0.4969	1116.36	0.26
303.15	0.5985	1134.95	0.27
303.15	0.6972	1149.14	0.3
303.15	0.7942	1160.48	0.33
303.15	0.8427	1165.41	0.34
303.15	0.8978	1170.53	0.36
303.15	0.9689	1176.47	0.39
313.15	0.0481	858.9	0.33
313.15	0.0975	920.91	0.28
313.15	0.1973	1001.41	0.25
313.15	0.3001	1052.02	0.24
313.15	0.4013	1085.61	0.24
313.15	0.4969	1108.79	0.25
313.15	0.5985	1127.63	0.27
313.15	0.6972	1142.07	0.3
313.15	0.7942	1153.59	0.32
313.15	0.8427	1158.59	0.34
313.15	0.8978	1163.75	0.36
313.15	0.9689	1169.72	0.38
323.15	0.0481	850	0.34
323.15	0.0975	912.45	0.3
323.15	0.1973	993.31	0.26
323.15	0.3001	1044.13	0.24
323.15	0.4013	1077.93	0.24
323.15	0.4969	1101.32	0.25
323.15	0.5985	1120.38	0.27
323.15	0.6972	1134.99	0.29
323.15	0.7942	1146.64	0.32
323.15	0.8427	1151.69	0.33
323.15	0.8978	1156.91	0.35
323.15	0.9689	1162.95	0.38

System: ethanol + 1-butyl-3-methylpyridinium tetrafluoroborate; phases: Liquid
Fixed: Pressure, kPa = 101
Property: Kinematic viscosity, m2/s (Liquid); method: CAPTUB:UFactor:2
Temperature, K	Mole fraction of 1-butyl-3-methylpyridinium tetrafluoroborate	Kinematic viscosity, m2/s	uncertainty
293.15	0.0521	2.0661e-06	3.05e-08
293.15	0.0964	2.6719e-06	3.92e-08
293.15	0.1964	4.3071e-06	6.24e-08
293.15	0.321	6.8447e-06	9.57e-08
293.15	0.3936	9.2845e-06	1.271e-07
293.15	0.4941	1.4429e-05	1.94e-07
293.15	0.59	2.2068e-05	2.94e-07
293.15	0.691	3.6567e-05	4.84e-07
293.15	0.7952	6.1285e-05	7.84e-07
293.15	0.85	8.3706e-05	1.645e-06
293.15	0.8992	0.00011147	3.11e-06
293.15	0.9477	0.00014977	5.65e-06
303.15	0.0521	1.675e-06	2.5e-08
303.15	0.0964	2.1221e-06	3.13e-08
303.15	0.1964	3.3638e-06	4.9e-08
303.15	0.321	5.1518e-06	7.43e-08
303.15	0.3936	6.8187e-06	9.57e-08
303.15	0.4941	1.035e-05	1.4e-07
303.15	0.59	1.5003e-05	2.02e-07
303.15	0.691	2.3196e-05	3.1e-07
303.15	0.7952	3.6835e-05	4.91e-07
303.15	0.85	4.8647e-05	6.49e-07
303.15	0.8992	6.2496e-05	8.27e-07
303.15	0.9477	8.2893e-05	1.617e-06
313.15	0.0521	1.3998e-06	2.1e-08
313.15	0.0964	1.7498e-06	2.6e-08
313.15	0.1964	2.7132e-06	3.98e-08
313.15	0.321	4.1913e-06	6.1e-08
313.15	0.3936	5.5429e-06	7.95e-08
313.15	0.4941	8.0509e-06	1.118e-07
313.15	0.59	1.155e-05	1.6e-07
313.15	0.691	1.7586e-05	2.37e-07
313.15	0.7952	2.6121e-05	3.5e-07
313.15	0.85	3.2819e-05	4.39e-07
313.15	0.8992	4.0287e-05	5.39e-07
313.15	0.9477	5.0752e-05	5.71e-07
323.15	0.0521	1.1807e-06	1.79e-08
323.15	0.0964	1.469e-06	2.2e-08
323.15	0.1964	2.2445e-06	3.31e-08
323.15	0.321	3.3945e-06	4.97e-08
323.15	0.3936	4.4912e-06	6.54e-08
323.15	0.4941	6.2448e-06	8.87e-08
323.15	0.59	8.8623e-06	1.227e-07
323.15	0.691	1.2805e-05	1.74e-07
323.15	0.7952	1.8143e-05	2.45e-07
323.15	0.85	2.2262e-05	3e-07
323.15	0.8992	2.6726e-05	3.6e-07
323.15	0.9477	3.2889e-05	4.43e-07

System: ethanol + 1-butyl-3-methylpyridinium tetrafluoroborate; phases: Liquid
Fixed: Pressure, kPa = 101
Property: Mass density, kg/m3 (Liquid); method: Vibrating tube method
Temperature, K	Mole fraction of 1-butyl-3-methylpyridinium tetrafluoroborate	Mass density, kg/m3	uncertainty
293.15	0.0521	855.55	0.31
293.15	0.0964	900.79	0.28
293.15	0.1964	977.43	0.26
293.15	0.321	1041.5	0.26
293.15	0.3936	1068.86	0.26
293.15	0.4941	1098.93	0.28
293.15	0.59	1121.77	0.3
293.15	0.691	1141.6	0.32
293.15	0.7952	1158.8	0.35
293.15	0.85	1166.81	0.36
293.15	0.8992	1173.47	0.37
293.15	0.9477	1179.57	0.39
303.15	0.0521	847.17	0.31
303.15	0.0964	892.48	0.28
303.15	0.1964	969.49	0.26
303.15	0.321	1033.92	0.26
303.15	0.3936	1061.42	0.26
303.15	0.4941	1091.66	0.28
303.15	0.59	1114.64	0.3
303.15	0.691	1134.58	0.32
303.15	0.7952	1151.88	0.34
303.15	0.85	1159.93	0.36
303.15	0.8992	1166.61	0.37
303.15	0.9477	1172.74	0.38
313.15	0.0521	838.85	0.31
313.15	0.0964	884.31	0.29
313.15	0.1964	961.48	0.26
313.15	0.321	1026.2	0.25
313.15	0.3936	1053.9	0.26
313.15	0.4941	1084.35	0.27
313.15	0.59	1107.46	0.29
313.15	0.691	1127.48	0.31
313.15	0.7952	1144.87	0.34
313.15	0.85	1152.99	0.35
313.15	0.8992	1159.75	0.37
313.15	0.9477	1165.95	0.38
323.15	0.0521	830.02	0.32
323.15	0.0964	875.68	0.29
323.15	0.1964	953.37	0.27
323.15	0.321	1018.52	0.26
323.15	0.3936	1046.35	0.26
323.15	0.4941	1076.96	0.27
323.15	0.59	1100.21	0.29
323.15	0.691	1120.38	0.31
323.15	0.7952	1137.9	0.34
323.15	0.85	1146.06	0.35
323.15	0.8992	1152.86	0.36
323.15	0.9477	1159.11	0.38

System: methanol + 1-butyl-4-methylpyridinium tetrafluoroborate; phases: Liquid
Fixed: Pressure, kPa = 101
Property: Kinematic viscosity, m2/s (Liquid); method: CAPTUB:UFactor:2
Temperature, K	Mole fraction of 1-butyl-4-methylpyridinium tetrafluoroborate	Kinematic viscosity, m2/s	uncertainty
293.15	0.0477	1.0195e-06	1.55e-08
293.15	0.0958	1.4177e-06	2.11e-08
293.15	0.2055	2.8265e-06	4.09e-08
293.15	0.2889	4.5663e-06	6.54e-08
293.15	0.3846	7.5049e-06	1.03e-07
293.15	0.4866	1.307e-05	1.74e-07
293.15	0.589	2.1236e-05	2.79e-07
293.15	0.7073	3.6061e-05	4.74e-07
293.15	0.7963	6.4227e-05	8.67e-07
293.15	0.8459	8.4315e-05	1.669e-06
293.15	0.8947	0.00012027	3.66e-06
293.15	0.9465	0.00016762	6.95e-06
303.15	0.0477	8.834e-07	1.35e-08
303.15	0.0958	1.1954e-06	1.8e-08
303.15	0.2055	2.2934e-06	3.34e-08
303.15	0.2889	3.5971e-06	5.19e-08
303.15	0.3846	5.7269e-06	8.08e-08
303.15	0.4866	9.5564e-06	1.294e-07
303.15	0.589	1.5795e-05	2.1e-07
303.15	0.7073	2.5902e-05	3.42e-07
303.15	0.7963	4.114e-05	5.43e-07
303.15	0.8459	5.1572e-05	5.7e-07
303.15	0.8947	6.9212e-05	1.047e-06
303.15	0.9465	9.1446e-05	2.015e-06
313.15	0.0477	7.783e-07	1.2e-08
313.15	0.0958	1.0214e-06	1.55e-08
313.15	0.2055	1.9089e-06	2.8e-08
313.15	0.2889	2.9159e-06	4.23e-08
313.15	0.3846	4.5314e-06	6.52e-08
313.15	0.4866	7.3047e-06	1.009e-07
313.15	0.589	1.1542e-05	1.55e-07
313.15	0.7073	1.8978e-05	2.52e-07
313.15	0.7963	2.8022e-05	3.72e-07
313.15	0.8459	3.4115e-05	4.54e-07
313.15	0.8947	4.4078e-05	5.87e-07
313.15	0.9465	5.5895e-05	6.56e-07
323.15	0.0477	6.883e-07	1.08e-08
323.15	0.0958	8.916e-07	1.37e-08
323.15	0.2055	1.6243e-06	2.4e-08
323.15	0.2889	2.4443e-06	3.56e-08
323.15	0.3846	3.6972e-06	5.34e-08
323.15	0.4866	5.7757e-06	8.17e-08
323.15	0.589	8.6022e-06	1.18e-07
323.15	0.7073	1.3034e-05	1.76e-07
323.15	0.7963	1.9269e-05	2.58e-07
323.15	0.8459	2.2938e-05	3.08e-07
323.15	0.8947	2.8512e-05	3.83e-07
323.15	0.9465	3.5591e-05	4.78e-07

System: methanol + 1-butyl-4-methylpyridinium tetrafluoroborate; phases: Liquid
Fixed: Pressure, kPa = 101
Property: Mass density, kg/m3 (Liquid); method: Vibrating tube method
Temperature, K	Mole fraction of 1-butyl-4-methylpyridinium tetrafluoroborate	Mass density, kg/m3	uncertainty
293.15	0.0477	876.71	0.33
293.15	0.0958	936.07	0.28
293.15	0.2055	1021.53	0.25
293.15	0.2889	1062.26	0.23
293.15	0.3846	1095.45	0.24
293.15	0.4866	1121.16	0.25
293.15	0.589	1140.6	0.27
293.15	0.7073	1157.8	0.3
293.15	0.7963	1168.12	0.33
293.15	0.8459	1173.12	0.35
293.15	0.8947	1177.58	0.36
293.15	0.9465	1181.89	0.38
303.15	0.0477	867.94	0.33
303.15	0.0958	927.56	0.28
303.15	0.2055	1013.48	0.25
303.15	0.2889	1054.51	0.24
303.15	0.3846	1087.98	0.24
303.15	0.4866	1113.92	0.25
303.15	0.589	1133.51	0.27
303.15	0.7073	1150.84	0.3
303.15	0.7963	1161.22	0.33
303.15	0.8459	1166.24	0.34
303.15	0.8947	1170.73	0.36
303.15	0.9465	1175.06	0.38
313.15	0.0477	858.74	0.33
313.15	0.0958	918.89	0.28
313.15	0.2055	1005.4	0.25
313.15	0.2889	1046.65	0.23
313.15	0.3846	1080.32	0.24
313.15	0.4866	1106.46	0.25
313.15	0.589	1126.23	0.27
313.15	0.7073	1143.72	0.3
313.15	0.7963	1154.18	0.32
313.15	0.8459	1159.23	0.34
313.15	0.8947	1163.73	0.36
313.15	0.9465	1168.07	0.37
323.15	0.0477	849.6	0.34
323.15	0.0958	910.02	0.29
323.15	0.2055	997.15	0.26
323.15	0.2889	1038.82	0.24
323.15	0.3846	1072.88	0.24
323.15	0.4866	1099.31	0.25
323.15	0.589	1119.29	0.27
323.15	0.7073	1136.94	0.3
323.15	0.7963	1147.48	0.32
323.15	0.8459	1152.56	0.34
323.15	0.8947	1157.09	0.35
323.15	0.9465	1161.45	0.37

System: ethanol + 1-butyl-4-methylpyridinium tetrafluoroborate; phases: Liquid
Fixed: Pressure, kPa = 101
Property: Kinematic viscosity, m2/s (Liquid); method: CAPTUB:UFactor:2
Temperature, K	Mole fraction of 1-butyl-4-methylpyridinium tetrafluoroborate	Kinematic viscosity, m2/s	uncertainty
293.15	0.0481	1.9531e-06	2.89e-08
293.15	0.0952	2.5671e-06	3.77e-08
293.15	0.1896	4.0829e-06	5.92e-08
293.15	0.2856	6.3519e-06	8.94e-08
293.15	0.3839	9.9141e-06	1.352e-07
293.15	0.5297	1.9628e-05	2.61e-07
293.15	0.5858	2.5694e-05	3.4e-07
293.15	0.6862	3.997e-05	5.3e-07
293.15	0.7889	7.2727e-05	1.176e-06
293.15	0.8418	9.7873e-05	2.329e-06
293.15	0.8942	0.00013186	4.42e-06
293.15	0.946	0.00017671	7.64e-06
303.15	0.0481	1.605e-06	2.39e-08
303.15	0.0952	2.0655e-06	3.05e-08
303.15	0.1896	3.1708e-06	4.63e-08
303.15	0.2856	4.7628e-06	6.9e-08
303.15	0.3839	7.2516e-06	1.013e-07
303.15	0.5297	1.4398e-05	1.93e-07
303.15	0.5858	1.7583e-05	2.35e-07
303.15	0.6862	2.7825e-05	3.7e-07
303.15	0.7889	4.3703e-05	5.8e-07
303.15	0.8418	5.7112e-05	6.79e-07
303.15	0.8942	7.4125e-05	1.238e-06
303.15	0.946	9.5161e-05	2.2e-06
313.15	0.0481	1.3421e-06	2.02e-08
313.15	0.0952	1.6875e-06	2.51e-08
313.15	0.1896	2.5274e-06	3.72e-08
313.15	0.2856	3.7464e-06	5.46e-08
313.15	0.3839	5.5413e-06	7.95e-08
313.15	0.5297	1.0515e-05	1.44e-07
313.15	0.5858	1.335e-05	1.81e-07
313.15	0.6862	1.961e-05	2.63e-07
313.15	0.7889	3.0522e-05	4.07e-07
313.15	0.8418	3.871e-05	5.16e-07
313.15	0.8942	4.8148e-05	6.43e-07
313.15	0.946	5.9406e-05	7.41e-07
323.15	0.0481	1.139e-06	1.73e-08
323.15	0.0952	1.4124e-06	2.12e-08
323.15	0.1896	2.085e-06	3.09e-08
323.15	0.2856	3.0298e-06	4.44e-08
323.15	0.3839	4.3965e-06	6.41e-08
323.15	0.5297	7.4033e-06	1.037e-07
323.15	0.5858	9.328e-06	1.289e-07
323.15	0.6862	1.3575e-05	1.85e-07
323.15	0.7889	2.0775e-05	2.8e-07
323.15	0.8418	2.5928e-05	3.49e-07
323.15	0.8942	3.1503e-05	4.23e-07
323.15	0.946	3.7949e-05	5.1e-07

System: ethanol + 1-butyl-4-methylpyridinium tetrafluoroborate; phases: Liquid
Fixed: Pressure, kPa = 101
Property: Mass density, kg/m3 (Liquid); method: Vibrating tube method
Temperature, K	Mole fraction of 1-butyl-4-methylpyridinium tetrafluoroborate	Mass density, kg/m3	uncertainty
293.15	0.0481	852	0.31
293.15	0.0952	900.2	0.28
293.15	0.1896	972.12	0.26
293.15	0.2856	1024.13	0.25
293.15	0.3839	1063.87	0.26
293.15	0.5297	1107.23	0.29
293.15	0.5858	1120.51	0.3
293.15	0.6862	1140.91	0.32
293.15	0.7889	1158.26	0.35
293.15	0.8418	1166.08	0.36
293.15	0.8942	1173.2	0.37
293.15	0.946	1179.69	0.39
303.15	0.0481	843.78	0.31
303.15	0.0952	892.25	0.28
303.15	0.1896	964.56	0.26
303.15	0.2856	1016.72	0.25
303.15	0.3839	1056.57	0.26
303.15	0.5297	1100.11	0.28
303.15	0.5858	1113.47	0.29
303.15	0.6862	1133.97	0.32
303.15	0.7889	1151.41	0.34
303.15	0.8418	1159.26	0.36
303.15	0.8942	1166.4	0.37
303.15	0.946	1172.89	0.38
313.15	0.0481	835.55	0.31
313.15	0.0952	884.1	0.29
313.15	0.1896	956.53	0.26
313.15	0.2856	1008.96	0.25
313.15	0.3839	1049.08	0.26
313.15	0.5297	1092.88	0.28
313.15	0.5858	1106.29	0.29
313.15	0.6862	1126.84	0.31
313.15	0.7889	1144.3	0.34
313.15	0.8418	1152.16	0.35
313.15	0.8942	1159.32	0.36
313.15	0.946	1165.84	0.38
323.15	0.0481	827.17	0.32
323.15	0.0952	875.8	0.29
323.15	0.1896	948.48	0.27
323.15	0.2856	1001.26	0.25
323.15	0.3839	1041.7	0.26
323.15	0.5297	1085.83	0.28
323.15	0.5858	1099.32	0.29
323.15	0.6862	1119.98	0.31
323.15	0.7889	1137.51	0.33
323.15	0.8418	1145.41	0.35
323.15	0.8942	1152.61	0.36
323.15	0.946	1159.18	0.37
