Measured thermophysical data. Vapor Pressures and Vaporization, Sublimation, and Fusion Enthalpies of Some Fatty Acids
Source: J. Chem. Eng. Data, 2013, 10.1021/je300902c
Compound 1: tetradecanoic acid, C14H28O2, InChI=1S/C14H28O2/c1-2-3-4-5-6-7-8-9-10-11-12-13-14(15)16/h2-13H2,1H3,(H,15,16), purity 99.6%
Compound 2: pentadecanoic acid, C15H30O2, InChI=1S/C15H30O2/c1-2-3-4-5-6-7-8-9-10-11-12-13-14-15(16)17/h2-14H2,1H3,(H,16,17), purity 99.1%
Compound 3: hexadecanoic acid, C16H32O2, InChI=1S/C16H32O2/c1-2-3-4-5-6-7-8-9-10-11-12-13-14-15-16(17)18/h2-15H2,1H3,(H,17,18), purity 98.4%
Compound 4: heptadecanoic acid, C17H34O2, InChI=1S/C17H34O2/c1-2-3-4-5-6-7-8-9-10-11-12-13-14-15-16-17(18)19/h2-16H2,1H3,(H,18,19), purity 98.6%
Compound 5: (Z,Z,Z)-6,9,12-octatrienoic acid, C18H30O2, InChI=1S/C18H30O2/c1-2-3-4-5-6-7-8-9-10-11-12-13-14-15-16-17-18(19)20/h6-7,9-10,12-13H,2-5,8,11,14-17H2,1H3,(H,19,20)/b7-6-,10-9-,13-12-, purity 99.2%
Compound 6: all-cis-9,12,15-octadecatrienoic acid, C18H30O2, InChI=1S/C18H30O2/c1-2-3-4-5-6-7-8-9-10-11-12-13-14-15-16-17-18(19)20/h3-4,6-7,9-10H,2,5,8,11-17H2,1H3,(H,19,20)/b4-3-,7-6-,10-9-, purity 99.7%
Compound 7: (Z,Z)-9,12-octadecadienoic acid, C18H32O2, InChI=1S/C18H32O2/c1-2-3-4-5-6-7-8-9-10-11-12-13-14-15-16-17-18(19)20/h6-7,9-10H,2-5,8,11-17H2,1H3,(H,19,20)/b7-6-,10-9-, purity 99.7%
Compound 8: (E)-9-octadecenoic acid, C18H34O2, InChI=1S/C18H34O2/c1-2-3-4-5-6-7-8-9-10-11-12-13-14-15-16-17-18(19)20/h9-10H,2-8,11-17H2,1H3,(H,19,20)/b10-9+, purity 97%
Compound 9: octadecanoic acid, C18H36O2, InChI=1S/C18H36O2/c1-2-3-4-5-6-7-8-9-10-11-12-13-14-15-16-17-18(19)20/h2-17H2,1H3,(H,19,20), purity 95.1%
Compound 10: nonadecanoic acid, C19H38O2, InChI=1S/C19H38O2/c1-2-3-4-5-6-7-8-9-10-11-12-13-14-15-16-17-18-19(20)21/h2-18H2,1H3,(H,20,21), purity 96.3%
Compound 11: eicosanoic acid, C20H40O2, InChI=1S/C20H40O2/c1-2-3-4-5-6-7-8-9-10-11-12-13-14-15-16-17-18-19-20(21)22/h2-19H2,1H3,(H,21,22), purity 98.5%
Compound 12: heneicosanoic acid, C21H42O2, InChI=1S/C21H42O2/c1-2-3-4-5-6-7-8-9-10-11-12-13-14-15-16-17-18-19-20-21(22)23/h2-20H2,1H3,(H,22,23), purity 95.4%
Compound 13: 13-docosenoic acid (Z), C22H42O2, InChI=1S/C22H42O2/c1-2-3-4-5-6-7-8-9-10-11-12-13-14-15-16-17-18-19-20-21-22(23)24/h9-10H,2-8,11-21H2,1H3,(H,23,24)/b10-9-, purity 99.7%
Compound 14: docosanoic acid, C22H44O2, InChI=1S/C22H44O2/c1-2-3-4-5-6-7-8-9-10-11-12-13-14-15-16-17-18-19-20-21-22(23)24/h2-21H2,1H3,(H,23,24), purity 99.1%

System: tetradecanoic acid; phases: Liquid, Gas
Property: Molar enthalpy of vaporization or sublimation, kJ/mol (Liquid); method: Correlation gas chromatography
Temperature, K	Molar enthalpy of vaporization or sublimation, kJ/mol	uncertainty
298	111.2	17.7

System: tetradecanoic acid; phases: Liquid, Gas
Property: Vapor or sublimation pressure, kPa (Liquid); method: Calculation
Temperature, K	Vapor or sublimation pressure, kPa	uncertainty
298.15	8.258e-07	4.53125e-06
300	1.0842e-06	4.9143e-06
315	8.4606e-06	1.74076e-05
330	5.3297e-05	8.9774e-05
345	0.00027763	0.00038706
360	0.0012159	0.0014489
375	0.0046103	0.0046913
390	0.0153	0.013476
405	0.04509	0.034754
420	0.11956	0.08207
435	0.29182	0.17732
450	0.65253	0.35565
465	1.3578	0.6687
480	2.6547	1.1754
495	4.8839	1.9657
510	8.5417	3.1309
525	14.287	4.762
540	22.798	6.991
555	35.16	9.829
570	52.385	13.476
585	75.69	18.036
600	106.39	20.27

System: pentadecanoic acid; phases: Liquid, Gas
Property: Molar enthalpy of vaporization or sublimation, kJ/mol (Liquid); method: Correlation gas chromatography
Temperature, K	Molar enthalpy of vaporization or sublimation, kJ/mol	uncertainty
298	116.6	18.5

System: pentadecanoic acid; phases: Liquid, Gas
Property: Vapor or sublimation pressure, kPa (Liquid); method: Calculation
Temperature, K	Vapor or sublimation pressure, kPa	uncertainty
298.15	2.7054e-07	1.66781e-06
300	3.5869e-07	1.81473e-06
315	3.0803e-06	6.9104e-06
330	2.1076e-05	3.82e-05
345	0.00011754	0.00017631
360	0.00055121	0.00069712
375	0.0022089	0.0023913
390	0.0077311	0.0072346
405	0.023913	0.019657
420	0.066571	0.048129
435	0.1682	0.1074
450	0.3901	0.22393
465	0.83998	0.43367
480	1.6921	0.7802
495	3.1917	1.3476
510	5.735	2.1988
525	9.788	3.4248
540	16.009	5.066
555	25.129	7.397
570	38.098	10.335
585	56.033	13.882
600	79.844	15.908

System: hexadecanoic acid; phases: Liquid, Gas
Property: Molar enthalpy of vaporization or sublimation, kJ/mol (Liquid); method: Correlation gas chromatography
Temperature, K	Molar enthalpy of vaporization or sublimation, kJ/mol	uncertainty
298	121.6	16.2

System: hexadecanoic acid; phases: Liquid, Gas
Property: Vapor or sublimation pressure, kPa (Liquid); method: Calculation
Temperature, K	Vapor or sublimation pressure, kPa	uncertainty
298.15	9.2915e-08	6.36422e-07
300	1.2463e-07	6.9408e-07
315	1.1652e-06	2.8371e-06
330	8.6329e-06	1.6901e-05
345	5.1878e-05	8.3593e-05
360	0.00025939	0.00035058
375	0.0011044	0.0012666
390	0.004053	0.0040226
405	0.013172	0.011348
420	0.0382	0.028979
435	0.10021	0.067685
450	0.24115	0.14489
465	0.535	0.28776
480	1.1044	0.537
495	2.1582	0.9525
510	3.9618	1.5908
525	6.9205	2.5331
540	11.551	3.85
555	18.441	5.674
570	28.574	8.005
585	42.557	11.044
600	61.606	15.097
298.15	1.0538e-07	6.2923e-07
300	1.4084e-07	6.8293e-07
315	1.2868e-06	2.8371e-06
330	9.3118e-06	1.6901e-05
345	5.5222e-05	8.3593e-05
360	0.00027256	0.00035058
375	0.0011551	0.0012666
390	0.0042151	0.0040226
405	0.013578	0.011348
420	0.039415	0.028979
435	0.10335	0.06789
450	0.24723	0.14489
465	0.54817	0.28776
480	1.1348	0.537
495	2.1988	0.9525
510	4.0429	1.5908
525	7.0624	2.5331
540	11.754	3.85
555	18.846	5.674
570	29.08	8.005
585	43.266	11.044
600	62.619	15.097
615	87.95	19.657
630	120.58	21.28

System: heptadecanoic acid; phases: Liquid, Gas
Property: Molar enthalpy of vaporization or sublimation, kJ/mol (Liquid); method: Correlation gas chromatography
Temperature, K	Molar enthalpy of vaporization or sublimation, kJ/mol	uncertainty
298	127.3	19.9

System: heptadecanoic acid; phases: Liquid, Gas
Property: Vapor or sublimation pressure, kPa (Liquid); method: Calculation
Temperature, K	Vapor or sublimation pressure, kPa	uncertainty
298.15	3.2424e-08	2.47132e-07
300	4.3975e-08	2.6993e-07
315	4.4887e-07	1.18145e-06
330	3.5869e-06	7.5487e-06
345	2.3102e-05	3.9719e-05
360	0.0001226	0.00017631
375	0.00055323	0.00067178
390	0.002138	0.0022393
405	0.0072751	0.0066165
420	0.021988	0.017529
435	0.059984	0.042354
450	0.14895	0.09423
465	0.34248	0.19353
480	0.72954	0.37186
495	1.4591	0.6687
510	2.7358	1.145
525	4.894	1.8644
540	8.339	2.8979
555	13.578	4.357
570	21.38	6.282
585	32.424	8.714
600	47.521	11.348
298.15	3.2323e-08	2.47233e-07
300	4.3772e-08	2.70031e-07
315	4.4279e-07	1.18145e-06
330	3.5261e-06	7.5487e-06
345	2.2595e-05	3.9719e-05
360	0.00011956	0.00017631
375	0.00053905	0.00067178
390	0.0020873	0.0022393
405	0.0071029	0.0066165
420	0.021481	0.017529
435	0.058667	0.042354
450	0.14591	0.09423
465	0.33437	0.19353
480	0.71434	0.37186
495	1.4287	0.6687
510	2.6851	1.145
525	4.8028	1.8644
540	8.1769	2.8979
555	13.375	4.357
570	20.974	6.282
585	31.816	8.714
600	46.711	11.348
615	66.571	14.996
630	92.611	17.327

System: (Z,Z,Z)-6,9,12-octatrienoic acid; phases: Liquid, Gas
Property: Molar enthalpy of vaporization or sublimation, kJ/mol (Liquid); method: Correlation gas chromatography
Temperature, K	Molar enthalpy of vaporization or sublimation, kJ/mol	uncertainty
298	135.9	13.8

System: (Z,Z,Z)-6,9,12-octatrienoic acid; phases: Liquid, Gas
Property: Vapor or sublimation pressure, kPa (Liquid); method: Calculation
Temperature, K	Vapor or sublimation pressure, kPa	uncertainty
298.15	4.8028e-09	4.31543e-08
300	6.6267e-09	4.7258e-08
315	7.7514e-08	2.31832e-07
330	7.0218e-07	1.6597e-06
345	5.0561e-06	9.6968e-06
360	2.979e-05	4.7319e-05
375	0.00014692	0.00019556
390	0.00061707	0.00070421
405	0.0022595	0.002219
420	0.0072853	0.006272
435	0.021076	0.016009
450	0.055323	0.037186
465	0.13274	0.08005
480	0.29587	0.16009
495	0.612	0.29992
510	1.1956	0.5269
525	2.1988	0.8815
540	3.8402	1.4084
555	6.424	2.1684
570	10.335	3.141
585	15.908	4.458
600	23.811	6.181
615	34.45	8.309
630	48.636	9.423

System: all-cis-9,12,15-octadecatrienoic acid; phases: Liquid, Gas
Property: Molar enthalpy of vaporization or sublimation, kJ/mol (Liquid); method: Correlation gas chromatography
Temperature, K	Molar enthalpy of vaporization or sublimation, kJ/mol	uncertainty
298	136.9	20.9

System: all-cis-9,12,15-octadecatrienoic acid; phases: Liquid, Gas
Property: Vapor or sublimation pressure, kPa (Liquid); method: Calculation
Temperature, K	Vapor or sublimation pressure, kPa	uncertainty
298.15	3.516e-09	3.26064e-08
300	4.8737e-09	3.57272e-08
315	5.8465e-08	1.78433e-07
330	5.4006e-07	1.30405e-06
345	3.9719e-06	7.7615e-06
360	2.3811e-05	3.8504e-05
375	0.00011956	0.00016111
390	0.00050764	0.0005887
405	0.0018846	0.0018846
420	0.0061504	0.0053804
435	0.018036	0.013882
450	0.047724	0.032525
465	0.11551	0.07093
480	0.25939	0.14287
495	0.5431	0.26851
510	1.0639	0.4762
525	1.9758	0.8106
540	3.4856	1.297
555	5.8566	1.986
570	9.4536	2.9486
585	14.692	4.256
600	22.089	5.776
298.15	3.4754e-09	3.26368e-08
300	4.8231e-09	3.57576e-08
315	5.8059e-08	1.78433e-07
330	5.3905e-07	1.30405e-06
345	3.9719e-06	7.7615e-06
360	2.3811e-05	3.8504e-05
375	0.00011956	0.00016111
390	0.00051068	0.0005887
405	0.0018948	0.0018846
420	0.0061808	0.0053804
435	0.018137	0.013882
450	0.047927	0.032525
465	0.11652	0.07093
480	0.26041	0.14287
495	0.54412	0.26851
510	1.0639	0.4762
525	1.9758	0.8106
540	3.4754	1.297
555	5.8465	1.986
570	9.4232	2.9486
585	14.591	4.256
600	21.886	5.776
615	31.917	7.701
630	45.09	8.815

System: (Z,Z)-9,12-octadecadienoic acid; phases: Liquid, Gas
Property: Molar enthalpy of vaporization or sublimation, kJ/mol (Liquid); method: Correlation gas chromatography
Temperature, K	Molar enthalpy of vaporization or sublimation, kJ/mol	uncertainty
298	134.1	20.7

System: (Z,Z)-9,12-octadecadienoic acid; phases: Liquid, Gas
Property: Vapor or sublimation pressure, kPa (Liquid); method: Calculation
Temperature, K	Vapor or sublimation pressure, kPa	uncertainty
298.15	6.0998e-09	5.36921e-08
300	8.3998e-09	5.87786e-08
315	9.6563e-08	2.83609e-07
330	8.5924e-07	1.99813e-06
345	6.0896e-06	1.15004e-05
360	3.5362e-05	5.5425e-05
375	0.00017225	0.00022697
390	0.00071637	0.00080756
405	0.0025939	0.0025331
420	0.0083087	0.0070725
435	0.023811	0.017935
450	0.062214	0.041746
465	0.14895	0.08917
480	0.32829	0.17631
495	0.67888	0.32931
510	1.3172	0.5776
525	2.4217	0.9727
540	4.2253	1.5401
555	7.0522	2.3406
570	11.247	3.445
585	17.428	4.965
600	26.041	5.472
298.15	3.7693e-09	5.50701e-08
300	5.2182e-09	6.08963e-08
315	6.2822e-08	2.83609e-07
330	5.8262e-07	1.99813e-06
345	4.2759e-06	1.15004e-05
360	2.5635e-05	5.5425e-05
375	0.00012767	0.00022697
390	0.00054614	0.00080756
405	0.0020164	0.0025331
420	0.0065861	0.0070725
435	0.019252	0.017935
450	0.050865	0.041746
465	0.12362	0.08917
480	0.27662	0.17631
495	0.57654	0.32931
510	1.1348	0.5776
525	2.0974	0.9727
540	3.6882	1.5401
555	6.2011	2.3406
570	10.0008	3.4552
585	15.503	4.965
600	23.305	5.472
615	33.944	7.397
630	48.129	9.423

System: (E)-9-octadecenoic acid; phases: Liquid, Gas
Property: Molar enthalpy of vaporization or sublimation, kJ/mol (Liquid); method: Correlation gas chromatography
Temperature, K	Molar enthalpy of vaporization or sublimation, kJ/mol	uncertainty
298	133	20.7

System: (E)-9-octadecenoic acid; phases: Liquid, Gas
Property: Vapor or sublimation pressure, kPa (Liquid); method: Calculation
Temperature, K	Vapor or sublimation pressure, kPa	uncertainty
298.15	9.2915e-09	7.98745e-08
300	1.2767e-08	8.7443e-08
315	1.4388e-07	4.1138e-07
330	1.2463e-06	2.8574e-06
345	8.7139e-06	1.61715e-05
360	4.9751e-05	7.65e-05
375	0.00023811	0.00030904
390	0.00097779	0.0010862
405	0.0034957	0.0033539
420	0.011044	0.009322
435	0.031512	0.023406
450	0.081364	0.054006
465	0.19353	0.1145
480	0.42455	0.22595
495	0.8714	0.41949
510	1.682	0.7397
525	3.0803	1.226
540	5.35	1.9454
555	8.9065	2.979
570	14.287	4.357
585	21.988	6.181
600	32.728	8.714
298.15	9.7475e-09	7.96009e-08
300	1.3375e-08	8.7038e-08
315	1.4996e-07	4.1138e-07
330	1.297e-06	2.8574e-06
345	9.0483e-06	1.61715e-05
360	5.1574e-05	7.65e-05
375	0.00024622	0.00030904
390	0.00101021	0.0010862
405	0.0036072	0.0033539
420	0.01145	0.009322
435	0.032424	0.023406
450	0.083796	0.054006
465	0.1986	0.1145
480	0.4357	0.22595
495	0.8947	0.41949
510	1.7225	0.7397
525	3.1512	1.226
540	5.4817	1.9454
555	9.1192	2.979
570	14.591	4.357
585	22.393	6.181
600	33.336	8.714
615	48.231	11.754
630	67.888	13.071

System: octadecanoic acid; phases: Liquid, Gas
Property: Molar enthalpy of vaporization or sublimation, kJ/mol (Liquid); method: Correlation gas chromatography
Temperature, K	Molar enthalpy of vaporization or sublimation, kJ/mol	uncertainty
298	132.6	17.4

System: octadecanoic acid; phases: Liquid, Gas
Property: Vapor or sublimation pressure, kPa (Liquid); method: Calculation
Temperature, K	Vapor or sublimation pressure, kPa	uncertainty
298.15	1.0639e-08	9.0483e-08
300	1.4591e-08	9.8995e-08
315	1.6313e-07	4.6812e-07
330	1.4185e-06	3.212e-06
345	9.8083e-06	1.81372e-05
360	5.583e-05	8.5518e-05
375	0.00026648	0.00034248
390	0.0010842	0.0012058
405	0.0038807	0.0037288
420	0.01226	0.010335
435	0.034856	0.025939
450	0.089977	0.059275
465	0.21278	0.12564
480	0.46812	0.24926
495	0.96157	0.46204
510	1.8542	0.8106
525	3.3944	1.3476
540	5.9072	2.1481
555	9.8387	3.2627
570	15.705	4.864
585	24.318	6.89
600	36.274	9.423
298.15	1.1652e-08	8.9875e-08
300	1.6009e-08	9.8083e-08
315	1.7631e-07	4.6812e-07
330	1.5199e-06	3.212e-06
345	1.0436e-05	1.8137e-05
360	5.887e-05	8.5518e-05
375	0.00027966	0.00034248
390	0.0011348	0.0012058
405	0.0040327	0.0037288
420	0.012666	0.010335
435	0.03597	0.025939
450	0.092408	0.059275
465	0.21886	0.12564
480	0.47825	0.24926
495	0.97981	0.46204
510	1.8846	0.8106
525	3.4451	1.3476
540	5.9782	2.1481
555	9.9299	3.2627
570	15.807	4.864
585	24.419	6.89
600	36.376	9.423
615	52.486	12.564
630	73.866	14.287

System: nonadecanoic acid; phases: Liquid, Gas
Property: Molar enthalpy of vaporization or sublimation, kJ/mol (Liquid); method: Correlation gas chromatography
Temperature, K	Molar enthalpy of vaporization or sublimation, kJ/mol	uncertainty
298	138	13.8

System: nonadecanoic acid; phases: Liquid, Gas
Property: Vapor or sublimation pressure, kPa (Liquid); method: Calculation
Temperature, K	Vapor or sublimation pressure, kPa	uncertainty
298.15	3.7693e-09	3.56461e-08
300	5.2385e-09	3.90608e-08
315	6.3835e-08	1.97482e-07
330	5.9782e-07	1.45807e-06
345	4.438e-06	8.7139e-06
360	2.675e-05	4.3468e-05
375	0.00013476	0.00018441
390	0.00057958	0.00067482
405	0.0021582	0.0021785
420	0.0071029	0.0062416
435	0.020873	0.016212
450	0.055627	0.038301
465	0.13578	0.08309
480	0.306	0.16921
495	0.64341	0.32019
510	1.2666	0.5776
525	2.371	0.9727
540	4.1949	1.5807
555	7.1029	2.4521
570	11.551	3.648
585	18.036	5.269
600	27.256	7.295
615	39.922	9.829
630	56.843	11.247

System: eicosanoic acid; phases: Liquid, Gas
Property: Molar enthalpy of vaporization or sublimation, kJ/mol (Liquid); method: Correlation gas chromatography
Temperature, K	Molar enthalpy of vaporization or sublimation, kJ/mol	uncertainty
298	143.7	16.2

System: eicosanoic acid; phases: Liquid, Gas
Property: Vapor or sublimation pressure, kPa (Liquid); method: Calculation
Temperature, K	Vapor or sublimation pressure, kPa	uncertainty
298.15	1.3172e-09	1.38309e-08
300	1.8441e-09	1.51886e-08
315	2.4622e-08	8.2783e-08
330	2.5027e-07	6.576e-07
345	1.9961e-06	4.205e-06
360	1.2868e-05	2.219e-05
375	6.8698e-05	9.94e-05
390	0.00031107	0.000382
405	0.0012159	0.0012767
420	0.0041543	0.00382
435	0.012666	0.010234
450	0.034957	0.025129
465	0.088051	0.056235
480	0.20366	0.11754
495	0.43975	0.22798
510	0.88862	0.41746
525	1.6921	0.7194
540	3.06	1.1855
555	5.2588	1.8745
570	8.6836	2.8371
585	13.78	4.154
600	21.076	5.877
615	31.309	8.005
630	44.988	9.119

System: heneicosanoic acid; phases: Liquid, Gas
Property: Molar enthalpy of vaporization or sublimation, kJ/mol (Liquid); method: Correlation gas chromatography
Temperature, K	Molar enthalpy of vaporization or sublimation, kJ/mol	uncertainty
298	149.2	14.4

System: heneicosanoic acid; phases: Liquid, Gas
Property: Vapor or sublimation pressure, kPa (Liquid); method: Calculation
Temperature, K	Vapor or sublimation pressure, kPa	uncertainty
298.15	4.742e-10	5.57591e-09
300	6.7381e-10	6.13016e-09
315	9.8691e-09	3.59197e-08
330	1.0842e-07	3.06e-07
345	9.2915e-07	2.08831e-06
360	6.3733e-06	1.16828e-05
375	3.597e-05	5.4614e-05
390	0.00017023	0.00021988
405	0.0006961	0.00077108
420	0.0024825	0.0023913
435	0.0078628	0.0066368
450	0.022393	0.016719
465	0.058059	0.038504
480	0.1378	0.08309
495	0.306	0.16516
510	0.63227	0.30701
525	1.226	0.5472
540	2.2697	0.9221
555	3.9821	1.4692
570	6.6773	2.2494
585	10.74	3.344
600	16.719	4.762
615	25.129	6.687
630	36.781	7.802

System: 13-docosenoic acid (Z); phases: Liquid, Gas
Property: Molar enthalpy of vaporization or sublimation, kJ/mol (Liquid); method: Correlation gas chromatography
Temperature, K	Molar enthalpy of vaporization or sublimation, kJ/mol	uncertainty
298	154.5	14.8

System: 13-docosenoic acid (Z); phases: Liquid, Gas
Property: Vapor or sublimation pressure, kPa (Liquid); method: Calculation
Temperature, K	Vapor or sublimation pressure, kPa	uncertainty
298.15	1.5199e-10	1.98394e-09
300	2.1886e-10	2.18457e-09
315	3.4957e-09	1.38106e-08
330	4.1645e-08	1.25846e-07
345	3.8098e-07	9.1192e-07
360	2.7763e-06	5.3804e-06
375	1.6516e-05	2.6547e-05
390	8.2479e-05	0.00011166
405	0.0003516	0.00040834
420	0.0013071	0.0013071
435	0.0042759	0.003749
450	0.012564	0.009727
465	0.033437	0.023102
480	0.081769	0.050662
495	0.18542	0.10234
510	0.3901	0.19556
525	0.77311	0.35261
540	1.4489	0.6079
555	2.5838	0.9829
570	4.3874	1.53
585	7.1637	2.2899
600	11.247	3.344
615	17.124	4.661
630	25.129	5.37

System: docosanoic acid; phases: Crystal 2, Crystal 1, Air at 1 atmosphere
Property: Triple point temperature, K (Crystal 2); method: DTA
Triple point temperature, K	uncertainty
340.9	0.5

System: docosanoic acid; phases: Crystal, Liquid, Air at 1 atmosphere
Property: Normal melting temperature, K (Crystal); method: DSC/DTA
Normal melting temperature, K	uncertainty
352.3	0.4

System: docosanoic acid; phases: Crystal, Liquid, Air at 1 atmosphere
Property: Molar enthalpy of transition or fusion, kJ/mol (Crystal); method: DSC
Molar enthalpy of transition or fusion, kJ/mol	uncertainty
66.3	1.4

System: docosanoic acid; phases: Crystal 2, Crystal 1, Air at 1 atmosphere
Property: Molar enthalpy of transition or fusion, kJ/mol (Crystal 2); method: DSC
Molar enthalpy of transition or fusion, kJ/mol	uncertainty
3.57	0.62

System: docosanoic acid; phases: Liquid, Gas
Property: Molar enthalpy of vaporization or sublimation, kJ/mol (Liquid); method: DSC
Temperature, K	Molar enthalpy of vaporization or sublimation, kJ/mol	uncertainty
298	154.7	14.9

System: docosanoic acid; phases: Liquid, Gas
Property: Vapor or sublimation pressure, kPa (Liquid); method: Calculation
Temperature, K	Vapor or sublimation pressure, kPa	uncertainty
298.15	1.5401e-10	1.01e-12
300	2.219e-10	1.01e-12
315	3.5869e-09	3.04e-11
330	4.2962e-08	3.04e-10
345	3.9618e-07	2.03e-09
360	2.908e-06	1.01e-08
375	1.7428e-05	1.01e-07
390	8.7241e-05	3.04e-07
405	0.00037288	1.01e-06
420	0.0013882	1.01e-05
435	0.0045698	1.01e-05
450	0.013476	0.000101
465	0.036173	0.000101
480	0.088659	0.000101
495	0.20164	0.00101
510	0.42658	0.00101
525	0.84809	0.00101
540	1.5908	0.0101
555	2.8472	0.0101
570	4.8737	0.0101
585	7.9743	0.0101
600	12.564	0.101
615	19.15	0.101
630	28.371	0.101
