Measured thermophysical data. Phase Equilibria of Glycerol Tristearate and Glycerol Trioleate in Carbon Dioxide and Sulfur Hexafluoride
Source: J. Chem. Eng. Data, 2012, 10.1021/je300801j
Compound 1: glycerol trioctadecanoate, C57H110O6, InChI=1S/C57H110O6/c1-4-7-10-13-16-19-22-25-28-31-34-37-40-43-46-49-55(58)61-52-54(63-57(60)51-48-45-42-39-36-33-30-27-24-21-18-15-12-9-6-3)53-62-56(59)50-47-44-41-38-35-32-29-26-23-20-17-14-11-8-5-2/h54H,4-53H2,1-3H3, purity 99%
Compound 2: 1,2,3-tri(cis-9-octadecenoyl)glycerol, C57H104O6, InChI=1S/C57H104O6/c1-4-7-10-13-16-19-22-25-28-31-34-37-40-43-46-49-55(58)61-52-54(63-57(60)51-48-45-42-39-36-33-30-27-24-21-18-15-12-9-6-3)53-62-56(59)50-47-44-41-38-35-32-29-26-23-20-17-14-11-8-5-2/h25-30,54H,4-24,31-53H2,1-3H3/b28-25-,29-26-,30-27-, purity 99%
Compound 3: carbon dioxide, CO2, InChI=1S/CO2/c2-1-3, purity 99.95%
Compound 4: nitrogen, N2, InChI=1S/N2/c1-2, purity 99.99%
Compound 5: sulfur hexafluoride, F6S, InChI=1S/F6S/c1-7(2,3,4,5)6, purity 99.99%

System: carbon dioxide + glycerol trioctadecanoate; phases: Liquid, Crystal, Gas
Property: Triple point temperature, K (Liquid); method: View Cell Method
Pressure, kPa	Triple point temperature, K	uncertainty
3000	333.1	1.6
5000	328.6	1.6
10000	325.1	1.6
15000	322.1	1.6
20000	323.6	1.6
25000	323.6	1.6
30000	323.8	1.6
35000	325.1	1.6
40000	327.1	1.6
45000	329.1	1.6
50000	328.1	1.6

System: carbon dioxide + glycerol trioctadecanoate; phases: Liquid, Crystal, Gas
Property: Triple point temperature, K (Liquid); method: DTA
Pressure, kPa	Triple point temperature, K	uncertainty
100	334.9	0.9
1000	332.6	0.8
2000	331.5	0.8
3000	329.9	0.8
4000	328.3	0.8
5000	327.1	0.8
6000	326	0.8
7000	326.4	0.8
8000	326.7	0.8
9000	326.1	0.8

System: carbon dioxide + glycerol trioctadecanoate; phases: Liquid, Gas
Property: Vapor or sublimation pressure, kPa (Liquid); method: Closed cell (Static) method
Mole fraction of carbon dioxide	Temperature, K	Vapor or sublimation pressure, kPa	uncertainty
0.4	343	1900	200
0.4548	343	2400	300
0.5045	363	3100	500
0.6363	343	4700	200
0.7138	343	5200	800
0.7993	363	9900	500
0.8392	343	13000	1600
0.8455	333	5900	8000
0.8546	343	15300	1400
0.8648	333	14000	4700
0.8888	363	14200	3500
0.8937	333	18100	7600
0.8999	333	20000	7300
0.9069	333	23700	4000
0.9198	363	36300	3500
0.9208	343	23100	3700
0.9221	363	23300	3600
0.9234	343	9600	3200
0.9238	333	37400	9700
0.9243	363	30700	3800
0.9256	363	18700	3500
0.9259	333	26400	3200
0.9265	343	25700	3700
0.9297	363	35500	4400
0.9354	343	41200	5600
0.9363	343	41300	5600
0.943	333	40900	3500
0.9466	343	37400	10400
0.9491	343	34500	8600
0.9522	363	25900	8100
0.9657	363	42900	3900

System: carbon dioxide + glycerol trioctadecanoate; phases: Gas, Liquid
Property: Mole fraction of carbon dioxide (Gas); method: gas volume
Mole fraction of carbon dioxide	Temperature, K	Mole fraction of carbon dioxide	uncertainty
0.4	343	0.9958	0.0042
0.4548	343	0.9959	0.0041
0.5045	363	0.996	0.004
0.6363	343	0.9956	0.0044
0.7138	343	0.9969	0.0031
0.7993	363	0.9961	0.0039
0.8392	343	0.997	0.003
0.8455	333	0.9965	0.0035
0.8546	343	0.9981	0.0019
0.8648	333	0.9895	0.0077
0.8888	363	0.9952	0.0048
0.8937	333	0.9909	0.0091
0.8999	333	0.9889	0.0111
0.9069	333	0.997	0.003
0.9198	363	0.9962	0.0038
0.9208	343	0.9953	0.0047
0.9221	363	0.9943	0.0057
0.9234	343	0.9964	0.0036
0.9238	333	0.9574	0.0078
0.9243	363	0.9916	0.0074
0.9256	363	0.9942	0.0058
0.9259	333	0.991	0.009
0.9265	343	0.997	0.003
0.9297	363	0.9972	0.0028
0.9354	343	0.9946	0.0054
0.9363	343	0.9966	0.0034
0.943	333	0.996	0.004
0.9466	343	0.9965	0.0035
0.9491	343	0.9951	0.0049
0.9522	363	0.997	0.003
0.9657	363	0.9899	0.0083

System: glycerol trioctadecanoate + sulfur hexafluoride; phases: Liquid mixture 1, Crystal, Gas
Property: Triple point temperature, K (Liquid mixture 1); method: View Cell Method
Pressure, kPa	Triple point temperature, K	uncertainty
600	339.1	1.6
3100	338.1	1.6
5900	336.1	1.6
11100	337.1	1.6
15200	338.1	1.6
18800	339.1	1.6
24100	345.1	1.6
31000	346.1	1.6

System: glycerol trioctadecanoate + sulfur hexafluoride; phases: Liquid, Gas
Property: Vapor or sublimation pressure, kPa (Liquid); method: Closed cell (Static) method
Mole fraction of sulfur hexafluoride	Temperature, K	Vapor or sublimation pressure, kPa	uncertainty
0.1717	363	1800	600
0.1905	343	2000	200
0.2256	363	3200	700
0.2752	363	4900	500
0.3646	363	6300	300
0.451	363	6800	200
0.691	363	8000	400
0.8705	343	7000	2100
0.8929	363	12500	2100
0.9222	363	15300	2100
0.9428	343	14200	600
0.9658	343	6800	6900
0.9671	343	10600	3200
0.969	343	6200	6500
0.9699	343	23700	7500
0.9702	343	27000	10000
0.9763	343	19900	3700
0.9771	343	22900	5400

System: glycerol trioctadecanoate + sulfur hexafluoride; phases: Gas, Liquid
Property: Mole fraction of sulfur hexafluoride (Gas); method: gas volume
Mole fraction of sulfur hexafluoride	Temperature, K	Mole fraction of sulfur hexafluoride	uncertainty
0.1717	363	0.9588	0.0159
0.1905	343	0.9688	0.0149
0.2256	363	0.9428	0.0146
0.2752	363	0.9628	0.0146
0.3646	363	0.9475	0.0147
0.451	363	0.9511	0.0146
0.691	363	0.9481	0.0257
0.8705	343	0.8837	0.1163
0.8929	363	0.5677	0.0229
0.9222	363	0.5771	0.0197
0.9428	343	0.3604	0.0719
0.9658	343	0.6899	0.308
0.9671	343	0.3484	0.0208
0.969	343	0.7841	0.2159
0.9699	343	0.4063	0.0411
0.9702	343	0.4482	0.0715
0.9763	343	0.363	0.0183
0.9771	343	0.3796	0.0221

System: glycerol trioctadecanoate + nitrogen; phases: Liquid mixture 1, Crystal, Gas
Property: Triple point temperature, K (Liquid mixture 1); method: DTA
Pressure, kPa	Triple point temperature, K	uncertainty
100	334.9	0.8
1000	333.4	0.8
2000	333.6	0.8
3000	333.7	0.8
4000	333.8	0.8
5000	333.9	0.8
6000	334.1	0.8
7000	334.1	0.8
8000	334.3	0.8
9000	334.5	0.8

System: 1,2,3-tri(cis-9-octadecenoyl)glycerol + carbon dioxide; phases: Liquid, Gas
Property: Vapor or sublimation pressure, kPa (Liquid); method: Closed cell (Static) method
Mole fraction of carbon dioxide	Temperature, K	Vapor or sublimation pressure, kPa	uncertainty
0.4	333	1900	200
0.4201	343	2200	1100
0.4842	343	5600	1100
0.6164	363	6100	2700
0.6443	333	4300	1600
0.6898	333	7800	100
0.8281	333	6000	800
0.8365	343	16500	2100
0.8463	343	25800	1800
0.8555	363	36000	9400
0.8573	363	10400	7900
0.8636	363	42000	18100
0.8683	343	19100	6200
0.8704	363	31900	6600
0.8706	363	16000	12100
0.8718	363	46000	2100
0.8745	333	13200	8100
0.8745	343	31700	6100
0.8753	333	19800	9000
0.8824	343	45600	3500
0.8868	363	21700	4100
0.8899	333	26900	7100
0.8918	333	32500	8600
0.8953	333	35600	22200
0.8993	343	41500	4000
0.9066	333	41100	14000
0.9075	333	45700	16600
0.9232	343	36500	2200
0.9296	363	50700	14000

System: 1,2,3-tri(cis-9-octadecenoyl)glycerol + carbon dioxide; phases: Gas, Liquid
Property: Mole fraction of carbon dioxide (Gas); method: gas volume
Mole fraction of carbon dioxide	Temperature, K	Mole fraction of carbon dioxide	uncertainty
0.4	333	0.9887	0.011
0.4201	343	0.9883	0.0111
0.4842	343	0.9918	0.0082
0.6164	363	0.99	0.01
0.6443	333	0.9906	0.0094
0.6898	333	0.992	0.008
0.8281	333	0.9967	0.0033
0.8365	343	0.9881	0.0112
0.8463	343	0.9863	0.0113
0.8555	363	0.9788	0.0129
0.8573	363	0.9322	0.0413
0.8636	363	0.9897	0.0103
0.8683	343	0.9866	0.0114
0.8704	363	0.9854	0.0116
0.8706	363	0.9479	0.0145
0.8718	363	0.9475	0.0147
0.8745	333	0.9941	0.0059
0.8745	343	0.9918	0.0082
0.8753	333	0.986	0.0113
0.8824	343	0.9912	0.0088
0.8868	363	0.9891	0.0109
0.8899	333	0.9835	0.0119
0.8918	333	0.9738	0.0134
0.8953	333	0.9798	0.018
0.8993	343	0.9927	0.0073
0.9066	333	0.9882	0.0111
0.9075	333	0.986	0.011
0.9232	343	0.9936	0.0064
0.9296	363	0.9744	0.0131

System: 1,2,3-tri(cis-9-octadecenoyl)glycerol + sulfur hexafluoride; phases: Liquid, Gas
Property: Vapor or sublimation pressure, kPa (Liquid); method: Closed cell (Static) method
Mole fraction of sulfur hexafluoride	Temperature, K	Vapor or sublimation pressure, kPa	uncertainty
0.225	333	2700	200
0.2641	333	5000	300
0.3618	343	2500	200
0.9032	333	5300	300
0.912	343	6400	300
0.9337	343	41200	2100
0.9385	343	31700	1600
0.9476	343	16900	900
0.9542	333	47200	2400
0.9548	333	11300	600
0.9588	333	11600	600
0.9591	343	20900	1100
0.9596	343	27400	1400
0.9636	333	11600	600
0.964	333	31600	1600
0.9643	343	50900	2600
0.9664	333	20400	1000
0.9716	343	7700	400
0.975	333	37300	1900
0.9772	333	20300	1000

System: 1,2,3-tri(cis-9-octadecenoyl)glycerol + sulfur hexafluoride; phases: Gas, Liquid
Property: Mole fraction of sulfur hexafluoride (Gas); method: gas volume
Mole fraction of sulfur hexafluoride	Temperature, K	Mole fraction of sulfur hexafluoride	uncertainty
0.225	333	0.9216	0.0203
0.2641	333	0.9238	0.0203
0.3618	343	0.9179	0.0202
0.9032	333	0.9321	0.0679
0.912	343	0.9195	0.0805
0.9337	343	0.3128	0.0217
0.9385	343	0.3214	0.1298
0.9476	343	0.3193	0.3193
0.9542	333	0.3333	0.3333
0.9548	333	0.6722	0.1535
0.9588	333	0.5214	0.2167
0.9591	343	0.3183	0.3183
0.9596	343	0.2979	0.2979
0.9636	333	0.5455	0.188
0.964	333	0.321	0.295
0.9643	343	0.3049	0.0424
0.9664	333	0.3047	0.2914
0.9716	343	0.4666	0.1267
0.975	333	0.3243	0.2129
0.9772	333	0.2987	0.1966
