Measured thermophysical data. Solubility of CO2 in the Ionic Liquids [TBMN][MeSO4] and [TBMP][MeSO4]
Source: J. Chem. Eng. Data, 2012, 10.1021/je3002514
Compound 1: carbon dioxide, CO2, InChI=1S/CO2/c2-1-3, purity 99.995%
Compound 2: tributylmethylphosphonium methyl sulfate, C14H33O4PS, InChI=1S/C13H30P.CH4O4S/c1-5-8-11-14(4,12-9-6-2)13-10-7-3;1-5-6(2,3)4/h5-13H2,1-4H3;1H3,(H,2,3,4)/q+1;/p-1, purity 95%
Compound 3: N,N-dibutyl-N-methyl-1-butanaminium methyl sulfate, C14H33NO4S, InChI=1S/C13H30N.CH4O4S/c1-5-8-11-14(4,12-9-6-2)13-10-7-3;1-5-6(2,3)4/h5-13H2,1-4H3;1H3,(H,2,3,4)/q+1;/p-1, purity 95%

System: tributylmethylphosphonium methyl sulfate; phases: Crystal, Liquid, Air at 1 atmosphere
Property: Normal melting temperature, K (Crystal); method: VISOBS
Normal melting temperature, K	uncertainty
311.1	2

System: N,N-dibutyl-N-methyl-1-butanaminium methyl sulfate; phases: Crystal, Liquid, Air at 1 atmosphere
Property: Normal melting temperature, K (Crystal); method: VISOBS
Normal melting temperature, K	uncertainty
335.1	2

System: carbon dioxide + tributylmethylphosphonium methyl sulfate; phases: Gas, Liquid
Property: Vapor or sublimation pressure, kPa (Gas); method: Closed cell (Static) method
Mole fraction of carbon dioxide	Temperature, K	Vapor or sublimation pressure, kPa	uncertainty
0.07	313.2	659	21
0.07	323.2	759	25
0.07	333.24	873	28
0.07	343.2	979	33
0.07	353.26	1089	35
0.07	363.25	1209	39
0.161	313.16	1504	27
0.161	323.14	1770	30
0.161	333.12	2040	35
0.161	343.11	2365	39
0.161	353.11	2595	43
0.161	363.13	2900	48
0.283	313.16	3089	38
0.283	323.1	3554	43
0.283	333.12	4130	49
0.283	343.14	4675	55
0.283	353.18	5250	63
0.283	363.13	5815	71
0.378	313.22	5011	52
0.378	323.15	5836	62
0.378	333.14	6657	73
0.378	343.19	7577	84
0.378	353.18	8553	99
0.378	363.3	9659	99
0.455	313.2	6746	60
0.455	323.25	8037	75
0.455	333.22	9447	91
0.455	343.24	10909	110
0.455	353.27	12640	129

System: carbon dioxide + N,N-dibutyl-N-methyl-1-butanaminium methyl sulfate; phases: Liquid, Gas
Property: Vapor or sublimation pressure, kPa (Liquid); method: Closed cell (Static) method
Temperature, K	Mole fraction of carbon dioxide	Vapor or sublimation pressure, kPa	uncertainty
338.35	0.066	1009	36
338.4	0.153	2450	47
338.4	0.368	8029	82
338.41	0.271	5138	66
343.29	0.066	1059	38
343.29	0.368	8574	88
343.4	0.153	2610	51
343.44	0.271	5493	71
348.36	0.153	2760	54
348.4	0.066	1109	41
348.4	0.368	9174	94
348.48	0.271	5837	75
353.35	0.368	9741	100
353.39	0.066	1164	43
353.45	0.153	2930	57
353.53	0.271	6228	80
358.43	0.368	10337	107
358.48	0.066	1214	45
358.48	0.153	3080	60
358.56	0.271	6558	85
363.41	0.368	10953	113
363.48	0.066	1284	47
363.49	0.153	3196	63
363.5	0.271	6914	90
368.41	0.066	1334	50
368.41	0.153	3401	67
368.45	0.368	11528	119
368.63	0.271	7319	95
