Measured thermophysical data. Solubility of Aluminum Sulfate in Near-Critical and Supercritical Water
Source: J. Chem. Eng. Data, 2012, 10.1021/je3003942
Compound 1: water, H2O, InChI=1S/H2O/h1H2, purity 99.9%
Compound 2: aluminum sulfate, Al2O12S3, InChI=1S/2Al.3H2O4S/c;;3*1-5(2,3)4/h;;3*(H2,1,2,3,4)/q2*+3;;;/p-6, purity 98%

System: water + aluminum sulfate; phases: Fluid (supercritical or subcritical phases), Crystal
Property: Mole fraction of aluminum sulfate (Fluid (supercritical or subcritical phases)); method: Absorbance, UV
Pressure, kPa	Temperature, K	Mole fraction of aluminum sulfate	uncertainty
15000	647	1.61e-05	5.2e-06
17000	627	1.65e-05	5.5e-06
17000	667	1.83e-05	5.7e-06
22100	619	2.94e-05	9.2e-06
22100	647	2.86e-05	9e-06
22100	675	2.11e-05	7.7e-06
22100	647	1.97e-05	6.2e-06
22100	647	2.35e-05	7.4e-06
22100	647	2.45e-05	7.7e-06
24600	670	2.63e-07	2.63e-07
24700	655	4.96e-05	2.58e-05
27200	627	2.9e-05	9e-06
27200	667	2.34e-05	9.8e-06
29200	647	2.6e-05	8.6e-06
