Measured thermophysical data. Aggregation Behavior of Aqueous Solutions of 1-Dodecyl-3-methylimidazolium Salts with Different Halide Anions
Source: J. Chem. Eng. Data, 2013, 10.1021/je301147k
Compound 1: water, H2O, InChI=1S/H2O/h1H2
Compound 2: 1-dodecyl-3-methylimidazolium chloride, C16H31ClN2, InChI=1S/C16H31N2.ClH/c1-3-4-5-6-7-8-9-10-11-12-13-18-15-14-17(2)16-18;/h14-16H,3-13H2,1-2H3;1H/q+1;/p-1, purity 99%
Compound 3: 1-dodecyl-3-methylimidazolium bromide, C16H31BrN2, InChI=1S/C16H31N2.BrH/c1-3-4-5-6-7-8-9-10-11-12-13-18-15-14-17(2)16-18;/h14-16H,3-13H2,1-2H3;1H/q+1;/p-1, purity 99%
Compound 4: 1-dodecyl-3-methylimidazolium iodide, C16H31IN2, InChI=1S/C16H31N2.HI/c1-3-4-5-6-7-8-9-10-11-12-13-18-15-14-17(2)16-18;/h14-16H,3-13H2,1-2H3;1H/q+1;/p-1, purity 99%

System: water + 1-dodecyl-3-methylimidazolium chloride; phases: Liquid, Gas
Fixed: Temperature, K = 298.2
Property: Surface tension liquid-gas, N/m (Liquid); method: Ring tensiometer
Molality, mol/kg of 1-dodecyl-3-methylimidazolium chloride	Surface tension liquid-gas, N/m	uncertainty
0.001	0.06937	0.00195
0.002	0.06346	0.00178
0.004	0.05836	0.00164
0.006	0.05385	0.00152
0.01	0.04771	0.00135
0.014	0.04305	0.00122
0.018	0.03843	0.00109
0.02	0.03826	0.00109
0.025	0.03838	0.00109
0.03	0.03861	0.00109
0.04	0.03835	0.00108
0.05	0.03855	0.00109

System: water + 1-dodecyl-3-methylimidazolium chloride; phases: Liquid
Fixed: Pressure, kPa = 100
Property: Electrical conductivity, S/m (Liquid); method: CyberScan CON1500 Bench Conductivity Meter
Temperature, K	Molality, mol/kg of 1-dodecyl-3-methylimidazolium chloride	Electrical conductivity, S/m	uncertainty
288.15	0.001	0.00787	0.00011
288.15	0.002	0.01489	0.0002
288.15	0.003	0.02193	0.0003
288.15	0.004	0.02893	0.0004
288.15	0.005	0.03554	0.00051
288.15	0.006	0.0433	0.0006
288.15	0.007	0.04915	0.00067
288.15	0.008	0.05621	0.0008
288.15	0.009	0.06329	0.00085
288.15	0.01	0.06882	0.00095
288.15	0.011	0.07636	0.0011
288.15	0.012	0.08316	0.00111
288.15	0.013	0.08863	0.00118
288.15	0.014	0.09505	0.00125
288.15	0.015	0.1002	0.0013
288.15	0.016	0.105	0.0012
288.15	0.017	0.1073	0.0012
288.15	0.018	0.1112	0.0013
288.15	0.019	0.115	0.0013
288.15	0.02	0.1172	0.0013
288.15	0.021	0.1197	0.0013
288.15	0.022	0.1222	0.0014
288.15	0.023	0.1254	0.0014
288.15	0.024	0.1278	0.0014
288.15	0.025	0.1308	0.0015
293.15	0.001	0.008772	0.000117
293.15	0.002	0.01656	0.00023
293.15	0.003	0.02455	0.00034
293.15	0.004	0.03242	0.00045
293.15	0.005	0.04007	0.00056
293.15	0.006	0.04808	0.00065
293.15	0.007	0.0548	0.0008
293.15	0.008	0.06369	0.00091
293.15	0.009	0.07107	0.00095
293.15	0.01	0.07783	0.00108
293.15	0.011	0.08611	0.00121
293.15	0.012	0.09341	0.00122
293.15	0.013	0.09906	0.00129
293.15	0.014	0.1061	0.0014
293.15	0.015	0.1123	0.0014
293.15	0.016	0.1175	0.0013
293.15	0.017	0.1205	0.0014
293.15	0.018	0.1248	0.0014
293.15	0.019	0.1286	0.0014
293.15	0.02	0.1315	0.0014
293.15	0.021	0.1345	0.0015
293.15	0.022	0.1374	0.0015
293.15	0.023	0.1406	0.0016
293.15	0.024	0.1436	0.0016
293.15	0.025	0.1466	0.0018
298.15	0.001	0.009917	0.000132
298.15	0.002	0.01866	0.00026
298.15	0.003	0.02735	0.00038
298.15	0.004	0.03666	0.00051
298.15	0.005	0.04482	0.00062
298.15	0.006	0.05398	0.00074
298.15	0.007	0.0617	0.0009
298.15	0.008	0.07102	0.00101
298.15	0.009	0.07952	0.00108
298.15	0.01	0.08711	0.00121
298.15	0.011	0.09637	0.00139
298.15	0.012	0.1052	0.0014
298.15	0.013	0.1121	0.0014
298.15	0.014	0.1185	0.0015
298.15	0.015	0.1258	0.0016
298.15	0.016	0.1312	0.0015
298.15	0.017	0.1355	0.0015
298.15	0.018	0.14	0.002
298.15	0.019	0.1436	0.0016
298.15	0.02	0.1462	0.0016
298.15	0.021	0.1505	0.0017
298.15	0.022	0.1544	0.0018
298.15	0.023	0.1584	0.0018
298.15	0.024	0.1624	0.0018
298.15	0.025	0.1656	0.0019
303.15	0.001	0.01095	0.00015
303.15	0.002	0.02069	0.00028
303.15	0.003	0.0304	0.0004
303.15	0.004	0.04076	0.00057
303.15	0.005	0.05033	0.00069
303.15	0.006	0.05984	0.00081
303.15	0.007	0.06868	0.00095
303.15	0.008	0.07867	0.00112
303.15	0.009	0.08845	0.00118
303.15	0.01	0.09612	0.00134
303.15	0.011	0.1072	0.0016
303.15	0.012	0.1167	0.0016
303.15	0.013	0.1244	0.0016
303.15	0.014	0.1323	0.0017
303.15	0.015	0.1399	0.0017
303.15	0.016	0.1451	0.0017
303.15	0.017	0.1505	0.0017
303.15	0.018	0.1549	0.0018
303.15	0.019	0.1599	0.0018
303.15	0.02	0.1645	0.0019
303.15	0.021	0.1689	0.0019
303.15	0.022	0.1734	0.002
303.15	0.023	0.178	0.002
303.15	0.024	0.1812	0.002
303.15	0.025	0.1853	0.0021

System: water + 1-dodecyl-3-methylimidazolium bromide; phases: Liquid, Gas
Fixed: Temperature, K = 298.2
Property: Surface tension liquid-gas, N/m (Liquid); method: Ring tensiometer
Molality, mol/kg of 1-dodecyl-3-methylimidazolium bromide	Surface tension liquid-gas, N/m	uncertainty
0.0005	0.06838	0.00192
0.001	0.06244	0.00176
0.002	0.05812	0.00164
0.004	0.05139	0.00145
0.006	0.0437	0.0012
0.008	0.04035	0.00115
0.01	0.03683	0.00105
0.012	0.03651	0.00104
0.014	0.03656	0.00104
0.016	0.03665	0.00104
0.018	0.0366	0.001
0.02	0.03657	0.00104
0.025	0.03654	0.00104
0.03	0.03648	0.00103
0.04	0.03667	0.00104
0.05	0.03667	0.00104

System: water + 1-dodecyl-3-methylimidazolium bromide; phases: Liquid
Fixed: Pressure, kPa = 100
Property: Electrical conductivity, S/m (Liquid); method: CyberScan CON1500 Bench Conductivity Meter
Temperature, K	Molality, mol/kg of 1-dodecyl-3-methylimidazolium bromide	Electrical conductivity, S/m	uncertainty
288.15	0.001	0.007688	0.000146
288.15	0.002	0.01566	0.00029
288.15	0.003	0.02239	0.00042
288.15	0.004	0.03022	0.00057
288.15	0.005	0.03791	0.0007
288.15	0.006	0.04454	0.00083
288.15	0.007	0.05203	0.00097
288.15	0.008	0.05886	0.00108
288.15	0.009	0.06568	0.00119
288.15	0.01	0.07165	0.00125
288.15	0.011	0.07576	0.00125
288.15	0.012	0.07762	0.00126
288.15	0.013	0.07994	0.0013
288.15	0.014	0.08143	0.00132
288.15	0.015	0.0837	0.0014
288.15	0.016	0.08544	0.00139
288.15	0.017	0.08736	0.00141
288.15	0.018	0.0882	0.0014
288.15	0.019	0.08934	0.00145
288.15	0.02	0.09127	0.00148
288.15	0.021	0.09226	0.00149
288.15	0.022	0.09348	0.00151
288.15	0.023	0.0948	0.0015
288.15	0.024	0.0964	0.0016
288.15	0.025	0.09848	0.00165
293.15	0.001	0.008985	0.00017
293.15	0.002	0.01809	0.00033
293.15	0.003	0.02607	0.00048
293.15	0.004	0.0345	0.0006
293.15	0.005	0.04305	0.00079
293.15	0.006	0.05041	0.00093
293.15	0.007	0.05886	0.00109
293.15	0.008	0.0664	0.0012
293.15	0.009	0.07397	0.00136
293.15	0.01	0.08137	0.00141
293.15	0.011	0.08532	0.0014
293.15	0.012	0.08757	0.00143
293.15	0.013	0.09068	0.00147
293.15	0.014	0.09223	0.00149
293.15	0.015	0.09466	0.00154
293.15	0.016	0.09658	0.00157
293.15	0.017	0.09861	0.00159
293.15	0.018	0.09981	0.00161
293.15	0.019	0.1013	0.0017
293.15	0.02	0.1043	0.0017
293.15	0.021	0.1056	0.0017
293.15	0.022	0.107	0.0017
293.15	0.023	0.1087	0.0018
293.15	0.024	0.1106	0.0018
293.15	0.025	0.1119	0.0019
298.15	0.001	0.01001	0.00019
298.15	0.002	0.01985	0.00037
298.15	0.003	0.02902	0.00054
298.15	0.004	0.03857	0.00072
298.15	0.005	0.04801	0.00088
298.15	0.006	0.05629	0.00104
298.15	0.007	0.06554	0.00121
298.15	0.008	0.07407	0.00136
298.15	0.009	0.08233	0.00151
298.15	0.01	0.09093	0.00161
298.15	0.011	0.09631	0.00159
298.15	0.012	0.09864	0.00161
298.15	0.013	0.1024	0.0017
298.15	0.014	0.104	0.0017
298.15	0.015	0.1068	0.0018
298.15	0.016	0.1098	0.0018
298.15	0.017	0.1124	0.0018
298.15	0.018	0.1132	0.0018
298.15	0.019	0.1152	0.0019
298.15	0.02	0.1183	0.0019
298.15	0.021	0.12	0.002
298.15	0.022	0.1225	0.002
298.15	0.023	0.1249	0.002
298.15	0.024	0.1268	0.0021
298.15	0.025	0.1285	0.0021
303.15	0.001	0.01115	0.00021
303.15	0.002	0.02234	0.00041
303.15	0.003	0.03203	0.00059
303.15	0.004	0.04269	0.00079
303.15	0.005	0.05189	0.00096
303.15	0.006	0.06261	0.00118
303.15	0.007	0.07276	0.00135
303.15	0.008	0.08243	0.00151
303.15	0.009	0.09165	0.00168
303.15	0.01	0.1008	0.0018
303.15	0.011	0.1073	0.0018
303.15	0.012	0.111	0.0018
303.15	0.013	0.1159	0.0019
303.15	0.014	0.118	0.0019
303.15	0.015	0.1219	0.002
303.15	0.016	0.1238	0.002
303.15	0.017	0.1269	0.0021
303.15	0.018	0.129	0.0021
303.15	0.019	0.1313	0.0021
303.15	0.02	0.1342	0.0022
303.15	0.021	0.1364	0.0022
303.15	0.022	0.1389	0.0023
303.15	0.023	0.1414	0.0023
303.15	0.024	0.144	0.0024
303.15	0.025	0.1464	0.0024

System: water + 1-dodecyl-3-methylimidazolium iodide; phases: Liquid, Gas
Fixed: Temperature, K = 298.2
Property: Surface tension liquid-gas, N/m (Liquid); method: Ring tensiometer
Molality, mol/kg of 1-dodecyl-3-methylimidazolium iodide	Surface tension liquid-gas, N/m	uncertainty
0.0001	0.06981	0.00196
0.0005	0.06515	0.00183
0.001	0.0567	0.0016
0.002	0.04692	0.00133
0.003	0.03808	0.00108
0.004	0.03349	0.00096
0.005	0.03145	0.00091
0.006	0.03148	0.00091
0.007	0.03139	0.0009
0.009	0.0315	0.0009
0.012	0.0316	0.0009
0.016	0.03157	0.00091
0.02	0.03166	0.00091

System: water + 1-dodecyl-3-methylimidazolium iodide; phases: Liquid
Fixed: Pressure, kPa = 100
Property: Electrical conductivity, S/m (Liquid); method: CyberScan CON1500 Bench Conductivity Meter
Temperature, K	Molality, mol/kg of 1-dodecyl-3-methylimidazolium iodide	Electrical conductivity, S/m	uncertainty
288.15	0.0005	0.004226	7.9e-05
288.15	0.001	0.008283	0.00015
288.15	0.002	0.01506	0.00028
288.15	0.003	0.02266	0.00042
288.15	0.004	0.02921	0.00051
288.15	0.005	0.03341	0.00056
288.15	0.006	0.03596	0.00058
288.15	0.007	0.0368	0.0006
288.15	0.008	0.03776	0.00061
288.15	0.009	0.03925	0.00063
288.15	0.01	0.04003	0.00064
288.15	0.011	0.0412	0.0007
288.15	0.012	0.04205	0.00067
288.15	0.013	0.04248	0.00069
288.15	0.014	0.04409	0.00072
288.15	0.015	0.04479	0.00072
288.15	0.016	0.04583	0.00075
288.15	0.017	0.04705	0.00078
288.15	0.018	0.04831	0.00079
288.15	0.019	0.04886	0.00079
288.15	0.02	0.04961	0.0008
293.15	0.0005	0.004968	9.2e-05
293.15	0.001	0.009608	0.000172
293.15	0.002	0.01696	0.00031
293.15	0.003	0.02545	0.00047
293.15	0.004	0.0332	0.0006
293.15	0.005	0.03877	0.00065
293.15	0.006	0.04183	0.00068
293.15	0.007	0.04321	0.00069
293.15	0.008	0.04439	0.00071
293.15	0.009	0.0459	0.0007
293.15	0.01	0.04701	0.00076
293.15	0.011	0.04849	0.00079
293.15	0.012	0.05017	0.00081
293.15	0.013	0.05082	0.00082
293.15	0.014	0.05186	0.00085
293.15	0.015	0.0535	0.0009
293.15	0.016	0.05425	0.00088
293.15	0.017	0.05559	0.00091
293.15	0.018	0.05681	0.00092
293.15	0.019	0.0574	0.0009
293.15	0.02	0.05824	0.00095
298.15	0.0005	0.00565	0.0001
298.15	0.001	0.0108	0.0002
298.15	0.002	0.01908	0.00035
298.15	0.003	0.02867	0.00053
298.15	0.004	0.03734	0.00068
298.15	0.005	0.04516	0.00077
298.15	0.006	0.04829	0.00078
298.15	0.007	0.05005	0.0008
298.15	0.008	0.05163	0.00083
298.15	0.009	0.05319	0.00086
298.15	0.01	0.05434	0.00087
298.15	0.011	0.0558	0.0009
298.15	0.012	0.0576	0.0009
298.15	0.013	0.05887	0.00095
298.15	0.014	0.05997	0.00097
298.15	0.015	0.06161	0.00101
298.15	0.016	0.06307	0.00103
298.15	0.017	0.06449	0.00106
298.15	0.018	0.06605	0.00107
298.15	0.019	0.0667	0.0011
298.15	0.02	0.06774	0.00111
303.15	0.0005	0.006184	0.000113
303.15	0.001	0.01179	0.00021
303.15	0.002	0.02111	0.00039
303.15	0.003	0.03157	0.00059
303.15	0.004	0.04125	0.00076
303.15	0.005	0.05061	0.00088
303.15	0.006	0.05519	0.00091
303.15	0.007	0.05792	0.00093
303.15	0.008	0.05947	0.00096
303.15	0.009	0.06145	0.00099
303.15	0.01	0.06336	0.00103
303.15	0.011	0.06529	0.00106
303.15	0.012	0.0672	0.0011
303.15	0.013	0.06868	0.00111
303.15	0.014	0.06988	0.00113
303.15	0.015	0.07119	0.00115
303.15	0.016	0.07278	0.00118
303.15	0.017	0.07393	0.0012
303.15	0.018	0.07581	0.00125
303.15	0.019	0.07737	0.00125
303.15	0.02	0.07836	0.00126
