Measured thermophysical data. Activity Coefficients and Excess Gibbs Energies for Binary Mixtures of N-Methyl-2-pyrrolidone with Some Substituted Ethanols
Source: J. Chem. Eng. Data, 2012, 10.1021/je3002078
Compound 1: N-methylpyrrolidone, C5H9NO, InChI=1S/C5H9NO/c1-6-4-2-3-5(6)7/h2-4H2,1H3, purity 99.5%
Compound 2: 2-aminoethan-1-ol, C2H7NO, InChI=1S/C2H7NO/c3-1-2-4/h4H,1-3H2, purity 99.5%
Compound 3: 1-chloro-2-hydroxyethane, C2H5ClO, InChI=1S/C2H5ClO/c3-1-2-4/h4H,1-2H2, purity 99.5%
Compound 4: 2-phenylethanol, C8H10O, InChI=1S/C8H10O/c9-7-6-8-4-2-1-3-5-8/h1-5,9H,6-7H2, purity 99.5%

System: N-methylpyrrolidone; phases: Liquid, Gas
Property: Vapor or sublimation pressure, kPa (Liquid); method: Ebulliometric method (Recirculating still)
Temperature, K	Vapor or sublimation pressure, kPa	uncertainty
474.01	95.3	7.1475

System: N-methylpyrrolidone; phases: Liquid
Fixed: Pressure, kPa = 101.325
Property: Mass density, kg/m3 (Liquid); method: Vibrating tube method
Temperature, K	Mass density, kg/m3	uncertainty
303.15	1023.45	0.51
308.15	1013.34	0.51

System: 2-aminoethan-1-ol; phases: Liquid, Gas
Property: Vapor or sublimation pressure, kPa (Liquid); method: Ebulliometric method (Recirculating still)
Temperature, K	Vapor or sublimation pressure, kPa	uncertainty
442.28	95.3	7.1475

System: 2-aminoethan-1-ol; phases: Liquid
Fixed: Pressure, kPa = 101.325
Property: Mass density, kg/m3 (Liquid); method: Vibrating tube method
Temperature, K	Mass density, kg/m3	uncertainty
303.15	1008.12	0.51
308.15	1005.08	0.51

System: 1-chloro-2-hydroxyethane; phases: Liquid, Gas
Property: Vapor or sublimation pressure, kPa (Liquid); method: Ebulliometric method (Recirculating still)
Temperature, K	Vapor or sublimation pressure, kPa	uncertainty
399.89	95.3	7.1475

System: 1-chloro-2-hydroxyethane; phases: Liquid
Fixed: Pressure, kPa = 101.325
Property: Mass density, kg/m3 (Liquid); method: Vibrating tube method
Temperature, K	Mass density, kg/m3	uncertainty
303.15	1192.48	0.53
308.15	1186.44	0.53

System: 2-phenylethanol; phases: Liquid, Gas
Property: Vapor or sublimation pressure, kPa (Liquid); method: Ebulliometric method (Recirculating still)
Temperature, K	Vapor or sublimation pressure, kPa	uncertainty
489.79	95.3	7.1475

System: 2-phenylethanol; phases: Liquid
Fixed: Pressure, kPa = 101.325
Property: Mass density, kg/m3 (Liquid); method: Vibrating tube method
Temperature, K	Mass density, kg/m3	uncertainty
303.15	1012.65	0.51
308.15	1008.68	0.51

System: 2-aminoethan-1-ol + N-methylpyrrolidone; phases: Liquid, Gas
Fixed: Pressure, kPa = 95.3
Property: Boiling temperature at pressure P, K (Liquid); method: Ebulliometric method (Recirculating still)
Mole fraction of N-methylpyrrolidone	Boiling temperature at pressure P, K	uncertainty
0	442.28	1.5
0.065	444.2	1.5
0.1352	446.21	1.5
0.2114	448.36	1.5
0.2943	450.67	1.5
0.3848	453.21	1.5
0.4841	456.06	1.5
0.5934	459.35	1.5
0.7145	463.28	1.5
0.8492	468.11	1.5
1	474.01	1.5

System: 1-chloro-2-hydroxyethane + N-methylpyrrolidone; phases: Liquid, Gas
Fixed: Pressure, kPa = 95.3
Property: Boiling temperature at pressure P, K (Liquid); method: Ebulliometric method (Recirculating still)
Mole fraction of N-methylpyrrolidone	Boiling temperature at pressure P, K	uncertainty
0	399.89	1.5
0.0719	403.91	1.5
0.1485	406.26	1.5
0.2301	408.99	1.5
0.3174	412.25	1.5
0.4108	416.2	1.5
0.5112	421.16	1.5
0.6194	427.63	1.5
0.7361	436.58	1.5
0.8626	450.32	1.5
1	474.01	1.5

System: 2-phenylethanol + N-methylpyrrolidone; phases: Liquid, Gas
Fixed: Pressure, kPa = 95.3
Property: Boiling temperature at pressure P, K (Liquid); method: Ebulliometric method (Recirculating still)
Mole fraction of N-methylpyrrolidone	Boiling temperature at pressure P, K	uncertainty
0	489.79	1.5
0.1216	488.25	1.5
0.2374	486.34	1.5
0.348	484.53	1.5
0.4536	482.83	1.5
0.5547	481.23	1.5
0.6513	479.72	1.5
0.744	478.29	1.5
0.8328	476.95	1.5
0.9181	475.68	1.5
1	474.01	1.5
