Measured thermophysical data. Vapor Liquid Equilibrium Measurements and Modeling for the Ethane (R-170) + 1,1,2,3,3,3-Hexafluoro-1-propene (R-1216) Binary System
Source: J. Chem. Eng. Data, 2012, 10.1021/je300431n
Compound 1: hexafluoropropene, C3F6, InChI=1S/C3F6/c4-1(2(5)6)3(7,8)9
Compound 2: ethane, C2H6, InChI=1S/C2H6/c1-2/h1-2H3

System: hexafluoropropene; phases: Liquid, Gas
Property: Vapor or sublimation pressure, kPa (Liquid); method: Closed cell (Static) method
Temperature, K	Vapor or sublimation pressure, kPa	uncertainty
278.2	392	14
288.22	538	14
293.96	641	14
295.42	670	14
297.93	721	14
300.38	774	14
303.08	834	14
305.4	890	14
307.9	953	14
310.38	1018	14
312.9	1087	14
315.32	1159	14
317.82	1235	14
320.3	1315	14
322.79	1398	14
325.34	1488	14
327.86	1579	14
330.38	1676	14
332.85	1776	14
335.31	1879	14
337.9	1993	15
340.34	2110	15
342.86	2230	15
347.82	2486	15

System: ethane; phases: Liquid, Gas
Property: Vapor or sublimation pressure, kPa (Liquid); method: Closed cell (Static) method
Temperature, K	Vapor or sublimation pressure, kPa	uncertainty
279.82	2793	15
282.49	2970	15
285.1	3155	15
287.43	3324	15
290.31	3542	16
292.81	3735	16
296.02	4003	16
297.72	4154	16
300.21	4379	16
302.13	4560	16
304.65	4806	17

System: ethane + hexafluoropropene; phases: Liquid, Gas
Property: Vapor or sublimation pressure, kPa (Liquid); method: Closed cell (Static) method
Mole fraction of ethane	Temperature, K	Vapor or sublimation pressure, kPa	uncertainty
0.032	303.94	1087	86
0.04	282.93	689	63
0.05	293.96	949	67
0.05	322.89	1795	88
0.055	312.9	1473	83
0.071	282.93	825	54
0.091	293.96	1154	72
0.101	303.94	1507	74
0.101	322.89	2111	88
0.11	293.96	1245	53
0.11	312.9	1822	80
0.13	322.89	2288	86
0.152	282.93	1109	48
0.172	293.96	1483	51
0.173	312.9	2144	73
0.191	303.94	1920	61
0.205	322.89	2741	79
0.221	282.93	1309	39
0.249	312.9	2516	69
0.262	293.96	1789	48
0.273	303.94	2235	55
0.296	322.89	3210	74
0.34	293.96	2036	45
0.343	282.93	1612	37
0.35	322.89	3487	74
0.361	303.94	2568	53
0.368	312.9	3081	67
0.385	322.89	3668	65
0.443	293.96	2332	46
0.47	322.89	4026	62
0.478	312.9	3570	61
0.481	282.93	1941	35
0.529	303.94	3179	52
0.543	293.96	2617	42
0.583	312.9	3975	54
0.601	303.94	3414	50
0.611	282.93	2225	33
0.63	312.9	4114	51
0.693	312.9	4343	54
0.701	312.9	4376	55
0.72	303.94	3814	50
0.75	282.93	2509	32
0.761	293.96	3207	42
0.811	303.94	4109	50
0.841	282.93	2686	32
0.86	293.96	3471	43
0.89	303.94	4376	51
0.921	303.94	4477	51
0.931	293.96	3661	42
0.95	303.94	4578	53

System: ethane + hexafluoropropene; phases: Gas, Liquid
Property: Mole fraction of ethane (Gas); method: Chromatography
Mole fraction of ethane	Temperature, K	Mole fraction of ethane	uncertainty
0.032	303.94	0.187	0.041
0.04	282.93	0.309	0.051
0.05	293.96	0.315	0.048
0.05	322.89	0.171	0.032
0.055	312.9	0.234	0.036
0.071	282.93	0.419	0.033
0.091	293.96	0.43	0.038
0.101	303.94	0.392	0.03
0.101	322.89	0.28	0.029
0.11	293.96	0.469	0.026
0.11	312.9	0.353	0.027
0.13	322.89	0.323	0.021
0.152	282.93	0.568	0.023
0.172	293.96	0.553	0.018
0.173	312.9	0.444	0.02
0.191	303.94	0.516	0.019
0.205	322.89	0.418	0.018
0.221	282.93	0.639	0.015
0.249	312.9	0.519	0.015
0.262	293.96	0.633	0.015
0.273	303.94	0.586	0.015
0.296	322.89	0.494	0.015
0.34	293.96	0.685	0.013
0.343	282.93	0.721	0.013
0.35	322.89	0.524	0.013
0.361	303.94	0.648	0.013
0.368	312.9	0.599	0.013
0.385	322.89	0.544	0.012
0.443	293.96	0.738	0.012
0.47	322.89	0.572	0.012
0.478	312.9	0.653	0.012
0.481	282.93	0.789	0.012
0.529	303.94	0.734	0.012
0.543	293.96	0.783	0.012
0.583	312.9	0.694	0.012
0.601	303.94	0.772	0.012
0.611	282.93	0.839	0.011
0.63	312.9	0.713	0.012
0.693	312.9	0.735	0.011
0.701	312.9	0.738	0.011
0.72	303.94	0.826	0.012
0.75	282.93	0.888	0.011
0.761	293.96	0.871	0.012
0.811	303.94	0.87	0.012
0.841	282.93	0.92	0.011
0.86	293.96	0.916	0.012
0.89	303.94	0.916	0.013
0.921	303.94	0.936	0.014
0.931	293.96	0.953	0.012
0.95	303.94	0.958	0.015
