Measured thermophysical data. Volumetric Properties of Short-Chain Chloroalkanes
Source: J. Chem. Eng. Data, 2012, 10.1021/je3003805
Compound 1: 1-chloropropane, C3H7Cl, InChI=1S/C3H7Cl/c1-2-3-4/h2-3H2,1H3, purity 98%
Compound 2: 2-chloropropane, C3H7Cl, InChI=1S/C3H7Cl/c1-3(2)4/h3H,1-2H3, purity 99%
Compound 3: 1-chlorobutane, C4H9Cl, InChI=1S/C4H9Cl/c1-2-3-4-5/h2-4H2,1H3, purity 99%
Compound 4: 2-chlorobutane, C4H9Cl, InChI=1S/C4H9Cl/c1-3-4(2)5/h4H,3H2,1-2H3, purity 99%
Compound 5: 1-chloro-2-methylpropane, C4H9Cl, InChI=1S/C4H9Cl/c1-4(2)3-5/h4H,3H2,1-2H3, purity 99%
Compound 6: 2-chloro-2-methylpropane, C4H9Cl, InChI=1S/C4H9Cl/c1-4(2,3)5/h1-3H3, purity 99%

System: 1-chloropropane; phases: Liquid
Property: Mass density, kg/m3 (Liquid); method: Vibrating tube method
Pressure, kPa	Temperature, K	Mass density, kg/m3	uncertainty
100	283.15	902.63	0.73
100	288.15	896.23	0.72
100	293.15	890.21	0.72
100	298.15	883.84	0.71
100	303.15	877.47	0.7
100	308.15	870.93	0.7
100	313.15	864.52	0.69
100	318.15	857.87	0.68
2000	283.15	904.69	0.74
2000	288.15	898.45	0.73
2000	293.15	892.48	0.73
2000	298.15	886.15	0.72
2000	303.15	879.88	0.71
2000	308.15	873.45	0.71
2000	313.15	867.21	0.7
2000	318.15	860.65	0.7
5000	283.15	907.93	0.75
5000	288.15	901.79	0.75
5000	293.15	895.94	0.74
5000	298.15	889.74	0.74
5000	303.15	883.66	0.73
5000	308.15	877.45	0.73
5000	313.15	871.28	0.72
5000	318.15	864.78	0.72
7000	283.15	909.98	0.76
7000	288.15	903.93	0.76
7000	293.15	898.21	0.75
7000	298.15	892.15	0.75
7000	303.15	886.15	0.74
7000	308.15	879.96	0.74
7000	313.15	873.89	0.73
7000	318.15	867.55	0.73
10000	283.15	913.08	0.77
10000	288.15	907.07	0.77
10000	293.15	901.51	0.76
10000	298.15	895.54	0.76
10000	303.15	889.67	0.76
10000	308.15	883.53	0.75
10000	313.15	877.67	0.75
10000	318.15	871.55	0.75
20000	283.15	922.59	0.81
20000	288.15	916.99	0.81
20000	293.15	911.64	0.81
20000	298.15	906.01	0.8
20000	303.15	900.59	0.8
20000	308.15	894.81	0.8
20000	313.15	889.31	0.8
20000	318.15	883.58	0.8
30000	283.15	931.43	0.84
30000	288.15	925.99	0.84
30000	293.15	920.91	0.84
30000	298.15	915.65	0.84
30000	303.15	910.36	0.84
30000	308.15	904.99	0.84
30000	313.15	899.78	0.84
30000	318.15	894.34	0.84
40000	283.15	939.52	0.86
40000	288.15	934.32	0.86
40000	293.15	929.44	0.87
40000	298.15	924.4	0.87
40000	303.15	919.39	0.87
40000	308.15	914.15	0.87
40000	313.15	909.27	0.87
40000	318.15	904.1	0.88
50000	283.15	947.07	0.88
50000	288.15	942.03	0.88
50000	293.15	937.36	0.89
50000	298.15	932.48	0.89
50000	303.15	927.7	0.89
50000	308.15	922.69	0.9
50000	313.15	918.01	0.9
50000	318.15	913.08	0.91
60000	283.15	954.12	0.89
60000	288.15	949.19	0.9
60000	293.15	944.77	0.9
60000	298.15	940.12	0.91
60000	303.15	935.41	0.91
60000	308.15	930.56	0.92
60000	313.15	926.13	0.92
60000	318.15	921.31	0.93
65000	283.15	957.51	0.89
65000	288.15	952.7	0.9
65000	293.15	948.3	0.91
65000	298.15	943.68	0.91
65000	303.15	939.08	0.92
65000	308.15	934.35	0.93
65000	313.15	929.93	0.93
65000	318.15	925.2	0.94

System: 2-chloropropane; phases: Liquid
Property: Mass density, kg/m3 (Liquid); method: Vibrating tube method
Pressure, kPa	Temperature, K	Mass density, kg/m3	uncertainty
100	283.15	875.68	0.24
100	288.15	869.67	0.24
100	293.15	862.78	0.24
100	298.15	856.08	0.24
100	303.15	849.46	0.24
100	308.15	843.35	0.24
2000	283.15	878.08	0.25
2000	288.15	872.23	0.25
2000	293.15	865.38	0.25
2000	298.15	858.81	0.25
2000	303.15	852.23	0.25
2000	308.15	846.3	0.25
5000	283.15	881.8	0.26
5000	288.15	876.01	0.26
5000	293.15	869.35	0.26
5000	298.15	862.94	0.26
5000	303.15	856.56	0.27
5000	308.15	850.7	0.27
7000	283.15	884.04	0.27
7000	288.15	878.42	0.27
7000	293.15	871.96	0.27
7000	298.15	865.59	0.27
7000	303.15	859.35	0.28
7000	308.15	853.65	0.28
10000	283.15	887.49	0.28
10000	288.15	881.91	0.28
10000	293.15	875.7	0.28
10000	298.15	869.47	0.29
10000	303.15	863.41	0.29
10000	308.15	857.84	0.29
20000	283.15	898.23	0.31
20000	288.15	893.01	0.32
20000	293.15	887.07	0.32
20000	298.15	881.27	0.33
20000	303.15	875.73	0.33
20000	308.15	870.52	0.34
30000	283.15	907.91	0.34
30000	288.15	903.04	0.35
30000	293.15	897.36	0.35
30000	298.15	891.91	0.36
30000	303.15	886.62	0.37
30000	308.15	881.67	0.37
40000	283.15	916.87	0.36
40000	288.15	912.1	0.37
40000	293.15	906.64	0.38
40000	298.15	901.57	0.38
40000	303.15	896.48	0.39
40000	308.15	891.77	0.4
50000	283.15	925.04	0.38
50000	288.15	920.44	0.39
50000	293.15	915.26	0.4
50000	298.15	910.44	0.41
50000	303.15	905.52	0.41
50000	308.15	901.08	0.42
60000	283.15	932.67	0.39
60000	288.15	928.22	0.4
60000	293.15	923.28	0.41
60000	298.15	918.62	0.42
60000	303.15	913.87	0.43
60000	308.15	909.58	0.44
65000	283.15	936.33	0.39
65000	288.15	931.95	0.4
65000	293.15	927.07	0.41
65000	298.15	922.46	0.43
65000	303.15	917.82	0.44
65000	308.15	913.53	0.45

System: 1-chlorobutane; phases: Liquid
Property: Mass density, kg/m3 (Liquid); method: Vibrating tube method
Pressure, kPa	Temperature, K	Mass density, kg/m3	uncertainty
100	283.15	897.36	0.23
100	288.15	892.04	0.24
100	293.15	886.36	0.24
100	298.15	880.82	0.24
100	303.15	875.21	0.24
100	308.15	869.76	0.24
100	313.15	863.9	0.24
100	318.15	858.39	0.24
100	323.15	852.47	0.24
100	328.15	846.87	0.24
2000	283.15	899.21	0.24
2000	288.15	893.99	0.24
2000	293.15	888.35	0.24
2000	298.15	882.9	0.24
2000	303.15	877.35	0.25
2000	308.15	871.94	0.25
2000	313.15	866.24	0.25
2000	318.15	860.79	0.25
2000	323.15	854.85	0.25
2000	328.15	849.38	0.25
5000	283.15	902.05	0.25
5000	288.15	896.87	0.25
5000	293.15	891.37	0.26
5000	298.15	886.01	0.26
5000	303.15	880.6	0.26
5000	308.15	875.3	0.26
5000	313.15	869.77	0.26
5000	318.15	864.38	0.26
5000	323.15	858.68	0.26
5000	328.15	853.41	0.27
7000	283.15	903.87	0.26
7000	288.15	898.76	0.26
7000	293.15	893.36	0.26
7000	298.15	888.03	0.27
7000	303.15	882.68	0.27
7000	308.15	877.49	0.27
7000	313.15	871.92	0.27
7000	318.15	866.7	0.27
7000	323.15	861.15	0.27
7000	328.15	855.89	0.28
10000	283.15	906.6	0.27
10000	288.15	901.58	0.27
10000	293.15	896.28	0.27
10000	298.15	890.99	0.28
10000	303.15	885.78	0.28
10000	308.15	880.77	0.28
10000	313.15	875.27	0.28
10000	318.15	870.14	0.29
10000	323.15	864.65	0.29
10000	328.15	859.47	0.29
20000	283.15	915.16	0.3
20000	288.15	910.38	0.3
20000	293.15	905.24	0.31
20000	298.15	900.33	0.31
20000	303.15	895.41	0.31
20000	308.15	890.56	0.32
20000	313.15	885.35	0.32
20000	318.15	880.62	0.33
20000	323.15	875.43	0.33
20000	328.15	870.67	0.34
30000	283.15	923.05	0.32
30000	288.15	918.48	0.33
30000	293.15	913.5	0.33
30000	298.15	908.81	0.34
30000	303.15	904.1	0.34
30000	308.15	899.63	0.35
30000	313.15	894.59	0.36
30000	318.15	890.1	0.36
30000	323.15	885.16	0.37
30000	328.15	880.58	0.37
40000	283.15	930.41	0.34
40000	288.15	925.97	0.35
40000	293.15	921.24	0.35
40000	298.15	916.74	0.36
40000	303.15	912.24	0.37
40000	308.15	907.72	0.37
40000	313.15	903.08	0.38
40000	318.15	898.75	0.39
40000	323.15	894.16	0.4
40000	328.15	889.73	0.4
50000	283.15	937.2	0.35
50000	288.15	932.96	0.36
50000	293.15	928.33	0.37
50000	298.15	924	0.38
50000	303.15	919.76	0.39
50000	308.15	915.48	0.4
50000	313.15	910.86	0.4
50000	318.15	906.72	0.41
50000	323.15	902.27	0.42
50000	328.15	897.97	0.43
60000	283.15	943.68	0.36
60000	288.15	939.57	0.37
60000	293.15	935	0.38
60000	298.15	930.86	0.39
60000	303.15	926.77	0.4
60000	308.15	922.6	0.41
60000	313.15	918.16	0.42
60000	318.15	914.22	0.43
60000	323.15	910	0.44
60000	328.15	905.8	0.45
65000	283.15	946.75	0.36
65000	288.15	942.66	0.37
65000	293.15	938.38	0.39
65000	298.15	934.15	0.4
65000	303.15	930.08	0.41
65000	308.15	925.91	0.42
65000	313.15	921.77	0.43
65000	318.15	917.73	0.44
65000	323.15	913.54	0.45
65000	328.15	909.45	0.46

System: 2-chlorobutane; phases: Liquid
Property: Mass density, kg/m3 (Liquid); method: Vibrating tube method
Pressure, kPa	Temperature, K	Mass density, kg/m3	uncertainty
100	283.15	884.17	0.24
100	288.15	878.94	0.24
100	293.15	872.99	0.24
100	298.15	867.31	0.24
100	303.15	861.63	0.24
100	308.15	856.25	0.24
100	313.15	850.12	0.24
100	318.15	844.59	0.24
100	323.15	838.39	0.24
100	328.15	832.81	0.24
2000	283.15	886.22	0.24
2000	288.15	881	0.24
2000	293.15	875.11	0.25
2000	298.15	869.59	0.25
2000	303.15	863.89	0.25
2000	308.15	858.73	0.25
2000	313.15	852.55	0.25
2000	318.15	847.15	0.25
2000	323.15	841.07	0.25
2000	328.15	835.59	0.25
5000	283.15	889.26	0.26
5000	288.15	884.23	0.26
5000	293.15	878.43	0.26
5000	298.15	872.97	0.26
5000	303.15	867.45	0.26
5000	308.15	862.31	0.26
5000	313.15	856.44	0.27
5000	318.15	850.8	0.27
5000	323.15	845.19	0.27
5000	328.15	839.88	0.27
7000	283.15	891.28	0.26
7000	288.15	886.25	0.27
7000	293.15	880.56	0.27
7000	298.15	875.17	0.27
7000	303.15	869.74	0.27
7000	308.15	864.71	0.27
7000	313.15	858.81	0.27
7000	318.15	853.7	0.28
7000	323.15	847.87	0.28
7000	328.15	842.66	0.28
10000	283.15	894.16	0.27
10000	288.15	889.3	0.28
10000	293.15	883.72	0.28
10000	298.15	878.41	0.28
10000	303.15	873.12	0.28
10000	308.15	868.08	0.29
10000	313.15	862.43	0.29
10000	318.15	857.33	0.29
10000	323.15	851.64	0.29
10000	328.15	846.54	0.3
20000	283.15	903.34	0.31
20000	288.15	898.71	0.31
20000	293.15	893.43	0.32
20000	298.15	888.39	0.32
20000	303.15	883.39	0.32
20000	308.15	878.72	0.33
20000	313.15	873.34	0.33
20000	318.15	868.68	0.34
20000	323.15	863.29	0.34
20000	328.15	858.56	0.34
30000	283.15	911.71	0.33
30000	288.15	907.27	0.34
30000	293.15	902.22	0.35
30000	298.15	897.49	0.35
30000	303.15	892.74	0.36
30000	308.15	888.3	0.36
30000	313.15	883.24	0.37
30000	318.15	878.85	0.37
30000	323.15	873.67	0.38
30000	328.15	869.22	0.39
40000	283.15	919.47	0.36
40000	288.15	915.2	0.36
40000	293.15	910.33	0.37
40000	298.15	905.79	0.38
40000	303.15	901.25	0.38
40000	308.15	897.03	0.39
40000	313.15	892.21	0.4
40000	318.15	887.93	0.41
40000	323.15	883.17	0.41
40000	328.15	878.94	0.42
50000	283.15	926.7	0.37
50000	288.15	922.6	0.38
50000	293.15	917.87	0.39
50000	298.15	913.53	0.4
50000	303.15	909.12	0.41
50000	308.15	905.05	0.42
50000	313.15	900.48	0.42
50000	318.15	896.41	0.43
50000	323.15	891.75	0.44
50000	328.15	887.7	0.45
60000	283.15	933.46	0.39
60000	288.15	929.48	0.39
60000	293.15	924.95	0.41
60000	298.15	920.75	0.42
60000	303.15	916.44	0.43
60000	308.15	912.57	0.43
60000	313.15	908.09	0.44
60000	318.15	904.23	0.45
60000	323.15	899.75	0.46
60000	328.15	895.82	0.47
65000	283.15	936.67	0.39
65000	288.15	932.78	0.4
65000	293.15	928.34	0.41
65000	298.15	924.15	0.42
65000	303.15	919.96	0.43
65000	308.15	916.04	0.44
65000	313.15	911.73	0.45
65000	318.15	907.86	0.46
65000	323.15	903.54	0.47
65000	328.15	899.7	0.48

System: 1-chloro-2-methylpropane; phases: Liquid
Property: Mass density, kg/m3 (Liquid); method: Vibrating tube method
Pressure, kPa	Temperature, K	Mass density, kg/m3	uncertainty
100	283.15	888.74	0.24
100	288.15	883.47	0.24
100	293.15	877.41	0.24
100	298.15	871.72	0.24
100	303.15	865.91	0.24
100	308.15	860.63	0.24
100	313.15	854.27	0.24
100	318.15	848.89	0.24
100	323.15	842.52	0.24
100	328.15	837	0.24
2000	283.15	890.75	0.24
2000	288.15	885.59	0.24
2000	293.15	879.49	0.25
2000	298.15	873.82	0.25
2000	303.15	868.26	0.25
2000	308.15	863.03	0.25
2000	313.15	856.75	0.25
2000	318.15	851.46	0.25
2000	323.15	845.19	0.25
2000	328.15	839.85	0.25
5000	283.15	893.77	0.25
5000	288.15	888.71	0.26
5000	293.15	882.8	0.26
5000	298.15	877.2	0.26
5000	303.15	871.68	0.26
5000	308.15	866.72	0.26
5000	313.15	860.48	0.26
5000	318.15	855.36	0.27
5000	323.15	849.19	0.27
5000	328.15	844.08	0.27
7000	283.15	895.72	0.26
7000	288.15	890.75	0.26
7000	293.15	884.93	0.27
7000	298.15	879.37	0.27
7000	303.15	873.97	0.27
7000	308.15	869.17	0.27
7000	313.15	862.93	0.27
7000	318.15	857.9	0.28
7000	323.15	851.95	0.28
7000	328.15	846.74	0.28
10000	283.15	898.62	0.27
10000	288.15	893.72	0.28
10000	293.15	888	0.28
10000	298.15	882.59	0.28
10000	303.15	877.32	0.28
10000	308.15	872.31	0.28
10000	313.15	866.38	0.29
10000	318.15	861.51	0.29
10000	323.15	855.62	0.29
10000	328.15	850.7	0.29
20000	283.15	907.63	0.3
20000	288.15	903.03	0.31
20000	293.15	897.62	0.31
20000	298.15	892.47	0.32
20000	303.15	887.46	0.32
20000	308.15	882.89	0.32
20000	313.15	877.3	0.33
20000	318.15	872.7	0.33
20000	323.15	867.15	0.34
20000	328.15	862.58	0.34
30000	283.15	915.91	0.33
30000	288.15	911.59	0.33
30000	293.15	906.26	0.34
30000	298.15	901.48	0.35
30000	303.15	896.65	0.35
30000	308.15	892.36	0.36
30000	313.15	887.04	0.36
30000	318.15	882.71	0.37
30000	323.15	877.47	0.38
30000	328.15	873.25	0.38
40000	283.15	923.6	0.35
40000	288.15	919.26	0.36
40000	293.15	914.31	0.36
40000	298.15	909.72	0.37
40000	303.15	905.09	0.38
40000	308.15	901.1	0.39
40000	313.15	895.94	0.39
40000	318.15	891.92	0.4
40000	323.15	886.79	0.41
40000	328.15	882.68	0.41
50000	283.15	930.74	0.36
50000	288.15	926.55	0.37
50000	293.15	921.75	0.38
50000	298.15	917.36	0.39
50000	303.15	912.92	0.4
50000	308.15	909.05	0.41
50000	313.15	904.09	0.42
50000	318.15	900.17	0.43
50000	323.15	895.27	0.44
50000	328.15	889.88	0.45
60000	283.15	937.43	0.38
60000	288.15	933.39	0.39
60000	293.15	928.75	0.4
60000	298.15	924.47	0.41
60000	303.15	920.14	0.42
60000	308.15	916.5	0.43
60000	313.15	911.72	0.44
60000	318.15	907.95	0.45
60000	323.15	903.21	0.46
60000	328.15	899.53	0.47
65000	283.15	940.6	0.38
65000	288.15	936.76	0.39
65000	293.15	932.1	0.4
65000	298.15	927.91	0.41
65000	303.15	923.66	0.42
65000	308.15	920.02	0.43
65000	313.15	915.32	0.44
65000	318.15	911.65	0.45
65000	323.15	906.99	0.47
65000	328.15	903.34	0.47

System: 2-chloro-2-methylpropane; phases: Liquid
Property: Mass density, kg/m3 (Liquid); method: Vibrating tube method
Pressure, kPa	Temperature, K	Mass density, kg/m3	uncertainty
100	283.15	855.04	0.24
100	288.15	849.49	0.24
100	293.15	842.98	0.24
100	298.15	836.8	0.24
100	303.15	830.82	0.24
100	308.15	824.5	0.24
100	313.15	818.16	0.24
100	318.15	812.44	0.24
100	323.15	805.63	0.24
2000	283.15	857.34	0.25
2000	288.15	851.9	0.25
2000	293.15	845.52	0.25
2000	298.15	839.47	0.25
2000	303.15	833.52	0.25
2000	308.15	827.85	0.25
2000	313.15	821.21	0.25
2000	318.15	815.53	0.26
2000	323.15	808.87	0.26
5000	283.15	860.89	0.26
5000	288.15	855.68	0.26
5000	293.15	849.29	0.27
5000	298.15	843.49	0.27
5000	303.15	837.7	0.27
5000	308.15	832.26	0.27
5000	313.15	825.78	0.27
5000	318.15	820.32	0.27
5000	323.15	813.81	0.28
7000	283.15	863.25	0.27
7000	288.15	858.07	0.27
7000	293.15	851.78	0.28
7000	298.15	846.04	0.28
7000	303.15	840.35	0.28
7000	308.15	835.02	0.28
7000	313.15	828.59	0.29
7000	318.15	823.22	0.29
7000	323.15	816.94	0.29
10000	283.15	866.58	0.29
10000	288.15	861.54	0.29
10000	293.15	855.47	0.29
10000	298.15	849.77	0.29
10000	303.15	844.23	0.3
10000	308.15	839.07	0.3
10000	313.15	832.78	0.3
10000	318.15	827.64	0.3
10000	323.15	821.51	0.31
20000	283.15	877.11	0.33
20000	288.15	872.26	0.33
20000	293.15	866.52	0.34
20000	298.15	861.25	0.34
20000	303.15	855.99	0.35
20000	308.15	851.28	0.35
20000	313.15	845.4	0.36
20000	318.15	840.68	0.36
20000	323.15	834.91	0.37
30000	283.15	886.39	0.36
30000	288.15	881.97	0.37
30000	293.15	876.42	0.38
30000	298.15	871.55	0.38
30000	303.15	866.5	0.39
30000	308.15	862.19	0.39
30000	313.15	856.61	0.4
30000	318.15	852.24	0.41
30000	323.15	846.65	0.41
40000	283.15	895.03	0.39
40000	288.15	890.79	0.4
40000	293.15	885.44	0.41
40000	298.15	880.72	0.42
40000	303.15	875.98	0.42
40000	308.15	871.88	0.43
40000	313.15	866.61	0.44
40000	318.15	862.53	0.45
40000	323.15	857.22	0.46
50000	283.15	903.08	0.42
50000	288.15	898.94	0.43
50000	293.15	893.59	0.44
50000	298.15	889.39	0.45
50000	303.15	884.66	0.46
50000	308.15	880.77	0.46
50000	313.15	875.72	0.47
50000	318.15	871.96	0.48
50000	323.15	866.77	0.49
60000	283.15	910.34	0.44
60000	288.15	906.48	0.45
60000	293.15	901.48	0.46
60000	298.15	897.22	0.47
60000	303.15	892.77	0.48
60000	308.15	889.06	0.49
60000	313.15	884.23	0.5
60000	318.15	880.5	0.51
60000	323.15	875.56	0.52
65000	283.15	913.66	0.45
65000	288.15	910.15	0.46
65000	293.15	905.24	0.47
65000	298.15	900.97	0.48
65000	303.15	896.61	0.49
65000	308.15	892.9	0.5
65000	313.15	888.28	0.51
65000	318.15	884.5	0.52
65000	323.15	879.7	0.54
