Measured thermophysical data. Determination and Correlation of Solubility Data and Dissolution Thermodynamic Data of l-Lactide in Different Pure Solvents
Source: J. Chem. Eng. Data, 2013, 10.1021/je301014d
Compound 1: (3R,6R)-3,6-dimethyl-1,4-dioxane-2,5-dione, C6H8O4, InChI=1S/C6H8O4/c1-3-5(7)10-4(2)6(8)9-3/h3-4H,1-2H3/t3-,4-/m1/s1, purity 98%
Compound 2: (3S,6S)-3,6-dimethyl-1,4-dioxane-2,5-dione, C6H8O4, InChI=1S/C6H8O4/c1-3-5(7)10-4(2)6(8)9-3/h3-4H,1-2H3/t3-,4-/m0/s1, purity 98%
Compound 3: ethanol, C2H6O, InChI=1S/C2H6O/c1-2-3/h3H,2H2,1H3, purity 99.5%
Compound 4: ethyl acetate, C4H8O2, InChI=1S/C4H8O2/c1-3-6-4(2)5/h3H2,1-2H3, purity 99.5%
Compound 5: acetone, C3H6O, InChI=1S/C3H6O/c1-3(2)4/h1-2H3, purity 99.5%
Compound 6: propan-2-ol, C3H8O, InChI=1S/C3H8O/c1-3(2)4/h3-4H,1-2H3, purity 99.5%
Compound 7: methanol, CH4O, InChI=1S/CH4O/c1-2/h2H,1H3, purity 99.5%
Compound 8: toluene, C7H8, InChI=1S/C7H8/c1-7-5-3-2-4-6-7/h2-6H,1H3, purity 99.5%

System: (3R,6R)-3,6-dimethyl-1,4-dioxane-2,5-dione; phases: Crystal, Liquid, Air at 1 atmosphere
Property: Molar enthalpy of transition or fusion, kJ/mol (Crystal); method: DSC
Molar enthalpy of transition or fusion, kJ/mol	uncertainty
16.21	0.404

System: (3R,6R)-3,6-dimethyl-1,4-dioxane-2,5-dione; phases: Crystal, Liquid, Air at 1 atmosphere
Property: Normal melting temperature, K (Crystal); method: DTA
Normal melting temperature, K	uncertainty
370.38	1.06

System: (3S,6S)-3,6-dimethyl-1,4-dioxane-2,5-dione; phases: Crystal, Liquid, Air at 1 atmosphere
Property: Molar enthalpy of transition or fusion, kJ/mol (Crystal); method: DSC
Molar enthalpy of transition or fusion, kJ/mol	uncertainty
16.2	0.404

System: (3S,6S)-3,6-dimethyl-1,4-dioxane-2,5-dione; phases: Crystal, Liquid, Air at 1 atmosphere
Property: Normal melting temperature, K (Crystal); method: DTA
Normal melting temperature, K	uncertainty
370.97	1.06

System: ethanol + (3S,6S)-3,6-dimethyl-1,4-dioxane-2,5-dione; phases: Liquid, Crystal
Fixed: Pressure, kPa = 101
Property: Mole fraction of (3S,6S)-3,6-dimethyl-1,4-dioxane-2,5-dione (Liquid); method: Laser beam
Temperature, K	Mole fraction of (3S,6S)-3,6-dimethyl-1,4-dioxane-2,5-dione	uncertainty
283.95	0.002805	0.000393
288.65	0.004226	0.000592
295.35	0.008778	0.00123
299.95	0.01345	0.00189
303.45	0.03098	0.00434
310.15	0.04397	0.00616
314.65	0.05691	0.00798
319.95	0.08101	0.01136
325.15	0.1147	0.0161
329.25	0.1611	0.0226
333.25	0.2578	0.0362
336.45	0.337	0.0473

System: ethyl acetate + (3S,6S)-3,6-dimethyl-1,4-dioxane-2,5-dione; phases: Liquid, Crystal
Fixed: Pressure, kPa = 101
Property: Mole fraction of (3S,6S)-3,6-dimethyl-1,4-dioxane-2,5-dione (Liquid); method: Laser beam
Temperature, K	Mole fraction of (3S,6S)-3,6-dimethyl-1,4-dioxane-2,5-dione	uncertainty
277.05	0.115	0.0161
282.35	0.1308	0.0183
287.65	0.1469	0.0206
296.15	0.1784	0.025
301.65	0.1993	0.0279
305.15	0.2211	0.031
308.35	0.242	0.0339
313.15	0.2718	0.0381
318.25	0.3107	0.0435
324.95	0.3693	0.0517
331.35	0.4359	0.0611
336.35	0.4914	0.0689

System: acetone + (3S,6S)-3,6-dimethyl-1,4-dioxane-2,5-dione; phases: Liquid, Crystal
Fixed: Pressure, kPa = 101
Property: Mole fraction of (3S,6S)-3,6-dimethyl-1,4-dioxane-2,5-dione (Liquid); method: Laser beam
Temperature, K	Mole fraction of (3S,6S)-3,6-dimethyl-1,4-dioxane-2,5-dione	uncertainty
278.95	0.217	0.0304
286.95	0.2473	0.0347
290.65	0.2645	0.0371
294.65	0.283	0.0397
299.35	0.3071	0.0431
304.95	0.3346	0.0469
309.15	0.3602	0.0505
314.35	0.3939	0.0553
319.05	0.4227	0.0593
323.35	0.4552	0.0639
328.25	0.4897	0.0687

System: propan-2-ol + (3S,6S)-3,6-dimethyl-1,4-dioxane-2,5-dione; phases: Liquid, Crystal
Fixed: Pressure, kPa = 101
Property: Mole fraction of (3S,6S)-3,6-dimethyl-1,4-dioxane-2,5-dione (Liquid); method: Laser beam
Temperature, K	Mole fraction of (3S,6S)-3,6-dimethyl-1,4-dioxane-2,5-dione	uncertainty
279.65	0.008222	0.001152
290.95	0.01308	0.00183
295.65	0.01698	0.00238
299.95	0.02078	0.00291
304.15	0.02558	0.00358
309.35	0.03382	0.00474
314.15	0.04549	0.00637
318.65	0.06048	0.00847
323.65	0.0854	0.01197
329.15	0.1269	0.0178
333.15	0.1775	0.0249

System: methanol + (3S,6S)-3,6-dimethyl-1,4-dioxane-2,5-dione; phases: Liquid, Crystal
Fixed: Pressure, kPa = 101
Property: Mole fraction of (3S,6S)-3,6-dimethyl-1,4-dioxane-2,5-dione (Liquid); method: Laser beam
Temperature, K	Mole fraction of (3S,6S)-3,6-dimethyl-1,4-dioxane-2,5-dione	uncertainty
278.25	0.01526	0.00214
282.15	0.02208	0.0031
284.15	0.02309	0.00324
290.25	0.03018	0.00424
294.25	0.0373	0.00524
298.85	0.04741	0.00665
302.25	0.0614	0.00862
308.15	0.0895	0.01257
311.45	0.1164	0.0163
315.75	0.1261	0.0177
322.25	0.2042	0.0287
332.55	0.2818	0.0397
333.15	0.3367	0.0474

System: toluene + (3S,6S)-3,6-dimethyl-1,4-dioxane-2,5-dione; phases: Liquid, Crystal
Fixed: Pressure, kPa = 101
Property: Mole fraction of (3S,6S)-3,6-dimethyl-1,4-dioxane-2,5-dione (Liquid); method: Laser beam
Temperature, K	Mole fraction of (3S,6S)-3,6-dimethyl-1,4-dioxane-2,5-dione	uncertainty
278.55	0.01276	0.00179
283.65	0.02108	0.00295
286.95	0.02305	0.00323
291.15	0.02897	0.00406
298.35	0.03706	0.00519
303.15	0.04362	0.00611
308.15	0.06663	0.00933
315.95	0.08545	0.01197
321.65	0.1076	0.0151
324.25	0.1346	0.0189
326.95	0.157	0.022
