Measured thermophysical data. Liquid Liquid Equilibria of the Aqueous Two-Phase Systems Composed of the N-Ethylpyridinium Tetrafluoroborate Ionic Liquid and Ammonium Sulfate/Anhydrous Sodium Carbonate/Sodium Dihydrogen Phosphate and Water at 298.15 K
Source: J. Chem. Eng. Data, 2014, 10.1021/je301276s
Compound 1: 1-ethylpyridinium tetrafluoroborate, C7H10BF4N, InChI=1S/C7H10N.BF4/c1-2-8-6-4-3-5-7-8;2-1(3,4)5/h3-7H,2H2,1H3;/q+1;-1, purity 99%
Compound 2: sodium dihydrogen phosphate, H2NaO4P, InChI=1S/Na.H3O4P/c;1-5(2,3)4/h;(H3,1,2,3,4)/q+1;/p-1, purity 99%
Compound 3: ammonium sulfate, H8N2O4S, InChI=1S/2H3N.H2O4S/c;;1-5(2,3)4/h2*1H3;(H2,1,2,3,4), purity 99%
Compound 4: water, H2O, InChI=1S/H2O/h1H2
Compound 5: sodium carbonate, CNa2O3, InChI=1S/CH2O3.2Na/c2-1(3)4;;/h(H2,2,3,4);;/q;2*+1/p-2, purity 99%

System: 1-ethylpyridinium tetrafluoroborate + water + ammonium sulfate; phases: Liquid mixture 1, Liquid mixture 2
Fixed: Pressure, kPa = 101
Fixed: Temperature, K = 298.15
Property: Mass fraction of 1-ethylpyridinium tetrafluoroborate (Liquid mixture 1); method: Titration method
Mass fraction of ammonium sulfate	Mass fraction of 1-ethylpyridinium tetrafluoroborate	uncertainty
0.0354	0.5651	0.0159
0.0367	0.5599	0.016
0.0378	0.555	0.0161
0.0395	0.5483	0.0163
0.0406	0.5434	0.0163
0.0418	0.5388	0.0165
0.0431	0.5335	0.0165
0.0443	0.5286	0.0166
0.0459	0.5225	0.0167
0.0472	0.5174	0.0167
0.0484	0.5127	0.0169
0.0497	0.5083	0.017
0.0512	0.5023	0.0172
0.053	0.4953	0.0172
0.0549	0.4883	0.0169
0.057	0.4802	0.0168
0.0596	0.4701	0.0162
0.0612	0.4646	0.0161
0.0641	0.4549	0.0156
0.0665	0.447	0.0153
0.0684	0.4411	0.0151
0.0704	0.4345	0.0149
0.0729	0.4266	0.0146
0.0751	0.4201	0.0143
0.0786	0.4095	0.014
0.0814	0.4011	0.0139
0.0842	0.3922	0.0137
0.0877	0.3813	0.0132
0.0924	0.3678	0.0128
0.0983	0.3499	0.0123
0.1038	0.3346	0.0118
0.1099	0.3178	0.0112
0.1167	0.3001	0.0107
0.1233	0.2828	0.0101
0.1272	0.2734	0.0097
0.1336	0.2589	0.0091
0.1373	0.2514	0.0088
0.1411	0.2433	0.0087
0.1455	0.2338	0.0084
0.1523	0.2199	0.0078
0.1597	0.2066	0.0071
0.1659	0.1986	0.0069
0.1717	0.1872	0.0067
0.1793	0.1765	0.0061
0.1837	0.1712	0.0058
0.1881	0.166	0.0057
0.1926	0.1606	0.0056
0.1976	0.1542	0.0051
0.2063	0.1493	0.0051
0.2173	0.1342	0.0049
0.2244	0.1278	0.0045
0.234	0.1195	0.0042
0.2451	0.1122	0.0039
0.2581	0.1053	0.0039
0.2667	0.0944	0.0042

System: 1-ethylpyridinium tetrafluoroborate + water + ammonium sulfate; phases: Liquid mixture 1, Liquid mixture 2
Fixed: Temperature, K = 298.15
Fixed: Pressure, kPa = 101
Property: Mass fraction of ammonium sulfate (Liquid mixture 1); method: OTHER
Property: Mass fraction of 1-ethylpyridinium tetrafluoroborate (Liquid mixture 2); method: OTHER
Property: Mass fraction of ammonium sulfate (Liquid mixture 2); method: OTHER
Mass fraction of 1-ethylpyridinium tetrafluoroborate	Mass fraction of ammonium sulfate	uncertainty	Mass fraction of 1-ethylpyridinium tetrafluoroborate	uncertainty	Mass fraction of ammonium sulfate	uncertainty
0.6542	0.0246	0.02	0.1348	0.0202	0.2154	
0.71	0.0183	0.0183	0.113	0.0201	0.2329	
0.6204	0.029	0.02	0.1728	0.0203	0.1884	

System: 1-ethylpyridinium tetrafluoroborate + sodium carbonate + water; phases: Liquid mixture 1, Liquid mixture 2
Fixed: Pressure, kPa = 101
Fixed: Temperature, K = 298.15
Property: Mass fraction of 1-ethylpyridinium tetrafluoroborate (Liquid mixture 1); method: Titration method
Mass fraction of sodium carbonate	Mass fraction of 1-ethylpyridinium tetrafluoroborate	uncertainty
0.0019	0.7746	0.103
0.0031	0.6592	0.0284
0.0046	0.6286	0.0547
0.0086	0.5866	0.0239
0.0099	0.5719	0.0238
0.0112	0.5622	0.0234
0.0123	0.5536	0.0218
0.0134	0.5407	0.0222
0.0146	0.5323	0.0213
0.0157	0.5239	0.0199
0.0173	0.5144	0.0204
0.0185	0.5064	0.0205
0.0195	0.4984	0.0202
0.0205	0.4913	0.0201
0.0215	0.4843	0.0199
0.0236	0.4733	0.0184
0.0246	0.4663	0.0181
0.0264	0.457	0.0178
0.0283	0.4472	0.0173
0.0301	0.4381	0.017
0.0317	0.4298	0.0166
0.0334	0.4213	0.0163
0.0356	0.4113	0.0156
0.0379	0.4012	0.0152
0.0401	0.3916	0.0149
0.0423	0.3821	0.014
0.0475	0.3636	0.0138
0.0503	0.3497	0.0139
0.0534	0.338	0.0129
0.0561	0.3277	0.0126
0.0592	0.3165	0.0122
0.0624	0.3048	0.012
0.0645	0.2969	0.0118
0.0656	0.2916	0.0117
0.0692	0.2795	0.0111
0.0709	0.2728	0.0109
0.0748	0.26	0.0105
0.0769	0.2525	0.0104
0.08	0.2423	0.01
0.0836	0.2306	0.0096
0.0871	0.2198	0.0075
0.0958	0.2099	0.007
0.0976	0.2071	0.0072
0.0993	0.2044	0.008
0.1023	0.1938	0.0085
0.1044	0.1891	0.0078
0.1063	0.1859	0.0076
0.1094	0.1758	0.0076
0.1117	0.1716	0.0064
0.1139	0.1679	0.0062
0.1163	0.1639	0.0067
0.1195	0.1557	0.0065
0.1222	0.151	0.0055
0.1275	0.1442	0.0054
0.1305	0.1384	0.0058
0.1337	0.1326	0.0056
0.137	0.1264	0.0054
0.1409	0.1201	0.0046
0.1468	0.1147	0.0042

System: 1-ethylpyridinium tetrafluoroborate + sodium carbonate + water; phases: Liquid mixture 2, Liquid mixture 1
Fixed: Temperature, K = 298.15
Fixed: Pressure, kPa = 101
Property: Mass fraction of sodium carbonate (Liquid mixture 2); method: OTHER
Property: Mass fraction of sodium carbonate (Liquid mixture 1); method: OTHER
Property: Mass fraction of 1-ethylpyridinium tetrafluoroborate (Liquid mixture 1); method: OTHER
Mass fraction of 1-ethylpyridinium tetrafluoroborate	Mass fraction of sodium carbonate	uncertainty	Mass fraction of sodium carbonate	uncertainty	Mass fraction of 1-ethylpyridinium tetrafluoroborate	uncertainty
0.1289	0.1329	0.0202	0.011	0.011	0.5692	
0.0933	0.1519	0.0203	0.0084	0.0084	0.5998	
0.1198	0.1375	0.0202	0.0109	0.0109	0.5711	

System: 1-ethylpyridinium tetrafluoroborate + sodium dihydrogen phosphate + water; phases: Liquid mixture 1, Liquid mixture 2
Fixed: Pressure, kPa = 101
Fixed: Temperature, K = 298.15
Property: Mass fraction of 1-ethylpyridinium tetrafluoroborate (Liquid mixture 1); method: Titration method
Mass fraction of sodium dihydrogen phosphate	Mass fraction of 1-ethylpyridinium tetrafluoroborate	uncertainty
0.0143	0.7706	0.0535
0.0184	0.6619	0.0312
0.0235	0.6321	0.0134
0.0338	0.6055	0.0137
0.0429	0.5725	0.0151
0.0471	0.5574	0.0148
0.0554	0.5365	0.0152
0.0633	0.5166	0.0158
0.0705	0.4982	0.0162
0.0775	0.4813	0.0156
0.0875	0.4601	0.0148
0.0997	0.4364	0.0141
0.1106	0.4151	0.0134
0.1208	0.3957	0.0128
0.1326	0.3744	0.0122
0.1431	0.3549	0.0116
0.1543	0.3353	0.011
0.1627	0.3199	0.0105
0.1722	0.3036	0.01
0.1825	0.2865	0.0094
0.1942	0.2682	0.0088
0.2091	0.2467	0.0082

System: 1-ethylpyridinium tetrafluoroborate + sodium dihydrogen phosphate + water; phases: Liquid mixture 2, Liquid mixture 1
Fixed: Temperature, K = 298.15
Fixed: Pressure, kPa = 101
Property: Mass fraction of 1-ethylpyridinium tetrafluoroborate (Liquid mixture 2); method: OTHER
Property: Mass fraction of sodium dihydrogen phosphate (Liquid mixture 1); method: OTHER
Property: Mass fraction of 1-ethylpyridinium tetrafluoroborate (Liquid mixture 1); method: OTHER
Mass fraction of sodium dihydrogen phosphate	Mass fraction of 1-ethylpyridinium tetrafluoroborate	uncertainty	Mass fraction of sodium dihydrogen phosphate	uncertainty	Mass fraction of 1-ethylpyridinium tetrafluoroborate	uncertainty
0.2216	0.2303	0.0206	0.0226	0.02	0.6656	
0.2603	0.1765	0.0203	0.0228	0.02	0.6643	
0.2738	0.1591	0.0203	0.0209	0.02	0.6749	
