Measured thermophysical data. Isobaric Vapor Liquid Equilibrium for Methanol + Dimethyl Carbonate + 1-Butyl-3-methylimidazolium Dibutylphosphate
Source: J. Chem. Eng. Data, 2013, 10.1021/je301290c
Compound 1: methanol, CH4O, InChI=1S/CH4O/c1-2/h2H,1H3, purity 99.9%
Compound 2: dimethyl carbonate, C3H6O3, InChI=1S/C3H6O3/c1-5-3(4)6-2/h1-2H3, purity 99%
Compound 3: 1-butyl-3-methylimidazolium dibutyl phosphate, C16H33N2O4P, InChI=1S/C8H15N2.C8H19O4P/c1-3-4-5-10-7-6-9(2)8-10;1-3-5-7-11-13(9,10)12-8-6-4-2/h6-8H,3-5H2,1-2H3;3-8H2,1-2H3,(H,9,10)/q+1;/p-1

System: methanol + dimethyl carbonate; phases: Gas, Liquid
Fixed: Pressure, kPa = 101.3
Property: Mole fraction of methanol (Gas); method: Chromatography
Mole fraction of methanol	Mole fraction of methanol	uncertainty
0.038	0.212	0.007
0.074	0.319	0.006
0.119	0.422	0.006
0.15	0.472	0.006
0.197	0.533	0.005
0.235	0.571	0.005
0.307	0.624	0.004
0.365	0.662	0.004
0.426	0.693	0.004
0.471	0.711	0.003
0.53	0.729	0.003
0.569	0.741	0.003
0.631	0.761	0.003
0.687	0.784	0.003
0.731	0.798	0.003
0.793	0.818	0.003
0.839	0.842	0.003
0.898	0.88	0.003
0.947	0.925	0.003

System: methanol + dimethyl carbonate; phases: Liquid, Gas
Fixed: Pressure, kPa = 101.3
Property: Boiling temperature at pressure P, K (Liquid); method: Ebulliometric method (Recirculating still)
Mole fraction of methanol	Boiling temperature at pressure P, K	uncertainty
0.038	357	0.3
0.074	353.1	0.3
0.119	349.5	0.3
0.15	347.5	0.3
0.197	345.1	0.2
0.235	343.6	0.2
0.307	341.7	0.2
0.365	340.5	0.2
0.426	339.7	0.2
0.471	338.9	0.2
0.53	338.4	0.2
0.569	337.8	0.2
0.631	337.4	0.2
0.687	337.1	0.2
0.731	337	0.2
0.793	337	0.2
0.839	336.9	0.2
0.898	337.2	0.2
0.947	337.4	0.2

System: methanol + 1-butyl-3-methylimidazolium dibutyl phosphate; phases: Liquid, Gas
Fixed: Pressure, kPa = 101.3
Property: Boiling temperature at pressure P, K (Liquid); method: Ebulliometric method (Recirculating still)
Mole fraction of 1-butyl-3-methylimidazolium dibutyl phosphate	Boiling temperature at pressure P, K	uncertainty
0.028	339.1	0.3
0.034	339.5	0.3
0.038	339.8	0.3
0.043	340.2	0.3
0.048	340.6	0.3
0.052	340.9	0.3
0.056	341.3	0.3
0.063	342	0.3
0.066	342.2	0.3
0.066	342.3	0.3
0.074	343.2	0.3
0.079	343.8	0.3
0.085	344.5	0.3
0.092	345.4	0.3
0.099	346.2	0.3
0.105	347.1	0.4
0.113	348.2	0.4
0.12	349.3	0.4
0.127	350.2	0.4
0.133	351.2	0.4
0.137	351.9	0.4
0.142	352.7	0.4
0.148	353.7	0.4
0.156	355	0.4
0.16	355.9	0.5
0.163	356.5	0.5
0.165	356.7	0.5
0.168	357.5	0.5
0.17	357.8	0.5
0.176	358.9	0.4
0.182	360.1	0.4
0.191	361.8	0.5
0.206	364.9	0.5
0.222	368.2	0.5
0.254	374.9	0.5

System: dimethyl carbonate + 1-butyl-3-methylimidazolium dibutyl phosphate; phases: Liquid, Gas
Fixed: Pressure, kPa = 101.3
Property: Boiling temperature at pressure P, K (Liquid); method: Ebulliometric method (Recirculating still)
Mole fraction of 1-butyl-3-methylimidazolium dibutyl phosphate	Boiling temperature at pressure P, K	uncertainty
0.021	362.9	0.2
0.022	362.9	0.2
0.027	363	0.2
0.031	363	0.2
0.036	363	0.2
0.039	363	0.2
0.044	363	0.2
0.05	363	0.2
0.053	363	0.2
0.059	363	0.2
0.066	363.1	0.2
0.072	363.1	0.2
0.074	363.1	0.2
0.087	363.1	0.2
0.091	363.2	0.2
0.093	363.2	0.2
0.104	363.3	0.2
0.115	363.3	0.2
0.124	363.4	0.2
0.127	363.4	0.2
0.141	363.5	0.2
0.143	363.7	0.2
0.148	363.7	0.2
0.16	363.9	0.2
0.187	364.2	0.2
0.204	364.5	0.2
0.214	364.9	0.2
0.222	365.1	0.2
0.239	365.2	0.2
0.266	365.8	0.2
0.281	366.2	0.2
0.323	367.7	0.2

System: methanol + dimethyl carbonate + 1-butyl-3-methylimidazolium dibutyl phosphate; phases: Gas, Liquid
Fixed: Pressure, kPa = 101.3
Property: Mole fraction of methanol (Gas); method: Chromatography
Solvent: Mole fraction of methanol	Mole fraction of 1-butyl-3-methylimidazolium dibutyl phosphate	Mole fraction of methanol	uncertainty
0.055	0.049	0.104	0.005
0.11	0.05	0.199	0.005
0.212	0.05	0.357	0.006
0.315	0.049	0.473	0.008
0.414	0.048	0.565	0.007
0.513	0.048	0.629	0.007
0.616	0.048	0.691	0.006
0.714	0.048	0.746	0.005
0.8	0.049	0.802	0.004
0.894	0.048	0.878	0.003
0.932	0.048	0.915	0.003
0.101	0.151	0.065	0.003
0.164	0.148	0.117	0.004
0.257	0.149	0.195	0.005
0.357	0.148	0.287	0.006
0.456	0.15	0.367	0.006
0.551	0.149	0.454	0.007
0.641	0.149	0.546	0.007
0.725	0.15	0.63	0.006
0.816	0.15	0.724	0.005
0.906	0.15	0.844	0.004
0.939	0.152	0.894	0.004
0.1	0.202	0.049	0.003
0.285	0.199	0.169	0.003
0.385	0.199	0.241	0.004
0.461	0.201	0.3	0.005
0.562	0.202	0.384	0.006
0.657	0.202	0.478	0.007
0.753	0.202	0.585	0.007
0.841	0.202	0.704	0.006
0.921	0.2	0.835	0.005
0.954	0.201	0.898	0.005

System: methanol + dimethyl carbonate + 1-butyl-3-methylimidazolium dibutyl phosphate; phases: Liquid, Gas
Fixed: Pressure, kPa = 101.3
Property: Boiling temperature at pressure P, K (Liquid); method: Ebulliometric method (Recirculating still)
Solvent: Mole fraction of methanol	Mole fraction of 1-butyl-3-methylimidazolium dibutyl phosphate	Boiling temperature at pressure P, K	uncertainty
0.055	0.049	361.3	0.3
0.11	0.05	358.4	0.3
0.212	0.05	353.5	0.3
0.315	0.049	349.3	0.3
0.414	0.048	346.3	0.3
0.513	0.048	343.9	0.3
0.616	0.048	342.1	0.3
0.714	0.048	340.9	0.3
0.8	0.049	340.3	0.3
0.894	0.048	339.9	0.3
0.932	0.048	340.2	0.3
0.101	0.151	363.3	0.2
0.164	0.148	362.3	0.3
0.257	0.149	360.6	0.3
0.357	0.148	358.5	0.3
0.456	0.15	357.1	0.3
0.551	0.149	355.7	0.3
0.641	0.149	354.5	0.3
0.725	0.15	353.8	0.3
0.816	0.15	353.4	0.4
0.906	0.15	353	0.4
0.939	0.152	353.5	0.4
0.1	0.202	364.2	0.2
0.285	0.199	362.8	0.2
0.385	0.199	361.9	0.3
0.461	0.201	361.4	0.3
0.562	0.202	360.9	0.3
0.657	0.202	360.7	0.3
0.753	0.202	360.5	0.3
0.841	0.202	360.7	0.4
0.921	0.2	361.1	0.4
0.954	0.201	361.6	0.4
