Measured thermophysical data. Measurements and Correlations of the Isobaric Vapor Liquid Equilibria of Binary Mixtures and Excess Properties for Mixtures Containing an Alkyl (Methyl, Ethyl) Butanoate with an Alkane (Heptane, Nonane) at 101.3 kPa
Source: J. Chem. Eng. Data, 2012, 10.1021/je300799f
Compound 1: heptane, C7H16, InChI=1S/C7H16/c1-3-5-7-6-4-2/h3-7H2,1-2H3, purity 99%
Compound 2: nonane, C9H20, InChI=1S/C9H20/c1-3-5-7-9-8-6-4-2/h3-9H2,1-2H3, purity 99%
Compound 3: methyl butanoate, C5H10O2, InChI=1S/C5H10O2/c1-3-4-5(6)7-2/h3-4H2,1-2H3, purity 99%
Compound 4: ethyl butanoate, C6H12O2, InChI=1S/C6H12O2/c1-3-5-6(7)8-4-2/h3-5H2,1-2H3, purity 99%

System: heptane; phases: Liquid
Property: Refractive index (Na D-line) (Liquid); method: Standard Abbe refractometry
Temperature, K	Pressure, kPa	Refractive index (Na D-line)	uncertainty
298.15	101.325	1.3853	0.0005

System: heptane; phases: Liquid, Gas
Property: Vapor or sublimation pressure, kPa (Liquid); method: Ebulliometric method (Recirculating still)
Temperature, K	Vapor or sublimation pressure, kPa	uncertainty
346.23	45	0.07
347.76	47.5	0.07
349.29	50	0.07
350.7	52.5	0.08
352.07	55	0.08
353.41	57.5	0.08
354.69	60	0.08
355.94	62.5	0.09
357.14	65	0.09
358.32	67.5	0.09
359.45	70	0.09
360.54	72.5	0.1
361.61	75	0.1
362.66	77.5	0.1
363.68	80	0.1
364.71	82.5	0.11
365.65	85	0.11
366.61	87.5	0.11
367.53	90	0.11
368.42	92.5	0.12
369.32	95	0.12
370.19	97.5	0.12
371.07	100	0.12
371.38	101.32	0.45594
371.51	101.32	0.13
372.72	105	0.13
374.31	110	0.13
375.85	115	0.14
377.34	120	0.14
378.77	125	0.15
380.18	130	0.16
381.52	135	0.16
382.84	140	0.17
384.13	145	0.17
385.36	150	0.18
386.6	155	0.18
387.78	160	0.19
388.94	165	0.19
390.08	170	0.2
391.17	175	0.2
392.25	180	0.21
393.3	185	0.21
394.34	190	0.22
395.37	195	0.22
396.37	200	0.23
397.35	205	0.23
398.29	210	0.24
399.24	215	0.24
400.17	220	0.25
401.07	225	0.26
401.97	230	0.26
402.84	235	0.27
403.72	240	0.27
404.57	245	0.28
405.42	250	0.28
406.25	255	0.29
407.05	260	0.29
407.87	265	0.3
408.65	270	0.3
409.42	275	0.31
410.22	280	0.31

System: heptane; phases: Liquid
Fixed: Pressure, kPa = 101.3
Property: Mass density, kg/m3 (Liquid); method: Vibrating tube method
Temperature, K	Mass density, kg/m3	uncertainty
288.15	688.16	0.25
288.15	688.16	0.25
298.15	679.62	0.25
298.15	679.62	0.25
308.15	670.96	0.25
308.15	670.96	0.25
318.15	662.33	0.25
318.15	662.33	0.25
328.15	653.61	0.25
328.15	653.61	0.25

System: nonane; phases: Liquid
Property: Refractive index (Na D-line) (Liquid); method: Standard Abbe refractometry
Temperature, K	Pressure, kPa	Refractive index (Na D-line)	uncertainty
298.15	101.325	1.4032	0.0005

System: nonane; phases: Liquid, Gas
Property: Vapor or sublimation pressure, kPa (Liquid); method: Ebulliometric method (Recirculating still)
Temperature, K	Vapor or sublimation pressure, kPa	uncertainty
395.53	45	0.07
397.25	47.5	0.07
398.89	50	0.07
400.5	52.5	0.07
402.04	55	0.08
403.51	57.5	0.08
404.94	60	0.08
406.33	62.5	0.08
407.66	65	0.09
408.95	67.5	0.09
410.24	70	0.09
411.45	72.5	0.09
412.64	75	0.1
413.81	77.5	0.1
414.94	80	0.1
416.07	82.5	0.1
417.16	85	0.11
418.22	87.5	0.11
419.24	90	0.11
420.25	92.5	0.11
421.24	95	0.12
422.22	97.5	0.12
423.18	100	0.12
423.87	101.32	0.12
423.9	101.32	0.45594
425.1	105	0.13
426.76	110	0.13
428.48	115	0.14
430.15	120	0.14
431.71	125	0.15
433.28	130	0.15
434.77	135	0.16
436.25	140	0.16
437.64	145	0.17
439.03	150	0.17
440.38	155	0.18
441.68	160	0.18
442.99	165	0.19
444.25	170	0.19
445.46	175	0.2
446.65	180	0.2
447.83	185	0.21
448.99	190	0.21
450.12	195	0.22
451.2	200	0.22
452.29	205	0.23
453.35	210	0.23
454.41	215	0.24
455.44	220	0.25
456.45	225	0.25
457.45	230	0.26
458.43	235	0.26
459.41	240	0.27
460.35	245	0.27
461.28	250	0.28
462.19	255	0.28
463.08	260	0.29
463.95	265	0.29
464.86	270	0.3
465.73	275	0.3
466.59	280	0.31

System: nonane; phases: Liquid
Fixed: Pressure, kPa = 101.3
Property: Mass density, kg/m3 (Liquid); method: Vibrating tube method
Temperature, K	Mass density, kg/m3	uncertainty
288.15	721.65	0.24
288.15	721.65	0.24
298.15	713.85	0.25
298.15	713.85	0.25
308.15	705.96	0.25
308.15	705.96	0.25
318.15	698.06	0.25
318.15	698.06	0.25
328.15	690.17	0.25
328.15	690.17	0.25

System: methyl butanoate; phases: Liquid
Property: Refractive index (Na D-line) (Liquid); method: Standard Abbe refractometry
Temperature, K	Pressure, kPa	Refractive index (Na D-line)	uncertainty
298.15	101.325	1.3851	0.0005

System: methyl butanoate; phases: Liquid, Gas
Property: Vapor or sublimation pressure, kPa (Liquid); method: Ebulliometric method (Recirculating still)
Temperature, K	Vapor or sublimation pressure, kPa	uncertainty
354.1	50	0.07
355.47	52.5	0.08
356.79	55	0.08
358.1	57.5	0.08
359.34	60	0.08
360.56	62.5	0.09
361.72	65	0.09
362.84	67.5	0.09
363.94	70	0.09
364.99	72.5	0.1
366.05	75	0.1
367.04	77.5	0.1
368.03	80	0.1
369	82.5	0.11
370.01	85	0.11
370.93	87.5	0.11
371.84	90	0.11
372.72	92.5	0.12
373.58	95	0.12
374.42	97.5	0.12
375.27	100	0.12
375.74	101.32	0.13
376.91	105	0.13
378.42	110	0.14
379.91	115	0.14
381.34	120	0.15
382.73	125	0.15
384.07	130	0.16
385.37	135	0.16
386.63	140	0.17
387.87	145	0.17
389.07	150	0.18
390.24	155	0.18
391.38	160	0.19
392.48	165	0.19
393.58	170	0.2
394.64	175	0.2
395.67	180	0.21
396.7	185	0.21
397.68	190	0.22
398.67	195	0.23
399.61	200	0.23
400.54	205	0.24
401.46	210	0.24
402.37	215	0.25
403.25	220	0.25
404.13	225	0.26
404.97	230	0.26
405.81	235	0.27
406.64	240	0.27
407.45	245	0.28
408.26	250	0.28
409.05	255	0.29
409.83	260	0.29
410.58	265	0.3
411.35	270	0.3
412.09	275	0.31
412.83	280	0.31

System: methyl butanoate; phases: Liquid
Fixed: Pressure, kPa = 101.3
Property: Mass density, kg/m3 (Liquid); method: Vibrating tube method
Temperature, K	Mass density, kg/m3	uncertainty
288.15	903.31	0.23
288.15	903.31	0.23
298.15	892.31	0.23
298.15	892.31	0.23
308.15	881.19	0.24
308.15	881.19	0.24
318.15	870.06	0.24
318.15	870.06	0.24
328.15	858.8	0.24
328.15	858.8	0.24

System: ethyl butanoate; phases: Liquid
Property: Refractive index (Na D-line) (Liquid); method: Standard Abbe refractometry
Temperature, K	Pressure, kPa	Refractive index (Na D-line)	uncertainty
298.15	101.325	1.3898	0.0005

System: ethyl butanoate; phases: Liquid, Gas
Property: Vapor or sublimation pressure, kPa (Liquid); method: Ebulliometric method (Recirculating still)
Temperature, K	Vapor or sublimation pressure, kPa	uncertainty
377.33	60	0.08
378.63	62.5	0.09
379.81	65	0.09
380.99	67.5	0.09
382.1	70	0.09
383.23	72.5	0.1
384.31	75	0.1
385.34	77.5	0.1
386.35	80	0.1
387.34	82.5	0.11
388.31	85	0.11
389.25	87.5	0.11
390.17	90	0.11
391.06	92.5	0.12
391.94	95	0.12
392.81	97.5	0.12
393.66	100	0.12
394.26	101.32	0.12
394.31	101.32	0.5066
395.43	105	0.13
397.05	110	0.13
398.57	115	0.14
400.1	120	0.14
401.54	125	0.15
402.99	130	0.15
404.34	135	0.16
405.62	140	0.17
406.96	145	0.17
408.22	150	0.18
409.45	155	0.18
410.61	160	0.19
411.77	165	0.19
412.95	170	0.2
414.05	175	0.21
415.01	180	0.21
416.08	185	0.21
417.14	190	0.22
418.15	195	0.22
419.14	200	0.23
420.12	205	0.23
421.1	210	0.24
422.01	215	0.25
422.94	220	0.25
423.85	225	0.25
424.79	230	0.26
425.67	235	0.27
426.53	240	0.27
427.35	245	0.28
428.2	250	0.28
429.04	255	0.29
429.84	260	0.29
430.65	265	0.3
431.42	270	0.3
432.23	275	0.31
433	280	0.31

System: ethyl butanoate; phases: Liquid
Fixed: Pressure, kPa = 101.3
Property: Mass density, kg/m3 (Liquid); method: Vibrating tube method
Temperature, K	Mass density, kg/m3	uncertainty
288.15	884.01	0.23
288.15	884.01	0.23
298.15	873.5	0.24
298.15	873.5	0.24
308.15	862.85	0.24
308.15	862.85	0.24
318.15	852.26	0.24
318.15	852.26	0.24
328.15	841.55	0.24
328.15	841.55	0.24

System: heptane + methyl butanoate; phases: Liquid, Gas
Fixed: Pressure, kPa = 101.32
Property: Boiling temperature at pressure P, K (Liquid); method: Ebulliometric method (Recirculating still)
Mole fraction of methyl butanoate	Boiling temperature at pressure P, K	uncertainty
0	371.38	0.09
0.018	370.85	0.14
0.028	370.64	0.13
0.036	370.47	0.12
0.044	370.32	0.12
0.048	370.28	0.12
0.057	370.11	0.12
0.078	369.76	0.11
0.092	369.55	0.11
0.107	369.36	0.11
0.117	369.23	0.11
0.147	368.88	0.1
0.156	368.81	0.1
0.186	368.53	0.1
0.196	368.45	0.1
0.205	368.38	0.1
0.218	368.3	0.1
0.23	368.23	0.1
0.246	368.13	0.1
0.263	368.03	0.1
0.28	367.97	0.1
0.299	367.87	0.1
0.317	367.82	0.09
0.334	367.8	0.09
0.357	367.75	0.1
0.379	367.66	0.09
0.404	367.65	0.09
0.426	367.65	0.09
0.447	367.66	0.09
0.466	367.69	0.09
0.486	367.72	0.09
0.505	367.79	0.1
0.524	367.84	0.1
0.541	367.91	0.1
0.559	367.99	0.1
0.576	368.1	0.1
0.591	368.18	0.1
0.629	368.45	0.1
0.663	368.62	0.1
0.698	368.83	0.1
0.736	369.17	0.1
0.759	369.43	0.11
0.782	369.71	0.11
0.803	370.03	0.11
0.83	370.46	0.12
0.848	370.85	0.12
0.861	371.04	0.12
0.876	371.35	0.13
0.888	371.63	0.13
0.897	371.78	0.13
0.905	372.03	0.14
0.914	372.24	0.15
0.948	373.22	0.14
0.957	373.35	0.16
0.969	373.9	0.2
0.981	374.43	0.21
0.992	374.97	0.29
1	375.74	0.09

System: heptane + methyl butanoate; phases: Gas, Liquid
Fixed: Pressure, kPa = 101.32
Property: Mole fraction of methyl butanoate (Gas); method: Density calibration data
Mole fraction of methyl butanoate	Mole fraction of methyl butanoate	uncertainty
0	0	
0.018	0.029	0.007
0.028	0.043	0.007
0.036	0.054	0.007
0.044	0.066	0.007
0.048	0.071	0.007
0.057	0.083	0.007
0.078	0.11	0.007
0.092	0.128	0.006
0.107	0.145	0.006
0.117	0.158	0.006
0.147	0.19	0.006
0.156	0.199	0.006
0.186	0.228	0.006
0.196	0.238	0.006
0.205	0.247	0.006
0.218	0.259	0.005
0.23	0.268	0.005
0.246	0.283	0.005
0.263	0.297	0.005
0.28	0.311	0.005
0.299	0.326	0.005
0.317	0.34	0.005
0.334	0.353	0.005
0.357	0.369	0.005
0.379	0.386	0.005
0.404	0.404	0.005
0.426	0.419	0.005
0.447	0.433	0.006
0.466	0.447	0.006
0.486	0.461	0.006
0.505	0.474	0.006
0.524	0.488	0.006
0.541	0.499	0.006
0.559	0.511	0.006
0.576	0.524	0.006
0.591	0.534	0.006
0.629	0.563	0.006
0.663	0.589	0.006
0.698	0.616	0.006
0.736	0.649	0.006
0.759	0.671	0.006
0.782	0.693	0.006
0.803	0.714	0.006
0.83	0.742	0.007
0.848	0.765	0.007
0.861	0.78	0.007
0.876	0.797	0.007
0.888	0.814	0.007
0.897	0.825	0.007
0.905	0.837	0.007
0.914	0.85	0.008
0.948	0.902	0.008
0.957	0.918	0.008
0.969	0.939	0.008
0.981	0.96	0.009
0.992	0.983	0.009
1	1	

System: heptane + methyl butanoate; phases: Liquid
Fixed: Pressure, kPa = 101
Property: Mass density, kg/m3 (Liquid); method: Vibrating tube method
Mole fraction of methyl butanoate	Temperature, K	Mass density, kg/m3	uncertainty
0	288.15	688.16	0.25
0	298.15	679.62	0.25
0	308.15	670.96	0.25
0	318.15	662.33	0.25
0	328.15	653.61	0.25
0.044	328.15	659.99	0.27
0.0478	288.15	695.54	0.27
0.0485	298.15	686.88	0.27
0.063	308.15	680.36	0.27
0.0768	318.15	673.72	0.27
0.0876	298.15	693	0.27
0.089	318.15	675.62	0.27
0.0921	328.15	667.12	0.27
0.094	288.15	702.79	0.27
0.117	308.15	688.78	0.27
0.1388	328.15	674.29	0.27
0.1389	298.15	701.34	0.27
0.1411	288.15	710.56	0.27
0.1535	318.15	685.7	0.27
0.187	308.15	700.22	0.27
0.189	328.15	682.37	0.27
0.2025	288.15	720.91	0.27
0.2117	318.15	695.29	0.27
0.2122	298.15	713.65	0.27
0.2476	288.15	728.91	0.27
0.2567	318.15	702.97	0.27
0.2586	298.15	721.76	0.27
0.2611	328.15	694.33	0.27
0.2996	288.15	738.37	0.27
0.3006	328.15	701.19	0.27
0.302	298.15	729.67	0.27
0.3025	308.15	720.34	0.27
0.305	318.15	711.44	0.27
0.3531	288.15	748.53	0.27
0.3544	318.15	720.36	0.27
0.3571	298.15	739.98	0.27
0.4019	298.15	748.57	0.27
0.4042	318.15	729.76	0.27
0.4098	328.15	721.06	0.27
0.4112	288.15	759.9	0.27
0.417	308.15	741.86	0.27
0.4351	318.15	735.72	0.27
0.4484	288.15	767.46	0.27
0.4492	298.15	758.07	0.27
0.4532	328.15	729.42	0.27
0.5011	318.15	748.89	0.27
0.5017	298.15	768.87	0.27
0.5023	288.15	778.63	0.27
0.5031	328.15	739.32	0.27
0.5047	308.15	759.48	0.27
0.5487	318.15	758.83	0.27
0.5522	328.15	749.41	0.27
0.5526	288.15	789.52	0.27
0.5573	298.15	780.67	0.27
0.5651	308.15	772.28	0.27
0.5933	308.15	778.47	0.28
0.5952	298.15	789.01	0.28
0.5962	318.15	768.97	0.28
0.5979	328.15	759.1	0.27
0.5984	288.15	799.7	0.27
0.6466	298.15	800.69	0.28
0.6471	288.15	810.83	0.28
0.6473	328.15	769.85	0.28
0.6532	308.15	791.9	0.28
0.6971	318.15	791.66	0.28
0.7045	308.15	803.77	0.28
0.706	328.15	783.28	0.28
0.7063	298.15	814.61	0.28
0.7077	288.15	825.2	0.28
0.7424	298.15	823.41	0.28
0.7456	328.15	792.62	0.28
0.7463	288.15	834.68	0.28
0.7469	318.15	803.4	0.28
0.7487	308.15	814.31	0.28
0.7648	308.15	818.37	0.28
0.789	308.15	824.36	0.28
0.7926	328.15	803.93	0.28
0.7973	318.15	815.75	0.28
0.798	288.15	847.73	0.28
0.7993	298.15	837.66	0.28
0.8454	318.15	827.9	0.28
0.8514	308.15	840.37	0.28
0.86	328.15	820.85	0.28
0.8623	298.15	853.85	0.28
0.8818	308.15	848.32	0.29
0.8912	288.15	872.29	0.29
0.8948	318.15	840.81	0.29
0.9015	298.15	864.37	0.29
0.9028	328.15	832.08	0.29
0.9257	308.15	860.13	0.29
0.9493	288.15	888.46	0.29
0.9507	298.15	878.23	0.29
0.9508	328.15	845.05	0.29
0.9513	318.15	856.25	0.29
0.9603	308.15	869.83	0.29
1	288.15	903.31	0.23
1	298.15	892.31	0.23
1	308.15	881.19	0.24
1	318.15	870.06	0.24
1	328.15	858.8	0.24

System: nonane + methyl butanoate; phases: Liquid, Gas
Fixed: Pressure, kPa = 101.32
Property: Boiling temperature at pressure P, K (Liquid); method: Ebulliometric method (Recirculating still)
Mole fraction of methyl butanoate	Boiling temperature at pressure P, K	uncertainty
0	423.9	0.09
0.042	418.67	0.5
0.065	415.89	0.5
0.081	413.88	0.43
0.141	407.75	0.41
0.166	405.58	0.39
0.187	403.43	0.36
0.227	400.2	0.31
0.272	397.25	0.27
0.298	395.74	0.24
0.324	394.41	0.25
0.344	393.01	0.21
0.388	391.37	0.18
0.432	389.52	0.19
0.469	388.15	0.17
0.506	386.99	0.16
0.536	385.96	0.16
0.569	385.02	0.14
0.606	384.04	0.14
0.64	383.16	0.14
0.673	382.34	0.13
0.711	381.48	0.13
0.744	380.71	0.13
0.775	380.09	0.13
0.806	379.39	0.13
0.833	378.82	0.12
0.859	378.37	0.12
0.881	377.95	0.12
0.897	377.62	0.12
0.916	377.25	0.12
0.936	376.91	0.12
0.954	376.58	0.12
0.966	376.36	0.12
0.969	376.3	0.12
1	375.74	0.09

System: nonane + methyl butanoate; phases: Gas, Liquid
Fixed: Pressure, kPa = 101.32
Property: Mole fraction of methyl butanoate (Gas); method: Density calibration data
Mole fraction of methyl butanoate	Mole fraction of methyl butanoate	uncertainty
0	0	
0.042	0.163	0.015
0.065	0.24	0.014
0.081	0.295	0.011
0.141	0.441	0.01
0.166	0.487	0.009
0.187	0.532	0.009
0.227	0.595	0.008
0.272	0.647	0.007
0.298	0.672	0.006
0.324	0.694	0.006
0.344	0.715	0.006
0.388	0.742	0.005
0.432	0.77	0.005
0.469	0.788	0.005
0.506	0.805	0.005
0.536	0.821	0.005
0.569	0.834	0.005
0.606	0.849	0.005
0.64	0.862	0.005
0.673	0.874	0.005
0.711	0.887	0.005
0.744	0.899	0.004
0.775	0.909	0.004
0.806	0.922	0.004
0.833	0.932	0.004
0.859	0.941	0.004
0.881	0.948	0.004
0.897	0.955	0.004
0.916	0.963	0.004
0.936	0.971	0.004
0.954	0.978	0.004
0.966	0.984	0.004
0.969	0.986	0.004
1	1	

System: nonane + methyl butanoate; phases: Liquid
Fixed: Pressure, kPa = 101
Property: Mass density, kg/m3 (Liquid); method: Vibrating tube method
Mole fraction of methyl butanoate	Temperature, K	Mass density, kg/m3	uncertainty
0	288.15	721.65	0.24
0	298.15	713.85	0.25
0	308.15	705.96	0.25
0	318.15	698.06	0.25
0	328.15	690.17	0.25
0.0234	318.15	700.32	0.25
0.0272	328.15	692.57	0.25
0.0495	298.15	718.76	0.25
0.0544	288.15	727.14	0.25
0.0554	308.15	711.45	0.25
0.0562	328.15	695.34	0.25
0.0731	318.15	705.17	0.25
0.078	328.15	697.49	0.25
0.0804	288.15	729.99	0.25
0.0998	298.15	724.04	0.25
0.1002	308.15	716.1	0.25
0.1033	318.15	708.28	0.25
0.1041	328.15	700.12	0.26
0.1502	328.15	704.97	0.26
0.1552	318.15	713.83	0.25
0.1647	288.15	739.66	0.25
0.1653	308.15	723.29	0.25
0.1729	298.15	732.49	0.25
0.1935	298.15	734.88	0.25
0.1993	318.15	718.91	0.26
0.2023	328.15	710.73	0.26
0.2108	308.15	728.63	0.25
0.2172	288.15	746.06	0.25
0.2378	288.15	748.63	0.26
0.2473	298.15	741.54	0.25
0.2545	308.15	734.04	0.26
0.2571	318.15	725.77	0.26
0.2654	328.15	718.16	0.26
0.2963	288.15	756.43	0.26
0.3035	298.15	748.92	0.26
0.3073	328.15	723.36	0.26
0.3082	308.15	740.93	0.26
0.3123	318.15	732.79	0.26
0.3419	288.15	762.85	0.26
0.3558	298.15	756.23	0.26
0.3568	318.15	738.79	0.26
0.3598	308.15	748.08	0.26
0.3624	328.15	730.61	0.26
0.3986	288.15	771.19	0.26
0.409	308.15	755.11	0.26
0.412	328.15	737.45	0.26
0.4135	318.15	746.74	0.26
0.4425	288.15	778.04	0.26
0.4462	298.15	769.69	0.26
0.4555	318.15	753.07	0.26
0.4567	328.15	744	0.26
0.4594	308.15	762.76	0.26
0.4993	308.15	769.14	0.26
0.5007	288.15	787.63	0.26
0.5083	328.15	751.95	0.26
0.5093	318.15	761.51	0.26
0.5488	288.15	796.09	0.26
0.5497	298.15	786.99	0.26
0.5504	308.15	777.76	0.26
0.5549	328.15	759.51	0.26
0.5565	318.15	769.3	0.26
0.6001	308.15	786.6	0.26
0.604	288.15	806.21	0.26
0.6043	318.15	777.7	0.26
0.6157	328.15	770.1	0.26
0.6465	298.15	805.02	0.27
0.6482	308.15	795.68	0.27
0.6544	318.15	787.04	0.27
0.6553	288.15	816.39	0.27
0.6554	328.15	777.42	0.27
0.6945	308.15	804.91	0.27
0.6959	288.15	824.67	0.27
0.7027	328.15	786.49	0.27
0.7067	318.15	797.4	0.27
0.7463	308.15	815.78	0.27
0.749	328.15	795.99	0.27
0.7507	288.15	836.81	0.27
0.7509	298.15	826.86	0.27
0.7541	318.15	807.31	0.27
0.7772	298.15	832.78	0.28
0.7964	308.15	827.07	0.28
0.8037	318.15	818.4	0.28
0.8038	298.15	839.14	0.28
0.8114	288.15	850.96	0.28
0.8451	308.15	838.68	0.28
0.8511	328.15	819.04	0.28
0.8553	288.15	862.13	0.28
0.8594	318.15	831.69	0.28
0.8948	308.15	851.33	0.28
0.8988	288.15	873.46	0.29
0.9051	328.15	832.64	0.28
0.9052	298.15	864.6	0.28
0.9068	318.15	843.76	0.28
0.9497	308.15	866.34	0.29
0.9506	328.15	844.76	0.29
0.9507	288.15	888.13	0.29
0.9511	318.15	855.91	0.29
0.953	298.15	878.19	0.29
1	288.15	903.31	0.23
1	298.15	892.31	0.23
1	308.15	881.19	0.24
1	318.15	870.06	0.24
1	328.15	858.8	0.24

System: ethyl butanoate + heptane; phases: Liquid, Gas
Fixed: Pressure, kPa = 101.32
Property: Boiling temperature at pressure P, K (Liquid); method: Ebulliometric method (Recirculating still)
Mole fraction of ethyl butanoate	Boiling temperature at pressure P, K	uncertainty
0	371.38	0.1
0.008	371.4	0.1
0.029	371.62	0.1
0.049	371.75	0.1
0.066	371.85	0.1
0.084	371.99	0.1
0.101	372.12	0.1
0.12	372.27	0.1
0.139	372.42	0.1
0.16	372.61	0.1
0.18	372.8	0.1
0.207	373.05	0.1
0.231	373.3	0.11
0.258	373.6	0.11
0.283	373.88	0.11
0.308	374.17	0.11
0.336	374.55	0.11
0.363	374.96	0.11
0.382	375.23	0.11
0.404	375.54	0.11
0.426	375.9	0.11
0.449	376.24	0.11
0.459	376.42	0.12
0.482	376.79	0.12
0.503	377.18	0.12
0.53	377.7	0.12
0.55	378.1	0.12
0.598	379.04	0.13
0.623	379.62	0.14
0.708	381.9	0.15
0.738	382.86	0.16
0.807	385.01	0.16
0.837	386.16	0.19
0.879	387.93	0.2
0.899	388.85	0.21
0.916	389.66	0.22
0.932	390.45	0.23
0.944	391.15	0.23
0.96	391.9	0.22
0.971	392.52	0.26
0.982	393.2	0.27
1	394.31	0.1

System: ethyl butanoate + heptane; phases: Gas, Liquid
Fixed: Pressure, kPa = 101.32
Property: Mole fraction of ethyl butanoate (Gas); method: Density calibration data
Mole fraction of ethyl butanoate	Mole fraction of ethyl butanoate	uncertainty
0	0	
0.008	0.007	0.005
0.029	0.023	0.005
0.049	0.039	0.005
0.066	0.052	0.005
0.084	0.065	0.005
0.101	0.078	0.005
0.12	0.091	0.005
0.139	0.104	0.005
0.16	0.118	0.005
0.18	0.131	0.005
0.207	0.149	0.005
0.231	0.164	0.005
0.258	0.181	0.005
0.283	0.196	0.005
0.308	0.211	0.005
0.336	0.229	0.005
0.363	0.249	0.005
0.382	0.261	0.005
0.404	0.275	0.005
0.426	0.29	0.005
0.449	0.305	0.005
0.459	0.312	0.005
0.482	0.328	0.005
0.503	0.343	0.005
0.53	0.363	0.005
0.55	0.38	0.005
0.598	0.415	0.006
0.623	0.436	0.006
0.708	0.519	0.007
0.738	0.554	0.007
0.807	0.633	0.007
0.837	0.677	0.008
0.879	0.742	0.008
0.899	0.78	0.009
0.916	0.811	0.009
0.932	0.841	0.009
0.944	0.87	0.01
0.96	0.901	0.009
0.971	0.927	0.01
0.982	0.954	0.011
1	1	

System: ethyl butanoate + heptane; phases: Liquid
Fixed: Pressure, kPa = 101
Property: Mass density, kg/m3 (Liquid); method: Vibrating tube method
Mole fraction of ethyl butanoate	Temperature, K	Mass density, kg/m3	uncertainty
0	288.15	688.16	0.25
0	298.15	679.62	0.25
0	308.15	670.96	0.25
0	318.15	662.33	0.25
0	328.15	653.61	0.25
0.0461	308.15	678.42	0.27
0.0502	288.15	696.39	0.27
0.0522	298.15	688.18	0.27
0.0532	318.15	670.78	0.27
0.0535	328.15	662.06	0.27
0.0904	298.15	694.54	0.27
0.0918	288.15	703.35	0.27
0.095	318.15	677.56	0.27
0.0952	308.15	686.44	0.27
0.0975	328.15	669.12	0.27
0.1397	318.15	684.91	0.27
0.1404	298.15	703.05	0.27
0.1445	308.15	694.69	0.27
0.1473	288.15	712.8	0.27
0.1485	328.15	677.41	0.27
0.1785	328.15	682.4	0.27
0.1901	298.15	711.58	0.27
0.2022	288.15	722.42	0.27
0.2034	308.15	704.7	0.27
0.2087	318.15	696.59	0.27
0.2367	328.15	692.21	0.27
0.2465	288.15	730.35	0.27
0.2497	308.15	712.78	0.27
0.2539	298.15	722.68	0.27
0.2565	318.15	704.87	0.27
0.288	288.15	737.84	0.27
0.2962	298.15	730.22	0.27
0.3034	328.15	703.69	0.27
0.3048	318.15	713.3	0.27
0.3081	308.15	723.17	0.27
0.3441	308.15	729.57	0.27
0.3543	298.15	740.87	0.27
0.359	328.15	713.56	0.27
0.3608	318.15	723.3	0.27
0.3987	288.15	758.41	0.27
0.4	298.15	749.31	0.27
0.4046	318.15	731.26	0.27
0.406	308.15	741.01	0.27
0.443	298.15	757.44	0.27
0.4488	288.15	767.94	0.27
0.4532	318.15	740.3	0.27
0.4538	328.15	730.76	0.27
0.4563	308.15	750.35	0.27
0.5008	288.15	778.03	0.27
0.5053	308.15	759.76	0.27
0.5065	318.15	750.34	0.27
0.5087	328.15	741	0.27
0.5456	288.15	786.84	0.27
0.5505	308.15	768.46	0.27
0.5511	328.15	749.04	0.27
0.5517	298.15	778.51	0.27
0.5517	318.15	759.04	0.27
0.6007	318.15	768.46	0.27
0.6018	298.15	788.45	0.27
0.6023	288.15	798.22	0.27
0.6038	308.15	778.99	0.27
0.6093	328.15	760.27	0.27
0.6471	328.15	767.65	0.27
0.648	298.15	797.84	0.27
0.6492	318.15	778.12	0.27
0.6498	308.15	788.17	0.27
0.6584	288.15	809.63	0.27
0.6934	318.15	787.02	0.27
0.6967	328.15	777.52	0.27
0.6976	298.15	808.02	0.27
0.6999	288.15	818.26	0.27
0.7026	308.15	798.87	0.27
0.739	318.15	796.28	0.27
0.739	328.15	786.07	0.27
0.7463	298.15	818.17	0.27
0.7486	288.15	828.54	0.27
0.7544	308.15	809.6	0.27
0.788	308.15	816.69	0.27
0.7884	298.15	827.06	0.27
0.7947	318.15	807.72	0.27
0.7999	328.15	798.54	0.27
0.8042	288.15	840.42	0.27
0.8397	328.15	806.83	0.27
0.8424	308.15	828.13	0.27
0.8473	298.15	839.64	0.27
0.8481	288.15	850.01	0.27
0.8554	318.15	820.65	0.27
0.8861	318.15	827.23	0.27
0.9009	308.15	840.82	0.27
0.901	288.15	861.58	0.27
0.9054	298.15	852.26	0.27
0.9086	328.15	821.54	0.27
0.9347	288.15	869.11	0.27
0.9512	308.15	851.86	0.27
0.9515	318.15	841.48	0.27
0.9524	298.15	862.74	0.27
0.9527	288.15	873.2	0.27
0.9533	328.15	831.27	0.27
1	288.15	884.01	0.23
1	298.15	873.5	0.24
1	308.15	862.85	0.24
1	318.15	852.26	0.24
1	328.15	841.55	0.24

System: ethyl butanoate + nonane; phases: Liquid, Gas
Fixed: Pressure, kPa = 101.32
Property: Boiling temperature at pressure P, K (Liquid); method: Ebulliometric method (Recirculating still)
Mole fraction of ethyl butanoate	Boiling temperature at pressure P, K	uncertainty
0	423.9	0.09
0.014	422.86	0.31
0.042	420.81	0.3
0.062	419.42	0.28
0.08	418.32	0.27
0.098	417.15	0.25
0.122	415.85	0.24
0.144	414.64	0.23
0.166	413.58	0.2
0.215	411.47	0.2
0.231	410.77	0.19
0.248	410.15	0.17
0.268	409.47	0.17
0.289	408.66	0.18
0.31	407.83	0.17
0.334	407.06	0.16
0.356	406.31	0.17
0.38	405.49	0.16
0.405	404.76	0.14
0.436	404.04	0.14
0.463	403.32	0.15
0.486	402.62	0.14
0.516	401.92	0.13
0.55	401.28	0.13
0.579	400.59	0.13
0.609	399.95	0.12
0.642	399.36	0.12
0.671	398.89	0.12
0.711	398.13	0.12
0.739	397.59	0.11
0.779	397.05	0.11
0.812	396.55	0.11
0.836	396.2	0.11
0.861	395.9	0.11
0.887	395.59	0.11
0.906	395.33	0.11
0.929	395.08	0.1
0.946	394.89	0.1
0.963	394.7	0.1
0.98	394.53	0.1
0.992	394.41	0.1
1	394.31	0.09

System: ethyl butanoate + nonane; phases: Gas, Liquid
Fixed: Pressure, kPa = 101.32
Property: Mole fraction of ethyl butanoate (Gas); method: Density calibration data
Mole fraction of ethyl butanoate	Mole fraction of ethyl butanoate	uncertainty
0	0	
0.014	0.039	0.011
0.042	0.112	0.011
0.062	0.163	0.011
0.08	0.204	0.01
0.098	0.244	0.009
0.122	0.289	0.009
0.144	0.33	0.008
0.166	0.364	0.007
0.215	0.43	0.007
0.231	0.451	0.007
0.248	0.47	0.007
0.268	0.491	0.007
0.289	0.513	0.007
0.31	0.539	0.007
0.334	0.562	0.007
0.356	0.582	0.006
0.38	0.605	0.006
0.405	0.625	0.006
0.436	0.647	0.006
0.463	0.665	0.006
0.486	0.684	0.006
0.516	0.706	0.006
0.55	0.724	0.005
0.579	0.744	0.006
0.609	0.763	0.005
0.642	0.78	0.005
0.671	0.797	0.005
0.711	0.821	0.005
0.739	0.841	0.005
0.779	0.86	0.005
0.812	0.879	0.005
0.836	0.896	0.005
0.861	0.908	0.005
0.887	0.925	0.005
0.906	0.938	0.005
0.929	0.951	0.005
0.946	0.963	0.005
0.963	0.974	0.005
0.98	0.985	0.005
0.992	0.994	0.005
1	1	

System: ethyl butanoate + nonane; phases: Liquid
Fixed: Pressure, kPa = 101
Property: Mass density, kg/m3 (Liquid); method: Vibrating tube method
Mole fraction of ethyl butanoate	Temperature, K	Mass density, kg/m3	uncertainty
0	288.15	721.65	0.24
0	298.15	713.85	0.25
0	308.15	705.96	0.25
0	318.15	698.06	0.25
0	328.15	690.17	0.25
0.0379	288.15	725.8	0.25
0.0435	318.15	702.45	0.25
0.0481	328.15	695.05	0.26
0.0486	298.15	719.05	0.25
0.0505	308.15	711.25	0.25
0.0818	308.15	714.63	0.25
0.0906	298.15	723.69	0.25
0.1007	298.15	724.84	0.25
0.1009	318.15	708.56	0.25
0.1046	288.15	733.19	0.25
0.1134	328.15	701.93	0.26
0.1439	318.15	713.46	0.26
0.1495	298.15	730.49	0.25
0.1502	288.15	738.59	0.25
0.1528	308.15	722.65	0.25
0.1627	328.15	707.35	0.26
0.1872	308.15	726.67	0.25
0.2001	318.15	719.85	0.26
0.2013	288.15	744.84	0.25
0.2102	328.15	712.81	0.26
0.2112	308.15	729.53	0.26
0.2442	298.15	742.05	0.25
0.2489	318.15	725.77	0.26
0.2499	288.15	751.04	0.25
0.2589	328.15	718.53	0.26
0.2818	308.15	738.36	0.26
0.2861	318.15	730.43	0.26
0.2985	298.15	749.08	0.25
0.3047	288.15	758.28	0.25
0.3111	328.15	725	0.26
0.3131	298.15	750.97	0.26
0.3302	308.15	744.66	0.26
0.3427	288.15	763.5	0.26
0.3518	298.15	756.23	0.26
0.355	318.15	739.26	0.26
0.3588	328.15	731.17	0.26
0.3685	308.15	749.81	0.26
0.3961	288.15	771.2	0.26
0.402	318.15	745.62	0.26
0.402	328.15	736.91	0.26
0.426	308.15	757.85	0.26
0.4355	288.15	776.9	0.26
0.4357	298.15	768.18	0.26
0.4556	318.15	753.18	0.26
0.4562	328.15	744.36	0.26
0.4773	308.15	765.37	0.26
0.4957	288.15	786.1	0.26
0.4988	318.15	759.53	0.26
0.5028	298.15	778.32	0.26
0.5187	308.15	771.59	0.26
0.5455	288.15	794.1	0.26
0.547	318.15	766.88	0.26
0.5511	298.15	785.92	0.26
0.5565	328.15	759.06	0.26
0.5712	308.15	779.88	0.26
0.5857	288.15	800.8	0.26
0.5974	298.15	793.57	0.26
0.5996	328.15	765.77	0.26
0.6011	318.15	775.45	0.26
0.642	308.15	791.55	0.26
0.6498	288.15	811.8	0.26
0.6524	328.15	774.29	0.26
0.656	318.15	784.53	0.26
0.6753	308.15	797.37	0.26
0.6951	318.15	791.27	0.26
0.703	298.15	811.93	0.26
0.7062	328.15	783.42	0.26
0.7067	288.15	822.09	0.26
0.726	308.15	806.38	0.26
0.746	298.15	819.92	0.26
0.752	288.15	830.65	0.26
0.7543	318.15	801.83	0.26
0.7544	328.15	791.91	0.26
0.7822	308.15	816.86	0.26
0.7879	298.15	827.92	0.26
0.7999	318.15	810.52	0.27
0.8019	288.15	840.45	0.27
0.806	328.15	801.44	0.26
0.833	308.15	826.88	0.27
0.8433	328.15	808.67	0.27
0.8485	318.15	819.97	0.27
0.8502	288.15	850.42	0.27
0.8532	298.15	841.01	0.27
0.878	308.15	836.1	0.27
0.8917	328.15	818.28	0.27
0.8947	318.15	829.27	0.27
0.904	288.15	861.91	0.27
0.9053	298.15	852.07	0.27
0.9384	308.15	848.96	0.27
0.9532	328.15	831.23	0.27
0.9545	318.15	842.03	0.27
0.9569	288.15	873.91	0.27
1	288.15	884.01	0.23
1	298.15	873.5	0.24
1	308.15	862.85	0.24
1	318.15	852.26	0.24
1	328.15	841.55	0.24
