Measured thermophysical data. Temperature and Composition Effect on CO2 Miscibility by Interfacial Tension Measurement
Source: J. Chem. Eng. Data, 2013, 10.1021/je301283e
Compound 1: carbon dioxide, CO2, InChI=1S/CO2/c2-1-3, purity 99.9%
Compound 2: heptane, C7H16, InChI=1S/C7H16/c1-3-5-7-6-4-2/h3-7H2,1-2H3, purity 99%
Compound 3: hexadecane, C16H34, InChI=1S/C16H34/c1-3-5-7-9-11-13-15-16-14-12-10-8-6-4-2/h3-16H2,1-2H3, purity 99%

System: carbon dioxide; phases: Fluid (supercritical or subcritical phases)
Property: Mass density, kg/m3 (Fluid (supercritical or subcritical phases)); method: Vibrating tube method
Temperature, K	Pressure, kPa	Mass density, kg/m3	uncertainty
313.15	340	8.2	1.4
313.15	690	15.1	1.4
313.15	1030	21.4	1.4
313.15	1380	26.7	1.4
313.15	1720	34.2	1.4
313.15	2070	38.6	1.4
313.15	2410	48.4	1.4
313.15	2760	56.7	1.4
313.15	3100	64.1	1.4
313.15	3450	72.9	1.4
313.15	3800	80.9	1.4
313.15	4140	87.5	1.4
313.15	4480	99.4	1.4
313.15	4830	109.8	1.4
313.15	5170	122	1.4
313.15	5510	134	1.4
313.15	5860	145.4	1.4
313.15	6200	158	1.5
313.15	6550	175.1	1.5
313.15	6890	194.5	1.5
313.15	7240	218.9	1.6
313.15	7580	239.9	1.7
313.15	7930	272.8	1.9
313.15	8270	315.6	2.3
313.15	8620	383.1	3
313.15	8960	478.5	3.5
313.15	9310	554.1	3.6
313.15	9650	599.1	3.7
313.15	10000	630	3.7
313.15	10340	649.1	3.7
313.15	10690	667.8	3.6
313.15	11030	682.9	3.5
313.15	11380	696.2	3.4
313.15	11720	708	3.3
313.15	12070	718.3	3.2
313.15	12410	727.4	3
313.15	12750	737.3	2.9
313.15	13100	744.1	2.8
313.15	13440	751	3
313.15	13790	757.9	2.5
313.15	14130	765.3	2.4
313.15	14480	770	2.4
313.15	14820	775.9	2.3
313.15	15160	781.5	2.2
313.15	15510	786.4	2.2
313.15	15860	791.7	2.2
313.15	16200	796.1	2.1
313.15	16550	801.2	2.1
313.15	16900	805.8	2
313.15	17240	809.8	2
333.15	340	7.7	1.4
333.15	690	13.4	1.4
333.15	1030	19.9	1.4
333.15	1380	25.1	1.4
333.15	1720	31.9	1.4
333.15	2070	38.4	1.4
333.15	2410	44.1	1.4
333.15	2760	51.2	1.4
333.15	3100	59.1	1.4
333.15	3450	65.1	1.4
333.15	3800	73.1	1.4
333.15	4140	79.7	1.4
333.15	4480	87.9	1.4
333.15	4830	96.5	1.4
333.15	5170	105.1	1.4
333.15	5510	114.2	1.4
333.15	5860	123.8	1.4
333.15	6200	133.4	1.4
333.15	6550	144.2	1.4
333.15	6890	154.3	1.5
333.15	7240	166.4	1.5
333.15	7580	178.8	1.5
333.15	7930	190.1	1.5
333.15	8270	205.2	1.6
333.15	8620	219.5	1.8
333.15	8960	235.1	2.1
333.15	9310	252.4	2.3
333.15	9650	271	2.5
333.15	10000	291.4	2.6
333.15	10340	313.6	2.6
333.15	10690	337	2.7
333.15	11030	361.9	2.7
333.15	11380	388	2.7
333.15	11720	411.1	2.7
333.15	12070	437.9	2.7
333.15	12410	463.8	2.7
333.15	12750	489.2	2.7
333.15	13100	510.1	2.6
333.15	13440	530.7	2.6
333.15	13790	549.9	2.5
333.15	14130	567.7	2.5
333.15	14480	582	2.4
333.15	14820	596	2.4
333.15	15160	609.4	2.3
333.15	15510	621	2.3
333.15	15860	627.4	2.3
333.15	16200	642.1	2.2
333.15	16550	651.8	2.2
333.15	16900	661.7	2.1
333.15	17240	669.7	2.1
353.15	340	7.4	1.4
353.15	690	13.5	1.4
353.15	1030	18.8	1.4
353.15	1380	24.6	1.4
353.15	1720	31.4	1.4
353.15	2070	36.1	1.4
353.15	2410	41.9	1.4
353.15	2760	48	1.4
353.15	3100	54.1	1.4
353.15	3450	61.4	1.4
353.15	3800	67.2	1.4
353.15	4140	73.8	1.4
353.15	4480	80.5	1.4
353.15	4830	88	1.4
353.15	5170	94.9	1.4
353.15	5510	102.4	1.4
353.15	5860	110.2	1.4
353.15	6200	118	1.4
353.15	6550	126.2	1.4
353.15	6890	134.4	1.4
353.15	7240	143.4	1.4
353.15	7580	152.1	1.4
353.15	7930	161.4	1.4
353.15	8270	171.1	1.5
353.15	8620	180.8	1.5
353.15	8960	191.1	1.5
353.15	9310	201.8	1.5
353.15	9650	211.9	1.5
353.15	10000	223.5	1.5
353.15	10340	235	1.6
353.15	10690	247.4	1.6
353.15	11030	259.8	1.6
353.15	11380	272.4	1.7
353.15	11720	283.9	1.7
353.15	12070	298.3	1.8
353.15	12410	312.1	1.9
353.15	12750	328.4	1.9
353.15	13100	342	1.9
353.15	13440	356.7	2
353.15	13790	372.8	2
353.15	14130	388.6	2
353.15	14480	403	2.1
353.15	14820	417.8	2.1
353.15	15160	433	2.1
353.15	15510	447.5	2.1
353.15	15860	461	2.1
353.15	16200	475	2.1
353.15	16550	488.1	2.1
353.15	16900	501	2.1
353.15	17240	513	2.4
373.15	340	6.5	1.4
373.15	690	10.9	1.4
373.15	1030	17.1	1.4
373.15	1380	23.2	1.4
373.15	1720	28.6	1.4
373.15	2070	32.7	1.4
373.15	2410	39.2	1.4
373.15	2760	44.8	1.4
373.15	3100	50.3	1.4
373.15	3450	56.1	1.4
373.15	3800	63.2	1.4
373.15	4140	67.9	1.4
373.15	4480	73.1	1.4
373.15	4830	80	1.4
373.15	5170	86.2	1.4
373.15	5510	93	1.4
373.15	5860	99.2	1.4
373.15	6200	106	1.4
373.15	6550	112.9	1.4
373.15	6890	120	1.4
373.15	7240	127	1.4
373.15	7580	135.4	1.4
373.15	7930	143.1	1.4
373.15	8270	151.1	1.4
373.15	8620	158.1	1.4
373.15	8960	166.1	1.4
373.15	9310	174.4	1.4
373.15	9650	182.7	1.5
373.15	10000	191.9	1.5
373.15	10340	199.4	1.5
373.15	10690	208.4	1.5
373.15	11030	217.3	1.5
373.15	11380	223.2	1.5
373.15	11720	233.1	1.5
373.15	12070	242.8	1.5
373.15	12410	252.7	1.5
373.15	12750	262.8	1.6
373.15	13100	272.5	1.6
373.15	13440	283.1	1.6
373.15	13790	293.1	1.6
373.15	14130	304.7	1.6
373.15	14480	314.9	1.6
373.15	14820	325	1.7
373.15	15160	336.1	1.7
373.15	15510	347.6	1.7
373.15	15860	358.1	1.7
373.15	16200	368.7	1.7
373.15	16550	379.8	1.8
373.15	16900	390.2	1.8
373.15	17240	400.4	2.1
393.15	340	5.7	1.4
393.15	690	9.5	1.4
393.15	1030	16.3	1.4
393.15	1380	22.1	1.4
393.15	1720	26.9	1.4
393.15	2070	32	1.4
393.15	2410	37	1.4
393.15	2760	47.5	1.4
393.15	3100	47.4	1.4
393.15	3450	52.9	1.4
393.15	3800	58.2	1.4
393.15	4140	63.6	1.4
393.15	4480	69.2	1.4
393.15	4830	74.7	1.4
393.15	5170	80.4	1.4
393.15	5510	86.2	1.4
393.15	5860	92.4	1.4
393.15	6200	98.1	1.4
393.15	6550	104.7	1.4
393.15	6890	110.5	1.4
393.15	7240	113.6	1.4
393.15	7580	123.1	1.4
393.15	7930	129.9	1.4
393.15	8270	136.2	1.4
393.15	8620	142.9	1.4
393.15	8960	149.4	1.4
393.15	9310	156.2	1.4
393.15	9650	163.2	1.4
393.15	10000	170.4	1.4
393.15	10340	176.4	1.4
393.15	10690	183.2	1.5
393.15	11030	191.1	1.5
393.15	11380	198.2	1.5
393.15	11720	203.9	1.5
393.15	12070	210.8	1.5
393.15	12410	218	1.5
393.15	12750	226.3	1.5
393.15	13100	234	1.5
393.15	13440	242.1	1.5
393.15	13790	250.9	1.5
393.15	14130	258	1.5
393.15	14480	266.4	1.5
393.15	14820	275	1.6
393.15	15160	283.9	1.6
393.15	15510	291.1	1.6
393.15	15860	300.7	1.6
393.15	16200	308.4	1.6
393.15	16550	316.8	1.6
393.15	16900	325.1	1.6
393.15	17240	333.1	1.6

System: heptane; phases: Liquid
Property: Mass density, kg/m3 (Liquid); method: Vibrating tube method
Temperature, K	Pressure, kPa	Mass density, kg/m3	uncertainty
313.15	340	667.1	1.4
313.15	690	667.5	1.4
313.15	1030	667.8	1.4
313.15	1380	668.2	1.4
313.15	1720	668.64	1.43
313.15	2070	669	1.4
313.15	2410	669.3	1.4
313.15	2760	669.8	1.4
313.15	3100	670.1	1.4
313.15	3450	670.4	1.4
313.15	3800	670.8	1.4
313.15	4140	671.2	1.4
313.15	4480	671.6	1.4
313.15	4830	671.9	1.4
313.15	5170	672.2	1.4
313.15	5510	672.6	1.4
313.15	5860	672.9	1.4
313.15	6200	673.3	1.4
313.15	6550	673.6	1.4
313.15	6890	674	2
313.15	7240	674.3	1.4
333.15	340	649.7	1.4
333.15	690	650.2	1.4
333.15	1030	650.6	1.4
333.15	1380	651	1.4
333.15	1720	651.4	1.4
333.15	2070	651.9	1.4
333.15	2410	652.3	1.4
333.15	2760	652.7	1.4
333.15	3100	653.2	1.4
333.15	3450	653.6	1.4
333.15	3800	654	1.4
333.15	4140	654.4	1.4
333.15	4480	654.8	1.4
333.15	4830	655.2	1.4
333.15	5170	655.6	1.4
333.15	5510	656	1.4
333.15	5860	656.4	1.4
333.15	6200	656.8	1.4
333.15	6550	657.2	1.4
333.15	6890	657.6	1.4
333.15	7240	658	1.4
333.15	7580	658.4	1.4
333.15	7930	658.8	1.4
333.15	8270	659.2	1.4
353.15	340	631.8	1.4
353.15	690	632.3	1.4
353.15	1030	632.8	1.4
353.15	1380	633.3	1.4
353.15	1720	633.9	1.4
353.15	2070	634.4	1.4
353.15	2410	634.9	1.4
353.15	2760	635.3	1.4
353.15	3100	635.8	1.4
353.15	3450	636.3	1.4
353.15	3800	636.8	1.4
353.15	4140	637.3	1.4
353.15	4480	637.7	1.4
353.15	4830	638.2	1.4
353.15	5170	638.7	1.4
353.15	5510	639.2	1.4
353.15	5860	639.6	1.4
353.15	6200	640.1	1.4
353.15	6550	640.6	1.4
353.15	6890	641	1.4
353.15	7240	641.5	1.4
353.15	7580	641.9	1.4
353.15	7930	642.3	1.4
353.15	8270	642.8	1.4
353.15	8620	643.2	1.5
353.15	8960	643.9	1.5
353.15	9310	644.1	1.5
353.15	9650	644.5	1.5
373.15	340	613.1	1.4
373.15	690	613.7	1.4
373.15	1030	614.3	1.4
373.15	1380	614.9	1.4
373.15	1720	615.5	1.4
373.15	2070	616.1	1.4
373.15	2410	616.7	1.4
373.15	2760	617.3	1.4
373.15	3100	618.2	1.4
373.15	3450	618.5	1.4
373.15	3800	619	1.4
373.15	4140	619.6	1.4
373.15	4480	620.2	1.4
373.15	4830	620.7	1.4
373.15	5170	621.2	1.4
373.15	5510	621.8	1.4
373.15	5860	622.3	1.4
373.15	6200	622.9	1.4
373.15	6550	623.4	1.4
373.15	6890	623.9	1.4
373.15	7240	624.4	1.4
373.15	7580	625	1.5
373.15	7930	625.5	1.5
373.15	8270	626	1.5
373.15	8620	626.5	1.5
373.15	8960	627	1.5
373.15	9310	627.5	1.5
373.15	9650	628	1.5
393.15	340	593.4	1.4
393.15	690	594.1	1.4
393.15	1030	594.9	1.4
393.15	1380	595.6	1.4
393.15	1720	596.3	1.4
393.15	2070	597	1.4
393.15	2410	597.8	1.4
393.15	2760	598.5	1.4
393.15	3100	599.2	1.4
393.15	3450	599.9	1.4
393.15	3800	600.5	1.4
393.15	4140	601.2	1.4
393.15	4480	601.9	1.4
393.15	4830	602.5	1.4
393.15	5170	603.2	1.4
393.15	5510	603.8	1.4
393.15	5860	604.4	1.4
393.15	6200	605.1	1.4
393.15	6550	605.7	1.4
393.15	6890	606.3	1.5
393.15	7240	606.9	1.5
393.15	7580	607.5	1.5
393.15	7930	608.1	1.5
393.15	8270	608.7	1.5
393.15	8620	609.3	1.5
393.15	8960	609.9	1.5
393.15	9310	610.8	1.5
393.15	9650	611.1	1.5

System: hexadecane; phases: Liquid
Property: Mass density, kg/m3 (Liquid); method: Vibrating tube method
Temperature, K	Pressure, kPa	Mass density, kg/m3	uncertainty
313.15	340	759.52	1.42
313.15	690	759.83	1.42
313.15	1030	760.08	1.42
313.15	1380	760.33	1.42
313.15	1720	760.65	1.42
313.15	2070	760.88	1.43
313.15	2410	761.08	1.43
313.15	2760	761.33	1.43
313.15	3100	761.65	1.43
313.15	3450	761.83	1.43
313.15	3800	762.08	1.43
313.15	4140	762.33	1.43
313.15	4480	762.49	1.43
313.15	4830	762.83	1.43
313.15	5170	763.08	1.43
313.15	5510	763.33	1.43
313.15	5860	763.58	1.43
313.15	6200	763.83	1.43
313.15	6550	764.08	1.43
313.15	6890	764.33	1.43
313.15	7240	764.65	1.43
313.15	7580	764.83	1.43
313.15	7930	765.08	1.43
313.15	8270	765.33	1.43
313.15	8620	765.58	1.43
313.15	8960	765.74	1.44
313.15	9310	765.99	1.44
313.15	9650	766.24	1.44
313.15	10000	766.49	1.44
313.15	10340	766.74	1.44
313.15	10690	766.98	1.44
313.15	11030	767.22	1.44
313.15	11380	767.48	1.44
333.15	340	746.8	1.4
333.15	690	747.1	1.4
333.15	1030	747.4	1.4
333.15	1380	747.7	1.4
333.15	1720	748	1.4
333.15	2070	748.2	1.4
333.15	2410	748.5	1.4
333.15	2760	748.7	1.4
333.15	3100	749	1.4
333.15	3450	749.2	1.4
333.15	3800	749.5	1.4
333.15	4140	749.8	1.4
333.15	4480	750	1.4
333.15	4830	750.2	1.4
333.15	5170	750.5	1.4
333.15	5510	750.7	1.4
333.15	5860	751	1.4
333.15	6200	751.2	1.4
333.15	6550	751.4	1.4
333.15	6890	751.6	1.4
333.15	7240	752	1.4
333.15	7580	752.4	1.4
333.15	7930	752.6	1.4
333.15	8270	752.8	1.4
333.15	8620	753	1.4
333.15	8960	753.2	1.4
333.15	9310	753.5	1.4
333.15	9650	753.8	1.4
333.15	10000	754	1.4
333.15	10340	754.3	1.4
333.15	10690	754.5	1.4
333.15	11030	754.8	1.4
333.15	11380	755	1.4
353.15	340	736.2	1.4
353.15	690	736.4	1.4
353.15	1030	736.6	1.4
353.15	1380	736.9	1.4
353.15	1720	737.1	1.4
353.15	2070	737.4	1.4
353.15	2410	737.7	1.4
353.15	2760	738	1.4
353.15	3100	738.3	1.4
353.15	3450	738.7	1.4
353.15	3800	739.1	1.4
353.15	4140	739.3	1.4
353.15	4480	739.5	1.4
353.15	4830	739.8	1.4
353.15	5170	740	1.4
353.15	5510	740.2	1.4
353.15	5860	740.4	1.4
353.15	6200	740.5	1.4
353.15	6550	740.7	1.4
353.15	6890	741	1.4
353.15	7240	741.2	1.4
353.15	7580	741.5	1.4
353.15	7930	741.7	1.4
353.15	8270	742	1.4
353.15	8620	742.2	1.4
353.15	8960	742.5	1.4
353.15	9310	742.7	1.4
353.15	9650	742.9	1.4
353.15	10000	743.1	1.4
353.15	10340	743.5	1.4
353.15	10690	743.9	1.4
353.15	11030	744.1	1.4
353.15	11380	744.3	1.4
373.15	340	723.1	1.4
373.15	690	723.3	1.4
373.15	1030	723.6	1.4
373.15	1380	723.8	1.4
373.15	1720	724	1.4
373.15	2070	724.3	1.4
373.15	2410	724.6	1.4
373.15	2760	724.9	1.4
373.15	3100	725.1	1.4
373.15	3450	725.4	1.4
373.15	3800	725.6	1.4
373.15	4140	725.9	1.4
373.15	4480	726.1	1.4
373.15	4830	726.4	1.4
373.15	5170	726.7	1.4
373.15	5510	726.9	1.4
373.15	5860	727.2	1.4
373.15	6200	727.5	1.4
373.15	6550	727.8	1.4
373.15	6890	728.1	1.4
373.15	7240	728.4	1.4
373.15	7580	728.5	1.4
373.15	7930	728.9	1.4
373.15	8270	729.4	1.4
373.15	8620	729.9	1.4
373.15	8960	730.2	1.4
373.15	9310	730.6	1.4
373.15	9650	730.8	1.4
373.15	10000	731	1.4
373.15	10340	731.4	1.4
373.15	10690	731.6	1.4
373.15	11030	731.9	1.4
373.15	11380	732.1	1.4
393.15	340	710	1.4
393.15	690	710.3	1.4
393.15	1030	710.6	1.4
393.15	1380	710.9	1.4
393.15	1720	711.1	1.4
393.15	2070	711.4	1.4
393.15	2410	711.7	1.4
393.15	2760	712	1.4
393.15	3100	712.2	1.4
393.15	3450	712.3	1.4
393.15	3800	712.5	1.4
393.15	4140	712.8	1.4
393.15	4480	713	1.4
393.15	4830	713.3	1.4
393.15	5170	713.5	1.4
393.15	5510	713.8	1.4
393.15	5860	714	1.4
393.15	6200	714.3	1.4
393.15	6550	714.6	1.4
393.15	6890	714.9	1.4
393.15	7240	715.1	1.4
393.15	7580	715.3	1.4
393.15	7930	715.5	1.4
393.15	8270	715.8	1.4
393.15	8620	716	1.4
393.15	8960	716.3	1.4
393.15	9310	716.6	1.4
393.15	9650	716.8	1.4
393.15	10000	717.1	1.4
393.15	10340	717.4	1.4
393.15	10690	717.6	1.4
393.15	11030	717.9	1.4
393.15	11380	718.1	1.4

System: carbon dioxide + heptane; phases: Liquid, Gas
Property: Interfacial tension, N/m (Liquid); method: Drop volume
Temperature, K	Pressure, kPa	Interfacial tension, N/m	uncertainty
313.15	340	0.01627	0.00025
313.15	690	0.01556	0.00025
313.15	1030	0.01488	0.00025
313.15	1380	0.01423	0.00025
313.15	1720	0.01342	0.00024
313.15	2070	0.01271	0.00024
313.15	2410	0.01205	0.00024
313.15	2760	0.01117	0.00024
313.15	3100	0.01054	0.00024
313.15	3450	0.00976	0.00024
313.15	3800	0.00904	0.00024
313.15	4140	0.00836	0.00023
313.15	4480	0.00747	0.00023
313.15	4830	0.00674	0.00023
313.15	5170	0.00587	0.00023
313.15	5510	0.0051	0.00023
313.15	5860	0.00423	0.00023
313.15	6200	0.00359	0.00023
313.15	6550	0.00307	0.00023
313.15	6890	0.00239	0.00023
333.15	340	0.01424	0.0002
333.15	690	0.01368	0.00019
333.15	1030	0.0131	0.00019
333.15	1380	0.01254	0.00019
333.15	1720	0.012	0.00019
333.15	2070	0.01138	0.00019
333.15	2410	0.0108	0.00019
333.15	2760	0.0102	0.00018
333.15	3100	0.00962	0.00018
333.15	3450	0.00892	0.00018
333.15	3800	0.00832	0.00018
333.15	4140	0.00776	0.00018
333.15	4480	0.00723	0.00018
333.15	4830	0.00666	0.00018
333.15	5170	0.0061	0.00018
333.15	5510	0.00558	0.00017
333.15	5860	0.00511	0.00017
333.15	6200	0.00461	0.00017
333.15	6550	0.00404	0.00017
333.15	6890	0.00352	0.00017
333.15	7240	0.00302	0.00017
333.15	7580	0.0024	0.00017
353.15	340	0.01236	0.00016
353.15	690	0.01192	0.00016
353.15	1030	0.01146	0.00015
353.15	1380	0.01099	0.00015
353.15	1720	0.0106	0.00015
353.15	2070	0.01013	0.00015
353.15	2410	0.00978	0.00015
353.15	2760	0.00924	0.00015
353.15	3100	0.00871	0.00015
353.15	3450	0.00819	0.00014
353.15	3800	0.00786	0.00014
353.15	4140	0.00734	0.00014
353.15	4480	0.00695	0.00014
353.15	4830	0.0065	0.00014
353.15	5170	0.00611	0.00014
353.15	5510	0.00583	0.00014
353.15	5860	0.00546	0.00014
353.15	6200	0.00495	0.00014
353.15	6550	0.00441	0.00014
353.15	6890	0.00401	0.00013
353.15	7240	0.00361	0.00013
353.15	7580	0.00322	0.00013
373.15	340	0.011	0.00014
373.15	690	0.01064	0.00014
373.15	1030	0.01029	0.00014
373.15	1380	0.00987	0.00013
373.15	1720	0.00954	0.00013
373.15	2070	0.00927	0.00013
373.15	2410	0.00884	0.00013
373.15	2760	0.00845	0.00013
373.15	3100	0.0081	0.00013
373.15	3450	0.00767	0.00013
373.15	3800	0.00735	0.00013
373.15	4140	0.007	0.00013
373.15	4480	0.00668	0.00012
373.15	4830	0.00635	0.00012
373.15	5170	0.00595	0.00012
373.15	5510	0.00568	0.00012
373.15	5860	0.00541	0.00012
373.15	6200	0.00508	0.00012
373.15	6550	0.00469	0.00012
373.15	6890	0.00438	0.00012
373.15	7240	0.00394	0.00012
373.15	7580	0.00367	0.00012
393.15	340	0.00962	0.00012
393.15	690	0.00929	0.00012
393.15	1030	0.00899	0.00012
393.15	1380	0.00873	0.00012
393.15	1720	0.00845	0.00011
393.15	2070	0.00823	0.00011
393.15	2410	0.00793	0.00011
393.15	2760	0.00763	0.00011
393.15	3100	0.00732	0.00011
393.15	3450	0.0071	0.00011
393.15	3800	0.00684	0.00011
393.15	4140	0.00661	0.00011
393.15	4480	0.00625	0.00011
393.15	4830	0.006	0.00011
393.15	5170	0.00574	0.00011
393.15	5510	0.00544	0.0001
393.15	5860	0.00524	0.0001
393.15	6200	0.00496	0.0001
393.15	6550	0.00468	0.0001
393.15	6890	0.00437	0.0001
393.15	7240	0.0041	0.0001
393.15	7580	0.00381	0.0001

System: carbon dioxide + hexadecane; phases: Liquid, Gas
Property: Interfacial tension, N/m (Liquid); method: Drop volume
Temperature, K	Pressure, kPa	Interfacial tension, N/m	uncertainty
313.15	340	0.02239	0.00027
313.15	690	0.02167	0.00027
313.15	1030	0.02089	0.00026
313.15	1380	0.02029	0.00026
313.15	1720	0.01942	0.00026
313.15	2070	0.01839	0.00026
313.15	2410	0.01781	0.00025
313.15	2760	0.01721	0.00025
313.15	3100	0.01629	0.00025
313.15	3450	0.01549	0.00025
313.15	3800	0.01485	0.00025
313.15	4140	0.01394	0.00025
313.15	4480	0.01336	0.00024
313.15	4830	0.01238	0.00024
313.15	5170	0.0119	0.00024
313.15	5510	0.01118	0.00024
313.15	5860	0.01046	0.00024
313.15	6200	0.00957	0.00024
313.15	6550	0.00863	0.00024
313.15	6890	0.00778	0.00023
313.15	7240	0.00722	0.00023
313.15	7580	0.00626	0.00023
313.15	7930	0.00548	0.00023
313.15	8270	0.00479	0.00023
313.15	8620	0.00424	0.00023
313.15	8960	0.00349	0.00023
313.15	9310	0.0027	0.00023
333.15	340	0.02059	0.00023
333.15	690	0.0201	0.00023
333.15	1030	0.01932	0.00023
333.15	1380	0.01889	0.00022
333.15	1720	0.01821	0.00022
333.15	2070	0.0178	0.00022
333.15	2410	0.01701	0.00022
333.15	2760	0.01638	0.00022
333.15	3100	0.01594	0.00022
333.15	3450	0.01536	0.00021
333.15	3800	0.0148	0.00021
333.15	4140	0.01423	0.00021
333.15	4480	0.01377	0.00021
333.15	4830	0.01289	0.00021
333.15	5170	0.01249	0.00021
333.15	5510	0.01168	0.00021
333.15	5860	0.01111	0.0002
333.15	6200	0.01036	0.0002
333.15	6550	0.00968	0.0002
333.15	6890	0.00916	0.0002
333.15	7240	0.00882	0.0002
333.15	7580	0.00816	0.0002
333.15	7930	0.00752	0.0002
333.15	8270	0.00686	0.0002
333.15	8620	0.00632	0.00019
333.15	8960	0.00581	0.00019
333.15	9310	0.00519	0.00019
333.15	9650	0.00457	0.00019
333.15	10000	0.004	0.00019
333.15	10340	0.00345	0.00019
333.15	10690	0.00294	0.00019
333.15	11030	0.00238	0.00019
353.15	340	0.01915	0.00019
353.15	690	0.01865	0.00019
353.15	1030	0.01815	0.00019
353.15	1380	0.01769	0.00019
353.15	1720	0.01721	0.00019
353.15	2070	0.01674	0.00019
353.15	2410	0.01621	0.00018
353.15	2760	0.01571	0.00018
353.15	3100	0.01531	0.00018
353.15	3450	0.01482	0.00018
353.15	3800	0.01437	0.00018
353.15	4140	0.01388	0.00018
353.15	4480	0.01331	0.00018
353.15	4830	0.01289	0.00017
353.15	5170	0.01244	0.00017
353.15	5510	0.01181	0.00017
353.15	5860	0.01148	0.00017
353.15	6200	0.01115	0.00017
353.15	6550	0.01074	0.00017
353.15	6890	0.01005	0.00017
353.15	7240	0.00974	0.00017
353.15	7580	0.00944	0.00017
353.15	7930	0.00898	0.00016
353.15	8270	0.00835	0.00016
353.15	8620	0.00767	0.00016
353.15	8960	0.00742	0.00016
353.15	9310	0.00695	0.00016
353.15	9650	0.00606	0.00016
353.15	10000	0.00578	0.00016
353.15	10340	0.00511	0.00016
353.15	10690	0.00484	0.00016
353.15	11030	0.00448	0.00015
353.15	11380	0.00404	0.00015
373.15	340	0.01784	0.00018
373.15	690	0.01727	0.00017
373.15	1030	0.01685	0.00017
373.15	1380	0.01647	0.00017
373.15	1720	0.01599	0.00017
373.15	2070	0.01567	0.00017
373.15	2410	0.01529	0.00017
373.15	2760	0.01494	0.00017
373.15	3100	0.01448	0.00016
373.15	3450	0.01421	0.00016
373.15	3800	0.01389	0.00016
373.15	4140	0.01349	0.00016
373.15	4480	0.013	0.00016
373.15	4830	0.01258	0.00016
373.15	5170	0.01215	0.00016
373.15	5510	0.01189	0.00016
373.15	5860	0.01147	0.00015
373.15	6200	0.01111	0.00015
373.15	6550	0.01079	0.00015
373.15	6890	0.01028	0.00015
373.15	7240	0.0099	0.00015
373.15	7580	0.00957	0.00015
373.15	7930	0.00935	0.00015
373.15	8270	0.00884	0.00015
373.15	8620	0.00827	0.00015
373.15	8960	0.00787	0.00014
373.15	9310	0.00765	0.00014
373.15	9650	0.00715	0.00014
373.15	10000	0.00674	0.00014
373.15	10340	0.00641	0.00014
373.15	10690	0.00616	0.00014
373.15	11030	0.00564	0.00014
373.15	11380	0.00528	0.00014
393.15	340	0.01646	0.00015
393.15	690	0.01612	0.00014
393.15	1030	0.01579	0.00014
393.15	1380	0.01554	0.00014
393.15	1720	0.01511	0.00014
393.15	2070	0.01481	0.00014
393.15	2410	0.01449	0.00014
393.15	2760	0.01418	0.00014
393.15	3100	0.01377	0.00013
393.15	3450	0.01352	0.00013
393.15	3800	0.0132	0.00013
393.15	4140	0.01284	0.00013
393.15	4480	0.01259	0.00013
393.15	4830	0.0123	0.00013
393.15	5170	0.01206	0.00013
393.15	5510	0.01163	0.00013
393.15	5860	0.01141	0.00013
393.15	6200	0.01118	0.00012
393.15	6550	0.01081	0.00012
393.15	6890	0.01056	0.00012
393.15	7240	0.01019	0.00012
393.15	7580	0.00982	0.00012
393.15	7930	0.00952	0.00012
393.15	8270	0.00923	0.00012
393.15	8620	0.00884	0.00012
393.15	8960	0.00858	0.00012
393.15	9310	0.00816	0.00011
393.15	9650	0.00792	0.00011
393.15	10000	0.00761	0.00011
393.15	10340	0.00727	0.00011
393.15	10690	0.00699	0.00011
393.15	11030	0.00675	0.00011
393.15	11380	0.00642	0.00011
