Measured thermophysical data. Article Ternary Liquid Liquid Equilibrium of Biodiesel Compounds for Systems Consisting of a Methyl Ester + Glycerin + Water
Source: J. Chem. Eng. Data, 2013, 10.1021/je301348z
Compound 1: methyl dodecanoate, C13H26O2, InChI=1S/C13H26O2/c1-3-4-5-6-7-8-9-10-11-12-13(14)15-2/h3-12H2,1-2H3, purity 99.1%
Compound 2: methyl tetradecanoate, C15H30O2, InChI=1S/C15H30O2/c1-3-4-5-6-7-8-9-10-11-12-13-14-15(16)17-2/h3-14H2,1-2H3, purity 99.9%
Compound 3: methyl hexadecanoate, C17H34O2, InChI=1S/C17H34O2/c1-3-4-5-6-7-8-9-10-11-12-13-14-15-16-17(18)19-2/h3-16H2,1-2H3, purity 99%
Compound 4: methyl cis-9-octadecenoate, C19H36O2, InChI=1S/C19H36O2/c1-3-4-5-6-7-8-9-10-11-12-13-14-15-16-17-18-19(20)21-2/h10-11H,3-9,12-18H2,1-2H3/b11-10-, purity 99.6%
Compound 5: glycerol, C3H8O3, InChI=1S/C3H8O3/c4-1-3(6)2-5/h3-6H,1-2H2, purity 99.9%
Compound 6: water, H2O, InChI=1S/H2O/h1H2, purity 99.9%

System: glycerol + methyl dodecanoate + water; phases: Liquid mixture 2, Liquid mixture 1
Fixed: Temperature, K = 333.15
Fixed: Pressure, kPa = 101
Property: Mole fraction of methyl dodecanoate (Liquid mixture 2); method: Chromatography
Property: Mole fraction of glycerol (Liquid mixture 1); method: Chromatography
Property: Mole fraction of water (Liquid mixture 1); method: Chromatography
Mole fraction of water	Mole fraction of methyl dodecanoate	uncertainty	Mole fraction of glycerol	uncertainty	Mole fraction of water	uncertainty
0.0025	2.4e-05	2e-06	0.0039	0.0002	0.0003	
0.1166	2.1e-05	2e-06	0.0037	0.0002	0.0045	
0.2168	1.5e-05	2e-06	0.0032	0.0002	0.0077	
0.3162	1.1e-05	2e-06	0.0029	0.0002	0.0122	
0.5052	7e-06	2e-06	0.0023	0.0002	0.0204	
0.7253	2.6e-06	2e-06	0.0013	0.0002	0.032	
0.8892	2.1e-07	2.1e-07	0.0004	0.0002	0.0423	
1	2.5e-07	2.5e-07	0		0.0485	

System: glycerol + methyl tetradecanoate + water; phases: Liquid mixture 2, Liquid mixture 1
Fixed: Temperature, K = 333.15
Fixed: Pressure, kPa = 101
Property: Mole fraction of methyl tetradecanoate (Liquid mixture 2); method: Chromatography
Property: Mole fraction of glycerol (Liquid mixture 1); method: Chromatography
Property: Mole fraction of water (Liquid mixture 1); method: Chromatography
Mole fraction of water	Mole fraction of methyl tetradecanoate	uncertainty	Mole fraction of glycerol	uncertainty	Mole fraction of water	uncertainty
0.0024	8.3e-06	2e-06	0.0029	0.0002	0.0011	
0.1163	6.8e-06	2e-06	0.0025	0.0002	0.0041	
0.2099	4.7e-06	2e-06	0.0024	0.0002	0.0072	
0.3166	3.3e-06	2e-06	0.0021	0.0002	0.011	
0.5055	9.6e-07	9.6e-07	0.0017	0.0002	0.0184	
0.7232	2.9e-07	2.9e-07	0.0008	0.0002	0.0286	
0.8883	1e-07	1e-07	0.0002	0.0002	0.0363	
1	1e-07	1e-07	0		0.0421	

System: glycerol + methyl hexadecanoate + water; phases: Liquid mixture 1, Liquid mixture 2
Fixed: Temperature, K = 333.15
Fixed: Pressure, kPa = 101
Property: Mole fraction of glycerol (Liquid mixture 1); method: Chromatography
Property: Mole fraction of methyl hexadecanoate (Liquid mixture 2); method: Chromatography
Property: Mole fraction of water (Liquid mixture 2); method: Chromatography
Mole fraction of water	Mole fraction of glycerol	uncertainty	Mole fraction of methyl hexadecanoate	uncertainty	Mole fraction of water	uncertainty
0.001	0.0031	0.0002	8.5e-06	2e-06	0.0033	
0.0038	0.0029	0.0002	4.5e-06	2e-06	0.1141	
0.0066	0.0028	0.0002	1.7e-06	1.7e-06	0.2088	
0.0103	0.0025	0.0002	1.4e-06	1.4e-06	0.3133	
0.0179	0.0018	0.0002	8.4e-07	8.4e-07	0.5066	
0.0293	0.001	0.0002	1e-07	1e-07	0.7869	
0.0392	0		1e-07	1e-07	0.9531	

System: glycerol + methyl cis-9-octadecenoate + water; phases: Liquid mixture 1, Liquid mixture 2
Fixed: Temperature, K = 333.15
Fixed: Pressure, kPa = 101
Property: Mole fraction of glycerol (Liquid mixture 1); method: Chromatography
Property: Mole fraction of methyl cis-9-octadecenoate (Liquid mixture 2); method: Chromatography
Property: Mole fraction of water (Liquid mixture 2); method: Chromatography
Mole fraction of water	Mole fraction of glycerol	uncertainty	Mole fraction of methyl cis-9-octadecenoate	uncertainty	Mole fraction of water	uncertainty
0.0006	0.0042	0.0004	9.2e-06	4e-06	0.0028	
0.0036	0.0034	0.0004	6.1e-06	4e-06	0.0825	
0.0077	0.003	0.0004	6.3e-06	4e-06	0.2169	
0.011	0.0028	0.0004	1e-06	1e-06	0.3166	
0.0166	0.002	0.0004	1e-06	1e-06	0.509	
0.0295	0.0013	0.0004	1e-06	1e-06	0.7276	
0.0376	0.0005	0.0004	1e-06	1e-06	0.8954	
0.0426	0		1e-06	1e-06	1	
