Measured thermophysical data. Vapor Liquid Equilibrium for Methoxymethane + Thiophene, + Diethylsulfide, + 2-Methyl-2-propanethiol and 1-Hexene, + 1-Propanethiol
Source: J. Chem. Eng. Data, 2013, 10.1021/je3013028
Compound 1: dimethyl ether, C2H6O, InChI=1S/C2H6O/c1-3-2/h1-2H3, purity 99.9%
Compound 2: thiophene, C4H4S, InChI=1S/C4H4S/c1-2-4-5-3-1/h1-4H, purity 99.9%
Compound 3: 2-methyl-2-propanethiol, C4H10S, InChI=1S/C4H10S/c1-4(2,3)5/h5H,1-3H3, purity 99.8%
Compound 4: 3-thiapentane, C4H10S, InChI=1S/C4H10S/c1-3-5-4-2/h3-4H2,1-2H3, purity 99.7%
Compound 5: hex-1-ene, C6H12, InChI=1S/C6H12/c1-3-5-6-4-2/h3H,1,4-6H2,2H3, purity 99.9%
Compound 6: 1-propanethiol, C3H8S, InChI=1S/C3H8S/c1-2-3-4/h4H,2-3H2,1H3, purity 99.9%

System: dimethyl ether; phases: Liquid, Gas
Property: Vapor or sublimation pressure, kPa (Liquid); method: Ebulliometric method (Recirculating still)
Temperature, K	Vapor or sublimation pressure, kPa	uncertainty
335.63	1540	6.2
308.14	786.6	3.5
336.7	1572.2	7.7
336.63	1572.2	7.7

System: thiophene; phases: Liquid
Property: Refractive index (Na D-line) (Liquid); method: Standard Abbe refractometry
Temperature, K	Pressure, kPa	Refractive index (Na D-line)	uncertainty
298.15	101.325	1.52869	0.00031

System: thiophene; phases: Liquid, Gas
Property: Vapor or sublimation pressure, kPa (Liquid); method: Ebulliometric method (Recirculating still)
Temperature, K	Vapor or sublimation pressure, kPa	uncertainty
335.63	49.4	0.8
308.14	16.9	0.8

System: 2-methyl-2-propanethiol; phases: Liquid
Property: Refractive index (Na D-line) (Liquid); method: Standard Abbe refractometry
Temperature, K	Pressure, kPa	Refractive index (Na D-line)	uncertainty
298.15	101.325	1.42	0.00031

System: 2-methyl-2-propanethiol; phases: Liquid, Gas
Property: Vapor or sublimation pressure, kPa (Liquid); method: Ebulliometric method (Recirculating still)
Temperature, K	Vapor or sublimation pressure, kPa	uncertainty
336.69	98.5	0.9

System: 3-thiapentane; phases: Liquid
Property: Refractive index (Na D-line) (Liquid); method: Standard Abbe refractometry
Temperature, K	Pressure, kPa	Refractive index (Na D-line)	uncertainty
298.15	101.325	1.43998	0.00032

System: 3-thiapentane; phases: Liquid, Gas
Property: Vapor or sublimation pressure, kPa (Liquid); method: Ebulliometric method (Recirculating still)
Temperature, K	Vapor or sublimation pressure, kPa	uncertainty
336.63	39.7	0.8

System: hex-1-ene; phases: Liquid
Property: Refractive index (Na D-line) (Liquid); method: Standard Abbe refractometry
Temperature, K	Pressure, kPa	Refractive index (Na D-line)	uncertainty
298.15	101.325	1.3851	0.0003

System: hex-1-ene; phases: Liquid, Gas
Property: Vapor or sublimation pressure, kPa (Liquid); method: Ebulliometric method (Recirculating still)
Temperature, K	Vapor or sublimation pressure, kPa	uncertainty
328.15	77	0.5
336.09	99.8	0.6
335.74	98.7	0.6

System: 1-propanethiol; phases: Liquid
Property: Refractive index (Na D-line) (Liquid); method: Standard Abbe refractometry
Temperature, K	Pressure, kPa	Refractive index (Na D-line)	uncertainty
298.15	101.325	1.4353	0.0003

System: thiophene + dimethyl ether; phases: Liquid, Gas
Property: Vapor or sublimation pressure, kPa (Liquid); method: Ebulliometric method (Recirculating still)
Temperature, K	Mole fraction of dimethyl ether	Vapor or sublimation pressure, kPa	uncertainty
335.63	1	1540	6.2
335.63	0.989	1519.8	7.2
335.63	0.968	1481.1	7
335.63	0.946	1442.2	9
335.63	0.892	1350.9	11.3
335.63	0.842	1270.3	10.8
335.63	0.791	1191.6	13.1
335.63	0.741	1116.1	15.6
335.63	0.692	1043.8	15.2
335.63	0.643	972.9	14.9
335.63	0.595	904.4	17.2
335.63	0.546	836.7	17.3
335.64	0.497	766	17.8
335.63	0.446	690.8	17.8
335.63	0.395	616.4	14.7
335.64	0.345	544.4	14.6
335.63	0.295	472.4	14.4
335.64	0.246	402.8	11.6
335.64	0.196	330.7	11.6
335.64	0.148	261.8	8.6
335.64	0.099	192.9	5.8
335.64	0.051	123.3	5.9
335.64	0.033	97.1	3
335.64	0.012	67.6	3
335.63	0	49.4	0.8
308.14	1	786.6	3.5
308.14	0.99	776.8	3.6
308.14	0.969	759.7	3.6
308.14	0.949	742.5	3.7
308.14	0.897	699.6	3.9
308.13	0.846	658.7	4.2
308.13	0.796	620	4.5
308.14	0.746	582.4	4.6
308.14	0.696	545.1	4.8
308.14	0.647	509.2	4.8
308.14	0.598	474.1	4.8
308.14	0.549	439.6	4.8
308.13	0.497	403.6	4.9
308.14	0.447	361.8	5.2
308.13	0.397	322.2	5
308.14	0.346	282.3	4.7
308.14	0.296	243.9	4.3
308.14	0.245	204.8	4
308.13	0.197	167.7	3.6
308.14	0.149	130.9	3.1
308.14	0.101	94.7	2.5
308.14	0.057	60.8	1.9
308.14	0.039	47.1	1.6
308.14	0.0182	31.2	1.4
308.14	0	16.9	0.8

System: 2-methyl-2-propanethiol + hex-1-ene; phases: Liquid, Gas
Property: Vapor or sublimation pressure, kPa (Liquid); method: Ebulliometric method (Recirculating still)
Mole fraction of hex-1-ene	Temperature, K	Vapor or sublimation pressure, kPa	uncertainty
1	328.15	77	0.5
0.9596	328.15	77.4	0.5
0.9245	328.16	77.5	0.5
1	336.09	99.8	0.6
0.9582	335.84	99.8	0.7
0.9207	335.79	99.9	0.6
1	335.74	98.7	0.6
0.9608	335.64	98.7	0.7

System: 2-methyl-2-propanethiol + hex-1-ene; phases: Gas, Liquid
Property: Mole fraction of hex-1-ene (Gas); method: Chromatography
Mole fraction of hex-1-ene	Temperature, K	Mole fraction of hex-1-ene	uncertainty
1	328.15	1	
0.9596	328.15	0.9541	0.0459
0.9245	328.16	0.9163	0.0837
1	336.09	1	
0.9582	335.84	0.9528	0.0472
0.9207	335.79	0.9124	0.0876
1	335.74	1	
0.9608	335.64	0.9555	0.0445

System: 2-methyl-2-propanethiol + dimethyl ether; phases: Liquid, Gas
Property: Vapor or sublimation pressure, kPa (Liquid); method: Ebulliometric method (Recirculating still)
Temperature, K	Mole fraction of dimethyl ether	Vapor or sublimation pressure, kPa	uncertainty
336.7	1	1572.2	7.7
336.7	0.99	1555.7	8.3
336.7	0.966	1516.5	8.1
336.7	0.944	1480.7	8
336.71	0.89	1395.5	9.3
336.7	0.838	1313.5	8.4
336.69	0.785	1232.4	10.8
336.69	0.735	1157.6	13.3
336.7	0.687	1085.5	12.9
336.7	0.637	1012.3	12.7
336.7	0.589	942.8	12.7
336.7	0.496	803.6	12.6
336.7	0.445	727.3	12.3
336.7	0.395	654.9	12
336.69	0.345	582.1	11.9
336.7	0.296	511.5	9
336.7	0.248	442.1	8.8
336.7	0.2	375.1	8.6
336.7	0.151	306.7	5.8
336.7	0.107	244.7	5.7
336.7	0.062	183.4	3
336.69	0.039	152.5	3
336.69	0.021	127.2	2.9
336.69	0	98.5	0.9

System: dimethyl ether + 3-thiapentane; phases: Liquid, Gas
Property: Vapor or sublimation pressure, kPa (Liquid); method: Ebulliometric method (Recirculating still)
Temperature, K	Mole fraction of dimethyl ether	Vapor or sublimation pressure, kPa	uncertainty
336.63	1	1572.2	7.7
336.64	0.987	1543.7	8.1
336.65	0.965	1502.7	8.3
336.64	0.943	1461.7	8
336.63	0.889	1366.6	9.7
336.64	0.837	1278.3	8.9
336.64	0.786	1197.5	11.2
336.64	0.735	1117	11
336.63	0.687	1043.4	10.4
336.63	0.64	972.8	10.1
336.63	0.591	900.7	9.9
336.64	0.543	830	9.9
336.64	0.496	759.1	9.8
336.63	0.443	681.1	9.5
336.64	0.393	607	9.4
336.64	0.343	533.2	9.2
336.63	0.291	457.2	9
336.64	0.241	385.7	8.9
336.64	0.194	317.8	6
336.64	0.147	250.7	5.9
336.63	0.099	181.8	5.8
336.63	0.05	112	3
336.64	0.031	84.8	3
336.63	0.013	58.8	3.1
336.63	0	39.7	0.8
