Measured thermophysical data. A Novel Vibrating-Wire Viscometer for High-Viscosity Liquids at Moderate Pressures
Source: J. Chem. Eng. Data, 2013, 10.1021/je301306e
Compound 1: toluene, C7H8, InChI=1S/C7H8/c1-7-5-3-2-4-6-7/h2-6H,1H3, purity 99.9%
Compound 2: 3-methylnonyl 1,2-benzenedioate, C28H46O4, InChI=1S/C28H46O4/c1-23(2)17-11-7-5-9-15-21-31-27(29)25-19-13-14-20-26(25)28(30)32-22-16-10-6-8-12-18-24(3)4/h13-14,19-20,23-24H,5-12,15-18,21-22H2,1-4H3, purity 99%

System: toluene; phases: Liquid
Property: Viscosity, Pa*s (Liquid); method: Vibrating wire viscometry
Pressure, kPa	Temperature, K	Viscosity, Pa*s	uncertainty
101	293.313	0.0005897	8.2e-06
101	303.043	0.0005223	7.5e-06
101	312.901	0.0004683	7e-06
101	322.786	0.0004215	6.6e-06
101	332.408	0.0003836	6.2e-06
2230	332.422	0.0003917	6.3e-06
4430	332.356	0.0003988	6.4e-06
6420	332.317	0.0004061	6.4e-06
8310	332.303	0.0004137	6.5e-06
10060	332.317	0.0004189	6.5e-06
11850	332.342	0.0004248	6.6e-06
14200	332.578	0.00043	6.6e-06
15730	332.369	0.0004358	6.7e-06
17830	332.669	0.0004411	6.7e-06
1240	303.018	0.0005315	7.6e-06
2110	302.825	0.0005351	7.6e-06
3960	302.734	0.000547	7.7e-06
5660	302.759	0.0005547	7.8e-06
7840	302.773	0.0005627	7.9e-06
9860	302.683	0.0005697	8e-06
12320	302.915	0.0005812	8.1e-06
14080	302.915	0.0005871	8.1e-06
15900	302.94	0.00059	8.2e-06
17780	302.967	0.000605	8.3e-06

System: 3-methylnonyl 1,2-benzenedioate; phases: Liquid
Property: Viscosity, Pa*s (Liquid); method: Vibrating wire viscometry
Pressure, kPa	Temperature, K	Viscosity, Pa*s	uncertainty
2460	302.747	0.07044	0.001177
2460	302.747	0.070625	0.001181
2450	302.747	0.070144	0.001171
4510	302.747	0.074037	0.001257
4510	302.747	0.073969	0.001255
6440	302.747	0.077313	0.001332
6440	302.747	0.077616	0.001339
8390	302.747	0.081072	0.001421
10250	302.747	0.085025	0.001519
10250	302.747	0.08535	0.001527
11190	302.747	0.087222	0.001574
13300	302.747	0.092249	0.001705
15370	302.747	0.096322	0.001814
17310	302.747	0.10125	0.00195
2430	342.692	0.011787	0.0002
2430	342.692	0.011821	0.000201
2420	342.692	0.011868	0.000202
4260	342.692	0.01214	0.000207
6130	342.692	0.012535	0.000214
7970	342.667	0.013056	0.000223
7970	342.667	0.012965	0.000222
9700	342.667	0.01335	0.000229
9700	342.667	0.013439	0.00023
10950	342.9	0.013736	0.000235
10970	342.9	0.013733	0.000235
13180	342.9	0.014254	0.000244
13180	342.9	0.014266	0.000245
15220	342.9	0.014726	0.000253
15220	342.9	0.014711	0.000253
17130	342.939	0.015139	0.000261

System: 3-methylnonyl 1,2-benzenedioate; phases: Liquid
Fixed: Pressure, kPa = 101.325
Property: Viscosity, Pa*s (Liquid); method: Vibrating wire viscometry
Temperature, K	Viscosity, Pa*s	uncertainty
293.363	0.123	0.0026
298.261	0.0887	0.00163
303.121	0.06437	0.00106
308.103	0.04915	0.0008
313.033	0.03738	0.00061
317.925	0.0296	0.00048
322.77	0.02366	0.00039
327.586	0.01932	0.00032
333.239	0.01572	0.00026
338.172	0.01317	0.00022
342.992	0.01116	0.00018
347.961	0.009553	0.000156
353.097	0.008234	0.000135
358.132	0.007178	0.000117
363.188	0.006272	0.000103
