Measured thermophysical data. Thermodynamic Properties of Ternary Mixtures Containing Ionic Liquids and Organic Solvents
Source: J. Chem. Eng. Data, 2013, 10.1021/je301353z
Compound 1: 1-ethyl-3-methylimidazolium tetrafluoroborate, C6H11BF4N2, InChI=1S/C6H11N2.BF4/c1-3-8-5-4-7(2)6-8;2-1(3,4)5/h4-6H,3H2,1-2H3;/q+1;-1, purity 98%
Compound 2: 2-pyrrolidinone, C4H7NO, InChI=1S/C4H7NO/c6-4-2-1-3-5-4/h1-3H2,(H,5,6)
Compound 3: N-methylpyrrolidone, C5H9NO, InChI=1S/C5H9NO/c1-6-4-2-3-5(6)7/h2-4H2,1H3
Compound 4: pyridine, C5H5N, InChI=1S/C5H5N/c1-2-4-6-5-3-1/h1-5H

System: 1-ethyl-3-methylimidazolium tetrafluoroborate; phases: Liquid
Fixed: Pressure, kPa = 101.325
Property: Mass density, kg/m3 (Liquid); method: Vibrating tube method
Temperature, K	Mass density, kg/m3	uncertainty
293.15	1283.89	1.68
298.15	1279.91	1.67
303.15	1276.26	1.66
308.15	1272.07	1.66

System: 1-ethyl-3-methylimidazolium tetrafluoroborate; phases: Liquid
Fixed: Pressure, kPa = 101.325
Property: Speed of sound, m/s (Liquid); method: Sing-around technique in a fixed-path interferometer
Temperature, K	Speed of sound, m/s	uncertainty
293.15	1631.05	2.15
298.15	1619.4	2.15
303.15	1607.63	2.15
308.15	1596.31	2.14

System: 1-ethyl-3-methylimidazolium tetrafluoroborate; phases: Liquid
Fixed: Pressure, kPa = 101.325
Property: Molar heat capacity at constant pressure, J/K/mol (Liquid); method: Small sample (50 mg) DSC
Temperature, K	Molar heat capacity at constant pressure, J/K/mol	uncertainty
293.15	303.41	4.7
298.15	305.12	4.73
303.15	306.81	4.75
308.15	308.58	4.78

System: 2-pyrrolidinone; phases: Liquid
Fixed: Pressure, kPa = 101.325
Property: Mass density, kg/m3 (Liquid); method: Vibrating tube method
Temperature, K	Mass density, kg/m3	uncertainty
293.15	1111.28	1.04
298.15	1107.15	1.04
303.15	1103.02	1.04
308.15	1098.9	1.04

System: 2-pyrrolidinone; phases: Liquid
Fixed: Pressure, kPa = 101.325
Property: Speed of sound, m/s (Liquid); method: Sing-around technique in a fixed-path interferometer
Temperature, K	Speed of sound, m/s	uncertainty
293.15	1650.13	1.28
298.15	1633.92	1.27
303.15	1617.14	1.27
308.15	1601.85	1.27

System: 2-pyrrolidinone; phases: Liquid
Fixed: Pressure, kPa = 101.325
Property: Molar heat capacity at constant pressure, J/K/mol (Liquid); method: Small sample (50 mg) DSC
Temperature, K	Molar heat capacity at constant pressure, J/K/mol	uncertainty
293.15	168.36	2.61
298.15	169.55	2.63
303.15	171.18	2.65
308.15	172.37	2.67

System: N-methylpyrrolidone; phases: Liquid
Fixed: Pressure, kPa = 101.325
Property: Mass density, kg/m3 (Liquid); method: Vibrating tube method
Temperature, K	Mass density, kg/m3	uncertainty
293.15	1033.23	1.03
298.15	1028.23	1.03
303.15	1023.46	1.03
308.15	1018.66	1.02

System: N-methylpyrrolidone; phases: Liquid
Fixed: Pressure, kPa = 101.325
Property: Speed of sound, m/s (Liquid); method: Sing-around technique in a fixed-path interferometer
Temperature, K	Speed of sound, m/s	uncertainty
293.15	1565.52	1.26
298.15	1546.02	1.25
303.15	1527.24	1.25
308.15	1507.41	1.25

System: N-methylpyrrolidone; phases: Liquid
Fixed: Pressure, kPa = 101.325
Property: Molar heat capacity at constant pressure, J/K/mol (Liquid); method: Small sample (50 mg) DSC
Temperature, K	Molar heat capacity at constant pressure, J/K/mol	uncertainty
293.15	165.44	2.56
298.15	166.22	2.58
303.15	166.92	2.59
308.15	167.21	2.59

System: pyridine; phases: Liquid
Fixed: Pressure, kPa = 101.325
Property: Mass density, kg/m3 (Liquid); method: Vibrating tube method
Temperature, K	Mass density, kg/m3	uncertainty
293.15	983.195	1.022
298.15	978.252	1.022
303.15	973.228	1.022
308.15	968.171	1.022

System: pyridine; phases: Liquid
Fixed: Pressure, kPa = 101.325
Property: Speed of sound, m/s (Liquid); method: Sing-around technique in a fixed-path interferometer
Temperature, K	Speed of sound, m/s	uncertainty
293.15	1442.04	1.23
298.15	1417.81	1.23
303.15	1397.97	1.22
308.15	1377.11	1.22

System: pyridine; phases: Liquid
Fixed: Pressure, kPa = 101.325
Property: Molar heat capacity at constant pressure, J/K/mol (Liquid); method: Small sample (50 mg) DSC
Temperature, K	Molar heat capacity at constant pressure, J/K/mol	uncertainty
293.15	130.49	2.02
298.15	131.74	2.04
303.15	132.71	2.06
308.15	133.82	2.07

System: pyridine + N-methylpyrrolidone; phases: Liquid
Fixed: Pressure, kPa = 101
Property: Mass density, kg/m3 (Liquid); method: Vibrating tube method
Temperature, K	Mole fraction of N-methylpyrrolidone	Mass density, kg/m3	uncertainty
293.15	0.1276	994.55	1.02
293.15	0.1779	998.64	1.02
293.15	0.2348	1003	1.02
293.15	0.2664	1005.29	1.02
293.15	0.3291	1009.56	1.02
293.15	0.3707	1012.2	1.02
293.15	0.4328	1015.86	1.02
293.15	0.4749	1018.16	1.02
293.15	0.5215	1020.5	1.02
293.15	0.5647	1022.48	1.03
293.15	0.6364	1025.43	1.03
293.15	0.6778	1026.91	1.03
293.15	0.7312	1028.58	1.03
293.15	0.7701	1029.65	1.03
293.15	0.8321	1031.09	1.03
293.15	0.8711	1031.8	1.03
293.15	0.9011	1032.27	1.03
293.15	0.9312	1032.65	1.03
298.15	0.1276	989.82	1.02
298.15	0.1779	993.95	1.02
298.15	0.2348	998.35	1.02
298.15	0.2664	1000.65	1.02
298.15	0.3291	1004.94	1.02
298.15	0.3707	1007.56	1.02
298.15	0.4328	1011.21	1.02
298.15	0.4749	1013.51	1.02
298.15	0.5215	1015.82	1.02
298.15	0.5647	1017.8	1.02
298.15	0.6364	1020.74	1.02
298.15	0.6778	1022.19	1.03
298.15	0.7312	1023.87	1.03
298.15	0.7701	1024.9	1.03
298.15	0.8321	1026.29	1.03
298.15	0.8711	1026.99	1.03
298.15	0.9011	1027.41	1.03
298.15	0.9312	1027.76	1.03
303.15	0.1276	985.09	1.02
303.15	0.1779	989.28	1.02
303.15	0.2348	993.72	1.02
303.15	0.2664	996.04	1.02
303.15	0.3291	1000.35	1.02
303.15	0.3707	1002.99	1.02
303.15	0.4328	1006.65	1.02
303.15	0.4749	1008.96	1.02
303.15	0.5215	1011.28	1.02
303.15	0.5647	1013.27	1.02
303.15	0.6364	1016.23	1.02
303.15	0.6778	1017.71	1.02
303.15	0.7312	1019.36	1.02
303.15	0.7701	1020.4	1.02
303.15	0.8321	1021.76	1.03
303.15	0.8711	1022.43	1.03
303.15	0.9011	1022.83	1.03
303.15	0.9312	1023.14	1.03
308.15	0.1276	980.3	1.02
308.15	0.1779	984.53	1.02
308.15	0.2348	988.98	1.02
308.15	0.2664	991.33	1.02
308.15	0.3291	995.65	1.02
308.15	0.3707	998.31	1.02
308.15	0.4328	1001.96	1.02
308.15	0.4749	1004.25	1.02
308.15	0.5215	1006.63	1.02
308.15	0.5647	1008.63	1.02
308.15	0.6364	1011.56	1.02
308.15	0.6778	1013.05	1.02
308.15	0.7312	1014.76	1.02
308.15	0.7701	1015.79	1.02
308.15	0.8321	1017.16	1.02
308.15	0.8711	1017.79	1.02
308.15	0.9011	1018.17	1.02
308.15	0.9312	1018.45	1.02

System: pyridine + N-methylpyrrolidone; phases: Liquid
Fixed: Pressure, kPa = 101
Property: Speed of sound, m/s (Liquid); method: Sing-around technique in a fixed-path interferometer
Temperature, K	Mole fraction of N-methylpyrrolidone	Speed of sound, m/s	uncertainty
293.15	0.1276	1467.79	1.24
293.15	0.1779	1478.38	1.24
293.15	0.2348	1490.64	1.24
293.15	0.2664	1497.64	1.24
293.15	0.3291	1511.1	1.25
293.15	0.3707	1519.63	1.25
293.15	0.4328	1532.17	1.25
293.15	0.4749	1540.4	1.25
293.15	0.5215	1548.41	1.26
293.15	0.5647	1555.72	1.26
293.15	0.6364	1565.56	1.26
293.15	0.6778	1569.8	1.26
293.15	0.7312	1574.48	1.26
293.15	0.7701	1576.53	1.26
293.15	0.8321	1577.64	1.26
293.15	0.8711	1576.68	1.26
293.15	0.9011	1575.42	1.26
293.15	0.9312	1573.29	1.26
298.15	0.1276	1444.98	1.23
298.15	0.1779	1455.9	1.24
298.15	0.2348	1468.42	1.24
298.15	0.2664	1475.55	1.24
298.15	0.3291	1488.98	1.24
298.15	0.3707	1498.03	1.24
298.15	0.4328	1510.72	1.25
298.15	0.4749	1518.57	1.25
298.15	0.5215	1526.97	1.25
298.15	0.5647	1534.36	1.25
298.15	0.6364	1544.5	1.25
298.15	0.6778	1548.97	1.26
298.15	0.7312	1553.63	1.26
298.15	0.7701	1556.15	1.26
298.15	0.8321	1557.56	1.26
298.15	0.8711	1556.8	1.26
298.15	0.9011	1555.69	1.26
298.15	0.9312	1553.53	1.26
303.15	0.1276	1425.54	1.23
303.15	0.1779	1436.75	1.23
303.15	0.2348	1449.36	1.23
303.15	0.2664	1456.17	1.23
303.15	0.3291	1469.79	1.24
303.15	0.3707	1478.87	1.24
303.15	0.4328	1491.6	1.24
303.15	0.4749	1499.51	1.24
303.15	0.5215	1508.29	1.25
303.15	0.5647	1515.26	1.25
303.15	0.6364	1525.63	1.25
303.15	0.6778	1530.76	1.25
303.15	0.7312	1535.63	1.25
303.15	0.7701	1537.76	1.25
303.15	0.8321	1539.31	1.25
303.15	0.8711	1538.89	1.25
303.15	0.9011	1537.4	1.25
303.15	0.9312	1535.38	1.25
308.15	0.1276	1405.29	1.22
308.15	0.1779	1416.42	1.23
308.15	0.2348	1429.08	1.23
308.15	0.2664	1436.21	1.23
308.15	0.3291	1449.7	1.23
308.15	0.3707	1458.76	1.24
308.15	0.4328	1471.49	1.24
308.15	0.4749	1479.41	1.24
308.15	0.5215	1487.9	1.24
308.15	0.5647	1495.42	1.24
308.15	0.6364	1505.86	1.25
308.15	0.6778	1510.48	1.25
308.15	0.7312	1515.39	1.25
308.15	0.7701	1518.07	1.25
308.15	0.8321	1519.65	1.25
308.15	0.8711	1519.08	1.25
308.15	0.9011	1517.6	1.25
308.15	0.9312	1515.59	1.25

System: pyridine + 2-pyrrolidinone; phases: Liquid
Fixed: Pressure, kPa = 101
Property: Mass density, kg/m3 (Liquid); method: Vibrating tube method
Temperature, K	Mole fraction of 2-pyrrolidinone	Mass density, kg/m3	uncertainty
293.15	0.1333	1001.83	1.02
293.15	0.1801	1008.31	1.02
293.15	0.2312	1015.32	1.02
293.15	0.2713	1020.76	1.03
293.15	0.3312	1028.79	1.03
293.15	0.3717	1034.17	1.03
293.15	0.4312	1041.94	1.03
293.15	0.4752	1047.59	1.03
293.15	0.5316	1054.74	1.03
293.15	0.5717	1059.77	1.03
293.15	0.6219	1065.97	1.03
293.15	0.6772	1072.71	1.03
293.15	0.7314	1079.26	1.04
293.15	0.7714	1084.05	1.04
293.15	0.8312	1091.16	1.04
293.15	0.8712	1095.91	1.04
293.15	0.9013	1099.48	1.04
293.15	0.9311	1103.03	1.04
298.15	0.1333	997.07	1.02
298.15	0.1801	1003.57	1.02
298.15	0.2312	1010.62	1.02
298.15	0.2713	1016.1	1.02
298.15	0.3312	1024.17	1.03
298.15	0.3717	1029.56	1.03
298.15	0.4312	1037.41	1.03
298.15	0.4752	1043.13	1.03
298.15	0.5316	1050.35	1.03
298.15	0.5717	1055.45	1.03
298.15	0.6219	1061.74	1.03
298.15	0.6772	1068.57	1.03
298.15	0.7314	1075.19	1.03
298.15	0.7714	1080.04	1.04
298.15	0.8312	1087.2	1.04
298.15	0.8712	1091.96	1.04
298.15	0.9013	1095.53	1.04
298.15	0.9311	1099.05	1.04
303.15	0.1333	992.29	1.02
303.15	0.1801	998.88	1.02
303.15	0.2312	1006.02	1.02
303.15	0.2713	1011.55	1.02
303.15	0.3312	1019.7	1.03
303.15	0.3717	1025.16	1.03
303.15	0.4312	1033.04	1.03
303.15	0.4752	1038.77	1.03
303.15	0.5316	1046.02	1.03
303.15	0.5717	1051.12	1.03
303.15	0.6219	1057.4	1.03
303.15	0.6772	1064.23	1.03
303.15	0.7314	1070.86	1.03
303.15	0.7714	1075.69	1.03
303.15	0.8312	1082.86	1.04
303.15	0.8712	1087.64	1.04
303.15	0.9013	1091.23	1.04
303.15	0.9311	1094.78	1.04
308.15	0.1333	987.38	1.02
308.15	0.1801	994.01	1.02
308.15	0.2312	1001.17	1.02
308.15	0.2713	1006.71	1.02
308.15	0.3312	1014.93	1.02
308.15	0.3717	1020.41	1.03
308.15	0.4312	1028.34	1.03
308.15	0.4752	1034.15	1.03
308.15	0.5316	1041.5	1.03
308.15	0.5717	1046.65	1.03
308.15	0.6219	1053.03	1.03
308.15	0.6772	1059.98	1.03
308.15	0.7314	1066.7	1.03
308.15	0.7714	1071.59	1.03
308.15	0.8312	1078.85	1.04
308.15	0.8712	1083.64	1.04
308.15	0.9013	1087.24	1.04
308.15	0.9311	1090.78	1.04

System: pyridine + 2-pyrrolidinone; phases: Liquid
Fixed: Pressure, kPa = 101
Property: Speed of sound, m/s (Liquid); method: Sing-around technique in a fixed-path interferometer
Temperature, K	Mole fraction of 2-pyrrolidinone	Speed of sound, m/s	uncertainty
293.15	0.1333	1468.55	1.24
293.15	0.1801	1478.13	1.24
293.15	0.2312	1488.56	1.24
293.15	0.2713	1496.94	1.24
293.15	0.3312	1509.44	1.25
293.15	0.3717	1517.97	1.25
293.15	0.4312	1530.76	1.25
293.15	0.4752	1540.22	1.25
293.15	0.5316	1552.27	1.26
293.15	0.5717	1560.91	1.26
293.15	0.6219	1571.89	1.26
293.15	0.6772	1583.7	1.26
293.15	0.7314	1595.43	1.27
293.15	0.7714	1603.92	1.27
293.15	0.8312	1616.41	1.27
293.15	0.8712	1624.74	1.27
293.15	0.9013	1630.77	1.27
293.15	0.9311	1636.8	1.28
298.15	0.1333	1445.62	1.23
298.15	0.1801	1455.49	1.23
298.15	0.2312	1466.4	1.24
298.15	0.2713	1475.11	1.24
298.15	0.3312	1488.12	1.24
298.15	0.3717	1496.85	1.24
298.15	0.4312	1510.01	1.25
298.15	0.4752	1519.72	1.25
298.15	0.5316	1532.1	1.25
298.15	0.5717	1540.95	1.25
298.15	0.6219	1552.09	1.26
298.15	0.6772	1564.47	1.26
298.15	0.7314	1576.4	1.26
298.15	0.7714	1585.07	1.26
298.15	0.8312	1598.21	1.27
298.15	0.8712	1606.74	1.27
298.15	0.9013	1613.18	1.27
298.15	0.9311	1619.56	1.27
303.15	0.1333	1426.5	1.23
303.15	0.1801	1436.72	1.23
303.15	0.2312	1447.89	1.23
303.15	0.2713	1456.59	1.23
303.15	0.3312	1469.8	1.24
303.15	0.3717	1478.85	1.24
303.15	0.4312	1491.94	1.24
303.15	0.4752	1501.85	1.24
303.15	0.5316	1514.39	1.25
303.15	0.5717	1523.21	1.25
303.15	0.6219	1534.39	1.25
303.15	0.6772	1546.67	1.26
303.15	0.7314	1558.77	1.26
303.15	0.7714	1567.58	1.26
303.15	0.8312	1580.71	1.26
303.15	0.8712	1589.35	1.26
303.15	0.9013	1595.96	1.27
303.15	0.9311	1602.39	1.27
308.15	0.1333	1406.53	1.22
308.15	0.1801	1416.9	1.23
308.15	0.2312	1428.32	1.23
308.15	0.2713	1437.43	1.23
308.15	0.3312	1450.93	1.23
308.15	0.3717	1460.01	1.24
308.15	0.4312	1473.6	1.24
308.15	0.4752	1483.49	1.24
308.15	0.5316	1496.33	1.24
308.15	0.5717	1505.57	1.25
308.15	0.6219	1516.97	1.25
308.15	0.6772	1529.51	1.25
308.15	0.7314	1541.68	1.25
308.15	0.7714	1550.73	1.26
308.15	0.8312	1564.28	1.26
308.15	0.8712	1573.18	1.26
308.15	0.9013	1579.99	1.26
308.15	0.9311	1586.56	1.26

System: pyridine + N-methylpyrrolidone + 1-ethyl-3-methylimidazolium tetrafluoroborate; phases: Liquid
Fixed: Pressure, kPa = 101
Property: Mass density, kg/m3 (Liquid); method: Vibrating tube method
Temperature, K	Mole fraction of 1-ethyl-3-methylimidazolium tetrafluoroborate	Mole fraction of N-methylpyrrolidone	Mass density, kg/m3	uncertainty
293.15	0.1799	0.7366	1100.18	1.08
293.15	0.1941	0.7092	1103.06	1.1
293.15	0.2044	0.6892	1105.18	1.1
293.15	0.2223	0.6252	1110.58	1.1
293.15	0.2602	0.5285	1126.73	1.11
293.15	0.3018	0.4912	1138.55	1.12
293.15	0.3271	0.4723	1145.13	1.13
293.15	0.3476	0.4674	1148.1	1.14
293.15	0.3645	0.4481	1154.01	1.15
293.15	0.3893	0.4215	1162.61	1.16
293.15	0.3947	0.4159	1164.48	1.17
293.15	0.4029	0.4076	1167.28	1.17
293.15	0.4121	0.3985	1170.39	1.18
293.15	0.433	0.3784	1177.35	1.19
293.15	0.4454	0.3669	1181.38	1.19
293.15	0.4676	0.3469	1188.39	1.21
293.15	0.4844	0.3323	1193.54	1.22
293.15	0.5024	0.3169	1198.89	1.23
293.15	0.5247	0.2985	1205.18	1.24
293.15	0.5405	0.2856	1209.48	1.25
293.15	0.5531	0.2755	1212.78	1.26
293.15	0.5768	0.2567	1218.71	1.28
293.15	0.5862	0.2493	1220.97	1.29
293.15	0.6003	0.2383	1224.23	1.3
293.15	0.6221	0.2214	1229.01	1.32
293.15	0.6462	0.2021	1233.97	1.33
293.15	0.6651	0.1883	1237.52	1.35
293.15	0.6788	0.1778	1239.98	1.36
293.15	0.6918	0.1679	1242.2	1.37
293.15	0.7231	0.1443	1247.16	1.4
298.15	0.1799	0.7366	1095.57	1.08
298.15	0.1941	0.7092	1098.35	1.09
298.15	0.2044	0.6892	1100.38	1.1
298.15	0.2223	0.6252	1105.68	1.1
298.15	0.2602	0.5285	1122.01	1.11
298.15	0.3018	0.4912	1133.81	1.12
298.15	0.3271	0.4723	1140.38	1.13
298.15	0.3476	0.4674	1143.22	1.14
298.15	0.3645	0.4481	1149.21	1.15
298.15	0.3893	0.4215	1157.94	1.16
298.15	0.3947	0.4159	1159.84	1.16
298.15	0.4029	0.4076	1162.68	1.17
298.15	0.4121	0.3985	1165.84	1.17
298.15	0.433	0.3784	1172.91	1.18
298.15	0.4454	0.3669	1177.01	1.19
298.15	0.4676	0.3469	1184.16	1.2
298.15	0.4844	0.3323	1189.37	1.21
298.15	0.5024	0.3169	1194.8	1.22
298.15	0.5247	0.2985	1201.2	1.24
298.15	0.5405	0.2856	1205.56	1.25
298.15	0.5531	0.2755	1208.9	1.26
298.15	0.5768	0.2567	1214.92	1.27
298.15	0.5862	0.2493	1217.2	1.28
298.15	0.6003	0.2383	1220.49	1.29
298.15	0.6221	0.2214	1225.32	1.33
298.15	0.6462	0.2021	1230.32	1.33
298.15	0.6651	0.1883	1233.88	1.34
298.15	0.6788	0.1778	1236.34	1.35
298.15	0.6918	0.1679	1238.56	1.36
298.15	0.7231	0.1443	1243.5	1.39
303.15	0.1799	0.7366	1090.92	1.08
303.15	0.1941	0.7092	1093.54	1.09
303.15	0.2044	0.6892	1095.47	1.1
303.15	0.2223	0.6252	1100.85	1.1
303.15	0.2602	0.5285	1117.37	1.11
303.15	0.3018	0.4912	1129.14	1.12
303.15	0.3271	0.4723	1135.67	1.13
303.15	0.3476	0.4674	1138.11	1.14
303.15	0.3645	0.4481	1144.19	1.15
303.15	0.3893	0.4215	1153.07	1.16
303.15	0.3947	0.4159	1155	1.16
303.15	0.4029	0.4076	1157.9	1.17
303.15	0.4121	0.3985	1161.12	1.17
303.15	0.433	0.3784	1168.34	1.18
303.15	0.4454	0.3669	1172.52	1.19
303.15	0.4676	0.3469	1179.83	1.2
303.15	0.4844	0.3323	1185.15	1.21
303.15	0.5024	0.3169	1190.71	1.22
303.15	0.5247	0.2985	1197.24	1.24
303.15	0.5405	0.2856	1201.7	1.25
303.15	0.5531	0.2755	1205.12	1.26
303.15	0.5768	0.2567	1211.26	1.27
303.15	0.5862	0.2493	1213.59	1.28
303.15	0.6003	0.2383	1216.95	1.29
303.15	0.6221	0.2214	1221.87	1.31
303.15	0.6462	0.2021	1226.95	1.32
303.15	0.6651	0.1883	1230.56	1.34
303.15	0.6788	0.1778	1233.05	1.35
303.15	0.6918	0.1679	1235.3	1.36
303.15	0.7231	0.1443	1240.28	1.39
308.15	0.1799	0.7366	1085.8	1.08
308.15	0.1941	0.7092	1088.21	1.1
308.15	0.2044	0.6892	1090	1.1
308.15	0.2223	0.6252	1095.05	1.1
308.15	0.2602	0.5285	1111.81	1.11
308.15	0.3018	0.4912	1123.44	1.12
308.15	0.3271	0.4723	1129.88	1.13
308.15	0.3476	0.4674	1132.33	1.14
308.15	0.3645	0.4481	1138.51	1.15
308.15	0.3893	0.4215	1147.56	1.16
308.15	0.3947	0.4159	1149.53	1.16
308.15	0.4029	0.4076	1152.49	1.17
308.15	0.4121	0.3985	1155.78	1.17
308.15	0.433	0.3784	1163.16	1.18
308.15	0.4454	0.3669	1167.44	1.19
308.15	0.4676	0.3469	1174.92	1.2
308.15	0.4844	0.3323	1180.38	1.21
308.15	0.5024	0.3169	1186.06	1.22
308.15	0.5247	0.2985	1192.75	1.24
308.15	0.5405	0.2856	1197.32	1.25
308.15	0.5531	0.2755	1200.81	1.25
308.15	0.5768	0.2567	1207.09	1.27
308.15	0.5862	0.2493	1209.47	1.28
308.15	0.6003	0.2383	1212.9	1.29
308.15	0.6221	0.2214	1217.92	1.32
308.15	0.6462	0.2021	1223.09	1.32
308.15	0.6651	0.1883	1226.74	1.34
308.15	0.6788	0.1778	1229.26	1.35
308.15	0.6918	0.1679	1231.53	1.36
308.15	0.7231	0.1443	1236.53	1.38

System: pyridine + N-methylpyrrolidone + 1-ethyl-3-methylimidazolium tetrafluoroborate; phases: Liquid
Fixed: Pressure, kPa = 101
Property: Speed of sound, m/s (Liquid); method: Sing-around technique in a fixed-path interferometer
Temperature, K	Mole fraction of 1-ethyl-3-methylimidazolium tetrafluoroborate	Mole fraction of N-methylpyrrolidone	Speed of sound, m/s	uncertainty
293.15	0.1799	0.7366	1579.56	1.41
293.15	0.1941	0.7092	1578.1	1.43
293.15	0.2044	0.6892	1577.06	1.44
293.15	0.2223	0.6252	1580.83	1.45
293.15	0.2602	0.5285	1591.98	1.48
293.15	0.3018	0.4912	1591.15	1.52
293.15	0.3271	0.4723	1589.74	1.54
293.15	0.3476	0.4674	1583.65	1.56
293.15	0.3645	0.4481	1586.22	1.57
293.15	0.3893	0.4215	1590.19	1.59
293.15	0.3947	0.4159	1591.08	1.6
293.15	0.4029	0.4076	1592.43	1.6
293.15	0.4121	0.3985	1593.92	1.61
293.15	0.433	0.3784	1597.34	1.63
293.15	0.4454	0.3669	1599.33	1.64
293.15	0.4676	0.3469	1602.81	1.66
293.15	0.4844	0.3323	1605.24	1.68
293.15	0.5024	0.3169	1607.81	1.69
293.15	0.5247	0.2985	1610.62	1.71
293.15	0.5405	0.2856	1612.47	1.73
293.15	0.5531	0.2755	1613.81	1.74
293.15	0.5768	0.2567	1616.04	1.76
293.15	0.5862	0.2493	1616.81	1.77
293.15	0.6003	0.2383	1617.84	1.78
293.15	0.6221	0.2214	1619.1	1.81
293.15	0.6462	0.2021	1620.13	1.83
293.15	0.6651	0.1883	1620.44	1.84
293.15	0.6788	0.1778	1620.55	1.85
293.15	0.6918	0.1679	1620.52	1.86
293.15	0.7231	0.1443	1620.1	1.89
298.15	0.1799	0.7366	1560.23	1.41
298.15	0.1941	0.7092	1558.73	1.44
298.15	0.2044	0.6892	1557.72	1.43
298.15	0.2223	0.6252	1562.25	1.44
298.15	0.2602	0.5285	1575.27	1.48
298.15	0.3018	0.4912	1574.74	1.51
298.15	0.3271	0.4723	1573.36	1.54
298.15	0.3476	0.4674	1566.76	1.55
298.15	0.3645	0.4481	1569.75	1.57
298.15	0.3893	0.4215	1574.32	1.59
298.15	0.3947	0.4159	1575.33	1.59
298.15	0.4029	0.4076	1576.87	1.6
298.15	0.4121	0.3985	1578.6	1.61
298.15	0.433	0.3784	1582.51	1.63
298.15	0.4454	0.3669	1584.77	1.64
298.15	0.4676	0.3469	1588.7	1.66
298.15	0.4844	0.3323	1591.49	1.67
298.15	0.5024	0.3169	1594.41	1.69
298.15	0.5247	0.2985	1597.59	1.71
298.15	0.5405	0.2856	1599.7	1.73
298.15	0.5531	0.2755	1601.24	1.74
298.15	0.5768	0.2567	1603.77	1.76
298.15	0.5862	0.2493	1604.65	1.77
298.15	0.6003	0.2383	1605.81	1.78
298.15	0.6221	0.2214	1607.26	1.8
298.15	0.6462	0.2021	1608.44	1.82
298.15	0.6651	0.1883	1608.8	1.84
298.15	0.6788	0.1778	1608.94	1.85
298.15	0.6918	0.1679	1608.92	1.86
298.15	0.7231	0.1443	1608.41	1.89
303.15	0.1799	0.7366	1543.89	1.4
303.15	0.1941	0.7092	1542.87	1.42
303.15	0.2044	0.6892	1542.18	1.43
303.15	0.2223	0.6252	1547.05	1.44
303.15	0.2602	0.5285	1560.21	1.47
303.15	0.3018	0.4912	1560.24	1.51
303.15	0.3271	0.4723	1559.25	1.53
303.15	0.3476	0.4674	1553.31	1.55
303.15	0.3645	0.4481	1556.35	1.57
303.15	0.3893	0.4215	1560.98	1.58
303.15	0.3947	0.4159	1562.03	1.59
303.15	0.4029	0.4076	1563.58	1.6
303.15	0.4121	0.3985	1565.31	1.61
303.15	0.433	0.3784	1569.27	1.62
303.15	0.4454	0.3669	1571.54	1.64
303.15	0.4676	0.3469	1575.53	1.66
303.15	0.4844	0.3323	1578.38	1.67
303.15	0.5024	0.3169	1581.34	1.69
303.15	0.5247	0.2985	1584.6	1.71
303.15	0.5405	0.2856	1586.77	1.72
303.15	0.5531	0.2755	1588.36	1.73
303.15	0.5768	0.2567	1591.01	1.76
303.15	0.5862	0.2493	1591.95	1.76
303.15	0.6003	0.2383	1593.19	1.78
303.15	0.6221	0.2214	1594.78	1.86
303.15	0.6462	0.2021	1596.15	1.83
303.15	0.6651	0.1883	1596.66	1.84
303.15	0.6788	0.1778	1596.92	1.85
303.15	0.6918	0.1679	1597.01	1.86
303.15	0.7231	0.1443	1596.81	1.89
308.15	0.1799	0.7366	1526.7	1.4
308.15	0.1941	0.7092	1526.18	1.42
308.15	0.2044	0.6892	1525.85	1.43
308.15	0.2223	0.6252	1531.84	1.43
308.15	0.2602	0.5285	1546.15	1.47
308.15	0.3018	0.4912	1546.96	1.51
308.15	0.3271	0.4723	1546.37	1.53
308.15	0.3476	0.4674	1540.5	1.55
308.15	0.3645	0.4481	1543.76	1.57
308.15	0.3893	0.4215	1548.67	1.58
308.15	0.3947	0.4159	1549.79	1.59
308.15	0.4029	0.4076	1551.41	1.59
308.15	0.4121	0.3985	1553.23	1.6
308.15	0.433	0.3784	1557.35	1.62
308.15	0.4454	0.3669	1559.72	1.63
308.15	0.4676	0.3469	1563.84	1.65
308.15	0.4844	0.3323	1566.77	1.67
308.15	0.5024	0.3169	1569.79	1.69
308.15	0.5247	0.2985	1573.13	1.71
308.15	0.5405	0.2856	1575.34	1.72
308.15	0.5531	0.2755	1576.94	1.73
308.15	0.5768	0.2567	1579.61	1.75
308.15	0.5862	0.2493	1580.55	1.76
308.15	0.6003	0.2383	1581.81	1.78
308.15	0.6221	0.2214	1583.4	1.8
308.15	0.6462	0.2021	1584.74	1.82
308.15	0.6651	0.1883	1585.23	1.83
308.15	0.6788	0.1778	1585.47	1.85
308.15	0.6918	0.1679	1585.54	1.86
308.15	0.7231	0.1443	1585.31	1.89

System: pyridine + 2-pyrrolidinone + 1-ethyl-3-methylimidazolium tetrafluoroborate; phases: Liquid
Fixed: Pressure, kPa = 101
Property: Mass density, kg/m3 (Liquid); method: Vibrating tube method
Temperature, K	Mole fraction of 1-ethyl-3-methylimidazolium tetrafluoroborate	Mole fraction of 2-pyrrolidinone	Mass density, kg/m3	uncertainty
293.15	0.1797	0.7437	1159.56	1.1
293.15	0.1952	0.7087	1161.36	1.1
293.15	0.2041	0.6838	1162.05	1.1
293.15	0.2181	0.6798	1167.13	1.11
293.15	0.2381	0.6106	1167.14	1.12
293.15	0.2598	0.5748	1171.38	1.12
293.15	0.2831	0.5407	1176.28	1.13
293.15	0.3001	0.5184	1179.98	1.14
293.15	0.3255	0.4879	1185.6	1.15
293.15	0.3471	0.4642	1190.39	1.16
293.15	0.3637	0.4468	1194.06	1.17
293.15	0.3897	0.4212	1199.72	1.18
293.15	0.4036	0.4081	1202.69	1.19
293.15	0.4131	0.3993	1204.7	1.19
293.15	0.4355	0.3793	1209.35	1.21
293.15	0.4487	0.3679	1212.02	1.21
293.15	0.4731	0.3472	1216.84	1.23
293.15	0.4865	0.3358	1219.42	1.24
293.15	0.5025	0.3226	1222.41	1.25
293.15	0.5285	0.3013	1227.1	1.26
293.15	0.5465	0.2867	1230.21	1.28
293.15	0.5587	0.2767	1232.26	1.28
293.15	0.5789	0.2602	1235.51	1.3
293.15	0.5835	0.2563	1236.23	1.3
293.15	0.5979	0.2444	1238.42	1.31
293.15	0.6206	0.2245	1241.67	1.33
293.15	0.6489	0.1946	1245.06	1.35
293.15	0.6531	0.1881	1245.37	1.35
293.15	0.6911	0.1678	1250.58	1.38
293.15	0.7144	0.1572	1253.75	1.4
298.15	0.1797	0.7437	1156.09	1.1
298.15	0.1952	0.7087	1157.92	1.1
298.15	0.2041	0.6838	1158.58	1.11
298.15	0.2181	0.6798	1163.62	1.11
298.15	0.2381	0.6106	1163.5	1.12
298.15	0.2598	0.5748	1167.65	1.12
298.15	0.2831	0.5407	1172.43	1.13
298.15	0.3001	0.5184	1176.06	1.14
298.15	0.3255	0.4879	1181.58	1.15
298.15	0.3471	0.4642	1186.29	1.16
298.15	0.3637	0.4468	1189.9	1.17
298.15	0.3897	0.4212	1195.48	1.18
298.15	0.4036	0.4081	1198.41	1.18
298.15	0.4131	0.3993	1200.4	1.19
298.15	0.4355	0.3793	1205	1.2
298.15	0.4487	0.3679	1207.66	1.21
298.15	0.4731	0.3472	1212.45	1.22
298.15	0.4865	0.3358	1215.01	1.23
298.15	0.5025	0.3226	1218	1.24
298.15	0.5285	0.3013	1222.7	1.26
298.15	0.5465	0.2867	1225.83	1.27
298.15	0.5587	0.2767	1227.89	1.28
298.15	0.5789	0.2602	1231.18	1.29
298.15	0.5835	0.2563	1231.91	1.29
298.15	0.5979	0.2444	1234.15	1.3
298.15	0.6206	0.2245	1237.49	1.32
298.15	0.6489	0.1946	1241.15	1.34
298.15	0.6531	0.1881	1241.56	1.34
298.15	0.6911	0.1678	1246.79	1.37
298.15	0.7144	0.1572	1249.94	1.39
303.15	0.1797	0.7437	1152.11	1.09
303.15	0.1952	0.7087	1153.85	1.1
303.15	0.2041	0.6838	1154.49	1.11
303.15	0.2181	0.6798	1159.58	1.11
303.15	0.2381	0.6106	1159.45	1.12
303.15	0.2598	0.5748	1163.63	1.12
303.15	0.2831	0.5407	1168.47	1.13
303.15	0.3001	0.5184	1172.14	1.14
303.15	0.3255	0.4879	1177.73	1.15
303.15	0.3471	0.4642	1182.5	1.2
303.15	0.3637	0.4468	1186.15	1.16
303.15	0.3897	0.4212	1191.8	1.18
303.15	0.4036	0.4081	1194.77	1.18
303.15	0.4131	0.3993	1196.78	1.19
303.15	0.4355	0.3793	1201.43	1.2
303.15	0.4487	0.3679	1204.11	1.21
303.15	0.4731	0.3472	1208.94	1.22
303.15	0.4865	0.3358	1211.52	1.23
303.15	0.5025	0.3226	1214.53	1.24
303.15	0.5285	0.3013	1219.25	1.25
303.15	0.5465	0.2867	1222.38	1.27
303.15	0.5587	0.2767	1224.44	1.27
303.15	0.5789	0.2602	1227.73	1.29
303.15	0.5835	0.2563	1228.45	1.29
303.15	0.5979	0.2444	1230.67	1.3
303.15	0.6206	0.2245	1233.95	1.32
303.15	0.6489	0.1946	1237.39	1.34
303.15	0.6531	0.1881	1237.7	1.3
303.15	0.6911	0.1678	1243.01	1.37
303.15	0.7144	0.1572	1246.23	1.39
308.15	0.1797	0.7437	1148.07	1.09
308.15	0.1952	0.7087	1149.75	1.1
308.15	0.2041	0.6838	1150.37	1.1
308.15	0.2181	0.6798	1155.46	1.11
308.15	0.2381	0.6106	1155.27	1.11
308.15	0.2598	0.5748	1159.44	1.12
308.15	0.2831	0.5407	1164.28	1.13
308.15	0.3001	0.5184	1167.95	1.13
308.15	0.3255	0.4879	1173.55	1.14
308.15	0.3471	0.4642	1178.34	1.15
308.15	0.3637	0.4468	1182.01	1.16
308.15	0.3897	0.4212	1187.68	1.17
308.15	0.4036	0.4081	1190.67	1.18
308.15	0.4131	0.3993	1192.69	1.19
308.15	0.4355	0.3793	1197.37	1.2
308.15	0.4487	0.3679	1200.06	1.2
308.15	0.4731	0.3472	1204.92	1.22
308.15	0.4865	0.3358	1207.52	1.23
308.15	0.5025	0.3226	1210.55	1.24
308.15	0.5285	0.3013	1215.29	1.25
308.15	0.5465	0.2867	1218.44	1.26
308.15	0.5587	0.2767	1220.51	1.27
308.15	0.5789	0.2602	1223.81	1.28
308.15	0.5835	0.2563	1224.54	1.29
308.15	0.5979	0.2444	1226.76	1.3
308.15	0.6206	0.2245	1230.04	1.31
308.15	0.6489	0.1946	1233.44	1.33
308.15	0.6531	0.1881	1233.72	1.34
308.15	0.6911	0.1678	1239.06	1.37
308.15	0.7144	0.1572	1242.31	1.39

System: pyridine + 2-pyrrolidinone + 1-ethyl-3-methylimidazolium tetrafluoroborate; phases: Liquid
Fixed: Pressure, kPa = 101
Property: Speed of sound, m/s (Liquid); method: Sing-around technique in a fixed-path interferometer
Temperature, K	Mole fraction of 1-ethyl-3-methylimidazolium tetrafluoroborate	Mole fraction of 2-pyrrolidinone	Speed of sound, m/s	uncertainty
293.15	0.1797	0.7437	1643.51	1.42
293.15	0.1952	0.7087	1640.86	1.44
293.15	0.2041	0.6838	1637.81	1.45
293.15	0.2181	0.6798	1643.7	1.46
293.15	0.2381	0.6106	1630.12	1.47
293.15	0.2598	0.5748	1627.4	1.49
293.15	0.2831	0.5407	1625.24	1.51
293.15	0.3001	0.5184	1624.17	1.52
293.15	0.3255	0.4879	1623.09	1.54
293.15	0.3471	0.4642	1622.61	1.56
293.15	0.3637	0.4468	1622.38	1.57
293.15	0.3897	0.4212	1622.39	1.6
293.15	0.4036	0.4081	1622.49	1.61
293.15	0.4131	0.3993	1622.47	1.62
293.15	0.4355	0.3793	1623.05	1.64
293.15	0.4487	0.3679	1623.39	1.65
293.15	0.4731	0.3472	1624.16	1.67
293.15	0.4865	0.3358	1624.64	1.68
293.15	0.5025	0.3226	1625.31	1.7
293.15	0.5285	0.3013	1626.61	1.72
293.15	0.5465	0.2867	1627.67	1.74
293.15	0.5587	0.2767	1628.47	1.75
293.15	0.5789	0.2602	1629.99	1.76
293.15	0.5835	0.2563	1630.39	1.77
293.15	0.5979	0.2444	1631.68	1.78
293.15	0.6206	0.2245	1634.35	1.81
293.15	0.6489	0.1946	1640.77	1.83
293.15	0.6531	0.1881	1643.03	1.84
293.15	0.6911	0.1678	1642.23	1.87
293.15	0.7144	0.1572	1640.78	1.89
298.15	0.1797	0.7437	1627.31	1.42
298.15	0.1952	0.7087	1624.92	1.44
298.15	0.2041	0.6838	1621.97	1.44
298.15	0.2181	0.6798	1628.53	1.46
298.15	0.2381	0.6106	1614.75	1.47
298.15	0.2598	0.5748	1612.32	1.48
298.15	0.2831	0.5407	1610.45	1.5
298.15	0.3001	0.5184	1609.59	1.52
298.15	0.3255	0.4879	1608.81	1.54
298.15	0.3471	0.4642	1608.58	1.56
298.15	0.3637	0.4468	1608.52	1.57
298.15	0.3897	0.4212	1608.78	1.59
298.15	0.4036	0.4081	1609.02	1.61
298.15	0.4131	0.3993	1609.22	1.61
298.15	0.4355	0.3793	1609.86	1.63
298.15	0.4487	0.3679	1610.3	1.65
298.15	0.4731	0.3472	1611.27	1.67
298.15	0.4865	0.3358	1611.86	1.68
298.15	0.5025	0.3226	1612.69	1.69
298.15	0.5285	0.3013	1614.2	1.72
298.15	0.5465	0.2867	1615.42	1.73
298.15	0.5587	0.2767	1616.36	1.74
298.15	0.5789	0.2602	1618.11	1.76
298.15	0.5835	0.2563	1618.58	1.77
298.15	0.5979	0.2444	1620.06	1.78
298.15	0.6206	0.2245	1623.15	1.81
298.15	0.6489	0.1946	1630.62	1.83
298.15	0.6531	0.1881	1633.29	1.84
298.15	0.6911	0.1678	1632.13	1.87
298.15	0.7144	0.1572	1630.29	1.89
303.15	0.1797	0.7437	1611.34	1.42
303.15	0.1952	0.7087	1609	2
303.15	0.2041	0.6838	1606.02	1.44
303.15	0.2181	0.6798	1612.85	1.46
303.15	0.2381	0.6106	1598.99	1.46
303.15	0.2598	0.5748	1596.73	1.48
303.15	0.2831	0.5407	1595.12	1.5
303.15	0.3001	0.5184	1594.44	1.51
303.15	0.3255	0.4879	1594.01	1.54
303.15	0.3471	0.4642	1594.05	1.55
303.15	0.3637	0.4468	1594.25	1.57
303.15	0.3897	0.4212	1594.88	1.59
303.15	0.4036	0.4081	1595.34	1.6
303.15	0.4131	0.3993	1595.7	1.6
303.15	0.4355	0.3793	1596.71	1.63
303.15	0.4487	0.3679	1597.37	1.64
303.15	0.4731	0.3472	1598.76	1.66
303.15	0.4865	0.3358	1599.6	1.7
303.15	0.5025	0.3226	1600.69	1.69
303.15	0.5285	0.3013	1602.7	1.7
303.15	0.5465	0.2867	1604.24	1.73
303.15	0.5587	0.2767	1605.41	1.74
303.15	0.5789	0.2602	1607.53	1.76
303.15	0.5835	0.2563	1608.06	1.76
303.15	0.5979	0.2444	1609.83	1.78
303.15	0.6206	0.2245	1613.35	1.81
303.15	0.6489	0.1946	1621.57	1.84
303.15	0.6531	0.1881	1624.43	1.83
303.15	0.6911	0.1678	1623.44	1.87
303.15	0.7144	0.1572	1621.63	1.89
308.15	0.1797	0.7437	1597.04	1.41
308.15	0.1952	0.7087	1594.66	1.43
308.15	0.2041	0.6838	1591.65	1.44
308.15	0.2181	0.6798	1598.81	1.45
308.15	0.2381	0.6106	1584.61	1.46
308.15	0.2598	0.5748	1582.45	1.48
308.15	0.2831	0.5407	1580.96	1.5
308.15	0.3001	0.5184	1580.39	1.51
308.15	0.3255	0.4879	1580.13	1.53
308.15	0.3471	0.4642	1580.34	1.55
308.15	0.3637	0.4468	1580.67	1.57
308.15	0.3897	0.4212	1581.53	1.59
308.15	0.4036	0.4081	1582.12	1.6
308.15	0.4131	0.3993	1582.55	1.61
308.15	0.4355	0.3793	1583.75	1.63
308.15	0.4487	0.3679	1584.54	1.64
308.15	0.4731	0.3472	1586.15	1.66
308.15	0.4865	0.3358	1587.13	1.67
308.15	0.5025	0.3226	1588.39	1.69
308.15	0.5285	0.3013	1590.65	1.71
308.15	0.5465	0.2867	1592.38	1.73
308.15	0.5587	0.2767	1593.67	1.74
308.15	0.5789	0.2602	1595.99	1.76
308.15	0.5835	0.2563	1596.58	1.76
308.15	0.5979	0.2444	1598.48	1.78
308.15	0.6206	0.2245	1602.25	1.81
308.15	0.6489	0.1946	1610.84	1.83
308.15	0.6531	0.1881	1613.78	1.83
308.15	0.6911	0.1678	1616.69	1.87
308.15	0.7144	0.1572	1616.88	1.89
