Measured thermophysical data. Solubility of Carbon Dioxide in Aqueous Solutions of Monoethanolamine in the Low and High Gas Loading Regions
Source: J. Chem. Eng. Data, 2013, 10.1021/je301030z
Compound 1: carbon dioxide, CO2, InChI=1S/CO2/c2-1-3
Compound 2: 2-aminoethan-1-ol, C2H7NO, InChI=1S/C2H7NO/c3-1-2-4/h4H,1-3H2, purity 99%
Compound 3: water, H2O, InChI=1S/H2O/h1H2, purity 99.9%

System: carbon dioxide + 2-aminoethan-1-ol + water; phases: Liquid, Gas
Property: Vapor or sublimation pressure, kPa (Liquid); method: Closed cell (Static) method
Temperature, K	Molality, mol/kg of 2-aminoethan-1-ol	Molality, mol/kg of carbon dioxide	Vapor or sublimation pressure, kPa	uncertainty
313.63	2.856	2.863	1813	153
313.27	2.911	2.962	2134	152
313.22	2.911	3.125	2770	200
313.21	2.911	3.216	3450	250
313.11	2.889	3.541	5240	260
313.2	2.931	3.76	8070	340
353.14	2.93	2.111	803	143
353.23	2.93	2.156	970	127
353.15	2.93	2.244	1198	141
353.18	2.93	2.374	1623	168
353.19	2.93	2.548	2400	220
353.2	2.93	2.665	3100	260
353.24	2.93	2.732	3470	320
353.2	2.93	2.836	4340	340
353.17	2.93	2.899	4750	360
353.23	2.93	3.08	6350	360
393.11	2.856	1.518	786	112
393.16	2.856	1.72	1359	136
393.15	2.856	1.894	2111	161
393.14	2.856	1.992	2490	240
393.15	2.856	2.087	3300	260
393.17	2.856	2.17	3650	250
393.15	2.856	2.308	4670	290
393.15	2.856	2.425	5440	360
393.16	2.856	2.52	6580	480
393.16	2.856	2.699	8740	490
313.23	7.008	4.98	448	78
313.24	7.008	5.267	695	343
313.24	7.008	5.261	739	343
313.18	7.069	5.405	745	75
313.23	7.008	5.739	1312	83
313.26	7.008	5.965	1671	136
313.24	7.008	6.627	3620	180
313.23	7.008	6.855	4920	310
313.25	7.008	7.233	7320	220
313.2	7.008	7.279	7510	240
353.26	7.069	4.151	513	63
353.16	7.069	4.544	981	121
353.17	7.069	4.862	1715	231
353.18	7.069	5.027	2234	112
353.16	7.069	5.182	2710	130
353.15	7.069	5.457	3800	170
353.21	7.069	5.732	5520	300
353.18	7.069	6.059	7400	300
393.14	7.069	3.37	644	73
393.19	7.069	3.603	972	92
393.19	7.069	3.731	1249	143
393.19	7.069	3.995	2084	191
393.21	7.069	4.148	2760	200
393.18	7.069	4.255	3230	180
393.19	7.069	4.316	3410	200
393.21	7.069	4.483	4210	210
393.19	7.069	4.709	5230	290
393.16	7.069	4.987	7230	350

System: carbon dioxide + 2-aminoethan-1-ol + water; phases: Liquid, Gas
Property: Molality, mol/kg of carbon dioxide (Liquid); method: Gas chromatography
Temperature, K	Molality, mol/kg of 2-aminoethan-1-ol	Pressure, kPa of carbon dioxide	Molality, mol/kg of carbon dioxide	uncertainty
313.63	2.856	1813	2.863	0.043
313.27	2.911	2134	2.962	0.04
313.22	2.911	2770	3.125	0.041
313.21	2.911	3450	3.216	0.048
313.11	2.889	5240	3.541	0.043
313.2	2.931	8070	3.76	0.04
353.14	2.93	803	2.111	0.039
353.23	2.93	970	2.156	0.04
353.15	2.93	1198	2.244	0.039
353.18	2.93	1623	2.374	0.039
353.19	2.93	2400	2.548	0.042
353.2	2.93	3100	2.665	0.042
353.24	2.93	3470	2.732	0.042
353.2	2.93	4340	2.836	0.042
353.17	2.93	4750	2.899	0.042
353.23	2.93	6350	3.08	0.04
393.11	2.856	786	1.518	0.04
393.16	2.856	1359	1.72	0.04
393.15	2.856	2111	1.894	0.039
393.14	2.856	2490	1.992	0.039
393.15	2.856	3300	2.087	0.039
393.17	2.856	3650	2.17	0.04
393.15	2.856	4670	2.308	0.041
393.15	2.856	5440	2.425	0.041
393.16	2.856	6580	2.52	0.04
393.16	2.856	8740	2.699	0.042
313.23	7.008	448	4.98	0.13
313.24	7.008	695	5.267	0.062
313.24	7.008	739	5.261	0.062
313.18	7.069	745	5.405	0.068
313.23	7.008	1312	5.739	0.059
313.26	7.008	1671	5.965	0.059
313.24	7.008	3620	6.627	0.06
313.23	7.008	4920	6.855	0.061
313.25	7.008	7320	7.233	0.064
313.2	7.008	7510	7.279	0.066
353.26	7.069	513	4.151	0.059
353.16	7.069	981	4.544	0.054
353.17	7.069	1715	4.862	0.053
353.18	7.069	2234	5.027	0.055
353.16	7.069	2710	5.182	0.056
353.15	7.069	3800	5.457	0.056
353.21	7.069	5520	5.732	0.058
353.18	7.069	7400	6.059	0.06
393.14	7.069	644	3.37	0.05
393.19	7.069	972	3.603	0.058
393.19	7.069	1249	3.731	0.052
393.19	7.069	2084	3.995	0.056
393.21	7.069	2760	4.148	0.049
393.18	7.069	3230	4.255	0.05
393.19	7.069	3410	4.316	0.051
393.21	7.069	4210	4.483	0.05
393.19	7.069	5230	4.709	0.052
393.16	7.069	7230	4.987	0.053
313.16	2.863	2.3	1.417	0.073
313.16	2.863	5.94	1.521	0.027
313.18	2.869	9.93	1.585	0.037
313.16	2.863	14.7	1.638	0.051
313.17	2.869	21.7	1.689	0.033
313.16	2.863	28.1	1.732	0.038
313.17	2.869	39.9	1.788	0.036
313.18	2.869	56.2	1.84	0.01
353.16	2.872	1.59	0.75	0.02
353.17	2.893	2.79	0.872	0.021
353.17	2.893	5.17	1.029	0.02
353.17	2.872	8.01	1.12	0.02
353.17	2.893	12.8	1.226	0.03
353.17	2.872	20.4	1.322	0.019
353.17	2.893	23.9	1.364	0.014
353.17	2.872	49.4	1.492	0.049
353.16	2.893	59.9	1.531	0.039
393.2	2.818	2.06	0.205	0.014
393.16	2.818	3.49	0.315	0.012
393.17	2.999	5.65	0.439	0.013
393.14	2.999	11.3	0.612	0.013
393.18	2.999	19.9	0.753	0.011
393.11	2.999	26	0.829	0.013
393.19	2.818	49.1	0.932	0.022
393.17	2.999	38.9	0.934	0.016
393.18	2.818	74	1.02	0.01
393.17	2.999	58.2	1.038	0.017
313.2	7.055	1.38	3.296	0.017
313.16	7.097	3.27	3.498	0.061
313.21	6.919	6.08	3.519	0.023
313.21	7.055	9.02	3.679	0.018
313.21	7.097	17.5	3.826	0.03
313.21	7.097	29.2	3.958	0.064
313.16	7.035	49.1	4.061	0.021
313.21	6.919	66.4	4.106	0.036
352.86	7.192	1.58	2.105	0.03
352.83	6.992	3.75	2.462	0.028
352.81	7.036	6.59	2.787	0.042
352.83	6.992	11.8	3.002	0.055
352.85	7.192	18.4	3.204	0.041
352.81	7.036	23	3.228	0.037
352.84	6.992	29.6	3.289	0.029
352.82	6.992	39.7	3.4	0.1
352.83	6.992	55.2	3.489	0.078
352.83	7.019	70.4	3.591	0.061
352.83	7.019	78.7	3.622	0.066
391.99	7.109	2.92	0.73	0.06
391.99	7.338	3.1	0.845	0.052
391.98	7.338	4.24	0.969	0.045
392.03	7.251	7.16	1.239	0.027
392	7.338	12.2	1.564	0.033
391.94	7.109	16	1.704	0.026
392	7.338	24.2	2.004	0.047
391.98	7.338	27.6	2.087	0.057
392	7.338	41.6	2.369	0.099
392.01	7.109	62.4	2.497	0.046
392.01	7.251	69.8	2.618	0.069
391.96	7.251	73.2	2.633	0.07

System: 2-aminoethan-1-ol + water; phases: Liquid
Fixed: Pressure, kPa = 101
Property: Mass density, kg/m3 (Liquid); method: Vibrating tube method
Temperature, K	Molality, mol/kg of 2-aminoethan-1-ol	Mass density, kg/m3	uncertainty
293.16	2.8	1004.53	0.11
297.14	2.8	1003.31	0.11
301.14	2.8	1001.95	0.11
305.14	2.8	1000.48	0.11
309.14	2.8	998.89	0.11
313.14	2.8	997.21	0.11
317.14	2.8	995.42	0.11
320.14	2.8	994.02	0.11
293.16	7.01	1013.19	0.12
297.14	7.01	1011.51	0.12
301.14	7.01	1009.75	0.12
305.14	7.01	1007.89	0.12
309.14	7.01	1005.96	0.12
313.14	7.01	1003.95	0.12
317.14	7.01	1001.85	0.12
320.14	7.01	1000.22	0.12
