Measured thermophysical data. Isobaric Vapor Liquid Equilibrium of the Mixture of Methyl Palmitate and Methyl Stearate at 0.1 kPa, 1 kPa, 5 kPa, and 10 kPa
Source: J. Chem. Eng. Data, 2012, 10.1021/je3003699
Compound 1: methyl tetradecanoate, C15H30O2, InChI=1S/C15H30O2/c1-3-4-5-6-7-8-9-10-11-12-13-14-15(16)17-2/h3-14H2,1-2H3, purity 99%
Compound 2: methyl hexadecanoate, C17H34O2, InChI=1S/C17H34O2/c1-3-4-5-6-7-8-9-10-11-12-13-14-15-16-17(18)19-2/h3-16H2,1-2H3, purity 99%
Compound 3: methyl octadecanoate, C19H38O2, InChI=1S/C19H38O2/c1-3-4-5-6-7-8-9-10-11-12-13-14-15-16-17-18-19(20)21-2/h3-18H2,1-2H3, purity 99%

System: methyl hexadecanoate; phases: Liquid, Gas
Property: Vapor or sublimation pressure, kPa (Liquid); method: Ebulliometric method (Recirculating still)
Temperature, K	Vapor or sublimation pressure, kPa	uncertainty
408.3	0.1	0.00935
450.9	1	0.1205
490.8	5	0.32
511.25	10	0.72

System: methyl octadecanoate; phases: Liquid, Gas
Property: Vapor or sublimation pressure, kPa (Liquid); method: Ebulliometric method (Recirculating still)
Temperature, K	Vapor or sublimation pressure, kPa	uncertainty
427.5	0.1	0.00975
472.2	1	0.126
512.5	5	0.33
535.5	10	0.78

System: methyl hexadecanoate + methyl tetradecanoate; phases: Liquid, Gas
Fixed: Pressure, kPa = 4
Property: Boiling temperature at pressure P, K (Liquid); method: Ebulliometric method (Recirculating still)
Mole fraction of methyl tetradecanoate	Boiling temperature at pressure P, K	uncertainty
0.346	475.49	1.03
0.492	468.9	0.96
0.496	468.82	0.96
0.767	464.62	0.94

System: methyl hexadecanoate + methyl octadecanoate; phases: Liquid, Gas
Property: Boiling temperature at pressure P, K (Liquid); method: Ebulliometric method (Recirculating still)
Mole fraction of methyl hexadecanoate	Pressure, kPa	Boiling temperature at pressure P, K	uncertainty
0	0.1	427.5	1.95
0	1	472.2	2.52
0	5	512.5	1.32
0	10	535.5	1.56
0.0953	1	461.65	1.98
0.1298	0.1	417.65	1.91
0.1616	1	459.7	1.12
0.1631	5	499.53	1.56
0.175	10	526.15	1.91
0.2423	0.1	415.05	1.9
0.245	5	498.03	1.39
0.2532	1	458.35	2.47
0.298	5	497.96	1.36
0.3233	10	523.15	1.71
0.3341	1	457.6	2.45
0.3369	0.1	414.27	1.89
0.4096	10	521.15	1.7
0.4169	5	495.83	1.36
0.4459	0.1	413.95	1.88
0.4524	1	456.18	2.41
0.4781	10	520.15	1.68
0.4973	5	494.24	1.33
0.5513	10	517.15	1.59
0.5703	0.1	412.13	1.89
0.5926	1	455.05	1.02
0.5976	5	493.58	1.29
0.6276	10	516.15	1.57
0.67	0.1	411.17	1.9
0.6927	10	515.15	1.51
0.695	1	454.55	1.03
0.7236	5	492.98	1.28
0.7744	10	514.15	1.5
0.7811	0.1	410.88	1.92
0.8026	5	491.88	1.27
0.8368	1	453.65	1.07
0.8674	10	512.15	1.46
0.8714	0.1	409.35	1.91
0.9123	5	491.18	1.31
0.9462	10	511.65	1.45
0.9527	1	452.15	2.44
0.9621	0.1	408.66	1.91
1	0.1	408.3	1.87
1	1	450.9	2.41
1	5	490.8	1.28
1	10	511.25	1.44

System: methyl hexadecanoate + methyl octadecanoate; phases: Gas, Liquid
Property: Mole fraction of methyl hexadecanoate (Gas); method: Chromatography
Mole fraction of methyl hexadecanoate	Pressure, kPa	Mole fraction of methyl hexadecanoate	uncertainty
0	0.1	0	
0	1	0	
0	5	0	
0	10	0	
0.0953	1	0.4155	0.0352
0.1298	0.1	0.525	0.0281
0.1616	1	0.5016	0.0138
0.1631	5	0.4747	0.0264
0.175	10	0.3846	0.0219
0.2423	0.1	0.6134	0.0135
0.245	5	0.5524	0.0155
0.2532	1	0.5617	0.0134
0.298	5	0.6061	0.0124
0.3233	10	0.5787	0.0163
0.3341	1	0.6262	0.0135
0.3369	0.1	0.686	0.0128
0.4096	10	0.6489	0.0136
0.4169	5	0.6531	0.0119
0.4459	0.1	0.755	0.0118
0.4524	1	0.716	0.0124
0.4781	10	0.7042	0.0123
0.4973	5	0.694	0.0114
0.5513	10	0.7352	0.0119
0.5703	0.1	0.8081	0.0114
0.5926	1	0.7889	0.0116
0.5976	5	0.7401	0.012
0.6276	10	0.7823	0.0122
0.67	0.1	0.8617	0.0113
0.6927	10	0.8223	0.0116
0.695	1	0.84	0.0113
0.7236	5	0.82	0.0117
0.7744	10	0.8592	0.0115
0.7811	0.1	0.91	0.0109
0.8026	5	0.8547	0.0118
0.8368	1	0.9087	0.0114
0.8674	10	0.9129	0.0117
0.8714	0.1	0.942	0.0107
0.9123	5	0.9302	0.0126
0.9462	10	0.9611	0.012
0.9527	1	0.9745	0.0115
0.9621	0.1	0.9758	0.0109
1	0.1	1	
1	1	1	
1	5	1	
1	10	1	
