Measured thermophysical data. Enthalpies of Dilution, Volumetric Properties, and Refractive Indices of N,N'-Hexamethylenebisacetamide in Aqueous Xylitol or d-Mannitol Solutions at T = 298.15 K
Source: J. Chem. Eng. Data, 2012, 10.1021/je300633e
Compound 1: N,N'-diacetyl-1,6-hexanediamine, C10H20N2O2, InChI=1S/C10H20N2O2/c1-9(13)11-7-5-3-4-6-8-12-10(2)14/h3-8H2,1-2H3,(H,11,13)(H,12,14), purity 98%
Compound 2: xylitol, C5H12O5, InChI=1S/C5H12O5/c6-1-3(8)5(10)4(9)2-7/h3-10H,1-2H2/t3-,4+,5+, purity 98%
Compound 3: D-mannitol, C6H14O6, InChI=1S/C6H14O6/c7-1-3(9)5(11)6(12)4(10)2-8/h3-12H,1-2H2/t3-,4-,5-,6-/m1/s1, purity 99%
Compound 4: water, H2O, InChI=1S/H2O/h1H2

System: N,N'-diacetyl-1,6-hexanediamine + water; phases: Liquid
Fixed: Temperature, K = 298.15
Fixed: Pressure, kPa = 101
Property: Molar enthalpy of dilution, kJ/mol (Liquid); method: ISOPERIBOL:
Initial molality of solute, mol/kg	Final molality of solute, mol/kg	Molar enthalpy of dilution, kJ/mol	uncertainty
0.05	0.0263	-0.04153	0.0011
0.08	0.0422	-0.07535	0.00137
0.1	0.0525	-0.09841	0.00154
0.12	0.0631	-0.12058	0.00171
0.15	0.0784	-0.15515	0.00198
0.18	0.0941	-0.18842	0.00224
0.2	0.1048	-0.21016	0.00241
0.22	0.1148	-0.23325	0.00258
0.25	0.13	-0.26771	0.00285
0.28	0.1454	-0.30161	0.00311
0.3	0.1554	-0.32494	0.00329
0.32	0.165	-0.34938	0.00348

System: N,N'-diacetyl-1,6-hexanediamine + water; phases: Liquid
Fixed: Temperature, K = 298.15
Fixed: Pressure, kPa = 101
Property: Refractive index (Na D-line) (Liquid); method: Standard Abbe refractometry
Molality, mol/kg of N,N'-diacetyl-1,6-hexanediamine	Refractive index (Na D-line)	uncertainty
0.1	1.3348	0.0009
0.15	1.3363	0.0009
0.2	1.3382	0.0009
0.25	1.3393	0.0009
0.3	1.3409	0.0009
0.35	1.3419	0.0009
0.4	1.3431	0.0009

System: N,N'-diacetyl-1,6-hexanediamine + water; phases: Liquid
Fixed: Temperature, K = 298.15
Fixed: Pressure, kPa = 101
Property: Mass density, kg/m3 (Liquid); method: Vibrating tube method
Molality, mol/kg of N,N'-diacetyl-1,6-hexanediamine	Mass density, kg/m3	uncertainty
0.1	997.981	1.067
0.15	998.443	1.067
0.2	998.931	1.067
0.25	999.413	1.067
0.3	999.901	1.067
0.35	1000.372	1.067
0.4	1000.882	1.067

System: xylitol + water; phases: Liquid
Fixed: Temperature, K = 298.15
Fixed: Pressure, kPa = 101
Property: Refractive index (Na D-line) (Liquid); method: Standard Abbe refractometry
Molality, mol/kg of xylitol	Refractive index (Na D-line)	uncertainty
0.1	1.3341	0.0009
0.2	1.3361	0.0009
0.3	1.3382	0.0009
0.5	1.3423	0.0009
0.7	1.346	0.0009
0.9	1.3494	0.0009

System: xylitol + water; phases: Liquid
Fixed: Temperature, K = 298.15
Fixed: Pressure, kPa = 101
Property: Mass density, kg/m3 (Liquid); method: Vibrating tube method
Molality, mol/kg of xylitol	Mass density, kg/m3	uncertainty
0.1	1002.002	1.068
0.2	1006.925	1.069
0.3	1011.756	1.071
0.5	1020.961	1.075
0.7	1029.873	1.078
0.9	1038.327	1.081

System: D-mannitol + water; phases: Liquid
Fixed: Temperature, K = 298.15
Fixed: Pressure, kPa = 101
Property: Refractive index (Na D-line) (Liquid); method: Standard Abbe refractometry
Molality, mol/kg of D-mannitol	Refractive index (Na D-line)	uncertainty
0.1	1.3349	0.0009
0.2	1.3367	0.0009
0.3	1.3398	0.0009
0.5	1.344	0.0009
0.7	1.349	0.0009
0.9	1.3532	0.0009

System: D-mannitol + water; phases: Liquid
Fixed: Temperature, K = 298.15
Fixed: Pressure, kPa = 101
Property: Mass density, kg/m3 (Liquid); method: Vibrating tube method
Molality, mol/kg of D-mannitol	Mass density, kg/m3	uncertainty
0.1	1003.272	1.002
0.2	1009.201	1.004
0.3	1015.288	1.004
0.5	1026.508	1.004
0.7	1037.429	1.004
0.9	1047.802	1.003

System: xylitol + N,N'-diacetyl-1,6-hexanediamine + water; phases: Liquid
Fixed: Temperature, K = 298.15
Fixed: Pressure, kPa = 101
Property: Refractive index (Na D-line) (Liquid); method: Standard Abbe refractometry
Molality, mol/kg of N,N'-diacetyl-1,6-hexanediamine	Solvent: Molality, mol/kg of xylitol	Refractive index (Na D-line)	uncertainty
0	0	1.332	0.0009
0	0.1	1.3341	0.0009
0	0.2	1.3361	0.0009
0	0.3	1.3382	0.0009
0	0.5	1.3423	0.0009
0	0.7	1.346	0.0009
0	0.9	1.3494	0.0009
0.1	0	1.3348	0.0009
0.1	0.1	1.3371	0.0009
0.1	0.2	1.3389	0.0009
0.1	0.3	1.3411	0.0009
0.1	0.5	1.3448	0.0009
0.1	0.7	1.3489	0.0009
0.1	0.9	1.3524	0.0009
0.15	0	1.3363	0.0009
0.15	0.1	1.3386	0.0009
0.15	0.2	1.3404	0.0009
0.15	0.3	1.3427	0.0009
0.15	0.5	1.3467	0.0009
0.15	0.7	1.3503	0.0009
0.15	0.9	1.3538	0.0009
0.2	0	1.3382	0.0009
0.2	0.1	1.34	0.0009
0.2	0.2	1.342	0.0009
0.2	0.3	1.3441	0.0009
0.2	0.5	1.348	0.0009
0.2	0.7	1.3517	0.0009
0.2	0.9	1.3551	0.0009
0.25	0	1.3393	0.0009
0.25	0.1	1.3416	0.0009
0.25	0.2	1.3434	0.0009
0.25	0.3	1.3457	0.0009
0.25	0.5	1.3492	0.0009
0.25	0.7	1.353	0.0009
0.25	0.9	1.3565	0.0009
0.3	0	1.3409	0.0009
0.3	0.1	1.3429	0.0009
0.3	0.2	1.3449	0.0009
0.3	0.3	1.347	0.0009
0.3	0.5	1.3505	0.0009
0.3	0.7	1.3542	0.0009
0.3	0.9	1.3578	0.0009
0.35	0	1.3419	0.0009
0.35	0.1	1.3442	0.0009
0.35	0.2	1.3462	0.0009
0.35	0.3	1.3483	0.0009
0.35	0.5	1.3521	0.0009
0.35	0.7	1.3556	0.0009
0.35	0.9	1.3592	0.0009
0.4	0	1.3431	0.0009
0.4	0.1	1.3456	0.0009
0.4	0.2	1.3475	0.0009
0.4	0.3	1.3498	0.0009
0.4	0.5	1.3533	0.0009
0.4	0.7	1.3569	0.0009
0.4	0.9	1.3602	0.0009

System: xylitol + N,N'-diacetyl-1,6-hexanediamine + water; phases: Liquid
Fixed: Temperature, K = 298.15
Fixed: Pressure, kPa = 101
Property: Mass density, kg/m3 (Liquid); method: Vibrating tube method
Molality, mol/kg of N,N'-diacetyl-1,6-hexanediamine	Solvent: Molality, mol/kg of xylitol	Mass density, kg/m3	uncertainty
0	0	997.047	1.066
0	0.1	1002.002	1.068
0	0.2	1006.925	1.069
0	0.3	1011.756	1.071
0	0.5	1020.961	1.075
0	0.7	1029.873	1.078
0	0.9	1038.327	1.081
0.1	0	997.981	1.067
0.1	0.1	1002.837	1.068
0.1	0.2	1007.655	1.07
0.1	0.3	1012.392	1.071
0.1	0.5	1021.401	1.075
0.1	0.7	1030.129	1.078
0.1	0.9	1038.407	1.081
0.15	0	998.443	1.067
0.15	0.1	1003.263	1.068
0.15	0.2	1008.036	1.07
0.15	0.3	1012.725	1.071
0.15	0.5	1021.651	1.075
0.15	0.7	1030.296	1.078
0.15	0.9	1038.494	1.081
0.2	0	998.931	1.067
0.2	0.1	1003.699	1.068
0.2	0.2	1008.423	1.07
0.2	0.3	1013.077	1.072
0.2	0.5	1021.914	1.075
0.2	0.7	1030.481	1.078
0.2	0.9	1038.611	1.082
0.25	0	999.413	1.067
0.25	0.1	1004.145	1.068
0.25	0.2	1008.825	1.07
0.25	0.3	1013.437	1.072
0.25	0.5	1022.191	1.075
0.25	0.7	1030.693	1.078
0.25	0.9	1038.751	1.082
0.3	0	999.901	1.067
0.3	0.1	1004.594	1.068
0.3	0.2	1009.231	1.07
0.3	0.3	1013.805	1.072
0.3	0.5	1022.488	1.075
0.3	0.7	1030.922	1.078
0.3	0.9	1038.914	1.082
0.35	0	1000.372	1.067
0.35	0.1	1005.043	1.069
0.35	0.2	1009.643	1.07
0.35	0.3	1014.179	1.072
0.35	0.5	1022.786	1.075
0.35	0.7	1031.159	1.079
0.35	0.9	1039.103	1.082
0.4	0	1000.882	1.067
0.4	0.1	1005.502	1.069
0.4	0.2	1010.059	1.07
0.4	0.3	1014.572	1.072
0.4	0.5	1023.104	1.075
0.4	0.7	1031.412	1.079
0.4	0.9	1039.299	1.082

System: xylitol + N,N'-diacetyl-1,6-hexanediamine + water; phases: Liquid
Fixed: Temperature, K = 298.15
Fixed: Pressure, kPa = 101
Property: Molar enthalpy of dilution, kJ/mol (Liquid); method: ISOPERIBOL
Initial molality of solute, mol/kg	Solvent: Molality, mol/kg of xylitol	Final molality of solute, mol/kg	Molar enthalpy of dilution, kJ/mol	uncertainty
0.05	0.7	0.0249	-0.02972	0.00101
0.05	0.3	0.0252	-0.03824	0.00108
0.05	0.2	0.0254	-0.04461	0.00113
0.05	0.9	0.0254	-0.02289	0.00096
0.05	0.5	0.0256	-0.03157	0.00103
0.05	0.1	0.0259	-0.04586	0.00114
0.05	0	0.0263	-0.04153	0.0011
0.08	0.2	0.0398	-0.07616	0.00137
0.08	0.7	0.0401	-0.05231	0.00119
0.08	0.3	0.0407	-0.06613	0.00129
0.08	0.5	0.0409	-0.05734	0.00123
0.08	0.1	0.0411	-0.07767	0.00138
0.08	0.9	0.0416	-0.04121	0.0011
0.08	0	0.0422	-0.07535	0.00137
0.1	0.2	0.05	-0.0963	0.00153
0.1	0.7	0.0502	-0.06862	0.00131
0.1	0.3	0.0507	-0.0859	0.00145
0.1	0.5	0.0511	-0.07502	0.00136
0.1	0.1	0.0515	-0.09844	0.00154
0.1	0.9	0.0524	-0.05462	0.00121
0.1	0	0.0525	-0.09841	0.00154
0.12	0.2	0.0602	-0.11645	0.00168
0.12	0.7	0.0602	-0.08616	0.00145
0.12	0.3	0.0608	-0.10621	0.0016
0.12	0.5	0.0613	-0.09352	0.00151
0.12	0.1	0.0617	-0.11962	0.00171
0.12	0.9	0.0618	-0.07103	0.00133
0.12	0	0.0631	-0.12058	0.00171
0.15	0.7	0.0741	-0.11531	0.00167
0.15	0.2	0.0756	-0.14657	0.00191
0.15	0.3	0.0757	-0.13743	0.00184
0.15	0.5	0.0763	-0.12281	0.00173
0.15	0.1	0.0768	-0.15192	0.00196
0.15	0.9	0.0772	-0.09573	0.00152
0.15	0	0.0784	-0.15515	0.00198
0.18	0.7	0.0891	-0.14425	0.0019
0.18	0.2	0.0899	-0.17894	0.00216
0.18	0.3	0.0907	-0.16892	0.00209
0.18	0.5	0.0916	-0.15214	0.00196
0.18	0.9	0.0925	-0.12261	0.00173
0.18	0.1	0.0927	-0.1827	0.00219
0.18	0	0.0941	-0.18842	0.00224
0.2	0.2	0.0999	-0.19977	0.00233
0.2	0.7	0.1005	-0.16171	0.00203
0.2	0.3	0.1009	-0.18962	0.00225
0.2	0.5	0.1014	-0.17305	0.00212
0.2	0.1	0.1023	-0.20538	0.00237
0.2	0.9	0.1024	-0.14161	0.00188
0.2	0	0.1048	-0.21016	0.00241
0.22	0.2	0.1095	-0.22117	0.00249
0.22	0.7	0.1102	-0.18241	0.00219
0.22	0.3	0.1107	-0.21131	0.00242
0.22	0.5	0.1112	-0.19401	0.00228
0.22	0.1	0.112	-0.22787	0.00254
0.22	0.9	0.1125	-0.16094	0.00203
0.22	0	0.1148	-0.23325	0.00258
0.25	0.2	0.1239	-0.25329	0.00274
0.25	0.3	0.1254	-0.2436	0.00267
0.25	0.7	0.1255	-0.21263	0.00243
0.25	0.1	0.1273	-0.25975	0.00279
0.25	0.9	0.1277	-0.19023	0.00225
0.25	0.5	0.1279	-0.22165	0.0025
0.25	0	0.13	-0.26771	0.00285
0.28	0.7	0.1387	-0.24709	0.00269
0.28	0.2	0.139	-0.28378	0.00298
0.28	0.3	0.1402	-0.27528	0.00291
0.28	0.5	0.1412	-0.25664	0.00277
0.28	0.1	0.1421	-0.29291	0.00305
0.28	0.9	0.1424	-0.22142	0.00249
0.28	0	0.1454	-0.30161	0.00311
0.3	0.7	0.1489	-0.26779	0.00285
0.3	0.2	0.1493	-0.30346	0.00313
0.3	0.3	0.1498	-0.29655	0.00307
0.3	0.5	0.1503	-0.27937	0.00294
0.3	0.1	0.1518	-0.31538	0.00322
0.3	0.9	0.1524	-0.24169	0.00265
0.3	0	0.1554	-0.32494	0.00329
0.32	0.2	0.1582	-0.32564	0.0033
0.32	0.7	0.1584	-0.28925	0.00302
0.32	0.3	0.159	-0.31849	0.00324
0.32	0.5	0.1601	-0.30059	0.00311
0.32	0.1	0.1617	-0.33729	0.00339
0.32	0.9	0.1626	-0.2621	0.00281
0.32	0	0.165	-0.34938	0.00348

System: D-mannitol + N,N'-diacetyl-1,6-hexanediamine + water; phases: Liquid
Fixed: Temperature, K = 298.15
Fixed: Pressure, kPa = 101
Property: Refractive index (Na D-line) (Liquid); method: Standard Abbe refractometry
Molality, mol/kg of N,N'-diacetyl-1,6-hexanediamine	Solvent: Molality, mol/kg of D-mannitol	Refractive index (Na D-line)	uncertainty
0	0.1	1.3349	0.0009
0	0.2	1.3367	0.0009
0	0.3	1.3398	0.0009
0	0.5	1.344	0.0009
0	0.7	1.349	0.0009
0	0.9	1.3532	0.0009
0.1	0.1	1.3379	0.0009
0.1	0.2	1.3398	0.0009
0.1	0.3	1.3423	0.0009
0.1	0.5	1.347	0.0009
0.1	0.7	1.3516	0.0009
0.1	0.9	1.3561	0.0009
0.15	0.1	1.3391	0.0009
0.15	0.2	1.3412	0.0009
0.15	0.3	1.344	0.0009
0.15	0.5	1.3485	0.0009
0.15	0.7	1.353	0.0009
0.15	0.9	1.3573	0.0009
0.2	0.1	1.3408	0.0009
0.2	0.2	1.3425	0.0009
0.2	0.3	1.3451	0.0009
0.2	0.5	1.3499	0.0009
0.2	0.7	1.3545	0.0009
0.2	0.9	1.3585	0.0009
0.25	0.1	1.342	0.0009
0.25	0.2	1.344	0.0009
0.25	0.3	1.3467	0.0009
0.25	0.5	1.3512	0.0009
0.25	0.7	1.356	0.0009
0.25	0.9	1.3597	0.0009
0.3	0.1	1.3434	0.0009
0.3	0.2	1.3453	0.0009
0.3	0.3	1.3481	0.0009
0.3	0.5	1.3526	0.0009
0.3	0.7	1.3574	0.0009
0.3	0.9	1.3612	0.0009
0.35	0.1	1.3448	0.0009
0.35	0.2	1.3467	0.0009
0.35	0.3	1.3493	0.0009
0.35	0.5	1.3538	0.0009
0.35	0.7	1.3588	0.0009
0.35	0.9	1.3625	0.0009
0.4	0.1	1.3461	0.0009
0.4	0.2	1.348	0.0009
0.4	0.3	1.351	0.0009
0.4	0.5	1.3551	0.0009
0.4	0.7	1.36	0.0009
0.4	0.9	1.364	0.0009

System: D-mannitol + N,N'-diacetyl-1,6-hexanediamine + water; phases: Liquid
Fixed: Temperature, K = 298.15
Fixed: Pressure, kPa = 101
Property: Mass density, kg/m3 (Liquid); method: Vibrating tube method
Molality, mol/kg of N,N'-diacetyl-1,6-hexanediamine	Solvent: Molality, mol/kg of D-mannitol	Mass density, kg/m3	uncertainty
0	0.1	1003.272	1.026
0	0.2	1009.201	1.027
0	0.3	1015.288	1.028
0	0.5	1026.508	1.03
0	0.7	1037.429	1.032
0	0.9	1047.802	1.034
0.1	0.1	1004.081	1.026
0.1	0.2	1009.885	1.027
0.1	0.3	1015.852	1.028
0.1	0.5	1026.835	1.03
0.1	0.7	1037.522	1.032
0.1	0.9	1047.644	1.034
0.15	0.1	1004.498	1.026
0.15	0.2	1010.247	1.027
0.15	0.3	1016.158	1.028
0.15	0.5	1027.034	1.03
0.15	0.7	1037.613	1.032
0.15	0.9	1047.63	1.034
0.2	0.1	1004.927	1.026
0.2	0.2	1010.614	1.027
0.2	0.3	1016.484	1.028
0.2	0.5	1027.251	1.03
0.2	0.7	1037.731	1.032
0.2	0.9	1047.644	1.034
0.25	0.1	1005.355	1.026
0.25	0.2	1010.997	1.027
0.25	0.3	1016.819	1.028
0.25	0.5	1027.483	1.03
0.25	0.7	1037.876	1.032
0.25	0.9	1047.688	1.034
0.3	0.1	1005.798	1.026
0.3	0.2	1011.385	1.027
0.3	0.3	1017.163	1.028
0.3	0.5	1027.732	1.03
0.3	0.7	1038.039	1.032
0.3	0.9	1047.767	1.034
0.35	0.1	1006.244	1.027
0.35	0.2	1011.779	1.027
0.35	0.3	1017.523	1.028
0.35	0.5	1027.988	1.03
0.35	0.7	1038.212	1.032
0.35	0.9	1047.861	1.034
0.4	0.1	1006.692	1.027
0.4	0.2	1012.186	1.028
0.4	0.3	1017.887	1.029
0.4	0.5	1028.279	1.03
0.4	0.7	1038.419	1.032
0.4	0.9	1047.991	1.034

System: D-mannitol + N,N'-diacetyl-1,6-hexanediamine + water; phases: Liquid
Fixed: Temperature, K = 298.15
Fixed: Pressure, kPa = 101
Property: Molar enthalpy of dilution, kJ/mol (Liquid); method: ISOPERIBOL
Initial molality of solute, mol/kg	Solvent: Molality, mol/kg of D-mannitol	Final molality of solute, mol/kg	Molar enthalpy of dilution, kJ/mol	uncertainty
0.05	0.1	0.0257	-0.04485	0.00113
0.05	0.2	0.0258	-0.04571	0.00113
0.05	0.7	0.026	-0.02745	0.00099
0.05	0.3	0.0262	-0.04075	0.0011
0.05	0.5	0.0262	-0.03383	0.00104
0.05	0.9	0.0262	-0.01891	0.00093
0.08	0.2	0.0412	-0.07359	0.00135
0.08	0.1	0.0413	-0.07512	0.00136
0.08	0.3	0.0417	-0.0672	0.0013
0.08	0.7	0.0417	-0.04722	0.00115
0.08	0.5	0.0418	-0.05752	0.00122
0.08	0.9	0.042	-0.03585	0.00106
0.1	0.1	0.0513	-0.0963	0.00152
0.1	0.2	0.0515	-0.09291	0.0015
0.1	0.7	0.0519	-0.06257	0.00126
0.1	0.3	0.0521	-0.0858	0.00144
0.1	0.5	0.0522	-0.07493	0.00136
0.1	0.9	0.0524	-0.04884	0.00116
0.12	0.1	0.0614	-0.11777	0.00169
0.12	0.2	0.0616	-0.11306	0.00165
0.12	0.3	0.0623	-0.10569	0.0016
0.12	0.7	0.0624	-0.07872	0.00139
0.12	0.5	0.0626	-0.09301	0.0015
0.12	0.9	0.0626	-0.06349	0.00127
0.15	0.1	0.0763	-0.15084	0.00195
0.15	0.2	0.0769	-0.1442	0.00189
0.15	0.7	0.0777	-0.10542	0.00159
0.15	0.3	0.0779	-0.13576	0.00183
0.15	0.5	0.0781	-0.12194	0.00172
0.15	0.9	0.0781	-0.08707	0.00145
0.18	0.1	0.0916	-0.18337	0.0022
0.18	0.2	0.0921	-0.17615	0.00214
0.18	0.7	0.0928	-0.13419	0.00182
0.18	0.3	0.0929	-0.16795	0.00208
0.18	0.5	0.0934	-0.15268	0.00196
0.18	0.9	0.0935	-0.11276	0.00165
0.2	0.1	0.1017	-0.20499	0.00236
0.2	0.2	0.102	-0.19794	0.00231
0.2	0.3	0.1029	-0.18987	0.00225
0.2	0.7	0.103	-0.15416	0.00197
0.2	0.5	0.1038	-0.17351	0.00212
0.2	0.9	0.1038	-0.131	0.00179
0.22	0.1	0.1115	-0.22741	0.00254
0.22	0.2	0.112	-0.22003	0.00248
0.22	0.3	0.1131	-0.21155	0.00242
0.22	0.7	0.1131	-0.17472	0.00213
0.22	0.9	0.1135	-0.15069	0.00194
0.22	0.5	0.1136	-0.19481	0.00229
0.25	0.2	0.1269	-0.25327	0.00274
0.25	0.1	0.127	-0.259	0.00278
0.25	0.7	0.1283	-0.20582	0.00237
0.25	0.5	0.1284	-0.22901	0.00255
0.25	0.9	0.1291	-0.17943	0.00217
0.25	0.3	0.1292	-0.24269	0.00266
0.28	0.1	0.1413	-0.29291	0.00305
0.28	0.2	0.1419	-0.28625	0.00299
0.28	0.3	0.143	-0.27831	0.00293
0.28	0.7	0.1433	-0.2376	0.00262
0.28	0.5	0.1437	-0.26102	0.0028
0.28	0.9	0.1441	-0.21034	0.00241
0.3	0.1	0.1509	-0.3151	0.00322
0.3	0.2	0.1518	-0.30858	0.00317
0.3	0.3	0.1531	-0.29991	0.0031
0.3	0.7	0.1531	-0.25931	0.00279
0.3	0.9	0.154	-0.23121	0.00257
0.3	0.5	0.1542	-0.28188	0.00296
0.32	0.2	0.1617	-0.33012	0.00333
0.32	0.1	0.1622	-0.33322	0.00336
0.32	0.5	0.1629	-0.3057	0.00314
0.32	0.3	0.163	-0.32171	0.00327
0.32	0.7	0.1632	-0.28015	0.00295
0.32	0.9	0.1637	-0.25257	0.00273
