Measured thermophysical data. Solubility of Carbon Dioxide in Imidazolium-Based Ionic Liquids with a Methanesulfonate Anion
Source: J. Chem. Eng. Data, 2012, 10.1021/je3001377
Compound 1: 1,3-dimethyl-1H-imidazolium methanesulfonate, C6H12N2O3S, InChI=1S/C5H9N2.CH4O3S/c1-6-3-4-7(2)5-6;1-5(2,3)4/h3-5H,1-2H3;1H3,(H,2,3,4)/q+1;/p-1, purity 99%
Compound 2: 1-ethyl-3-methylimidazolium methanesulfonate, C7H14N2O3S, InChI=1S/C6H11N2.CH4O3S/c1-3-8-5-4-7(2)6-8;1-5(2,3)4/h4-6H,3H2,1-2H3;1H3,(H,2,3,4)/q+1;/p-1, purity 98.5%
Compound 3: 1-butyl-3-methylimidazolium methanesulfonate, C9H18N2O3S, InChI=1S/C8H15N2.CH4O3S/c1-3-4-5-10-7-6-9(2)8-10;1-5(2,3)4/h6-8H,3-5H2,1-2H3;1H3,(H,2,3,4)/q+1;/p-1, purity 95%
Compound 4: 1,3-dibutyl-1H-imidazolium methanesulfonate, C12H24N2O3S, InChI=1S/C11H21N2.CH4O3S/c1-3-5-7-12-9-10-13(11-12)8-6-4-2;1-5(2,3)4/h9-11H,3-8H2,1-2H3;1H3,(H,2,3,4)/q+1;/p-1
Compound 5: carbon dioxide, CO2, InChI=1S/CO2/c2-1-3, purity 99.99%

System: 1,3-dimethyl-1H-imidazolium methanesulfonate; phases: Liquid
Property: Viscosity, Pa*s (Liquid); method: Cone and plate viscometry
Temperature, K	Pressure, kPa	Viscosity, Pa*s	uncertainty
298.15	101.325	0.0329	0.0011

System: 1-ethyl-3-methylimidazolium methanesulfonate; phases: Liquid
Property: Viscosity, Pa*s (Liquid); method: Cone and plate viscometry
Temperature, K	Pressure, kPa	Viscosity, Pa*s	uncertainty
298.15	101.325	0.0705	0.0027

System: 1-butyl-3-methylimidazolium methanesulfonate; phases: Liquid
Property: Viscosity, Pa*s (Liquid); method: Cone and plate viscometry
Temperature, K	Pressure, kPa	Viscosity, Pa*s	uncertainty
298.15	101.325	0.111	0.0144

System: 1,3-dibutyl-1H-imidazolium methanesulfonate; phases: Liquid
Property: Viscosity, Pa*s (Liquid); method: Cone and plate viscometry
Temperature, K	Pressure, kPa	Viscosity, Pa*s	uncertainty
298.15	101.325	0.0319	0.0024

System: carbon dioxide + 1,3-dimethyl-1H-imidazolium methanesulfonate; phases: Liquid mixture 1, Liquid mixture 2
Property: Vapor or sublimation pressure, kPa (Liquid mixture 1); method: Closed cell
Mole fraction of carbon dioxide	Temperature, K	Vapor or sublimation pressure, kPa	uncertainty
0.2608	332.85	12000	1370
0.2608	342.45	15100	1590
0.2608	352.85	17900	1690
0.2608	362.65	20300	1850
0.2929	333.15	15700	2210
0.2929	343.45	19400	1950
0.2929	353.55	22450	2080
0.2929	362.85	25200	2160
0.32	335.25	20850	2990
0.32	343.45	23850	2800
0.32	353.15	26950	2800
0.32	363.55	29850	2750
0.3493	334.55	26350	4430
0.3493	342.85	29550	4440
0.3493	352.35	32450	4350
0.3493	362.25	35200	4520
0.369	333.65	34100	7300
0.369	343.45	37700	6960
0.369	352.45	40300	7050
0.369	362.35	43100	7110

System: carbon dioxide + 1,3-dimethyl-1H-imidazolium methanesulfonate; phases: Liquid, Gas
Property: Vapor or sublimation pressure, kPa (Liquid); method: Closed cell (Static) method
Mole fraction of carbon dioxide	Temperature, K	Vapor or sublimation pressure, kPa	uncertainty
0.0629	334.45	1650	90
0.0629	344.25	1800	100
0.0629	354.25	2050	120
0.0629	362.95	2300	130
0.1166	333.65	3400	180
0.1166	342.85	3950	210
0.1166	353.35	4550	250
0.1166	362.35	5100	280
0.1667	333.25	5350	280
0.1667	342.45	6250	330
0.1667	352.05	7150	380
0.1667	363.65	8250	440
0.2035	334.05	6900	480
0.2035	342.75	8100	570
0.2035	352.55	9300	690
0.2035	362.35	10750	1220
0.2289	333.75	8950	880
0.2289	343.55	10700	1030
0.2289	353.25	12450	1300
0.2289	362.35	14350	1500

System: carbon dioxide + 1-ethyl-3-methylimidazolium methanesulfonate; phases: Liquid mixture 1, Liquid mixture 2
Property: Vapor or sublimation pressure, kPa (Liquid mixture 1); method: Closed cell
Mole fraction of carbon dioxide	Temperature, K	Vapor or sublimation pressure, kPa	uncertainty
0.3741	323.15	10700	2590
0.3741	332.75	14750	2980
0.3741	342.85	19050	3250
0.4153	304.65	9550	2550
0.4153	314.25	15650	2970
0.4153	323.15	20950	2890
0.4153	332.95	26650	3260
0.4153	342.55	31800	3550
0.4349	303.55	13300	5200
0.4349	313.65	20350	5810
0.4349	322.55	26250	6200
0.4349	332.55	32500	6530
0.4349	342.65	38200	4020
0.4518	303.95	24750	8820
0.4518	313.65	32700	9560
0.4518	323.15	39600	10140
0.4518	332.75	46150	10720

System: carbon dioxide + 1-ethyl-3-methylimidazolium methanesulfonate; phases: Liquid, Gas
Property: Vapor or sublimation pressure, kPa (Liquid); method: Closed cell (Static) method
Mole fraction of carbon dioxide	Temperature, K	Vapor or sublimation pressure, kPa	uncertainty
0.0556	303.35	400	50
0.0556	313.45	500	50
0.0556	322.65	650	60
0.0556	332.45	800	70
0.0556	342.35	1000	70
0.1076	304.45	1100	70
0.1076	313.15	1350	80
0.1076	323.05	1700	90
0.1076	332.55	2050	100
0.1076	342.45	2400	120
0.1536	303.55	1800	100
0.1536	312.45	2150	110
0.1536	322.25	2600	130
0.1536	332.55	3150	150
0.1536	342.25	3700	180
0.1973	302.25	2300	130
0.1973	313.15	2900	160
0.1973	323.05	3550	190
0.1973	332.65	4250	240
0.1973	342.45	5050	280
0.2654	303.35	3600	170
0.2654	313.45	4550	220
0.2654	322.85	5500	270
0.2654	332.35	6650	350
0.2654	342.55	7900	450
0.3243	303.55	4850	200
0.3243	313.45	6150	290
0.3243	323.05	7650	360
0.3243	332.55	9500	470
0.3243	342.25	11750	630
0.3741	303.05	5850	240
0.3741	313.15	7800	360

System: carbon dioxide + 1-butyl-3-methylimidazolium methanesulfonate; phases: Liquid mixture 1, Liquid mixture 2
Property: Vapor or sublimation pressure, kPa (Liquid mixture 1); method: Closed cell
Mole fraction of carbon dioxide	Temperature, K	Vapor or sublimation pressure, kPa	uncertainty
0.4576	323.35	11650	3650
0.4576	333.15	15600	4000
0.4576	342.95	19600	4160
0.4974	302.45	9700	3070
0.4974	313.35	16000	3410
0.4974	323.25	21400	3540
0.4974	333.15	26350	3830
0.4974	342.95	30750	3850
0.5219	304.45	15800	3140
0.5219	313.75	21600	3230
0.5219	323.75	26650	3270
0.5219	333.55	31750	3160
0.5219	343.15	35700	3170

System: carbon dioxide + 1-butyl-3-methylimidazolium methanesulfonate; phases: Liquid, Gas
Property: Vapor or sublimation pressure, kPa (Liquid); method: Closed cell (Static) method
Mole fraction of carbon dioxide	Temperature, K	Vapor or sublimation pressure, kPa	uncertainty
0.0517	303.35	550	60
0.0517	314.05	700	70
0.0517	323.65	900	80
0.0517	333.05	1050	90
0.0517	342.75	1300	100
0.0904	304.55	1000	80
0.0904	314.55	1250	90
0.0904	323.15	1450	100
0.0904	332.95	1750	120
0.0904	342.35	2050	130
0.13	303.85	1400	60
0.13	313.85	1700	90
0.13	323.15	2050	130
0.13	332.85	2450	140
0.13	342.85	2850	160
0.1467	303.95	1500	70
0.1467	314.45	1900	140
0.1467	324.05	2250	180
0.1467	332.85	2650	180
0.1467	343.05	3150	180
0.1835	302.35	1850	140
0.1835	313.35	2350	170
0.1835	322.85	2800	190
0.1835	332.55	3350	270
0.1835	342.35	3950	300
0.2482	302.45	2600	160
0.2482	313.45	3300	200
0.2482	323.65	4050	250
0.2482	333.85	4900	330
0.2482	342.75	5750	360
0.2941	302.75	3250	200
0.2941	312.95	4100	260
0.2941	323.05	5050	330
0.2941	332.75	6050	420
0.2941	342.75	7200	500
0.3547	303.05	4200	240
0.3547	313.25	5300	290
0.3547	322.95	6550	380
0.3547	332.95	8050	510
0.3547	342.75	9650	650
0.3971	302.65	4950	290
0.3971	312.45	6150	430
0.3971	323.05	7850	500
0.3971	332.95	9800	640
0.3971	343.15	12050	810
0.4576	303.35	6200	280
0.4576	313.25	8250	480

System: carbon dioxide + 1,3-dibutyl-1H-imidazolium methanesulfonate; phases: Liquid mixture 1, Liquid mixture 2
Property: Vapor or sublimation pressure, kPa (Liquid mixture 1); method: Closed cell
Mole fraction of carbon dioxide	Temperature, K	Vapor or sublimation pressure, kPa	uncertainty
0.7322	297.95	6250	640
0.7322	303.15	8150	660
0.7322	312.85	11700	700
0.7322	322.05	15150	720
0.7322	331.25	18350	750
0.7322	341.75	21750	750
0.7631	299.15	13700	930
0.7631	303.85	15600	920
0.7631	312.95	19350	970
0.7631	322.65	23150	980
0.7631	332.45	26750	1000
0.7631	342.45	30050	1030
0.7738	299.15	17550	1660
0.7738	302.45	18900	1680
0.7738	313.95	23700	1660
0.7738	322.95	27150	1650
0.7738	332.85	30750	1630
0.7738	343.15	34200	1700

System: carbon dioxide + 1,3-dibutyl-1H-imidazolium methanesulfonate; phases: Liquid, Gas
Property: Vapor or sublimation pressure, kPa (Liquid); method: Closed cell (Static) method
Mole fraction of carbon dioxide	Temperature, K	Vapor or sublimation pressure, kPa	uncertainty
0.1389	296.95	1500	50
0.1389	304.95	1600	50
0.1389	312.55	1700	50
0.1389	322.95	1850	50
0.1389	332.65	2000	60
0.1389	342.25	2150	60
0.2861	297.05	2250	60
0.2861	304.15	2500	60
0.2861	313.85	2850	70
0.2861	323.45	3200	70
0.2861	333.05	3550	80
0.2861	343.35	3950	90
0.4085	297.25	3100	70
0.4085	304.45	3450	80
0.4085	313.95	4000	90
0.4085	323.75	4600	110
0.4085	334.15	5300	120
0.4085	343.35	5850	140
0.5112	297.25	3900	90
0.5112	304.25	4450	100
0.5112	314.15	5300	120
0.5112	323.45	6100	150
0.5112	332.85	7000	180
0.5112	342.05	7950	210
0.5695	297.65	4550	110
0.5695	304.05	5200	130
0.5695	313.55	6150	160
0.5695	322.95	7250	200
0.5695	333.15	8450	250
0.5695	341.45	9550	370
0.6161	298.15	5100	120
0.6161	303.75	5750	140
0.6161	313.65	6950	180
0.6161	323.55	8300	240
0.6161	332.75	9700	310
0.6161	342.85	11300	450
0.6494	297.75	5400	120
0.6494	305.25	6350	140
0.6494	312.95	7400	210
0.6494	323.05	9050	410
0.6494	332.55	10750	380
0.6494	342.95	12750	760
0.6814	297.75	5700	130
0.6814	305.25	6750	180
0.6814	312.95	8050	270
0.6814	321.85	9750	610
0.6814	331.85	12050	920
0.6814	341.55	14400	610
0.7084	297.55	5950	140
0.7084	304.15	7000	200
0.7084	313.15	8750	430
0.7084	322.45	11400	700
0.7084	331.55	14150	980
0.7084	343.15	17550	990
