Measured thermophysical data. Volumetric Properties of Binary Mixtures of Two 1-Alkyl-3-Methylimidazolium Tetrafluoroborate Ionic Liquids with Molecular Solvents
Source: J. Chem. Eng. Data, 2012, 10.1021/je300316a
Compound 1: 1-ethyl-3-methylimidazolium tetrafluoroborate, C6H11BF4N2, InChI=1S/C6H11N2.BF4/c1-3-8-5-4-7(2)6-8;2-1(3,4)5/h4-6H,3H2,1-2H3;/q+1;-1, purity 98%
Compound 2: 1-hexyl-3-methylimidazolium tetrafluoroborate, C10H19BF4N2, InChI=1S/C10H19N2.BF4/c1-3-4-5-6-7-12-9-8-11(2)10-12;2-1(3,4)5/h8-10H,3-7H2,1-2H3;/q+1;-1, purity 99.5%
Compound 3: acetonitrile, C2H3N, InChI=1S/C2H3N/c1-2-3/h1H3, purity 99.5%
Compound 4: dimethyl sulfoxide, C2H6OS, InChI=1S/C2H6OS/c1-4(2)3/h1-2H3, purity 99.9%

System: 1-ethyl-3-methylimidazolium tetrafluoroborate; phases: Liquid
Fixed: Pressure, kPa = 101
Property: Mass density, kg/m3 (Liquid); method: Vibrating tube method
Temperature, K	Mass density, kg/m3	uncertainty
293.15	1290.63	1.49
298.15	1286.82	1.48
303.15	1283.02	1.47
313.15	1275.45	1.45
323.15	1267.97	1.43
333.15	1260.55	1.41
343.15	1253.18	1.4
353.15	1245.87	1.38

System: 1-hexyl-3-methylimidazolium tetrafluoroborate; phases: Liquid
Fixed: Pressure, kPa = 101
Property: Mass density, kg/m3 (Liquid); method: Vibrating tube method
Temperature, K	Mass density, kg/m3	uncertainty
293.15	1148.81	0.17
298.15	1145.29	0.17
303.15	1141.85	0.17
313.15	1135.04	0.17
323.15	1128.24	0.17
333.15	1121.48	0.16
343.15	1114.75	0.16
353.15	1108.05	0.16

System: acetonitrile; phases: Liquid
Fixed: Pressure, kPa = 101
Property: Mass density, kg/m3 (Liquid); method: Vibrating tube method
Temperature, K	Mass density, kg/m3	uncertainty
293.15	781.95	0.17
298.15	776.55	0.17
303.15	771.13	0.17
313.15	760.18	0.17
323.15	749.11	0.18
333.15	737.86	0.18
343.15	726.43	0.18

System: dimethyl sulfoxide; phases: Liquid
Fixed: Pressure, kPa = 101
Property: Mass density, kg/m3 (Liquid); method: Vibrating tube method
Temperature, K	Mass density, kg/m3	uncertainty
293.15	1100.76	0.12
298.15	1095.74	0.12
303.15	1090.73	0.12
313.15	1080.69	0.12
323.15	1070.66	0.12
333.15	1060.63	0.11
343.15	1050.58	0.11
353.15	1040.51	0.11

System: dimethyl sulfoxide + 1-ethyl-3-methylimidazolium tetrafluoroborate; phases: Liquid
Fixed: Pressure, kPa = 101
Property: Mass density, kg/m3 (Liquid); method: Vibrating tube method
Mole fraction of 1-ethyl-3-methylimidazolium tetrafluoroborate	Temperature, K	Mass density, kg/m3	uncertainty
0	293.15	1100.76	0.12
0	298.15	1095.74	0.12
0	303.15	1090.73	0.12
0	313.15	1080.69	0.12
0	323.15	1070.66	0.12
0	333.15	1060.63	0.11
0	343.15	1050.58	0.11
0	353.15	1040.51	0.11
0.1041	293.15	1142.04	0.2
0.1041	298.15	1137.39	0.2
0.1041	303.15	1132.73	0.2
0.1041	313.15	1123.43	0.2
0.1041	323.15	1114.16	0.2
0.1041	333.15	1104.9	0.2
0.1041	343.15	1095.67	0.2
0.1041	353.15	1086.42	0.2
0.2134	293.15	1176.77	0.22
0.2134	298.15	1172.35	0.22
0.2134	303.15	1167.92	0.21
0.2134	313.15	1159.12	0.21
0.2134	323.15	1150.36	0.21
0.2134	333.15	1141.62	0.21
0.2134	343.15	1132.93	0.21
0.2134	353.15	1124.24	0.21
0.3311	293.15	1205.9	0.28
0.3311	298.15	1201.64	0.28
0.3311	303.15	1197.38	0.27
0.3311	313.15	1188.92	0.27
0.3311	323.15	1180.51	0.26
0.3311	333.15	1172.14	0.26
0.3311	343.15	1163.82	0.26
0.3311	353.15	1155.54	0.25
0.4282	293.15	1224.86	0.37
0.4282	298.15	1220.69	0.37
0.4282	303.15	1216.54	0.37
0.4282	313.15	1208.27	0.36
0.4282	323.15	1200.08	0.35
0.4282	333.15	1191.94	0.35
0.4282	343.15	1183.84	0.34
0.4282	353.15	1175.8	0.34
0.5219	293.15	1239.84	0.49
0.5219	298.15	1235.74	0.49
0.5219	303.15	1231.67	0.48
0.5219	313.15	1223.57	0.48
0.5219	323.15	1215.54	0.47
0.5219	333.15	1207.57	0.46
0.5219	343.15	1199.66	0.45
0.5219	353.15	1191.8	0.45
0.5902	293.15	1249.2	0.59
0.5902	298.15	1245.16	0.59
0.5902	303.15	1241.14	0.58
0.5902	313.15	1233.14	0.57
0.5902	323.15	1225.22	0.57
0.5902	333.15	1217.36	0.56
0.5902	343.15	1209.56	0.55
0.5902	353.15	1201.81	0.54
0.7069	293.15	1263.06	0.8
0.7069	298.15	1259.09	0.79
0.7069	303.15	1255.14	0.79
0.7069	313.15	1247.3	0.78
0.7069	323.15	1239.53	0.76
0.7069	333.15	1231.84	0.75
0.7069	343.15	1224.21	0.74
0.7069	353.15	1216.62	0.73
0.7979	293.15	1272.55	0.98
0.7979	298.15	1268.64	0.98
0.7979	303.15	1264.73	0.97
0.7979	313.15	1256.99	0.96
0.7979	323.15	1249.33	0.94
0.7979	333.15	1241.74	0.93
0.7979	343.15	1234.2	0.92
0.7979	353.15	1226.73	0.91
0.9128	293.15	1282.99	1.26
0.9128	298.15	1279.13	1.25
0.9128	303.15	1275.28	1.24
0.9128	313.15	1267.65	1.22
0.9128	323.15	1260.09	1.21
0.9128	333.15	1252.61	1.19
0.9128	343.15	1245.18	1.18
0.9128	353.15	1237.81	1.16
1	293.15	1290.63	1.49
1	298.15	1286.82	1.48
1	303.15	1283.02	1.47
1	313.15	1275.45	1.45
1	323.15	1267.97	1.43
1	333.15	1260.55	1.41
1	343.15	1253.18	1.4
1	353.15	1245.87	1.38

System: acetonitrile + 1-ethyl-3-methylimidazolium tetrafluoroborate; phases: Liquid
Fixed: Pressure, kPa = 101
Property: Mass density, kg/m3 (Liquid); method: Vibrating tube method
Mole fraction of 1-ethyl-3-methylimidazolium tetrafluoroborate	Temperature, K	Mass density, kg/m3	uncertainty
0	293.15	781.95	0.17
0	298.15	776.55	0.17
0	303.15	771.13	0.17
0	313.15	760.18	0.17
0	323.15	749.11	0.18
0	333.15	737.86	0.18
0.1699	293.15	985	0.45
0.1699	298.15	980.32	0.45
0.1699	303.15	975.64	0.45
0.1699	313.15	966.28	0.45
0.1699	323.15	956.92	0.46
0.1699	333.15	947.5	0.46
0.2884	293.15	1073.35	0.36
0.2884	298.15	1068.94	0.35
0.2884	303.15	1064.49	0.35
0.2884	313.15	1055.78	0.35
0.2884	323.15	1047.05	0.35
0.2884	333.15	1038.32	0.35
0.4247	293.15	1143.25	0.46
0.4247	298.15	1139.05	0.46
0.4247	303.15	1134.8	0.46
0.4247	313.15	1126.51	0.45
0.4247	323.15	1118.22	0.44
0.4247	333.15	1109.97	0.44
0.5097	293.15	1176.48	0.56
0.5097	298.15	1172.38	0.55
0.5097	303.15	1168.21	0.55
0.5097	313.15	1160.12	0.54
0.5097	323.15	1152.03	0.53
0.5097	333.15	1143.98	0.52
0.6318	293.15	1213.4	0.74
0.6318	298.15	1209.39	0.73
0.6318	303.15	1205.38	0.73
0.6318	313.15	1197.43	0.72
0.6318	323.15	1189.54	0.71
0.6318	333.15	1181.71	0.7
0.7197	293.15	1236.56	0.89
0.7197	298.15	1232.61	0.89
0.7197	303.15	1228.67	0.88
0.7197	313.15	1220.83	0.87
0.7197	323.15	1213.07	0.85
0.7197	333.15	1205.37	0.84
0.8213	293.15	1258.31	1.09
0.8213	298.15	1254.41	1.08
0.8213	303.15	1250.53	1.07
0.8213	313.15	1242.81	1.06
0.8213	323.15	1235.16	1.04
0.8213	333.15	1227.57	1.03
0.9203	293.15	1277.03	1.3
0.9203	298.15	1273.17	1.29
0.9203	303.15	1269.33	1.28
0.9203	313.15	1261.7	1.27
0.9203	323.15	1254.15	1.25
0.9203	333.15	1246.65	1.24
1	293.15	1290.63	1.49
1	298.15	1286.82	1.48
1	303.15	1283.02	1.47
1	313.15	1275.45	1.45
1	323.15	1267.97	1.43
1	333.15	1260.55	1.41

System: dimethyl sulfoxide + 1-hexyl-3-methylimidazolium tetrafluoroborate; phases: Liquid
Fixed: Pressure, kPa = 101
Property: Mass density, kg/m3 (Liquid); method: Vibrating tube method
Mole fraction of 1-hexyl-3-methylimidazolium tetrafluoroborate	Temperature, K	Mass density, kg/m3	uncertainty
0	293.15	1100.76	0.12
0	298.15	1095.74	0.12
0	303.15	1090.73	0.12
0	313.15	1080.69	0.12
0	323.15	1070.66	0.12
0	333.15	1060.63	0.11
0	343.15	1050.58	0.11
0	353.15	1040.51	0.11
0.116	293.15	1116.62	0.13
0.116	298.15	1112.15	0.13
0.116	303.15	1107.68	0.13
0.116	313.15	1098.77	0.13
0.116	323.15	1089.89	0.13
0.116	333.15	1081.01	0.13
0.116	343.15	1072.16	0.13
0.116	353.15	1063.32	0.13
0.2495	293.15	1127.54	0.13
0.2495	298.15	1123.42	0.13
0.2495	303.15	1119.28	0.13
0.2495	313.15	1111.04	0.13
0.2495	323.15	1102.85	0.13
0.2495	333.15	1094.68	0.13
0.2495	343.15	1086.54	0.13
0.2495	353.15	1078.43	0.13
0.2831	293.15	1129.63	0.13
0.2831	298.15	1125.56	0.13
0.2831	303.15	1121.49	0.13
0.2831	313.15	1113.36	0.13
0.2831	323.15	1105.3	0.13
0.2831	333.15	1097.26	0.13
0.2831	343.15	1089.26	0.13
0.2831	353.15	1081.2	0.12
0.3857	293.15	1134.64	0.14
0.3857	298.15	1130.72	0.14
0.3857	303.15	1126.8	0.14
0.3857	313.15	1119	0.13
0.3857	323.15	1111.23	0.13
0.3857	333.15	1103.52	0.13
0.3857	343.15	1095.83	0.13
0.3857	353.15	1088.18	0.13
0.5036	293.15	1138.94	0.14
0.5036	298.15	1135.14	0.14
0.5036	303.15	1131.36	0.14
0.5036	313.15	1123.83	0.14
0.5036	323.15	1116.3	0.14
0.5036	333.15	1108.9	0.13
0.5036	343.15	1101.49	0.13
0.5036	353.15	1094.12	0.13
0.5714	293.15	1140.8	0.15
0.5714	298.15	1137.07	0.14
0.5714	303.15	1133.35	0.14
0.5714	313.15	1125.95	0.14
0.5714	323.15	1118.56	0.14
0.5714	333.15	1111.26	0.14
0.5714	343.15	1103.98	0.14
0.5714	353.15	1096.74	0.13
0.6702	293.15	1143	0.15
0.6702	298.15	1139.36	0.15
0.6702	303.15	1135.72	0.15
0.6702	313.15	1128.47	0.15
0.6702	323.15	1121.26	0.14
0.6702	333.15	1114.09	0.14
0.6702	343.15	1106.97	0.14
0.6702	353.15	1099.87	0.14
0.7517	293.15	1144.54	0.16
0.7517	298.15	1140.95	0.15
0.7517	303.15	1137.37	0.15
0.7517	313.15	1130.25	0.15
0.7517	323.15	1123.16	0.15
0.7517	333.15	1116.1	0.15
0.7517	343.15	1109.09	0.14
0.7517	353.15	1102.1	0.14
0.7883	293.15	1145.2	0.16
0.7883	298.15	1141.61	0.16
0.7883	303.15	1138.07	0.16
0.7883	313.15	1131	0.15
0.7883	323.15	1123.96	0.15
0.7883	333.15	1116.96	0.15
0.7883	343.15	1109.99	0.15
0.7883	353.15	1103.06	0.14
0.8976	293.15	1147.13	0.17
0.8976	298.15	1143.54	0.16
0.8976	303.15	1140.09	0.16
0.8976	313.15	1133.21	0.16
0.8976	323.15	1126.29	0.16
0.8976	333.15	1119.48	0.16
0.8976	343.15	1112.63	0.15
0.8976	353.15	1105.89	0.15
1	293.15	1148.81	0.17
1	298.15	1145.29	0.17
1	303.15	1141.85	0.17
1	313.15	1135.04	0.17
1	323.15	1128.24	0.17
1	333.15	1121.48	0.16
1	343.15	1114.75	0.16
1	353.15	1108.05	0.16

System: acetonitrile + 1-hexyl-3-methylimidazolium tetrafluoroborate; phases: Liquid
Fixed: Pressure, kPa = 101
Property: Mass density, kg/m3 (Liquid); method: Vibrating tube method
Mole fraction of 1-hexyl-3-methylimidazolium tetrafluoroborate	Temperature, K	Mass density, kg/m3	uncertainty
0	293.15	781.95	0.17
0	298.15	776.55	0.17
0	303.15	771.13	0.17
0	313.15	760.18	0.17
0	323.15	749.11	0.18
0	333.15	737.86	0.18
0	343.15	726.43	0.18
0.104	293.15	912.51	0.42
0.104	298.15	907.82	0.42
0.104	303.15	903.11	0.43
0.104	313.15	893.68	0.43
0.104	323.15	884.23	0.44
0.104	333.15	874.72	0.44
0.104	343.15	865.17	0.45
0.2049	293.15	985.51	0.27
0.2049	298.15	981.18	0.28
0.2049	303.15	976.86	0.28
0.2049	313.15	968.21	0.28
0.2049	323.15	959.58	0.28
0.2049	333.15	950.94	0.29
0.2049	343.15	942.3	0.29
0.2948	293.15	1027.85	0.2
0.2948	298.15	1023.73	0.2
0.2948	303.15	1019.62	0.2
0.2948	313.15	1011.43	0.2
0.2948	323.15	1003.26	0.2
0.2948	333.15	995.11	0.2
0.2948	343.15	986.97	0.21
0.4066	293.15	1063.55	0.19
0.4066	298.15	1059.63	0.19
0.4066	303.15	1055.7	0.19
0.4066	313.15	1047.89	0.19
0.4066	323.15	1040.1	0.19
0.4066	333.15	1032.35	0.18
0.4066	343.15	1024.63	0.18
0.4616	293.15	1077.62	0.17
0.4616	298.15	1073.77	0.17
0.4616	303.15	1069.92	0.17
0.4616	313.15	1062.25	0.17
0.4616	323.15	1054.62	0.17
0.4616	333.15	1047.02	0.16
0.4616	343.15	1039.47	0.16
0.5697	293.15	1099.3	0.17
0.5697	298.15	1095.63	0.17
0.5697	303.15	1091.91	0.17
0.5697	313.15	1084.5	0.17
0.5697	323.15	1077.12	0.17
0.5697	333.15	1069.78	0.16
0.5697	343.15	1062.47	0.16
0.6626	293.15	1113.67	0.17
0.6626	298.15	1110.03	0.17
0.6626	303.15	1106.39	0.17
0.6626	313.15	1099.13	0.16
0.6626	323.15	1091.91	0.16
0.6626	333.15	1084.72	0.16
0.6626	343.15	1077.56	0.16
0.8083	293.15	1131.67	0.17
0.8083	298.15	1128.14	0.17
0.8083	303.15	1124.59	0.17
0.8083	313.15	1117.53	0.17
0.8083	323.15	1110.51	0.17
0.8083	333.15	1103.52	0.16
0.8083	343.15	1096.57	0.16
0.9044	293.15	1141.51	0.17
0.9044	298.15	1138.01	0.17
0.9044	303.15	1134.52	0.17
0.9044	313.15	1127.58	0.17
0.9044	323.15	1120.69	0.17
0.9044	333.15	1113.82	0.16
0.9044	343.15	1107.03	0.16
1	293.15	1148.81	0.17
1	298.15	1145.29	0.17
1	303.15	1141.85	0.17
1	313.15	1135.04	0.17
1	323.15	1128.24	0.17
1	333.15	1121.48	0.16
1	343.15	1114.75	0.16
