Measured thermophysical data. Solubility of N-Chloro-4-toluenesulfonamide Sodium and N-Chlorobenzenesulfonamide Sodium in Ethanol, Water, 1-Propanol, and Butan-2-ol
Source: J. Chem. Eng. Data, 2012, 10.1021/je300721p
Compound 1: water, H2O, InChI=1S/H2O/h1H2, purity 99.9%
Compound 2: propan-1-ol, C3H8O, InChI=1S/C3H8O/c1-2-3-4/h4H,2-3H2,1H3, purity 99%
Compound 3: ethanol, C2H6O, InChI=1S/C2H6O/c1-2-3/h3H,2H2,1H3, purity 99%
Compound 4: N-chloro-4-methylbenzenesulfonamide, sodium salt (1:1), C7H7ClNNaO2S, InChI=1S/C7H7ClNO2S.Na/c1-6-2-4-7(5-3-6)12(10,11)9-8;/h2-5H,1H3;/q-1;+1, purity 99%
Compound 5: N-chlorobenzenesulfonamide, sodium salt (1:1), C6H5ClNNaO2S, InChI=1S/C6H5ClNO2S.Na/c7-8-11(9,10)6-4-2-1-3-5-6;/h1-5H;/q-1;+1, purity 99%
Compound 6: 2-methyl-1-propanol, C4H10O, InChI=1S/C4H10O/c1-4(2)3-5/h4-5H,3H2,1-2H3, purity 99%

System: ethanol + N-chloro-4-methylbenzenesulfonamide, sodium salt (1:1); phases: Liquid, Crystal
Fixed: Pressure, kPa = 101
Property: Mole fraction of N-chloro-4-methylbenzenesulfonamide, sodium salt (1:1) (Liquid); method: Laser monitoring
Temperature, K	Mole fraction of N-chloro-4-methylbenzenesulfonamide, sodium salt (1:1)	uncertainty
278	0.01996	0.00064
283	0.02205	0.0007
288	0.02441	0.00078
293	0.02685	0.00086
298	0.02994	0.00096
303.2	0.03396	0.00109
308	0.03876	0.00124
313	0.04408	0.00141
318	0.04986	0.0016
323	0.05641	0.00181

System: N-chloro-4-methylbenzenesulfonamide, sodium salt (1:1) + water; phases: Liquid, Crystal
Fixed: Pressure, kPa = 101
Property: Mole fraction of N-chloro-4-methylbenzenesulfonamide, sodium salt (1:1) (Liquid); method: Laser monitoring
Temperature, K	Mole fraction of N-chloro-4-methylbenzenesulfonamide, sodium salt (1:1)	uncertainty
278	0.00684	0.00028
283	0.008	0.00032
288	0.00955	0.00039
293	0.01142	0.00046
298	0.01382	0.00056
303.1	0.01712	0.0007
308.2	0.02181	0.0009
313	0.02836	0.00117
318	0.03701	0.00153
323	0.04773	0.00198

System: propan-1-ol + N-chloro-4-methylbenzenesulfonamide, sodium salt (1:1); phases: Liquid, Crystal
Fixed: Pressure, kPa = 101
Property: Mole fraction of N-chloro-4-methylbenzenesulfonamide, sodium salt (1:1) (Liquid); method: Laser monitoring
Temperature, K	Mole fraction of N-chloro-4-methylbenzenesulfonamide, sodium salt (1:1)	uncertainty
278	0.00503	0.00016
283	0.00636	0.0002
288	0.00776	0.00024
293	0.00932	0.00029
298	0.01091	0.00034
303.1	0.01301	0.00041
308.2	0.01564	0.00049
313	0.01908	0.0006
318	0.02351	0.00074
323	0.02912	0.00091

System: 2-methyl-1-propanol + N-chloro-4-methylbenzenesulfonamide, sodium salt (1:1); phases: Liquid, Crystal
Fixed: Pressure, kPa = 101
Property: Mole fraction of N-chloro-4-methylbenzenesulfonamide, sodium salt (1:1) (Liquid); method: Laser monitoring
Temperature, K	Mole fraction of N-chloro-4-methylbenzenesulfonamide, sodium salt (1:1)	uncertainty
278	0.00101	3e-05
283	0.00135	4e-05
288	0.00201	6e-05
293	0.00322	0.0001
298.4	0.00464	0.00015
303.2	0.00595	0.00018
308	0.00723	0.00022
313	0.00881	0.00027
318	0.01137	0.00035
323	0.0141	0.00044

System: ethanol + N-chlorobenzenesulfonamide, sodium salt (1:1); phases: Liquid, Crystal
Fixed: Pressure, kPa = 101
Property: Mole fraction of N-chlorobenzenesulfonamide, sodium salt (1:1) (Liquid); method: Laser monitoring
Temperature, K	Mole fraction of N-chlorobenzenesulfonamide, sodium salt (1:1)	uncertainty
278	0.0164	0.00052
283	0.01932	0.00061
288	0.0224	0.00071
293	0.02642	0.00084
298	0.03096	0.00099
303.2	0.0364	0.00116
308	0.0422	0.00134
313	0.04855	0.00155
318	0.05615	0.00179
323	0.06597	0.00211

System: N-chlorobenzenesulfonamide, sodium salt (1:1) + water; phases: Liquid, Crystal
Fixed: Pressure, kPa = 101
Property: Mole fraction of N-chlorobenzenesulfonamide, sodium salt (1:1) (Liquid); method: Laser monitoring
Temperature, K	Mole fraction of N-chlorobenzenesulfonamide, sodium salt (1:1)	uncertainty
278	0.0074	0.00029
283	0.00829	0.00033
288	0.01021	0.0004
293	0.01271	0.0005
298	0.01575	0.00063
303.1	0.01919	0.00076
308.2	0.02406	0.00096
313	0.03156	0.00127
318	0.04212	0.0017
323	0.05538	0.00224

System: propan-1-ol + N-chlorobenzenesulfonamide, sodium salt (1:1); phases: Liquid, Crystal
Fixed: Pressure, kPa = 101
Property: Mole fraction of N-chlorobenzenesulfonamide, sodium salt (1:1) (Liquid); method: Laser monitoring
Temperature, K	Mole fraction of N-chlorobenzenesulfonamide, sodium salt (1:1)	uncertainty
278	0.00195	7e-05
283	0.00348	0.00011
288	0.00536	0.00017
293	0.00778	0.00025
298	0.01063	0.00034
303.1	0.01418	0.00045
308.2	0.01879	0.00059
313	0.02448	0.00077
318	0.03068	0.00096
323	0.03777	0.00118

System: 2-methyl-1-propanol + N-chlorobenzenesulfonamide, sodium salt (1:1); phases: Liquid, Crystal
Fixed: Pressure, kPa = 101
Property: Mole fraction of N-chlorobenzenesulfonamide, sodium salt (1:1) (Liquid); method: Laser monitoring
Temperature, K	Mole fraction of N-chlorobenzenesulfonamide, sodium salt (1:1)	uncertainty
278	0.00185	0.00011
283	0.00228	0.00014
288	0.00287	0.00017
293	0.00383	0.00023
298.4	0.00481	0.00029
303.2	0.00585	0.00035
308	0.00706	0.00043
313	0.0091	0.00055
318	0.01169	0.00071
323	0.01503	0.00091
