Measured thermophysical data. Solubility of CO2 in Ethyl Lactate and Modeling of the Phase Behavior of the CO2 + Ethyl Lactate Mixture
Source: J. Chem. Eng. Data, 2013, 10.1021/je301039e
Compound 1: (S)-(-)-ethyl lactate, C5H10O3, InChI=1S/C5H10O3/c1-3-8-5(7)4(2)6/h4,6H,3H2,1-2H3/t4-/m0/s1, purity 99%
Compound 2: carbon dioxide, CO2, InChI=1S/CO2/c2-1-3

System: carbon dioxide + (S)-(-)-ethyl lactate; phases: Liquid, Gas
Property: Mass fraction of carbon dioxide (Liquid); method: Gas Volume and Solvent Mass
Temperature, K	Pressure, kPa	Mass fraction of carbon dioxide	uncertainty
311	1200	0.032	0.006
311	2000	0.074	0.005
311	2800	0.103	0.004
311	3800	0.147	0.005
311	4500	0.188	0.006
311	6200	0.288	0.007
311	6800	0.344	0.009
311	7000	0.354	0.008
311	7800	0.419	0.009
318	1200	0.029	0.004
318	2800	0.096	0.004
318	3800	0.13	0.004
318	6200	0.21	0.005
318	7000	0.265	0.007
318	7800	0.318	0.009
318	8100	0.358	0.014
323	1200	0.029	0.005
323	2000	0.065	0.004
323	2800	0.087	0.003
323	3900	0.119	0.003
323	4900	0.14	0.003
323	6200	0.179	0.004
323	7000	0.198	0.007
323	8100	0.299	0.01
