Measured thermophysical data. Solubility, Density and Solution Thermodynamics of NaI in Different Pure Solvents and Binary Mixtures
Source: J. Chem. Eng. Data, 2012, 10.1021/je300754n
Compound 1: water, H2O, InChI=1S/H2O/h1H2
Compound 2: sodium iodide, INa, InChI=1S/HI.Na/h1H;/q;+1/p-1
Compound 3: methanol, CH4O, InChI=1S/CH4O/c1-2/h2H,1H3
Compound 4: ethanol, C2H6O, InChI=1S/C2H6O/c1-2-3/h3H,2H2,1H3
Compound 5: propan-2-ol, C3H8O, InChI=1S/C3H8O/c1-3(2)4/h3-4H,1-2H3

System: sodium iodide + water; phases: Liquid, Crystal
Fixed: Pressure, kPa = 101
Property: Mass density, kg/m3 (Liquid); method: Pycnometric method
Temperature, K	Mass density, kg/m3	uncertainty
298.15	1916.9	20
298.15	1899.6	20
303.15	1931.2	20
303.15	1922.3	20.1
308.15	1952	20
308.15	1946.9	20
308.15	1946.7	20
313.15	1973.2	20
313.15	1948.9	20

System: sodium iodide + water; phases: Liquid, Crystal
Fixed: Pressure, kPa = 101
Property: Mole fraction of sodium iodide (Liquid); method: OTHER::sMethod:gravimetry
Temperature, K	Mole fraction of sodium iodide	uncertainty
298.15	0.1813	0.0072
298.15	0.1806	0.0072
303.15	0.1865	0.0072
303.15	0.1858	0.0072
308.15	0.1918	0.0073
308.15	0.1894	0.0073
313.15	0.1991	0.0074
313.15	0.1972	0.0074

System: methanol + sodium iodide; phases: Liquid, Crystal
Fixed: Pressure, kPa = 101
Property: Mass density, kg/m3 (Liquid); method: Pycnometric method
Temperature, K	Mass density, kg/m3	uncertainty
298.15	1280.7	20
303.15	1277	20
308.15	1262.4	20
313.15	1254.4	20

System: methanol + sodium iodide; phases: Liquid, Crystal
Fixed: Pressure, kPa = 101
Property: Mole fraction of sodium iodide (Liquid); method: OTHER::sMethod:gravimetry
Temperature, K	Mole fraction of sodium iodide	uncertainty
298.15	0.1533	0.0063
303.15	0.1532	0.0063
308.15	0.1513	0.0063
313.15	0.1503	0.0063

System: ethanol + sodium iodide; phases: Liquid, Crystal
Fixed: Pressure, kPa = 101
Property: Mass density, kg/m3 (Liquid); method: Pycnometric method
Temperature, K	Mass density, kg/m3	uncertainty
298.15	874.4	20
303.15	881.8	20
308.15	895.3	20
313.15	922.8	20.1

System: ethanol + sodium iodide; phases: Liquid, Crystal
Fixed: Pressure, kPa = 101
Property: Mole fraction of sodium iodide (Liquid); method: OTHER::sMethod:gravimetry
Temperature, K	Mole fraction of sodium iodide	uncertainty
298.15	0.1094	0.0061
303.15	0.1334	0.0061
308.15	0.148	0.0061
313.15	0.1545	0.0061

System: propan-2-ol + sodium iodide; phases: Liquid, Crystal
Fixed: Pressure, kPa = 101
Property: Mass density, kg/m3 (Liquid); method: Pycnometric method
Temperature, K	Mass density, kg/m3	uncertainty
298.15	776	20
303.15	792.5	20
308.15	805.9	20
313.15	824.4	20

System: propan-2-ol + sodium iodide; phases: Liquid, Crystal
Fixed: Pressure, kPa = 101
Property: Mole fraction of sodium iodide (Liquid); method: OTHER::sMethod:gravimetry
Temperature, K	Mole fraction of sodium iodide	uncertainty
298.15	0.0067	0.0061
303.15	0.0289	0.0061
308.15	0.0596	0.0061
313.15	0.0785	0.0061

System: methanol + sodium iodide + water; phases: Liquid, Crystal
Fixed: Pressure, kPa = 101
Property: Mass density, kg/m3 (Liquid); method: Pycnometric method
Temperature, K	Solvent: Mole fraction of methanol	Mass density, kg/m3	uncertainty
298.15	0	1916.9	20
298.15	0.1	1825.8	20
298.15	0.2	1736.8	20
298.15	0.3	1656.6	20
298.15	0.4	1592.7	20
298.15	0.5	1545	20
298.15	0.6	1556.3	20.1
298.15	0.7	1481.4	20
298.15	0.8	1410.9	20
298.15	0.9	1345	20
298.15	1	1280.7	20
303.15	0	1931.2	20
303.15	0.1	1836.6	20
303.15	0.2	1753.5	20
303.15	0.3	1678.6	20
303.15	0.4	1604.7	20.1
303.15	0.5	1574.7	20.1
303.15	0.6	1555	20
303.15	0.7	1476	20
303.15	0.8	1405	20
303.15	0.9	1339.2	20
303.15	1	1277	20
308.15	0	1952	20
308.15	0.1	1836.9	20
308.15	0.2	1777.3	20
308.15	0.3	1694.4	20
308.15	0.4	1646.8	20.1
308.15	0.5	1612.7	20.1
308.15	0.6	1550.2	20
308.15	0.7	1470.9	20
308.15	0.8	1398.5	20
308.15	0.9	1333.2	20
308.15	1	1262.4	20
313.15	0	1973.2	20
313.15	0.1	1847.9	20.1
313.15	0.2	1783.6	20
313.15	0.3	1725.1	20.1
313.15	0.4	1674.5	20.1
313.15	0.5	1633.4	20
313.15	0.6	1545.2	20
313.15	0.7	1465.8	20
313.15	0.8	1393.4	20
313.15	0.9	1327.9	20
313.15	1	1254.4	20

System: methanol + sodium iodide + water; phases: Liquid, Crystal
Fixed: Pressure, kPa = 101
Property: Mole fraction of sodium iodide (Liquid); method: gravimetry
Temperature, K	Solvent: Mole fraction of methanol	Mole fraction of sodium iodide	uncertainty
298.15	0	0.1813	0.0072
298.15	0.1	0.1773	0.007
298.15	0.2	0.1727	0.0068
298.15	0.3	0.1718	0.0067
298.15	0.4	0.1726	0.0066
298.15	0.5	0.1754	0.0066
298.15	0.6	0.1914	0.0067
298.15	0.7	0.1819	0.0065
298.15	0.8	0.1734	0.0064
298.15	0.9	0.1635	0.0063
298.15	1	0.1533	0.0063
303.15	0	0.1865	0.0072
303.15	0.1	0.1828	0.007
303.15	0.2	0.1808	0.0069
303.15	0.3	0.1794	0.0068
303.15	0.4	0.1784	0.0067
303.15	0.5	0.1846	0.0067
303.15	0.6	0.1925	0.0067
303.15	0.7	0.1821	0.0065
303.15	0.8	0.1732	0.0064
303.15	0.9	0.1636	0.0063
303.15	1	0.1532	0.0063
308.15	0	0.1918	0.0073
308.15	0.1	0.1873	0.0071
308.15	0.2	0.1877	0.007
308.15	0.3	0.1857	0.0068
308.15	0.4	0.1889	0.0068
308.15	0.5	0.1956	0.0068
308.15	0.6	0.1922	0.0066
308.15	0.7	0.182	0.0065
308.15	0.8	0.1728	0.0064
308.15	0.9	0.1634	0.0063
308.15	1	0.1513	0.0063
313.15	0	0.1991	0.0074
313.15	0.1	0.1938	0.0072
313.15	0.2	0.1962	0.0071
313.15	0.3	0.1953	0.0069
313.15	0.4	0.1997	0.0069
313.15	0.5	0.2012	0.0068
313.15	0.6	0.1923	0.0066
313.15	0.7	0.1823	0.0065
313.15	0.8	0.1731	0.0064
313.15	0.9	0.1635	0.0063
313.15	1	0.1503	0.0063

System: ethanol + sodium iodide + water; phases: Liquid, Crystal
Fixed: Pressure, kPa = 101
Property: Mass density, kg/m3 (Liquid); method: Pycnometric method
Temperature, K	Solvent: Mole fraction of ethanol	Mass density, kg/m3	uncertainty
298.15	0	1899.6	20
298.15	0.0416	1849.3	20.1
298.15	0.0891	1727.5	20
298.15	0.1435	1637.9	20.1
298.15	0.2068	1494.1	20
298.15	0.2811	1370	20
298.15	0.3697	1238.4	20
298.15	0.4771	1114	20
298.15	0.61	1004	20
298.15	0.7787	954.4	20
298.15	0.8953	896.5	20.1
298.15	1	874.4	20
303.15	0	1922.3	20.1
303.15	0.0416	1866	20
303.15	0.0891	1735.6	20
303.15	0.1435	1648.8	20
303.15	0.2068	1509.5	20
303.15	0.2811	1378.5	20
303.15	0.3697	1244.3	20
303.15	0.4771	1122.7	20
303.15	0.61	1012.4	20
303.15	0.7787	964.7	20
303.15	0.8953	938.5	20
303.15	1	881.8	20
308.15	0	1946.9	20
308.15	0.0416	1878.3	20
308.15	0.0891	1748.4	20
308.15	0.1435	1666.1	20
308.15	0.2068	1526.3	20.1
308.15	0.2811	1395.9	20.1
308.15	0.3697	1261	20
308.15	0.4771	1138.6	20
308.15	0.61	1031.4	20
308.15	0.7787	976.9	20
308.15	0.8953	941.2	20
308.15	1	895.3	20
313.15	0	1948.9	20
313.15	0.0416	1896	20
313.15	0.0891	1769.7	20.1
313.15	0.1435	1682.5	20
313.15	0.2068	1555.1	20.1
313.15	0.2811	1421.5	20.1
313.15	0.3697	1284.6	20.1
313.15	0.4771	1157	20.1
313.15	0.61	1058.9	20.2
313.15	0.7787	1002	20.1
313.15	0.8953	985.1	20.1
313.15	1	922.8	20.1

System: ethanol + sodium iodide + water; phases: Liquid, Crystal
Fixed: Pressure, kPa = 101
Property: Mole fraction of sodium iodide (Liquid); method: gravimetry
Temperature, K	Solvent: Mole fraction of ethanol	Mole fraction of sodium iodide	uncertainty
298.15	0	0.1806	0.0072
298.15	0.0416	0.1744	0.007
298.15	0.0891	0.1693	0.0068
298.15	0.1435	0.1687	0.0067
298.15	0.2068	0.1643	0.0066
298.15	0.2811	0.161	0.0065
298.15	0.3697	0.1572	0.0064
298.15	0.4771	0.147	0.0063
298.15	0.61	0.1375	0.0062
298.15	0.7787	0.1206	0.0061
298.15	0.8953	0.1131	0.0061
298.15	1	0.1094	0.0061
303.15	0	0.1858	0.0072
303.15	0.0416	0.184	0.0071
303.15	0.0891	0.1818	0.0069
303.15	0.1435	0.1786	0.0068
303.15	0.2068	0.1744	0.0066
303.15	0.2811	0.171	0.0065
303.15	0.3697	0.164	0.0064
303.15	0.4771	0.1566	0.0063
303.15	0.61	0.1499	0.0062
303.15	0.7787	0.1418	0.0062
303.15	0.8953	0.1351	0.0062
303.15	1	0.1334	0.0061
308.15	0	0.1894	0.0073
308.15	0.0416	0.1873	0.0071
308.15	0.0891	0.1861	0.007
308.15	0.1435	0.1835	0.0068
308.15	0.2068	0.1821	0.0067
308.15	0.2811	0.1805	0.0066
308.15	0.3697	0.175	0.0065
308.15	0.4771	0.168	0.0064
308.15	0.61	0.1633	0.0063
308.15	0.7787	0.1541	0.0062
308.15	0.8953	0.1491	0.0062
308.15	1	0.148	0.0061
313.15	0	0.1972	0.0074
313.15	0.0416	0.1936	0.0072
313.15	0.0891	0.1981	0.0071
313.15	0.1435	0.1914	0.0069
313.15	0.2068	0.1942	0.0068
313.15	0.2811	0.1902	0.0067
313.15	0.3697	0.185	0.0065
313.15	0.4771	0.1793	0.0064
313.15	0.61	0.174	0.0063
313.15	0.7787	0.1685	0.0062
313.15	0.8953	0.1611	0.0062
313.15	1	0.1545	0.0061

System: propan-2-ol + sodium iodide + water; phases: Liquid, Crystal
Fixed: Pressure, kPa = 101
Property: Mass density, kg/m3 (Liquid); method: Pycnometric method
Temperature, K	Solvent: Mole fraction of propan-2-ol	Mass density, kg/m3	uncertainty
298.15	0	1899.6	20
298.15	0.0254	1750.9	20.1
298.15	0.0554	1629.1	20
298.15	0.0914	1539.5	20.1
298.15	0.1353	1395.7	20
298.15	0.1901	1271.6	20
298.15	0.2603	1140	20
298.15	0.3538	1015.5	20
298.15	0.4842	905.4	20
298.15	0.6786	856	20
298.15	0.8233	812.5	20.1
298.15	0.9	770.1	20
298.15	1	776	20
303.15	0	1922.3	20.1
303.15	0.0254	1776.6	20.1
303.15	0.0554	1646.2	20.1
303.15	0.0914	1559.4	20.1
303.15	0.1353	1420.1	20.1
303.15	0.1901	1289.1	20
303.15	0.2603	1154.9	20
303.15	0.3538	1033.3	20
303.15	0.4842	923.1	20
303.15	0.6786	875.3	20
303.15	0.8233	843.6	20
303.15	0.9	790	20.1
303.15	1	792.5	20
308.15	0	1946.7	20
308.15	0.0254	1788.9	20.1
308.15	0.0554	1659	20.1
308.15	0.0914	1571.7	20
308.15	0.1353	1436.9	20.1
308.15	0.1901	1306.5	20
308.15	0.2603	1171.6	20
308.15	0.3538	1049.2	20
308.15	0.4842	942	20
308.15	0.6786	887.5	20
308.15	0.8233	834.1	20
308.15	0.9	819.8	20
308.15	1	805.9	20
313.15	0	1948.9	20
313.15	0.0254	1797.6	20.2
313.15	0.0554	1671.3	20.1
313.15	0.0914	1584.1	20
313.15	0.1353	1456.7	20.1
313.15	0.1901	1323.1	20.1
313.15	0.2603	1186.2	20.1
313.15	0.3538	1058.5	20.1
313.15	0.4842	960.5	20.1
313.15	0.6786	903.6	20
313.15	0.8233	865.4	20
313.15	0.9	820	20
313.15	1	824.4	20

System: propan-2-ol + sodium iodide + water; phases: Liquid, Crystal
Fixed: Pressure, kPa = 101
Property: Mole fraction of sodium iodide (Liquid); method: gravimetry
Temperature, K	Solvent: Mole fraction of propan-2-ol	Mole fraction of sodium iodide	uncertainty
298.15	0	0.1806	0.0072
298.15	0.0254	0.1627	0.0068
298.15	0.0554	0.1459	0.0066
298.15	0.0914	0.128	0.0064
298.15	0.1353	0.1144	0.0063
298.15	0.1901	0.1056	0.0062
298.15	0.2603	0.0982	0.0061
298.15	0.3538	0.0843	0.0061
298.15	0.4842	0.0685	0.0061
298.15	0.6786	0.044	0.0061
298.15	0.8233	0.0324	0.0061
298.15	0.9	0.0156	0.0061
298.15	1	0.0067	0.0061
303.15	0	0.1858	0.0072
303.15	0.0254	0.1704	0.0069
303.15	0.0554	0.1549	0.0067
303.15	0.0914	0.1376	0.0064
303.15	0.1353	0.1257	0.0063
303.15	0.1901	0.1161	0.0062
303.15	0.2603	0.1108	0.0062
303.15	0.3538	0.1024	0.0061
303.15	0.4842	0.0922	0.0061
303.15	0.6786	0.0679	0.0061
303.15	0.8233	0.0591	0.0061
303.15	0.9	0.0411	0.0061
303.15	1	0.0289	0.0061
308.15	0	0.1918	0.0073
308.15	0.0254	0.1786	0.007
308.15	0.0554	0.1651	0.0068
308.15	0.0914	0.1493	0.0065
308.15	0.1353	0.1362	0.0064
308.15	0.1901	0.1282	0.0063
308.15	0.2603	0.1252	0.0062
308.15	0.3538	0.1193	0.0062
308.15	0.4842	0.1133	0.0061
308.15	0.6786	0.0925	0.0061
308.15	0.8233	0.0883	0.0061
308.15	0.9	0.0722	0.0061
308.15	1	0.0596	0.0061
313.15	0	0.1972	0.0074
313.15	0.0254	0.1853	0.0071
313.15	0.0554	0.1728	0.0068
313.15	0.0914	0.1579	0.0066
313.15	0.1353	0.1476	0.0065
313.15	0.1901	0.1374	0.0063
313.15	0.2603	0.1355	0.0063
313.15	0.3538	0.1315	0.0062
313.15	0.4842	0.1284	0.0061
313.15	0.6786	0.1105	0.0061
313.15	0.8233	0.0978	0.006
313.15	0.9	0.0883	0.0061
313.15	1	0.0785	0.0061
