Measured thermophysical data. Thermophysical Properties of Lithium Nitrate Trihydrate from (253 to 353) K
Source: J. Chem. Eng. Data, 2012, 10.1021/je3000469
Compound 1: lithium nitrate, LiNO3, InChI=1S/Li.NO3/c;2-1(3)4/q+1;-1
Compound 2: water, H2O, InChI=1S/H2O/h1H2

System: water + lithium nitrate; phases: Crystal of intercomponent compound 1, Crystal, Liquid, Air at 1 atmosphere
Property: Eutectic temperature, K (Crystal of intercomponent compound 1); method: DTA
Eutectic temperature, K	uncertainty
301.4	0.5

System: water + lithium nitrate; phases: Liquid, Crystal of intercomponent compound 1
Property: Solid-liquid equilibrium temperature, K (Liquid); method: DTA:corrimp
Mass fraction of lithium nitrate	Pressure, kPa	Solid-liquid equilibrium temperature, K	uncertainty
0.561	101	303.3	0.5

System: water + lithium nitrate; phases: Liquid, Crystal of intercomponent compound 1
Property: Molar enthalpy, kJ/mol (Liquid); method: Small sample (50 mg) DSC
Mass fraction of lithium nitrate	Pressure, kPa	Molar enthalpy, kJ/mol	uncertainty
0.561	101	8.82940738614619	1.10752148397653

System: water + lithium nitrate; phases: Liquid
Fixed: Mass fraction of lithium nitrate = 0.561
Fixed: Pressure, kPa = 101
Property: Mass density, kg/m3 (Liquid); method: Vibrating tube method
Temperature, K	Mass density, kg/m3	uncertainty
308.2	1425	14
313.2	1420	14
318.2	1413	14
323.2	1408	14
328.2	1402	14
333.2	1395	14
338.2	1390	14
343.2	1384	14
348.2	1378	14
353.2	1372	14

System: water + lithium nitrate; phases: Crystal of intercomponent compound 1
Fixed: Mass fraction of lithium nitrate = 0.561
Fixed: Pressure, kPa = 101
Property: Molar heat capacity at constant pressure, J/K/mol (Crystal of intercomponent compound 1); method: Small sample (50 mg) DSC
Temperature, K	Molar heat capacity at constant pressure, J/K/mol	uncertainty
253.2	48.9155322089632	4.92231770656234
263.2	50.1461116356038	4.92231770656234
273.2	51.3766910622444	5.22996256322248
283.2	52.607270488885	5.22996256322248
288.2	53.2225602022053	5.22996256322248

System: water + lithium nitrate; phases: Liquid
Fixed: Mass fraction of lithium nitrate = 0.561
Fixed: Pressure, kPa = 101
Property: Molar heat capacity at constant pressure, J/K/mol (Liquid); method: Small sample (50 mg) DSC
Temperature, K	Molar heat capacity at constant pressure, J/K/mol	uncertainty
313.2	84.9099804382003	8.61405598648409
323.2	85.2176252948604	8.61405598648409
333.2	84.9099804382003	8.61405598648409
343.2	85.2176252948604	8.61405598648409
353.2	84.9099804382003	8.61405598648409

System: water + lithium nitrate; phases: Liquid
Fixed: Mass fraction of lithium nitrate = 0.561
Fixed: Pressure, kPa = 101
Property: Thermal conductivity, W/m/K (Liquid); method: HOTW:elcondl
Temperature, K	Thermal conductivity, W/m/K	uncertainty
308.2	0.584	0.059
313.2	0.581	0.059
318.2	0.587	0.06
323.2	0.583	0.059
328.2	0.585	0.059
333.2	0.588	0.06
338.2	0.588	0.06
343.2	0.588	0.06
348.2	0.595	0.06
353.2	0.611	0.062

System: water + lithium nitrate; phases: Liquid
Fixed: Mass fraction of lithium nitrate = 0.561
Fixed: Pressure, kPa = 101
Property: Molar heat capacity at constant pressure, J/K/mol (Liquid); method: hot wire method
Temperature, K	Molar heat capacity at constant pressure, J/K/mol	uncertainty
308.2	89.5246532881025	9.53699055646453
313.2	89.5246532881025	9.53699055646453
318.2	90.4475878580829	9.53699055646453
323.2	90.4475878580829	9.53699055646453
328.2	91.0628775714032	9.53699055646453
333.2	91.6781672847235	9.84463541312467
338.2	91.9858121413837	9.84463541312467
343.2	92.2934569980438	9.84463541312467
348.2	93.2163915680242	9.84463541312467
353.2	94.4469709946648	10.1522802697848

System: water + lithium nitrate; phases: Crystal of intercomponent compound 1
Fixed: Mass fraction of lithium nitrate = 0.561
Fixed: Pressure, kPa = 101
Property: Thermal conductivity, W/m/K (Crystal of intercomponent compound 1); method: Hot disk method
Temperature, K	Thermal conductivity, W/m/K	uncertainty
294.2	0.82	0.16
293.2	0.75	0.15
283.2	0.76	0.15
273.2	0.77	0.15
263.2	0.74	0.15
253.2	0.76	0.15

System: water + lithium nitrate; phases: Liquid
Fixed: Mass fraction of lithium nitrate = 0.561
Fixed: Pressure, kPa = 101
Property: Viscosity, Pa*s (Liquid); method: Capillary tube (Ostwald; Ubbelohde) method
Temperature, K	Viscosity, Pa*s	uncertainty
308.2	0.00534	0.00011
313.2	0.0048	0.0001
318.2	0.00437	9e-05
323.2	0.00396	8e-05
328.2	0.0036	8e-05
333.2	0.00331	7e-05
338.2	0.00306	6e-05
343.2	0.00284	6e-05
348.2	0.00263	6e-05
353.2	0.00246	5e-05

System: water + lithium nitrate; phases: Liquid, Gas
Fixed: Mass fraction of lithium nitrate = 0.561
Property: Vapor or sublimation pressure, kPa (Liquid); method: Closed cell (Static) method
Temperature, K	Vapor or sublimation pressure, kPa	uncertainty
303.2	1	0.3
308.2	1.3	0.3
313.2	2.2	0.3
308.2	1.7	0.3
303.2	1.4	0.3

System: water + lithium nitrate; phases: Crystal of intercomponent compound 1, Gas
Fixed: Mass fraction of lithium nitrate = 0.561
Property: Vapor or sublimation pressure, kPa (Crystal of intercomponent compound 1); method: Closed cell (Static) method
Temperature, K	Vapor or sublimation pressure, kPa	uncertainty
288.2	0.4	0.3
293.2	0.5	0.3
298.2	0.7	0.3
298.2	0.7	0.3
293.2	0.5	0.3
288.2	0.4	0.3
