Measured thermophysical data. Solubilities of Protocatechuic Aldehyde, Caffeic Acid, d-Galactose, and d-Raffinose Pentahydrate in Ethanol Water Solutions
Source: J. Chem. Eng. Data, 2012, 10.1021/je300323g
Compound 1: (+)-galactose, C6H12O6, InChI=1S/C6H12O6/c7-1-3(9)5(11)6(12)4(10)2-8/h1,3-6,8-12H,2H2/t3-,4+,5+,6-/m0/s1, purity 99%
Compound 2: ethanol, C2H6O, InChI=1S/C2H6O/c1-2-3/h3H,2H2,1H3, purity 99%
Compound 3: water, H2O, InChI=1S/H2O/h1H2, purity 99.9%
Compound 4: D-raffinose, pentahydrate, C18H42O21, InChI=1S/C18H32O16.5H2O/c19-1-5-8(22)11(25)13(27)16(31-5)30-3-7-9(23)12(26)14(28)17(32-7)34-18(4-21)15(29)10(24)6(2-20)33-18;;;;;/h5-17,19-29H,1-4H2;5*1H2/t5-,6-,7-,8+,9-,10-,11+,12+,13-,14-,15+,16+,17-,18+;;;;;/m1...../s1, purity 99%
Compound 5: 3,4-dihydroxybenzaldehyde, C7H6O3, InChI=1S/C7H6O3/c8-4-5-1-2-6(9)7(10)3-5/h1-4,9-10H, purity 98%
Compound 6: caffeic acid, C9H8O4, InChI=1S/C9H8O4/c10-7-3-1-6(5-8(7)11)2-4-9(12)13/h1-5,10-11H,(H,12,13), purity 98%

System: (+)-galactose + ethanol + water; phases: Liquid, Crystal
Fixed: Pressure, kPa = 101
Property: Mass fraction of (+)-galactose (Liquid); method: gravimetric
Solvent: Mass fraction of ethanol	Temperature, K	Mass fraction of (+)-galactose	uncertainty
0.6	273.2	0.0226	0.0036
0.6	288.2	0.0455	0.0072
0.6	303.2	0.0613	0.0098
0.7	273.2	0.0136	0.0022
0.7	288.2	0.0256	0.0041
0.7	303.2	0.0325	0.0052
0.8	273.2	0.0048	0.0008
0.8	288.2	0.0086	0.0014
0.8	303.2	0.0114	0.0018
0.9	273.2	0.0012	0.0002
0.9	288.2	0.0025	0.0004
0.9	303.2	0.0035	0.0006
1	273.2	0.0005	0.0001
1	288.2	0.0008	0.0001
1	303.2	0.0015	0.0002

System: ethanol + water + D-raffinose, pentahydrate; phases: Liquid, Crystal
Fixed: Pressure, kPa = 101
Property: Mass fraction of D-raffinose, pentahydrate (Liquid); method: gravimetric
Solvent: Mass fraction of ethanol	Temperature, K	Mass fraction of D-raffinose, pentahydrate	uncertainty
0	273.2	0.075	0.0119
0	288.2	0.1427	0.0227
0	303.2	0.2565	0.0408
0.6	273.2	0.0017	0.0003
0.6	288.2	0.0052	0.0008
0.6	303.2	0.0143	0.0023
0.7	273.2	0.0013	0.0002
0.7	288.2	0.0024	0.0004
0.7	303.2	0.0055	0.0009
0.8	273.2	0.0005	0.0001
0.8	288.2	0.0011	0.0002
0.8	303.2	0.0023	0.0004
0.9	273.2	0.0004	0.0001
0.9	288.2	0.0007	0.0001
0.9	303.2	0.0011	0.0002

System: ethanol + 3,4-dihydroxybenzaldehyde + water; phases: Liquid, Crystal
Fixed: Pressure, kPa = 101
Property: Mass fraction of 3,4-dihydroxybenzaldehyde (Liquid); method: HPLC
Solvent: Mass fraction of ethanol	Temperature, K	Mass fraction of 3,4-dihydroxybenzaldehyde	uncertainty
0	273.2	0.005	0.0008
0	288.2	0.0117	0.0019
0.2	273.2	0.0097	0.0015
0.2	288.2	0.0338	0.0054
0.4	273.2	0.065	0.0103
0.4	288.2	0.1181	0.0188
0.6	273.2	0.1437	0.0229
0.6	288.2	0.205	0.0326
0.7	273.2	0.1696	0.027
0.7	288.2	0.2259	0.0359

System: ethanol + caffeic acid + water; phases: Liquid, Crystal
Fixed: Pressure, kPa = 101
Property: Mass fraction of caffeic acid (Liquid); method: HPLC
Solvent: Mass fraction of ethanol	Temperature, K	Mass fraction of caffeic acid	uncertainty
0.2	273.2	0.0007	0.0001
0.2	288.2	0.0012	0.0001
0.2	303.2	0.0023	0.0002
0.4	273.2	0.0087	0.0008
0.4	288.2	0.0114	0.0011
0.4	303.2	0.0147	0.0014
0.6	273.2	0.0298	0.0028
0.6	288.2	0.0348	0.0033
0.6	303.2	0.0437	0.0042
0.7	273.2	0.0416	0.004
0.7	288.2	0.0481	0.0046
0.7	303.2	0.0557	0.0053
0.8	273.2	0.0447	0.0043
0.8	288.2	0.0544	0.0052
0.8	303.2	0.0613	0.0059
0.9	273.2	0.0452	0.0043
0.9	288.2	0.0552	0.0053
0.9	303.2	0.0621	0.0059

System: (+)-galactose + ethanol; phases: Liquid, Crystal
Fixed: Pressure, kPa = 101
Property: Mass fraction of (+)-galactose (Liquid); method: gravimetric
Temperature, K	Mass fraction of (+)-galactose	uncertainty
273.2	0.0005	0.0001
288.2	0.0008	0.0001
303.2	0.0015	0.0002

System: water + D-raffinose, pentahydrate; phases: Liquid, Crystal
Fixed: Pressure, kPa = 101
Property: Mass fraction of D-raffinose, pentahydrate (Liquid); method: gravimetric
Temperature, K	Mass fraction of D-raffinose, pentahydrate	uncertainty
273.2	0.075	0.0119
288.2	0.1427	0.0227
303.2	0.2565	0.0408

System: 3,4-dihydroxybenzaldehyde + water; phases: Liquid, Crystal
Fixed: Pressure, kPa = 101
Property: Mass fraction of 3,4-dihydroxybenzaldehyde (Liquid); method: HPLC
Temperature, K	Mass fraction of 3,4-dihydroxybenzaldehyde	uncertainty
273.2	0.005	0.0008
288.2	0.0117	0.0019
