Measured thermophysical data. Experimental Study of p-.rho.-T Relationship of Compressed Liquid Phase for Octafluoropropane and Two near Azeotropic Ternary HFC/HC Mixtures
Source: J. Chem. Eng. Data, 2012, 10.1021/je300148f
Compound 1: octafluoropropane, C3F8, InChI=1S/C3F8/c4-1(5,2(6,7)8)3(9,10)11, purity 99.5%
Compound 2: 2-methylpropane, C4H10, InChI=1S/C4H10/c1-4(2)3/h4H,1-3H3, purity 99.5%
Compound 3: 1,1,1,2-tetrafluoroethane, C2H2F4, InChI=1S/C2H2F4/c3-1-2(4,5)6/h1H2, purity 99.5%
Compound 4: pentafluoroethane, C2HF5, InChI=1S/C2HF5/c3-1(4)2(5,6)7/h1H, purity 99.5%
Compound 5: butane, C4H10, InChI=1S/C4H10/c1-3-4-2/h3-4H2,1-2H3, purity 99.5%
Compound 6: propane, C3H8, InChI=1S/C3H8/c1-3-2/h3H2,1-2H3, purity 99.95%

System: octafluoropropane; phases: Liquid
Property: Mass density, kg/m3 (Liquid); method: ISOCHOR
Temperature, K	Pressure, kPa	Mass density, kg/m3	uncertainty
203.515	5337.7	1748.65	1.82
203.538	25066	1795.66	1.87
207.927	30528	1795.05	1.87
207.935	10279	1747.98	1.82
212.07	14905	1747.39	1.82
212.648	36376	1794.41	1.87
216.498	40978	1793.89	1.87
216.544	1000.8	1689.31	1.76
216.882	20281	1746.74	1.82
217.62	2018.3	1689.13	1.76
218.871	3201.2	1688.94	1.76
220.097	4356.8	1688.75	1.76
221.003	5191.7	1688.62	1.76
221.039	25052	1746.18	1.82
225.963	30368	1745.54	1.82
226.398	10304	1687.87	1.76
230.504	35314	1744.96	1.82
231.731	15327	1687.19	1.76
234.917	39898	1744.41	1.82
235.642	915.8	1615.88	1.68
236.891	20178	1686.54	1.76
237.717	1980.7	1615.62	1.68
239.203	3133.7	1615.41	1.68
240.317	3992.9	1615.26	1.68
241.963	25015	1685.92	1.75
241.97	5288.2	1615.05	1.68
247.055	29611	1685.32	1.75
248.403	10248	1614.25	1.68
253.05	1037.7	1548.82	1.61
253.355	35422	1684.57	1.75
254.576	2042.7	1548.62	1.61
254.84	15219	1613.5	1.68
256.201	3092.6	1548.41	1.61
257.665	4032.3	1548.23	1.61
257.99	39644	1684.03	1.75
259.384	5163.9	1548.03	1.61
260.601	5918.9	1547.89	1.61
261.375	20247	1612.75	1.68
262.201	6953.3	1547.71	1.61
264.924	1305.5	1498.9	1.56
266.688	2167.6	1498.5	1.56
267.415	10407	1547.12	1.61
267.608	24742	1612.07	1.68
268.396	3123.5	1498.5	1.56
270.008	4060.3	1498.31	1.56
272.098	5218.8	1498.08	1.56
273.845	29781	1611.39	1.68
274.194	14632	1546.4	1.61
278.847	1048.7	1431.66	1.49
280.306	34598	1610.69	1.67
280.625	9990.2	1497.18	1.56
280.956	2016.5	1431.43	1.49
282.611	20193	1545.52	1.61
283.117	3037.6	1431.2	1.49
285.198	4021.6	1430.98	1.49
287.189	39685	1609.96	1.67
287.23	4975.5	1430.78	1.49
289.393	15154	1496.29	1.55
290.425	25199	1544.72	1.6
294.192	1027.2	1348.77	1.4
296.894	2032	1348.25	1.4
298.143	10127	1429.72	1.49
298.145	10227	1432.13	1.49
298.147	20139	1495.43	1.55
298.166	30128	1543.94	1.6
299.562	3026.3	1348.25	1.4
302.235	4025.2	1348	1.4
305.193	5144.5	1347.73	1.4
305.567	34457	1543.21	1.6
306.469	24759	1494.63	1.55
308.23	15310	1431.18	1.49
313.203	39261	1542.45	1.6
316.929	30165	1493.65	1.55
318.2	20116	1430.27	1.48
318.202	1978.9	1206.47	1.25
318.202	10061	1346.6	1.4
318.202	19323	1427.89	1.48
318.204	2006.9	1206.47	1.25
318.206	9971.7	1346.6	1.4
322.104	2987.3	1206.16	1.25
325.722	35057	1492.81	1.55
326.055	3974.1	1205.86	1.25
328.081	24771	1429.38	1.48
329.827	4928.6	1205.58	1.25
330.81	14738	1345.54	1.4
332.719	39008	1492.14	1.55
339.499	7422.8	1204.86	1.25
341.197	30200	1425.83	1.48
344.826	20114	1344.37	1.39
353.16	23269	1343.69	1.39
353.16	35743	1424.77	1.48
353.167	10953	1203.86	1.25

System: propane; phases: Liquid
Property: Mass density, kg/m3 (Liquid); method: ISOCHOR
Temperature, K	Pressure, kPa	Mass density, kg/m3	uncertainty
207.355	1466.9	609.37	0.63
208.305	2745.8	609.32	0.63
209.058	3635.6	609.28	0.63
209.75	4364.7	609.25	0.63
215.172	10724	608.98	0.63
222.433	1045.6	592.03	0.62
222.745	19646	608.63	0.63
223.374	2016.7	591.98	0.62
224.523	3087.1	591.93	0.62
225.465	4153.8	591.89	0.62
226.913	5632.5	591.82	0.62
231.065	30008	608.23	0.63
231.068	10051	591.62	0.61
239.511	39217	607.87	0.63
240.494	1194	571.45	0.6
240.668	19671	591.21	0.61
240.916	1528.8	571.44	0.6
242.873	3265.5	571.39	0.6
244.548	4758.9	571.35	0.59
245.445	5554	571.33	0.6
250.101	9711.4	571.2	0.59
250.12	29984	590.79	0.61
251.114	51133	607.38	0.63
259.962	1060.8	547.54	0.57
261.063	19770	571.13	0.59
261.181	40016	590.35	0.61
261.194	1975	547.51	0.57
262.519	3059.7	547.47	0.57
262.521	2951.9	547.48	0.57
263.784	4004	547.44	0.57
265.281	5120.2	547.4	0.57
266.442	5840.1	547.37	0.57
267.872	6954.7	547.34	0.57
270.112	49092	589.98	0.61
270.216	1044.7	533.77	0.56
271.681	2041.5	533.71	0.56
272.122	30057	570.94	0.59
272.125	10829	547.66	0.57
272.133	10235	547.22	0.57
273.107	3025.3	533.66	0.56
274.507	3979.1	533.61	0.56
276.196	5186.1	533.54	0.56
283.085	995.2	515.52	0.55
283.428	38987	570.26	0.59
283.644	10260	533.26	0.56
284.771	2002.1	515.46	0.55
284.983	19876	546.88	0.57
286.559	3090.5	515.39	0.55
288.233	4086.1	515.33	0.55
289.899	5086.2	515.27	0.54
295.922	49573	569.78	0.59
297.679	1075	493.21	0.53
298.145	10031	514.99	0.54
298.146	10038	514.99	0.54
298.15	19981	532.71	0.56
298.15	30100	546.7	0.57
298.153	30027	546.51	0.57
298.175	19921	532.75	0.56
298.187	20084	532.74	0.56
299.62	2037.9	493.14	0.53
301.573	3036.9	493.08	0.53
303.559	4053.8	493.01	0.53
305.531	5060.2	492.95	0.53
311.436	39238	545.97	0.57
313.68	30193	532.17	0.55
315.228	2005.2	466.11	0.51
315.228	19842	514.41	0.54
315.229	9905.5	492.64	0.52
315.229	10017	492.63	0.52
317.419	2930.2	466.04	0.51
319.891	3981.7	465.97	0.5
322.252	4976.5	465.9	0.5
332.014	29682	513.86	0.53
333.97	19538	492.04	0.52
334.143	9861.6	465.55	0.5
344.569	49972	531.11	0.55
353.136	42004	513.17	0.53
353.139	29253	491.45	0.52
353.152	17921	464.99	0.49

System: 2-methylpropane + octafluoropropane + 1,1,1,2-tetrafluoroethane; phases: Liquid
Fixed: Mass fraction of 1,1,1,2-tetrafluoroethane = 0.88
Fixed: Mass fraction of octafluoropropane = 0.09
Property: Mass density, kg/m3 (Liquid); method: ISOCHOR
Temperature, K	Pressure, kPa	Mass density, kg/m3	uncertainty
208.91	29733	1486.48	1.54
209.06	9790.7	1456.66	1.51
215.311	39942	1485.71	1.54
216.318	20520	1455.77	1.51
216.884	2215.2	1422	1.48
221.651	48987	1484.99	1.54
223.074	10214	1421.25	1.47
223.262	30451	1454.97	1.51
230.244	40334	1454.17	1.51
230.521	1023.1	1381.42	1.43
231.76	2473.4	1381.28	1.43
232.409	3236.4	1381.2	1.43
237.633	50625	1453.36	1.51
238.358	10143	1380.53	1.43
238.36	30064	1419.54	1.47
245.45	39029	1418.78	1.47
246.33	19255	1379.68	1.43
246.9	1197	1334.89	1.38
254.359	50226	1417.84	1.47
255.745	9895.2	1333.97	1.38
255.777	30100	1378.71	1.43
262.181	800	1281.11	1.33
263.962	1359.8	1281.12	1.33
264.092	1252.5	1280.97	1.33
264.364	39618	1377.85	1.43
264.974	1881.4	1280.89	1.33
265.331	19583	1333.02	1.38
265.949	2789.4	1280.79	1.33
268.857	5189.1	1280.51	1.33
272.812	946.8	1250.42	1.3
273.342	1400.1	1251.04	1.3
274.248	9661.8	1280.15	1.33
274.299	1634.7	1250.3	1.3
274.546	50923	1376.84	1.43
275.54	29713	1332.04	1.38
275.593	2592	1250.18	1.29
284.21	926.5	1211.74	1.25
284.593	1244.7	1209.32	1.25
285.005	10052	1249.99	1.29
285.098	1221.3	1211.67	1.26
286.05	39829	1331.05	1.38
286.111	19975	1279.07	1.33
287.125	2473.9	1211.5	1.25
290.142	4541.1	1211.24	1.25
298.155	9926.9	1210.56	1.25
298.157	2144.6	1168.27	1.21
298.158	10058	1208.18	1.25
298.158	20171	1248.25	1.29
298.159	10014	1210.56	1.25
298.159	19945	1248.19	1.29
298.161	19969	1248.19	1.29
298.161	30097	1278.11	1.32
298.164	20155	1248.85	1.29
298.165	19647	1248.27	1.29
298.167	29871	1277.86	1.32
298.173	51587	1329.94	1.38
298.176	2067.6	1168.24	1.21
298.176	30138	1278	1.32
298.189	20284	1248.84	1.29
300.117	2300.7	1161.75	1.2
300.158	1314	1158.01	1.2
303.188	4119.1	1161.5	1.2
310.181	39514	1276.98	1.32
311.832	30391	1247.11	1.29
313.068	20200	1206.97	1.25
314.498	2050.4	1101.57	1.14
314.5	9639.4	1156.87	1.2
317.495	3765.4	1101.57	1.14
320.51	5236.5	1101.35	1.14
323.001	50490	1275.97	1.32
324.002	39464	1246.1	1.29
328.012	30229	1205.78	1.25
330.041	19972	1159.43	1.2
330.043	3010.5	1036.15	1.07
330.043	9970.2	1100.66	1.14
330.045	3008.5	1036.18	1.07
330.052	9581.4	1100.48	1.14
330.053	9970.3	1100.66	1.14
332.068	19883	1155.54	1.2
333.148	4230.5	1035.94	1.07
338.168	6229.8	1035.61	1.07
338.673	50238	1244.89	1.29
343.257	40313	1204.58	1.25
353.133	32011	1153.98	1.19
353.14	20885	1098.83	1.14
353.146	46500	1203.82	1.25
353.15	12293	1034.63	1.07

System: butane + pentafluoroethane + 1,1,1,2-tetrafluoroethane; phases: Liquid
Fixed: Mass fraction of 1,1,1,2-tetrafluoroethane = 0.5
Fixed: Mass fraction of pentafluoroethane = 0.466
Property: Mass density, kg/m3 (Liquid); method: ISOCHOR
Temperature, K	Pressure, kPa	Mass density, kg/m3	uncertainty
207.806	10318	1479.53	1.54
214.572	1110.6	1441.67	1.5
215.377	2029.1	1441.58	1.5
215.519	21289	1478.57	1.54
216.206	3082.6	1441.47	1.5
221.889	30021	1477.82	1.54
221.893	10156	1440.75	1.5
228.534	39131	1477.06	1.54
229.615	1098.1	1396.71	1.45
229.995	20252	1439.81	1.5
230.593	2078.6	1396.61	1.45
231.504	3084.8	1396.49	1.45
232.309	3967.5	1396.39	1.45
233.183	4933.8	1396.29	1.45
237.776	29961	1438.94	1.5
237.805	9988.2	1395.75	1.45
245.795	39681	1438.08	1.5
246.467	19385	1394.82	1.45
246.78	1103.8	1343.09	1.4
247.792	1806.2	1343	1.4
254.522	50049	1437.16	1.49
256.233	9591.3	1342.09	1.39
256.257	30015	1393.82	1.45
261.956	1175.7	1291.91	1.34
263.329	2291.4	1291.77	1.34
264.421	3168.8	1291.66	1.34
265.379	39695	1392.89	1.45
265.638	4146.4	1291.54	1.34
267.051	19679	1341.02	1.39
267.17	5365.5	1291.39	1.34
267.959	5993.9	1291.31	1.34
269.194	6974.5	1291.19	1.34
270.443	7971.4	1291.07	1.34
271.63	1024.4	1257.27	1.31
271.691	8959.5	1290.95	1.34
272.886	9911.6	1290.83	1.34
272.898	25162	1340.46	1.39
272.91	10194	1292.36	1.34
272.996	2011.2	1257.14	1.3
274.418	3031.6	1257.02	1.3
275.181	49916	1391.92	1.45
275.916	4106.4	1256.88	1.3
277.194	5022.5	1256.76	1.3
278.456	30181	1339.93	1.39
278.561	6004	1256.63	1.3
279.925	6962.2	1256.51	1.3
281.41	8144.1	1256.24	1.3
282.624	9064.3	1256.13	1.3
283.948	1253.7	1214.1	1.26
284.426	10339	1255.96	1.3
285.578	2067.5	1213.97	1.26
285.826	20135	1289.73	1.34
287.202	3069.7	1213.83	1.26
288.523	3950.2	1213.71	1.26
289.514	40132	1338.91	1.39
289.866	4728.7	1213.42	1.26
297.168	1197.9	1153.75	1.2
298.157	20087	1254.9	1.3
298.157	29966	1288.56	1.34
298.157	30178	1290.09	1.34
298.158	29960	1288.56	1.34
298.161	20110	1254.9	1.3
298.167	20034	1254.78	1.3
298.169	30139	1288.49	1.34
298.17	20254	1254.77	1.3
298.171	29979	1288.64	1.34
298.173	9948.8	1212.92	1.26
298.176	1972.3	1161.51	1.21
299.105	2029.4	1153.6	1.2
300.068	49458	1337.95	1.39
300.913	3007.2	1153.46	1.2
302.742	3957.7	1153.31	1.2
304.949	5098.7	1153.14	1.2
310.389	39671	1287.43	1.34
312.208	30045	1253.6	1.3
314.299	10020	1152.4	1.2
314.299	19775	1211.58	1.26
314.301	9958.8	1152.4	1.2
314.302	2060.3	1082.25	1.12
314.302	2068.4	1082.25	1.12
316.521	2993	1082.09	1.12
319.076	4067.1	1082.36	1.12
321.27	4992.6	1081.75	1.12
323.649	6003.2	1081.58	1.12
323.71	49896	1286.29	1.34
326.549	40048	1252.41	1.3
330.19	29832	1210.31	1.26
332.959	9953.2	1080.92	1.12
333.588	20172	1150.96	1.19
341.011	50252	1251.22	1.3
346.789	39961	1209.02	1.25
353.138	43775	1208.54	1.25
353.153	18562	1079.54	1.12
353.166	30557	1149.52	1.19
