Measured thermophysical data. Surface Properties of Aqueous Solutions of Amino Acid Ionic Liquids: [C3mim][Gly] and [C4mim][Gly]
Source: J. Chem. Eng. Data, 2012, 10.1021/je300161h
Compound 1: water, H2O, InChI=1S/H2O/h1H2
Compound 2: 1-propyl-3-methylimidazolium glycine, C9H17N3O2, InChI=1S/C7H13N2.C2H5NO2/c1-3-4-9-6-5-8(2)7-9;3-1-2(4)5/h5-7H,3-4H2,1-2H3;1,3H2,(H,4,5)/q+1;/p-1
Compound 3: 1-butyl-3-methylimidazolium glycinate, C10H19N3O2, InChI=1S/C8H15N2.C2H5NO2/c1-3-4-5-10-7-6-9(2)8-10;3-1-2(4)5/h6-8H,3-5H2,1-2H3;1,3H2,(H,4,5)/q+1;/p-1

System: water + 1-propyl-3-methylimidazolium glycine; phases: Liquid, Air at 1 atmosphere
Property: Surface tension liquid-gas, N/m (Liquid); method: Maximal bubble pressure
Temperature, K	Molality, mol/kg of 1-propyl-3-methylimidazolium glycine	Surface tension liquid-gas, N/m	uncertainty
288.15	0.0166	0.0732	0.0005
288.15	0.0278	0.0731	0.0005
288.15	0.0443	0.0729	0.0005
288.15	0.0555	0.0726	0.0005
288.15	0.1111	0.072	0.0005
288.15	0.1676	0.0714	0.0005
288.15	0.2227	0.0708	0.0005
288.15	0.2789	0.0699	0.0005
288.15	0.3349	0.0694	0.0005
288.15	0.3916	0.0683	0.0005
288.15	0.4476	0.0676	0.0005
288.15	0.5039	0.067	0.0005
293.15	0.0166	0.0724	0.0005
293.15	0.0278	0.0723	0.0005
293.15	0.0443	0.072	0.001
293.15	0.0555	0.0717	0.0005
293.15	0.1111	0.0712	0.0005
293.15	0.1676	0.0706	0.0005
293.15	0.2227	0.0699	0.0005
293.15	0.2789	0.0691	0.0005
293.15	0.3349	0.0684	0.0005
293.15	0.3916	0.0674	0.0005
293.15	0.4476	0.0667	0.0005
293.15	0.5039	0.0661	0.0005
298.15	0.0166	0.0716	0.0005
298.15	0.0278	0.0714	0.0005
298.15	0.0443	0.0712	0.0005
298.15	0.0555	0.071	0.0005
298.15	0.1111	0.0704	0.0005
298.15	0.1676	0.0696	0.0005
298.15	0.2227	0.0691	0.0005
298.15	0.2789	0.0683	0.0005
298.15	0.3349	0.0675	0.0005
298.15	0.3916	0.0666	0.0005
298.15	0.4476	0.0659	0.0005
298.15	0.5039	0.0655	0.0005
303.15	0.0166	0.0709	0.0005
303.15	0.0278	0.0707	0.0005
303.15	0.0443	0.0705	0.0005
303.15	0.0555	0.0704	0.0005
303.15	0.1111	0.0697	0.0005
303.15	0.1676	0.0687	0.0005
303.15	0.2227	0.0682	0.0005
303.15	0.2789	0.0676	0.0005
303.15	0.3349	0.0668	0.0005
303.15	0.3916	0.0659	0.0005
303.15	0.4476	0.0652	0.0005
303.15	0.5039	0.0648	0.0005
308.15	0.0166	0.0701	0.0005
308.15	0.0278	0.0699	0.0005
308.15	0.0443	0.0697	0.0005
308.15	0.0555	0.0696	0.0005
308.15	0.1111	0.0689	0.0005
308.15	0.1676	0.068	0.0005
308.15	0.2227	0.0674	0.0005
308.15	0.2789	0.0669	0.0005
308.15	0.3349	0.0663	0.0005
308.15	0.3916	0.0654	0.0005
308.15	0.4476	0.0649	0.0005
308.15	0.5039	0.0644	0.0005
313.15	0.0166	0.0691	0.0005
313.15	0.0278	0.069	0.0005
313.15	0.0443	0.0688	0.0005
313.15	0.0555	0.0687	0.0005
313.15	0.1111	0.068	0.0005
313.15	0.1676	0.0671	0.0005
313.15	0.2227	0.0665	0.0005
313.15	0.2789	0.066	0.0005
313.15	0.3349	0.0655	0.0005
313.15	0.3916	0.0645	0.0005
313.15	0.4476	0.064	0.0005
313.15	0.5039	0.0636	0.0005
318.15	0.0166	0.0683	0.0005
318.15	0.0278	0.0682	0.0005
318.15	0.0443	0.068	0.001
318.15	0.0555	0.0679	0.0005
318.15	0.1111	0.067	0.0005
318.15	0.1676	0.0664	0.0005
318.15	0.2227	0.0656	0.0005
318.15	0.2789	0.0654	0.0005
318.15	0.3349	0.0647	0.0005
318.15	0.3916	0.0637	0.0005
318.15	0.4476	0.0631	0.0005
318.15	0.5039	0.0628	0.0005
323.15	0.0166	0.0675	0.0005
323.15	0.0278	0.0674	0.0005
323.15	0.0443	0.0672	0.0005
323.15	0.0555	0.067	0.0005
323.15	0.1111	0.0663	0.0005
323.15	0.1676	0.0657	0.0005
323.15	0.2227	0.0649	0.0005
323.15	0.2789	0.0645	0.0005
323.15	0.3349	0.0639	0.0005
323.15	0.3916	0.063	0.0005
323.15	0.4476	0.0623	0.0005
323.15	0.5039	0.0621	0.0005
328.15	0.0166	0.0664	0.0005
328.15	0.0278	0.0663	0.0005
328.15	0.0443	0.0662	0.0005
328.15	0.0555	0.0661	0.0005
328.15	0.1111	0.0654	0.0005
328.15	0.1676	0.0643	0.0005
328.15	0.2227	0.0635	0.0005
328.15	0.2789	0.063	0.0005
328.15	0.3349	0.0625	0.0005
328.15	0.3916	0.0617	0.0005
328.15	0.4476	0.0612	0.0005
328.15	0.5039	0.0608	0.0005

System: water + 1-propyl-3-methylimidazolium glycine; phases: Liquid
Fixed: Pressure, kPa = 101
Property: Mass density, kg/m3 (Liquid); method: Vibrating tube method
Temperature, K	Molality, mol/kg of 1-propyl-3-methylimidazolium glycine	Mass density, kg/m3	uncertainty
288.15	0.0102	1000.19	8
288.15	0.0166	1000.4	8
288.15	0.0282	1000.62	8
288.15	0.0443	1000.9	8
288.15	0.1117	1002.48	8
288.15	0.1846	1004.22	8
288.15	0.2272	1005.12	8
288.15	0.2865	1006.55	8
288.15	0.3367	1007.83	8
288.15	0.3947	1009.26	8
288.15	0.4497	1010.62	8
288.15	0.5043	1011.96	8
293.15	0.0102	999.18	8
293.15	0.0166	999.39	8
293.15	0.0282	999.55	8
293.15	0.0443	999.91	8
293.15	0.1117	1001.4	8
293.15	0.1846	1002.97	8
293.15	0.2272	1004.07	8
293.15	0.2865	1005.46	8
293.15	0.3367	1006.72	8
293.15	0.3947	1008.12	8
293.15	0.4497	1009.42	8
293.15	0.5043	1010.74	8
298.15	0.0102	997.63	8
298.15	0.0166	997.92	8
298.15	0.0282	998.11	8
298.15	0.0443	998.43	8
298.15	0.1117	999.84	8
298.15	0.1846	1001.64	8
298.15	0.2272	1002.78	8
298.15	0.2865	1004.15	8
298.15	0.3367	1005.39	8
298.15	0.3947	1006.73	8
298.15	0.4497	1008.02	8
298.15	0.5043	1009.31	8
303.15	0.0102	996.24	8
303.15	0.0166	996.44	8
303.15	0.0282	996.71	8
303.15	0.0443	996.92	8
303.15	0.1117	998.52	8
303.15	0.1846	1000.2	8
303.15	0.2272	1001.18	8
303.15	0.2865	1002.61	8
303.15	0.3367	1003.83	8
303.15	0.3947	1005.15	8
303.15	0.4497	1006.58	8
303.15	0.5043	1007.67	8
308.15	0.0102	994.41	8
308.15	0.0166	994.59	8
308.15	0.0282	994.79	8
308.15	0.0443	995.15	8
308.15	0.1117	996.55	8
308.15	0.1846	998.36	8
308.15	0.2272	999.36	8
308.15	0.2865	1000.86	8
308.15	0.3367	1002.06	8
308.15	0.3947	1003.37	8
308.15	0.4497	1004.79	8
308.15	0.5043	1005.84	8
313.15	0.0102	992.34	8
313.15	0.0166	992.51	8
313.15	0.0282	992.72	8
313.15	0.0443	993.05	8
313.15	0.1117	994.65	8
313.15	0.1846	996.37	8
313.15	0.2272	997.46	8
313.15	0.2865	998.75	8
313.15	0.3367	999.89	8
313.15	0.3947	1001.39	8
313.15	0.4497	1002.56	8
313.15	0.5043	1003.84	8
318.15	0.0102	990.09	8
318.15	0.0166	990.17	8
318.15	0.0282	990.42	8
318.15	0.0443	990.69	8
318.15	0.1117	992.33	8
318.15	0.1846	994.08	8
318.15	0.2272	995.27	8
318.15	0.2865	996.61	8
318.15	0.3367	997.92	8
318.15	0.3947	999.23	8
318.15	0.4497	1000.46	8
318.15	0.5043	1001.67	8
323.15	0.0102	987.91	8
323.15	0.0166	988.17	8
323.15	0.0282	988.34	8
323.15	0.0443	988.62	8
323.15	0.1117	990.2	8
323.15	0.1846	991.99	8
323.15	0.2272	993.03	8
323.15	0.2865	994.37	8
323.15	0.3367	995.53	8
323.15	0.3947	996.91	8
323.15	0.4497	998.15	8
323.15	0.5043	999.44	8
328.15	0.0102	986.28	8
328.15	0.0166	986.32	8
328.15	0.0282	986.54	8
328.15	0.0443	986.79	8
328.15	0.1117	988.37	8
328.15	0.1846	990.11	8
328.15	0.2272	991.12	8
328.15	0.2865	992.55	8
328.15	0.3367	993.69	8
328.15	0.3947	994.89	8
328.15	0.4497	996.25	8
328.15	0.5043	997.33	8

System: water + 1-butyl-3-methylimidazolium glycinate; phases: Liquid, Air at 1 atmosphere
Property: Surface tension liquid-gas, N/m (Liquid); method: Maximal bubble pressure
Temperature, K	Molality, mol/kg of 1-butyl-3-methylimidazolium glycinate	Surface tension liquid-gas, N/m	uncertainty
288.15	0.0105	0.0731	0.0005
288.15	0.0195	0.073	0.0005
288.15	0.0287	0.0728	0.0005
288.15	0.0583	0.0725	0.0005
288.15	0.1114	0.072	0.0005
288.15	0.1676	0.0714	0.0005
288.15	0.2217	0.0708	0.0005
288.15	0.2794	0.0699	0.0005
288.15	0.336	0.0694	0.0005
288.15	0.3926	0.0682	0.0005
288.15	0.4494	0.0676	0.0005
288.15	0.5075	0.067	0.0005
293.15	0.0105	0.0723	0.0005
293.15	0.0195	0.0722	0.0005
293.15	0.0287	0.0719	0.0005
293.15	0.0583	0.0717	0.0005
293.15	0.1114	0.0712	0.0005
293.15	0.1676	0.0706	0.0005
293.15	0.2217	0.0698	0.0005
293.15	0.2794	0.0691	0.0005
293.15	0.336	0.0683	0.0005
293.15	0.3926	0.0674	0.0005
293.15	0.4494	0.0667	0.0005
293.15	0.5075	0.0661	0.0005
298.15	0.0105	0.0717	0.0005
298.15	0.0195	0.0716	0.0005
298.15	0.0287	0.0714	0.0005
298.15	0.0583	0.071	0.0005
298.15	0.1114	0.0704	0.0005
298.15	0.1676	0.0696	0.0005
298.15	0.2217	0.0691	0.0005
298.15	0.2794	0.0683	0.0005
298.15	0.336	0.0675	0.0005
298.15	0.3926	0.0664	0.0005
298.15	0.4494	0.0658	0.0005
298.15	0.5075	0.0655	0.0005
303.15	0.0105	0.071	0.0005
303.15	0.0195	0.0709	0.0005
303.15	0.0287	0.0707	0.0005
303.15	0.0583	0.0704	0.0005
303.15	0.1114	0.0697	0.0005
303.15	0.1676	0.0688	0.0005
303.15	0.2217	0.0681	0.0005
303.15	0.2794	0.0673	0.0005
303.15	0.336	0.0665	0.0005
303.15	0.3926	0.0658	0.0005
303.15	0.4494	0.0652	0.0005
303.15	0.5075	0.0648	0.0005
308.15	0.0105	0.0702	0.0005
308.15	0.0195	0.07	0.0005
308.15	0.0287	0.0698	0.0005
308.15	0.0583	0.0696	0.0005
308.15	0.1114	0.0689	0.0005
308.15	0.1676	0.0681	0.0005
308.15	0.2217	0.0674	0.0005
308.15	0.2794	0.0667	0.0005
308.15	0.336	0.0661	0.0005
308.15	0.3926	0.0654	0.0005
308.15	0.4494	0.0648	0.0005
308.15	0.5075	0.0641	0.0005
313.15	0.0105	0.0693	0.0005
313.15	0.0195	0.0691	0.0005
313.15	0.0287	0.0689	0.0005
313.15	0.0583	0.0687	0.0005
313.15	0.1114	0.068	0.0005
313.15	0.1676	0.0672	0.0005
313.15	0.2217	0.0666	0.0005
313.15	0.2794	0.0661	0.0005
313.15	0.336	0.0655	0.0005
313.15	0.3926	0.0645	0.0005
313.15	0.4494	0.064	0.0005
313.15	0.5075	0.0635	0.0005
318.15	0.0105	0.0685	0.0005
318.15	0.0195	0.0683	0.0005
318.15	0.0287	0.0681	0.0005
318.15	0.0583	0.0679	0.0005
318.15	0.1114	0.0672	0.0005
318.15	0.1676	0.0664	0.0005
318.15	0.2217	0.0659	0.0005
318.15	0.2794	0.0653	0.0005
318.15	0.336	0.0647	0.0005
318.15	0.3926	0.0638	0.0005
318.15	0.4494	0.0632	0.0005
318.15	0.5075	0.0627	0.0005
323.15	0.0105	0.0677	0.0005
323.15	0.0195	0.0675	0.0005
323.15	0.0287	0.0673	0.0005
323.15	0.0583	0.067	0.0005
323.15	0.1114	0.0663	0.0005
323.15	0.1676	0.0655	0.0005
323.15	0.2217	0.0649	0.0005
323.15	0.2794	0.0643	0.0005
323.15	0.336	0.0636	0.0005
323.15	0.3926	0.063	0.0005
323.15	0.4494	0.0622	0.0005
323.15	0.5075	0.0615	0.0005
328.15	0.0105	0.0667	0.0005
328.15	0.0195	0.0665	0.0005
328.15	0.0287	0.0663	0.0005
328.15	0.0583	0.066	0.0005
328.15	0.1114	0.0652	0.0005
328.15	0.1676	0.0645	0.0005
328.15	0.2217	0.0639	0.0005
328.15	0.2794	0.0631	0.0005
328.15	0.336	0.0626	0.0005
328.15	0.3926	0.0617	0.0005
328.15	0.4494	0.0613	0.0005
328.15	0.5075	0.0608	0.0005

System: water + 1-butyl-3-methylimidazolium glycinate; phases: Liquid
Fixed: Pressure, kPa = 101
Property: Mass density, kg/m3 (Liquid); method: Vibrating tube method
Temperature, K	Molality, mol/kg of 1-butyl-3-methylimidazolium glycinate	Mass density, kg/m3	uncertainty
288.15	0.027	1000.26	8
288.15	0.0379	1000.62	8
288.15	0.0451	1000.79	8
288.15	0.0603	1001.16	8
288.15	0.1158	1002.49	8
288.15	0.1787	1003.99	8
288.15	0.211	1004.87	8
288.15	0.2807	1006.44	8
288.15	0.3239	1007.57	8
288.15	0.3946	1009.17	8
288.15	0.4475	1010.54	8
288.15	0.4997	1012.09	8
293.15	0.027	999.27	8
293.15	0.0379	999.64	8
293.15	0.0451	999.82	8
293.15	0.0603	1000.17	8
293.15	0.1158	1001.39	8
293.15	0.1787	1002.89	8
293.15	0.211	1003.66	8
293.15	0.2807	1005.43	8
293.15	0.3239	1006.56	8
293.15	0.3946	1008.05	8
293.15	0.4475	1009.51	8
293.15	0.4997	1010.75	8
298.15	0.027	997.88	8
298.15	0.0379	998.17	8
298.15	0.0451	998.24	8
298.15	0.0603	998.75	8
298.15	0.1158	1000.17	8
298.15	0.1787	1001.72	8
298.15	0.211	1002.39	8
298.15	0.2807	1004.15	8
298.15	0.3239	1005.12	8
298.15	0.3946	1006.68	8
298.15	0.4475	1007.94	8
298.15	0.4997	1009.09	8
303.15	0.027	996.19	8
303.15	0.0379	996.74	8
303.15	0.0451	996.81	8
303.15	0.0603	997.17	8
303.15	0.1158	998.48	8
303.15	0.1787	999.96	8
303.15	0.211	1000.72	8
303.15	0.2807	1002.36	8
303.15	0.3239	1003.38	8
303.15	0.3946	1005.04	8
303.15	0.4475	1006.29	8
303.15	0.4997	1007.71	8
308.15	0.027	994.33	8
308.15	0.0379	994.9	8
308.15	0.0451	994.97	8
308.15	0.0603	995.33	8
308.15	0.1158	996.65	8
308.15	0.1787	998.16	8
308.15	0.211	998.93	8
308.15	0.2807	1000.59	8
308.15	0.3239	1001.62	8
308.15	0.3946	1003.31	8
308.15	0.4475	1004.57	8
308.15	0.4997	1006.02	8
313.15	0.027	992.45	8
313.15	0.0379	992.81	8
313.15	0.0451	992.88	8
313.15	0.0603	993.24	8
313.15	0.1158	994.54	8
313.15	0.1787	995.92	8
313.15	0.211	996.78	8
313.15	0.2807	998.41	8
313.15	0.3239	999.43	8
313.15	0.3946	1001.09	8
313.15	0.4475	1002.33	8
313.15	0.4997	1003.76	8
318.15	0.027	990.33	8
318.15	0.0379	990.5	8
318.15	0.0451	990.56	8
318.15	0.0603	990.93	8
318.15	0.1158	992.25	8
318.15	0.1787	993.85	8
318.15	0.211	994.52	8
318.15	0.2807	996.19	8
318.15	0.3239	997.22	8
318.15	0.3946	998.91	8
318.15	0.4475	1000.27	8
318.15	0.4997	1001.61	8
323.15	0.027	988.19	8
323.15	0.0379	988.65	8
323.15	0.0451	988.62	8
323.15	0.0603	988.88	8
323.15	0.1158	990.2	8
323.15	0.1787	991.69	8
323.15	0.211	992.46	8
323.15	0.2807	994.11	8
323.15	0.3239	995.14	8
323.15	0.3946	996.81	8
323.15	0.4475	998.07	8
323.15	0.4997	999.51	8
328.15	0.027	986.27	8
328.15	0.0379	986.63	8
328.15	0.0451	986.7	8
328.15	0.0603	987.06	8
328.15	0.1158	988.38	8
328.15	0.1787	989.87	8
328.15	0.211	990.84	8
328.15	0.2807	992.29	8
328.15	0.3239	993.32	8
328.15	0.3946	995	8
328.15	0.4475	996.25	8
328.15	0.4997	997.69	8
