Measured thermophysical data. Experimental and Computational Study of the Thermodynamic Properties of 9-Fluorenone and 9-Fluorenol
Source: J. Chem. Eng. Data, 2012, 10.1021/je300584m
Compound 1: carbon dioxide, CO2, InChI=1S/CO2/c2-1-3
Compound 2: water, H2O, InChI=1S/H2O/h1H2
Compound 3: oxygen, O2, InChI=1S/O2/c1-2
Compound 4: 9(9H)-fluorenone, C13H8O, InChI=1S/C13H8O/c14-13-11-7-3-1-5-9(11)10-6-2-4-8-12(10)13/h1-8H, purity 99.98%
Compound 5: 9H-fluoren-9-ol, C13H10O, InChI=1S/C13H10O/c14-13-11-7-3-1-5-9(11)10-6-2-4-8-12(10)13/h1-8,13-14H, purity 99.99%

System: 9(9H)-fluorenone; phases: Crystal, Liquid, Air at 1 atmosphere
Property: Molar enthalpy of transition or fusion, kJ/mol (Crystal); method: DSC
Molar enthalpy of transition or fusion, kJ/mol	uncertainty
17.6	1.5

System: 9(9H)-fluorenone; phases: Crystal, Liquid, Air at 1 atmosphere
Property: Normal melting temperature, K (Crystal); method: DTA
Normal melting temperature, K	uncertainty
356.16	0.56

System: 9(9H)-fluorenone; phases: Crystal, Gas
Property: Vapor or sublimation pressure, kPa (Crystal); method: Calculated from knudsen effusion weight loss
Temperature, K	Vapor or sublimation pressure, kPa	uncertainty
312.19	8.9e-05	2e-05
314.21	0.000115	2e-05
316.11	0.000143	2.1e-05
318.18	0.00018	2.1e-05
320.2	0.000225	2.2e-05
322.11	0.000273	2.2e-05
324.19	0.000344	2.3e-05
326.19	0.00043	2.5e-05
328.11	0.000528	2.7e-05
330.18	0.000638	3e-05
332.18	0.000796	3.5e-05
334.1	0.000977	4e-05

System: 9(9H)-fluorenone; phases: Crystal, Gas
Property: Vapor or sublimation pressure, kPa (Crystal); method: Closed cell (Static) method
Temperature, K	Vapor or sublimation pressure, kPa	uncertainty
326.88	0.00045	0.00011
328.32	0.00053	0.00011
329.83	0.00061	0.00011
331.3	0.00072	0.00012
332.81	0.00085	0.00012
334.29	0.00098	0.00012
335.78	0.00113	0.00012
337.25	0.00133	0.00013
338.75	0.00153	0.00013
340.21	0.00177	0.00013
341.69	0.00205	0.00014
343.19	0.00235	0.00015
344.68	0.00272	0.00016
346.2	0.00311	0.00017
347.68	0.00355	0.00018
349.17	0.00409	0.0002
350.65	0.00467	0.00022
352.14	0.00544	0.00024

System: 9(9H)-fluorenone; phases: Liquid, Gas
Property: Vapor or sublimation pressure, kPa (Liquid); method: Closed cell (Static) method
Temperature, K	Vapor or sublimation pressure, kPa	uncertainty
327.85	0.0008	0.0001
329.82	0.00095	0.00012
331.79	0.00112	0.00012
333.8	0.00133	0.00012
335.78	0.00159	0.00013
337.74	0.00185	0.00014
339.72	0.00217	0.00014
341.76	0.00258	0.00015
343.72	0.00299	0.00017
345.66	0.00348	0.00018
347.68	0.00409	0.0002
349.66	0.00468	0.00022
351.63	0.00545	0.00025
353.63	0.0063	0.0003
355.58	0.00731	0.00031
357.59	0.0084	0.0004
359.82	0.00981	0.0004
361.57	0.01112	0.00045
361.59	0.01107	0.00045
363.79	0.01285	0.00052
365.52	0.01446	0.00054
367.74	0.01661	0.00057
369.53	0.01887	0.00061
371.72	0.02159	0.00065
373.53	0.02435	0.00069
375.67	0.02768	0.00074
377.47	0.03128	0.0008
379.65	0.03529	0.00086
381.4	0.03955	0.00092
383.6	0.04451	0.001
385.47	0.05021	0.00109
387.56	0.05645	0.00119
391.51	0.07082	0.00141
393.41	0.07755	0.00151
395.41	0.08762	0.00167
397.36	0.09675	0.00181
399.35	0.1089	0.002
401.32	0.1202	0.0022
403.3	0.1342	0.0021
406.25	0.1558	0.0023
407.26	0.1646	0.0023
409.18	0.1808	0.0025
411.21	0.2014	0.0026
413.17	0.2206	0.0028
415.17	0.244	0.003
417.11	0.2679	0.0032
419.13	0.2948	0.0035
421.06	0.3242	0.0037
423.04	0.355	0.004
425	0.3873	0.0043
427.02	0.4288	0.0046
428.95	0.467	0.005
430.77	0.511	0.005
432.92	0.5574	0.0057
434.9	0.604	0.006
436.86	0.6602	0.0066
438.87	0.7204	0.0071
440.85	0.7844	0.0077

System: 9H-fluoren-9-ol; phases: Crystal, Liquid, Air at 1 atmosphere
Property: Molar enthalpy of transition or fusion, kJ/mol (Crystal); method: DSC
Molar enthalpy of transition or fusion, kJ/mol	uncertainty
24.2	1.5

System: 9H-fluoren-9-ol; phases: Crystal, Liquid, Air at 1 atmosphere
Property: Normal melting temperature, K (Crystal); method: DTA
Normal melting temperature, K	uncertainty
428.7	0.39

System: 9H-fluoren-9-ol; phases: Crystal, Gas
Property: Vapor or sublimation pressure, kPa (Crystal); method: Calculated from knudsen effusion weight loss
Temperature, K	Vapor or sublimation pressure, kPa	uncertainty
337.16	0.000106	2e-05
339.13	0.000132	2.1e-05
341.1	0.000163	2.1e-05
343.16	0.000196	2.1e-05
345.09	0.000243	2.2e-05
347.09	0.000307	2.3e-05
349.15	0.000385	2.4e-05
351.11	0.00047	2.6e-05
353.11	0.000579	2.9e-05
355.1	0.00071	3.2e-05
357.09	0.000884	3.7e-05
359.09	0.001078	8.5e-05

System: 9H-fluoren-9-ol; phases: Crystal, Gas
Property: Vapor or sublimation pressure, kPa (Crystal); method: Closed cell (Static) method
Temperature, K	Vapor or sublimation pressure, kPa	uncertainty
350.76	0.00051	0.00012
352.75	0.00062	0.00012
354.71	0.00075	0.00012
356.59	0.00092	0.00013
358.67	0.00113	0.00013
360.98	0.00139	0.00013
362.63	0.00165	0.00014
364.58	0.00198	0.00015
366.55	0.00238	0.00016
368.53	0.0029	0.00017
370.51	0.00343	0.00018
372.48	0.00418	0.00021
372.51	0.00419	0.00021
374.53	0.00504	0.00024
376.49	0.00599	0.00027
378.48	0.00711	0.00031
380.44	0.00855	0.00036
382.39	0.01001	0.00041
384.38	0.01183	0.00048
386.35	0.01393	0.00053
388.32	0.01662	0.00058
390.28	0.0195	0.00062
392.27	0.02263	0.00067
394.22	0.02684	0.00073
396.22	0.03155	0.0008
398.16	0.03678	0.00088
400.1	0.04277	0.00098
402.11	0.05007	0.00109
404.04	0.05782	0.00121
406.06	0.06738	0.00136
407.96	0.07784	0.00152
410	0.09038	0.00171
411.89	0.104	0.0019
413.86	0.1211	0.0022
415.85	0.1377	0.0021
417.82	0.1592	0.0023
419.78	0.1848	0.0025
421.73	0.2084	0.0027
423.71	0.2411	0.003

System: 9H-fluoren-9-ol; phases: Liquid, Gas
Property: Vapor or sublimation pressure, kPa (Liquid); method: Closed cell (Static) method
Temperature, K	Vapor or sublimation pressure, kPa	uncertainty
409.98	0.1186	0.0021
411.93	0.1331	0.0021
413.91	0.15	0.0022
415.88	0.1652	0.0023
417.86	0.1822	0.0025
419.81	0.2047	0.0027
421.79	0.2266	0.0029
423.75	0.2538	0.0031
425.74	0.2828	0.0034
427.7	0.3096	0.0036
427.7	0.3131	0.0036
429.67	0.3457	0.0039
431.58	0.3815	0.0042
431.6	0.3843	0.0042
433.57	0.4239	0.0046
435.51	0.4605	0.0049
435.52	0.4642	0.0049
437.51	0.5099	0.0053
439.47	0.5625	0.0058
441.42	0.615	0.0062

Reaction: -1 9(9H)-fluorenone + 13 carbon dioxide + 4 water + -14.5 oxygen
Property: Specific internal energy of reaction at constant volume, J/g
-34648

Reaction: -1 9H-fluoren-9-ol + 13 carbon dioxide + 5 water + -15 oxygen
Property: Specific internal energy of reaction at constant volume, J/g
-35525.7
