Measured thermophysical data. Measurement and Modeling of Vapor Liquid Equilibria for Systems Containing Alcohols, Water, and Imidazolium-Based Phosphate Ionic Liquids
Source: J. Chem. Eng. Data, 2013, 10.1021/je301374c
Compound 1: propan-1-ol, C3H8O, InChI=1S/C3H8O/c1-2-3-4/h4H,2-3H2,1H3, purity 99.7%
Compound 2: propan-2-ol, C3H8O, InChI=1S/C3H8O/c1-3(2)4/h3-4H,1-2H3, purity 99.7%
Compound 3: 1-ethyl-3-methylimidazolium diethyl phosphate, C10H21N2O4P, InChI=1S/C6H11N2.C4H11O4P/c1-3-8-5-4-7(2)6-8;1-3-7-9(5,6)8-4-2/h4-6H,3H2,1-2H3;3-4H2,1-2H3,(H,5,6)/q+1;/p-1
Compound 4: water, H2O, InChI=1S/H2O/h1H2, purity 99.9%

System: propan-1-ol + 1-ethyl-3-methylimidazolium diethyl phosphate; phases: Liquid, Gas
Property: Vapor or sublimation pressure, kPa (Liquid); method: Ebulliometric method (Recirculating still)
Temperature, K	Mole fraction of propan-1-ol	Vapor or sublimation pressure, kPa	uncertainty
329.801	0.9753	16.816	0.198
336.595	0.9753	23.562	0.275
342.574	0.9753	31.304	0.346
349.562	0.9753	42.864	0.448
355.785	0.9753	55.947	0.536
361.073	0.9753	69.841	0.646
366.307	0.9753	85.865	0.768
370.052	0.9753	99.252	0.869
331.478	0.9112	16.026	0.196
340.285	0.9112	24.634	0.342
343.511	0.9112	28.654	0.408
350.227	0.9112	38.741	0.488
354.846	0.9112	47.263	0.608
360.082	0.9112	58.776	0.588
365.21	0.9112	72.35	0.844
370.654	0.9112	89.339	1.013
340.106	0.8147	16.672	0.286
346.336	0.8147	22.295	0.311
350.972	0.8147	27.741	0.418
356.759	0.8147	35.872	0.515
363.702	0.8147	47.766	0.667
368.689	0.8147	58.393	0.801
372.833	0.8147	68.541	0.924
375.463	0.8147	75.849	0.844
343.789	0.6533	10.617	0.274
352.026	0.6533	15.613	0.331
357.817	0.6533	20.405	0.419
363.113	0.6533	26.44	0.522
369.033	0.6533	34.896	0.612
376.387	0.6533	47.38	0.765
382.889	0.6533	60.918	0.823
388.347	0.6533	74.662	0.907

System: propan-2-ol + 1-ethyl-3-methylimidazolium diethyl phosphate; phases: Liquid, Gas
Property: Vapor or sublimation pressure, kPa (Liquid); method: Ebulliometric method (Recirculating still)
Temperature, K	Mole fraction of propan-2-ol	Vapor or sublimation pressure, kPa	uncertainty
314.606	0.9753	14.708	0.169
319.962	0.9753	19.581	0.183
326.929	0.9753	27.916	0.273
334.302	0.9753	39.832	0.392
341.255	0.9753	54.712	0.495
347.802	0.9753	72.654	0.613
352.275	0.9753	87.726	0.727
355.902	0.9753	101.719	0.761
317.115	0.9122	15.115	0.178
325.307	0.9122	23.131	0.288
329.958	0.9122	29.112	0.343
334.912	0.9122	36.889	0.431
338.557	0.9122	43.857	0.485
342.086	0.9122	51.41	0.594
347.76	0.9122	65.477	0.72
354.761	0.9122	87.587	0.935
320.544	0.8147	12.963	0.228
325.525	0.8147	16.777	0.286
330.213	0.8147	21.223	0.319
336.997	0.8147	29.302	0.416
343.875	0.8147	40.156	0.566
348.28	0.8147	48.887	0.621
354.695	0.8147	64.437	0.869
359	0.8147	76.916	0.886
330.502	0.6533	10.947	0.282
335.188	0.6533	13.908	0.365
340.506	0.6533	17.995	0.481
345.853	0.6533	23.54	0.482
351.601	0.6533	30.979	0.725
356.576	0.6533	39.11	0.728
362.928	0.6533	51.418	0.859
369.831	0.6533	68.541	0.934

System: propan-1-ol + water + 1-ethyl-3-methylimidazolium diethyl phosphate; phases: Liquid, Gas
Property: Vapor or sublimation pressure, kPa (Liquid); method: Ebulliometric method (Recirculating still)
Temperature, K	Mole fraction of water	Mole fraction of propan-1-ol	Vapor or sublimation pressure, kPa	uncertainty
324.952	0.2506	0.6761	15.2	0.128
332.201	0.2506	0.6761	21.62	0.147
336.773	0.2506	0.6761	26.838	0.169
342.182	0.2506	0.6761	34.462	0.198
346.48	0.2506	0.6761	41.807	0.226
351.959	0.2506	0.6761	52.889	0.272
358.246	0.2506	0.6761	68.4	0.339
362.861	0.2506	0.6761	82.071	0.393
321.592	0.5565	0.3893	14.968	0.122
326.265	0.5565	0.3893	19.337	0.133
331.583	0.5565	0.3893	24.986	0.15
338.128	0.5565	0.3893	33.879	0.178
343.591	0.5565	0.3893	43.241	0.211
347.753	0.5565	0.3893	51.68	0.245
352.424	0.5565	0.3893	62.81	0.289
358.503	0.5565	0.3893	79.907	0.356
320.578	0.7363	0.2207	14.827	0.122
324.329	0.7363	0.2207	17.878	0.133
329.768	0.7363	0.2207	23.31	0.153
336.225	0.7363	0.2207	31.506	0.177
342.616	0.7363	0.2207	41.914	0.21
346.87	0.7363	0.2207	50.28	0.246
351.977	0.7363	0.2207	62.103	0.295
356.237	0.7363	0.2207	73.562	0.333
318.276	0.8545	0.1098	12.375	0.116
325.077	0.8545	0.1098	17.804	0.182
331.871	0.8545	0.1098	24.765	0.239
337.499	0.8545	0.1098	32.648	0.174
344.131	0.8545	0.1098	43.724	0.345
347.247	0.8545	0.1098	49.9	0.372
352.583	0.8545	0.1098	61.963	0.285
358.088	0.8545	0.1098	77.11	0.553
321.386	0.9383	0.0313	12.993	0.142
326.045	0.9383	0.0313	16.502	0.151
333.909	0.9383	0.0313	24.052	0.178
339.894	0.9383	0.0313	32.077	0.242
346.399	0.9383	0.0313	42.405	0.338
350.324	0.9383	0.0313	49.751	0.411
355.138	0.9383	0.0313	60.429	0.437
360.313	0.9383	0.0313	74.154	0.537

System: propan-2-ol + water + 1-ethyl-3-methylimidazolium diethyl phosphate; phases: Liquid, Gas
Property: Vapor or sublimation pressure, kPa (Liquid); method: Ebulliometric method (Recirculating still)
Temperature, K	Mole fraction of water	Mole fraction of propan-2-ol	Vapor or sublimation pressure, kPa	uncertainty
313.566	0.2506	0.6761	13.637	0.117
320.399	0.2506	0.6761	19.278	0.133
325.833	0.2506	0.6761	24.976	0.151
332.406	0.2506	0.6761	34.236	0.18
337.299	0.2506	0.6761	42.783	0.211
344.535	0.2506	0.6761	58.595	0.274
350.538	0.2506	0.6761	75.139	0.34
354.403	0.2506	0.6761	87.478	0.388
313.587	0.5565	0.3893	13.556	0.118
320.275	0.5565	0.3893	19.053	0.134
325.441	0.5565	0.3893	24.594	0.152
331.016	0.5565	0.3893	32.051	0.178
336.857	0.5565	0.3893	41.841	0.211
341.029	0.5565	0.3893	50.29	0.247
346.542	0.5565	0.3893	63.766	0.301
350.961	0.5565	0.3893	76.272	0.348
315.815	0.7363	0.2207	14.698	0.122
321.218	0.7363	0.2207	19.326	0.144
327.883	0.7363	0.2207	26.628	0.167
332.542	0.7363	0.2207	33.103	0.185
337.537	0.7363	0.2207	41.474	0.222
343.2	0.7363	0.2207	53.093	0.281
348.525	0.7363	0.2207	66.357	0.34
353.414	0.7363	0.2207	80.829	0.384
314.502	0.8545	0.1098	12.953	0.117
323.385	0.8545	0.1098	20.339	0.136
329.777	0.8545	0.1098	27.604	0.16
336.009	0.8545	0.1098	36.66	0.409
340.454	0.8545	0.1098	44.507	0.479
345.245	0.8545	0.1098	54.71	0.593
350.41	0.8545	0.1098	67.655	0.746
355.258	0.8545	0.1098	82.22	0.914
319.773	0.9383	0.0313	13.095	0.24
326.337	0.9383	0.0313	18.237	0.24
333.685	0.9383	0.0313	25.907	0.382
338.959	0.9383	0.0313	33.176	0.451
344.056	0.9383	0.0313	41.349	0.557
349.194	0.9383	0.0313	50.904	0.684
355.381	0.9383	0.0313	65.024	0.819
362.675	0.9383	0.0313	86.655	0.573
