Measured thermophysical data. Thermophysical Properties of the Pure Ionic Liquid 1-Butyl-1-methylpyrrolidinium Dicyanamide and Its Binary Mixtures with Alcohols
Source: J. Chem. Eng. Data, 2013, 10.1021/je300384g
Compound 1: 1-butyl-1-methylpyrrolidinium dicyanamide, C11H20N4, InChI=1S/C9H20N.C2N3/c1-3-4-7-10(2)8-5-6-9-10;3-1-5-2-4/h3-9H2,1-2H3;/q+1;-1, purity 98%
Compound 2: propan-1-ol, C3H8O, InChI=1S/C3H8O/c1-2-3-4/h4H,2-3H2,1H3, purity 99.9%
Compound 3: propan-2-ol, C3H8O, InChI=1S/C3H8O/c1-3(2)4/h3-4H,1-2H3, purity 99.8%
Compound 4: butan-1-ol, C4H10O, InChI=1S/C4H10O/c1-2-3-4-5/h5H,2-4H2,1H3, purity 99.9%

System: 1-butyl-1-methylpyrrolidinium dicyanamide; phases: Liquid
Fixed: Pressure, kPa = 101.325
Property: Mass density, kg/m3 (Liquid); method: Vibrating tube method
Temperature, K	Mass density, kg/m3	uncertainty
293.15	1016.31	2.15
298.15	1013.49	2.15
303.15	1010.69	2.15
308.15	1007.9	2.15
313.15	1005.12	2.14
318.15	1002.36	2.14
323.15	999.61	2.14
328.15	996.87	2.14
333.15	994.14	2.14
338.15	991.43	2.14
343.15	988.71	2.14
298.15	1013.44	2.15

System: 1-butyl-1-methylpyrrolidinium dicyanamide; phases: Liquid
Fixed: Pressure, kPa = 101.325
Property: Refractive index (Na D-line) (Liquid); method: Standard Abbe refractometry
Temperature, K	Refractive index (Na D-line)	uncertainty
293.15	1.49833	0.00051
298.15	1.49687	0.00051
303.15	1.49539	0.00051
308.15	1.49394	0.00051
313.15	1.49248	0.00051
318.15	1.49099	0.00051
323.15	1.4895	0.00051
328.15	1.48801	0.00051
333.15	1.48652	0.00051
338.15	1.48505	0.00051
343.15	1.4836	0.00051
298.15	1.49687	0.00051
298.15	1.49681	0.00058
328.15	1.48821	0.00058

System: 1-butyl-1-methylpyrrolidinium dicyanamide; phases: Liquid
Fixed: Pressure, kPa = 101.325
Property: Speed of sound, m/s (Liquid); method: Sing-around technique in a fixed-path interferometer
Temperature, K	Speed of sound, m/s	uncertainty
293.15	1823	3
298.15	1810	3
303.15	1797	3
308.15	1785	3
313.15	1772	3
318.15	1760	3
323.15	1748	3
328.15	1736	3
333.15	1724	3
338.15	1712	3
343.15	1700	3

System: 1-butyl-1-methylpyrrolidinium dicyanamide; phases: Liquid
Fixed: Pressure, kPa = 101.325
Property: Viscosity, Pa*s (Liquid); method: Capillary tube (Ostwald; Ubbelohde) method
Temperature, K	Viscosity, Pa*s	uncertainty
293.15	0.0413	0.00205
298.15	0.03458	0.00203
303.15	0.02927	0.00202
308.15	0.02508	0.00202
313.15	0.02167	0.00201
318.15	0.01886	0.00201
323.15	0.01659	0.00201
328.15	0.01451	0.00201
333.15	0.01292	0.002
338.15	0.01158	0.002
343.15	0.01045	0.002

System: 1-butyl-1-methylpyrrolidinium dicyanamide; phases: Liquid
Fixed: Pressure, kPa = 101.325
Property: Molar heat capacity at constant pressure, J/K/mol (Liquid); method: Small sample (50 mg) DSC
Temperature, K	Molar heat capacity at constant pressure, J/K/mol	uncertainty
293.15	490	8
294.15	492	8
295.15	495	8
296.15	497	8
297.15	500	8
298.15	502	8
299.15	504	8
300.15	506	8
301.15	508	8
302.15	510	8
303.15	512	8
304.15	514	8
305.15	515	8
306.15	517	8
307.15	519	8
308.15	521	8
309.15	522	8
310.15	524	8
311.15	525	8
312.15	526	8
313.15	528	8
314.15	529	8
315.15	530	8
316.15	532	8
317.15	533	8
318.15	534	8
319.15	536	8
320.15	537	8
321.15	538	8
322.15	539	8
323.15	541	8
324.15	542	8
325.15	543	8
326.15	544	8
327.15	546	8
328.15	547	8
329.15	548	9
330.15	549	9
331.15	551	9
332.15	552	9
333.15	554	9

System: 1-butyl-1-methylpyrrolidinium dicyanamide; phases: Liquid
Fixed: Pressure, kPa = 101
Property: Mass density, kg/m3 (Liquid); method: Vibrating tube method
Temperature, K	Mass density, kg/m3	uncertainty
313.15	1005.08	2.14
328.15	996.81	2.14

System: 1-butyl-1-methylpyrrolidinium dicyanamide; phases: Liquid
Property: Speed of sound, m/s (Liquid); method: Sing-around technique in a fixed-path interferometer
Temperature, K	Pressure, kPa	Speed of sound, m/s	uncertainty
313.15	101	1773	3

System: propan-1-ol; phases: Liquid
Property: Mass density, kg/m3 (Liquid); method: Vibrating tube method
Temperature, K	Pressure, kPa	Mass density, kg/m3	uncertainty
298.15	101.325	799.67	0.13

System: propan-1-ol; phases: Liquid
Property: Refractive index (Na D-line) (Liquid); method: Standard Abbe refractometry
Temperature, K	Pressure, kPa	Refractive index (Na D-line)	uncertainty
298.15	101.325	1.38309	0.00068

System: propan-1-ol; phases: Liquid
Fixed: Pressure, kPa = 101
Property: Mass density, kg/m3 (Liquid); method: Vibrating tube method
Temperature, K	Mass density, kg/m3	uncertainty
313.15	787.44	0.12
328.15	774.8	0.13

System: propan-1-ol; phases: Liquid
Fixed: Pressure, kPa = 101
Property: Speed of sound, m/s (Liquid); method: Sing-around technique in a fixed-path interferometer
Temperature, K	Speed of sound, m/s	uncertainty
298.15	1206	2
313.15	1155	2
328.15	1105	2

System: propan-1-ol; phases: Liquid
Fixed: Pressure, kPa = 101.325
Property: Refractive index (Na D-line) (Liquid); method: Standard Abbe refractometry
Temperature, K	Refractive index (Na D-line)	uncertainty
313.15	1.37698	0.00052
328.15	1.37055	0.00053

System: propan-2-ol; phases: Liquid
Property: Mass density, kg/m3 (Liquid); method: Vibrating tube method
Temperature, K	Pressure, kPa	Mass density, kg/m3	uncertainty
298.15	101.325	781.6	0.13

System: propan-2-ol; phases: Liquid
Property: Refractive index (Na D-line) (Liquid); method: Standard Abbe refractometry
Temperature, K	Pressure, kPa	Refractive index (Na D-line)	uncertainty
298.15	101.325	1.37507	0.00068

System: propan-2-ol; phases: Liquid
Fixed: Pressure, kPa = 101
Property: Mass density, kg/m3 (Liquid); method: Vibrating tube method
Temperature, K	Mass density, kg/m3	uncertainty
313.15	768.51	0.14
328.15	754.55	0.14

System: propan-2-ol; phases: Liquid
Fixed: Pressure, kPa = 101
Property: Speed of sound, m/s (Liquid); method: Sing-around technique in a fixed-path interferometer
Temperature, K	Speed of sound, m/s	uncertainty
298.15	1141	2
313.15	1088	2
328.15	1034	2

System: propan-2-ol; phases: Liquid
Fixed: Pressure, kPa = 101.325
Property: Refractive index (Na D-line) (Liquid); method: Standard Abbe refractometry
Temperature, K	Refractive index (Na D-line)	uncertainty
313.15	1.36846	0.00055
328.15	1.36145	0.00056

System: butan-1-ol; phases: Liquid
Property: Mass density, kg/m3 (Liquid); method: Vibrating tube method
Temperature, K	Pressure, kPa	Mass density, kg/m3	uncertainty
298.15	101.325	805.71	0.12

System: butan-1-ol; phases: Liquid
Property: Refractive index (Na D-line) (Liquid); method: Standard Abbe refractometry
Temperature, K	Pressure, kPa	Refractive index (Na D-line)	uncertainty
298.15	101.325	1.39734	0.00068

System: butan-1-ol; phases: Liquid
Fixed: Pressure, kPa = 101
Property: Mass density, kg/m3 (Liquid); method: Vibrating tube method
Temperature, K	Mass density, kg/m3	uncertainty
313.15	794.12	0.12
328.15	782.11	0.13

System: butan-1-ol; phases: Liquid
Fixed: Pressure, kPa = 101
Property: Speed of sound, m/s (Liquid); method: Sing-around technique in a fixed-path interferometer
Temperature, K	Speed of sound, m/s	uncertainty
298.15	1240	2
313.15	1190	2
328.15	1140	2

System: butan-1-ol; phases: Liquid
Fixed: Pressure, kPa = 101.325
Property: Refractive index (Na D-line) (Liquid); method: Standard Abbe refractometry
Temperature, K	Refractive index (Na D-line)	uncertainty
313.15	1.39115	0.00052
328.15	1.38481	0.00052

System: propan-1-ol + 1-butyl-1-methylpyrrolidinium dicyanamide; phases: Liquid
Fixed: Pressure, kPa = 101
Property: Mass density, kg/m3 (Liquid); method: Vibrating tube method
Temperature, K	Mole fraction of propan-1-ol	Mass density, kg/m3	uncertainty
298.15	0	1013.44	1.12
298.15	0.0669	1008.91	0.97
298.15	0.1894	999.51	0.74
298.15	0.2912	989.88	0.57
298.15	0.3998	977.54	0.43
298.15	0.514	961.37	0.31
298.15	0.597	946.64	0.24
298.15	0.6944	925.26	0.19
298.15	0.8002	895.03	0.16
298.15	0.894	858.67	0.16
298.15	0.9437	834.31	0.17
298.15	1	799.67	0.15
313.15	0	1005.08	1.09
313.15	0.0669	1000.51	0.95
313.15	0.1894	990.94	0.73
313.15	0.2912	981.2	0.57
313.15	0.3998	968.67	0.43
313.15	0.514	952.2	0.31
313.15	0.597	937.26	0.24
313.15	0.6944	915.48	0.19
313.15	0.8002	884.73	0.16
313.15	0.894	847.66	0.16
313.15	0.9437	822.86	0.18
313.15	1	787.44	0.15
328.15	0	996.81	1.08
328.15	0.0669	992.19	0.94
328.15	0.1894	982.47	0.72
328.15	0.2912	972.59	0.56
328.15	0.3998	959.87	0.43
328.15	0.514	943.13	0.31
328.15	0.597	927.94	0.25
328.15	0.6944	905.75	0.2
328.15	0.8002	874.4	0.17
328.15	0.894	836.55	0.17
328.15	0.9437	811.17	0.19
328.15	1	774.8	0.16

System: propan-1-ol + 1-butyl-1-methylpyrrolidinium dicyanamide; phases: Liquid
Fixed: Pressure, kPa = 101
Property: Speed of sound, m/s (Liquid); method: Sing-around technique in a fixed-path interferometer
Temperature, K	Mole fraction of propan-1-ol	Speed of sound, m/s	uncertainty
298.15	0	1810	3
298.15	0.0669	1796	3
298.15	0.1894	1766	3
298.15	0.2912	1734	3
298.15	0.3998	1693	3
298.15	0.514	1639	2
298.15	0.597	1590	2
298.15	0.6944	1523	2
298.15	0.8002	1434	2
298.15	0.894	1339	2
298.15	0.9437	1281	2
298.15	1	1206	2
313.15	0	1773	3
313.15	0.0669	1758	3
313.15	0.1894	1728	3
313.15	0.2912	1695	3
313.15	0.3998	1653	3
313.15	0.514	1598	2
313.15	0.597	1549	2
313.15	0.6944	1480	2
313.15	0.8002	1390	2
313.15	0.894	1292	2
313.15	0.9437	1233	2
313.15	1	1155	2
328.15	0	1736	3
328.15	0.0669	1722	3
328.15	0.1894	1690	3
328.15	0.2912	1657	3
328.15	0.3998	1615	3
328.15	0.514	1559	2
328.15	0.597	1509	2
328.15	0.6944	1439	2
328.15	0.8002	1346	2
328.15	0.894	1247	2
328.15	0.9437	1186	2
328.15	1	1105	2

System: propan-1-ol + 1-butyl-1-methylpyrrolidinium dicyanamide; phases: Liquid
Fixed: Pressure, kPa = 101
Property: Refractive index (Na D-line) (Liquid); method: Standard Abbe refractometry
Temperature, K	Mole fraction of propan-1-ol	Refractive index (Na D-line)	uncertainty
298.15	0	1.49681	0.00058
298.15	0.0669	1.49446	0.00056
298.15	0.1894	1.48947	0.00053
298.15	0.2912	1.48457	0.00051
298.15	0.3998	1.47813	0.00048
298.15	0.514	1.46962	0.00046
298.15	0.597	1.46189	0.00045
298.15	0.6944	1.45057	0.00042
298.15	0.8002	1.43439	0.00039
298.15	0.894	1.41492	0.00042
298.15	0.9437	1.40174	0.00042
298.15	1	1.38309	0.00051
313.15	0	1.49248	0.00058
313.15	0.0669	1.49003	0.00057
313.15	0.1894	1.48499	0.00054
313.15	0.2912	1.48002	0.00052
313.15	0.3998	1.47348	0.0005
313.15	0.514	1.46485	0.00049
313.15	0.597	1.457	0.00048
313.15	0.6944	1.44557	0.00047
313.15	0.8002	1.42936	0.00047
313.15	0.894	1.40968	0.00048
313.15	0.9437	1.39657	0.00048
313.15	1	1.37698	0.00052
328.15	0	1.48821	0.00058
328.15	0.0669	1.48535	0.00057
328.15	0.1894	1.48071	0.00055
328.15	0.2912	1.47547	0.00053
328.15	0.3998	1.4689	0.00053
328.15	0.514	1.46017	0.00051
328.15	0.597	1.45239	0.0005
328.15	0.6944	1.44087	0.00052
328.15	0.8002	1.42432	0.00056
328.15	0.894	1.40433	0.00054
328.15	0.9437	1.39109	0.00058
328.15	1	1.37055	0.00053

System: propan-2-ol + 1-butyl-1-methylpyrrolidinium dicyanamide; phases: Liquid
Fixed: Pressure, kPa = 101
Property: Mass density, kg/m3 (Liquid); method: Vibrating tube method
Temperature, K	Mole fraction of propan-2-ol	Mass density, kg/m3	uncertainty
298.15	0	1013.44	1.12
298.15	0.0466	1009.79	1.02
298.15	0.0896	1006.48	0.93
298.15	0.1849	998.07	0.76
298.15	0.2967	986.58	0.59
298.15	0.4039	973.01	0.45
298.15	0.5056	957.29	0.34
298.15	0.6018	938.71	0.26
298.15	0.6997	914.91	0.21
298.15	0.8066	880.81	0.18
298.15	0.892	845.27	0.17
298.15	0.9461	816.97	0.19
298.15	1	781.6	0.16
313.15	0	1005.08	1.09
313.15	0.0466	1001.39	1
313.15	0.0896	998.03	0.92
313.15	0.1849	989.52	0.75
313.15	0.2967	977.87	0.58
313.15	0.4039	964.14	0.45
313.15	0.5056	948.21	0.34
313.15	0.6018	929.31	0.27
313.15	0.6997	905.08	0.21
313.15	0.8066	870.32	0.18
313.15	0.892	834.02	0.18
313.15	0.9461	805.04	0.2
313.15	1	768.51	0.17
328.15	0	996.81	1.08
328.15	0.0466	993.1	0.98
328.15	0.0896	989.71	0.91
328.15	0.1849	981.08	0.74
328.15	0.2967	969.27	0.58
328.15	0.4039	955.35	0.44
328.15	0.5056	939.15	0.34
328.15	0.6018	919.94	0.27
328.15	0.6997	895.24	0.22
328.15	0.8066	859.73	0.19
328.15	0.892	822.5	0.19
328.15	0.9461	792.61	0.21
328.15	1	754.55	0.18

System: propan-2-ol + 1-butyl-1-methylpyrrolidinium dicyanamide; phases: Liquid
Fixed: Pressure, kPa = 101
Property: Speed of sound, m/s (Liquid); method: Sing-around technique in a fixed-path interferometer
Temperature, K	Mole fraction of propan-2-ol	Speed of sound, m/s	uncertainty
298.15	0	1810	3
298.15	0.0466	1799	3
298.15	0.0896	1789	3
298.15	0.1849	1761	3
298.15	0.2967	1723	3
298.15	0.4039	1676	3
298.15	0.5056	1622	2
298.15	0.6018	1559	2
298.15	0.6997	1483	2
298.15	0.8066	1382	2
298.15	0.892	1287	2
298.15	0.9461	1219	2
298.15	1	1141	2
313.15	0	1773	3
313.15	0.0466	1761	3
313.15	0.0896	1750	3
313.15	0.1849	1723	3
313.15	0.2967	1684	3
313.15	0.4039	1637	3
313.15	0.5056	1582	2
313.15	0.6018	1518	2
313.15	0.6997	1440	2
313.15	0.8066	1337	2
313.15	0.892	1240	2
313.15	0.9461	1170	2
313.15	1	1088	2
328.15	0	1736	3
328.15	0.0466	1724	3
328.15	0.0896	1713	3
328.15	0.1849	1685	3
328.15	0.2967	1646	3
328.15	0.4039	1598	3
328.15	0.5056	1543	2
328.15	0.6018	1478	2
328.15	0.6997	1398	2
328.15	0.8066	1293	2
328.15	0.892	1193	2
328.15	0.9461	1120	2
328.15	1	1034	2

System: propan-2-ol + 1-butyl-1-methylpyrrolidinium dicyanamide; phases: Liquid
Fixed: Pressure, kPa = 101
Property: Refractive index (Na D-line) (Liquid); method: Standard Abbe refractometry
Temperature, K	Mole fraction of propan-2-ol	Refractive index (Na D-line)	uncertainty
298.15	0	1.49681	0.00058
298.15	0.0466	1.49494	0.00057
298.15	0.0896	1.49327	0.00056
298.15	0.1849	1.48899	0.00054
298.15	0.2967	1.48321	0.0005
298.15	0.4039	1.47614	0.00049
298.15	0.5056	1.46842	0.00046
298.15	0.6018	1.45947	0.00043
298.15	0.6997	1.44786	0.00041
298.15	0.8066	1.43078	0.0004
298.15	0.892	1.41191	0.00041
298.15	0.9461	1.39615	0.0004
298.15	1	1.37507	0.00054
313.15	0	1.49248	0.00058
313.15	0.0466	1.49057	0.00057
313.15	0.0896	1.48892	0.00056
313.15	0.1849	1.48451	0.00054
313.15	0.2967	1.47867	0.00053
313.15	0.4039	1.4716	0.0005
313.15	0.5056	1.46382	0.00049
313.15	0.6018	1.45505	0.00048
313.15	0.6997	1.44323	0.00047
313.15	0.8066	1.42556	0.00048
313.15	0.892	1.40663	0.00049
313.15	0.9461	1.39076	0.0005
313.15	1	1.36846	0.00055
328.15	0	1.48821	0.00058
328.15	0.0466	1.48622	0.00057
328.15	0.0896	1.48449	0.00057
328.15	0.1849	1.48012	0.00055
328.15	0.2967	1.47391	0.00054
328.15	0.4039	1.46727	0.00052
328.15	0.5056	1.45892	0.00052
328.15	0.6018	1.45002	0.00054
328.15	0.6997	1.43809	0.00056
328.15	0.8066	1.42034	0.00058
328.15	0.892	1.40098	0.00059
328.15	0.9461	1.38454	0.00065
328.15	1	1.36145	0.00056

System: butan-1-ol + 1-butyl-1-methylpyrrolidinium dicyanamide; phases: Liquid
Fixed: Pressure, kPa = 101
Property: Mass density, kg/m3 (Liquid); method: Vibrating tube method
Temperature, K	Mole fraction of butan-1-ol	Mass density, kg/m3	uncertainty
298.15	0	1013.44	1.12
298.15	0.0464	1009.74	1.01
298.15	0.0945	1005.78	0.91
298.15	0.1898	996.95	0.73
298.15	0.299	985.02	0.56
298.15	0.4012	971.68	0.43
298.15	0.4989	956.51	0.32
298.15	0.5996	937.73	0.24
298.15	0.6947	916.35	0.19
298.15	0.7995	886.99	0.16
298.15	0.8965	853.09	0.15
298.15	0.9464	832.26	0.16
298.15	1	805.71	0.14
313.15	0	1005.08	1.09
313.15	0.0464	1001.33	0.99
313.15	0.0945	997.32	0.9
313.15	0.1898	988.39	0.73
313.15	0.299	976.31	0.56
313.15	0.4012	962.8	0.42
313.15	0.4989	947.43	0.32
313.15	0.5996	928.48	0.24
313.15	0.6947	906.78	0.19
313.15	0.7995	876.87	0.16
313.15	0.8965	842.42	0.16
313.15	0.9464	821.2	0.17
313.15	1	794.12	0.15
328.15	0	996.81	1.08
328.15	0.0464	993.03	0.98
328.15	0.0945	988.98	0.89
328.15	0.1898	979.92	0.72
328.15	0.299	967.69	0.55
328.15	0.4012	954.02	0.42
328.15	0.4989	938.44	0.32
328.15	0.5996	919.23	0.25
328.15	0.6947	897.17	0.2
328.15	0.7995	866.72	0.17
328.15	0.8965	831.6	0.16
328.15	0.9464	809.94	0.18
328.15	1	782.11	0.16

System: butan-1-ol + 1-butyl-1-methylpyrrolidinium dicyanamide; phases: Liquid
Fixed: Pressure, kPa = 101
Property: Speed of sound, m/s (Liquid); method: Sing-around technique in a fixed-path interferometer
Temperature, K	Mole fraction of butan-1-ol	Speed of sound, m/s	uncertainty
298.15	0	1810	3
298.15	0.0464	1799	3
298.15	0.0945	1787	3
298.15	0.1898	1759	3
298.15	0.299	1720	3
298.15	0.4012	1674	3
298.15	0.4989	1624	2
298.15	0.5996	1564	2
298.15	0.6947	1500	2
298.15	0.7995	1420	2
298.15	0.8965	1339	2
298.15	0.9464	1295	2
298.15	1	1240	2
313.15	0	1773	3
313.15	0.0464	1761	3
313.15	0.0945	1749	3
313.15	0.1898	1720	3
313.15	0.299	1680	3
313.15	0.4012	1635	3
313.15	0.4989	1583	2
313.15	0.5996	1522	2
313.15	0.6947	1457	2
313.15	0.7995	1376	2
313.15	0.8965	1293	2
313.15	0.9464	1246	2
313.15	1	1190	2
328.15	0	1736	3
328.15	0.0464	1724	3
328.15	0.0945	1712	3
328.15	0.1898	1682	3
328.15	0.299	1642	3
328.15	0.4012	1596	3
328.15	0.4989	1544	2
328.15	0.5996	1482	2
328.15	0.6947	1416	2
328.15	0.7995	1333	2
328.15	0.8965	1247	2
328.15	0.9464	1199	2
328.15	1	1140	2

System: butan-1-ol + 1-butyl-1-methylpyrrolidinium dicyanamide; phases: Liquid
Fixed: Pressure, kPa = 101
Property: Refractive index (Na D-line) (Liquid); method: Standard Abbe refractometry
Temperature, K	Mole fraction of butan-1-ol	Refractive index (Na D-line)	uncertainty
298.15	0	1.49681	0.00058
298.15	0.0464	1.49508	0.00057
298.15	0.0945	1.49327	0.00056
298.15	0.1898	1.48922	0.00053
298.15	0.299	1.48332	0.00052
298.15	0.4012	1.47745	0.00049
298.15	0.4989	1.47048	0.00047
298.15	0.5996	1.46149	0.00046
298.15	0.6947	1.4514	0.00044
298.15	0.7995	1.43728	0.00043
298.15	0.8965	1.42111	0.00044
298.15	0.9464	1.41049	0.00047
298.15	1	1.39734	0.00052
313.15	0	1.49248	0.00058
313.15	0.0464	1.49066	0.00058
313.15	0.0945	1.48888	0.00056
313.15	0.1898	1.48478	0.00054
313.15	0.299	1.47876	0.00052
313.15	0.4012	1.4728	0.0005
313.15	0.4989	1.46568	0.00049
313.15	0.5996	1.4566	0.00048
313.15	0.6947	1.44628	0.00048
313.15	0.7995	1.43205	0.00048
313.15	0.8965	1.41557	0.00049
313.15	0.9464	1.40464	0.0005
313.15	1	1.39115	0.00052
328.15	0	1.48821	0.00058
328.15	0.0464	1.48612	0.00057
328.15	0.0945	1.48426	0.00057
328.15	0.1898	1.48014	0.00056
328.15	0.299	1.47416	0.00053
328.15	0.4012	1.46814	0.00052
328.15	0.4989	1.46117	0.00051
328.15	0.5996	1.45174	0.00051
328.15	0.6947	1.44129	0.00052
328.15	0.7995	1.42668	0.00055
328.15	0.8965	1.40973	0.00055
328.15	0.9464	1.39877	0.00054
328.15	1	1.38481	0.00052
