Measured thermophysical data. Isobaric Vapor Liquid Equilibria for Binary Systems Comprising 1-Chloro-2-ethylhexane, 2-Ethyl-1-hexanol, p-Xylene, and N-Methylpyrrolidone (NMP) at 40.0 kPa
Source: J. Chem. Eng. Data, 2013, 10.1021/je300848z
Compound 1: 1-chloro-2-ethylhexane, C8H17Cl, InChI=1S/C8H17Cl/c1-3-5-6-8(4-2)7-9/h8H,3-7H2,1-2H3, purity 99.3%
Compound 2: 2-ethyl-1-hexanol, C8H18O, InChI=1S/C8H18O/c1-3-5-6-8(4-2)7-9/h8-9H,3-7H2,1-2H3, purity 99.7%
Compound 3: 1,4-dimethylbenzene, C8H10, InChI=1S/C8H10/c1-7-3-5-8(2)6-4-7/h3-6H,1-2H3, purity 99.5%
Compound 4: N-methylpyrrolidone, C5H9NO, InChI=1S/C5H9NO/c1-6-4-2-3-5(6)7/h2-4H2,1H3, purity 99.5%

System: 1-chloro-2-ethylhexane; phases: Liquid, Gas
Property: Normal boiling temperature, K (Liquid); method: Equilibrium Still
Normal boiling temperature, K	uncertainty
445.4	0.2

System: 1-chloro-2-ethylhexane; phases: Gas
Property: Mass density, kg/m3 (Gas); method: Buoyancy - hydrostatic balance with magnetic suspension - one sinker
Temperature, K	Pressure, kPa	Mass density, kg/m3	uncertainty
298.15	101.325	877.05	0.43

System: 1-chloro-2-ethylhexane; phases: Liquid, Gas
Property: Vapor or sublimation pressure, kPa (Liquid); method: Ebulliometric method (Recirculating still)
Temperature, K	Vapor or sublimation pressure, kPa	uncertainty
371.05	9.9	0.2
375.35	11.7	0.2
385.85	17.1	0.2
394.25	22.8	0.2
399.5	27.1	0.2
403.5	30.8	0.2
405.85	33.2	0.2
411.9	39.9	0.2
412.05	40	0.2
419.05	49.4	0.3
425.2	59	0.3
431.15	69.6	0.3
436.65	80.7	0.3
441.45	91.6	0.3
445.4	101.3	0.3

System: 2-ethyl-1-hexanol; phases: Liquid, Gas
Property: Vapor or sublimation pressure, kPa (Liquid); method: Ebulliometric method (Recirculating still)
Temperature, K	Vapor or sublimation pressure, kPa	uncertainty
427.2	40	0.34

System: 1,4-dimethylbenzene; phases: Liquid, Gas
Property: Vapor or sublimation pressure, kPa (Liquid); method: Ebulliometric method (Recirculating still)
Temperature, K	Vapor or sublimation pressure, kPa	uncertainty
379.85	40	0.34

System: N-methylpyrrolidone; phases: Liquid, Gas
Property: Vapor or sublimation pressure, kPa (Liquid); method: Ebulliometric method (Recirculating still)
Temperature, K	Vapor or sublimation pressure, kPa	uncertainty
441.8	40	0.34

System: 1,4-dimethylbenzene + 1-chloro-2-ethylhexane; phases: Liquid, Gas
Fixed: Pressure, kPa = 40
Property: Boiling temperature at pressure P, K (Liquid); method: Ebulliometric method (Recirculating still)
Mole fraction of 1,4-dimethylbenzene	Boiling temperature at pressure P, K	uncertainty
0	412.05	0.17
0.053	410.05	0.4
0.104	408.3	0.4
0.172	405.7	0.42
0.24	403	0.39
0.364	398.8	0.38
0.483	394.75	0.37
0.569	391.95	0.36
0.667	388.95	0.34
0.748	386.6	0.34
0.841	383.8	0.34
0.9	382.15	0.3
0.948	381.15	0.29
1	379.85	0.17

System: 1,4-dimethylbenzene + 1-chloro-2-ethylhexane; phases: Gas, Liquid
Fixed: Pressure, kPa = 40
Property: Mole fraction of 1,4-dimethylbenzene (Gas); method: Chromatography
Mole fraction of 1,4-dimethylbenzene	Mole fraction of 1,4-dimethylbenzene	uncertainty
0	0	
0.053	0.111	0.023
0.104	0.21	0.021
0.172	0.332	0.02
0.24	0.438	0.017
0.364	0.592	0.016
0.483	0.712	0.014
0.569	0.789	0.013
0.667	0.855	0.012
0.748	0.9	0.011
0.841	0.943	0.011
0.9	0.966	0.011
0.948	0.984	0.011
1	1	

System: 2-ethyl-1-hexanol + 1,4-dimethylbenzene; phases: Liquid, Gas
Fixed: Pressure, kPa = 40
Property: Boiling temperature at pressure P, K (Liquid); method: Ebulliometric method (Recirculating still)
Mole fraction of 1,4-dimethylbenzene	Boiling temperature at pressure P, K	uncertainty
0	427.2	0.17
0.025	423.95	1.15
0.086	417.35	1.01
0.152	411.3	0.85
0.215	406.6	0.7
0.299	401.3	0.59
0.381	397.15	0.49
0.465	393.7	0.4
0.583	389.8	0.36
0.667	387.35	0.31
0.76	385.1	0.28
0.886	382.4	0.27
0.946	381.05	0.28
1	379.85	0.17

System: 2-ethyl-1-hexanol + 1,4-dimethylbenzene; phases: Gas, Liquid
Fixed: Pressure, kPa = 40
Property: Mole fraction of 1,4-dimethylbenzene (Gas); method: Chromatography
Mole fraction of 1,4-dimethylbenzene	Mole fraction of 1,4-dimethylbenzene	uncertainty
0	0	
0.025	0.117	0.04
0.086	0.341	0.032
0.152	0.505	0.024
0.215	0.617	0.018
0.299	0.715	0.014
0.381	0.783	0.012
0.465	0.832	0.011
0.583	0.882	0.011
0.667	0.912	0.011
0.76	0.936	0.01
0.886	0.968	0.01
0.946	0.985	0.01
1	1	

System: 1-chloro-2-ethylhexane + N-methylpyrrolidone; phases: Liquid, Gas
Fixed: Pressure, kPa = 40
Property: Boiling temperature at pressure P, K (Liquid); method: Ebulliometric method (Recirculating still)
Mole fraction of 1-chloro-2-ethylhexane	Boiling temperature at pressure P, K	uncertainty
0	441.8	0.17
0.016	439.6	1.32
0.029	438	1.1
0.061	434.65	0.97
0.095	431.7	0.75
0.151	428	0.56
0.245	423.55	0.43
0.352	420.1	0.31
0.465	417.75	0.26
0.532	416.55	0.23
0.651	414.85	0.21
0.808	413.25	0.2
0.898	412.45	0.18
1	412.05	0.17

System: 1-chloro-2-ethylhexane + N-methylpyrrolidone; phases: Gas, Liquid
Fixed: Pressure, kPa = 40
Property: Mole fraction of 1-chloro-2-ethylhexane (Gas); method: Chromatography
Mole fraction of 1-chloro-2-ethylhexane	Mole fraction of 1-chloro-2-ethylhexane	uncertainty
0	0	
0.016	0.073	0.044
0.029	0.123	0.036
0.061	0.229	0.031
0.095	0.313	0.023
0.151	0.415	0.018
0.245	0.53	0.015
0.352	0.617	0.013
0.465	0.676	0.012
0.532	0.711	0.012
0.651	0.774	0.012
0.808	0.856	0.012
0.898	0.919	0.013
1	1	

System: 2-ethyl-1-hexanol + N-methylpyrrolidone; phases: Liquid, Gas
Fixed: Pressure, kPa = 40
Property: Boiling temperature at pressure P, K (Liquid); method: Ebulliometric method (Recirculating still)
Mole fraction of 2-ethyl-1-hexanol	Boiling temperature at pressure P, K	uncertainty
0	441.8	0.17
0.073	441.6	0.17
0.123	441.4	0.17
0.198	441.05	0.18
0.285	440.35	0.19
0.362	439.7	0.19
0.417	439.1	0.21
0.482	438.25	0.23
0.566	436.75	0.26
0.621	435.55	0.27
0.743	432.9	0.28
0.828	430.85	0.29
0.888	429.55	0.27
1	427.2	0.17

System: 2-ethyl-1-hexanol + N-methylpyrrolidone; phases: Gas, Liquid
Fixed: Pressure, kPa = 40
Property: Mole fraction of 2-ethyl-1-hexanol (Gas); method: Chromatography
Mole fraction of 2-ethyl-1-hexanol	Mole fraction of 2-ethyl-1-hexanol	uncertainty
0	0	
0.073	0.084	0.015
0.123	0.141	0.015
0.198	0.225	0.015
0.285	0.327	0.016
0.362	0.42	0.016
0.417	0.492	0.017
0.482	0.571	0.016
0.566	0.668	0.016
0.621	0.735	0.015
0.743	0.853	0.013
0.828	0.915	0.012
0.888	0.954	0.011
1	1	

System: 2-ethyl-1-hexanol + 1-chloro-2-ethylhexane; phases: Liquid, Gas
Fixed: Pressure, kPa = 40
Property: Boiling temperature at pressure P, K (Liquid); method: Ebulliometric method (Recirculating still)
Mole fraction of 1-chloro-2-ethylhexane	Boiling temperature at pressure P, K	uncertainty
0	427.2	0.17
0.071	424.5	0.38
0.141	422.35	0.33
0.197	420.95	0.3
0.278	418.95	0.27
0.358	417.5	0.24
0.449	416	0.22
0.553	414.6	0.21
0.613	413.95	0.19
0.68	413.35	0.18
0.808	412.55	0.18
0.87	412.25	0.17
0.902	412.15	0.17
0.931	412.05	0.17
0.955	412	0.17
0.967	411.95	0.17
0.977	411.95	0.17
0.987	412	0.17
1	412.05	0.17

System: 2-ethyl-1-hexanol + 1-chloro-2-ethylhexane; phases: Gas, Liquid
Fixed: Pressure, kPa = 40
Property: Mole fraction of 1-chloro-2-ethylhexane (Gas); method: Chromatography
Mole fraction of 1-chloro-2-ethylhexane	Mole fraction of 1-chloro-2-ethylhexane	uncertainty
0	0	
0.071	0.149	0.021
0.141	0.262	0.018
0.197	0.335	0.016
0.278	0.422	0.015
0.358	0.502	0.015
0.449	0.587	0.014
0.553	0.667	0.013
0.613	0.703	0.012
0.68	0.752	0.012
0.808	0.839	0.012
0.87	0.884	0.012
0.902	0.908	0.013
0.931	0.934	0.013
0.955	0.955	0.014
0.967	0.967	0.014
0.977	0.977	0.014
0.987	0.987	0.013
1	1	
