Measured thermophysical data. Determination and Correlation of Pyridazin-3-amine Solubility in Eight Organic Solvents at Temperatures Ranging from (288.05 to 333.35) K
Source: J. Chem. Eng. Data, 2012, 10.1021/je300517q
Compound 1: 3-pyridazinamine, C4H5N3, InChI=1S/C4H5N3/c5-4-2-1-3-6-7-4/h1-3H,(H2,5,7), purity 98%
Compound 2: methanol, CH4O, InChI=1S/CH4O/c1-2/h2H,1H3, purity 99.5%
Compound 3: ethanol, C2H6O, InChI=1S/C2H6O/c1-2-3/h3H,2H2,1H3, purity 99.5%
Compound 4: propan-1-ol, C3H8O, InChI=1S/C3H8O/c1-2-3-4/h4H,2-3H2,1H3, purity 99.5%
Compound 5: propan-2-ol, C3H8O, InChI=1S/C3H8O/c1-3(2)4/h3-4H,1-2H3, purity 99.5%
Compound 6: butan-1-ol, C4H10O, InChI=1S/C4H10O/c1-2-3-4-5/h5H,2-4H2,1H3, purity 99.5%
Compound 7: acetone, C3H6O, InChI=1S/C3H6O/c1-3(2)4/h1-2H3, purity 99.5%
Compound 8: ethyl acetate, C4H8O2, InChI=1S/C4H8O2/c1-3-6-4(2)5/h3H2,1-2H3, purity 99.5%
Compound 9: aniline, C6H7N, InChI=1S/C6H7N/c7-6-4-2-1-3-5-6/h1-5H,7H2, purity 99.5%

System: 3-pyridazinamine; phases: Crystal, Liquid, Air at 1 atmosphere
Property: Molar enthalpy of transition or fusion, kJ/mol (Crystal); method: DSC
Molar enthalpy of transition or fusion, kJ/mol	uncertainty
2.6309	0.1676

System: 3-pyridazinamine; phases: Crystal, Liquid, Air at 1 atmosphere
Property: Normal melting temperature, K (Crystal); method: DTA
Normal melting temperature, K	uncertainty
442.62	0.39

System: methanol + 3-pyridazinamine; phases: Liquid, Crystal
Fixed: Pressure, kPa = 101.3
Property: Mole fraction of 3-pyridazinamine (Liquid); method: Laser Beam
Temperature, K	Mole fraction of 3-pyridazinamine	uncertainty
288.15	0.0356431	0.0007501
293.05	0.0398103	0.0008381
298.15	0.0454765	0.000958
303.25	0.0519694	0.001096
308.15	0.0595784	0.001257
313.15	0.0675098	0.001425
318.25	0.0759845	0.001606
323.55	0.0865012	0.00183
328.15	0.0980559	0.002078

System: ethanol + 3-pyridazinamine; phases: Liquid, Crystal
Fixed: Pressure, kPa = 101.3
Property: Mole fraction of 3-pyridazinamine (Liquid); method: Laser Beam
Temperature, K	Mole fraction of 3-pyridazinamine	uncertainty
288.35	0.0192916	0.0003954
294.05	0.0212959	0.0004365
298.75	0.0236516	0.0004849
303.15	0.026607	0.0005456
308.25	0.0306218	0.0006281
313.35	0.0348834	0.0007157
318.35	0.0409348	0.0008403
323.35	0.0492203	0.001011
328.35	0.0602348	0.001238
333.15	0.0713051	0.001466

System: propan-1-ol + 3-pyridazinamine; phases: Liquid, Crystal
Fixed: Pressure, kPa = 101.3
Property: Mole fraction of 3-pyridazinamine (Liquid); method: Laser Beam
Temperature, K	Mole fraction of 3-pyridazinamine	uncertainty
288.45	0.0160961	0.0003267
293.05	0.0185304	0.0003762
298.35	0.0220049	0.0004468
302.85	0.0254931	0.0005176
308.15	0.0293005	0.000595
313.05	0.0350832	0.0007125
318.35	0.0401156	0.0008148
322.95	0.0461443	0.0009374
327.95	0.0518704	0.001054
333.15	0.0601837	0.001223

System: propan-2-ol + 3-pyridazinamine; phases: Liquid, Crystal
Fixed: Pressure, kPa = 101.3
Property: Mole fraction of 3-pyridazinamine (Liquid); method: Laser Beam
Temperature, K	Mole fraction of 3-pyridazinamine	uncertainty
288.15	0.0121843	0.0002474
298.15	0.0171969	0.0003491
303.55	0.0202571	0.0004112
308.45	0.0233179	0.0004735
312.85	0.0276868	0.0005622
317.75	0.0315414	0.0006405
323.25	0.0372655	0.0007568
328.05	0.0412404	0.0008376
332.95	0.0464829	0.0009442

System: butan-1-ol + 3-pyridazinamine; phases: Liquid, Crystal
Fixed: Pressure, kPa = 101.3
Property: Mole fraction of 3-pyridazinamine (Liquid); method: Laser Beam
Temperature, K	Mole fraction of 3-pyridazinamine	uncertainty
289.35	0.0105317	0.0002129
293.35	0.0125991	0.0002548
298.05	0.0169644	0.000343
303.15	0.0218041	0.0004407
308.15	0.0266866	0.0005393
313.15	0.0324424	0.0006556
318.05	0.0371045	0.0007497
322.65	0.0420014	0.0008487
327.95	0.0469102	0.0009479
332.95	0.0518978	0.001049

System: acetone + 3-pyridazinamine; phases: Liquid, Crystal
Fixed: Pressure, kPa = 101.3
Property: Mole fraction of 3-pyridazinamine (Liquid); method: Laser Beam
Temperature, K	Mole fraction of 3-pyridazinamine	uncertainty
288.25	0.0068024	0.0001382
293.15	0.0080103	0.0001627
298.35	0.0090709	0.0001842
303.05	0.0102253	0.0002077
308.35	0.0119696	0.0002431
313.25	0.0132947	0.00027
317.85	0.0147766	0.0003002
323.35	0.016864	0.0003426
328.05	0.0187537	0.000381

System: ethyl acetate + 3-pyridazinamine; phases: Liquid, Crystal
Fixed: Pressure, kPa = 101.3
Property: Mole fraction of 3-pyridazinamine (Liquid); method: Laser Beam
Temperature, K	Mole fraction of 3-pyridazinamine	uncertainty
288.45	0.0022762	4.59e-05
293.15	0.0027521	5.54e-05
298.65	0.0032386	6.52e-05
302.75	0.0038324	7.72e-05
307.15	0.0043388	8.74e-05
312.95	0.0052196	0.0001051
318.65	0.005882	0.0001185
322.65	0.006648	0.0001339
328.25	0.0073782	0.0001486
332.35	0.0081286	0.0001637

System: aniline + 3-pyridazinamine; phases: Liquid, Crystal
Fixed: Pressure, kPa = 101.3
Property: Mole fraction of 3-pyridazinamine (Liquid); method: Laser Beam
Temperature, K	Mole fraction of 3-pyridazinamine	uncertainty
288.05	0.0231028	0.0004654
293.25	0.0288543	0.0005811
298.35	0.0347145	0.0006992
302.95	0.0418702	0.0008432
308.45	0.0486859	0.0009804
313.15	0.0558896	0.001126
318.15	0.0622591	0.001254
323.45	0.0692632	0.001395
328.15	0.0760336	0.001531
333.35	0.0824628	0.001661
