Measured thermophysical data. Enthalpy of Solution of Carbon Dioxide in Aqueous Solutions of Triethanolamine at Temperatures of 322.5 K and 372.9 K and Pressures up to 5 MPa
Source: J. Chem. Eng. Data, 2012, 10.1021/je300813c
Compound 1: water, H2O, InChI=1S/H2O/h1H2
Compound 2: carbon dioxide, CO2, InChI=1S/CO2/c2-1-3
Compound 3: triethanolamine, C6H15NO3, InChI=1S/C6H15NO3/c8-4-1-7(2-5-9)3-6-10/h8-10H,1-6H2

System: triethanolamine + water; phases: Liquid
Property: Mass density, kg/m3 (Liquid); method: Vibrating tube method
Mass fraction of triethanolamine	Temperature, K	Pressure, kPa	Mass density, kg/m3	uncertainty
0.15	298.31	206	1019.8	0.2
0.15	298.31	505	1020	0.2
0.15	298.31	2002	1020.6	0.2
0.15	298.32	1008	1020.2	0.2
0.15	298.32	3001	1021	0.2
0.15	298.32	5007	1021.8	0.2
0.3	298.31	508	1035.6	0.2
0.3	298.31	1002	1035.8	0.2
0.3	298.31	2007	1036.2	0.2
0.3	298.31	5005	1037.3	0.2
0.3	298.32	203	1035.5	0.2
0.3	298.32	3002	1036.5	0.2

System: triethanolamine + carbon dioxide + water; phases: Liquid
Fixed: Temperature, K = 372.9
Property: Molar enthalpy of solution, kJ/mol (Liquid); method: Flow calorimetry
Solvent: Mass fraction of triethanolamine	Pressure, kPa	Mole fraction of carbon dioxide	Molar enthalpy of solution, kJ/mol	uncertainty
0.15	550	0.0011	50.2	3.6
0.15	550	0.0022	50.2	14.6
0.15	550	0.0024	50.3	3.4
0.15	550	0.0032	50.4	1.1
0.15	550	0.0035	50.3	4.6
0.15	550	0.0037	49.9	2.2
0.15	550	0.0042	50.7	3
0.15	550	0.0043	49.7	1.1
0.15	550	0.0046	48.3	1.5
0.15	550	0.0052	51.3	1.5
0.15	550	0.0054	49.3	2.1
0.15	550	0.0055	49.6	1.9
0.15	550	0.0059	50.2	1.4
0.15	550	0.0064	44.9	1.4
0.15	550	0.0065	46.9	1.4
0.15	550	0.0071	41	2
0.15	550	0.0076	36.7	2.1
0.15	550	0.008	35.6	3.5
0.15	550	0.0087	32.1	2.8
0.15	550	0.0094	29	1.5
0.15	550	0.0115	22.4	1.5
0.15	550	0.0138	16.5	1.2
0.15	550	0.0161	12.8	1
0.15	550	0.018	10.4	1
0.15	1070	0.0012	48.8	1.8
0.15	1070	0.0023	48.7	1.8
0.15	1070	0.0035	51.3	1.3
0.15	1070	0.0036	49.9	3
0.15	1070	0.0044	49.1	2.8
0.15	1070	0.0046	48.9	0.7
0.15	1070	0.0047	51	2.8
0.15	1070	0.005	49.3	3.2
0.15	1070	0.0058	50.4	1.4
0.15	1070	0.0062	47.6	1.8
0.15	1070	0.0066	49.8	3.6
0.15	1070	0.0069	49.3	4
0.15	1070	0.0076	48.5	1.9
0.15	1070	0.0088	49	1.6
0.15	1070	0.009	47.8	1.5
0.15	1070	0.0092	46.1	1.3
0.15	1070	0.0101	48.8	2.5
0.15	1070	0.0109	45.3	1.4
0.15	1070	0.0111	43.7	1.9
0.15	1070	0.0112	43.1	1.2
0.15	1070	0.0113	44.3	1.6
0.15	1070	0.0131	37.5	2
0.15	1070	0.0152	31.5	1.9
0.15	1070	0.0173	27.8	1.4
0.15	1070	0.0216	21	1.4
0.15	1070	0.0255	17.1	1.6
0.15	1070	0.0492	6.7	0.6
0.15	3200	0.0052	47.2	3
0.15	3200	0.0065	47.4	3.6
0.15	3200	0.0077	47.9	0.7
0.15	3200	0.0096	46.9	0.7
0.15	3200	0.0112	48.6	1.6
0.15	3200	0.0125	46	0.9
0.15	3200	0.0137	46.5	0.9
0.15	3200	0.0145	47.4	0.6
0.15	3200	0.0154	47.9	1.1
0.15	3200	0.0155	47.1	4
0.15	3200	0.016	47.9	3.2
0.15	3200	0.0171	46.3	0.7
0.15	3200	0.0181	48.5	0.7
0.15	3200	0.0191	46.4	3
0.15	3200	0.0196	46.9	0.9
0.15	3200	0.0209	45.3	1.3
0.15	3200	0.0214	45.9	1.4
0.15	3200	0.0223	43.6	1.7
0.15	3200	0.0225	43.1	1.8
0.15	3200	0.0233	41.8	1.7
0.15	3200	0.0238	40.2	1.6
0.15	3200	0.0277	34.5	1.7
0.15	3200	0.0291	32.4	1.6
0.15	3200	0.0299	31.7	1.4
0.15	3200	0.0335	28.1	1.4
0.15	3200	0.0359	25.9	1.3
0.15	3200	0.0378	24.4	1
0.15	3200	0.0448	20.1	0.8
0.15	3200	0.0582	15.1	0.8
0.15	3200	0.0705	11.9	0.8
0.15	550	0.0022	51.5	2.8
0.15	1070	0.0035	50.8	1.8
0.15	1070	0.0047	49.5	2.2
0.15	1070	0.005	50.6	3.2
0.15	1070	0.0058	51.5	2.8
0.15	1070	0.0092	48.6	1.3
0.15	3200	0.0077	47.5	2.2
0.15	3200	0.0137	47.1	1.3
0.15	3200	0.0155	47.7	0.7
0.3	540	0.0041	52.7	1.3
0.3	540	0.0045	51.5	1.3
0.3	540	0.0051	54	1.1
0.3	540	0.0055	52.7	2.6
0.3	540	0.0057	52.3	2.4
0.3	540	0.0065	53.8	0.7
0.3	540	0.0066	51.9	1.3
0.3	540	0.0068	53.4	7.4
0.3	540	0.0078	52.2	0.9
0.3	540	0.0086	53.5	3.2
0.3	540	0.0089	51.9	2.2
0.3	540	0.0096	51.6	1.7
0.3	540	0.0097	52.4	1.4
0.3	540	0.01	51.9	1.4
0.3	540	0.0109	51	1.3
0.3	540	0.0111	48.6	2.7
0.3	540	0.0115	47.1	3
0.3	540	0.0123	43.6	2.6
0.3	540	0.0129	39.9	2
0.3	540	0.0136	38.8	2
0.3	540	0.0149	34.7	1.8
0.3	540	0.0166	30.3	2
0.3	540	0.0189	25.1	1.5
0.3	540	0.0216	20.9	1.4
0.3	540	0.0243	17.4	1.1
0.3	540	0.0275	14.4	1.5
0.3	540	0.0291	12.6	1.4
0.3	1060	0.005	53.4	3
0.3	1060	0.0074	52.5	2
0.3	1060	0.01	53.4	8.4
0.3	1060	0.0122	50.7	1.3
0.3	1060	0.0146	50.8	1.5
0.3	1060	0.0155	47.9	2.1
0.3	1060	0.0174	42.6	1.6
0.3	1060	0.0203	36.5	2.1
0.3	1060	0.0252	28.5	1.4
0.3	1060	0.0301	23.3	1.6
0.3	1060	0.0342	19.2	1
0.3	1060	0.0385	16.4	0.8
0.3	1060	0.0431	14.2	0.7
0.3	1060	0.0473	12.5	1
0.3	1060	0.0935	4.4	0.5
0.3	1060	0.1314	1.9	0.4
0.3	1060	0.1625	0.6	0.3
0.3	1060	0.1962	-0.3	0.3
0.3	1060	0.2287	-0.7	0.3
0.3	1060	0.2511	-1.2	0.3
0.3	1060	0.2734	-1.5	0.3
0.3	1060	0.2931	-1.7	0.2
0.3	1060	0.3614	-2.1	0.2
0.3	1060	0.4022	-2.4	0.1
0.3	1060	0.461	-2.8	0.2
0.3	1060	0.5283	-3	0.1
0.3	3110	0.0102	49.9	1.5
0.3	3110	0.0136	52.1	1.1
0.3	3110	0.0169	51.7	0.9
0.3	3110	0.0216	51.3	2
0.3	3110	0.0248	51.4	1.6
0.3	3110	0.0277	50.7	1.7
0.3	3110	0.0307	49.9	0.7
0.3	3110	0.0316	50.2	2.6
0.3	3110	0.0324	49.7	2.3
0.3	3110	0.0336	48.2	1.3
0.3	3110	0.0354	46.8	1.4
0.3	3110	0.0366	46	1.7
0.3	3110	0.038	44	2
0.3	3110	0.0412	40.3	1.7
0.3	3110	0.0485	33.6	1.6
0.3	3110	0.0572	27.8	1.4
0.3	3110	0.0634	24.8	1.2
0.3	3110	0.0732	21.1	1
0.3	3110	0.0818	18.6	1
0.3	540	0.0065	53.8	0.7
0.3	540	0.0109	50.4	1.2
0.3	540	0.0111	49.4	1.9
0.3	3110	0.0102	50.7	2.8

System: triethanolamine + carbon dioxide + water; phases: Liquid
Fixed: Temperature, K = 322.5
Property: Molar enthalpy of solution, kJ/mol (Liquid); method: Flow calorimetry
Solvent: Mass fraction of triethanolamine	Pressure, kPa	Mole fraction of carbon dioxide	Molar enthalpy of solution, kJ/mol	uncertainty
0.15	540	0.0059	49.8	0.8
0.15	540	0.0069	48.1	2.1
0.15	540	0.0071	46.9	1.9
0.15	540	0.0081	48.1	2.6
0.15	540	0.0092	48.7	1.1
0.15	540	0.0101	47.4	2.2
0.15	540	0.0113	46.5	1.7
0.15	540	0.0124	46.1	1.5
0.15	540	0.0137	44.8	1.1
0.15	540	0.0146	45.8	1.3
0.15	540	0.0157	46	1.7
0.15	540	0.0174	44.1	1.5
0.15	540	0.0197	41.2	1.7
0.15	540	0.0208	39.1	1.8
0.15	540	0.022	37.3	2
0.15	540	0.0231	34.6	1.7
0.15	540	0.0258	30.9	1.4
0.15	540	0.0281	29	1.8
0.15	540	0.032	24.7	1.2
0.15	540	0.0371	21.4	1.1
0.15	1060	0.0038	46.6	1.4
0.15	1060	0.0047	46.4	1.8
0.15	1060	0.0063	46.8	1.8
0.15	1060	0.0075	45.5	2.6
0.15	1060	0.0093	46.6	1.5
0.15	1060	0.0106	47.3	2.4
0.15	1060	0.0124	47.7	1.8
0.15	1060	0.0143	46.8	2.4
0.15	1060	0.016	46.3	1.3
0.15	1060	0.018	46.1	1.5
0.15	1060	0.0199	45.3	1.5
0.15	1060	0.0217	44.6	1.1
0.15	1060	0.0218	44.6	0.9
0.15	1060	0.0235	40.1	2.2
0.15	1060	0.0253	37.8	1.7
0.15	1060	0.0273	34.9	1.7
0.15	1060	0.0295	32.4	1.6
0.15	1060	0.0319	29.8	1.4
0.15	1060	0.0344	27.7	1.3
0.15	5310	0.0101	46.5	0.9
0.15	5310	0.0117	43.4	1.6
0.15	5310	0.0133	45.7	1.2
0.15	5310	0.0161	43.8	0.9
0.15	5310	0.0169	45.2	0.7
0.15	5310	0.02	45.6	4.6
0.15	5310	0.0207	42.3	2.8
0.15	5310	0.0214	43.8	2.4
0.15	5310	0.0219	44.1	0.9
0.15	5310	0.0227	43.1	5.2
0.15	5310	0.0229	44.2	2.4
0.15	5310	0.0234	41.8	1.7
0.15	5310	0.0236	44.2	2.5
0.15	5310	0.0242	42.1	2.1
0.15	5310	0.0259	40.3	1.9
0.15	5310	0.0271	41.3	1
0.15	5310	0.0284	38.6	1.8
0.15	5310	0.0315	35.9	1.4
0.15	5310	0.0355	31.6	1.5
0.15	5310	0.0406	27.5	1.3
0.15	5310	0.0438	25.5	1.2
0.15	5310	0.0472	23.3	1.4
0.15	540	0.0258	31.1	1.4
0.3	520	0.0159	50.8	0.9
0.3	520	0.0211	50.5	1.1
0.3	520	0.0236	51.6	1.1
0.3	520	0.0262	51.3	1
0.3	520	0.0287	49.2	2
0.3	520	0.0312	43.8	2.1
0.3	520	0.0338	41.9	1.9
0.3	520	0.0363	37.4	2.2
0.3	520	0.0387	34.9	1.3
0.3	520	0.0412	34.1	1.4
0.3	520	0.0461	30	1.4
0.3	520	0.051	27.3	1.4
0.3	1030	0.0098	51.5	1.7
0.3	1030	0.0118	49.2	1.6
0.3	1030	0.0126	50.6	1.6
0.3	1030	0.0156	49	2.4
0.3	1030	0.0203	51.9	1.6
0.3	1030	0.0252	49.6	1.7
0.3	1030	0.027	49.2	1.6
0.3	1030	0.0298	49.3	1.3
0.3	1030	0.0308	49.2	1.3
0.3	1030	0.0346	48.6	1.1
0.3	1030	0.0364	47.8	2.2
0.3	1030	0.0394	47.7	1.3
0.3	1030	0.0445	43.9	1.7
0.3	1030	0.0492	40.1	1.9
0.3	1030	0.0577	34	1.3
0.3	1030	0.0645	30.1	1.5
0.3	1030	0.0689	28.1	1.3
0.3	1030	0.0736	26.6	1.2
0.3	1030	0.0856	22.3	1.3
0.3	5360	0.024	49.3	1.6
0.3	5360	0.0258	50.4	2.1
0.3	5360	0.0283	50.6	2
0.3	5360	0.0311	50.3	0.9
0.3	5360	0.0321	50.1	0.9
0.3	5360	0.038	49.1	6.2
0.3	5360	0.0397	48.9	1.5
0.3	5360	0.0407	50.1	0.9
0.3	5360	0.042	48.3	1.6
0.3	5360	0.043	49.3	9
0.3	5360	0.0435	48.1	2
0.3	5360	0.0443	49.1	2.1
0.3	5360	0.0451	46.4	1.4
0.3	5360	0.0457	48.8	2.5
0.3	5360	0.0478	46.3	2.1
0.3	5360	0.0483	45.8	0.7
0.3	5360	0.0503	46.1	1.5
0.3	5360	0.0514	44.9	1.5
0.3	5360	0.0547	43	1.3
0.3	5360	0.0587	40.9	1.6
0.3	5360	0.06	39.4	1.7
0.3	5360	0.0636	37.4	1.6
0.3	5360	0.0691	34.1	1.8
0.3	5360	0.0741	31.1	0.6
0.3	5360	0.0749	31.2	0.6

System: triethanolamine + carbon dioxide + water; phases: Liquid, Gas
Property: Mole fraction of carbon dioxide (Liquid); method: Saturation condition detected through enthalpy of solution measurement
Temperature, K	Pressure, kPa	Solvent: Mass fraction of triethanolamine	Mole fraction of carbon dioxide	uncertainty
322.5	520	0.3	0.0287	0.0029
322.5	540	0.15	0.0197	0.002
322.5	1030	0.3	0.0394	0.0039
322.5	1060	0.15	0.0217	0.0022
322.5	5310	0.15	0.0271	0.0027
322.5	5360	0.3	0.0586	0.0059
372.9	540	0.3	0.0109	0.0011
372.9	550	0.15	0.0059	0.0006
372.9	1060	0.3	0.0145	0.0015
372.9	1070	0.15	0.0101	0.001
372.9	3110	0.3	0.0316	0.0032
372.9	3200	0.15	0.0209	0.0021
