Measured thermophysical data. Densities, Viscosities and Excess Properties of Binary Mixtures of 1,1,3,3-Tetramethylguanidinium Lactate + Water at T = (303.15 to 328.15) K
Source: J. Chem. Eng. Data, 2013, 10.1021/je3009073
Compound 1: 1,1,3,3-tetramethylguanidinium lactate, C8H19N3O3, InChI=1S/C5H13N3.C3H6O3/c1-7(2)5(6)8(3)4;1-2(4)3(5)6/h6H,1-4H3;2,4H,1H3,(H,5,6), purity 98%
Compound 2: water, H2O, InChI=1S/H2O/h1H2
Compound 3: 2-hydroxyethylammonium lactate, C5H13NO4, InChI=1S/C3H6O3.C2H7NO/c1-2(4)3(5)6;3-1-2-4/h2,4H,1H3,(H,5,6);4H,1-3H2, purity 98%
Compound 4: 2-aminoethan-1-ol, C2H7NO, InChI=1S/C2H7NO/c3-1-2-4/h4H,1-3H2, purity 99%

System: 2-aminoethan-1-ol; phases: Liquid
Fixed: Pressure, kPa = 101.325
Property: Mass density, kg/m3 (Liquid); method: Pycnometric method
Temperature, K	Mass density, kg/m3	uncertainty
303.15	1007.9	2
308.15	1004.2	2
313.15	1000.5	2.1
318.15	996.2	2.1
323.15	992.7	2.1
328.15	988.7	2.1

System: 2-aminoethan-1-ol; phases: Liquid
Fixed: Pressure, kPa = 101.325
Property: Viscosity, Pa*s (Liquid); method: Capillary tube (Ostwald; Ubbelohde) method
Temperature, K	Viscosity, Pa*s	uncertainty
303.15	0.01455	0.00061
308.15	0.01186	0.0005
313.15	0.00965	0.00041
318.15	0.00791	0.00033
323.15	0.00672	0.00028
328.15	0.00574	0.00024

System: water + 2-hydroxyethylammonium lactate; phases: Liquid
Fixed: Pressure, kPa = 101
Property: Mass density, kg/m3 (Liquid); method: Pycnometric method
Temperature, K	Mole fraction of water	Mass density, kg/m3	uncertainty
303.15	0	1226.1	2.4
303.15	0.116	1225.3	2.3
303.15	0.2026	1223	2.2
303.15	0.3045	1220	2.2
303.15	0.4043	1216.5	2.1
303.15	0.5027	1210.1	2.1
303.15	0.6023	1203.2	2.1
303.15	0.7016	1190.3	2
303.15	0.8022	1167.2	2
303.15	0.9007	1121	2
303.15	0.9501	1076	2
303.15	1	995.7	2
308.15	0	1223.1	2.4
308.15	0.116	1222.2	2.3
308.15	0.2026	1219.9	2.2
308.15	0.3045	1216.9	2.2
308.15	0.4043	1213.4	2.1
308.15	0.5027	1206.9	2.1
308.15	0.6023	1200.2	2.1
308.15	0.7016	1187.2	2
308.15	0.8022	1164.2	2
308.15	0.9007	1118.2	2
308.15	0.9501	1073.5	2
308.15	1	994	2
313.15	0	1220.4	2.5
313.15	0.116	1219.5	2.3
313.15	0.2026	1217.1	2.2
313.15	0.3045	1214.1	2.2
313.15	0.4043	1210.6	2.1
313.15	0.5027	1204.1	2.1
313.15	0.6023	1197.3	2.1
313.15	0.7016	1184.3	2
313.15	0.8022	1161.5	2
313.15	0.9007	1115.7	2
313.15	0.9501	1071.2	2
313.15	1	992.2	2
318.15	0	1217.4	2.5
318.15	0.116	1216.3	2.3
318.15	0.2026	1213.9	2.3
318.15	0.3045	1211	2.2
318.15	0.4043	1207.6	2.1
318.15	0.5027	1201	2.1
318.15	0.6023	1194.2	2.1
318.15	0.7016	1181.2	2
318.15	0.8022	1158.4	2
318.15	0.9007	1112.7	2
318.15	0.9501	1068.4	2
318.15	1	990.2	2
323.15	0	1214.9	2.5
323.15	0.116	1213.7	2.3
323.15	0.2026	1211.3	2.3
323.15	0.3045	1208.3	2.2
323.15	0.4043	1204.9	2.1
323.15	0.5027	1198.1	2.1
323.15	0.6023	1191.5	2.1
323.15	0.7016	1178.4	2
323.15	0.8022	1155.7	2
323.15	0.9007	1110.1	2
323.15	0.9501	1065.8	2
323.15	1	988	2
328.15	0	1212	2.5
328.15	0.116	1210.6	2.3
328.15	0.2026	1208.1	2.3
328.15	0.3045	1205.3	2.2
328.15	0.4043	1201.7	2.1
328.15	0.5027	1195.1	2.1
328.15	0.6023	1188.4	2.1
328.15	0.7016	1175.3	2.1
328.15	0.8022	1152.6	2.1
328.15	0.9007	1107	2.1
328.15	0.9501	1063	2.1
328.15	1	985.7	2

System: water + 2-hydroxyethylammonium lactate; phases: Liquid
Fixed: Pressure, kPa = 101
Property: Viscosity, Pa*s (Liquid); method: Capillary tube (Ostwald; Ubbelohde) method
Temperature, K	Mole fraction of water	Viscosity, Pa*s	uncertainty
303.15	0	11.34102	1.05818
303.15	0.116	6.52349	0.55953
303.15	0.2026	3.82874	0.3016
303.15	0.3045	2.13786	0.15213
303.15	0.4043	1.05095	0.06601
303.15	0.5027	0.49898	0.02726
303.15	0.6023	0.212	0.00999
303.15	0.7016	0.07469	0.00318
303.15	0.8022	0.02228	0.00095
303.15	0.9007	0.00519	0.00022
303.15	0.9501	0.00224	9e-05
303.15	1	0.0008	3e-05
308.15	0	6.69989	0.57924
308.15	0.116	3.97505	0.31559
308.15	0.2026	2.40108	0.17472
308.15	0.3045	1.37261	0.0903
308.15	0.4043	0.67518	0.03893
308.15	0.5027	0.34345	0.01741
308.15	0.6023	0.1566	0.00697
308.15	0.7016	0.05632	0.00229
308.15	0.8022	0.01803	0.00073
308.15	0.9007	0.00446	0.00018
308.15	0.9501	0.00197	8e-05
308.15	1	0.00072	3e-05
313.15	0	4.14464	0.33159
313.15	0.116	2.46836	0.18075
313.15	0.2026	1.57043	0.10592
313.15	0.3045	0.90049	0.05481
313.15	0.4043	0.45818	0.02453
313.15	0.5027	0.24372	0.01163
313.15	0.6023	0.10999	0.00469
313.15	0.7016	0.04342	0.00177
313.15	0.8022	0.01462	0.00059
313.15	0.9007	0.00383	0.00016
313.15	0.9501	0.00174	7e-05
313.15	1	0.00065	3e-05
318.15	0	2.65382	0.19694
318.15	0.116	1.61548	0.10966
318.15	0.2026	1.04742	0.0656
318.15	0.3045	0.60107	0.03392
318.15	0.4043	0.32124	0.01611
318.15	0.5027	0.17488	0.00789
318.15	0.6023	0.08391	0.00348
318.15	0.7016	0.03439	0.0014
318.15	0.8022	0.01185	0.00048
318.15	0.9007	0.00335	0.00014
318.15	0.9501	0.00157	6e-05
318.15	1	0.0006	2e-05
323.15	0	1.73356	0.11939
323.15	0.116	1.08452	0.06846
323.15	0.2026	0.71758	0.04191
323.15	0.3045	0.41869	0.02207
323.15	0.4043	0.23251	0.01102
323.15	0.5027	0.1507	0.00665
323.15	0.6023	0.06489	0.00265
323.15	0.7016	0.02788	0.00113
323.15	0.8022	0.00996	0.0004
323.15	0.9007	0.00294	0.00012
323.15	0.9501	0.00141	6e-05
323.15	1	0.00055	2e-05
328.15	0	1.18251	0.07622
328.15	0.116	0.74212	0.04377
328.15	0.2026	0.47837	0.02597
328.15	0.3045	0.29981	0.01488
328.15	0.4043	0.17338	0.00782
328.15	0.5027	0.09946	0.00424
328.15	0.6023	0.05052	0.00204
328.15	0.7016	0.02265	0.00091
328.15	0.8022	0.00843	0.00034
328.15	0.9007	0.00261	0.00011
328.15	0.9501	0.00125	5e-05
328.15	1	0.0005	2e-05

System: water + 1,1,3,3-tetramethylguanidinium lactate; phases: Liquid
Fixed: Pressure, kPa = 101
Property: Mass density, kg/m3 (Liquid); method: Pycnometric method
Temperature, K	Mole fraction of water	Mass density, kg/m3	uncertainty
303.15	0	1123.5	2.3
303.15	0.1001	1124	2.3
303.15	0.2165	1124.3	2.2
303.15	0.3182	1124.7	2.1
303.15	0.409	1124.9	2.1
303.15	0.5036	1124.5	2.1
303.15	0.6044	1122.8	2
303.15	0.7034	1119.9	2
303.15	0.8113	1111.2	2
303.15	0.9017	1088.3	2
303.15	0.95	1058.1	2
303.15	1	995.7	2
308.15	0	1120.9	2.3
308.15	0.1001	1121.2	2.3
308.15	0.2165	1121.5	2.2
308.15	0.3182	1121.9	2.1
308.15	0.409	1122.1	2.1
308.15	0.5036	1121.3	2.1
308.15	0.6044	1119.7	2.1
308.15	0.7034	1116.7	2
308.15	0.8113	1107.9	2
308.15	0.9017	1084.9	2
308.15	0.95	1055	2
308.15	1	994	2
313.15	0	1117.6	2.3
313.15	0.1001	1117.9	2.3
313.15	0.2165	1118.1	2.2
313.15	0.3182	1118.4	2.1
313.15	0.409	1118.5	2.1
313.15	0.5036	1117.6	2.1
313.15	0.6044	1116.1	2.1
313.15	0.7034	1113.1	2
313.15	0.8113	1104.2	2
313.15	0.9017	1081.5	2
313.15	0.95	1051.5	2
313.15	1	992.2	2
318.15	0	1114.3	2.3
318.15	0.1001	1114.5	2.3
318.15	0.2165	1114.6	2.2
318.15	0.3182	1114.9	2.1
318.15	0.409	1114.9	2.1
318.15	0.5036	1114.1	2.1
318.15	0.6044	1112.6	2.1
318.15	0.7034	1109.6	2
318.15	0.8113	1100.6	2
318.15	0.9017	1078.1	2
318.15	0.95	1048.4	2
318.15	1	990.2	2
323.15	0	1111.6	2.3
323.15	0.1001	1111.7	2.3
323.15	0.2165	1111.7	2.2
323.15	0.3182	1112	2.1
323.15	0.409	1111.8	2.1
323.15	0.5036	1111.1	2.1
323.15	0.6044	1109.2	2.1
323.15	0.7034	1106.7	2
323.15	0.8113	1097.1	2
323.15	0.9017	1074.5	2
323.15	0.95	1045.6	2
323.15	1	988	2
328.15	0	1108.1	2.3
328.15	0.1001	1108.1	2.3
328.15	0.2165	1108.2	2.2
328.15	0.3182	1108.4	2.1
328.15	0.409	1108.2	2.1
328.15	0.5036	1107.4	2.1
328.15	0.6044	1105.6	2.1
328.15	0.7034	1102.9	2
328.15	0.8113	1093.2	2
328.15	0.9017	1070.6	2.1
328.15	0.95	1042.5	2.1
328.15	1	985.7	2

System: water + 1,1,3,3-tetramethylguanidinium lactate; phases: Liquid
Fixed: Pressure, kPa = 101
Property: Viscosity, Pa*s (Liquid); method: Capillary tube (Ostwald; Ubbelohde) method
Temperature, K	Mole fraction of water	Viscosity, Pa*s	uncertainty
303.15	0	13.68376	1.31353
303.15	0.1001	7.66528	0.67645
303.15	0.2165	3.59409	0.28111
303.15	0.3182	1.92595	0.13501
303.15	0.409	1.12823	0.07153
303.15	0.5036	0.55456	0.03099
303.15	0.6044	0.25327	0.01229
303.15	0.7034	0.10472	0.00453
303.15	0.8113	0.03259	0.00138
303.15	0.9017	0.00868	0.00036
303.15	0.95	0.00332	0.00014
303.15	1	0.0008	3e-05
308.15	0	7.29593	0.64167
308.15	0.1001	4.18626	0.33664
308.15	0.2165	2.15007	0.1539
308.15	0.3182	1.14187	0.07292
308.15	0.409	0.698	0.04062
308.15	0.5036	0.35218	0.01803
308.15	0.6044	0.17549	0.00796
308.15	0.7034	0.07498	0.00309
308.15	0.8113	0.02505	0.00102
308.15	0.9017	0.0071	0.00029
308.15	0.95	0.00283	0.00012
308.15	1	0.00072	3e-05
313.15	0	3.96191	0.31629
313.15	0.1001	2.41207	0.17689
313.15	0.2165	1.26333	0.08232
313.15	0.3182	0.71888	0.04207
313.15	0.409	0.42945	0.02284
313.15	0.5036	0.23535	0.0112
313.15	0.6044	0.12211	0.00527
313.15	0.7034	0.05539	0.00225
313.15	0.8113	0.01916	0.00078
313.15	0.9017	0.00587	0.00024
313.15	0.95	0.00241	0.0001
313.15	1	0.00065	3e-05
318.15	0	2.26428	0.1643
318.15	0.1001	1.26169	0.08267
318.15	0.2165	0.79781	0.04769
318.15	0.3182	0.45845	0.02468
318.15	0.409	0.2896	0.0143
318.15	0.5036	0.16733	0.00754
318.15	0.6044	0.08904	0.00372
318.15	0.7034	0.042	0.00171
318.15	0.8113	0.01525	0.00062
318.15	0.9017	0.00494	0.0002
318.15	0.95	0.0021	0.0001
318.15	1	0.0006	0.0001
323.15	0	1.36552	0.09049
323.15	0.1001	0.89099	0.05424
323.15	0.2165	0.50211	0.02755
323.15	0.3182	0.31053	0.01554
323.15	0.409	0.20198	0.00938
323.15	0.5036	0.12029	0.00519
323.15	0.6044	0.06459	0.00264
323.15	0.7034	0.03253	0.00132
323.15	0.8113	0.01234	0.0005
323.15	0.9017	0.0042	0.00017
323.15	0.95	0.00186	8e-05
323.15	1	0.00055	2e-05
328.15	0	0.86705	0.05317
328.15	0.1001	0.57999	0.03283
328.15	0.2165	0.341	0.01739
328.15	0.3182	0.2186	0.01031
328.15	0.409	0.14662	0.0065
328.15	0.5036	0.08871	0.0037
328.15	0.6044	0.04938	0.00201
328.15	0.7034	0.02568	0.00104
328.15	0.8113	0.01019	0.00041
328.15	0.9017	0.00362	0.00015
328.15	0.95	0.00165	7e-05
328.15	1	0.0005	2e-05
