Measured thermophysical data. High-Pressure Phase Behavior of Heptadecafluoro-1-decene and Nonafluoro-1-hexene in Supercritical Carbon Dioxide
Source: J. Chem. Eng. Data, 2012, 10.1021/je300258z
Compound 1: 3,3,4,4,5,5,6,6,7,7,8,8,9,9,10,10,10-heptadecafluoro-1-decene, C10H3F17, InChI=1S/C10H3F17/c1-2-3(11,12)4(13,14)5(15,16)6(17,18)7(19,20)8(21,22)9(23,24)10(25,26)27/h2H,1H2, purity 99%
Compound 2: 3,3,4,4,5,5,6,6,6-nonafluoro-1-hexene, C6H3F9, InChI=1S/C6H3F9/c1-2-3(7,8)4(9,10)5(11,12)6(13,14)15/h2H,1H2, purity 99%
Compound 3: carbon dioxide, CO2, InChI=1S/CO2/c2-1-3, purity 99.999%

System: carbon dioxide + 3,3,4,4,5,5,6,6,7,7,8,8,9,9,10,10,10-heptadecafluoro-1-decene; phases: Liquid, Gas
Property: Critical pressure, kPa (Liquid); method: Derived from PVT data
Mole fraction of carbon dioxide	Critical pressure, kPa	uncertainty
0.947	10270	60

System: carbon dioxide + 3,3,4,4,5,5,6,6,7,7,8,8,9,9,10,10,10-heptadecafluoro-1-decene; phases: Liquid, Gas
Property: Critical temperature, K (Liquid); method: Visual observation in a stirred cell
Mole fraction of carbon dioxide	Critical temperature, K	uncertainty
0.947	343.2	0.1

System: carbon dioxide + 3,3,4,4,5,5,6,6,7,7,8,8,9,9,10,10,10-heptadecafluoro-1-decene; phases: Gas, Liquid
Property: Vapor or sublimation pressure, kPa (Gas); method: CCELL:UFactor:12
Temperature, K	Mole fraction of carbon dioxide	Vapor or sublimation pressure, kPa	uncertainty
313.2	0.982	7630	400
323.2	0.982	8680	420
333.2	0.947	9560	440
333.2	0.982	9760	450
343.2	0.982	10500	470

System: carbon dioxide + 3,3,4,4,5,5,6,6,7,7,8,8,9,9,10,10,10-heptadecafluoro-1-decene; phases: Liquid, Gas
Property: Vapor or sublimation pressure, kPa (Liquid); method: CCELL:UFactor:12
Temperature, K	Mole fraction of carbon dioxide	Vapor or sublimation pressure, kPa	uncertainty
313.2	0.532	2530	310
313.2	0.586	2870	320
313.2	0.59	3120	320
313.2	0.639	3530	320
313.2	0.676	3920	330
313.2	0.728	4490	340
313.2	0.769	4970	340
313.2	0.796	5290	350
313.2	0.845	5770	360
313.2	0.874	6170	370
313.2	0.911	6950	380
313.2	0.947	7490	390
323.2	0.59	3620	320
323.2	0.639	4160	330
323.2	0.676	4530	340
323.2	0.728	5050	350
323.2	0.769	5640	360
323.2	0.813	6030	360
323.2	0.874	6990	380
323.2	0.911	7580	400
323.2	0.947	8570	420
333.2	0.586	4020	330
333.2	0.59	4160	330
333.2	0.639	4630	340
333.2	0.676	4990	340
333.2	0.739	5830	360
333.2	0.769	6270	370
333.2	0.813	6860	380
333.2	0.831	7370	390
333.2	0.874	7980	400
333.2	0.911	8880	430
343.2	0.59	4620	340
343.2	0.639	5100	350
343.2	0.676	5470	350
343.2	0.709	5870	360
343.2	0.728	6330	370
343.2	0.769	7010	380
343.2	0.796	7630	400
343.2	0.831	8430	410
343.2	0.874	9200	430
343.2	0.911	9770	450

System: carbon dioxide + 3,3,4,4,5,5,6,6,6-nonafluoro-1-hexene; phases: Gas, Liquid
Property: Vapor or sublimation pressure, kPa (Gas); method: CCELL:UFactor:12
Temperature, K	Mole fraction of carbon dioxide	Vapor or sublimation pressure, kPa	uncertainty
313.2	0.97	7800	400
323.2	0.915	9140	430
323.2	0.93	8600	420
323.2	0.948	8430	410
323.2	0.97	7720	400
333.2	0.915	11660	500
333.2	0.93	11270	490
333.2	0.948	10530	470
333.2	0.97	10230	460
343.2	0.915	13990	560
343.2	0.93	13360	540
343.2	0.948	12910	530
343.2	0.97	12300	510

System: carbon dioxide + 3,3,4,4,5,5,6,6,6-nonafluoro-1-hexene; phases: Liquid, Gas
Property: Vapor or sublimation pressure, kPa (Liquid); method: CCELL:UFactor:12
Temperature, K	Mole fraction of carbon dioxide	Vapor or sublimation pressure, kPa	uncertainty
313.2	0.595	3140	320
313.2	0.62	3440	320
313.2	0.661	3840	330
313.2	0.708	3900	330
313.2	0.732	4350	330
313.2	0.763	4520	340
313.2	0.799	4550	340
313.2	0.844	5070	350
313.2	0.865	5390	350
313.2	0.899	5710	360
313.2	0.908	5940	360
313.2	0.915	6040	360
313.2	0.93	7140	390
313.2	0.948	7360	390
323.2	0.595	3710	330
323.2	0.62	4140	330
323.2	0.661	4540	340
323.2	0.708	4730	340
323.2	0.732	5050	350
323.2	0.763	5260	350
323.2	0.803	5470	350
323.2	0.807	5530	350
323.2	0.844	6060	360
323.2	0.865	6530	370
323.2	0.892	7930	400
333.2	0.595	4380	330
333.2	0.62	4780	340
333.2	0.647	4820	340
333.2	0.708	5430	350
333.2	0.732	5850	360
333.2	0.763	6210	370
333.2	0.803	6550	370
333.2	0.844	7060	380
333.2	0.865	7460	390
333.2	0.892	10210	460
343.2	0.595	5090	350
343.2	0.62	5520	350
343.2	0.651	5670	360
343.2	0.708	6180	370
343.2	0.732	6670	380
343.2	0.763	6940	380
343.2	0.803	7450	390
343.2	0.826	8460	420
343.2	0.865	9700	450
343.2	0.892	12500	520
