Measured thermophysical data. Isobaric Heat Capacity Measurements of Liquid Methane, Ethane, and Propane by Differential Scanning Calorimetry at High Pressures and Low Temperatures
Source: J. Chem. Eng. Data, 2012, 10.1021/je300762m
Compound 1: methane, CH4, InChI=1S/CH4/h1H4, purity 99.995%
Compound 2: ethane, C2H6, InChI=1S/C2H6/c1-2/h1-2H3, purity 99.99%
Compound 3: propane, C3H8, InChI=1S/C3H8/c1-3-2/h3H2,1-2H3, purity 99.99%
Compound 4: heptane, C7H16, InChI=1S/C7H16/c1-3-5-7-6-4-2/h3-7H2,1-2H3, purity 95%
Compound 5: toluene, C7H8, InChI=1S/C7H8/c1-7-5-3-2-4-6-7/h2-6H,1H3, purity 95%

System: methane; phases: Liquid
Property: Molar heat capacity at constant pressure, J/K/mol (Liquid); method: Large sample (1 g) DSC
Temperature, K	Pressure, kPa	Molar heat capacity at constant pressure, J/K/mol	uncertainty
108.15	4230	54.39998186	1.3320054538
108.15	6300	54.11121758	1.3320054538
118.15	4270	55.53899652	1.3639299492
118.15	6350	55.1058501	1.3639299492
128.15	4330	57.0309453	1.4120573292
128.15	6400	56.66196872	1.3960148692
143.15	4350	59.37314446	1.4760667446
153.15	4340	63.23937732	1.60419787262
153.15	6340	60.97739046	1.50799124
163.15	4390	67.6991812	1.82884044
163.15	6470	64.50673166	1.71654322
173.15	4380	77.87010084	2.1657321
173.15	6450	70.97184304	1.86092536

System: ethane; phases: Liquid
Property: Molar heat capacity at constant pressure, J/K/mol (Liquid); method: Large sample (1 g) DSC
Temperature, K	Pressure, kPa	Molar heat capacity at constant pressure, J/K/mol	uncertainty
108.15	1050	67.89589232	1.6540978904
108.15	2020	67.86582328	1.6540978904
108.15	4290	67.77561616	1.6540978904
118.15	1060	68.2567208	1.68386624
118.15	2030	67.62527096	1.6540978904
118.15	4290	68.94830872	1.68386624
128.15	4310	68.64761832	1.68386624
143.15	4080	68.61754928	1.68386624
153.15	4070	69.94058704	1.71393528
163.15	4050	70.84265824	1.74400432
188.15	1120	73.45866472	1.8041424
188.15	4310	72.40624832	1.77407336
228.15	1170	81.0360628	1.9848573304
228.15	4320	80.07385352	1.9538862192
238.15	1210	83.71220736	2.0449954104
238.15	4330	82.71992904	2.0449954104

System: propane; phases: Liquid
Property: Molar heat capacity at constant pressure, J/K/mol (Liquid); method: Large sample (1 g) DSC
Temperature, K	Pressure, kPa	Molar heat capacity at constant pressure, J/K/mol	uncertainty
108.15	1160	84.97225974	2.0720531838
108.15	3680	86.69198892	2.1170307162
108.15	5160	86.6478933	2.24887662
108.15	5330	84.79587726	2.204781
118.15	1170	84.75178164	2.0720531838
118.15	3650	87.0888495	2.1170307162
118.15	5180	87.04475388	2.1611263362
118.15	5430	85.45731156	2.1611263362
128.15	1180	85.28092908	2.0720531838
128.15	3640	86.6478933	2.1170307162
128.15	3670	86.29512834	2.1170307162
128.15	5190	86.55970206	2.1611263362
128.15	5430	85.5455028	2.1170307162
143.15	1130	86.4274152	2.1170307162
143.15	3690	86.69198892	2.1170307162
143.15	5180	86.55970206	2.1170307162
153.15	1190	87.61799694	2.1611263362
153.15	5200	88.67629182	2.1611263362
163.15	1170	87.9707619	2.1611263362
163.15	5210	89.33772612	2.204781
188.15	1190	91.14564654	2.24887662
188.15	5220	91.10155092	2.24887662
228.15	1150	98.73009318	2.4248181438
228.15	3670	98.42142384	2.4248181438
228.15	5220	98.1127545	2.4248181438
238.15	1110	101.24354352	2.4689137638
238.15	3680	100.71439608	2.4689137638
238.15	5220	100.62620484	2.4689137638
248.15	1160	103.58061138	2.5579869162
248.15	3670	102.16955154	2.5130093838
248.15	5190	101.46402162	2.4689137638
258.15	1160	105.65310552	2.6020825362
258.15	3680	104.10975882	2.5579869162
258.15	5220	103.75699386	2.5579869162

System: heptane; phases: Liquid
Fixed: Pressure, kPa = 100
Property: Molar heat capacity at constant pressure, J/K/mol (Liquid); method: Large sample (1 g) DSC
Temperature, K	Molar heat capacity at constant pressure, J/K/mol	uncertainty
228.15	202.30771686	4.90989506
228.15	201.50610134	4.90989506
238.15	206.21559252	5.010097
238.15	205.11337118	5.010097
303.15	225.9553747	5.5111067
303.15	225.25396112	5.5111067
313.15	229.16183678	5.61130864
313.15	230.86526976	5.61130864

System: toluene; phases: Liquid
Fixed: Pressure, kPa = 100
Property: Molar heat capacity at constant pressure, J/K/mol (Liquid); method: Large sample (1 g) DSC
Temperature, K	Molar heat capacity at constant pressure, J/K/mol	uncertainty
228.15	138.39190684	3.40912154
228.15	139.1290142	3.40912154
238.15	140.78750576	3.40912154
238.15	140.9717826	3.50125996
303.15	159.03091292	3.86981364
303.15	157.64883662	3.86981364
313.15	162.34789604	3.96195206
313.15	161.97934236	3.96195206

System: toluene + heptane; phases: Liquid
Fixed: Pressure, kPa = 100
Fixed: Mole fraction of toluene = 0.38
Property: Molar heat capacity at constant pressure, J/K/mol (Liquid); method: Large sample (1 g) DSC
Temperature, K	Molar heat capacity at constant pressure, J/K/mol	uncertainty
228.15	166.3	4.08
238.15	168.048	4.08
303.15	185.242	4.565
313.15	189.516	4.663
