Measured thermophysical data. Volumetric and Acoustic Properties of Aqueous Solutions of Trifluoromethanesulfonate-Based Ionic Liquids at Several Temperatures
Source: J. Chem. Eng. Data, 2012, 10.1021/je300134c
Compound 1: 1-butyl-1-methylpyrrolidinium trifluoromethanesulfonate, C10H20F3NO3S, InChI=1S/C9H20N.CHF3O3S/c1-3-4-7-10(2)8-5-6-9-10;2-1(3,4)8(5,6)7/h3-9H2,1-2H3;(H,5,6,7)/q+1;/p-1, purity 99%
Compound 2: 3-butyl-1-ethyl-1H-imidazolium trifluoromethanesulfonate (1:1), C10H17F3N2O3S, InChI=1S/C9H17N2.CHF3O3S/c1-3-5-6-11-8-7-10(4-2)9-11;2-1(3,4)8(5,6)7/h7-9H,3-6H2,1-2H3;(H,5,6,7)/q+1;/p-1, purity 98%
Compound 3: 1-butyl-3-methylimidazolium trifluoromethanesulfonate, C9H15F3N2O3S, InChI=1S/C8H15N2.CHF3O3S/c1-3-4-5-10-7-6-9(2)8-10;2-1(3,4)8(5,6)7/h6-8H,3-5H2,1-2H3;(H,5,6,7)/q+1;/p-1, purity 98%
Compound 4: water, H2O, InChI=1S/H2O/h1H2, purity 99.9%

System: 1-butyl-1-methylpyrrolidinium trifluoromethanesulfonate; phases: Liquid
Fixed: Pressure, kPa = 101.325
Property: Speed of sound, m/s (Liquid); method: Sing-around technique in a fixed-path interferometer
Temperature, K	Speed of sound, m/s	uncertainty
278.15	1513.53	1.24
288.15	1486.14	1.24
298.15	1461.43	1.23
308.15	1437.77	1.23
318.15	1414.89	1.22
328.15	1392.66	1.22
338.15	1371.14	1.21

System: 1-butyl-1-methylpyrrolidinium trifluoromethanesulfonate; phases: Liquid
Fixed: Pressure, kPa = 101.325
Property: Mass density, kg/m3 (Liquid); method: Vibrating tube method
Temperature, K	Mass density, kg/m3	uncertainty
278.15	1267.23	0.45
288.15	1259.74	0.45
298.15	1252.26	0.44
308.15	1245.09	0.44
318.15	1237.94	0.43
328.15	1230.81	0.42
338.15	1223.73	0.42

System: 3-butyl-1-ethyl-1H-imidazolium trifluoromethanesulfonate (1:1); phases: Liquid
Fixed: Pressure, kPa = 101.325
Property: Speed of sound, m/s (Liquid); method: Sing-around technique in a fixed-path interferometer
Temperature, K	Speed of sound, m/s	uncertainty
278.15	1420.57	2.12
288.15	1396.28	2.12
298.15	1373.07	2.11
308.15	1350.57	2.11
318.15	1328.61	2.11
328.15	1307.12	2.11
338.15	1286.13	2.1

System: 3-butyl-1-ethyl-1H-imidazolium trifluoromethanesulfonate (1:1); phases: Liquid
Fixed: Pressure, kPa = 101.325
Property: Mass density, kg/m3 (Liquid); method: Vibrating tube method
Temperature, K	Mass density, kg/m3	uncertainty
278.15	1278.02	1.46
288.15	1269.97	1.44
298.15	1262.21	1.42
308.15	1254.44	1.4
318.15	1246.71	1.38
328.15	1239.01	1.36
338.15	1231.35	1.35

System: 1-butyl-3-methylimidazolium trifluoromethanesulfonate; phases: Liquid
Fixed: Pressure, kPa = 101.325
Property: Speed of sound, m/s (Liquid); method: Sing-around technique in a fixed-path interferometer
Temperature, K	Speed of sound, m/s	uncertainty
288.15	1416.02	2.12
298.15	1393.01	2.12
308.15	1370.73	2.11
318.15	1349.04	2.11
328.15	1327.81	2.11
338.15	1307.05	2.11

System: 1-butyl-3-methylimidazolium trifluoromethanesulfonate; phases: Liquid
Fixed: Pressure, kPa = 101.325
Property: Mass density, kg/m3 (Liquid); method: Vibrating tube method
Temperature, K	Mass density, kg/m3	uncertainty
288.15	1304.56	1.52
298.15	1296.67	1.51
308.15	1288.78	1.49
318.15	1280.95	1.47
328.15	1273.16	1.45
338.15	1265.44	1.43

System: water; phases: Liquid
Fixed: Pressure, kPa = 101
Property: Speed of sound, m/s (Liquid); method: Sing-around technique in a fixed-path interferometer
Temperature, K	Speed of sound, m/s	uncertainty
278.15	1427.35	0.72
288.15	1466.98	0.73
298.15	1497.34	0.74
308.15	1520.26	0.75
318.15	1536.76	0.76
328.15	1547.68	0.76
338.15	1553.61	0.76

System: water; phases: Liquid
Fixed: Pressure, kPa = 101
Property: Mass density, kg/m3 (Liquid); method: Vibrating tube method
Temperature, K	Mass density, kg/m3	uncertainty
278.15	999.99	0.03
288.15	999.12	0.03
298.15	997.06	0.03
308.15	994.05	0.04
318.15	990.22	0.04
328.15	985.7	0.04
338.15	980.56	0.04

System: water + 3-butyl-1-ethyl-1H-imidazolium trifluoromethanesulfonate (1:1); phases: Liquid
Fixed: Pressure, kPa = 101
Property: Speed of sound, m/s (Liquid); method: Sing-around technique in a fixed-path interferometer
Temperature, K	Mole fraction of 3-butyl-1-ethyl-1H-imidazolium trifluoromethanesulfonate (1:1)	Speed of sound, m/s	uncertainty
278.15	0	1427.35	0.72
278.15	0.04992	1523.96	0.77
278.15	0.1001	1521.29	0.8
278.15	0.14982	1514.71	0.84
278.15	0.19984	1505.62	0.88
278.15	0.30128	1484.58	0.99
278.15	0.40123	1467.68	1.13
278.15	0.49597	1455.38	1.27
278.15	0.60165	1444.88	1.43
278.15	0.70071	1436.19	1.6
278.15	0.85508	1427.95	1.86
278.15	0.90059	1424.75	1.94
278.15	1	1420.57	2.12
288.15	0	1466.98	0.73
288.15	0.04992	1527.08	0.77
288.15	0.1001	1513.55	0.8
288.15	0.14982	1500.21	0.83
288.15	0.19984	1487.08	0.88
288.15	0.30128	1462.69	0.99
288.15	0.40123	1444.71	1.12
288.15	0.49597	1431.99	1.26
288.15	0.60165	1421.05	1.43
288.15	0.70071	1412.43	1.59
288.15	0.85508	1403.7	1.86
288.15	0.90059	1400.65	1.94
288.15	1	1396.28	2.12
298.15	0	1497.34	0.74
298.15	0.04992	1526.48	0.77
298.15	0.1001	1503.04	0.79
298.15	0.14982	1484.06	0.83
298.15	0.19984	1467.74	0.87
298.15	0.30128	1440.78	0.98
298.15	0.40123	1421.98	1.12
298.15	0.49597	1409.02	1.26
298.15	0.60165	1397.88	1.43
298.15	0.70071	1389.35	1.59
298.15	0.85508	1380.49	1.86
298.15	0.90059	1377.53	1.94
298.15	1	1373.07	2.11
308.15	0	1520.26	0.75
308.15	0.04992	1522.46	0.77
308.15	0.1001	1490.16	0.79
308.15	0.14982	1466.44	0.82
308.15	0.19984	1447.61	0.86
308.15	0.30128	1418.65	0.98
308.15	0.40123	1399.31	1.11
308.15	0.49597	1386.26	1.25
308.15	0.60165	1375.06	1.42
308.15	0.70071	1366.65	1.59
308.15	0.85508	1357.84	1.85
308.15	0.90059	1355.01	1.93
308.15	1	1350.57	2.11
318.15	0	1536.76	0.76
318.15	0.04992	1515.17	0.77
318.15	0.1001	1475.1	0.79
318.15	0.14982	1447.51	0.82
318.15	0.19984	1426.7	0.86
318.15	0.30128	1396.32	0.97
318.15	0.40123	1376.7	1.11
318.15	0.49597	1363.66	1.25
318.15	0.60165	1352.47	1.42
318.15	0.70071	1344.32	1.58
318.15	0.85508	1335.68	1.85
318.15	0.90059	1332.96	1.93
318.15	1	1328.61	2.11
328.15	0	1547.68	0.76
328.15	0.04992	1504.91	0.76
328.15	0.1001	1458.18	0.78
328.15	0.14982	1427.43	0.81
328.15	0.19984	1405.04	0.85
328.15	0.30128	1373.79	0.96
328.15	0.40123	1354.08	1.1
328.15	0.49597	1341.21	1.24
328.15	0.60165	1330.27	1.41
328.15	0.70071	1322.3	1.58
328.15	0.85508	1313.97	1.85
328.15	0.90059	1311.32	1.93
328.15	1	1307.12	2.11
338.15	0	1553.61	0.76
338.15	0.04992	1491.99	0.76
338.15	0.1001	1439.7	0.77
338.15	0.14982	1406.44	0.8
338.15	0.19984	1382.75	0.84
338.15	0.30128	1351.16	0.96
338.15	0.40123	1331.61	1.09
338.15	0.49597	1319.01	1.24
338.15	0.60165	1308.37	1.41
338.15	0.70071	1300.65	1.58
338.15	0.85508	1292.7	1.85
338.15	0.90059	1290.24	1.93
338.15	1	1286.13	2.1

System: water + 3-butyl-1-ethyl-1H-imidazolium trifluoromethanesulfonate (1:1); phases: Liquid
Fixed: Pressure, kPa = 101
Property: Mass density, kg/m3 (Liquid); method: Vibrating tube method
Temperature, K	Mole fraction of 3-butyl-1-ethyl-1H-imidazolium trifluoromethanesulfonate (1:1)	Mass density, kg/m3	uncertainty
278.15	0	999.99	0.03
278.15	0.04992	1120.13	0.09
278.15	0.1001	1171.15	0.12
278.15	0.14982	1199.88	0.15
278.15	0.19984	1218.01	0.18
278.15	0.30128	1239.57	0.26
278.15	0.40123	1251.73	0.36
278.15	0.49597	1259.25	0.47
278.15	0.60165	1265.19	0.63
278.15	0.70071	1269.28	0.79
278.15	0.85508	1274.04	1.11
278.15	0.90059	1275.29	1.21
278.15	1	1278.02	1.46
288.15	0	999.12	0.03
288.15	0.04992	1114.86	0.09
288.15	0.1001	1164.38	0.12
288.15	0.14982	1192.37	0.15
288.15	0.19984	1210.13	0.18
288.15	0.30128	1231.45	0.26
288.15	0.40123	1243.63	0.35
288.15	0.49597	1251.19	0.47
288.15	0.60165	1257.22	0.62
288.15	0.70071	1261.36	0.78
288.15	0.85508	1266.2	1.09
288.15	0.90059	1267.39	1.19
288.15	1	1269.97	1.44
298.15	0	997.06	0.03
298.15	0.04992	1109.08	0.09
298.15	0.1001	1157.27	0.12
298.15	0.14982	1184.63	0.14
298.15	0.19984	1202.11	0.18
298.15	0.30128	1223.27	0.25
298.15	0.40123	1235.48	0.35
298.15	0.49597	1243.13	0.46
298.15	0.60165	1249.23	0.61
298.15	0.70071	1253.44	0.77
298.15	0.85508	1258.37	1.08
298.15	0.90059	1259.57	1.18
298.15	1	1262.21	1.42
308.15	0	994.05	0.04
308.15	0.04992	1102.81	0.09
308.15	0.1001	1149.85	0.11
308.15	0.14982	1176.7	0.14
308.15	0.19984	1193.95	0.17
308.15	0.30128	1215.04	0.25
308.15	0.40123	1227.32	0.34
308.15	0.49597	1235.04	0.45
308.15	0.60165	1241.24	0.6
308.15	0.70071	1245.51	0.76
308.15	0.85508	1250.54	1.06
308.15	0.90059	1251.76	1.16
308.15	1	1254.44	1.4
318.15	0	990.22	0.04
318.15	0.04992	1096.1	0.08
318.15	0.1001	1142.14	0.11
318.15	0.14982	1168.57	0.14
318.15	0.19984	1185.67	0.17
318.15	0.30128	1206.74	0.24
318.15	0.40123	1219.13	0.33
318.15	0.49597	1226.96	0.44
318.15	0.60165	1233.26	0.59
318.15	0.70071	1237.61	0.75
318.15	0.85508	1242.74	1.05
318.15	0.90059	1243.97	1.15
318.15	1	1246.71	1.38
328.15	0	985.7	0.04
328.15	0.04992	1088.96	0.08
328.15	0.1001	1134.15	0.11
328.15	0.14982	1160.26	0.13
328.15	0.19984	1177.26	0.16
328.15	0.30128	1198.39	0.24
328.15	0.40123	1210.91	0.33
328.15	0.49597	1218.87	0.44
328.15	0.60165	1225.3	0.58
328.15	0.70071	1229.73	0.74
328.15	0.85508	1234.98	1.03
328.15	0.90059	1236.23	1.13
328.15	1	1239.01	1.36
338.15	0	980.56	0.04
338.15	0.04992	1081.43	0.08
338.15	0.1001	1125.92	0.1
338.15	0.14982	1151.76	0.13
338.15	0.19984	1168.74	0.16
338.15	0.30128	1189.99	0.23
338.15	0.40123	1202.68	0.32
338.15	0.49597	1210.79	0.43
338.15	0.60165	1217.37	0.57
338.15	0.70071	1221.89	0.73
338.15	0.85508	1227.27	1.02
338.15	0.90059	1228.53	1.11
338.15	1	1231.35	1.34

System: water + 1-butyl-3-methylimidazolium trifluoromethanesulfonate; phases: Liquid
Fixed: Pressure, kPa = 101
Property: Speed of sound, m/s (Liquid); method: Sing-around technique in a fixed-path interferometer
Temperature, K	Mole fraction of 1-butyl-3-methylimidazolium trifluoromethanesulfonate	Speed of sound, m/s	uncertainty
288.15	0	1466.98	0.73
288.15	0.05002	1539.45	0.78
288.15	0.09974	1524.84	0.8
288.15	0.14991	1510.43	0.83
288.15	0.30127	1474.64	0.99
288.15	0.39941	1459.03	1.12
288.15	0.49729	1447.64	1.27
288.15	0.59991	1438.01	1.43
288.15	0.69882	1431.57	1.59
288.15	0.89532	1420.49	1.93
288.15	1	1416.02	2.12
298.15	0	1497.34	0.74
298.15	0.05002	1538.23	0.78
298.15	0.09974	1514.34	0.8
298.15	0.14991	1494.79	0.83
298.15	0.30127	1453.8	0.99
298.15	0.39941	1437.31	1.12
298.15	0.49729	1425.5	1.26
298.15	0.59991	1415.65	1.43
298.15	0.69882	1408.8	1.59
298.15	0.89532	1397.71	1.93
298.15	1	1393.01	2.12
308.15	0	1520.26	0.75
308.15	0.05002	1533.54	0.77
308.15	0.09974	1501.62	0.79
308.15	0.14991	1477.87	0.82
308.15	0.30127	1432.73	0.98
308.15	0.39941	1415.58	1.11
308.15	0.49729	1403.54	1.26
308.15	0.59991	1393.57	1.42
308.15	0.69882	1386.55	1.59
308.15	0.89532	1375.51	1.93
308.15	1	1370.73	2.11
318.15	0	1536.76	0.76
318.15	0.05002	1525.78	0.77
318.15	0.09974	1486.94	0.79
318.15	0.14991	1459.75	0.82
318.15	0.30127	1411.43	0.98
318.15	0.39941	1393.85	1.11
318.15	0.49729	1381.69	1.25
318.15	0.59991	1371.71	1.42
318.15	0.69882	1364.7	1.58
318.15	0.89532	1353.78	1.92
318.15	1	1349.04	2.11
328.15	0	1547.68	0.76
328.15	0.05002	1515.23	0.77
328.15	0.09974	1470.56	0.78
328.15	0.14991	1440.52	0.81
328.15	0.30127	1389.85	0.97
328.15	0.39941	1372.06	1.1
328.15	0.49729	1359.91	1.25
328.15	0.59991	1350.07	1.41
328.15	0.69882	1343.16	1.58
328.15	0.89532	1332.45	1.92
328.15	1	1327.81	2.11
338.15	0	1553.61	0.76
338.15	0.05002	1502.26	0.76
338.15	0.09974	1452.7	0.78
338.15	0.14991	1420.26	0.81
338.15	0.30127	1368.06	0.96
338.15	0.39941	1350.4	1.1
338.15	0.49729	1338.27	1.24
338.15	0.59991	1328.69	1.41
338.15	0.69882	1321.58	1.58
338.15	0.89532	1311.19	1.92
338.15	1	1307.05	2.11

System: water + 1-butyl-3-methylimidazolium trifluoromethanesulfonate; phases: Liquid
Fixed: Pressure, kPa = 101
Property: Mass density, kg/m3 (Liquid); method: Vibrating tube method
Temperature, K	Mole fraction of 1-butyl-3-methylimidazolium trifluoromethanesulfonate	Mass density, kg/m3	uncertainty
288.15	0	999.12	0.03
288.15	0.05002	1122.78	0.1
288.15	0.09974	1178.77	0.12
288.15	0.14991	1211.09	0.16
288.15	0.30127	1257.47	0.27
288.15	0.39941	1272.13	0.37
288.15	0.49729	1281.71	0.5
288.15	0.59991	1289.22	0.65
288.15	0.69882	1294.59	0.83
288.15	0.89532	1302.01	1.25
288.15	1	1304.56	1.52
298.15	0	997.06	0.03
298.15	0.05002	1116.95	0.09
298.15	0.09974	1171.65	0.12
298.15	0.14991	1203.38	0.15
298.15	0.30127	1249.32	0.27
298.15	0.39941	1263.98	0.37
298.15	0.49729	1273.59	0.49
298.15	0.59991	1281.16	0.64
298.15	0.69882	1286.57	0.82
298.15	0.89532	1294.08	1.24
298.15	1	1296.67	1.5
308.15	0	994.05	0.04
308.15	0.05002	1110.67	0.09
308.15	0.09974	1164.25	0.12
308.15	0.14991	1195.48	0.15
308.15	0.30127	1241.1	0.26
308.15	0.39941	1255.79	0.36
308.15	0.49729	1265.46	0.48
308.15	0.59991	1273.1	0.63
308.15	0.69882	1278.56	0.8
308.15	0.89532	1286.15	1.22
308.15	1	1288.78	1.48
318.15	0	990.22	0.04
318.15	0.05002	1103.96	0.09
318.15	0.09974	1156.58	0.12
318.15	0.14991	1187.4	0.15
318.15	0.30127	1232.82	0.26
318.15	0.39941	1247.58	0.35
318.15	0.49729	1257.33	0.47
318.15	0.59991	1265.05	0.62
318.15	0.69882	1270.58	0.79
318.15	0.89532	1278.27	1.2
318.15	1	1280.95	1.46
328.15	0	985.7	0.04
328.15	0.05002	1096.85	0.08
328.15	0.09974	1148.65	0.11
328.15	0.14991	1179.14	0.14
328.15	0.30127	1224.48	0.25
328.15	0.39941	1239.35	0.35
328.15	0.49729	1249.21	0.47
328.15	0.59991	1257.03	0.61
328.15	0.69882	1262.64	0.78
328.15	0.89532	1270.44	1.19
328.15	1	1273.16	1.45
338.15	0	980.56	0.04
338.15	0.05002	1089.38	0.08
338.15	0.09974	1140.47	0.11
338.15	0.14991	1170.71	0.14
338.15	0.30127	1216.08	0.25
338.15	0.39941	1231.09	0.34
338.15	0.49729	1241.08	0.46
338.15	0.59991	1249.02	0.6
338.15	0.69882	1254.72	0.77
338.15	0.89532	1262.66	1.17
338.15	1	1265.44	1.43

System: water + 1-butyl-1-methylpyrrolidinium trifluoromethanesulfonate; phases: Liquid
Fixed: Pressure, kPa = 101
Property: Speed of sound, m/s (Liquid); method: Sing-around technique in a fixed-path interferometer
Temperature, K	Mole fraction of 1-butyl-1-methylpyrrolidinium trifluoromethanesulfonate	Speed of sound, m/s	uncertainty
278.15	0	1427.35	0.72
278.15	0.04996	1595.92	0.79
278.15	0.10003	1607.62	0.8
278.15	0.15066	1602.88	0.81
278.15	0.19995	1594.23	0.82
278.15	0.29963	1574.07	0.85
278.15	0.39861	1557.04	0.89
278.15	0.49817	1543.69	0.93
278.15	0.59961	1533.23	0.99
278.15	0.69926	1525.34	1.04
278.15	0.80169	1519.63	1.11
278.15	0.89932	1513.98	1.17
278.15	1	1513.53	1.24
288.15	0	1466.98	0.73
288.15	0.04996	1594.66	0.79
288.15	0.10003	1596.2	0.8
288.15	0.15066	1586	0.81
288.15	0.19995	1574.36	0.82
288.15	0.29963	1551.59	0.84
288.15	0.39861	1533.74	0.88
288.15	0.49817	1519.95	0.93
288.15	0.59961	1509.25	0.98
288.15	0.69926	1501.05	1.04
288.15	0.80169	1494.52	1.1
288.15	0.89932	1488.86	1.17
288.15	1	1486.14	1.24
298.15	0	1497.34	0.74
298.15	0.04996	1590.37	0.79
298.15	0.10003	1582.61	0.79
298.15	0.15066	1567.82	0.8
298.15	0.19995	1553.75	0.81
298.15	0.29963	1528.95	0.84
298.15	0.39861	1510.57	0.87
298.15	0.49817	1496.58	0.92
298.15	0.59961	1485.75	0.97
298.15	0.69926	1477.53	1.03
298.15	0.80169	1470.66	1.1
298.15	0.89932	1465.01	1.16
298.15	1	1461.43	1.23
308.15	0	1520.26	0.75
308.15	0.04996	1583.04	0.78
308.15	0.10003	1567.04	0.79
308.15	0.15066	1548.46	0.79
308.15	0.19995	1532.41	0.8
308.15	0.29963	1506.16	0.83
308.15	0.39861	1487.44	0.87
308.15	0.49817	1473.42	0.91
308.15	0.59961	1462.64	0.96
308.15	0.69926	1454.45	1.02
308.15	0.80169	1447.42	1.09
308.15	0.89932	1441.96	1.16
308.15	1	1437.77	1.23
318.15	0	1536.76	0.76
318.15	0.04996	1572.93	0.78
318.15	0.10003	1549.72	0.78
318.15	0.15066	1527.95	0.79
318.15	0.19995	1510.38	0.79
318.15	0.29963	1483.09	0.82
318.15	0.39861	1464.25	0.86
318.15	0.49817	1450.35	0.9
318.15	0.59961	1439.72	0.96
318.15	0.69926	1431.66	1.02
318.15	0.80169	1424.66	1.08
318.15	0.89932	1419.41	1.15
318.15	1	1414.89	1.22
328.15	0	1547.68	0.76
328.15	0.04996	1560.29	0.77
328.15	0.10003	1530.79	0.77
328.15	0.15066	1506.39	0.78
328.15	0.19995	1487.68	0.79
328.15	0.29963	1459.74	0.81
328.15	0.39861	1441	0.85
328.15	0.49817	1427.32	0.9
328.15	0.59961	1416.99	0.95
328.15	0.69926	1409.17	1.01
328.15	0.80169	1402.31	1.08
328.15	0.89932	1397.27	1.15
328.15	1	1392.66	1.22
338.15	0	1553.61	0.76
338.15	0.04996	1545.39	0.77
338.15	0.10003	1510.53	0.77
338.15	0.15066	1484.01	0.77
338.15	0.19995	1464.5	0.78
338.15	0.29963	1436.27	0.8
338.15	0.39861	1417.95	0.84
338.15	0.49817	1404.49	0.89
338.15	0.59961	1394.51	0.95
338.15	0.69926	1387	1.01
338.15	0.80169	1380.44	1.07
338.15	0.89932	1375.54	1.14
338.15	1	1371.14	1.21

System: water + 1-butyl-1-methylpyrrolidinium trifluoromethanesulfonate; phases: Liquid
Fixed: Pressure, kPa = 101
Property: Mass density, kg/m3 (Liquid); method: Vibrating tube method
Temperature, K	Mole fraction of 1-butyl-1-methylpyrrolidinium trifluoromethanesulfonate	Mass density, kg/m3	uncertainty
278.15	0	999.99	0.03
278.15	0.04996	1113.86	0.09
278.15	0.10003	1163.55	0.11
278.15	0.15066	1190.82	0.12
278.15	0.19995	1208.34	0.14
278.15	0.29963	1229.14	0.16
278.15	0.39861	1240.96	0.19
278.15	0.49817	1248.7	0.22
278.15	0.59961	1254.27	0.26
278.15	0.69926	1258.35	0.3
278.15	0.80169	1261.86	0.35
278.15	0.89932	1264.45	0.4
278.15	1	1267.23	0.45
288.15	0	999.12	0.03
288.15	0.04996	1108.53	0.08
288.15	0.10003	1156.83	0.1
288.15	0.15066	1183.59	0.12
288.15	0.19995	1200.79	0.13
288.15	0.29963	1221.49	0.16
288.15	0.39861	1233.35	0.18
288.15	0.49817	1241.17	0.22
288.15	0.59961	1246.83	0.25
288.15	0.69926	1251.01	0.29
288.15	0.80169	1254.33	0.34
288.15	0.89932	1256.9	0.39
288.15	1	1259.74	0.45
298.15	0	997.06	0.03
298.15	0.04996	1102.75	0.08
298.15	0.10003	1149.85	0.1
298.15	0.15066	1176.19	0.12
298.15	0.19995	1193.14	0.13
298.15	0.29963	1213.77	0.15
298.15	0.39861	1225.71	0.18
298.15	0.49817	1233.63	0.21
298.15	0.59961	1239.37	0.25
298.15	0.69926	1243.63	0.29
298.15	0.80169	1247.06	0.33
298.15	0.89932	1249.64	0.38
298.15	1	1252.26	0.44
308.15	0	994.05	0.04
308.15	0.04996	1096.56	0.08
308.15	0.10003	1142.62	0.1
308.15	0.15066	1168.56	0.11
308.15	0.19995	1185.37	0.13
308.15	0.29963	1206	0.15
308.15	0.39861	1218.04	0.18
308.15	0.49817	1226.07	0.21
308.15	0.59961	1231.92	0.24
308.15	0.69926	1236.25	0.28
308.15	0.80169	1239.76	0.33
308.15	0.89932	1242.39	0.38
308.15	1	1245.09	0.43
318.15	0	990.22	0.04
318.15	0.04996	1089.97	0.08
318.15	0.10003	1135.15	0.09
318.15	0.15066	1160.74	0.11
318.15	0.19995	1177.49	0.12
318.15	0.29963	1198.16	0.15
318.15	0.39861	1210.34	0.17
318.15	0.49817	1218.51	0.2
318.15	0.59961	1224.48	0.24
318.15	0.69926	1228.9	0.28
318.15	0.80169	1232.49	0.32
318.15	0.89932	1235.16	0.37
318.15	1	1237.94	0.43
328.15	0	985.7	0.04
328.15	0.04996	1083.01	0.07
328.15	0.10003	1127.45	0.09
328.15	0.15066	1152.76	0.11
328.15	0.19995	1169.5	0.12
328.15	0.29963	1190.27	0.14
328.15	0.39861	1202.62	0.17
328.15	0.49817	1210.95	0.2
328.15	0.59961	1217.05	0.23
328.15	0.69926	1221.57	0.27
328.15	0.80169	1225.24	0.32
328.15	0.89932	1227.97	0.37
328.15	1	1230.81	0.42
338.15	0	980.56	0.04
338.15	0.04996	1075.72	0.07
338.15	0.10003	1119.53	0.09
338.15	0.15066	1144.53	0.1
338.15	0.19995	1161.26	0.12
338.15	0.29963	1182.3	0.14
338.15	0.39861	1194.89	0.17
338.15	0.49817	1203.39	0.2
338.15	0.59961	1209.64	0.23
338.15	0.69926	1214.26	0.27
338.15	0.80169	1218.03	0.31
338.15	0.89932	1220.81	0.36
338.15	1	1223.73	0.41
