Measured thermophysical data. Binary Diffusion Coefficients of Aqueous Straight-Chain Amino Acids at Infinitesimal Concentration and Temperatures from (298.2 to 333.2) K
Source: J. Chem. Eng. Data, 2013, 10.1021/je301370s
Compound 1: 3-aminopropanoic acid, C3H7NO2, InChI=1S/C3H7NO2/c4-2-1-3(5)6/h1-2,4H2,(H,5,6), purity 99%
Compound 2: water, H2O, InChI=1S/H2O/h1H2, purity 99.9%
Compound 3: 4-aminobutanoic acid, C4H9NO2, InChI=1S/C4H9NO2/c5-3-1-2-4(6)7/h1-3,5H2,(H,6,7), purity 99%
Compound 4: 5-aminovaleric acid, C5H11NO2, InChI=1S/C5H11NO2/c6-4-2-1-3-5(7)8/h1-4,6H2,(H,7,8), purity 97%
Compound 5: 6-aminohexanoic acid, C6H13NO2, InChI=1S/C6H13NO2/c7-5-3-1-2-4-6(8)9/h1-5,7H2,(H,8,9), purity 98%
Compound 6: 7-aminoheptanoic acid, C7H15NO2, InChI=1S/C7H15NO2/c8-6-4-2-1-3-5-7(9)10/h1-6,8H2,(H,9,10), purity 98%

System: 3-aminopropanoic acid + water; phases: Liquid
Fixed: Pressure, kPa = 101
Fixed: Mole fraction of 3-aminopropanoic acid = 0
Property: Binary diffusion coefficient, m2/s (Liquid); method: Taylor dispersion method
Temperature, K	Binary diffusion coefficient, m2/s	uncertainty
298.2	9.374e-10	0.0269
303.2	1.062e-09	0.029
313.2	1.346e-09	0.034
323.2	1.644e-09	0.082
333.2	1.975e-09	0.049

System: 4-aminobutanoic acid + water; phases: Liquid
Fixed: Pressure, kPa = 101
Fixed: Mole fraction of 4-aminobutanoic acid = 0
Property: Binary diffusion coefficient, m2/s (Liquid); method: Taylor dispersion method
Temperature, K	Binary diffusion coefficient, m2/s	uncertainty
298.2	8.384e-10	0.0328
303.2	9.542e-10	0.0488
313.2	1.199e-09	0.034
323.2	1.489e-09	0.059
333.2	1.789e-09	0.042

System: 5-aminovaleric acid + water; phases: Liquid
Fixed: Pressure, kPa = 101
Fixed: Mole fraction of 5-aminovaleric acid = 0
Property: Binary diffusion coefficient, m2/s (Liquid); method: Taylor dispersion method
Temperature, K	Binary diffusion coefficient, m2/s	uncertainty
298.2	7.758e-10	0.0293
303.2	8.726e-10	0.0403
313.2	1.119e-09	0.03
323.2	1.393e-09	0.044
333.2	1.659e-09	0.094

System: 6-aminohexanoic acid + water; phases: Liquid
Fixed: Pressure, kPa = 101
Fixed: Mole fraction of 6-aminohexanoic acid = 0
Property: Binary diffusion coefficient, m2/s (Liquid); method: Taylor dispersion method
Temperature, K	Binary diffusion coefficient, m2/s	uncertainty
298.2	7.278e-10	0.0276
303.2	8.253e-10	0.0378
313.2	1.05e-09	0.029
323.2	1.293e-09	0.036
333.2	1.567e-09	0.065

System: 7-aminoheptanoic acid + water; phases: Liquid
Fixed: Pressure, kPa = 101
Fixed: Mole fraction of 7-aminoheptanoic acid = 0
Property: Binary diffusion coefficient, m2/s (Liquid); method: Taylor dispersion method
Temperature, K	Binary diffusion coefficient, m2/s	uncertainty
298.2	6.884e-10	0.0196
303.2	7.859e-10	0.021
313.2	9.997e-10	0.0252
323.2	1.226e-09	0.033
333.2	1.484e-09	0.044
