Measured thermophysical data. Solid Liquid Equilibria of Ternary 4-Nitro-2-benzofuran-1,3-dione + 5-Nitro-2-benzofuran-1,3-dione + 2-Propanone at 283.15 K and 323.15 K
Source: J. Chem. Eng. Data, 2013, 10.1021/je301194e
Compound 1: 3-nitro-1,2-benzenedicarboxylic acid anhydride, C8H3NO5, InChI=1S/C8H3NO5/c10-7-4-2-1-3-5(9(12)13)6(4)8(11)14-7/h1-3H, purity 99.2%
Compound 2: 4-nitro-1,2-benzenedicarboxylic acid anhydride, C8H3NO5, InChI=1S/C8H3NO5/c10-7-5-2-1-4(9(12)13)3-6(5)8(11)14-7/h1-3H, purity 99.2%
Compound 3: acetone, C3H6O, InChI=1S/C3H6O/c1-3(2)4/h1-2H3, purity 99.5%

System: acetone + 3-nitro-1,2-benzenedicarboxylic acid anhydride + 4-nitro-1,2-benzenedicarboxylic acid anhydride; phases: Liquid, Crystal
Fixed: Pressure, kPa = 101
Property: Mass fraction of 3-nitro-1,2-benzenedicarboxylic acid anhydride (Liquid); method: Chromatography
Temperature, K	Mass fraction of 4-nitro-1,2-benzenedicarboxylic acid anhydride	Mass fraction of 3-nitro-1,2-benzenedicarboxylic acid anhydride	uncertainty
283.15	0	0.117	0.0047
283.15	0.0096	0.1163	0.0047
283.15	0.0215	0.1162	0.0047
323.15	0	0.2064	0.0083
323.15	0.0254	0.1894	0.0076
323.15	0.0516	0.182	0.0073
323.15	0.0806	0.1804	0.0072
323.15	0.1087	0.184	0.0074
323.15	0.1339	0.193	0.008

System: acetone + 3-nitro-1,2-benzenedicarboxylic acid anhydride + 4-nitro-1,2-benzenedicarboxylic acid anhydride; phases: Liquid, Crystal
Fixed: Pressure, kPa = 101
Property: Mass fraction of 3-nitro-1,2-benzenedicarboxylic acid anhydride (Liquid); method: Chromatography
Temperature, K	Mass fraction of 4-nitro-1,2-benzenedicarboxylic acid anhydride	Mass fraction of 3-nitro-1,2-benzenedicarboxylic acid anhydride	uncertainty
283.15	0.0325	0.1051	0.0085
283.15	0.0356	0.0874	0.0061
283.15	0.0423	0.0691	0.0057
283.15	0.0498	0.052	0.0058
283.15	0.0574	0.0365	0.0058
283.15	0.0667	0.0227	0.006
283.15	0.0759	0.0108	0.0063
283.15	0.0846	0	
323.15	0.165	0.1876	0.0175
323.15	0.1751	0.1634	0.0144
323.15	0.1905	0.1403	0.0132
323.15	0.2059	0.1153	0.0123
323.15	0.2264	0.0903	0.0108
323.15	0.2481	0.068	0.0103
323.15	0.2691	0.0475	0.0096
323.15	0.2982	0.0238	0.0093
323.15	0.3301	0	

System: acetone + 3-nitro-1,2-benzenedicarboxylic acid anhydride + 4-nitro-1,2-benzenedicarboxylic acid anhydride; phases: Liquid, Crystal, Crystal
Fixed: Pressure, kPa = 101
Property: Mass fraction of 3-nitro-1,2-benzenedicarboxylic acid anhydride (Liquid); method: Chromatography
Temperature, K	Mass fraction of 3-nitro-1,2-benzenedicarboxylic acid anhydride	uncertainty
283.15	0.0306	0.0012
323.15	0.1571	0.0063

System: acetone + 3-nitro-1,2-benzenedicarboxylic acid anhydride + 4-nitro-1,2-benzenedicarboxylic acid anhydride; phases: Liquid, Crystal, Crystal
Fixed: Pressure, kPa = 101
Property: Mass fraction of 4-nitro-1,2-benzenedicarboxylic acid anhydride (Liquid); method: Chromatography
Temperature, K	Mass fraction of 4-nitro-1,2-benzenedicarboxylic acid anhydride	uncertainty
283.15	0.1198	0.0048
323.15	0.207	0.0083

System: acetone + 3-nitro-1,2-benzenedicarboxylic acid anhydride + 4-nitro-1,2-benzenedicarboxylic acid anhydride; phases: Liquid, Crystal
Fixed: Pressure, kPa = 101
Property: Mass density, kg/m3 (Liquid); method: HPLC
Temperature, K	Mass fraction of 4-nitro-1,2-benzenedicarboxylic acid anhydride	Mass density, kg/m3	uncertainty
293.15	0	1045.2	1
293.15	0.0096	1045.3	1
293.15	0.0215	1054.4	1.2
323.15	0	1077.2	1
323.15	0.0254	1083.4	1.1
323.15	0.0516	1094.7	1.4
323.15	0.0806	1110.9	2.2
323.15	0.1087	1130	2.9
323.15	0.1339	1144.1	3.2

System: acetone + 3-nitro-1,2-benzenedicarboxylic acid anhydride + 4-nitro-1,2-benzenedicarboxylic acid anhydride; phases: Liquid, Crystal
Fixed: Pressure, kPa = 101
Property: Mass density, kg/m3 (Liquid); method: HPLC
Temperature, K	Mass fraction of 4-nitro-1,2-benzenedicarboxylic acid anhydride	Mass density, kg/m3	uncertainty
283.15	0.0325	1055.2	2.6
283.15	0.0356	1049.6	1.9
283.15	0.0423	1043.4	2.1
283.15	0.0498	1035.9	2.2
283.15	0.0574	1031.2	2.2
283.15	0.0667	1026.1	2.3
283.15	0.0759	1023	2.3
283.15	0.0846	1020.4	2.5
323.15	0.165	1152.7	2.3
323.15	0.1751	1149.5	2.5
323.15	0.1905	1144.5	2.2
323.15	0.2059	1141.7	1.8
323.15	0.2264	1138.2	1.2
323.15	0.2481	1139.1	1.1
323.15	0.2691	1140.3	1.3
323.15	0.2982	1142.6	1.7
323.15	0.3301	1147.2	2.2

System: acetone + 3-nitro-1,2-benzenedicarboxylic acid anhydride + 4-nitro-1,2-benzenedicarboxylic acid anhydride; phases: Liquid, Crystal, Crystal
Fixed: Pressure, kPa = 101
Property: Mass density, kg/m3 (Liquid); method: HPLC
Temperature, K	Mass density, kg/m3	uncertainty
283.15	1062.1	1
323.15	1158.2	1

System: acetone + 3-nitro-1,2-benzenedicarboxylic acid anhydride; phases: Liquid, Crystal
Fixed: Pressure, kPa = 101
Property: Mass fraction of 3-nitro-1,2-benzenedicarboxylic acid anhydride (Liquid); method: Chromatography
Temperature, K	Mass fraction of 3-nitro-1,2-benzenedicarboxylic acid anhydride	uncertainty
283.15	0.117	0.0047
323.15	0.2064	0.0083

System: acetone + 3-nitro-1,2-benzenedicarboxylic acid anhydride; phases: Liquid, Crystal
Fixed: Pressure, kPa = 101
Property: Mass density, kg/m3 (Liquid); method: HPLC
Temperature, K	Mass density, kg/m3	uncertainty
293.15	1045.2	1
323.15	1077.2	1

System: acetone + 4-nitro-1,2-benzenedicarboxylic acid anhydride; phases: Liquid, Crystal
Fixed: Pressure, kPa = 101
Property: Mass fraction of 4-nitro-1,2-benzenedicarboxylic acid anhydride (Liquid); method: Chromatography
Temperature, K	Mass fraction of 4-nitro-1,2-benzenedicarboxylic acid anhydride	uncertainty
283.15	0.0846	0.0034
323.15	0.3301	0.0132

System: acetone + 4-nitro-1,2-benzenedicarboxylic acid anhydride; phases: Liquid, Crystal
Fixed: Pressure, kPa = 101
Property: Mass density, kg/m3 (Liquid); method: Pycnometric method
Temperature, K	Mass density, kg/m3	uncertainty
283.15	1020.4	1.1
323.15	1147.2	1.1
