Measured thermophysical data. Partial Molar Isentropic Compressions and Partial Molar Volumes of Isomeric Butanediols at Infinite Dilution in Water at Temperatures T = (278 to 318) K and Atmospheric Pressure
Source: J. Chem. Eng. Data, 2013, 10.1021/je301082y
Compound 1: 1,2-butanediol, C4H10O2, InChI=1S/C4H10O2/c1-2-4(6)3-5/h4-6H,2-3H2,1H3, purity 98%
Compound 2: 1,3-butanediol, C4H10O2, InChI=1S/C4H10O2/c1-4(6)2-3-5/h4-6H,2-3H2,1H3, purity 99%
Compound 3: 1,4-butanediol, C4H10O2, InChI=1S/C4H10O2/c5-3-1-2-4-6/h5-6H,1-4H2, purity 99%
Compound 4: 2,3-butanediol, C4H10O2, InChI=1S/C4H10O2/c1-3(5)4(2)6/h3-6H,1-2H3, purity 98%
Compound 5: water, H2O, InChI=1S/H2O/h1H2, purity 99.8%

System: 2,3-butanediol + water; phases: Liquid
Fixed: Pressure, kPa = 101
Property: Speed of sound, m/s (Liquid); method: LVPAI:UFactor:0.5
Temperature, K	Molality, mol/kg of 2,3-butanediol	Speed of sound, m/s	uncertainty
278.15	0.100931	8.39	0.35
278.15	0.15081	12.5	0.35
278.15	0.199859	16.52	0.36
278.15	0.249794	20.56	0.36
278.15	0.299551	24.6	0.37
278.15	0.349849	28.65	0.37
278.15	0.100931	8.39	0.35
278.15	0.15081	12.49	0.35
278.15	0.199859	16.51	0.36
278.15	0.249794	20.59	0.36
278.15	0.299551	24.59	0.37
278.15	0.349849	28.63	0.37
278.15	0.100931	8.39	0.35
278.15	0.15081	12.5	0.35
278.15	0.199859	16.53	0.36
278.15	0.249794	20.62	0.36
278.15	0.299551	24.62	0.37
278.15	0.349849	28.67	0.37
283.15	0.100931	7.73	0.35
283.15	0.15081	11.52	0.35
283.15	0.199859	15.23	0.36
283.15	0.249794	18.99	0.36
283.15	0.299551	22.74	0.37
283.15	0.349849	26.48	0.37
283.15	0.100931	7.74	0.35
283.15	0.15081	11.54	0.35
283.15	0.199859	15.24	0.36
283.15	0.249794	18.98	0.36
283.15	0.299551	22.73	0.37
283.15	0.349849	26.48	0.37
283.15	0.100931	7.74	0.35
283.15	0.15081	11.53	0.35
283.15	0.199859	15.25	0.36
283.15	0.249794	18.98	0.36
283.15	0.299551	22.75	0.37
283.15	0.349849	26.5	0.37
288.15	0.100931	7.2	0.34
288.15	0.15081	10.72	0.35
288.15	0.199859	14.17	0.36
288.15	0.249794	17.67	0.36
288.15	0.299551	21.12	0.37
288.15	0.349849	24.58	0.37
288.15	0.100931	7.2	0.34
288.15	0.15081	10.72	0.35
288.15	0.199859	14.15	0.36
288.15	0.249794	17.64	0.36
288.15	0.299551	21.07	0.37
288.15	0.349849	24.53	0.37
288.15	0.100931	7.21	0.34
288.15	0.15081	10.73	0.35
288.15	0.199859	14.17	0.36
288.15	0.249794	17.67	0.36
288.15	0.299551	21.11	0.37
288.15	0.349849	24.61	0.37
293.15	0.100931	6.67	0.34
293.15	0.15081	9.94	0.35
293.15	0.199859	13.15	0.36
293.15	0.249794	16.36	0.36
293.15	0.299551	19.59	0.37
293.15	0.349849	22.8	0.37
293.15	0.100931	6.67	0.34
293.15	0.15081	9.94	0.35
293.15	0.199859	13.14	0.36
293.15	0.249794	16.36	0.36
293.15	0.299551	19.58	0.37
293.15	0.349849	22.8	0.37
293.15	0.100931	6.67	0.34
293.15	0.15081	9.94	0.35
293.15	0.199859	13.14	0.36
293.15	0.249794	16.35	0.36
293.15	0.299551	19.58	0.37
293.15	0.349849	22.8	0.37
298.15	0.100931	6.22	0.34
298.15	0.15081	9.26	0.35
298.15	0.199859	12.24	0.36
298.15	0.249794	15.25	0.36
298.15	0.299551	18.21	0.37
298.15	0.349849	21.18	0.37
298.15	0.100931	6.22	0.34
298.15	0.15081	9.25	0.35
298.15	0.199859	12.23	0.36
298.15	0.249794	15.24	0.36
298.15	0.299551	18.2	0.37
298.15	0.349849	21.18	0.37
303.15	0.100931	5.78	0.34
303.15	0.15081	8.59	0.35
303.15	0.199859	11.34	0.36
303.15	0.249794	14.14	0.36
303.15	0.299551	16.88	0.37
303.15	0.349849	19.64	0.37
303.15	0.100931	5.79	0.34
303.15	0.15081	8.6	0.35
303.15	0.199859	11.36	0.36
303.15	0.249794	14.15	0.36
303.15	0.299551	16.88	0.37
303.15	0.349849	19.64	0.37
303.15	0.100931	5.78	0.34
303.15	0.15081	8.61	0.35
303.15	0.199859	11.37	0.36
303.15	0.249794	14.17	0.36
303.15	0.299551	16.91	0.37
303.15	0.349849	19.68	0.37
308.15	0.100931	5.34	0.34
308.15	0.15081	7.96	0.35
308.15	0.199859	10.51	0.36
308.15	0.249794	13.12	0.36
308.15	0.299551	15.67	0.37
308.15	0.349849	18.25	0.37
308.15	0.100931	5.31	0.34
308.15	0.15081	7.94	0.35
308.15	0.199859	10.51	0.36
308.15	0.249794	13.13	0.36
308.15	0.299551	15.7	0.37
308.15	0.349849	18.28	0.37
308.15	0.100931	5.4	0.34
308.15	0.15081	8	0.35
308.15	0.199859	10.54	0.36
308.15	0.249794	13.13	0.36
308.15	0.299551	15.65	0.37
308.15	0.349849	18.21	0.37
318.15	0.100931	4.56	0.34
318.15	0.15081	6.84	0.35
318.15	0.199859	9.04	0.36
318.15	0.249794	11.2	0.36
318.15	0.299551	13.33	0.37
318.15	0.349849	15.56	0.37
318.15	0.100931	4.51	0.34
318.15	0.15081	6.78	0.35
318.15	0.199859	8.99	0.36
318.15	0.249794	11.2	0.36
318.15	0.299551	13.55	0.37
318.15	0.349849	15.77	0.37
318.15	0.100931	4.66	0.34
318.15	0.15081	6.88	0.35
318.15	0.199859	9.02	0.36
318.15	0.249794	11.22	0.36
318.15	0.299551	13.32	0.37
318.15	0.349849	15.45	0.37

System: 2,3-butanediol + water; phases: Liquid
Fixed: Pressure, kPa = 101
Property: Mass density, kg/m3 (Liquid); method: VIBTUB:UFactor:0.5
Temperature, K	Molality, mol/kg of 2,3-butanediol	Mass density, kg/m3	uncertainty
278.15	0.100931	0.437	0.016
278.15	0.15081	0.661	0.016
278.15	0.199859	0.885	0.016
278.15	0.299551	1.356	0.016
278.15	0.349849	1.599	0.016
278.15	0.100931	0.438	0.016
278.15	0.15081	0.662	0.016
278.15	0.199859	0.886	0.016
278.15	0.299551	1.357	0.016
278.15	0.349849	1.6	0.016
278.15	0.100931	0.437	0.016
278.15	0.15081	0.662	0.016
278.15	0.199859	0.887	0.016
278.15	0.299551	1.358	0.016
278.15	0.349849	1.601	0.016
283.15	0.100931	0.424	0.016
283.15	0.15081	0.642	0.016
283.15	0.199859	0.859	0.016
283.15	0.299551	1.312	0.016
283.15	0.349849	1.544	0.016
283.15	0.100931	0.425	0.016
283.15	0.15081	0.641	0.016
283.15	0.199859	0.858	0.016
283.15	0.299551	1.311	0.016
283.15	0.349849	1.543	0.016
283.15	0.100931	0.424	0.016
283.15	0.15081	0.642	0.016
283.15	0.199859	0.858	0.016
283.15	0.299551	1.312	0.016
283.15	0.349849	1.545	0.016
288.15	0.100931	0.413	0.016
288.15	0.15081	0.623	0.016
288.15	0.199859	0.832	0.016
288.15	0.299551	1.268	0.016
288.15	0.349849	1.492	0.016
288.15	0.100931	0.414	0.016
288.15	0.15081	0.623	0.016
288.15	0.199859	0.833	0.016
288.15	0.299551	1.269	0.016
288.15	0.349849	1.493	0.016
288.15	0.100931	0.413	0.016
288.15	0.15081	0.622	0.016
288.15	0.199859	0.833	0.016
288.15	0.299551	1.268	0.016
288.15	0.349849	1.492	0.016
293.15	0.100931	0.401	0.016
293.15	0.15081	0.605	0.016
293.15	0.199859	0.807	0.016
293.15	0.299551	1.227	0.016
293.15	0.349849	1.442	0.016
293.15	0.100931	0.401	0.016
293.15	0.15081	0.605	0.016
293.15	0.199859	0.807	0.016
293.15	0.299551	1.227	0.016
293.15	0.349849	1.442	0.016
293.15	0.100931	0.401	0.016
293.15	0.15081	0.605	0.016
293.15	0.199859	0.808	0.016
293.15	0.299551	1.228	0.016
293.15	0.349849	1.443	0.016
298.15	0.100931	0.389	0.016
298.15	0.15081	0.587	0.016
298.15	0.199859	0.783	0.016
298.15	0.299551	1.187	0.016
298.15	0.349849	1.394	0.016
298.15	0.100931	0.389	0.016
298.15	0.15081	0.587	0.016
298.15	0.199859	0.783	0.016
298.15	0.299551	1.187	0.016
298.15	0.349849	1.394	0.016
303.15	0.100931	0.378	0.016
303.15	0.15081	0.568	0.016
303.15	0.199859	0.758	0.016
303.15	0.299551	1.148	0.016
303.15	0.349849	1.347	0.016
303.15	0.100931	0.378	0.016
303.15	0.15081	0.568	0.016
303.15	0.199859	0.759	0.016
303.15	0.299551	1.149	0.016
303.15	0.349849	1.347	0.016
303.15	0.100931	0.378	0.016
303.15	0.15081	0.569	0.016
303.15	0.199859	0.758	0.016
303.15	0.299551	1.148	0.016
303.15	0.349849	1.348	0.016
308.15	0.100931	0.367	0.016
308.15	0.15081	0.552	0.016
308.15	0.199859	0.733	0.016
308.15	0.299551	1.108	0.016
308.15	0.349849	1.298	0.016
308.15	0.100931	0.367	0.016
308.15	0.15081	0.552	0.016
308.15	0.199859	0.735	0.016
308.15	0.299551	1.11	0.016
308.15	0.349849	1.301	0.016
308.15	0.100931	0.368	0.016
308.15	0.15081	0.552	0.016
308.15	0.199859	0.735	0.016
308.15	0.299551	1.111	0.016
308.15	0.349849	1.303	0.016
318.15	0.100931	0.341	0.016
318.15	0.15081	0.512	0.016
318.15	0.199859	0.681	0.016
318.15	0.299551	1.027	0.016
318.15	0.349849	1.202	0.016
318.15	0.100931	0.341	0.016
318.15	0.15081	0.51	0.02
318.15	0.199859	0.678	0.016
318.15	0.299551	1.027	0.016
318.15	0.349849	1.201	0.016
318.15	0.100931	0.341	0.016
318.15	0.15081	0.512	0.016
318.15	0.199859	0.681	0.016
318.15	0.299551	1.028	0.016
318.15	0.349849	1.202	0.016

System: 1,2-butanediol + water; phases: Liquid
Fixed: Pressure, kPa = 101
Property: Speed of sound, m/s (Liquid); method: LVPAI:UFactor:0.5
Temperature, K	Molality, mol/kg of 1,2-butanediol	Speed of sound, m/s	uncertainty
278.15	0.05004	4.23	0.34
278.15	0.10321	8.66	0.35
278.15	0.15008	12.54	0.35
278.15	0.20002	16.64	0.36
278.15	0.25008	20.7	0.36
278.15	0.30012	24.75	0.37
278.15	0.05004	4.21	0.34
278.15	0.10321	8.63	0.35
278.15	0.15008	12.51	0.35
278.15	0.20002	16.64	0.36
278.15	0.25008	20.71	0.36
278.15	0.30012	24.74	0.37
278.15	0.05004	4.21	0.34
278.15	0.10321	8.66	0.35
278.15	0.15008	12.55	0.35
278.15	0.20002	16.64	0.36
278.15	0.25008	20.73	0.36
278.15	0.30012	24.77	0.37
283.15	0.05004	3.89	0.34
283.15	0.10321	7.97	0.35
283.15	0.15008	11.55	0.35
283.15	0.20002	15.33	0.36
283.15	0.25008	19.09	0.36
283.15	0.30012	22.82	0.37
283.15	0.05004	3.87	0.34
283.15	0.10321	7.97	0.35
283.15	0.15008	11.54	0.35
283.15	0.20002	15.33	0.36
283.15	0.25008	19.09	0.36
283.15	0.30012	22.83	0.37
283.15	0.05004	3.89	0.34
283.15	0.10321	7.98	0.35
283.15	0.15008	11.55	0.35
283.15	0.20002	15.34	0.36
283.15	0.25008	19.11	0.36
283.15	0.30012	22.85	0.37
288.15	0.05004	3.59	0.34
288.15	0.10321	7.38	0.35
288.15	0.15008	10.67	0.35
288.15	0.20002	14.18	0.36
288.15	0.25008	17.66	0.36
288.15	0.30012	21.1	0.37
288.15	0.05004	3.6	0.34
288.15	0.10321	7.38	0.35
288.15	0.15008	10.71	0.35
288.15	0.20002	14.18	0.36
288.15	0.25008	17.67	0.36
288.15	0.30012	21.12	0.37
288.15	0.05004	3.59	0.34
288.15	0.10321	7.39	0.35
288.15	0.15008	10.7	0.35
288.15	0.20002	14.19	0.36
288.15	0.25008	17.66	0.36
288.15	0.30012	21.11	0.37
293.15	0.05004	3.33	0.34
293.15	0.10321	6.84	0.35
293.15	0.15008	9.88	0.35
293.15	0.20002	13.13	0.36
293.15	0.25008	16.33	0.36
293.15	0.30012	19.52	0.37
293.15	0.05004	3.33	0.34
293.15	0.10321	6.83	0.35
293.15	0.15008	9.88	0.35
293.15	0.20002	13.13	0.36
293.15	0.25008	16.33	0.36
293.15	0.30012	19.52	0.37
293.15	0.05004	3.32	0.34
293.15	0.10321	6.83	0.35
293.15	0.15008	9.89	0.35
293.15	0.20002	13.13	0.36
293.15	0.25008	16.34	0.36
293.15	0.30012	19.53	0.37
298.15	0.05004	3.07	0.34
298.15	0.10321	6.32	0.34
298.15	0.15008	9.11	0.35
298.15	0.20002	12.1	0.36
298.15	0.25008	15.08	0.36
298.15	0.30012	18.03	0.37
298.15	0.05004	3.07	0.34
298.15	0.10321	6.31	0.34
298.15	0.15008	9.15	0.35
298.15	0.20002	12.15	0.36
298.15	0.25008	15.13	0.36
298.15	0.30012	18.06	0.37
298.15	0.05004	3.08	0.34
298.15	0.10321	6.3	0.34
298.15	0.15008	9.15	0.35
298.15	0.20002	12.16	0.36
298.15	0.25008	15.13	0.36
298.15	0.30012	18.06	0.37
303.15	0.05004	2.84	0.34
303.15	0.10321	5.85	0.34
303.15	0.15008	8.46	0.35
303.15	0.20002	11.23	0.36
303.15	0.25008	13.97	0.36
303.15	0.30012	16.68	0.37
303.15	0.05004	2.86	0.34
303.15	0.10321	5.86	0.34
303.15	0.15008	8.47	0.35
303.15	0.20002	11.24	0.36
303.15	0.25008	13.97	0.36
303.15	0.30012	16.69	0.37
303.15	0.05004	2.85	0.34
303.15	0.10321	5.86	0.34
303.15	0.15008	8.48	0.35
303.15	0.20002	11.24	0.36
303.15	0.25008	13.98	0.36
303.15	0.30012	16.7	0.37
308.15	0.05004	2.6	0.34
308.15	0.10321	5.38	0.34
308.15	0.15008	7.8	0.35
308.15	0.20002	10.34	0.36
308.15	0.25008	12.88	0.36
308.15	0.30012	15.39	0.37
308.15	0.05004	2.63	0.34
308.15	0.10321	5.4	0.34
308.15	0.15008	7.81	0.35
308.15	0.20002	10.36	0.36
308.15	0.25008	12.89	0.36
308.15	0.30012	15.41	0.37
308.15	0.05004	2.61	0.34
308.15	0.10321	5.38	0.34
308.15	0.15008	7.81	0.35
308.15	0.20002	10.35	0.36
308.15	0.25008	12.89	0.36
308.15	0.30012	15.41	0.37
318.15	0.05004	2.23	0.66
318.15	0.10321	4.59	0.66
318.15	0.15008	6.64	0.67
318.15	0.20002	8.8	0.67
318.15	0.25008	10.94	0.67
318.15	0.30012	13.05	0.67
318.15	0.05004	2.23	0.66
318.15	0.10321	4.59	0.66
318.15	0.15008	6.65	0.67
318.15	0.20002	8.81	0.67
318.15	0.25008	10.95	0.67
318.15	0.30012	13.06	0.67
318.15	0.05004	2.26	0.66
318.15	0.10321	4.62	0.66
318.15	0.15008	6.65	0.67
318.15	0.20002	8.82	0.67
318.15	0.25008	10.94	0.67
318.15	0.30012	13.06	0.67

System: 1,2-butanediol + water; phases: Liquid
Fixed: Pressure, kPa = 101
Property: Mass density, kg/m3 (Liquid); method: VIBTUB:UFactor:0.5
Temperature, K	Molality, mol/kg of 1,2-butanediol	Mass density, kg/m3	uncertainty
278.15	0.05004	0.24	0.016
278.15	0.10321	0.502	0.016
278.15	0.15008	0.737	0.016
278.15	0.20002	0.991	0.016
278.15	0.25008	1.247	0.016
278.15	0.30012	1.509	0.016
278.15	0.05004	0.241	0.016
278.15	0.10321	0.503	0.016
278.15	0.15008	0.738	0.016
278.15	0.20002	0.989	0.016
278.15	0.25008	1.248	0.016
278.15	0.30012	1.51	0.016
278.15	0.05004	0.24	0.016
278.15	0.10321	0.502	0.016
278.15	0.15008	0.737	0.016
278.15	0.20002	0.991	0.016
278.15	0.25008	1.248	0.016
278.15	0.30012	1.509	0.016
283.15	0.05004	0.229	0.016
283.15	0.10321	0.479	0.016
283.15	0.15008	0.703	0.016
283.15	0.20002	0.943	0.016
283.15	0.25008	1.187	0.016
283.15	0.30012	1.435	0.016
283.15	0.05004	0.231	0.016
283.15	0.10321	0.48	0.016
283.15	0.15008	0.702	0.016
283.15	0.20002	0.945	0.016
283.15	0.25008	1.188	0.016
283.15	0.30012	1.436	0.016
283.15	0.05004	0.229	0.016
283.15	0.10321	0.479	0.016
283.15	0.15008	0.703	0.016
283.15	0.20002	0.944	0.016
283.15	0.25008	1.189	0.016
283.15	0.30012	1.435	0.016
288.15	0.05004	0.22	0.016
288.15	0.10321	0.458	0.016
288.15	0.15008	0.67	0.016
288.15	0.20002	0.9	0.016
288.15	0.25008	1.132	0.016
288.15	0.30012	1.367	0.016
288.15	0.05004	0.219	0.016
288.15	0.10321	0.458	0.016
288.15	0.15008	0.671	0.016
288.15	0.20002	0.9	0.016
288.15	0.25008	1.132	0.016
288.15	0.30012	1.367	0.016
288.15	0.05004	0.219	0.016
288.15	0.10321	0.458	0.016
288.15	0.15008	0.672	0.016
288.15	0.20002	0.901	0.016
288.15	0.25008	1.135	0.016
288.15	0.30012	1.37	0.016
293.15	0.05004	0.211	0.016
293.15	0.10321	0.439	0.016
293.15	0.15008	0.642	0.016
293.15	0.20002	0.861	0.016
293.15	0.25008	1.082	0.016
293.15	0.30012	1.305	0.016
293.15	0.05004	0.21	0.016
293.15	0.10321	0.438	0.016
293.15	0.15008	0.641	0.016
293.15	0.20002	0.86	0.016
293.15	0.25008	1.082	0.016
293.15	0.30012	1.306	0.016
293.15	0.05004	0.211	0.016
293.15	0.10321	0.439	0.016
293.15	0.15008	0.642	0.016
293.15	0.20002	0.862	0.016
293.15	0.25008	1.084	0.016
293.15	0.30012	1.306	0.016
298.15	0.05004	0.202	0.016
298.15	0.10321	0.42	0.016
298.15	0.15008	0.614	0.016
298.15	0.20002	0.823	0.016
298.15	0.25008	1.033	0.016
298.15	0.30012	1.246	0.016
298.15	0.05004	0.202	0.016
298.15	0.10321	0.42	0.016
298.15	0.15008	0.615	0.016
298.15	0.20002	0.823	0.016
298.15	0.25008	1.033	0.016
298.15	0.30012	1.245	0.016
298.15	0.05004	0.202	0.016
298.15	0.10321	0.42	0.016
298.15	0.15008	0.615	0.016
298.15	0.20002	0.823	0.016
298.15	0.25008	1.034	0.016
298.15	0.30012	1.246	0.016
303.15	0.05004	0.194	0.016
303.15	0.10321	0.403	0.016
303.15	0.15008	0.587	0.016
303.15	0.20002	0.787	0.016
303.15	0.25008	0.987	0.016
303.15	0.30012	1.189	0.016
303.15	0.05004	0.194	0.016
303.15	0.10321	0.404	0.016
303.15	0.15008	0.589	0.016
303.15	0.20002	0.787	0.016
303.15	0.25008	0.988	0.016
303.15	0.30012	1.189	0.016
303.15	0.05004	0.194	0.016
303.15	0.10321	0.405	0.016
303.15	0.15008	0.588	0.016
303.15	0.20002	0.788	0.016
303.15	0.25008	0.988	0.016
303.15	0.30012	1.189	0.016
308.15	0.05004	0.186	0.016
308.15	0.10321	0.387	0.016
308.15	0.15008	0.563	0.016
308.15	0.20002	0.752	0.016
308.15	0.25008	0.942	0.016
308.15	0.30012	1.136	0.016
308.15	0.05004	0.186	0.016
308.15	0.10321	0.385	0.016
308.15	0.15008	0.561	0.016
308.15	0.20002	0.752	0.016
308.15	0.25008	0.941	0.016
308.15	0.30012	1.134	0.016
308.15	0.05004	0.186	0.016
308.15	0.10321	0.386	0.016
308.15	0.15008	0.563	0.016
308.15	0.20002	0.752	0.016
308.15	0.25008	0.943	0.016
308.15	0.30012	1.136	0.016
318.15	0.05004	0.169	0.016
318.15	0.10321	0.35	0.016
318.15	0.15008	0.51	0.016
318.15	0.20002	0.68	0.016
318.15	0.25008	0.852	0.016
318.15	0.30012	1.025	0.016
318.15	0.05004	0.169	0.016
318.15	0.10321	0.35	0.016
318.15	0.15008	0.51	0.016
318.15	0.20002	0.68	0.016
318.15	0.25008	0.852	0.016
318.15	0.30012	1.024	0.016
318.15	0.05004	0.17	0.016
318.15	0.10321	0.351	0.016
318.15	0.15008	0.511	0.016
318.15	0.20002	0.682	0.016
318.15	0.25008	0.854	0.016
318.15	0.30012	1.026	0.016

System: 1,3-butanediol + water; phases: Liquid
Fixed: Pressure, kPa = 101
Property: Speed of sound, m/s (Liquid); method: LVPAI:UFactor:0.5
Temperature, K	Molality, mol/kg of 1,3-butanediol	Speed of sound, m/s	uncertainty
278.15	0.100101	7.32	0.34
278.15	0.152009	11.04	0.34
278.15	0.200535	14.51	0.35
278.15	0.250559	18.06	0.35
278.15	0.302953	21.71	0.35
278.15	0.350636	25.1	0.35
278.15	0.100101	7.31	0.34
278.15	0.152009	11.05	0.34
278.15	0.200535	14.53	0.35
278.15	0.250559	18.1	0.35
278.15	0.302953	21.76	0.35
278.15	0.350636	25.17	0.35
278.15	0.100101	7.32	0.34
278.15	0.152009	11.04	0.34
278.15	0.200535	14.53	0.35
278.15	0.250559	18.09	0.35
278.15	0.302953	21.76	0.35
278.15	0.350636	25.16	0.35
283.15	0.100101	6.68	0.34
283.15	0.152009	10.14	0.34
283.15	0.200535	13.31	0.34
283.15	0.250559	16.61	0.35
283.15	0.302953	19.98	0.35
283.15	0.350636	23.11	0.35
283.15	0.100101	6.69	0.34
283.15	0.152009	10.13	0.34
283.15	0.200535	13.32	0.34
283.15	0.250559	16.6	0.35
283.15	0.302953	19.97	0.35
283.15	0.350636	23.11	0.35
283.15	0.100101	6.7	0.34
283.15	0.152009	10.13	0.34
283.15	0.200535	13.34	0.34
283.15	0.250559	16.62	0.35
283.15	0.302953	19.98	0.35
283.15	0.350636	23.12	0.35
288.15	0.100101	6.18	0.34
288.15	0.152009	9.36	0.34
288.15	0.200535	12.3	0.34
288.15	0.250559	15.29	0.35
288.15	0.302953	18.39	0.35
288.15	0.350636	21.26	0.35
288.15	0.100101	6.21	0.34
288.15	0.152009	9.37	0.34
288.15	0.200535	12.3	0.34
288.15	0.250559	15.3	0.35
288.15	0.302953	18.38	0.35
288.15	0.350636	21.3	0.35
288.15	0.100101	6.17	0.34
288.15	0.152009	9.35	0.34
288.15	0.200535	12.27	0.34
288.15	0.250559	15.28	0.35
288.15	0.302953	18.41	0.35
288.15	0.350636	21.28	0.35
293.15	0.100101	5.7	0.34
293.15	0.152009	8.63	0.34
293.15	0.200535	11.35	0.34
293.15	0.250559	14.12	0.35
293.15	0.302953	16.98	0.35
293.15	0.350636	19.63	0.35
293.15	0.100101	5.7	0.34
293.15	0.152009	8.63	0.34
293.15	0.200535	11.35	0.34
293.15	0.250559	14.13	0.35
293.15	0.302953	16.98	0.35
293.15	0.350636	19.62	0.35
293.15	0.100101	5.7	0.34
293.15	0.152009	8.63	0.34
293.15	0.200535	11.35	0.34
293.15	0.250559	14.13	0.35
293.15	0.302953	17	0.35
293.15	0.350636	19.64	0.35
298.15	0.100101	5.28	0.34
298.15	0.152009	7.99	0.34
298.15	0.200535	10.49	0.34
298.15	0.250559	13.07	0.35
298.15	0.302953	15.7	0.35
298.15	0.350636	18.16	0.35
298.15	0.100101	5.27	0.34
298.15	0.152009	7.99	0.34
298.15	0.200535	10.48	0.34
298.15	0.250559	13.06	0.35
298.15	0.302953	15.69	0.35
298.15	0.350636	18.15	0.35
303.15	0.100101	4.85	0.34
303.15	0.152009	7.37	0.34
303.15	0.200535	9.65	0.34
303.15	0.250559	12.02	0.35
303.15	0.302953	14.45	0.35
303.15	0.350636	16.72	0.35
303.15	0.100101	4.89	0.34
303.15	0.152009	7.36	0.34
303.15	0.200535	9.7	0.34
303.15	0.250559	12.07	0.35
303.15	0.302953	14.51	0.35
303.15	0.350636	16.76	0.35
303.15	0.100101	4.88	0.34
303.15	0.152009	7.34	0.34
303.15	0.200535	9.7	0.34
303.15	0.250559	12.07	0.35
303.15	0.302953	14.5	0.35
303.15	0.350636	16.75	0.35
308.15	0.100101	4.5	0.34
308.15	0.152009	6.8	0.34
308.15	0.200535	8.94	0.34
308.15	0.250559	11.12	0.35
308.15	0.302953	13.37	0.35
308.15	0.350636	15.44	0.35
308.15	0.100101	4.46	0.34
308.15	0.152009	6.77	0.34
308.15	0.200535	8.93	0.34
308.15	0.250559	11.12	0.35
308.15	0.302953	13.39	0.35
308.15	0.350636	15.49	0.35
308.15	0.100101	4.52	0.34
308.15	0.152009	6.81	0.34
308.15	0.200535	8.95	0.34
308.15	0.250559	11.13	0.35
308.15	0.302953	13.38	0.35
308.15	0.350636	15.45	0.35
318.15	0.100101	3.85	0.66
318.15	0.152009	5.7	0.66
318.15	0.200535	7.57	0.66
318.15	0.250559	9.43	0.66
318.15	0.302953	11.34	0.66
318.15	0.350636	13.09	0.67
318.15	0.100101	3.72	0.66
318.15	0.152009	5.62	0.66
318.15	0.200535	7.55	0.66
318.15	0.250559	9.49	0.66
318.15	0.302953	11.45	0.66
318.15	0.350636	13.28	0.67
318.15	0.100101	3.88	0.66
318.15	0.152009	5.82	0.66
318.15	0.200535	7.49	0.66
318.15	0.250559	9.33	0.66
318.15	0.302953	11.23	0.66
318.15	0.350636	12.95	0.67

System: 1,3-butanediol + water; phases: Liquid
Fixed: Pressure, kPa = 101
Property: Mass density, kg/m3 (Liquid); method: VIBTUB:UFactor:0.5
Temperature, K	Molality, mol/kg of 1,3-butanediol	Mass density, kg/m3	uncertainty
278.15	0.100101	0.239	0.016
278.15	0.152009	0.369	0.016
278.15	0.200535	0.499	0.016
278.15	0.250559	0.636	0.016
278.15	0.302953	0.785	0.016
278.15	0.350636	0.924	0.016
278.15	0.100101	0.239	0.016
278.15	0.152009	0.371	0.016
278.15	0.200535	0.501	0.016
278.15	0.250559	0.639	0.016
278.15	0.302953	0.788	0.016
278.15	0.350636	0.928	0.016
278.15	0.100101	0.238	0.016
278.15	0.152009	0.372	0.016
278.15	0.200535	0.502	0.016
278.15	0.250559	0.64	0.016
278.15	0.302953	0.789	0.016
278.15	0.350636	0.929	0.016
283.15	0.100101	0.233	0.016
283.15	0.152009	0.359	0.016
283.15	0.200535	0.485	0.016
283.15	0.250559	0.616	0.016
283.15	0.302953	0.759	0.016
283.15	0.350636	0.892	0.016
283.15	0.100101	0.231	0.016
283.15	0.152009	0.36	0.016
283.15	0.200535	0.484	0.016
283.15	0.250559	0.615	0.016
283.15	0.302953	0.758	0.016
283.15	0.350636	0.892	0.016
283.15	0.100101	0.231	0.016
283.15	0.152009	0.359	0.016
283.15	0.200535	0.486	0.016
283.15	0.250559	0.616	0.016
283.15	0.302953	0.758	0.016
283.15	0.350636	0.891	0.016
288.15	0.100101	0.225	0.016
288.15	0.152009	0.348	0.016
288.15	0.200535	0.469	0.016
288.15	0.250559	0.595	0.016
288.15	0.302953	0.731	0.016
288.15	0.350636	0.858	0.016
288.15	0.100101	0.225	0.016
288.15	0.152009	0.348	0.016
288.15	0.200535	0.47	0.016
288.15	0.250559	0.595	0.016
288.15	0.302953	0.731	0.016
288.15	0.350636	0.858	0.016
288.15	0.100101	0.225	0.016
288.15	0.152009	0.349	0.016
288.15	0.200535	0.469	0.016
288.15	0.250559	0.595	0.016
288.15	0.302953	0.732	0.016
288.15	0.350636	0.857	0.016
293.15	0.100101	0.219	0.016
293.15	0.152009	0.337	0.016
293.15	0.200535	0.454	0.016
293.15	0.250559	0.575	0.016
293.15	0.302953	0.707	0.016
293.15	0.350636	0.826	0.016
293.15	0.100101	0.219	0.016
293.15	0.152009	0.338	0.016
293.15	0.200535	0.454	0.016
293.15	0.250559	0.575	0.016
293.15	0.302953	0.707	0.016
293.15	0.350636	0.827	0.016
293.15	0.100101	0.219	0.016
293.15	0.152009	0.338	0.016
293.15	0.200535	0.454	0.016
293.15	0.250559	0.575	0.016
293.15	0.302953	0.706	0.016
293.15	0.350636	0.827	0.016
298.15	0.100101	0.214	0.016
298.15	0.152009	0.329	0.016
298.15	0.200535	0.441	0.016
298.15	0.250559	0.557	0.016
298.15	0.302953	0.681	0.016
298.15	0.350636	0.801	0.016
298.15	0.100101	0.213	0.016
298.15	0.152009	0.328	0.016
298.15	0.200535	0.441	0.016
298.15	0.250559	0.556	0.016
298.15	0.302953	0.682	0.016
298.15	0.350636	0.801	0.016
303.15	0.100101	0.209	0.016
303.15	0.152009	0.32	0.016
303.15	0.200535	0.428	0.016
303.15	0.250559	0.54	0.016
303.15	0.302953	0.66	0.016
303.15	0.350636	0.77	0.016
303.15	0.100101	0.208	0.016
303.15	0.152009	0.319	0.016
303.15	0.200535	0.427	0.016
303.15	0.250559	0.539	0.016
303.15	0.302953	0.659	0.016
303.15	0.350636	0.769	0.016
303.15	0.100101	0.208	0.016
303.15	0.152009	0.319	0.016
303.15	0.200535	0.427	0.016
303.15	0.250559	0.54	0.016
303.15	0.302953	0.659	0.016
303.15	0.350636	0.768	0.016
308.15	0.100101	0.201	0.016
308.15	0.152009	0.309	0.016
308.15	0.200535	0.413	0.016
308.15	0.250559	0.521	0.016
308.15	0.302953	0.634	0.016
308.15	0.350636	0.741	0.016
308.15	0.100101	0.201	0.016
308.15	0.152009	0.31	0.016
308.15	0.200535	0.414	0.016
308.15	0.250559	0.522	0.016
308.15	0.302953	0.636	0.016
308.15	0.350636	0.742	0.016
308.15	0.100101	0.201	0.016
308.15	0.152009	0.31	0.016
308.15	0.200535	0.414	0.016
308.15	0.250559	0.519	0.016
308.15	0.302953	0.637	0.016
308.15	0.350636	0.742	0.016
318.15	0.100101	0.188	0.016
318.15	0.152009	0.287	0.016
318.15	0.200535	0.383	0.016
318.15	0.250559	0.48	0.016
318.15	0.302953	0.586	0.016
318.15	0.350636	0.682	0.016
318.15	0.100101	0.186	0.016
318.15	0.152009	0.287	0.016
318.15	0.200535	0.383	0.016
318.15	0.250559	0.482	0.016
318.15	0.302953	0.587	0.016
318.15	0.350636	0.684	0.016
318.15	0.100101	0.187	0.016
318.15	0.152009	0.287	0.016
318.15	0.200535	0.382	0.016
318.15	0.250559	0.481	0.016
318.15	0.302953	0.587	0.016
318.15	0.350636	0.682	0.016

System: 1,4-butanediol + water; phases: Liquid
Fixed: Pressure, kPa = 101
Property: Speed of sound, m/s (Liquid); method: LVPAI:UFactor:0.5
Temperature, K	Molality, mol/kg of 1,4-butanediol	Speed of sound, m/s	uncertainty
278.15	0.101223	6.88	0.34
278.15	0.200259	13.54	0.34
278.15	0.301337	20.21	0.35
278.15	0.401591	26.73	0.36
278.15	0.501058	33.12	0.36
278.15	0.602697	39.56	0.37
278.15	0.101223	6.87	0.34
278.15	0.200259	13.49	0.34
278.15	0.301337	20.18	0.35
278.15	0.401591	26.69	0.36
278.15	0.501058	33.08	0.36
278.15	0.602697	39.53	0.37
278.15	0.101223	6.86	0.34
278.15	0.200259	13.49	0.34
278.15	0.301337	20.18	0.35
278.15	0.401591	26.69	0.36
278.15	0.501058	33.09	0.36
278.15	0.602697	39.53	0.37
283.15	0.101223	6.3	0.34
283.15	0.200259	12.36	0.34
283.15	0.301337	18.47	0.35
283.15	0.401591	24.46	0.36
283.15	0.501058	30.3	0.36
283.15	0.602697	36.18	0.37
283.15	0.101223	6.29	0.34
283.15	0.200259	12.36	0.34
283.15	0.301337	18.48	0.35
283.15	0.401591	24.46	0.36
283.15	0.501058	30.3	0.36
283.15	0.602697	36.18	0.37
283.15	0.101223	6.29	0.34
283.15	0.200259	12.36	0.34
283.15	0.301337	18.48	0.35
283.15	0.401591	24.46	0.36
283.15	0.501058	30.29	0.36
283.15	0.602697	36.19	0.37
288.15	0.101223	5.81	0.34
288.15	0.200259	11.4	0.34
288.15	0.301337	17	0.35
288.15	0.401591	22.49	0.36
288.15	0.501058	27.85	0.36
288.15	0.602697	33.25	0.37
288.15	0.101223	5.8	0.34
288.15	0.200259	11.39	0.34
288.15	0.301337	16.99	0.35
288.15	0.401591	22.48	0.36
288.15	0.501058	27.84	0.36
288.15	0.602697	33.24	0.37
288.15	0.101223	5.81	0.34
288.15	0.200259	11.4	0.34
288.15	0.301337	17	0.35
288.15	0.401591	22.48	0.36
288.15	0.501058	27.85	0.36
288.15	0.602697	33.26	0.37
293.15	0.101223	5.3	0.34
293.15	0.200259	10.43	0.34
293.15	0.301337	15.58	0.35
293.15	0.401591	20.7	0.35
293.15	0.501058	25.65	0.36
293.15	0.602697	30.58	0.37
293.15	0.101223	5.31	0.34
293.15	0.200259	10.45	0.34
293.15	0.301337	15.61	0.35
293.15	0.401591	20.67	0.35
293.15	0.501058	25.6	0.36
293.15	0.602697	30.57	0.37
293.15	0.101223	5.34	0.34
293.15	0.200259	10.46	0.34
293.15	0.301337	15.64	0.35
293.15	0.401591	20.69	0.35
293.15	0.501058	25.61	0.36
293.15	0.602697	30.57	0.37
298.15	0.101223	4.92	0.34
298.15	0.200259	9.66	0.34
298.15	0.301337	14.42	0.35
298.15	0.401591	19.06	0.35
298.15	0.501058	23.58	0.36
298.15	0.602697	28.12	0.36
298.15	0.101223	4.92	0.34
298.15	0.200259	9.66	0.34
298.15	0.301337	14.42	0.35
298.15	0.401591	19.06	0.35
298.15	0.501058	23.59	0.36
298.15	0.602697	28.13	0.36
298.15	0.101223	4.92	0.34
298.15	0.200259	9.66	0.34
298.15	0.301337	14.42	0.35
298.15	0.401591	19.06	0.35
298.15	0.501058	23.58	0.36
298.15	0.602697	28.13	0.36
303.15	0.101223	4.54	0.34
303.15	0.200259	8.91	0.34
303.15	0.301337	13.29	0.35
303.15	0.401591	17.55	0.35
303.15	0.501058	21.71	0.36
303.15	0.602697	25.9	0.36
308.15	0.101223	4.18	0.34
308.15	0.200259	8.19	0.34
308.15	0.301337	12.22	0.35
308.15	0.401591	16.16	0.35
308.15	0.501058	20	0.36
308.15	0.602697	23.85	0.36
308.15	0.101223	4.18	0.34
308.15	0.200259	8.2	0.34
308.15	0.301337	12.23	0.35
308.15	0.401591	16.16	0.35
308.15	0.501058	20	0.36
308.15	0.602697	23.84	0.36
308.15	0.101223	4.16	0.34
308.15	0.200259	8.19	0.34
308.15	0.301337	12.23	0.35
308.15	0.401591	16.18	0.35
308.15	0.501058	20.03	0.36
308.15	0.602697	23.89	0.36
318.15	0.101223	3.56	0.66
318.15	0.200259	6.97	0.66
318.15	0.301337	10.37	0.66
318.15	0.401591	13.68	0.67
318.15	0.501058	16.88	0.67
318.15	0.602697	20.08	0.67
318.15	0.101223	3.53	0.66
318.15	0.200259	6.97	0.66
318.15	0.301337	10.39	0.66
318.15	0.401591	13.72	0.67
318.15	0.501058	16.94	0.67
318.15	0.602697	20.18	0.67
318.15	0.101223	3.54	0.66
318.15	0.200259	6.97	0.66
318.15	0.301337	10.38	0.66
318.15	0.401591	13.69	0.67
318.15	0.501058	16.88	0.67
318.15	0.602697	20.11	0.67

System: 1,4-butanediol + water; phases: Liquid
Fixed: Pressure, kPa = 101
Property: Mass density, kg/m3 (Liquid); method: VIBTUB:UFactor:0.5
Temperature, K	Molality, mol/kg of 1,4-butanediol	Mass density, kg/m3	uncertainty
278.15	0.101223	0.242	0.016
278.15	0.200259	0.5	0.016
278.15	0.301337	0.779	0.016
278.15	0.401591	1.072	0.016
278.15	0.501058	1.374	0.016
278.15	0.602697	1.696	0.016
278.15	0.101223	0.244	0.016
278.15	0.200259	0.5	0.016
278.15	0.301337	0.78	0.016
278.15	0.401591	1.072	0.016
278.15	0.501058	1.375	0.016
278.15	0.602697	1.696	0.016
278.15	0.101223	0.243	0.016
278.15	0.200259	0.5	0.016
278.15	0.301337	0.779	0.016
278.15	0.401591	1.071	0.016
278.15	0.501058	1.374	0.016
278.15	0.602697	1.696	0.016
283.15	0.101223	0.233	0.016
283.15	0.200259	0.478	0.016
283.15	0.301337	0.742	0.016
283.15	0.401591	1.017	0.016
283.15	0.501058	1.301	0.016
283.15	0.602697	1.602	0.016
283.15	0.101223	0.233	0.016
283.15	0.200259	0.479	0.016
283.15	0.301337	0.742	0.016
283.15	0.401591	1.018	0.016
283.15	0.501058	1.301	0.016
283.15	0.602697	1.602	0.016
283.15	0.101223	0.232	0.016
283.15	0.200259	0.477	0.016
283.15	0.301337	0.742	0.016
283.15	0.401591	1.017	0.016
283.15	0.501058	1.301	0.016
283.15	0.602697	1.603	0.016
288.15	0.101223	0.225	0.016
288.15	0.200259	0.459	0.016
288.15	0.301337	0.711	0.016
288.15	0.401591	0.97	0.016
288.15	0.501058	1.238	0.016
288.15	0.602697	1.521	0.016
288.15	0.101223	0.227	0.016
288.15	0.200259	0.46	0.016
288.15	0.301337	0.712	0.016
288.15	0.401591	0.971	0.016
288.15	0.501058	1.239	0.016
288.15	0.602697	1.522	0.016
288.15	0.101223	0.225	0.016
288.15	0.200259	0.46	0.016
288.15	0.301337	0.71	0.016
288.15	0.401591	0.97	0.016
288.15	0.501058	1.24	0.016
288.15	0.602697	1.523	0.016
293.15	0.101223	0.217	0.016
293.15	0.200259	0.442	0.016
293.15	0.301337	0.682	0.016
293.15	0.401591	0.928	0.016
293.15	0.501058	1.182	0.016
293.15	0.602697	1.449	0.016
293.15	0.101223	0.217	0.016
293.15	0.200259	0.44	0.016
293.15	0.301337	0.681	0.016
293.15	0.401591	0.928	0.016
293.15	0.501058	1.183	0.016
293.15	0.602697	1.449	0.016
293.15	0.101223	0.217	0.016
293.15	0.200259	0.441	0.016
293.15	0.301337	0.683	0.016
293.15	0.401591	0.93	0.016
293.15	0.501058	1.185	0.016
293.15	0.602697	1.451	0.016
298.15	0.101223	0.212	0.016
298.15	0.200259	0.426	0.016
298.15	0.301337	0.657	0.016
298.15	0.401591	0.891	0.016
298.15	0.501058	1.132	0.016
298.15	0.602697	1.386	0.016
298.15	0.101223	0.211	0.016
298.15	0.200259	0.426	0.016
298.15	0.301337	0.655	0.016
298.15	0.401591	0.892	0.016
298.15	0.501058	1.132	0.016
298.15	0.602697	1.384	0.016
298.15	0.101223	0.211	0.016
298.15	0.200259	0.427	0.016
298.15	0.301337	0.656	0.016
298.15	0.401591	0.891	0.016
298.15	0.501058	1.132	0.016
298.15	0.602697	1.385	0.016
303.15	0.101223	0.205	0.016
303.15	0.200259	0.413	0.016
303.15	0.301337	0.633	0.016
303.15	0.401591	0.859	0.016
303.15	0.501058	1.087	0.016
303.15	0.602697	1.327	0.016
308.15	0.101223	0.197	0.016
308.15	0.200259	0.398	0.016
308.15	0.301337	0.609	0.016
308.15	0.401591	0.823	0.016
308.15	0.501058	1.041	0.016
308.15	0.602697	1.268	0.016
308.15	0.101223	0.198	0.016
308.15	0.200259	0.398	0.016
308.15	0.301337	0.609	0.016
308.15	0.401591	0.824	0.016
308.15	0.501058	1.041	0.016
308.15	0.602697	1.271	0.016
308.15	0.101223	0.197	0.016
308.15	0.200259	0.397	0.016
308.15	0.301337	0.608	0.016
308.15	0.401591	0.823	0.016
308.15	0.501058	1.042	0.016
308.15	0.602697	1.27	0.016
318.15	0.101223	0.184	0.016
318.15	0.200259	0.367	0.016
318.15	0.301337	0.561	0.016
318.15	0.401591	0.756	0.016
318.15	0.501058	0.953	0.016
318.15	0.602697	1.158	0.016
318.15	0.101223	0.183	0.016
318.15	0.200259	0.367	0.016
318.15	0.301337	0.562	0.016
318.15	0.401591	0.757	0.016
318.15	0.501058	0.954	0.016
318.15	0.602697	1.16	0.016
318.15	0.101223	0.184	0.016
318.15	0.200259	0.37	0.016
318.15	0.301337	0.563	0.016
318.15	0.401591	0.756	0.016
318.15	0.501058	0.953	0.016
318.15	0.602697	1.158	0.016
