Measured thermophysical data. Liquid  -  Liquid Equilibria for the Ternary Systems of Per  fl  uorohexane  + Methyl Nona  fl  uorobutyl Ether + Toluene, + 1,4-Dioxane, or +  Dimethylformamide at 298.15 K
Source: J. Chem. Eng. Data, 2013, 10.1021/je301149f
Compound 1: toluene, C7H8, InChI=1S/C7H8/c1-7-5-3-2-4-6-7/h2-6H,1H3
Compound 2: 1,4-dioxane, C4H8O2, InChI=1S/C4H8O2/c1-2-6-4-3-5-1/h1-4H2, purity 99%
Compound 3: dimethylformamide, C3H7NO, InChI=1S/C3H7NO/c1-4(2)3-5/h3H,1-2H3, purity 99.8%
Compound 4: 1-methoxy-nonafluorobutane, C5H3F9O, InChI=1S/C5H3F9O/c1-15-5(13,14)3(8,9)2(6,7)4(10,11)12/h1H3, purity 99%
Compound 5: perfluorohexane, C6F14, InChI=1S/C6F14/c7-1(8,3(11,12)5(15,16)17)2(9,10)4(13,14)6(18,19)20, purity 98%

System: toluene + perfluorohexane + 1-methoxy-nonafluorobutane; phases: Liquid mixture 1, Liquid mixture 2
Fixed: Temperature, K = 298.15
Fixed: Pressure, kPa = 100
Property: Mole fraction of perfluorohexane (Liquid mixture 1); method: Chromatography
Property: Mole fraction of 1-methoxy-nonafluorobutane (Liquid mixture 2); method: Chromatography
Property: Mole fraction of perfluorohexane (Liquid mixture 2); method: Chromatography
Mole fraction of 1-methoxy-nonafluorobutane	Mole fraction of perfluorohexane	uncertainty	Mole fraction of 1-methoxy-nonafluorobutane	uncertainty	Mole fraction of perfluorohexane	uncertainty
0.0037	0.0059	0.0032	0.0246	0.0032	0.8826	
0.0126	0.0083	0.0033	0.0703	0.004	0.8249	
0.0236	0.01	0.0032	0.1086	0.004	0.7673	
0.0324	0.0103	0.0032	0.1713	0.0042	0.6868	
0.0455	0.0131	0.0033	0.2179	0.0042	0.6186	
0.0607	0.0166	0.0033	0.2625	0.0042	0.5511	
0.0827	0.0212	0.0033	0.3149	0.0042	0.4568	
0.1045	0.0276	0.0034	0.3379	0.0041	0.4052	
0.1244	0.0346	0.0032	0.3459	0.004	0.3538	

System: 1,4-dioxane + perfluorohexane + 1-methoxy-nonafluorobutane; phases: Liquid mixture 1, Liquid mixture 2
Fixed: Temperature, K = 298.15
Fixed: Pressure, kPa = 100
Property: Mole fraction of perfluorohexane (Liquid mixture 1); method: Chromatography
Property: Mole fraction of 1-methoxy-nonafluorobutane (Liquid mixture 2); method: Chromatography
Property: Mole fraction of perfluorohexane (Liquid mixture 2); method: Chromatography
Mole fraction of 1-methoxy-nonafluorobutane	Mole fraction of perfluorohexane	uncertainty	Mole fraction of 1-methoxy-nonafluorobutane	uncertainty	Mole fraction of perfluorohexane	uncertainty
0.0048	0.0014	0.0014	0.0532	0.0028	0.8766	
0.0142	0.0018	0.0018	0.1339	0.0037	0.781	
0.0363	0.0031	0.0028	0.2706	0.004	0.6022	
0.0414	0.0033	0.0028	0.3278	0.0041	0.5187	
0.0567	0.0035	0.0028	0.3756	0.0042	0.4477	
0.0623	0.0044	0.0028	0.4169	0.0043	0.3657	
0.0922	0.0067	0.0028	0.4483	0.0044	0.3024	
0.107	0.008	0.0028	0.4742	0.0044	0.2488	
0.1352	0.0103	0.0028	0.4643	0.0043	0.161	

System: dimethylformamide + perfluorohexane + 1-methoxy-nonafluorobutane; phases: Liquid mixture 1, Liquid mixture 2
Fixed: Temperature, K = 298.15
Fixed: Pressure, kPa = 100
Property: Mole fraction of perfluorohexane (Liquid mixture 1); method: Chromatography
Property: Mole fraction of 1-methoxy-nonafluorobutane (Liquid mixture 2); method: Chromatography
Property: Mole fraction of perfluorohexane (Liquid mixture 2); method: Chromatography
Mole fraction of 1-methoxy-nonafluorobutane	Mole fraction of perfluorohexane	uncertainty	Mole fraction of 1-methoxy-nonafluorobutane	uncertainty	Mole fraction of perfluorohexane	uncertainty
0.004	0.0004	0.0004	0.0555	0.0024	0.9369	
0.0103	0.0004	0.0004	0.1473	0.0034	0.8393	
0.0167	0.0005	0.0005	0.2317	0.0037	0.7484	
0.0227	0.0005	0.0005	0.3065	0.0039	0.6679	
0.0274	0.0006	0.0006	0.3743	0.0042	0.5889	
0.036	0.0007	0.0007	0.44	0.0045	0.5186	
0.0403	0.0008	0.0008	0.4966	0.0047	0.4535	
0.0491	0.001	0.001	0.5524	0.0041	0.3755	
0.0767	0.0018	0.0018	0.6044	0.0037	0.2198	
