Measured thermophysical data. Thermophysical Properties of Ammonium-Based Bis{(trifluoromethyl)sulfonyl}imide Ionic Liquids: Volumetric and Transport Properties
Source: J. Chem. Eng. Data, 2012, 10.1021/je300108z
Compound 1: triethylhexylammonium bis((trifluoromethyl)sulfonyl)imide, C14H28F6N2O4S2, InChI=1S/C12H28N.C2F6NO4S2/c1-5-9-10-11-12-13(6-2,7-3)8-4;3-1(4,5)14(10,11)9-15(12,13)2(6,7)8/h5-12H2,1-4H3;/q+1;-1
Compound 2: triethylheptylammonium bis[(trifluoromethyl)sulfonyl]imide, C15H30F6N2O4S2, InChI=1S/C13H30N.C2F6NO4S2/c1-5-9-10-11-12-13-14(6-2,7-3)8-4;3-1(4,5)14(10,11)9-15(12,13)2(6,7)8/h5-13H2,1-4H3;/q+1;-1
Compound 3: triethyloctylammonium bis[(trifluoromethyl)sulfonyl]imide, C16H32F6N2O4S2, InChI=1S/C14H32N.C2F6NO4S2/c1-5-9-10-11-12-13-14-15(6-2,7-3)8-4;3-1(4,5)14(10,11)9-15(12,13)2(6,7)8/h5-14H2,1-4H3;/q+1;-1
Compound 4: N,N,N-triethyl-1-decanaminium 1,1,1-trifluoro-N-[(trifluoromethyl)sulfonyl]methanesulfonamide, C18H36F6N2O4S2, InChI=1S/C16H36N.C2F6NO4S2/c1-5-9-10-11-12-13-14-15-16-17(6-2,7-3)8-4;3-1(4,5)14(10,11)9-15(12,13)2(6,7)8/h5-16H2,1-4H3;/q+1;-1
Compound 5: N,N,N-triethyldodecan-1-aminium bis((trifluoromethyl)sulfonyl)amide, C20H40F6N2O4S2, InChI=1S/C18H40N.C2F6NO4S2/c1-5-9-10-11-12-13-14-15-16-17-18-19(6-2,7-3)8-4;3-1(4,5)14(10,11)9-15(12,13)2(6,7)8/h5-18H2,1-4H3;/q+1;-1
Compound 6: N,N,N-triethyltetradecan-1-aminium bis((trifluoromethyl)sulfonyl)amide, C22H44F6N2O4S2, InChI=1S/C20H44N.C2F6NO4S2/c1-5-9-10-11-12-13-14-15-16-17-18-19-20-21(6-2,7-3)8-4;3-1(4,5)14(10,11)9-15(12,13)2(6,7)8/h5-20H2,1-4H3;/q+1;-1
Compound 7: water, H2O, InChI=1S/H2O/h1H2, purity 99.9%

System: triethylhexylammonium bis((trifluoromethyl)sulfonyl)imide; phases: Liquid
Fixed: Pressure, kPa = 101.325
Property: Electrical conductivity, S/m (Liquid); method: Crison GLP31
Temperature, K	Electrical conductivity, S/m	uncertainty
293.65	0.0685	0.0027
296.15	0.0798	0.0032
297.15	0.0857	0.0034
298.15	0.0887	0.0035
299.35	0.0953	0.0038
302.95	0.1213	0.0049
304.45	0.1292	0.0052
308.15	0.1597	0.0064
308.15	0.1663	0.0067
309.65	0.1754	0.007
310.85	0.1865	0.0075
311.85	0.1944	0.0078
313.05	0.206	0.0082
314.15	0.212	0.0085
316.05	0.231	0.0092
317.15	0.241	0.0096
317.65	0.247	0.0099
317.95	0.248	0.0099
319.65	0.261	0.0104
321.25	0.278	0.0111
323.05	0.322	0.0129
324.55	0.336	0.0134
325.65	0.351	0.014
327.65	0.382	0.0153
328.35	0.388	0.0155
328.45	0.395	0.0163
328.65	0.435	0.0177
337.95	0.59	0.0236
345.55	0.732	0.0293
354.15	0.928	0.0371
370.15	1.36	0.054
380.15	1.614	0.065
396.85	1.86	0.074
413.45	2.284	0.091

System: triethylhexylammonium bis((trifluoromethyl)sulfonyl)imide; phases: Liquid
Fixed: Pressure, kPa = 101.325
Property: Viscosity, Pa*s (Liquid); method: Concentric cylinders viscometry
Temperature, K	Viscosity, Pa*s	uncertainty
293.25	0.2345	0.0066
298.25	0.1875	0.0049
303.35	0.1367	0.0033
308.35	0.1092	0.0025
313.35	0.08767	0.00191
318.35	0.06987	0.00147
323.25	0.05754	0.00119
328.35	0.04672	0.00097
333.35	0.03813	0.00079
338.25	0.03182	0.00066
343.25	0.02673	0.00056
348.35	0.0228	0.00048
353.25	0.0196	0.00041
358.25	0.01686	0.00035
363.15	0.01462	0.0003
368.15	0.01278	0.00027

System: triethylhexylammonium bis((trifluoromethyl)sulfonyl)imide; phases: Liquid
Property: Refractive index (Na D-line) (Liquid); method: Standard Abbe refractometry
Temperature, K	Pressure, kPa	Refractive index (Na D-line)	uncertainty
571.3	101.325	1.42599	0.0007

System: triethylhexylammonium bis((trifluoromethyl)sulfonyl)imide; phases: Liquid
Fixed: Pressure, kPa = 101.325
Property: Mass density, kg/m3 (Liquid); method: Vibrating tube method
Temperature, K	Mass density, kg/m3	uncertainty
293.15	1293.32	2.05
303.14	1284.87	2.05
313.13	1276.45	2.04
323.13	1268.09	2.04
333.13	1259.73	2.04
343.13	1251.21	2.04
353.14	1242.23	2.04
363.15	1232	2.04

System: triethylheptylammonium bis[(trifluoromethyl)sulfonyl]imide; phases: Liquid
Fixed: Pressure, kPa = 101.325
Property: Electrical conductivity, S/m (Liquid); method: Crison GLP31
Temperature, K	Electrical conductivity, S/m	uncertainty
299.75	0.086	0.0034
303.65	0.11	0.0044
308.15	0.148	0.0059
312.85	0.184	0.0074
318.25	0.228	0.0091
323.05	0.275	0.011
328.15	0.362	0.0145
354.35	0.772	0.0309
380.05	1.322	0.053
409.65	1.988	0.08
413.45	2.064	0.083

System: triethylheptylammonium bis[(trifluoromethyl)sulfonyl]imide; phases: Liquid
Fixed: Pressure, kPa = 101.325
Property: Viscosity, Pa*s (Liquid); method: Concentric cylinders viscometry
Temperature, K	Viscosity, Pa*s	uncertainty
293.25	0.2536	0.0073
298.35	0.2046	0.0055
303.45	0.1542	0.0038
308.45	0.1169	0.0027
313.45	0.09036	0.00198
318.45	0.07104	0.0015
323.45	0.0568	0.00118
328.45	0.0461	0.00096
333.35	0.03789	0.00079
338.35	0.03152	0.00066
343.35	0.02637	0.00055
348.35	0.02226	0.00046
353.35	0.01905	0.0004
358.35	0.01641	0.00034
363.25	0.01433	0.0003
368.25	0.01268	0.00026

System: triethylheptylammonium bis[(trifluoromethyl)sulfonyl]imide; phases: Liquid
Property: Refractive index (Na D-line) (Liquid); method: Standard Abbe refractometry
Temperature, K	Pressure, kPa	Refractive index (Na D-line)	uncertainty
571.3	101.325	1.42708	0.0007

System: triethylheptylammonium bis[(trifluoromethyl)sulfonyl]imide; phases: Liquid
Fixed: Pressure, kPa = 101.325
Property: Mass density, kg/m3 (Liquid); method: Vibrating tube method
Temperature, K	Mass density, kg/m3	uncertainty
293.16	1275.74	2.04
303.15	1267.36	2.04
313.15	1258.98	2.04
323.15	1250.66	2.04
333.15	1240.12	2.04
343.15	1231.43	2.04
353.11	1222.91	2.04
363.15	1213.77	2.03

System: triethyloctylammonium bis[(trifluoromethyl)sulfonyl]imide; phases: Liquid
Fixed: Pressure, kPa = 101.325
Property: Electrical conductivity, S/m (Liquid); method: Crison GLP31
Temperature, K	Electrical conductivity, S/m	uncertainty
298.75	0.062	0.0025
301.15	0.07	0.0028
303.25	0.078	0.0031
313.15	0.131	0.0052
317.35	0.158	0.0063
322.65	0.208	0.008
324.65	0.224	0.009
328.85	0.29	0.012
358.15	0.649	0.026
380.05	1.008	0.04
409.65	1.587	0.063
413.15	1.661	0.066

System: triethyloctylammonium bis[(trifluoromethyl)sulfonyl]imide; phases: Liquid
Fixed: Pressure, kPa = 101.325
Property: Viscosity, Pa*s (Liquid); method: Concentric cylinders viscometry
Temperature, K	Viscosity, Pa*s	uncertainty
293.05	0.2884	0.0086
298.15	0.2387	0.0067
303.35	0.1789	0.0046
308.35	0.1347	0.0032
313.35	0.1031	0.0023
318.35	0.08041	0.00173
323.35	0.0637	0.00133
328.35	0.05116	0.00106
333.25	0.04195	0.00087
338.25	0.03475	0.00072
343.35	0.02924	0.00061
348.25	0.02475	0.00052
353.25	0.0211	0.00044
358.25	0.01811	0.00038
363.15	0.01562	0.00033
368.15	0.0136	0.00028

System: triethyloctylammonium bis[(trifluoromethyl)sulfonyl]imide; phases: Liquid
Property: Refractive index (Na D-line) (Liquid); method: Standard Abbe refractometry
Temperature, K	Pressure, kPa	Refractive index (Na D-line)	uncertainty
571.3	101.325	1.42871	0.0007

System: triethyloctylammonium bis[(trifluoromethyl)sulfonyl]imide; phases: Liquid
Fixed: Pressure, kPa = 101.325
Property: Mass density, kg/m3 (Liquid); method: Vibrating tube method
Temperature, K	Mass density, kg/m3	uncertainty
293.18	1253.8	2.04
303.16	1245.6	2.04
313.15	1237.4	2.04
323.14	1229.24	2.04
333.14	1221.09	2.04
343.12	1212.96	2.03
353.11	1204.71	2.03
363.12	1195.81	2.03

System: N,N,N-triethyl-1-decanaminium 1,1,1-trifluoro-N-[(trifluoromethyl)sulfonyl]methanesulfonamide; phases: Liquid
Fixed: Pressure, kPa = 101.325
Property: Electrical conductivity, S/m (Liquid); method: Crison GLP31
Temperature, K	Electrical conductivity, S/m	uncertainty
298.45	0.046	0.002
303.05	0.059	0.002
307.75	0.075	0.003
316.05	0.111	0.004
320.35	0.135	0.005
324.85	0.166	0.007
348.15	0.367	0.015
368.35	0.59	0.024
393.18	0.903	0.036
412.55	1.218	0.049

System: N,N,N-triethyl-1-decanaminium 1,1,1-trifluoro-N-[(trifluoromethyl)sulfonyl]methanesulfonamide; phases: Liquid
Fixed: Pressure, kPa = 101.325
Property: Viscosity, Pa*s (Liquid); method: Concentric cylinders viscometry
Temperature, K	Viscosity, Pa*s	uncertainty
293.25	0.3589	0.0114
298.25	0.2886	0.0086
303.35	0.2145	0.0059
308.35	0.1601	0.004
313.35	0.122	0.0029
318.35	0.09447	0.00209
323.25	0.07437	0.00158
328.35	0.05972	0.00124
333.35	0.0486	0.00101
338.25	0.04011	0.00084
343.25	0.03352	0.0007
348.35	0.02836	0.00059
353.25	0.02411	0.0005
358.25	0.0204	0.00043
363.15	0.01756	0.00037
368.15	0.01521	0.00032

System: N,N,N-triethyl-1-decanaminium 1,1,1-trifluoro-N-[(trifluoromethyl)sulfonyl]methanesulfonamide; phases: Liquid
Property: Refractive index (Na D-line) (Liquid); method: Standard Abbe refractometry
Temperature, K	Pressure, kPa	Refractive index (Na D-line)	uncertainty
571.3	101.325	1.43169	0.0007

System: N,N,N-triethyl-1-decanaminium 1,1,1-trifluoro-N-[(trifluoromethyl)sulfonyl]methanesulfonamide; phases: Liquid
Fixed: Pressure, kPa = 101.325
Property: Mass density, kg/m3 (Liquid); method: Vibrating tube method
Temperature, K	Mass density, kg/m3	uncertainty
293.15	1220.27	2.04
303.13	1212.26	2.03
313.13	1204.21	2.03
323.13	1196.24	2.03
333.13	1188.34	2.03
343.12	1180.49	2.03
353.12	1172.66	2.03
363.12	1164.81	2.03

System: N,N,N-triethyldodecan-1-aminium bis((trifluoromethyl)sulfonyl)amide; phases: Liquid
Fixed: Pressure, kPa = 101.325
Property: Electrical conductivity, S/m (Liquid); method: Crison GLP31
Temperature, K	Electrical conductivity, S/m	uncertainty
298.55	0.026	0.001
303.15	0.039	0.002

System: N,N,N-triethyldodecan-1-aminium bis((trifluoromethyl)sulfonyl)amide; phases: Liquid
Fixed: Pressure, kPa = 101.325
Property: Viscosity, Pa*s (Liquid); method: CONCYL:UFactor:4
Temperature, K	Viscosity, Pa*s	uncertainty
293.15	0.41	0.0466
298.15	0.3216	0.0324
303.35	0.2492	0.0217
308.35	0.2031	0.0155
313.35	0.1527	0.0093
318.35	0.1139	0.0052
323.35	0.09333	0.00348
328.35	0.06819	0.00176
333.35	0.05688	0.00123
338.25	0.04828	0.00114
343.35	0.03865	0.00092
348.25	0.03143	0.00075
353.25	0.02835	0.00067
358.25	0.023	0.00055
363.15	0.01938	0.00046
368.15	0.01724	0.00041

System: N,N,N-triethyldodecan-1-aminium bis((trifluoromethyl)sulfonyl)amide; phases: Liquid
Property: Refractive index (Na D-line) (Liquid); method: Standard Abbe refractometry
Temperature, K	Pressure, kPa	Refractive index (Na D-line)	uncertainty
571.3	101.325	1.43414	0.0007

System: N,N,N-triethyldodecan-1-aminium bis((trifluoromethyl)sulfonyl)amide; phases: Liquid
Fixed: Pressure, kPa = 101.325
Property: Mass density, kg/m3 (Liquid); method: Vibrating tube method
Temperature, K	Mass density, kg/m3	uncertainty
293.16	1192.21	2.03
303.14	1184.37	2.03
313.14	1176.46	2.03
323.13	1168.61	2.03
333.13	1160.83	2.03
343.12	1153.11	2.03
353.15	1145.43	2.03
363.12	1137.83	2.02

System: N,N,N-triethyltetradecan-1-aminium bis((trifluoromethyl)sulfonyl)amide; phases: Liquid
Fixed: Pressure, kPa = 101.325
Property: Electrical conductivity, S/m (Liquid); method: Crison GLP31
Temperature, K	Electrical conductivity, S/m	uncertainty
298.15	0.01	0.001
303.05	0.021	0.001

System: N,N,N-triethyltetradecan-1-aminium bis((trifluoromethyl)sulfonyl)amide; phases: Liquid
Fixed: Pressure, kPa = 101.325
Property: Viscosity, Pa*s (Liquid); method: Concentric cylinders viscometry
Temperature, K	Viscosity, Pa*s	uncertainty
293.05	0.4903	0.0209
298.05	0.4011	0.0165
303.35	0.2936	0.0114
308.35	0.2365	0.0088
313.35	0.1761	0.0063
318.35	0.1336	0.0046
323.25	0.1032	0.0034
328.35	0.08104	0.00264
333.35	0.06489	0.00209
338.25	0.05242	0.00168
343.25	0.04308	0.00139
348.25	0.03584	0.00115
353.25	0.03016	0.00097
358.25	0.02563	0.00082
363.15	0.02201	0.00071
368.15	0.01899	0.00061

System: N,N,N-triethyltetradecan-1-aminium bis((trifluoromethyl)sulfonyl)amide; phases: Liquid
Property: Refractive index (Na D-line) (Liquid); method: Standard Abbe refractometry
Temperature, K	Pressure, kPa	Refractive index (Na D-line)	uncertainty
571.3	101.325	1.43587	0.0007

System: N,N,N-triethyltetradecan-1-aminium bis((trifluoromethyl)sulfonyl)amide; phases: Liquid
Fixed: Pressure, kPa = 101.325
Property: Mass density, kg/m3 (Liquid); method: Vibrating tube method
Temperature, K	Mass density, kg/m3	uncertainty
293.15	1168.97	2.03
303.13	1161.22	2.03
313.13	1153.42	2.03
323.13	1145.66	2.03
333.12	1137.96	2.02
343.12	1130.3	2.02
353.13	1122.71	2.02
363.13	1115.05	2.02

System: water + triethylhexylammonium bis((trifluoromethyl)sulfonyl)imide; phases: Liquid
Fixed: Pressure, kPa = 101
Fixed: Mass fraction of water = 0.00745
Property: Viscosity, Pa*s (Liquid); method: Concentric cylinders viscometry
Temperature, K	Viscosity, Pa*s	uncertainty
293.25	0.07928	0.0017
298.05	0.06669	0.0014
303.05	0.05398	0.00111
308.05	0.04404	0.00092
313.05	0.03649	0.00076
318.05	0.03073	0.00064
322.95	0.02598	0.00054

System: water + triethylhexylammonium bis((trifluoromethyl)sulfonyl)imide; phases: Liquid mixture 1, Liquid
Property: Mass fraction of water (Liquid mixture 1); method: Titration method
Pressure, kPa	Temperature, K	Mass fraction of water	uncertainty
101.33	293.15	0.00745	0.00075

System: water + triethyloctylammonium bis[(trifluoromethyl)sulfonyl]imide; phases: Liquid
Fixed: Pressure, kPa = 101
Fixed: Mass fraction of water = 0.00607
Property: Viscosity, Pa*s (Liquid); method: Concentric cylinders viscometry
Temperature, K	Viscosity, Pa*s	uncertainty
293.25	0.1078	0.0025
298.05	0.08806	0.00192
303.05	0.06984	0.00147
313.05	0.04509	0.00094
318.05	0.05576	0.00115
318.05	0.03651	0.00076
323.05	0.02974	0.00063

System: water + triethyloctylammonium bis[(trifluoromethyl)sulfonyl]imide; phases: Liquid mixture 1, Liquid
Property: Mass fraction of water (Liquid mixture 1); method: Titration method
Pressure, kPa	Temperature, K	Mass fraction of water	uncertainty
101.33	293.15	0.00607	0.00061

System: water + N,N,N-triethyldodecan-1-aminium bis((trifluoromethyl)sulfonyl)amide; phases: Liquid
Fixed: Pressure, kPa = 101
Fixed: Mass fraction of water = 0.00464
Property: Viscosity, Pa*s (Liquid); method: Concentric cylinders viscometry
Temperature, K	Viscosity, Pa*s	uncertainty
293.25	0.1574	0.0039
298.05	0.1307	0.0031
302.95	0.09724	0.00216
308.05	0.07656	0.00163
313.05	0.06067	0.00126
318.05	0.04879	0.00102
322.95	0.03919	0.00082

System: water + N,N,N-triethyldodecan-1-aminium bis((trifluoromethyl)sulfonyl)amide; phases: Liquid mixture 1, Liquid
Property: Mass fraction of water (Liquid mixture 1); method: Titration method
Pressure, kPa	Temperature, K	Mass fraction of water	uncertainty
101.33	293.15	0.00464	0.00047
