Measured thermophysical data. Solubility of N2O in and Density and Viscosity of Aqueous Solutions of Piperazine, Ammonia, and Their Mixtures from (283.15 to 323.15) K
Source: J. Chem. Eng. Data, 2012, 10.1021/je300102d
Compound 1: water, H2O, InChI=1S/H2O/h1H2, purity 99.9%
Compound 2: nitrous oxide, N2O, InChI=1S/N2O/c1-2-3
Compound 3: ammonia, H3N, InChI=1S/H3N/h1H3
Compound 4: piperazine, C4H10N2, InChI=1S/C4H10N2/c1-2-6-4-3-5-1/h5-6H,1-4H2, purity 99%

System: water + nitrous oxide; phases: Liquid, Gas
Property: Mass fraction of nitrous oxide (Liquid); method: difference in pressure of the gas before/after feeding N2O
Temperature, K	Pressure, kPa of nitrous oxide	Mass fraction of nitrous oxide	uncertainty
293.15	80.2	0.000988	6e-05
298.15	70.9	0.000743	4.5e-05
303.15	78.3	0.000727	4.4e-05
313.15	88.7	0.000643	3.9e-05
323.15	92.7	0.000551	3.3e-05

System: ammonia + water; phases: Liquid
Fixed: Pressure, kPa = 101
Property: Viscosity, Pa*s (Liquid); method: Concentric cylinders viscometry
Temperature, K	Mole fraction of ammonia	Viscosity, Pa*s	uncertainty
283.15	0	0.001307	5.28e-05
283.15	0.0111	0.0013128	5.3e-05
283.15	0.0262	0.0014282	5.77e-05
283.15	0.0279	0.0013515	5.46e-05
283.15	0.1147	0.0015593	6.29e-05
283.15	0.176	0.0017129	6.91e-05
293.15	0	0.001002	4.06e-05
293.15	0.0111	0.0010249	4.15e-05
293.15	0.0262	0.0010738	4.35e-05
293.15	0.0279	0.0010465	4.24e-05
293.15	0.1147	0.0011569	4.68e-05
293.15	0.176	0.0012888	5.21e-05
303.15	0	0.0007977	3.24e-05
303.15	0.0111	0.0008106	3.29e-05
303.15	0.0262	0.000845	3.43e-05
303.15	0.0279	0.0008278	3.36e-05
303.15	0.1147	0.0009025	3.66e-05
303.15	0.176	0.0009955	4.03e-05
313.15	0	0.0006532	2.67e-05
313.15	0.0111	0.000672	2.74e-05
313.15	0.0262	0.0007124	2.9e-05
313.15	0.0279	0.0006922	2.82e-05
313.15	0.1147	0.0007653	3.11e-05
313.15	0.176	0.0008467	3.44e-05
323.15	0	0.000547	2.25e-05
323.15	0.0111	0.0005645	2.32e-05
323.15	0.0262	0.0005945	2.44e-05
323.15	0.0279	0.0005795	2.38e-05
323.15	0.1147	0.0006297	2.58e-05
323.15	0.176	0.0006829	2.79e-05

System: ammonia + water; phases: Liquid
Fixed: Pressure, kPa = 101
Property: Mass density, kg/m3 (Liquid); method: Vibrating tube method
Temperature, K	Mole fraction of ammonia	Mass density, kg/m3	uncertainty
283.15	0	999.7	0.2
283.15	0.0268	988.73	0.2
283.15	0.0505	979.82	0.2
283.15	0.1124	957.85	0.2
283.15	0.148	944.97	0.21
283.15	0.3043	895.9	0.22
293.15	0	998.2	0.2
293.15	0.0268	986.79	0.2
293.15	0.0505	977.5	0.2
293.15	0.1124	954.52	0.2
293.15	0.148	941.01	0.21
293.15	0.3043	889.82	0.22
303.15	0	995.65	0.2
303.15	0.0268	983.98	0.2
303.15	0.0505	974.43	0.2
303.15	0.1124	950.65	0.2
303.15	0.148	936.67	0.21
313.15	0	992.22	0.2
313.15	0.0268	980.32	0.2
313.15	0.0505	970.59	0.2
313.15	0.1124	946.14	0.2
313.15	0.148	931.7	0.21
323.15	0	988.04	0.2
323.15	0.0268	975.98	0.2
323.15	0.0505	966.09	0.2
323.15	0.1124	940.98	0.2
323.15	0.148	926.12	0.21

System: piperazine + water; phases: Liquid
Fixed: Pressure, kPa = 101
Property: Viscosity, Pa*s (Liquid); method: Concentric cylinders viscometry
Temperature, K	Mole fraction of piperazine	Viscosity, Pa*s	uncertainty
283.15	0	0.001307	5.28e-05
283.15	0.000906	0.0013302	5.37e-05
283.15	0.00182	0.0013615	5.5e-05
283.15	0.00366	0.0013928	5.62e-05
283.15	0.00553	0.0014622	5.9e-05
283.15	0.00742	0.0015328	6.18e-05
293.15	0	0.001002	4.06e-05
293.15	0.000906	0.0010121	4.1e-05
293.15	0.00182	0.0010429	4.22e-05
293.15	0.00366	0.0010921	4.42e-05
293.15	0.00553	0.0011189	4.53e-05
293.15	0.00742	0.0011743	4.75e-05
303.15	0	0.0007977	3.24e-05
303.15	0.000906	0.0008241	3.35e-05
303.15	0.00182	0.0008339	3.39e-05
303.15	0.00366	0.0008791	3.57e-05
303.15	0.00553	0.0008894	3.61e-05
303.15	0.00742	0.0009414	3.82e-05
313.15	0	0.0006532	2.67e-05
313.15	0.000906	0.0006757	2.76e-05
313.15	0.00182	0.0006868	2.8e-05
313.15	0.00366	0.0007176	2.92e-05
313.15	0.00553	0.0007531	3.07e-05
313.15	0.00742	0.00078	3.17e-05
323.15	0	0.000547	2.25e-05
323.15	0.000906	0.0005816	2.38e-05
323.15	0.00182	0.0005923	2.43e-05
323.15	0.00366	0.000621	2.54e-05
323.15	0.00553	0.0006448	2.63e-05
323.15	0.00742	0.0006604	2.7e-05

System: piperazine + water; phases: Liquid
Fixed: Pressure, kPa = 101
Property: Mass density, kg/m3 (Liquid); method: Vibrating tube method
Temperature, K	Mole fraction of piperazine	Mass density, kg/m3	uncertainty
283.15	0	999.7	0.2
283.15	0.00181	1000.15	0.2
283.15	0.00367	1000.51	0.2
283.15	0.00741	1001.34	0.2
283.15	0.01119	1002.24	0.2
283.15	0.01938	1004.7	0.2
293.15	0	998.2	0.2
293.15	0.00181	998.63	0.2
293.15	0.00367	998.98	0.2
293.15	0.00741	999.75	0.2
293.15	0.01119	1000.58	0.2
293.15	0.01938	1002.52	0.2
303.15	0	995.65	0.2
303.15	0.00181	996.1	0.2
303.15	0.00367	996.42	0.2
303.15	0.00741	997.15	0.2
303.15	0.01119	997.91	0.2
303.15	0.01938	999.69	0.2
313.15	0	992.22	0.2
313.15	0.00181	992.66	0.2
313.15	0.00367	992.99	0.2
313.15	0.00741	993.68	0.2
313.15	0.01119	994.37	0.2
313.15	0.01938	996.04	0.2
323.15	0	988.04	0.2
323.15	0.00181	988.51	0.2
323.15	0.00367	988.81	0.2
323.15	0.00741	989.47	0.2
323.15	0.01119	990.14	0.2
323.15	0.01938	991.64	0.2

System: piperazine + ammonia + water; phases: Liquid
Fixed: Pressure, kPa = 101
Property: Viscosity, Pa*s (Liquid); method: Concentric cylinders viscometry
Temperature, K	Mole fraction of ammonia	Mole fraction of piperazine	Viscosity, Pa*s	uncertainty
283.15	0.0108	0.00182	0.0013661	5.52e-05
283.15	0.0252	0.00183	0.0014264	5.76e-05
283.15	0.0282	0.00745	0.0016309	6.58e-05
283.15	0.05	0.00185	0.0014819	5.98e-05
283.15	0.0504	0.00745	0.0016598	6.69e-05
283.15	0.0589	0.00373	0.0015435	6.23e-05
283.15	0.0592	0.00565	0.0015994	6.45e-05
283.15	0.0694	0.00743	0.0015417	6.22e-05
283.15	0.0779	0.00376	0.0015843	6.39e-05
283.15	0.0798	0.00187	0.0015217	6.14e-05
283.15	0.1084	0.00575	0.0017136	6.91e-05
283.15	0.1096	0.00766	0.0017727	7.15e-05
293.15	0.0108	0.00182	0.0010767	4.36e-05
293.15	0.0252	0.00183	0.0011141	4.51e-05
293.15	0.0282	0.00745	0.001217	4.92e-05
293.15	0.05	0.00185	0.001133	4.58e-05
293.15	0.0504	0.00745	0.0012841	5.19e-05
293.15	0.0589	0.00373	0.0011799	4.77e-05
293.15	0.0592	0.00565	0.0012269	4.96e-05
293.15	0.0694	0.00743	0.0011701	4.73e-05
293.15	0.0779	0.00376	0.0012055	4.87e-05
293.15	0.0798	0.00187	0.0011525	4.66e-05
293.15	0.1084	0.00575	0.0013055	5.27e-05
293.15	0.1096	0.00766	0.0013606	5.49e-05
303.15	0.0108	0.00182	0.0008538	3.47e-05
303.15	0.0252	0.00183	0.0008988	3.65e-05
303.15	0.0282	0.00745	0.0010098	4.09e-05
303.15	0.05	0.00185	0.0009491	3.85e-05
303.15	0.0504	0.00745	0.001064	4.31e-05
303.15	0.0589	0.00373	0.0010174	4.12e-05
303.15	0.0592	0.00565	0.0010488	4.25e-05
303.15	0.0694	0.00743	0.0009758	3.95e-05
303.15	0.0779	0.00376	0.0010287	4.17e-05
303.15	0.0798	0.00187	0.0009968	4.04e-05
303.15	0.1084	0.00575	0.0011094	4.49e-05
303.15	0.1096	0.00766	0.0011383	4.6e-05
313.15	0.0108	0.00182	0.0007072	2.88e-05
313.15	0.0252	0.00183	0.0007355	3e-05
313.15	0.0282	0.00745	0.0008496	3.45e-05
313.15	0.05	0.00185	0.0007549	3.07e-05
313.15	0.0504	0.00745	0.0008778	3.56e-05
313.15	0.0589	0.00373	0.0007938	3.23e-05
313.15	0.0592	0.00565	0.0008642	3.51e-05
313.15	0.0694	0.00743	0.0008222	3.34e-05
313.15	0.0779	0.00376	0.0008199	3.33e-05
313.15	0.0798	0.00187	0.0007763	3.16e-05
313.15	0.1084	0.00575	0.000917	3.72e-05
313.15	0.1096	0.00766	0.0009346	3.79e-05

System: piperazine + ammonia + water; phases: Liquid
Fixed: Pressure, kPa = 101
Property: Mass density, kg/m3 (Liquid); method: Vibrating tube method
Temperature, K	Mole fraction of ammonia	Mole fraction of piperazine	Mass density, kg/m3	uncertainty
283.15	0.00694	0.00743	998.64	0.2
283.15	0.0108	0.00182	995.68	0.2
283.15	0.0252	0.00183	989.92	0.2
283.15	0.0282	0.00743	990.37	0.2
283.15	0.05	0.00185	980.65	0.2
283.15	0.0504	0.00751	982.73	0.2
283.15	0.0529	0.00565	978.83	0.2
283.15	0.0589	0.00373	978.46	0.2
283.15	0.0779	0.00376	971.08	0.2
283.15	0.0798	0.00187	969.31	0.2
283.15	0.1084	0.00575	960.34	0.2
283.15	0.1096	0.00766	962.49	0.2
293.15	0.00694	0.00743	996.92	0.2
293.15	0.0108	0.00182	994	0.2
293.15	0.0252	0.00183	988	0.2
293.15	0.0282	0.00743	988.28	0.2
293.15	0.05	0.00185	978.34	0.2
293.15	0.0504	0.00751	980.29	0.2
293.15	0.0529	0.00565	976.27	0.2
293.15	0.0589	0.00373	975.93	0.2
293.15	0.0779	0.00376	968.23	0.2
293.15	0.0798	0.00187	966.36	0.2
293.15	0.1084	0.00575	956.82	0.2
293.15	0.1096	0.00766	959.01	0.2
303.15	0.00694	0.00743	994.24	0.2
303.15	0.0108	0.00182	991.35	0.2
303.15	0.0252	0.00183	985.19	0.2
303.15	0.0282	0.00743	985.31	0.2
303.15	0.05	0.00185	975.22	0.2
303.15	0.0504	0.00751	977.06	0.2
303.15	0.0529	0.00565	972.95	0.2
303.15	0.0589	0.00373	972.7	0.2
303.15	0.0779	0.00376	964.72	0.2
303.15	0.0798	0.00187	962.89	0.2
303.15	0.1084	0.00575	952.81	0.2
303.15	0.1096	0.00766	954.85	0.2
313.15	0.00694	0.00743	990.7	0.2
313.15	0.0108	0.00182	987.82	0.2
313.15	0.0252	0.00183	981.53	0.2
313.15	0.0282	0.00743	981.54	0.2
313.15	0.05	0.00185	971.41	0.2
313.15	0.0504	0.00751	973.03	0.2
313.15	0.0529	0.00565	968.94	0.2
313.15	0.0589	0.00373	968.25	0.2
313.15	0.0779	0.00376	960.47	0.2
313.15	0.0798	0.00187	958.43	0.2
313.15	0.1084	0.00575	948.08	0.2
313.15	0.1096	0.00766	949.92	0.2
323.15	0.00694	0.00743	986.43	0.2
323.15	0.0108	0.00182	982.54	0.2
323.15	0.0252	0.00183	977.17	0.2
323.15	0.0282	0.00743	977.1	0.2
323.15	0.05	0.00185	966.96	0.2
323.15	0.0504	0.00751	968.5	0.2
323.15	0.0529	0.00565	964.2	0.2
323.15	0.0589	0.00373	964.03	0.2
323.15	0.0779	0.00376	955.62	0.2
323.15	0.0798	0.00187	953.79	0.2
323.15	0.1084	0.00575	942.89	0.2
323.15	0.1096	0.00766	944.95	0.2

System: piperazine + water + nitrous oxide; phases: Liquid, Gas
Property: Mass fraction of nitrous oxide (Liquid); method: difference in the pressure of the gas before/after feeding N2O
Temperature, K	Pressure, kPa of nitrous oxide	Solvent: Mole fraction of piperazine	Mass fraction of nitrous oxide	uncertainty
293.15	48.9	0.00182	0.000597	3.6e-05
293.15	59.4	0.00744	0.000734	4.4e-05
293.15	70.6	0.0211	0.000836	5e-05
293.15	80.3	0	0.000988	6e-05
293.15	151.3	0.013	0.001812	0.000109
298.15	61.2	0.00744	0.000633	3.8e-05
298.15	64	0.00182	0.000669	4e-05
298.15	70.9	0	0.000743	4.5e-05
298.15	79.1	0.0211	0.000818	4.9e-05
303.15	78.3	0	0.000727	4.4e-05
303.15	78.9	0.0211	0.000704	4.2e-05
303.15	80.8	0.00744	0.000729	4.4e-05
303.15	86.3	0.00182	0.000779	4.7e-05
303.15	167.2	0.013	0.001551	9.3e-05
313.15	78.3	0.00744	0.000572	3.4e-05
313.15	88.7	0	0.000643	3.9e-05
313.15	89.7	0.0211	0.000628	3.8e-05
313.15	97.1	0.00182	0.000693	4.2e-05
313.15	182.3	0.013	0.001331	8e-05
323.15	88.8	0.00182	0.000503	3e-05
323.15	92.7	0	0.000551	3.3e-05
323.15	92.7	0.00744	0.000546	3.3e-05
323.15	94.3	0.0211	0.000534	3.2e-05
323.15	196.4	0.013	0.001149	6.9e-05
