Measured thermophysical data. Densities and Speeds of Sound of Binary Liquid Mixtures of Some n-Alkoxypropanols with Methyl Acetate, Ethyl Acetate, and n-Butyl Acetate at T = (288.15, 293.15, 298.15, 303.15, and 308.15) K
Source: J. Chem. Eng. Data, 2013, 10.1021/je300789a
Compound 1: 1-methoxy-2-propanol, C4H10O2, InChI=1S/C4H10O2/c1-4(5)3-6-2/h4-5H,3H2,1-2H3, purity 98%
Compound 2: methyl ethanoate, C3H6O2, InChI=1S/C3H6O2/c1-3(4)5-2/h1-2H3, purity 99%
Compound 3: ethyl acetate, C4H8O2, InChI=1S/C4H8O2/c1-3-6-4(2)5/h3H2,1-2H3, purity 99.5%
Compound 4: butyl ethanoate, C6H12O2, InChI=1S/C6H12O2/c1-3-4-5-8-6(2)7/h3-5H2,1-2H3, purity 99%
Compound 5: 1-ethoxy-2-propanol, C5H12O2, InChI=1S/C5H12O2/c1-3-7-4-5(2)6/h5-6H,3-4H2,1-2H3, purity 90%
Compound 6: 1-propoxy-2-propanol, C6H14O2, InChI=1S/C6H14O2/c1-3-4-8-5-6(2)7/h6-7H,3-5H2,1-2H3, purity 98.5%
Compound 7: 1-butoxy-2-propanol, C7H16O2, InChI=1S/C7H16O2/c1-3-4-5-9-6-7(2)8/h7-8H,3-6H2,1-2H3, purity 99%

System: 1-methoxy-2-propanol; phases: Liquid
Fixed: Pressure, kPa = 101
Property: Speed of sound, m/s (Liquid); method: Sing-around technique in a fixed-path interferometer
Temperature, K	Speed of sound, m/s	uncertainty
288.15	1298.14	2.34
293.15	1280.08	2.34
298.15	1261.54	2.34
303.15	1243.03	2.34
308.15	1224.5	2.34

System: 1-methoxy-2-propanol; phases: Liquid
Fixed: Pressure, kPa = 101
Property: Mass density, kg/m3 (Liquid); method: Vibrating tube method
Temperature, K	Mass density, kg/m3	uncertainty
288.15	925.9	0.752
293.15	921.196	0.747
298.15	916.449	0.742
303.15	911.655	0.737
308.15	906.816	0.732

System: methyl ethanoate; phases: Liquid
Fixed: Pressure, kPa = 101
Property: Speed of sound, m/s (Liquid); method: Sing-around technique in a fixed-path interferometer
Temperature, K	Speed of sound, m/s	uncertainty
288.15	1200.38	1.58
293.15	1178.95	1.58
298.15	1155.93	1.59
303.15	1132.98	1.58
308.15	1110.02	1.58

System: methyl ethanoate; phases: Liquid
Fixed: Pressure, kPa = 101
Property: Mass density, kg/m3 (Liquid); method: Vibrating tube method
Temperature, K	Mass density, kg/m3	uncertainty
288.15	940.883	0.238
293.15	934.389	0.239
298.15	927.817	0.239
303.15	921.188	0.24
308.15	914.498	0.24

System: ethyl acetate; phases: Liquid
Fixed: Pressure, kPa = 101
Property: Speed of sound, m/s (Liquid); method: Sing-around technique in a fixed-path interferometer
Temperature, K	Speed of sound, m/s	uncertainty
288.15	1187.92	1.33
293.15	1165.8	1.33
298.15	1143.23	1.32
303.15	1120.8	1.32
308.15	1098.43	1.32

System: ethyl acetate; phases: Liquid
Fixed: Pressure, kPa = 101
Property: Mass density, kg/m3 (Liquid); method: Vibrating tube method
Temperature, K	Mass density, kg/m3	uncertainty
288.15	906.937	0.149
293.15	900.893	0.151
298.15	894.799	0.152
303.15	888.659	0.154
308.15	882.473	0.156

System: butyl ethanoate; phases: Liquid
Fixed: Pressure, kPa = 101
Property: Speed of sound, m/s (Liquid); method: Sing-around technique in a fixed-path interferometer
Temperature, K	Speed of sound, m/s	uncertainty
288.15	1233.32	1.58
293.15	1213.05	1.58
298.15	1192.35	1.58
303.15	1171.79	1.57
308.15	1151.35	1.57

System: butyl ethanoate; phases: Liquid
Fixed: Pressure, kPa = 101
Property: Mass density, kg/m3 (Liquid); method: Vibrating tube method
Temperature, K	Mass density, kg/m3	uncertainty
288.15	885.958	0.237
293.15	880.87	0.238
298.15	875.739	0.238
303.15	870.584	0.238
308.15	865.41	0.239

System: 1-ethoxy-2-propanol; phases: Liquid
Fixed: Pressure, kPa = 101
Property: Speed of sound, m/s (Liquid); method: Sing-around technique in a fixed-path interferometer
Temperature, K	Speed of sound, m/s	uncertainty
288.15	1287.05	10.07
293.15	1269.02	10.07
298.15	1250.5	10.07
303.15	1231.98	10.07
308.15	1213.53	10.07

System: 1-ethoxy-2-propanol; phases: Liquid
Fixed: Pressure, kPa = 101
Property: Mass density, kg/m3 (Liquid); method: Vibrating tube method
Temperature, K	Mass density, kg/m3	uncertainty
288.15	905.997	19.692
293.15	901.349	19.493
298.15	896.65	19.292
303.15	891.9	19.091
308.15	887.108	18.889

System: 1-propoxy-2-propanol; phases: Liquid
Fixed: Pressure, kPa = 101
Property: Speed of sound, m/s (Liquid); method: Sing-around technique in a fixed-path interferometer
Temperature, K	Speed of sound, m/s	uncertainty
288.15	1282.87	1.93
293.15	1266.18	1.93
298.15	1247.82	1.93
303.15	1229.44	1.93
308.15	1211.05	1.93

System: 1-propoxy-2-propanol; phases: Liquid
Fixed: Pressure, kPa = 101
Property: Mass density, kg/m3 (Liquid); method: Vibrating tube method
Temperature, K	Mass density, kg/m3	uncertainty
288.15	891.209	0.432
293.15	886.741	0.43
298.15	882.182	0.428
303.15	877.58	0.427
308.15	872.938	0.425

System: 1-butoxy-2-propanol; phases: Liquid
Fixed: Pressure, kPa = 101
Property: Speed of sound, m/s (Liquid); method: Sing-around technique in a fixed-path interferometer
Temperature, K	Speed of sound, m/s	uncertainty
288.15	1297.59	1.58
293.15	1279.95	1.57
298.15	1261.87	1.57
303.15	1243.85	1.57
308.15	1225.83	1.57

System: 1-butoxy-2-propanol; phases: Liquid
Fixed: Pressure, kPa = 101
Property: Mass density, kg/m3 (Liquid); method: Vibrating tube method
Temperature, K	Mass density, kg/m3	uncertainty
288.15	883.517	0.236
293.15	879.164	0.236
298.15	874.776	0.237
303.15	870.351	0.237
308.15	865.892	0.237

System: methyl ethanoate + 1-methoxy-2-propanol; phases: Liquid
Fixed: Pressure, kPa = 101
Property: Speed of sound, m/s (Liquid); method: Sing-around technique in a fixed-path interferometer
Temperature, K	Mole fraction of 1-methoxy-2-propanol	Speed of sound, m/s	uncertainty
288.15	0	1200.38	1.58
288.15	0.0207	1202.73	1.6
288.15	0.0464	1204.44	1.62
288.15	0.1088	1209.23	1.65
288.15	0.1939	1215.18	1.71
288.15	0.2843	1221.96	1.78
288.15	0.3772	1229.5	1.85
288.15	0.4897	1240.5	1.93
288.15	0.576	1249.8	1.99
288.15	0.7024	1263.31	2.1
288.15	0.7922	1273.63	2.17
288.15	0.8772	1284.13	2.24
288.15	0.9355	1291.02	2.29
288.15	0.9667	1294.47	2.32
288.15	1	1298.14	2.34
293.15	0	1178.95	1.58
293.15	0.0207	1180.34	1.6
293.15	0.0464	1182.35	1.62
293.15	0.1088	1187.72	1.65
293.15	0.1939	1193.7	1.71
293.15	0.2843	1200.89	1.78
293.15	0.3772	1209.01	1.84
293.15	0.4897	1220.8	1.93
293.15	0.576	1230.25	1.99
293.15	0.7024	1244	2.1
293.15	0.7922	1254.7	2.17
293.15	0.8772	1265.55	2.24
293.15	0.9355	1272.67	2.29
293.15	0.9667	1276.26	2.31
293.15	1	1280.08	2.34
298.15	0	1155.93	1.59
298.15	0.0207	1157.5	1.6
298.15	0.0464	1159.18	1.62
298.15	0.1088	1165.35	1.65
298.15	0.1939	1171.76	1.71
298.15	0.2843	1179.38	1.77
298.15	0.3772	1188.04	1.84
298.15	0.4897	1200.02	1.93
298.15	0.576	1209.99	1.99
298.15	0.7024	1224.24	2.09
298.15	0.7922	1235.33	2.17
298.15	0.8772	1246.5	2.24
298.15	0.9355	1253.87	2.29
298.15	0.9667	1257.61	2.31
298.15	1	1261.54	2.34
303.15	0	1132.98	1.58
303.15	0.0207	1134.72	1.6
303.15	0.0464	1136.54	1.61
303.15	0.1088	1143.03	1.65
303.15	0.1939	1149.87	1.71
303.15	0.2843	1157.93	1.77
303.15	0.3772	1166.79	1.84
303.15	0.4897	1179.4	1.92
303.15	0.576	1189.68	1.99
303.15	0.7024	1204.55	2.09
303.15	0.7922	1215.98	2.17
303.15	0.8772	1227.52	2.24
303.15	0.9355	1235.14	2.29
303.15	0.9667	1238.97	2.31
303.15	1	1243.03	2.34
308.15	0	1110.02	1.58
308.15	0.0207	1111.93	1.59
308.15	0.0464	1114.41	1.61
308.15	0.1088	1120.75	1.65
308.15	0.1939	1128.01	1.7
308.15	0.2843	1136.48	1.77
308.15	0.3772	1145.5	1.83
308.15	0.4897	1159.01	1.92
308.15	0.576	1169.61	1.99
308.15	0.7024	1184.88	2.09
308.15	0.7922	1196.66	2.16
308.15	0.8772	1208.53	2.23
308.15	0.9355	1216.39	2.28
308.15	0.9667	1220.3	2.31
308.15	1	1224.5	2.34

System: methyl ethanoate + 1-methoxy-2-propanol; phases: Liquid
Fixed: Pressure, kPa = 101
Property: Mass density, kg/m3 (Liquid); method: Vibrating tube method
Temperature, K	Mole fraction of 1-methoxy-2-propanol	Mass density, kg/m3	uncertainty
288.15	0	940.883	0.238
288.15	0.0207	940.053	0.245
288.15	0.0464	939.345	0.252
288.15	0.1088	937.89	0.275
288.15	0.1939	935.816	0.308
288.15	0.2843	933.707	0.347
288.15	0.3772	932	0.389
288.15	0.4897	930.444	0.444
288.15	0.576	929.443	0.49
288.15	0.7024	928.089	0.561
288.15	0.7922	927.337	0.616
288.15	0.8772	926.778	0.67
288.15	0.9355	926.432	0.708
288.15	0.9667	926.133	0.73
288.15	1	925.9	0.752
293.15	0	934.389	0.239
293.15	0.0207	933.582	0.245
293.15	0.0464	932.934	0.252
293.15	0.1088	931.615	0.275
293.15	0.1939	929.703	0.308
293.15	0.2843	927.777	0.345
293.15	0.3772	926.311	0.387
293.15	0.4897	925.001	0.442
293.15	0.576	924.044	0.487
293.15	0.7024	922.902	0.558
293.15	0.7922	922.299	0.612
293.15	0.8772	921.881	0.665
293.15	0.9355	921.626	0.704
293.15	0.9667	921.378	0.725
293.15	1	921.196	0.747
298.15	0	927.817	0.239
298.15	0.0207	927.069	0.245
298.15	0.0464	926.466	0.252
298.15	0.1088	925.284	0.275
298.15	0.1939	923.547	0.307
298.15	0.2843	921.803	0.344
298.15	0.3772	920.59	0.385
298.15	0.4897	919.404	0.44
298.15	0.576	918.604	0.484
298.15	0.7024	917.676	0.554
298.15	0.7922	917.224	0.608
298.15	0.8772	916.944	0.661
298.15	0.9355	916.78	0.699
298.15	0.9667	916.583	0.72
298.15	1	916.449	0.742
303.15	0	921.188	0.24
303.15	0.0207	920.495	0.245
303.15	0.0464	919.946	0.253
303.15	0.1088	918.901	0.274
303.15	0.1939	917.338	0.306
303.15	0.2843	915.78	0.343
303.15	0.3772	914.766	0.384
303.15	0.4897	913.8	0.437
303.15	0.576	913.22	0.481
303.15	0.7024	912.405	0.551
303.15	0.7922	912.101	0.604
303.15	0.8772	911.965	0.656
303.15	0.9355	911.892	0.694
303.15	0.9667	911.739	0.715
303.15	1	911.655	0.737
308.15	0	914.498	0.24
308.15	0.0207	913.861	0.245
308.15	0.0464	913.38	0.253
308.15	0.1088	912.46	0.274
308.15	0.1939	911.075	0.306
308.15	0.2843	909.706	0.342
308.15	0.3772	908.911	0.382
308.15	0.4897	908.176	0.435
308.15	0.576	907.711	0.479
308.15	0.7024	907.151	0.547
308.15	0.7922	906.934	0.6
308.15	0.8772	906.94	0.652
308.15	0.9355	906.957	0.689
308.15	0.9667	906.849	0.71
308.15	1	906.816	0.732

System: 1-methoxy-2-propanol + ethyl acetate; phases: Liquid
Fixed: Pressure, kPa = 101
Property: Speed of sound, m/s (Liquid); method: Sing-around technique in a fixed-path interferometer
Temperature, K	Mole fraction of 1-methoxy-2-propanol	Speed of sound, m/s	uncertainty
288.15	0	1187.92	1.33
288.15	0.0264	1188.37	1.34
288.15	0.0486	1189.61	1.36
288.15	0.1011	1193.59	1.39
288.15	0.1965	1201.8	1.46
288.15	0.2958	1210.99	1.55
288.15	0.3928	1219.73	1.64
288.15	0.4978	1230.29	1.75
288.15	0.5951	1241.92	1.85
288.15	0.6933	1254.33	1.97
288.15	0.7955	1268.25	2.09
288.15	0.8986	1283.34	2.22
288.15	0.9484	1290.86	2.28
288.15	1	1298.14	2.34
293.15	0	1165.8	1.33
293.15	0.0264	1166.36	1.34
293.15	0.0486	1167.62	1.35
293.15	0.1011	1171.84	1.39
293.15	0.1965	1180.46	1.46
293.15	0.2958	1190.09	1.54
293.15	0.3928	1199.22	1.64
293.15	0.4978	1210.27	1.75
293.15	0.5951	1222.21	1.85
293.15	0.6933	1235.15	1.96
293.15	0.7955	1249.31	2.09
293.15	0.8986	1264.84	2.21
293.15	0.9484	1272.57	2.28
293.15	1	1280.08	2.34
298.15	0	1143.23	1.32
298.15	0.0264	1143.91	1.34
298.15	0.0486	1145.25	1.35
298.15	0.1011	1149.69	1.39
298.15	0.1965	1158.73	1.46
298.15	0.2958	1168.78	1.54
298.15	0.3928	1178.28	1.64
298.15	0.4978	1189.72	1.74
298.15	0.5951	1202.04	1.85
298.15	0.6933	1215.37	1.96
298.15	0.7955	1229.93	2.09
298.15	0.8986	1245.89	2.21
298.15	0.9484	1253.82	2.28
298.15	1	1261.54	2.34
303.15	0	1120.8	1.32
303.15	0.0264	1121.58	1.33
303.15	0.0486	1123.01	1.35
303.15	0.1011	1127.64	1.38
303.15	0.1965	1137.14	1.45
303.15	0.2958	1147.52	1.54
303.15	0.3928	1157.44	1.63
303.15	0.4978	1169.28	1.74
303.15	0.5951	1181.97	1.85
303.15	0.6933	1195.66	1.96
303.15	0.7955	1210.6	2.08
303.15	0.8986	1226.97	2.21
303.15	0.9484	1235.1	2.27
303.15	1	1243.03	2.34
308.15	0	1098.43	1.32
308.15	0.0264	1099.31	1.33
308.15	0.0486	1100.87	1.34
308.15	0.1011	1105.71	1.38
308.15	0.1965	1115.63	1.45
308.15	0.2958	1126.38	1.54
308.15	0.3928	1136.68	1.63
308.15	0.4978	1148.88	1.74
308.15	0.5951	1161.91	1.84
308.15	0.6933	1175.98	1.96
308.15	0.7955	1191.31	2.08
308.15	0.8986	1208.06	2.21
308.15	0.9484	1216.37	2.27
308.15	1	1224.5	2.34

System: 1-methoxy-2-propanol + ethyl acetate; phases: Liquid
Fixed: Pressure, kPa = 101
Property: Mass density, kg/m3 (Liquid); method: Vibrating tube method
Temperature, K	Mole fraction of 1-methoxy-2-propanol	Mass density, kg/m3	uncertainty
288.15	0	906.937	0.149
288.15	0.0264	907.15	0.153
288.15	0.0486	907.249	0.157
288.15	0.1011	907.823	0.167
288.15	0.1965	909.242	0.191
288.15	0.2958	910.701	0.223
288.15	0.3928	912.411	0.265
288.15	0.4978	914.369	0.326
288.15	0.5951	916.403	0.391
288.15	0.6933	918.648	0.465
288.15	0.7955	921.023	0.551
288.15	0.8986	923.517	0.648
288.15	0.9484	924.793	0.698
288.15	1	925.9	0.752
293.15	0	900.893	0.151
293.15	0.0264	901.138	0.155
293.15	0.0486	901.253	0.159
293.15	0.1011	901.893	0.168
293.15	0.1965	903.431	0.192
293.15	0.2958	905.101	0.223
293.15	0.3928	906.924	0.265
293.15	0.4978	908.964	0.325
293.15	0.5951	911.118	0.389
293.15	0.6933	913.5	0.462
293.15	0.7955	916.019	0.548
293.15	0.8986	918.665	0.643
293.15	0.9484	920.017	0.693
293.15	1	921.196	0.747
298.15	0	894.799	0.152
298.15	0.0264	895.075	0.156
298.15	0.0486	895.221	0.16
298.15	0.1011	895.922	0.17
298.15	0.1965	897.582	0.193
298.15	0.2958	899.402	0.224
298.15	0.3928	901.326	0.265
298.15	0.4978	903.499	0.325
298.15	0.5951	905.792	0.388
298.15	0.6933	908.311	0.46
298.15	0.7955	910.974	0.544
298.15	0.8986	913.77	0.639
298.15	0.9484	915.195	0.689
298.15	1	916.449	0.742
303.15	0	888.659	0.154
303.15	0.0264	888.968	0.158
303.15	0.0486	889.145	0.161
303.15	0.1011	889.909	0.171
303.15	0.1965	891.693	0.194
303.15	0.2958	893.702	0.225
303.15	0.3928	895.684	0.265
303.15	0.4978	897.996	0.324
303.15	0.5951	900.423	0.386
303.15	0.6933	903.078	0.458
303.15	0.7955	905.884	0.541
303.15	0.8986	908.832	0.635
303.15	0.9484	910.327	0.684
303.15	1	911.655	0.737
308.15	0	882.473	0.156
308.15	0.0264	882.814	0.159
308.15	0.0486	883.025	0.163
308.15	0.1011	883.853	0.172
308.15	0.1965	885.76	0.195
308.15	0.2958	887.85	0.225
308.15	0.3928	890.004	0.265
308.15	0.4978	892.45	0.323
308.15	0.5951	895.011	0.385
308.15	0.6933	897.803	0.455
308.15	0.7955	900.752	0.538
308.15	0.8986	903.845	0.631
308.15	0.9484	905.413	0.68
308.15	1	906.816	0.732

System: 1-methoxy-2-propanol + butyl ethanoate; phases: Liquid
Fixed: Pressure, kPa = 101
Property: Speed of sound, m/s (Liquid); method: Sing-around technique in a fixed-path interferometer
Temperature, K	Mole fraction of 1-methoxy-2-propanol	Speed of sound, m/s	uncertainty
288.15	0	1233.32	1.58
288.15	0.02	1233.96	1.59
288.15	0.0317	1233.8	1.6
288.15	0.0966	1235.72	1.64
288.15	0.1861	1238.11	1.7
288.15	0.3019	1241.72	1.79
288.15	0.3836	1245.07	1.85
288.15	0.5168	1252.55	1.95
288.15	0.599	1258.06	2.01
288.15	0.6873	1264.78	2.08
288.15	0.7896	1274.11	2.17
288.15	0.8984	1285.81	2.26
288.15	0.9399	1290.83	2.29
288.15	0.9711	1294.81	2.32
288.15	1	1298.14	2.34
293.15	0	1213.05	1.58
293.15	0.02	1213.66	1.59
293.15	0.0317	1213.7	1.6
293.15	0.0966	1215.63	1.64
293.15	0.1861	1218.11	1.7
293.15	0.3019	1221.97	1.78
293.15	0.3836	1225.42	1.84
293.15	0.5168	1233.18	1.95
293.15	0.599	1238.87	2.01
293.15	0.6873	1245.8	2.08
293.15	0.7896	1255.41	2.17
293.15	0.8984	1267.4	2.26
293.15	0.9399	1272.55	2.29
293.15	0.9711	1276.61	2.32
293.15	1	1280.08	2.34
298.15	0	1192.35	1.58
298.15	0.02	1193.01	1.59
298.15	0.0317	1193.02	1.6
298.15	0.0966	1195.1	1.64
298.15	0.1861	1197.75	1.7
298.15	0.3019	1201.76	1.78
298.15	0.3836	1205.39	1.84
298.15	0.5168	1213.4	1.94
298.15	0.599	1219.26	2.01
298.15	0.6873	1226.39	2.08
298.15	0.7896	1236.22	2.16
298.15	0.8984	1248.51	2.26
298.15	0.9399	1253.81	2.29
298.15	0.9711	1258	2.32
298.15	1	1261.54	2.34
303.15	0	1171.79	1.57
303.15	0.02	1172.5	1.59
303.15	0.0317	1172.54	1.59
303.15	0.0966	1174.69	1.64
303.15	0.1861	1177.5	1.7
303.15	0.3019	1181.7	1.78
303.15	0.3836	1185.46	1.84
303.15	0.5168	1193.73	1.94
303.15	0.599	1199.72	2.01
303.15	0.6873	1207.04	2.08
303.15	0.7896	1217.12	2.16
303.15	0.8984	1229.69	2.25
303.15	0.9399	1235.11	2.29
303.15	0.9711	1239.38	2.32
303.15	1	1243.03	2.34
308.15	0	1151.35	1.57
308.15	0.02	1152.09	1.58
308.15	0.0317	1152.13	1.59
308.15	0.0966	1154.39	1.63
308.15	0.1861	1157.36	1.69
308.15	0.3019	1161.73	1.78
308.15	0.3836	1165.59	1.84
308.15	0.5168	1174.11	1.94
308.15	0.599	1180.23	2
308.15	0.6873	1187.72	2.07
308.15	0.7896	1198.03	2.16
308.15	0.8984	1210.86	2.25
308.15	0.9399	1216.41	2.29
308.15	0.9711	1220.78	2.31
308.15	1	1224.5	2.34

System: 1-methoxy-2-propanol + butyl ethanoate; phases: Liquid
Fixed: Pressure, kPa = 101
Property: Mass density, kg/m3 (Liquid); method: Vibrating tube method
Temperature, K	Mole fraction of 1-methoxy-2-propanol	Mass density, kg/m3	uncertainty
288.15	0	885.958	0.237
288.15	0.02	886.462	0.242
288.15	0.0317	886.612	0.245
288.15	0.0966	888.134	0.266
288.15	0.1861	890.343	0.298
288.15	0.3019	893.536	0.345
288.15	0.3836	896.154	0.381
288.15	0.5168	901.159	0.445
288.15	0.599	904.586	0.489
288.15	0.6873	908.54	0.54
288.15	0.7896	913.679	0.603
288.15	0.8984	919.722	0.677
288.15	0.9399	922.264	0.707
288.15	0.9711	924.228	0.731
288.15	1	925.9	0.752
293.15	0	880.87	0.238
293.15	0.02	881.348	0.243
293.15	0.0317	881.507	0.246
293.15	0.0966	883.029	0.266
293.15	0.1861	885.237	0.298
293.15	0.3019	888.454	0.344
293.15	0.3836	891.087	0.379
293.15	0.5168	896.138	0.443
293.15	0.599	899.602	0.486
293.15	0.6873	903.602	0.536
293.15	0.7896	908.805	0.599
293.15	0.8984	914.933	0.673
293.15	0.9399	917.503	0.702
293.15	0.9711	919.495	0.726
293.15	1	921.196	0.747
298.15	0	875.739	0.238
298.15	0.02	876.219	0.243
298.15	0.0317	876.372	0.246
298.15	0.0966	877.897	0.266
298.15	0.1861	880.108	0.298
298.15	0.3019	883.34	0.343
298.15	0.3836	885.993	0.378
298.15	0.5168	891.082	0.441
298.15	0.599	894.583	0.484
298.15	0.6873	898.627	0.533
298.15	0.7896	903.889	0.596
298.15	0.8984	910.096	0.668
298.15	0.9399	912.702	0.698
298.15	0.9711	914.726	0.721
298.15	1	916.449	0.742
303.15	0	870.584	0.238
303.15	0.02	871.064	0.243
303.15	0.0317	871.218	0.246
303.15	0.0966	872.738	0.266
303.15	0.1861	874.954	0.297
303.15	0.3019	878.199	0.342
303.15	0.3836	880.868	0.376
303.15	0.5168	885.995	0.439
303.15	0.599	889.525	0.481
303.15	0.6873	893.613	0.53
303.15	0.7896	898.935	0.592
303.15	0.8984	905.216	0.664
303.15	0.9399	907.856	0.693
303.15	0.9711	909.906	0.716
303.15	1	911.655	0.737
308.15	0	865.41	0.239
308.15	0.02	865.886	0.244
308.15	0.0317	866.038	0.246
308.15	0.0966	867.556	0.266
308.15	0.1861	869.775	0.297
308.15	0.3019	873.032	0.341
308.15	0.3836	875.714	0.375
308.15	0.5168	880.877	0.437
308.15	0.599	884.435	0.479
308.15	0.6873	888.561	0.527
308.15	0.7896	893.941	0.588
308.15	0.8984	900.292	0.659
308.15	0.9399	902.967	0.688
308.15	0.9711	905.043	0.711
308.15	1	906.816	0.732

System: methyl ethanoate + 1-ethoxy-2-propanol; phases: Liquid
Fixed: Pressure, kPa = 101
Property: Speed of sound, m/s (Liquid); method: Sing-around technique in a fixed-path interferometer
Temperature, K	Mole fraction of 1-ethoxy-2-propanol	Speed of sound, m/s	uncertainty
288.15	0	1200.38	1.58
288.15	0.0336	1203.17	1.79
288.15	0.0923	1205.2	2.2
288.15	0.1948	1212.61	3.01
288.15	0.2987	1220.91	3.89
288.15	0.375	1227.02	4.54
288.15	0.4889	1237.33	5.54
288.15	0.5977	1247.63	6.5
288.15	0.6792	1255.94	7.22
288.15	0.7981	1267.24	8.27
288.15	0.8878	1276	9.07
288.15	0.9287	1280.28	9.44
288.15	0.9591	1283.34	9.71
288.15	1	1287.05	10.07
293.15	0	1178.95	1.58
293.15	0.0336	1180.84	1.79
293.15	0.0923	1184.5	2.2
293.15	0.1948	1191.68	3.01
293.15	0.2987	1200.4	3.89
293.15	0.375	1206.81	4.54
293.15	0.4889	1217.8	5.54
293.15	0.5977	1228.1	6.49
293.15	0.6792	1236.59	7.22
293.15	0.7981	1248.47	8.27
293.15	0.8878	1257.58	9.07
293.15	0.9287	1262.02	9.44
293.15	0.9591	1265.17	9.71
293.15	1	1269.02	10.07
298.15	0	1155.93	1.59
298.15	0.0336	1158.07	1.79
298.15	0.0923	1162.08	2.2
298.15	0.1948	1169.81	3.01
298.15	0.2987	1179.02	3.89
298.15	0.375	1185.85	4.54
298.15	0.4889	1197.52	5.54
298.15	0.5977	1208.08	6.49
298.15	0.6792	1217.06	7.22
298.15	0.7981	1229.24	8.27
298.15	0.8878	1238.67	9.07
298.15	0.9287	1243.25	9.44
298.15	0.9591	1246.54	9.71
298.15	1	1250.5	10.07
303.15	0	1132.98	1.58
303.15	0.0336	1135.35	1.79
303.15	0.0923	1139.66	2.2
303.15	0.1948	1147.98	3.01
303.15	0.2987	1158.03	3.88
303.15	0.375	1164.92	4.54
303.15	0.4889	1177.14	5.54
303.15	0.5977	1188.11	6.49
303.15	0.6792	1197.44	7.22
303.15	0.7981	1210.07	8.27
303.15	0.8878	1219.82	9.07
303.15	0.9287	1224.53	9.44
303.15	0.9591	1227.94	9.71
303.15	1	1231.98	10.07
308.15	0	1110.02	1.58
308.15	0.0336	1112.64	1.79
308.15	0.0923	1117.32	2.2
308.15	0.1948	1126.21	3.01
308.15	0.2987	1136.5	3.88
308.15	0.375	1144.05	4.54
308.15	0.4889	1156.4	5.54
308.15	0.5977	1168.17	6.49
308.15	0.6792	1177.86	7.22
308.15	0.7981	1190.91	8.27
308.15	0.8878	1200.97	9.07
308.15	0.9287	1205.8	9.44
308.15	0.9591	1209.32	9.71
308.15	1	1213.53	10.07

System: methyl ethanoate + 1-ethoxy-2-propanol; phases: Liquid
Fixed: Pressure, kPa = 101
Property: Mass density, kg/m3 (Liquid); method: Vibrating tube method
Temperature, K	Mole fraction of 1-ethoxy-2-propanol	Mass density, kg/m3	uncertainty
288.15	0	940.883	0.238
288.15	0.0336	938.35	0.357
288.15	0.0923	934.804	0.647
288.15	0.1948	929.485	1.401
288.15	0.2987	924.601	2.489
288.15	0.375	921.55	3.504
288.15	0.4889	917.456	5.375
288.15	0.5977	914.322	7.581
288.15	0.6792	912.412	9.518
288.15	0.7981	909.776	12.797
288.15	0.8878	908.019	15.647
288.15	0.9287	907.284	17.059
288.15	0.9591	906.805	18.157
288.15	1	905.997	19.692
293.15	0	934.389	0.239
293.15	0.0336	931.927	0.355
293.15	0.0923	928.519	0.642
293.15	0.1948	923.449	1.386
293.15	0.2987	918.901	2.461
293.15	0.375	915.9	3.465
293.15	0.4889	912.14	5.316
293.15	0.5977	909.201	7.499
293.15	0.6792	907.289	9.414
293.15	0.7981	904.838	12.661
293.15	0.8878	903.213	15.484
293.15	0.9287	902.541	16.884
293.15	0.9591	902.11	17.972
293.15	1	901.349	19.493
298.15	0	927.817	0.239
298.15	0.0336	925.457	0.354
298.15	0.0923	922.187	0.637
298.15	0.1948	917.364	1.371
298.15	0.2987	913.002	2.433
298.15	0.375	910.322	3.426
298.15	0.4889	906.712	5.255
298.15	0.5977	903.912	7.415
298.15	0.6792	902.131	9.311
298.15	0.7981	899.857	12.525
298.15	0.8878	898.361	15.321
298.15	0.9287	897.746	16.707
298.15	0.9591	897.321	17.785
298.15	1	896.65	19.292
303.15	0	921.188	0.24
303.15	0.0336	918.922	0.352
303.15	0.0923	915.79	0.631
303.15	0.1948	911.224	1.356
303.15	0.2987	907.211	2.405
303.15	0.375	904.562	3.385
303.15	0.4889	901.234	5.195
303.15	0.5977	898.646	7.332
303.15	0.6792	896.924	9.206
303.15	0.7981	894.831	12.388
303.15	0.8878	893.461	15.157
303.15	0.9287	892.904	16.53
303.15	0.9591	892.6	17.601
303.15	1	891.9	19.091
308.15	0	914.498	0.24
308.15	0.0336	912.328	0.351
308.15	0.0923	909.344	0.626
308.15	0.1948	905.033	1.341
308.15	0.2987	901.201	2.377
308.15	0.375	898.802	3.346
308.15	0.4889	895.611	5.134
308.15	0.5977	893.255	7.247
308.15	0.6792	891.671	9.102
308.15	0.7981	889.757	12.251
308.15	0.8878	888.516	14.993
308.15	0.9287	888.014	16.353
308.15	0.9591	887.651	17.409
308.15	1	887.108	18.889

System: ethyl acetate + 1-ethoxy-2-propanol; phases: Liquid
Fixed: Pressure, kPa = 101
Property: Speed of sound, m/s (Liquid); method: Sing-around technique in a fixed-path interferometer
Temperature, K	Mole fraction of 1-ethoxy-2-propanol	Speed of sound, m/s	uncertainty
288.15	0	1187.92	1.33
288.15	0.0199	1187.59	1.41
288.15	0.0423	1189.44	1.52
288.15	0.1099	1194.2	1.97
288.15	0.1791	1200.12	2.52
288.15	0.3025	1210.1	3.59
288.15	0.4182	1221.02	4.64
288.15	0.5084	1230.26	5.47
288.15	0.5947	1239.32	6.27
288.15	0.6921	1250.3	7.18
288.15	0.8	1263.79	8.19
288.15	0.8807	1272.98	8.95
288.15	0.941	1280.62	9.52
288.15	0.9689	1283.83	9.78
288.15	1	1287.05	10.07
293.15	0	1165.8	1.33
293.15	0.0199	1165.52	1.41
293.15	0.0423	1167.34	1.52
293.15	0.1099	1172.53	1.97
293.15	0.1791	1179.12	2.52
293.15	0.3025	1189.35	3.59
293.15	0.4182	1200.88	4.64
293.15	0.5084	1210.38	5.47
293.15	0.5947	1219.74	6.27
293.15	0.6921	1231.08	7.18
293.15	0.8	1245.03	8.19
293.15	0.8807	1254.53	8.95
293.15	0.941	1262.56	9.52
293.15	0.9689	1265.72	9.78
293.15	1	1269.02	10.07
298.15	0	1143.23	1.32
298.15	0.0199	1143.05	1.4
298.15	0.0423	1145	1.52
298.15	0.1099	1150.48	1.97
298.15	0.1791	1157.02	2.52
298.15	0.3025	1168.19	3.59
298.15	0.4182	1180.22	4.64
298.15	0.5084	1190.04	5.47
298.15	0.5947	1199.73	6.27
298.15	0.6921	1211.44	7.18
298.15	0.8	1225.83	8.19
298.15	0.8807	1235.61	8.95
298.15	0.941	1243.86	9.52
298.15	0.9689	1247.1	9.78
298.15	1	1250.5	10.07
303.15	0	1120.8	1.32
303.15	0.0199	1120.71	1.4
303.15	0.0423	1122.71	1.52
303.15	0.1099	1128.57	1.97
303.15	0.1791	1135.11	2.52
303.15	0.3025	1147.12	3.59
303.15	0.4182	1159.55	4.64
303.15	0.5084	1169.79	5.47
303.15	0.5947	1179.79	6.27
303.15	0.6921	1191.89	7.18
303.15	0.8	1206.68	8.19
303.15	0.8807	1216.73	8.95
303.15	0.941	1225.22	9.52
303.15	0.9689	1228.52	9.78
303.15	1	1231.98	10.07
308.15	0	1098.43	1.32
308.15	0.0199	1098.45	1.39
308.15	0.0423	1100.57	1.51
308.15	0.1099	1106.73	1.96
308.15	0.1791	1114.01	2.51
308.15	0.3025	1126.13	3.58
308.15	0.4182	1138.88	4.63
308.15	0.5084	1149.53	5.47
308.15	0.5947	1159.9	6.27
308.15	0.6921	1172.38	7.18
308.15	0.8	1187.57	8.19
308.15	0.8807	1197.86	8.95
308.15	0.941	1206.56	9.52
308.15	0.9689	1209.93	9.78
308.15	1	1213.53	10.07

System: ethyl acetate + 1-ethoxy-2-propanol; phases: Liquid
Fixed: Pressure, kPa = 101
Property: Mass density, kg/m3 (Liquid); method: Vibrating tube method
Temperature, K	Mole fraction of 1-ethoxy-2-propanol	Mass density, kg/m3	uncertainty
288.15	0	906.937	0.149
288.15	0.0199	906.505	0.173
288.15	0.0423	906.254	0.214
288.15	0.1099	905.436	0.461
288.15	0.1791	904.746	0.873
288.15	0.3025	904.321	2
288.15	0.4182	904.151	3.54
288.15	0.5084	904.148	5.086
288.15	0.5947	904.256	6.867
288.15	0.6921	904.58	9.254
288.15	0.8	905.256	12.396
288.15	0.8807	905.505	15.098
288.15	0.941	905.873	17.333
288.15	0.9689	905.902	18.425
288.15	1	905.997	19.692
293.15	0	900.893	0.151
293.15	0.0199	900.483	0.174
293.15	0.0423	900.26	0.215
293.15	0.1099	899.541	0.459
293.15	0.1791	898.982	0.865
293.15	0.3025	898.707	1.978
293.15	0.4182	898.701	3.5
293.15	0.5084	898.834	5.03
293.15	0.5947	899.058	6.791
293.15	0.6921	899.513	9.153
293.15	0.8	900.342	12.265
293.15	0.8807	900.702	14.941
293.15	0.941	901.153	17.155
293.15	0.9689	901.281	18.24
293.15	1	901.349	19.493
298.15	0	894.799	0.152
298.15	0.0199	894.425	0.176
298.15	0.0423	894.234	0.215
298.15	0.1099	893.613	0.456
298.15	0.1791	893.185	0.857
298.15	0.3025	893.052	1.956
298.15	0.4182	893.2	3.46
298.15	0.5084	893.474	4.973
298.15	0.5947	893.817	6.715
298.15	0.6921	894.409	9.052
298.15	0.8	895.389	12.133
298.15	0.8807	895.853	14.783
298.15	0.941	896.38	16.977
298.15	0.9689	896.502	18.049
298.15	1	896.65	19.292
303.15	0	888.659	0.154
303.15	0.0199	888.318	0.177
303.15	0.0423	888.159	0.216
303.15	0.1099	887.642	0.453
303.15	0.1791	887.344	0.849
303.15	0.3025	887.357	1.935
303.15	0.4182	887.65	3.421
303.15	0.5084	888.071	4.916
303.15	0.5947	888.533	6.639
303.15	0.6921	889.261	8.951
303.15	0.8	890.39	12.001
303.15	0.8807	890.957	14.625
303.15	0.941	891.561	16.797
303.15	0.9689	891.75	17.861
303.15	1	891.9	19.091
308.15	0	882.473	0.156
308.15	0.0199	882.169	0.178
308.15	0.0423	882.044	0.217
308.15	0.1099	881.629	0.451
308.15	0.1791	881.453	0.841
308.15	0.3025	881.618	1.913
308.15	0.4182	882.099	3.381
308.15	0.5084	882.626	4.859
308.15	0.5947	883.206	6.563
308.15	0.6921	884.071	8.85
308.15	0.8	885.346	11.868
308.15	0.8807	886.015	14.466
308.15	0.941	886.696	16.617
308.15	0.9689	886.902	17.67
308.15	1	887.108	18.889

System: butyl ethanoate + 1-ethoxy-2-propanol; phases: Liquid
Fixed: Pressure, kPa = 101
Property: Speed of sound, m/s (Liquid); method: Sing-around technique in a fixed-path interferometer
Temperature, K	Mole fraction of 1-ethoxy-2-propanol	Speed of sound, m/s	uncertainty
288.15	0	1233.32	1.58
288.15	0.0316	1234.04	1.77
288.15	0.1121	1236.12	2.35
288.15	0.1949	1238.14	3.01
288.15	0.2977	1242.01	3.88
288.15	0.5027	1251.41	5.66
288.15	0.6005	1257.02	6.52
288.15	0.6989	1263.43	7.39
288.15	0.7925	1269.96	8.22
288.15	0.9105	1278.9	9.28
288.15	1	1287.05	10.07
293.15	0	1213.05	1.58
293.15	0.0316	1214.21	1.77
293.15	0.1121	1216.02	2.35
293.15	0.1949	1218.26	3.01
293.15	0.2977	1222.29	3.88
293.15	0.5027	1232.12	5.66
293.15	0.6005	1237.94	6.52
293.15	0.6989	1244.58	7.39
293.15	0.7925	1251.35	8.22
293.15	0.9105	1261.03	9.27
293.15	1	1269.02	10.07
298.15	0	1192.35	1.58
298.15	0.0316	1193.71	1.77
298.15	0.1121	1196.03	2.35
298.15	0.1949	1197.94	3.01
298.15	0.2977	1202.15	3.88
298.15	0.5027	1212.42	5.66
298.15	0.6005	1218.41	6.52
298.15	0.6989	1225.37	7.39
298.15	0.7925	1232.32	8.22
298.15	0.9105	1242.23	9.27
298.15	1	1250.5	10.07
303.15	0	1171.79	1.57
303.15	0.0316	1173.21	1.77
303.15	0.1121	1175.51	2.35
303.15	0.1949	1177.74	3.01
303.15	0.2977	1182.16	3.87
303.15	0.5027	1192.82	5.66
303.15	0.6005	1199.03	6.52
303.15	0.6989	1206.21	7.39
303.15	0.7925	1213.36	8.22
303.15	0.9105	1223.41	9.27
303.15	1	1231.98	10.07
308.15	0	1151.35	1.57
308.15	0.0316	1152.51	1.77
308.15	0.1121	1155.12	2.35
308.15	0.1949	1157.62	3.01
308.15	0.2977	1162.22	3.87
308.15	0.5027	1173.21	5.65
308.15	0.6005	1179.69	6.52
308.15	0.6989	1187.09	7.39
308.15	0.7925	1194.42	8.22
308.15	0.9105	1204.88	9.27
308.15	1	1213.53	10.07

System: butyl ethanoate + 1-ethoxy-2-propanol; phases: Liquid
Fixed: Pressure, kPa = 101
Property: Mass density, kg/m3 (Liquid); method: Vibrating tube method
Temperature, K	Mole fraction of 1-ethoxy-2-propanol	Mass density, kg/m3	uncertainty
288.15	0	885.958	0.237
288.15	0.0316	886.372	0.336
288.15	0.1121	887.021	0.717
288.15	0.1949	887.866	1.3
288.15	0.2977	889.201	2.309
288.15	0.5027	893.101	5.354
288.15	0.6005	895.402	7.342
288.15	0.6989	898.002	9.727
288.15	0.7925	900.501	12.376
288.15	0.9105	903.601	16.279
288.15	1	905.997	19.692
293.15	0	880.87	0.238
293.15	0.0316	881.276	0.335
293.15	0.1121	882.012	0.712
293.15	0.1949	882.95	1.288
293.15	0.2977	884.302	2.286
293.15	0.5027	888.211	5.298
293.15	0.6005	890.589	7.266
293.15	0.6989	893.177	9.625
293.15	0.7925	895.802	12.249
293.15	0.9105	898.901	16.113
293.15	1	901.349	19.493
298.15	0	875.739	0.238
298.15	0.0316	876.141	0.334
298.15	0.1121	877.021	0.707
298.15	0.1949	877.802	1.276
298.15	0.2977	879.301	2.263
298.15	0.5027	883.302	5.243
298.15	0.6005	885.62	7.188
298.15	0.6989	888.279	9.523
298.15	0.7925	891.002	12.121
298.15	0.9105	894.202	15.948
298.15	1	896.65	19.292
303.15	0	870.584	0.238
303.15	0.0316	870.983	0.333
303.15	0.1121	871.912	0.701
303.15	0.1949	872.802	1.265
303.15	0.2977	874.296	2.24
303.15	0.5027	878.35	5.187
303.15	0.6005	880.802	7.112
303.15	0.6989	883.501	9.423
303.15	0.7925	886.103	11.991
303.15	0.9105	889.401	15.78
303.15	1	891.9	19.091
308.15	0	865.41	0.239
308.15	0.0316	865.806	0.333
308.15	0.1121	866.711	0.696
308.15	0.1949	867.702	1.253
308.15	0.2977	869.201	2.217
308.15	0.5027	873.36	5.131
308.15	0.6005	875.803	7.035
308.15	0.6989	878.501	9.32
308.15	0.7925	881.251	11.863
308.15	0.9105	884.602	15.612
308.15	1	887.108	18.889

System: methyl ethanoate + 1-propoxy-2-propanol; phases: Liquid
Fixed: Pressure, kPa = 101
Property: Speed of sound, m/s (Liquid); method: Sing-around technique in a fixed-path interferometer
Temperature, K	Mole fraction of 1-propoxy-2-propanol	Speed of sound, m/s	uncertainty
288.15	0	1200.38	1.58
288.15	0.0992	1206.66	1.62
288.15	0.1934	1213.36	1.65
288.15	0.2956	1220.55	1.68
288.15	0.394	1228.34	1.71
288.15	0.4846	1236.24	1.74
288.15	0.5939	1245.95	1.78
288.15	0.6941	1255.55	1.82
288.15	0.7811	1263.47	1.85
288.15	0.8742	1272.49	1.88
288.15	0.9202	1276.58	1.9
288.15	0.9537	1279.5	1.91
288.15	1	1282.87	1.93
293.15	0	1178.95	1.58
293.15	0.0992	1184.76	1.62
293.15	0.1934	1191.92	1.64
293.15	0.2956	1199.77	1.68
293.15	0.394	1208.05	1.71
293.15	0.4846	1216.3	1.74
293.15	0.5939	1226.48	1.78
293.15	0.6941	1236.45	1.82
293.15	0.7811	1244.68	1.85
293.15	0.8742	1254.06	1.88
293.15	0.9202	1258.29	1.9
293.15	0.9537	1262.37	1.91
293.15	1	1266.18	1.93
298.15	0	1155.93	1.59
298.15	0.0992	1162.43	1.61
298.15	0.1934	1170.25	1.64
298.15	0.2956	1178.52	1.68
298.15	0.394	1187.29	1.71
298.15	0.4846	1195.94	1.74
298.15	0.5939	1206.57	1.78
298.15	0.6941	1216.94	1.81
298.15	0.7811	1225.47	1.85
298.15	0.8742	1235.16	1.88
298.15	0.9202	1239.56	1.9
298.15	0.9537	1243.76	1.91
298.15	1	1247.82	1.93
303.15	0	1132.98	1.58
303.15	0.0992	1140.16	1.61
303.15	0.1934	1148.58	1.64
303.15	0.2956	1157.39	1.67
303.15	0.394	1166.62	1.71
303.15	0.4846	1175.66	1.74
303.15	0.5939	1186.74	1.78
303.15	0.6941	1197.52	1.81
303.15	0.7811	1206.35	1.84
303.15	0.8742	1216.37	1.88
303.15	0.9202	1220.87	1.9
303.15	0.9537	1225.19	1.91
303.15	1	1229.44	1.93
308.15	0	1110.02	1.58
308.15	0.0992	1117.93	1.61
308.15	0.1934	1126.92	1.64
308.15	0.2956	1136.09	1.67
308.15	0.394	1145.96	1.7
308.15	0.4846	1155.42	1.74
308.15	0.5939	1167.21	1.77
308.15	0.6941	1178.13	1.81
308.15	0.7811	1187.26	1.84
308.15	0.8742	1197.58	1.88
308.15	0.9202	1202.23	1.89
308.15	0.9537	1206.62	1.91
308.15	1	1211.05	1.93

System: methyl ethanoate + 1-propoxy-2-propanol; phases: Liquid
Fixed: Pressure, kPa = 101
Property: Mass density, kg/m3 (Liquid); method: Vibrating tube method
Temperature, K	Mole fraction of 1-propoxy-2-propanol	Mass density, kg/m3	uncertainty
288.15	0	940.883	0.238
288.15	0.0992	931.078	0.254
288.15	0.1934	923.644	0.27
288.15	0.2956	916.553	0.289
288.15	0.394	911.224	0.306
288.15	0.4846	906.879	0.324
288.15	0.5939	902.274	0.345
288.15	0.6941	898.683	0.365
288.15	0.7811	896.006	0.383
288.15	0.8742	893.544	0.403
288.15	0.9202	892.406	0.414
288.15	0.9537	891.949	0.421
293.15	0	934.389	0.239
293.15	0.0992	924.88	0.253
293.15	0.1934	917.704	0.269
293.15	0.2956	910.864	0.287
293.15	0.394	905.743	0.305
293.15	0.4846	901.568	0.323
293.15	0.5939	897.158	0.344
293.15	0.6941	893.724	0.364
293.15	0.7811	891.171	0.382
293.15	0.8742	888.843	0.402
293.15	0.9202	887.763	0.412
293.15	0.9537	887.351	0.42
298.15	0	927.817	0.239
298.15	0.0992	918.636	0.253
298.15	0.1934	911.724	0.269
298.15	0.2956	905.134	0.287
298.15	0.394	900.222	0.305
298.15	0.4846	896.221	0.322
298.15	0.5939	892.003	0.343
298.15	0.6941	888.735	0.363
298.15	0.7811	886.308	0.38
298.15	0.8742	884.104	0.4
298.15	0.9202	883.081	0.41
298.15	0.9537	882.712	0.418
303.15	0	921.188	0.24
303.15	0.0992	912.339	0.253
303.15	0.1934	905.696	0.269
303.15	0.2956	899.364	0.287
303.15	0.394	894.658	0.304
303.15	0.4846	890.834	0.321
303.15	0.5939	886.81	0.342
303.15	0.6941	883.708	0.361
303.15	0.7811	881.406	0.379
303.15	0.8742	879.328	0.399
303.15	0.9202	878.36	0.409
303.15	0.9537	878.032	0.416
308.15	0	914.498	0.24
308.15	0.0992	905.99	0.252
308.15	0.1934	899.619	0.269
308.15	0.2956	893.537	0.286
308.15	0.394	889.051	0.304
308.15	0.4846	885.411	0.32
308.15	0.5939	881.601	0.341
308.15	0.6941	878.642	0.36
308.15	0.7811	876.464	0.378
308.15	0.8742	874.512	0.397
308.15	0.9202	873.6	0.407
308.15	0.9537	873.313	0.415

System: ethyl acetate + 1-propoxy-2-propanol; phases: Liquid
Fixed: Pressure, kPa = 101
Property: Speed of sound, m/s (Liquid); method: Sing-around technique in a fixed-path interferometer
Temperature, K	Mole fraction of 1-propoxy-2-propanol	Speed of sound, m/s	uncertainty
288.15	0	1187.92	1.33
288.15	0.033	1188.59	1.34
288.15	0.0579	1190.99	1.35
288.15	0.0995	1194.85	1.36
288.15	0.2014	1202.58	1.41
288.15	0.3107	1212.52	1.47
288.15	0.404	1221.02	1.52
288.15	0.5038	1230.57	1.58
288.15	0.6053	1241.02	1.65
288.15	0.69	1250	1.7
288.15	0.8078	1262.17	1.79
288.15	0.9164	1273.51	1.87
288.15	0.9564	1278.02	1.9
288.15	1	1282.87	1.93
293.15	0	1165.8	1.33
293.15	0.033	1166.81	1.33
293.15	0.0579	1169.1	1.35
293.15	0.0995	1173.23	1.36
293.15	0.2014	1181.43	1.41
293.15	0.3107	1191.9	1.47
293.15	0.404	1200.81	1.52
293.15	0.5038	1210.76	1.58
293.15	0.6053	1221.63	1.65
293.15	0.69	1231.02	1.7
293.15	0.8078	1243.42	1.79
293.15	0.9164	1255.03	1.87
293.15	0.9564	1260	1.9
293.15	1	1266.18	1.93
298.15	0	1143.23	1.32
298.15	0.033	1145.03	1.34
298.15	0.0579	1146.85	1.34
298.15	0.0995	1151.2	1.36
298.15	0.2014	1159.91	1.41
298.15	0.3107	1170.88	1.46
298.15	0.404	1180.21	1.52
298.15	0.5038	1190.54	1.58
298.15	0.6053	1201.79	1.64
298.15	0.69	1211.5	1.7
298.15	0.8078	1224.29	1.79
298.15	0.9164	1236.5	1.86
298.15	0.9564	1241.02	1.9
298.15	1	1247.82	1.93
303.15	0	1120.8	1.32
303.15	0.033	1122.01	1.33
303.15	0.0579	1124.77	1.34
303.15	0.0995	1129.33	1.36
303.15	0.2014	1138.52	1.4
303.15	0.3107	1149.95	1.46
303.15	0.404	1159.51	1.51
303.15	0.5038	1170.38	1.58
303.15	0.6053	1182.02	1.64
303.15	0.69	1192.01	1.7
303.15	0.8078	1205.23	1.78
303.15	0.9164	1218.03	1.86
303.15	0.9564	1222.5	1.89
303.15	1	1229.44	1.93
308.15	0	1098.43	1.32
308.15	0.033	1100.51	1.32
308.15	0.0579	1102.77	1.34
308.15	0.0995	1107.03	1.36
308.15	0.2014	1117.21	1.4
308.15	0.3107	1129.17	1.46
308.15	0.404	1139.03	1.51
308.15	0.5038	1150.33	1.57
308.15	0.6053	1162.32	1.64
308.15	0.69	1172.5	1.7
308.15	0.8078	1186.26	1.78
308.15	0.9164	1199.03	1.86
308.15	0.9564	1204.03	1.89
308.15	1	1211.05	1.93

System: ethyl acetate + 1-propoxy-2-propanol; phases: Liquid
Fixed: Pressure, kPa = 101
Property: Mass density, kg/m3 (Liquid); method: Vibrating tube method
Temperature, K	Mole fraction of 1-propoxy-2-propanol	Mass density, kg/m3	uncertainty
288.15	0	906.937	0.149
288.15	0.033	905.794	0.153
288.15	0.0579	905.004	0.156
288.15	0.0995	903.982	0.16
288.15	0.2014	900.927	0.176
288.15	0.3107	898.535	0.195
288.15	0.404	896.702	0.214
288.15	0.5038	895.112	0.238
288.15	0.6053	893.83	0.269
288.15	0.69	892.9	0.3
288.15	0.8078	891.72	0.346
288.15	0.9164	891.433	0.393
288.15	0.9564	891.301	0.411
288.15	1	891.209	0.432
293.15	0	900.893	0.151
293.15	0.033	899.799	0.154
293.15	0.0579	899.082	0.157
293.15	0.0995	898.143	0.162
293.15	0.2014	895.271	0.176
293.15	0.3107	893.061	0.195
293.15	0.404	891.502	0.215
293.15	0.5038	889.933	0.238
293.15	0.6053	888.795	0.269
293.15	0.69	888	0.299
293.15	0.8078	886.949	0.345
293.15	0.9164	886.842	0.392
293.15	0.9564	886.801	0.41
293.15	1	886.741	0.43
298.15	0	894.799	0.152
298.15	0.033	893.772	0.156
298.15	0.0579	893.106	0.158
298.15	0.0995	892.241	0.163
298.15	0.2014	889.563	0.177
298.15	0.3107	887.538	0.196
298.15	0.404	886.102	0.215
298.15	0.5038	884.704	0.239
298.15	0.6053	883.711	0.269
298.15	0.69	883	0.299
298.15	0.8078	882.129	0.344
298.15	0.9164	882.202	0.39
298.15	0.9564	882.201	0.408
298.15	1	882.182	0.428
303.15	0	888.659	0.154
303.15	0.033	887.705	0.157
303.15	0.0579	887.101	0.16
303.15	0.0995	886.314	0.165
303.15	0.2014	883.827	0.179
303.15	0.3107	881.982	0.197
303.15	0.404	880.69	0.216
303.15	0.5038	879.444	0.239
303.15	0.6053	878.594	0.269
303.15	0.69	878	0.299
303.15	0.8078	877.277	0.343
303.15	0.9164	877.525	0.389
303.15	0.9564	877.502	0.407
303.15	1	877.58	0.427
308.15	0	882.473	0.156
308.15	0.033	881.619	0.159
308.15	0.0579	881.045	0.161
308.15	0.0995	880.336	0.166
308.15	0.2014	878.043	0.179
308.15	0.3107	876.396	0.198
308.15	0.404	875.27	0.216
308.15	0.5038	874.155	0.239
308.15	0.6053	873.444	0.269
308.15	0.69	872.94	0.298
308.15	0.8078	872.387	0.342
308.15	0.9164	872.813	0.388
308.15	0.9564	872.801	0.405
308.15	1	872.938	0.425

System: butyl ethanoate + 1-propoxy-2-propanol; phases: Liquid
Fixed: Pressure, kPa = 101
Property: Speed of sound, m/s (Liquid); method: Sing-around technique in a fixed-path interferometer
Temperature, K	Mole fraction of 1-propoxy-2-propanol	Speed of sound, m/s	uncertainty
288.15	0	1233.32	1.58
288.15	0.0258	1233.95	1.59
288.15	0.0549	1235.18	1.6
288.15	0.1037	1236.6	1.61
288.15	0.1994	1238.9	1.64
288.15	0.2985	1243.02	1.68
288.15	0.3967	1247.21	1.71
288.15	0.4971	1251.91	1.74
288.15	0.5965	1257.32	1.78
288.15	0.6939	1263.01	1.81
288.15	0.7988	1269.21	1.85
288.15	0.8944	1275.81	1.89
288.15	0.9443	1279.03	1.91
288.15	0.9707	1280.61	1.92
288.15	1	1282.87	1.93
293.15	0	1213.05	1.58
293.15	0.0258	1213.96	1.59
293.15	0.0549	1214.64	1.6
293.15	0.1037	1216.5	1.61
293.15	0.1994	1219.6	1.64
293.15	0.2985	1223.85	1.67
293.15	0.3967	1228.32	1.71
293.15	0.4971	1233.41	1.74
293.15	0.5965	1239.23	1.78
293.15	0.6939	1245.1	1.81
293.15	0.7988	1251.64	1.85
293.15	0.8944	1258.52	1.89
293.15	0.9443	1262.09	1.91
293.15	0.9707	1263.83	1.92
293.15	1	1266.18	1.93
298.15	0	1192.35	1.58
298.15	0.0258	1193.34	1.59
298.15	0.0549	1194.38	1.59
298.15	0.1037	1196.02	1.61
298.15	0.1994	1199.34	1.64
298.15	0.2985	1203.79	1.67
298.15	0.3967	1208.45	1.71
298.15	0.4971	1213.8	1.74
298.15	0.5965	1219.81	1.78
298.15	0.6939	1225.87	1.81
298.15	0.7988	1232.68	1.85
298.15	0.8944	1239.78	1.89
298.15	0.9443	1243.48	1.91
298.15	0.9707	1245.51	1.92
298.15	1	1247.82	1.93
303.15	0	1171.79	1.57
303.15	0.0258	1172.84	1.58
303.15	0.0549	1173.97	1.59
303.15	0.1037	1175.69	1.61
303.15	0.1994	1179.19	1.64
303.15	0.2985	1183.86	1.67
303.15	0.3967	1188.71	1.71
303.15	0.4971	1194.31	1.74
303.15	0.5965	1200.46	1.78
303.15	0.6939	1206.74	1.81
303.15	0.7988	1213.79	1.85
303.15	0.8944	1221.09	1.89
303.15	0.9443	1224.92	1.91
303.15	0.9707	1227.02	1.92
303.15	1	1229.44	1.93
308.15	0	1151.35	1.57
308.15	0.0258	1152.45	1.58
308.15	0.0549	1153.67	1.59
308.15	0.1037	1155.46	1.6
308.15	0.1994	1159.15	1.63
308.15	0.2985	1164	1.67
308.15	0.3967	1169.05	1.7
308.15	0.4971	1175.01	1.74
308.15	0.5965	1181.2	1.77
308.15	0.6939	1187.71	1.81
308.15	0.7988	1194.94	1.85
308.15	0.8944	1202.47	1.89
308.15	0.9443	1206.4	1.9
308.15	0.9707	1208.51	1.91
308.15	1	1211.05	1.93

System: butyl ethanoate + 1-propoxy-2-propanol; phases: Liquid
Fixed: Pressure, kPa = 101
Property: Mass density, kg/m3 (Liquid); method: Vibrating tube method
Temperature, K	Mole fraction of 1-propoxy-2-propanol	Mass density, kg/m3	uncertainty
288.15	0	885.958	0.237
288.15	0.0258	885.834	0.241
288.15	0.0549	885.821	0.244
288.15	0.1037	885.64	0.251
288.15	0.1994	885.441	0.267
288.15	0.2985	885.58	0.284
288.15	0.3967	885.921	0.302
288.15	0.4971	886.36	0.321
288.15	0.5965	887.018	0.341
288.15	0.6939	887.793	0.362
288.15	0.7988	888.626	0.385
288.15	0.8944	889.611	0.407
288.15	0.9443	890.092	0.418
288.15	0.9707	890.342	0.425
288.15	1	891.209	0.432
293.15	0	880.87	0.238
293.15	0.0258	880.751	0.241
293.15	0.0549	880.732	0.245
293.15	0.1037	880.574	0.251
293.15	0.1994	880.404	0.267
293.15	0.2985	880.597	0.284
293.15	0.3967	880.984	0.302
293.15	0.4971	881.534	0.321
293.15	0.5965	882.197	0.34
293.15	0.6939	883.032	0.361
293.15	0.7988	883.938	0.383
293.15	0.8944	885.012	0.405
293.15	0.9443	885.504	0.417
293.15	0.9707	885.754	0.423
293.15	1	886.741	0.43
298.15	0	875.739	0.238
298.15	0.0258	875.671	0.241
298.15	0.0549	875.623	0.245
298.15	0.1037	875.484	0.252
298.15	0.1994	875.354	0.267
298.15	0.2985	875.589	0.284
298.15	0.3967	876.021	0.301
298.15	0.4971	876.603	0.32
298.15	0.5965	877.344	0.34
298.15	0.6939	878.241	0.36
298.15	0.7988	879.221	0.382
298.15	0.8944	880.3	0.404
298.15	0.9443	880.88	0.415
298.15	0.9707	881.145	0.421
298.15	1	882.182	0.428
303.15	0	870.584	0.238
303.15	0.0258	870.526	0.241
303.15	0.0549	870.492	0.245
303.15	0.1037	870.37	0.252
303.15	0.1994	870.281	0.267
303.15	0.2985	870.556	0.284
303.15	0.3967	871.033	0.301
303.15	0.4971	871.66	0.32
303.15	0.5965	872.462	0.339
303.15	0.6939	873.415	0.359
303.15	0.7988	874.447	0.381
303.15	0.8944	875.611	0.402
303.15	0.9443	876.218	0.413
303.15	0.9707	876.487	0.42
303.15	1	877.58	0.427
308.15	0	865.41	0.239
308.15	0.0258	865.36	0.242
308.15	0.0549	865.337	0.245
308.15	0.1037	865.234	0.252
308.15	0.1994	865.184	0.267
308.15	0.2985	865.501	0.283
308.15	0.3967	866.021	0.301
308.15	0.4971	866.651	0.319
308.15	0.5965	867.552	0.338
308.15	0.6939	868.557	0.357
308.15	0.7988	869.651	0.379
308.15	0.8944	870.901	0.401
308.15	0.9443	871.515	0.412
308.15	0.9707	871.807	0.418
308.15	1	872.938	0.425

System: methyl ethanoate + 1-butoxy-2-propanol; phases: Liquid
Fixed: Pressure, kPa = 101
Property: Speed of sound, m/s (Liquid); method: Sing-around technique in a fixed-path interferometer
Temperature, K	Mole fraction of 1-butoxy-2-propanol	Speed of sound, m/s	uncertainty
288.15	0	1200.38	1.58
288.15	0.0167	1198.39	1.59
288.15	0.0484	1201.25	1.59
288.15	0.0889	1204.57	1.59
288.15	0.1936	1213.22	1.59
288.15	0.2957	1223.02	1.58
288.15	0.4068	1235.05	1.58
288.15	0.5104	1246.21	1.58
288.15	0.5962	1255.12	1.58
288.15	0.6912	1265.44	1.58
288.15	0.7934	1276.5	1.58
288.15	0.8903	1286.85	1.58
288.15	0.9548	1293.46	1.58
288.15	0.9771	1295.06	1.58
288.15	1	1297.59	1.58
293.15	0	1178.95	1.58
293.15	0.0167	1177.21	1.58
293.15	0.0484	1179	1.59
293.15	0.0889	1182.63	1.58
293.15	0.1936	1192.06	1.58
293.15	0.2957	1202.44	1.58
293.15	0.4068	1215.08	1.58
293.15	0.5104	1227.01	1.58
293.15	0.5962	1236.23	1.58
293.15	0.6912	1246.76	1.58
293.15	0.7934	1258.22	1.58
293.15	0.8903	1268.9	1.57
293.15	0.9548	1275.64	1.58
293.15	0.9771	1277.36	1.57
293.15	1	1279.95	1.57
298.15	0	1155.93	1.59
298.15	0.0167	1154.24	1.59
298.15	0.0484	1156.32	1.58
298.15	0.0889	1160.26	1.58
298.15	0.1936	1170.41	1.58
298.15	0.2957	1181.43	1.58
298.15	0.4068	1194.7	1.58
298.15	0.5104	1207.04	1.58
298.15	0.5962	1217.04	1.57
298.15	0.6912	1227.6	1.57
298.15	0.7934	1239.46	1.57
298.15	0.8903	1250.5	1.57
298.15	0.9548	1257.39	1.57
298.15	0.9771	1259.2	1.57
298.15	1	1261.87	1.57
303.15	0	1132.98	1.58
303.15	0.0167	1131.34	1.58
303.15	0.0484	1133.69	1.58
303.15	0.0889	1137.97	1.58
303.15	0.1936	1148.84	1.58
303.15	0.2957	1160.5	1.57
303.15	0.4068	1174.37	1.57
303.15	0.5104	1187.12	1.57
303.15	0.5962	1197.52	1.57
303.15	0.6912	1208.55	1.57
303.15	0.7934	1220.78	1.57
303.15	0.8903	1232.15	1.57
303.15	0.9548	1239.22	1.57
303.15	0.9771	1241.11	1.57
303.15	1	1243.85	1.57
308.15	0	1110.02	1.58
308.15	0.0167	1108.45	1.57
308.15	0.0484	1111.1	1.58
308.15	0.0889	1115.69	1.58
308.15	0.1936	1127.32	1.57
308.15	0.2957	1139.61	1.57
308.15	0.4068	1154.14	1.57
308.15	0.5104	1167.11	1.57
308.15	0.5962	1178.52	1.57
308.15	0.6912	1189.54	1.57
308.15	0.7934	1202.14	1.57
308.15	0.8903	1213.82	1.57
308.15	0.9548	1221.1	1.57
308.15	0.9771	1223.02	1.57
308.15	1	1225.83	1.57

System: methyl ethanoate + 1-butoxy-2-propanol; phases: Liquid
Fixed: Pressure, kPa = 101
Property: Mass density, kg/m3 (Liquid); method: Vibrating tube method
Temperature, K	Mole fraction of 1-butoxy-2-propanol	Mass density, kg/m3	uncertainty
288.15	0	940.883	0.238
288.15	0.0167	938.145	0.239
288.15	0.0484	934.028	0.239
288.15	0.0889	929.351	0.239
288.15	0.1936	919.349	0.239
288.15	0.2957	911.515	0.239
288.15	0.4068	904.312	0.239
288.15	0.5104	898.51	0.239
288.15	0.5962	894.944	0.238
288.15	0.6912	891.803	0.237
288.15	0.7934	888.604	0.237
288.15	0.8903	886.019	0.236
288.15	0.9548	884.644	0.236
288.15	0.9771	884.102	0.236
288.15	1	883.517	0.236
293.15	0	934.389	0.239
293.15	0.0167	931.698	0.239
293.15	0.0484	927.707	0.239
293.15	0.0889	923.182	0.238
293.15	0.1936	913.521	0.238
293.15	0.2957	905.966	0.238
293.15	0.4068	899.01	0.239
293.15	0.5104	893.412	0.238
293.15	0.5962	889.971	0.237
293.15	0.6912	886.911	0.237
293.15	0.7934	884	0.237
293.15	0.8903	881.544	0.237
293.15	0.9548	880.252	0.236
293.15	0.9771	879.701	0.236
293.15	1	879.164	0.236
298.15	0	927.817	0.239
298.15	0.0167	925.189	0.239
298.15	0.0484	921.34	0.239
298.15	0.0889	916.971	0.239
298.15	0.1936	907.66	0.239
298.15	0.2957	900.389	0.239
298.15	0.4068	893.612	0.239
298.15	0.5104	888.211	0.238
298.15	0.5962	885.042	0.238
298.15	0.6912	882.29	0.237
298.15	0.7934	879.36	0.237
298.15	0.8903	877.032	0.237
298.15	0.9548	875.808	0.237
298.15	0.9771	875.302	0.237
298.15	1	874.776	0.237
303.15	0	921.188	0.24
303.15	0.0167	918.627	0.24
303.15	0.0484	914.913	0.239
303.15	0.0889	910.702	0.239
303.15	0.1936	901.747	0.239
303.15	0.2957	894.766	0.239
303.15	0.4068	888.356	0.239
303.15	0.5104	883.161	0.239
303.15	0.5962	879.972	0.238
303.15	0.6912	877.35	0.238
303.15	0.7934	874.685	0.237
303.15	0.8903	872.484	0.237
303.15	0.9548	871.333	0.237
303.15	0.9771	870.912	0.237
303.15	1	870.351	0.237
308.15	0	914.498	0.24
308.15	0.0167	912.001	0.239
308.15	0.0484	908.432	0.24
308.15	0.0889	904.385	0.239
308.15	0.1936	895.791	0.238
308.15	0.2957	889.103	0.239
308.15	0.4068	882.945	0.239
308.15	0.5104	878.051	0.238
308.15	0.5962	874.921	0.238
308.15	0.6912	872.401	0.238
308.15	0.7934	869.979	0.238
308.15	0.8903	867.902	0.237
308.15	0.9548	866.824	0.237
308.15	0.9771	866.402	0.237
308.15	1	865.892	0.237

System: ethyl acetate + 1-butoxy-2-propanol; phases: Liquid
Fixed: Pressure, kPa = 101
Property: Speed of sound, m/s (Liquid); method: Sing-around technique in a fixed-path interferometer
Temperature, K	Mole fraction of 1-butoxy-2-propanol	Speed of sound, m/s	uncertainty
288.15	0	1187.92	1.33
288.15	0.0472	1190.83	1.34
288.15	0.0968	1195.48	1.35
288.15	0.1945	1206.25	1.36
288.15	0.2868	1216.65	1.38
288.15	0.4005	1228.22	1.41
288.15	0.4959	1239.71	1.43
288.15	0.5886	1250.28	1.46
288.15	0.7889	1273.79	1.51
288.15	0.8861	1285.06	1.54
288.15	0.9424	1291.36	1.56
288.15	1	1297.59	1.58
293.15	0	1165.8	1.33
293.15	0.0472	1168.97	1.33
293.15	0.0968	1173.98	1.34
293.15	0.1945	1185.3	1.36
293.15	0.2868	1196.22	1.38
293.15	0.4005	1208.42	1.41
293.15	0.4959	1220.24	1.43
293.15	0.5886	1231.21	1.45
293.15	0.7889	1255.48	1.51
293.15	0.8861	1267.05	1.54
293.15	0.9424	1273.55	1.56
293.15	1	1279.95	1.57
298.15	0	1143.23	1.32
298.15	0.0472	1146.71	1.33
298.15	0.0968	1151.9	1.34
298.15	0.1945	1163.95	1.36
298.15	0.2868	1175.39	1.38
298.15	0.4005	1188.09	1.4
298.15	0.4959	1200.37	1.43
298.15	0.5886	1211.72	1.45
298.15	0.7889	1236.73	1.51
298.15	0.8861	1248.63	1.54
298.15	0.9424	1255.31	1.56
298.15	1	1261.87	1.57
303.15	0	1120.8	1.32
303.15	0.0472	1124.51	1.33
303.15	0.0968	1130.17	1.33
303.15	0.1945	1142.73	1.35
303.15	0.2868	1154.67	1.37
303.15	0.4005	1167.89	1.4
303.15	0.4959	1180.59	1.43
303.15	0.5886	1192.24	1.45
303.15	0.7889	1218.03	1.51
303.15	0.8861	1230.27	1.54
303.15	0.9424	1237.11	1.55
303.15	1	1243.85	1.57
308.15	0	1098.43	1.32
308.15	0.0472	1102.51	1.32
308.15	0.0968	1108.48	1.33
308.15	0.1945	1121.59	1.35
308.15	0.2868	1134.03	1.37
308.15	0.4005	1147.76	1.39
308.15	0.4959	1160.87	1.42
308.15	0.5886	1172.95	1.45
308.15	0.7889	1199.38	1.5
308.15	0.8861	1211.95	1.53
308.15	0.9424	1218.97	1.55
308.15	1	1225.83	1.57

System: ethyl acetate + 1-butoxy-2-propanol; phases: Liquid
Fixed: Pressure, kPa = 101
Property: Mass density, kg/m3 (Liquid); method: Vibrating tube method
Temperature, K	Mole fraction of 1-butoxy-2-propanol	Mass density, kg/m3	uncertainty
288.15	0	906.937	0.149
288.15	0.0472	904.448	0.152
288.15	0.0968	902.183	0.155
288.15	0.1945	898.58	0.161
288.15	0.2868	895.495	0.167
288.15	0.4005	892.52	0.176
288.15	0.4959	890.419	0.183
288.15	0.5886	888.736	0.192
288.15	0.7889	885.839	0.212
288.15	0.8861	884.672	0.222
288.15	0.9424	884.11	0.229
288.15	1	883.517	0.236
293.15	0	900.893	0.151
293.15	0.0472	898.527	0.153
293.15	0.0968	896.388	0.156
293.15	0.1945	893.006	0.162
293.15	0.2868	890.118	0.168
293.15	0.4005	887.353	0.176
293.15	0.4959	885.405	0.184
293.15	0.5886	883.864	0.192
293.15	0.7889	881.241	0.212
293.15	0.8861	880.193	0.223
293.15	0.9424	879.686	0.229
293.15	1	879.164	0.236
298.15	0	894.799	0.152
298.15	0.0472	892.565	0.155
298.15	0.0968	890.548	0.157
298.15	0.1945	887.4	0.163
298.15	0.2868	884.71	0.169
298.15	0.4005	882.141	0.177
298.15	0.4959	880.359	0.185
298.15	0.5886	878.96	0.193
298.15	0.7889	876.61	0.213
298.15	0.8861	875.681	0.223
298.15	0.9424	875.239	0.23
298.15	1	874.776	0.237
303.15	0	888.659	0.154
303.15	0.0472	886.556	0.156
303.15	0.0968	884.677	0.159
303.15	0.1945	881.76	0.164
303.15	0.2868	879.268	0.17
303.15	0.4005	876.898	0.178
303.15	0.4959	875.282	0.186
303.15	0.5886	874.022	0.194
303.15	0.7889	871.945	0.213
303.15	0.8861	871.134	0.224
303.15	0.9424	870.753	0.23
303.15	1	870.351	0.237
308.15	0	882.473	0.156
308.15	0.0472	880.513	0.157
308.15	0.0968	878.766	0.16
308.15	0.1945	876.083	0.166
308.15	0.2868	873.793	0.171
308.15	0.4005	871.623	0.179
308.15	0.4959	870.173	0.187
308.15	0.5886	869.057	0.194
308.15	0.7889	867.244	0.214
308.15	0.8861	866.555	0.224
308.15	0.9424	866.237	0.231
308.15	1	865.892	0.237

System: butyl ethanoate + 1-butoxy-2-propanol; phases: Liquid
Fixed: Pressure, kPa = 101
Property: Speed of sound, m/s (Liquid); method: Sing-around technique in a fixed-path interferometer
Temperature, K	Mole fraction of 1-butoxy-2-propanol	Speed of sound, m/s	uncertainty
288.15	0	1233.32	1.58
288.15	0.0461	1235.33	1.58
288.15	0.0936	1237.88	1.58
288.15	0.2041	1243.1	1.58
288.15	0.2973	1248.25	1.58
288.15	0.4954	1260.83	1.58
288.15	0.7003	1274.56	1.58
288.15	0.8051	1282.46	1.58
288.15	0.8885	1288.85	1.58
288.15	0.9673	1294.87	1.58
288.15	1	1297.59	1.58
293.15	0	1213.05	1.58
293.15	0.0461	1215.05	1.58
293.15	0.0936	1217.82	1.58
293.15	0.2041	1223.36	1.58
293.15	0.2973	1228.77	1.58
293.15	0.4954	1241.88	1.58
293.15	0.7003	1256.16	1.58
293.15	0.8051	1264.3	1.58
293.15	0.8885	1271.03	1.58
293.15	0.9673	1277.14	1.57
293.15	1	1279.95	1.57
298.15	0	1192.35	1.58
298.15	0.0461	1194.59	1.58
298.15	0.0936	1197.55	1.58
298.15	0.2041	1203.24	1.58
298.15	0.2973	1208.91	1.58
298.15	0.4954	1222.52	1.57
298.15	0.7003	1237.19	1.57
298.15	0.8051	1245.75	1.57
298.15	0.8885	1252.57	1.57
298.15	0.9673	1258.97	1.57
298.15	1	1261.87	1.57
303.15	0	1171.79	1.57
303.15	0.0461	1174.14	1.57
303.15	0.0936	1177.11	1.57
303.15	0.2041	1183.25	1.57
303.15	0.2973	1189.15	1.57
303.15	0.4954	1203.31	1.57
303.15	0.7003	1218.57	1.57
303.15	0.8051	1227.24	1.57
303.15	0.8885	1234.27	1.57
303.15	0.9673	1240.87	1.57
303.15	1	1243.85	1.57
308.15	0	1151.35	1.57
308.15	0.0461	1153.85	1.57
308.15	0.0936	1157.03	1.57
308.15	0.2041	1163.36	1.57
308.15	0.2973	1169.5	1.57
308.15	0.4954	1184.17	1.57
308.15	0.7003	1199.86	1.57
308.15	0.8051	1208.8	1.57
308.15	0.8885	1216.03	1.57
308.15	0.9673	1222.77	1.57
308.15	1	1225.83	1.57

System: butyl ethanoate + 1-butoxy-2-propanol; phases: Liquid
Fixed: Pressure, kPa = 101
Property: Mass density, kg/m3 (Liquid); method: Vibrating tube method
Temperature, K	Mole fraction of 1-butoxy-2-propanol	Mass density, kg/m3	uncertainty
288.15	0	885.958	0.237
288.15	0.0461	885.466	0.237
288.15	0.0936	885.001	0.237
288.15	0.2041	884.122	0.237
288.15	0.2973	883.641	0.237
288.15	0.4954	883.014	0.237
288.15	0.7003	882.849	0.237
288.15	0.8051	883.02	0.236
288.15	0.8885	883.193	0.236
288.15	0.9673	883.409	0.236
288.15	1	883.517	0.236
293.15	0	880.87	0.238
293.15	0.0461	880.395	0.237
293.15	0.0936	880.011	0.237
293.15	0.2041	879.164	0.237
293.15	0.2973	878.75	0.237
293.15	0.4954	878.269	0.237
293.15	0.7003	878.26	0.237
293.15	0.8051	878.516	0.237
293.15	0.8885	878.755	0.237
293.15	0.9673	879.029	0.236
293.15	1	879.164	0.236
298.15	0	875.739	0.238
298.15	0.0461	875.302	0.238
298.15	0.0936	875	0.238
298.15	0.2041	874.183	0.238
298.15	0.2973	873.833	0.238
298.15	0.4954	873.5	0.237
298.15	0.7003	873.64	0.237
298.15	0.8051	873.976	0.237
298.15	0.8885	874.278	0.237
298.15	0.9673	874.615	0.237
298.15	1	874.776	0.237
303.15	0	870.584	0.238
303.15	0.0461	870.183	0.238
303.15	0.0936	870.002	0.238
303.15	0.2041	869.179	0.238
303.15	0.2973	868.894	0.238
303.15	0.4954	868.707	0.238
303.15	0.7003	868.997	0.237
303.15	0.8051	869.409	0.237
303.15	0.8885	869.771	0.237
303.15	0.9673	870.163	0.237
303.15	1	870.351	0.237
308.15	0	865.41	0.239
308.15	0.0461	865.043	0.238
308.15	0.0936	864.812	0.239
308.15	0.2041	864.155	0.238
308.15	0.2973	863.936	0.238
308.15	0.4954	863.891	0.238
308.15	0.7003	864.323	0.238
308.15	0.8051	864.812	0.238
308.15	0.8885	865.235	0.237
308.15	0.9673	865.68	0.237
308.15	1	865.892	0.237
