Measured thermophysical data. Measurements and Correlations of Liquid.Liquid Equilibria for Water + Ethanol + 1,1'-Oxybis(butane) + Methylbenzene or Heptane Mixtures at 298.15 K
Source: J. Chem. Eng. Data, 2012, 10.1021/je3006503
Compound 1: dibutyl ether, C8H18O, InChI=1S/C8H18O/c1-3-5-7-9-8-6-4-2/h3-8H2,1-2H3, purity 99%
Compound 2: toluene, C7H8, InChI=1S/C7H8/c1-7-5-3-2-4-6-7/h2-6H,1H3, purity 99.5%
Compound 3: water, H2O, InChI=1S/H2O/h1H2, purity 99.9%
Compound 4: heptane, C7H16, InChI=1S/C7H16/c1-3-5-7-6-4-2/h3-7H2,1-2H3, purity 98.5%

System: toluene + dibutyl ether + water; phases: Liquid mixture 2, Liquid mixture 1
Fixed: Pressure, kPa = 100
Fixed: Temperature, K = 298.15
Property: Mole fraction of dibutyl ether (Liquid mixture 2); method: Chromatography
Property: Mole fraction of dibutyl ether (Liquid mixture 1); method: Chromatography
Property: Mole fraction of toluene (Liquid mixture 1); method: Chromatography
Mole fraction of toluene	Mole fraction of dibutyl ether	uncertainty	Mole fraction of dibutyl ether	uncertainty	Mole fraction of toluene	uncertainty
0	0		0.836	0.014	0.164	
0.0001	0		0.749	0.014	0.251	
0.0002	0		0.655	0.014	0.345	
0.0003	0		0.604	0.014	0.396	
0.0004	0		0.537	0.015	0.463	
0.0005	0		0.498	0.015	0.502	
0.0006	0		0.416	0.014	0.584	
0.0007	0		0.333	0.014	0.667	
0.0008	0		0.278	0.014	0.722	

System: heptane + dibutyl ether + water; phases: Liquid mixture 2, Liquid mixture 1
Fixed: Pressure, kPa = 100
Fixed: Temperature, K = 298.15
Property: Mole fraction of dibutyl ether (Liquid mixture 2); method: Chromatography
Property: Mole fraction of dibutyl ether (Liquid mixture 1); method: Chromatography
Property: Mole fraction of heptane (Liquid mixture 1); method: Chromatography
Mole fraction of heptane	Mole fraction of dibutyl ether	uncertainty	Mole fraction of dibutyl ether	uncertainty	Mole fraction of heptane	uncertainty
0	0		0.88	0.014	0.12	
0.0001	0		0.783	0.014	0.217	
0.0002	0		0.716	0.014	0.284	
0.0003	0		0.648	0.014	0.352	
0.0004	0		0.59	0.014	0.41	
0.0005	0		0.54	0.015	0.46	
0.0006	0		0.472	0.015	0.528	
0.0007	0		0.412	0.014	0.588	
0.0008	0		0.35	0.014	0.65	
