Measured thermophysical data. Solid Liquid Equilibrium and Phase Diagram for the Ternary 4-Chlorophthalic Anhydride + 3-Chlorophthalic Anhydride + Ethyl Acetate System
Source: J. Chem. Eng. Data, 2014, 10.1021/je3013588
Compound 1: 4-chlorophthalic anhydride, C8H3ClO3, InChI=1S/C8H3ClO3/c9-4-1-2-5-6(3-4)8(11)12-7(5)10/h1-3H, purity 99.81%
Compound 2: 3-chlorophthalic anhydride, C8H3ClO3, InChI=1S/C8H3ClO3/c9-5-3-1-2-4-6(5)8(11)12-7(4)10/h1-3H, purity 98.2%
Compound 3: ethyl acetate, C4H8O2, InChI=1S/C4H8O2/c1-3-6-4(2)5/h3H2,1-2H3, purity 99.9%

System: 3-chlorophthalic anhydride + 4-chlorophthalic anhydride + ethyl acetate; phases: Liquid, Crystal
Fixed: Pressure, kPa = 101
Property: Mass fraction of 3-chlorophthalic anhydride (Liquid); method: HPLC
Temperature, K	Mass fraction of 4-chlorophthalic anhydride	Mass fraction of 3-chlorophthalic anhydride	uncertainty
283.15	0	0.1984	0.0079
283.15	0.0302	0.1912	0.0077
283.15	0.0776	0.1843	0.0074
283.15	0.1092	0.1818	0.0073
283.15	0.1479	0.1767	0.0071
283.15	0.202	0.1685	0.0068
283.15	0.2345	0.1662	0.0067
298.15	0	0.249	0.01
298.15	0.0626	0.2408	0.0097
298.15	0.0302	0.2444	0.0098
298.15	0.1416	0.2286	0.0092
298.15	0.1882	0.225	0.009
298.15	0.2376	0.2187	0.0088
298.15	0.2819	0.2139	0.0087
308.15	0	0.2962	0.0119
308.15	0.0479	0.2876	0.0115
308.15	0.0973	0.2828	0.0113
308.15	0.1318	0.2766	0.0111
308.15	0.1786	0.2704	0.0109
308.15	0.235	0.2656	0.0107
308.15	0.2869	0.2631	0.0106
308.15	0.3313	0.2602	0.0105
323.15	0	0.4276	0.0171
323.15	0.0528	0.4146	0.0166
323.15	0.0973	0.407	0.0163
323.15	0.1318	0.4022	0.0161
323.15	0.1786	0.3966	0.0159
323.15	0.2351	0.387	0.0156
323.15	0.2892	0.3824	0.0154
323.15	0.3411	0.3774	0.0152
323.15	0.3976	0.3734	0.015

System: 3-chlorophthalic anhydride + 4-chlorophthalic anhydride + ethyl acetate; phases: Liquid, Crystal, Crystal
Fixed: Pressure, kPa = 101
Property: Mass fraction of 4-chlorophthalic anhydride (Liquid); method: HPLC
Temperature, K	Mass fraction of 4-chlorophthalic anhydride	uncertainty
283.15	0.2764	0.0111
298.15	0.3313	0.0133
308.15	0.3781	0.0151
323.15	0.4603	0.0184

System: 3-chlorophthalic anhydride + 4-chlorophthalic anhydride + ethyl acetate; phases: Liquid, Crystal, Crystal
Fixed: Pressure, kPa = 101
Property: Mass fraction of 3-chlorophthalic anhydride (Liquid); method: HPLC
Temperature, K	Mass fraction of 3-chlorophthalic anhydride	uncertainty
283.15	0.1651	0.0066
298.15	0.2114	0.0085
308.15	0.2591	0.0104
323.15	0.3706	0.0148

System: 3-chlorophthalic anhydride + 4-chlorophthalic anhydride + ethyl acetate; phases: Liquid, Crystal
Fixed: Pressure, kPa = 101
Property: Mass fraction of 3-chlorophthalic anhydride (Liquid); method: HPLC
Temperature, K	Mass fraction of 4-chlorophthalic anhydride	Mass fraction of 3-chlorophthalic anhydride	uncertainty
283.15	0.2791	0.1343	0.1343
283.15	0.2873	0.0629	0.0629
283.15	0.281	0.1036	0.0916
283.15	0.2934	0.0341	0.0267
283.15	0.313	0	
298.15	0.3338	0.1752	0.0813
298.15	0.3411	0.1309	0.0909
298.15	0.3459	0.0941	0.0858
298.15	0.351	0.0694	0.0491
298.15	0.3631	0.0324	0.0324
298.15	0.379	0	
308.15	0.3829	0.2294	0.0882
308.15	0.3902	0.1876	0.0849
308.15	0.4001	0.136	0.0607
308.15	0.4151	0.0917	0.0499
308.15	0.4272	0.0547	0.0488
308.15	0.4376	0.0277	0.0263
308.15	0.4619	0	
323.15	0.4839	0.2961	0.0716
323.15	0.4976	0.2461	0.0721
323.15	0.5123	0.1942	0.0545
323.15	0.5371	0.14	0.0483
323.15	0.5548	0.0991	0.0455
323.15	0.5776	0.0569	0.037
323.15	0.6162	0	

System: 3-chlorophthalic anhydride + ethyl acetate; phases: Liquid, Crystal
Fixed: Pressure, kPa = 101
Property: Mass fraction of 3-chlorophthalic anhydride (Liquid); method: HPLC
Temperature, K	Mass fraction of 3-chlorophthalic anhydride	uncertainty
283.15	0.1984	0.0079
298.15	0.249	0.01
308.15	0.2962	0.0119
323.15	0.4276	0.0171

System: 4-chlorophthalic anhydride + ethyl acetate; phases: Liquid, Crystal
Fixed: Pressure, kPa = 101
Property: Mass fraction of 4-chlorophthalic anhydride (Liquid); method: HPLC
Temperature, K	Mass fraction of 4-chlorophthalic anhydride	uncertainty
283.15	0.313	0.0125
298.15	0.379	0.0152
308.15	0.4619	0.0185
323.15	0.6162	0.0247
