Measured thermophysical data. Speeds of Sound in Liquid and Supercritical Hexafluoropropylene (HFP) and Hexafluoropropylene Oxide (HFPO) at Pressures up to 400 MPa
Source: J. Chem. Eng. Data, 2012, 10.1021/je300652k
Compound 1: hexafluoropropene, C3F6, InChI=1S/C3F6/c4-1(2(5)6)3(7,8)9, purity 99.99%
Compound 2: 2,2,3-trifluoro-3-(trifluoromethyl)oxirane, C3F6O, InChI=1S/C3F6O/c4-1(2(5,6)7)3(8,9)10-1, purity 99.99%

System: hexafluoropropene; phases: Liquid
Property: Speed of sound, m/s (Liquid); method: Pulse-echo method
Pressure, kPa	Temperature, K	Speed of sound, m/s	uncertainty
1130	273.17	488.3	1.8
1150	253.27	575.6	1.8
1160	288.15	424.2	2
1990	303.15	370.7	2
2300	323.18	288.3	2.1
4760	343.19	245.5	2.5
5200	288.15	468.9	1.9
8270	343.19	311.3	2.4
10090	303.15	463.9	1.8
10130	288.15	513.8	1.8
10400	273.17	567.9	1.8
10440	343.19	341.8	2.2
10450	363.15	287	1.9
10550	323.18	404.9	1.9
10940	253.27	645.3	1.8
15690	383.16	310.6	1.9
16670	403.14	288.3	1.9
19600	423.15	293.5	1.9
25040	273.17	660.8	1.7
25100	423.15	345.1	1.9
25130	448.15	318.1	1.7
25160	303.15	576.7	1.7
25160	473.14	298.7	1.7
25190	288.15	618	1.7
25500	363.15	442	1.8
25610	403.14	375.7	1.8
25690	383.16	407.4	1.8
25910	253.27	728.8	1.7
28790	323.18	547	1.8
50080	288.15	741.2	1.7
50150	273.17	779.5	1.7
50380	323.18	664.6	1.7
50460	473.14	462.3	1.7
50520	363.15	592.9	1.7
50530	383.16	562.3	1.7
50540	343.19	627.2	1.8
50710	448.15	485	1.7
50800	423.15	513	1.7
50890	403.14	537.5	1.7
50920	303.15	709.3	1.7
52820	253.27	844.3	1.7
75030	253.27	921.1	1.7
75240	448.15	596.6	1.7
75280	273.17	871.7	1.7
75340	323.18	767.2	1.7
75370	303.15	804.5	1.7
75400	423.15	623.9	1.7
75440	288.15	837.6	1.7
75490	363.15	700.6	1.7
75570	473.14	576.7	1.7
75610	343.19	730.9	1.7
75640	403.14	647.4	1.7
75940	383.16	673.9	1.7
100060	403.14	737.1	1.7
100170	288.15	916.1	1.7
100220	473.14	666.6	1.7
100230	273.17	949	1.7
100300	363.15	787.2	1.7
100500	383.16	761.1	1.7
100560	303.15	886.5	1.7
100630	253.27	997.3	1.7
100650	343.19	818.3	1.7
100710	423.15	715.4	1.7
100750	448.15	689.4	1.7
101090	323.18	852.8	1.7
125070	323.18	921.8	1.7
125170	343.19	890.4	1.7
125230	363.15	861.9	1.7
125320	423.15	791.3	1.7
125410	303.15	956.2	1.7
125430	273.17	1017.1	1.7
125510	288.15	986.4	1.7
125570	473.14	745.3	1.7
125630	383.16	837.2	1.7
125630	403.14	813.6	1.7
125710	448.15	766.5	1.7
125810	253.27	1063	1.7
150160	423.15	858.8	1.7
150270	273.17	1077.5	1.7
150340	343.19	956.2	1.7
150340	363.15	928.6	1.7
150360	403.14	880.3	1.7
150460	383.16	903.4	1.7
150630	288.15	1048.4	1.7
150670	323.18	987.4	1.7
150690	473.14	814	1.7
150770	448.15	834.5	1.7
150900	303.15	1020.1	1.7
151420	253.27	1123.6	1.7
174830	253.27	1174.3	1.8
175160	343.19	1014.7	1.7
175250	288.15	1103.9	1.7
175320	448.15	894.5	1.7
175340	303.15	1075.6	1.7
175410	423.15	920.3	1.7
175590	363.15	988.8	1.7
175620	403.14	941.6	1.7
175680	323.18	1045.2	1.7
175720	473.14	875.3	1.7
175770	383.16	964.4	1.7
175810	273.17	1133.8	1.7
200290	343.19	1069	1.8
200320	363.15	1042.8	1.7
200450	253.27	1224.7	1.8
200520	423.15	976.3	1.7
200670	403.14	997.2	1.7
200700	273.17	1184.6	1.8
200700	288.15	1156.6	1.8
200740	383.16	1019.4	1.7
200750	323.18	1098.6	1.8
200800	473.14	931.7	1.7
200820	448.15	951.6	1.7
200830	303.15	1129	1.8
250190	303.15	1221.9	1.8
250220	343.19	1165.9	1.8
250260	383.16	1116.8	1.8
250380	288.15	1249	1.8
250420	423.15	1075.9	1.8
250500	403.14	1096	1.8
250580	253.27	1315.5	1.8
250600	473.14	1031.5	1.8
250610	363.15	1141.2	1.8
250620	323.18	1193.8	1.8
250800	273.17	1276.7	1.8
250910	448.15	1051.8	1.8
299650	253.27	1393.8	1.8
300040	288.15	1331.1	1.8
300360	363.15	1226.7	1.8
300390	423.15	1163.6	1.8
300400	323.18	1278	1.8
300450	273.17	1358.2	1.8
300620	343.19	1252	1.8
300640	473.14	1119.7	1.8
300660	403.14	1183.8	1.8
300690	383.16	1204.6	1.8
300750	303.15	1306.5	1.8
300780	448.15	1139.3	1.8
350100	343.19	1327.9	1.8
350190	253.27	1468.5	1.8
350280	383.16	1282.6	1.8
350300	303.15	1381.1	1.8
350560	473.14	1199	1.8
350600	423.15	1243	1.8
350610	403.14	1262.3	1.8
350690	363.15	1305.3	1.8
350710	448.15	1218.3	1.8
350810	323.18	1355.4	1.8
350820	273.17	1432.3	1.8
350970	288.15	1407.7	1.8
400020	303.15	1450.2	1.9
400090	273.17	1499.6	1.9
400260	363.15	1376	1.9
400280	403.14	1333.6	1.8
400370	343.19	1399.8	1.9
400410	288.15	1475.2	1.9
400510	383.16	1354.3	1.9
400580	323.18	1424.9	1.9
400740	253.27	1535.4	1.9
400750	473.14	1272	1.8
400820	448.15	1291.1	1.9
400920	423.15	1315.6	1.8

System: 2,2,3-trifluoro-3-(trifluoromethyl)oxirane; phases: Liquid
Property: Speed of sound, m/s (Liquid); method: Pulse-echo method
Pressure, kPa	Temperature, K	Speed of sound, m/s	uncertainty
2500	283.15	449.4	1.9
2500	313.15	326.6	1.3
2510	253.15	571.2	1.8
9990	283.15	517.5	1.8
10010	313.15	420.6	1.9
10010	373.15	255	1.1
10040	253.15	623.9	1.8
10040	343.15	332.6	1
20010	403.15	322.5	1
24970	373.15	413.4	0.8
25000	283.15	617.4	1.7
25020	253.15	708	1.7
25020	403.15	367.5	1
25030	313.15	538.8	1.7
25050	343.15	471.3	1.8
49990	283.15	737.8	1.7
50010	313.15	670.9	1.7
50020	403.15	525.9	1.7
50030	253.15	816.7	1.7
50030	343.15	614.1	1.7
50060	373.15	565.5	1.7
74990	283.15	831.4	1.7
75000	373.15	673	1.7
75010	253.15	903.6	1.9
75030	343.15	718	1.7
75040	313.15	769.9	1.7
75050	403.15	636.7	1.7
100040	253.15	977.8	2.1
100040	373.15	760	1.7
100040	403.15	725.7	1.7
100050	283.15	910	1.9
100050	313.15	852	1.9
100050	343.15	803	1.7
125010	403.15	801.5	1.7
125030	343.15	875.8	1.9
125040	253.15	1043.1	2.1
125040	313.15	922.8	1.9
125040	373.15	834.6	1.7
125050	283.15	978.4	2.1
150010	253.15	1101.9	2.3
150010	283.15	1039.3	2.1
150030	343.15	940.5	1.9
150040	373.15	900.3	1.9
150040	403.15	868.4	1.9
150070	313.15	986.2	2.1
175000	373.15	959.8	2.1
175010	343.15	999.1	2.1
175020	313.15	1043.4	2.1
175030	253.15	1155.8	2.5
175040	403.15	928.7	1.9
175090	283.15	1095.2	2.3
200020	313.15	1095.8	2.3
200030	253.15	1205.6	2.5
200050	403.15	983.8	2.1
200060	343.15	1052.9	2.3
200070	373.15	1014.2	2.1
200080	283.15	1146.8	2.3
249990	373.15	1111.6	2.3
250010	283.15	1239.4	2.5
250020	313.15	1190.7	2.5
250040	403.15	1082.6	2.3
250050	343.15	1149.1	2.3
250060	253.15	1295.5	2.7
299960	343.15	1234.4	2.5
299980	403.15	1169.6	2.5
300010	313.15	1274.7	2.7
300020	283.15	1321.5	2.7
300030	373.15	1198	2.5
300100	253.15	1376.5	2.9
350000	253.15	1449.2	2.9
350020	283.15	1396.5	2.9
350030	313.15	1350.5	2.9
350040	373.15	1275.4	2.7
350040	403.15	1247.9	2.5
350090	343.15	1311.5	2.7
399990	403.15	1319.9	2.8
400010	373.15	1346.4	2.8
400040	343.15	1382.2	3
400060	313.15	1420.2	3
400120	253.15	1516.7	3.1
400120	283.15	1465.2	3.1
