Measured thermophysical data. Biomass-Derived Platform Chemicals: Thermodynamic Studies on the Extraction of 5-Hydroxymethylfurfural from Ionic Liquids
Source: J. Chem. Eng. Data, 2012, 10.1021/je300529j
Compound 1: 1,4-dioxane, C4H8O2, InChI=1S/C4H8O2/c1-2-6-4-3-5-1/h1-4H2, purity 99%
Compound 2: butyl ethanoate, C6H12O2, InChI=1S/C6H12O2/c1-3-4-5-8-6(2)7/h3-5H2,1-2H3, purity 99%
Compound 3: dibutyl ether, C8H18O, InChI=1S/C8H18O/c1-3-5-7-9-8-6-4-2/h3-8H2,1-2H3, purity 99%
Compound 4: butan-1-ol, C4H10O, InChI=1S/C4H10O/c1-2-3-4-5/h5H,2-4H2,1H3, purity 99%
Compound 5: decane, C10H22, InChI=1S/C10H22/c1-3-5-7-9-10-8-6-4-2/h3-10H2,1-2H3, purity 99%
Compound 6: 1-decene, C10H20, InChI=1S/C10H20/c1-3-5-7-9-10-8-6-4-2/h3H,1,4-10H2,2H3, purity 99%
Compound 7: hexane, C6H14, InChI=1S/C6H14/c1-3-5-6-4-2/h3-6H2,1-2H3, purity 99%
Compound 8: toluene, C7H8, InChI=1S/C7H8/c1-7-5-3-2-4-6-7/h2-6H,1H3, purity 99%
Compound 9: 4-methylpentan-2-one, C6H12O, InChI=1S/C6H12O/c1-5(2)4-6(3)7/h5H,4H2,1-3H3, purity 99%
Compound 10: diethyl 1,3-propanedioate, C7H12O4, InChI=1S/C7H12O4/c1-3-10-6(8)5-7(9)11-4-2/h3-5H2,1-2H3, purity 99%
Compound 11: diethyl butanedioate, C8H14O4, InChI=1S/C8H14O4/c1-3-11-7(9)5-6-8(10)12-4-2/h3-6H2,1-2H3, purity 99%
Compound 12: methanol, CH4O, InChI=1S/CH4O/c1-2/h2H,1H3, purity 99%
Compound 13: tetrahydrofuran, C4H8O, InChI=1S/C4H8O/c1-2-4-5-3-1/h1-4H2, purity 99%
Compound 14: 5-(hydroxymethyl)furan-2-carbaldehyde, C6H6O3, InChI=1S/C6H6O3/c7-3-5-1-2-6(4-8)9-5/h1-3,8H,4H2, purity 99%
Compound 15: 1-butyl-3-methylimidazolium bis(trifluoromethylsulfonyl)imide, C10H15F6N3O4S2, InChI=1S/C8H15N2.C2F6NO4S2/c1-3-4-5-10-7-6-9(2)8-10;3-1(4,5)14(10,11)9-15(12,13)2(6,7)8/h6-8H,3-5H2,1-2H3;/q+1;-1
Compound 16: 1-octyl-3-methylimidazolium bis[(trifluoromethyl)sulfonyl]imide, C14H23F6N3O4S2, InChI=1S/C12H23N2.C2F6NO4S2/c1-3-4-5-6-7-8-9-14-11-10-13(2)12-14;3-1(4,5)14(10,11)9-15(12,13)2(6,7)8/h10-12H,3-9H2,1-2H3;/q+1;-1
Compound 17: 1-butyl-3-methylimidazolium acetate, C10H18N2O2, InChI=1S/C8H15N2.C2H4O2/c1-3-4-5-10-7-6-9(2)8-10;1-2(3)4/h6-8H,3-5H2,1-2H3;1H3,(H,3,4)/q+1;/p-1
Compound 18: 1-butyl-3-methylimidazolium methanesulfonate, C9H18N2O3S, InChI=1S/C8H15N2.CH4O3S/c1-3-4-5-10-7-6-9(2)8-10;1-5(2,3)4/h6-8H,3-5H2,1-2H3;1H3,(H,2,3,4)/q+1;/p-1, purity 99%
Compound 19: 1,3-dibutylimidazolium bromide, C11H21BrN2, InChI=1S/C11H21N2.BrH/c1-3-5-7-12-9-10-13(11-12)8-6-4-2;/h9-11H,3-8H2,1-2H3;1H/q+1;/p-1
Compound 20: tributylethylphosphonium diethylphosphate, C18H42O4P2, InChI=1S/C14H32P.C4H11O4P/c1-5-9-12-15(8-4,13-10-6-2)14-11-7-3;1-3-7-9(5,6)8-4-2/h5-14H2,1-4H3;3-4H2,1-2H3,(H,5,6)/q+1;/p-1

System: 1,4-dioxane + 1-butyl-3-methylimidazolium acetate; phases: Liquid
Fixed: Pressure, kPa = 101
Fixed: Mole fraction of 1,4-dioxane = 0
Property: Activity coefficient of 1,4-dioxane (Liquid); method: Chromatography
Temperature, K	Activity coefficient of 1,4-dioxane	uncertainty
353	3.17	0.22
358	3.11	0.21
363	3.09	0.21
368	3.05	0.21
373	3.02	0.21
378	2.99	0.2
383	2.96	0.2

System: butyl ethanoate + 1-butyl-3-methylimidazolium acetate; phases: Liquid
Fixed: Pressure, kPa = 101
Fixed: Mole fraction of butyl ethanoate = 0
Property: Activity coefficient of butyl ethanoate (Liquid); method: Chromatography
Temperature, K	Activity coefficient of butyl ethanoate	uncertainty
333	10.3	0.7
343	10.2	0.7
353	10.03	0.68
363	9.9	0.7
373	9.8	0.7

System: dibutyl ether + 1-butyl-3-methylimidazolium acetate; phases: Liquid
Fixed: Pressure, kPa = 101
Fixed: Mole fraction of dibutyl ether = 0
Property: Activity coefficient of dibutyl ether (Liquid); method: Chromatography
Temperature, K	Activity coefficient of dibutyl ether	uncertainty
333	55.8	3.8
343	54	3.7
353	51.3	3.5
363	49.2	3.4
373	47.8	3.3

System: butan-1-ol + 1-butyl-3-methylimidazolium acetate; phases: Liquid
Fixed: Pressure, kPa = 101
Fixed: Mole fraction of butan-1-ol = 0
Property: Activity coefficient of butan-1-ol (Liquid); method: Chromatography
Temperature, K	Activity coefficient of butan-1-ol	uncertainty
373	0.228	0.029
383	0.242	0.03
393	0.255	0.03
403	0.269	0.03
413	0.281	0.03

System: decane + 1-butyl-3-methylimidazolium acetate; phases: Liquid
Fixed: Pressure, kPa = 101
Fixed: Mole fraction of decane = 0
Property: Activity coefficient of decane (Liquid); method: Chromatography
Temperature, K	Activity coefficient of decane	uncertainty
313	215	15
323	197	14
333	191	13
338	185	13
343	177	12

System: 1-decene + 1-butyl-3-methylimidazolium acetate; phases: Liquid
Fixed: Pressure, kPa = 101
Fixed: Mole fraction of 1-decene = 0
Property: Activity coefficient of 1-decene (Liquid); method: Chromatography
Temperature, K	Activity coefficient of 1-decene	uncertainty
313	131	9
323	124	9
333	116	8
343	111	8
353	106	7

System: hexane + 1-butyl-3-methylimidazolium acetate; phases: Liquid
Fixed: Pressure, kPa = 101
Fixed: Mole fraction of hexane = 0
Property: Activity coefficient of hexane (Liquid); method: Chromatography
Temperature, K	Activity coefficient of hexane	uncertainty
313	43.1	3
318	42.7	2.9
323	39.5	2.7
328	38.5	2.6
333	35	2.4

System: toluene + 1-butyl-3-methylimidazolium acetate; phases: Liquid
Fixed: Pressure, kPa = 101
Fixed: Mole fraction of toluene = 0
Property: Activity coefficient of toluene (Liquid); method: Chromatography
Temperature, K	Activity coefficient of toluene	uncertainty
333	5.6	0.38
343	5.6	0.38
353	5.6	0.38
363	5.6	0.38
373	5.6	0.38

System: 4-methylpentan-2-one + 1-butyl-3-methylimidazolium acetate; phases: Liquid
Fixed: Pressure, kPa = 101
Fixed: Mole fraction of 4-methylpentan-2-one = 0
Property: Activity coefficient of 4-methylpentan-2-one (Liquid); method: Chromatography
Temperature, K	Activity coefficient of 4-methylpentan-2-one	uncertainty
333	7.77	0.53
343	7.67	0.52
353	7.53	0.51
363	7.44	0.51
373	7.35	0.5

System: diethyl 1,3-propanedioate + 1-butyl-3-methylimidazolium acetate; phases: Liquid
Fixed: Pressure, kPa = 101
Fixed: Mole fraction of diethyl 1,3-propanedioate = 0
Property: Activity coefficient of diethyl 1,3-propanedioate (Liquid); method: Chromatography
Temperature, K	Activity coefficient of diethyl 1,3-propanedioate	uncertainty
373	7.31	0.5
383	7.82	0.53
393	8.37	0.57
403	8.77	0.6
413	9.08	0.62

System: diethyl butanedioate + 1-butyl-3-methylimidazolium acetate; phases: Liquid
Fixed: Pressure, kPa = 101
Fixed: Mole fraction of diethyl butanedioate = 0
Property: Activity coefficient of diethyl butanedioate (Liquid); method: Chromatography
Temperature, K	Activity coefficient of diethyl butanedioate	uncertainty
373	14.4	1
383	14.6	1
393	14.7	1
403	15.1	1
413	15.2	1

System: 1,4-dioxane + 1-octyl-3-methylimidazolium bis[(trifluoromethyl)sulfonyl]imide; phases: Liquid
Fixed: Pressure, kPa = 101
Fixed: Mole fraction of 1,4-dioxane = 0
Property: Activity coefficient of 1,4-dioxane (Liquid); method: Chromatography
Temperature, K	Activity coefficient of 1,4-dioxane	uncertainty
333	0.635	0.044
343	0.643	0.044
353	0.653	0.045
363	0.662	0.045

System: butyl ethanoate + 1-octyl-3-methylimidazolium bis[(trifluoromethyl)sulfonyl]imide; phases: Liquid
Fixed: Pressure, kPa = 101
Fixed: Mole fraction of butyl ethanoate = 0
Property: Activity coefficient of butyl ethanoate (Liquid); method: Chromatography
Temperature, K	Activity coefficient of butyl ethanoate	uncertainty
333	1.018	0.064
343	1.04	0.07
353	1.06	0.07
363	1.079	0.068

System: dibutyl ether + 1-octyl-3-methylimidazolium bis[(trifluoromethyl)sulfonyl]imide; phases: Liquid
Fixed: Pressure, kPa = 101
Fixed: Mole fraction of dibutyl ether = 0
Property: Activity coefficient of dibutyl ether (Liquid); method: Chromatography
Temperature, K	Activity coefficient of dibutyl ether	uncertainty
333	4.95	0.34
343	4.86	0.33
353	4.75	0.32
363	4.67	0.32

System: butan-1-ol + 1-octyl-3-methylimidazolium bis[(trifluoromethyl)sulfonyl]imide; phases: Liquid
Fixed: Pressure, kPa = 101
Fixed: Mole fraction of butan-1-ol = 0
Property: Activity coefficient of butan-1-ol (Liquid); method: Chromatography
Temperature, K	Activity coefficient of butan-1-ol	uncertainty
333	1.73	0.12
343	1.61	0.11
353	1.51	0.1
363	1.42	0.09

System: decane + 1-octyl-3-methylimidazolium bis[(trifluoromethyl)sulfonyl]imide; phases: Liquid
Fixed: Pressure, kPa = 101
Fixed: Mole fraction of decane = 0
Property: Activity coefficient of decane (Liquid); method: Chromatography
Temperature, K	Activity coefficient of decane	uncertainty
333	16.62	1.14
343	15.91	1.09
353	15.37	1.05
363	14.81	1.01

System: 1-decene + 1-octyl-3-methylimidazolium bis[(trifluoromethyl)sulfonyl]imide; phases: Liquid
Fixed: Pressure, kPa = 101
Fixed: Mole fraction of 1-decene = 0
Property: Activity coefficient of 1-decene (Liquid); method: Chromatography
Temperature, K	Activity coefficient of 1-decene	uncertainty
333	11.35	0.77
343	10.73	0.73
353	10.31	0.7
363	9.83	0.67

System: methanol + 1-octyl-3-methylimidazolium bis[(trifluoromethyl)sulfonyl]imide; phases: Liquid
Fixed: Pressure, kPa = 101
Fixed: Mole fraction of methanol = 0
Property: Activity coefficient of methanol (Liquid); method: Chromatography
Temperature, K	Activity coefficient of methanol	uncertainty
323	1.08	0.07
333	1	0.06
343	0.92	0.06

System: toluene + 1-octyl-3-methylimidazolium bis[(trifluoromethyl)sulfonyl]imide; phases: Liquid
Fixed: Pressure, kPa = 101
Fixed: Mole fraction of toluene = 0
Property: Activity coefficient of toluene (Liquid); method: Chromatography
Temperature, K	Activity coefficient of toluene	uncertainty
333	0.98	0.06
343	1.02	0.06
353	1.06	0.07
363	1.11	0.07

System: 4-methylpentan-2-one + 1-octyl-3-methylimidazolium bis[(trifluoromethyl)sulfonyl]imide; phases: Liquid
Fixed: Pressure, kPa = 101
Fixed: Mole fraction of 4-methylpentan-2-one = 0
Property: Activity coefficient of 4-methylpentan-2-one (Liquid); method: Chromatography
Temperature, K	Activity coefficient of 4-methylpentan-2-one	uncertainty
333	0.72	0.05
343	0.74	0.05
353	0.77	0.05
363	0.78	0.05

System: tetrahydrofuran + 1-octyl-3-methylimidazolium bis[(trifluoromethyl)sulfonyl]imide; phases: Liquid
Fixed: Pressure, kPa = 101
Fixed: Mole fraction of tetrahydrofuran = 0
Property: Activity coefficient of tetrahydrofuran (Liquid); method: Chromatography
Temperature, K	Activity coefficient of tetrahydrofuran	uncertainty
328	0.51	0.04
333	0.53	0.04
343	0.55	0.04
353	0.58	0.04

System: 5-(hydroxymethyl)furan-2-carbaldehyde + 1-octyl-3-methylimidazolium bis[(trifluoromethyl)sulfonyl]imide; phases: Liquid
Fixed: Pressure, kPa = 101
Fixed: Mole fraction of 5-(hydroxymethyl)furan-2-carbaldehyde = 0
Property: Activity coefficient of 5-(hydroxymethyl)furan-2-carbaldehyde (Liquid); method: Chromatography
Temperature, K	Activity coefficient of 5-(hydroxymethyl)furan-2-carbaldehyde	uncertainty
413	1.51	0.1
418	1.45	0.1
423	1.58	0.1

System: 1,4-dioxane + 1-butyl-3-methylimidazolium bis(trifluoromethylsulfonyl)imide; phases: Liquid
Property: Activity coefficient of 1,4-dioxane (Liquid); method: Chromatography
Temperature, K	Pressure, kPa	Mole fraction of 1,4-dioxane	Activity coefficient of 1,4-dioxane	uncertainty
333	101	0	0.788	0.051

System: butyl ethanoate + 1-butyl-3-methylimidazolium bis(trifluoromethylsulfonyl)imide; phases: Liquid
Fixed: Pressure, kPa = 101
Fixed: Mole fraction of butyl ethanoate = 0
Property: Activity coefficient of butyl ethanoate (Liquid); method: Chromatography
Temperature, K	Activity coefficient of butyl ethanoate	uncertainty
333	0.202	0.029
343	0.16	0.029

System: dibutyl ether + 1-butyl-3-methylimidazolium bis(trifluoromethylsulfonyl)imide; phases: Liquid
Fixed: Pressure, kPa = 101
Fixed: Mole fraction of dibutyl ether = 0
Property: Activity coefficient of dibutyl ether (Liquid); method: Chromatography
Temperature, K	Activity coefficient of dibutyl ether	uncertainty
333	10.8	0.7
343	9.81	0.67

System: butan-1-ol + 1-butyl-3-methylimidazolium bis(trifluoromethylsulfonyl)imide; phases: Liquid
Fixed: Pressure, kPa = 101
Fixed: Mole fraction of butan-1-ol = 0
Property: Activity coefficient of butan-1-ol (Liquid); method: Chromatography
Temperature, K	Activity coefficient of butan-1-ol	uncertainty
333	2.33	0.16
343	2.26	0.15

System: decane + 1-butyl-3-methylimidazolium bis(trifluoromethylsulfonyl)imide; phases: Liquid
Fixed: Pressure, kPa = 101
Fixed: Mole fraction of decane = 0
Property: Activity coefficient of decane (Liquid); method: Chromatography
Temperature, K	Activity coefficient of decane	uncertainty
333	59.2	4.1
343	49.8	3.4

System: 1-decene + 1-butyl-3-methylimidazolium bis(trifluoromethylsulfonyl)imide; phases: Liquid
Fixed: Pressure, kPa = 101
Fixed: Mole fraction of 1-decene = 0
Property: Activity coefficient of 1-decene (Liquid); method: Chromatography
Temperature, K	Activity coefficient of 1-decene	uncertainty
333	35.6	2.4
343	29.1	2

System: methanol + 1-butyl-3-methylimidazolium bis(trifluoromethylsulfonyl)imide; phases: Liquid
Fixed: Pressure, kPa = 101
Fixed: Mole fraction of methanol = 0
Property: Activity coefficient of methanol (Liquid); method: Chromatography
Temperature, K	Activity coefficient of methanol	uncertainty
333	0.31	0.03
343	0.32	0.03
358	0.31	0.03
368	0.32	0.03

System: toluene + 1-butyl-3-methylimidazolium bis(trifluoromethylsulfonyl)imide; phases: Liquid
Fixed: Pressure, kPa = 101
Fixed: Mole fraction of toluene = 0
Property: Activity coefficient of toluene (Liquid); method: Chromatography
Temperature, K	Activity coefficient of toluene	uncertainty
333	1.56	0.1
343	1.62	0.11

System: 4-methylpentan-2-one + 1-butyl-3-methylimidazolium bis(trifluoromethylsulfonyl)imide; phases: Liquid
Fixed: Pressure, kPa = 101
Fixed: Mole fraction of 4-methylpentan-2-one = 0
Property: Activity coefficient of 4-methylpentan-2-one (Liquid); method: Chromatography
Temperature, K	Activity coefficient of 4-methylpentan-2-one	uncertainty
333	0.97	0.06
343	1.07	0.07

System: tetrahydrofuran + 1-butyl-3-methylimidazolium bis(trifluoromethylsulfonyl)imide; phases: Liquid
Fixed: Pressure, kPa = 101
Fixed: Mole fraction of tetrahydrofuran = 0
Property: Activity coefficient of tetrahydrofuran (Liquid); method: Chromatography
Temperature, K	Activity coefficient of tetrahydrofuran	uncertainty
333	0.59	0.04
343	0.74	0.05

System: 5-(hydroxymethyl)furan-2-carbaldehyde + 1-butyl-3-methylimidazolium bis(trifluoromethylsulfonyl)imide; phases: Liquid
Fixed: Pressure, kPa = 101
Fixed: Mole fraction of 5-(hydroxymethyl)furan-2-carbaldehyde = 0
Property: Activity coefficient of 5-(hydroxymethyl)furan-2-carbaldehyde (Liquid); method: Chromatography
Temperature, K	Activity coefficient of 5-(hydroxymethyl)furan-2-carbaldehyde	uncertainty
413	1.76	0.12
418	1.7	0.11
423	1.89	0.13
428	1.84	0.12

System: 1,4-dioxane + 1,3-dibutylimidazolium bromide; phases: Liquid
Fixed: Pressure, kPa = 101
Fixed: Mole fraction of 1,4-dioxane = 0
Property: Activity coefficient of 1,4-dioxane (Liquid); method: Chromatography
Temperature, K	Activity coefficient of 1,4-dioxane	uncertainty
333	1.82	0.12
343	1.88	0.13
353	1.95	0.13
363	2.01	0.14

System: butyl ethanoate + 1,3-dibutylimidazolium bromide; phases: Liquid
Fixed: Pressure, kPa = 101
Fixed: Mole fraction of butyl ethanoate = 0
Property: Activity coefficient of butyl ethanoate (Liquid); method: Chromatography
Temperature, K	Activity coefficient of butyl ethanoate	uncertainty
333	0.84	0.05
343	0.92	0.06
353	1.05	0.07
363	1.23	0.08

System: dibutyl ether + 1,3-dibutylimidazolium bromide; phases: Liquid
Fixed: Pressure, kPa = 101
Fixed: Mole fraction of dibutyl ether = 0
Property: Activity coefficient of dibutyl ether (Liquid); method: Chromatography
Temperature, K	Activity coefficient of dibutyl ether	uncertainty
313	40.7	2.8
323	38.6	2.6
333	36.3	2.5
343	34.6	2.4

System: butan-1-ol + 1,3-dibutylimidazolium bromide; phases: Liquid
Fixed: Pressure, kPa = 101
Fixed: Mole fraction of butan-1-ol = 0
Property: Activity coefficient of butan-1-ol (Liquid); method: Chromatography
Temperature, K	Activity coefficient of butan-1-ol	uncertainty
353	0.57	0.04
363	0.56	0.04
373	0.55	0.04
383	0.54	0.04

System: hexane + 1,3-dibutylimidazolium bromide; phases: Liquid
Fixed: Pressure, kPa = 101
Fixed: Mole fraction of hexane = 0
Property: Activity coefficient of hexane (Liquid); method: Chromatography
Temperature, K	Activity coefficient of hexane	uncertainty
343	0.87	0.06
353	0.94	0.06
363	0.99	0.06

System: methanol + 1,3-dibutylimidazolium bromide; phases: Liquid
Fixed: Pressure, kPa = 101
Fixed: Mole fraction of methanol = 0
Property: Activity coefficient of methanol (Liquid); method: Chromatography
Temperature, K	Activity coefficient of methanol	uncertainty
333	0.23	0.03
343	0.23	0.03
353	0.23	0.03
363	0.24	0.03

System: toluene + 1,3-dibutylimidazolium bromide; phases: Liquid
Fixed: Pressure, kPa = 101
Fixed: Mole fraction of toluene = 0
Property: Activity coefficient of toluene (Liquid); method: Chromatography
Temperature, K	Activity coefficient of toluene	uncertainty
333	3.4	0.23
343	3.46	0.24
353	3.55	0.24
363	3.61	0.25

System: 4-methylpentan-2-one + 1,3-dibutylimidazolium bromide; phases: Liquid
Fixed: Pressure, kPa = 101
Fixed: Mole fraction of 4-methylpentan-2-one = 0
Property: Activity coefficient of 4-methylpentan-2-one (Liquid); method: Chromatography
Temperature, K	Activity coefficient of 4-methylpentan-2-one	uncertainty
333	4.52	0.31
343	4.62	0.31
353	4.71	0.32
363	4.78	0.33

System: tetrahydrofuran + 1,3-dibutylimidazolium bromide; phases: Liquid
Fixed: Pressure, kPa = 101
Fixed: Mole fraction of tetrahydrofuran = 0
Property: Activity coefficient of tetrahydrofuran (Liquid); method: Chromatography
Temperature, K	Activity coefficient of tetrahydrofuran	uncertainty
323	2.57	0.17
333	2.42	0.16
343	2.22	0.15
353	2.03	0.14

System: 1,4-dioxane + tributylethylphosphonium diethylphosphate; phases: Liquid
Fixed: Pressure, kPa = 101
Fixed: Mole fraction of 1,4-dioxane = 0
Property: Activity coefficient of 1,4-dioxane (Liquid); method: Chromatography
Temperature, K	Activity coefficient of 1,4-dioxane	uncertainty
333	1.27	0.08
343	1.24	0.08
353	1.21	0.08
363	1.18	0.08

System: butyl ethanoate + tributylethylphosphonium diethylphosphate; phases: Liquid
Fixed: Pressure, kPa = 101
Fixed: Mole fraction of butyl ethanoate = 0
Property: Activity coefficient of butyl ethanoate (Liquid); method: Chromatography
Temperature, K	Activity coefficient of butyl ethanoate	uncertainty
333	2.22	0.15
343	2.12	0.14
353	2.02	0.14
363	1.93	0.13

System: dibutyl ether + tributylethylphosphonium diethylphosphate; phases: Liquid
Fixed: Pressure, kPa = 101
Fixed: Mole fraction of dibutyl ether = 0
Property: Activity coefficient of dibutyl ether (Liquid); method: Chromatography
Temperature, K	Activity coefficient of dibutyl ether	uncertainty
333	4.72	0.32
343	4.4	0.3
353	4.11	0.28
363	3.89	0.26

System: butan-1-ol + tributylethylphosphonium diethylphosphate; phases: Liquid
Fixed: Pressure, kPa = 101
Fixed: Mole fraction of butan-1-ol = 0
Property: Activity coefficient of butan-1-ol (Liquid); method: Chromatography
Temperature, K	Activity coefficient of butan-1-ol	uncertainty
383	0.08	0.03
393	0.09	0.03
403	0.09	0.03
413	0.1	0.03

System: decane + tributylethylphosphonium diethylphosphate; phases: Liquid
Fixed: Pressure, kPa = 101
Fixed: Mole fraction of decane = 0
Property: Activity coefficient of decane (Liquid); method: Chromatography
Temperature, K	Activity coefficient of decane	uncertainty
333	9.02	0.62
343	8.6	0.59
353	8.12	0.55
363	7.69	0.52

System: 1-decene + tributylethylphosphonium diethylphosphate; phases: Liquid
Fixed: Pressure, kPa = 101
Fixed: Mole fraction of 1-decene = 0
Property: Activity coefficient of 1-decene (Liquid); method: Chromatography
Temperature, K	Activity coefficient of 1-decene	uncertainty
333	6.81	0.46
343	6.61	0.45
353	6.35	0.43
363	6.16	0.42

System: methanol + tributylethylphosphonium diethylphosphate; phases: Liquid
Fixed: Pressure, kPa = 101
Fixed: Mass fraction of methanol = 0
Property: Activity coefficient of methanol (Liquid); method: Chromatography
Temperature, K	Activity coefficient of methanol	uncertainty
333	0.37	0.03
343	0.32	0.03
353	0.28	0.03
363	0.25	0.03

System: toluene + tributylethylphosphonium diethylphosphate; phases: Liquid
Fixed: Pressure, kPa = 101
Fixed: Mass fraction of toluene = 0
Property: Activity coefficient of toluene (Liquid); method: Chromatography
Temperature, K	Activity coefficient of toluene	uncertainty
333	1.45	0.1
343	1.39	0.09
353	1.34	0.09
363	1.3	0.08

System: 4-methylpentan-2-one + tributylethylphosphonium diethylphosphate; phases: Liquid
Fixed: Pressure, kPa = 101
Fixed: Mass fraction of 4-methylpentan-2-one = 0
Property: Activity coefficient of 4-methylpentan-2-one (Liquid); method: Chromatography
Temperature, K	Activity coefficient of 4-methylpentan-2-one	uncertainty
333	1.55	0.1
343	1.48	0.1
353	1.44	0.09
363	1.4	0.09

System: tetrahydrofuran + tributylethylphosphonium diethylphosphate; phases: Liquid
Fixed: Pressure, kPa = 101
Fixed: Mass fraction of tetrahydrofuran = 0
Property: Activity coefficient of tetrahydrofuran (Liquid); method: Chromatography
Temperature, K	Activity coefficient of tetrahydrofuran	uncertainty
333	0.57	0.04
343	0.6	0.04
353	0.63	0.04
363	0.55	0.04

System: 1,4-dioxane + 1-butyl-3-methylimidazolium methanesulfonate; phases: Liquid
Fixed: Pressure, kPa = 101
Fixed: Mole fraction of 1,4-dioxane = 0
Property: Activity coefficient of 1,4-dioxane (Liquid); method: Chromatography
Temperature, K	Activity coefficient of 1,4-dioxane	uncertainty
333	2.84	0.19
343	2.95	0.2
353	3.07	0.21
363	3.15	0.21
373	3.23	0.22
383	3.33	0.23

System: butyl ethanoate + 1-butyl-3-methylimidazolium methanesulfonate; phases: Liquid
Fixed: Pressure, kPa = 101
Fixed: Mole fraction of butyl ethanoate = 0
Property: Activity coefficient of butyl ethanoate (Liquid); method: Chromatography
Temperature, K	Activity coefficient of butyl ethanoate	uncertainty
313	159.1	10.9
323	150.3	10.3
333	141	9.7

System: tetrahydrofuran + 1-butyl-3-methylimidazolium methanesulfonate; phases: Liquid
Fixed: Pressure, kPa = 101
Fixed: Mole fraction of tetrahydrofuran = 0
Property: Activity coefficient of tetrahydrofuran (Liquid); method: Chromatography
Temperature, K	Activity coefficient of tetrahydrofuran	uncertainty
333	4.51	0.31
343	4.83	0.33
353	5.223	0.356
363	5.62	0.38
373	6.01	0.41
383	6.5	0.44

System: butan-1-ol + 1-butyl-3-methylimidazolium methanesulfonate; phases: Liquid
Fixed: Pressure, kPa = 101
Fixed: Mole fraction of butan-1-ol = 0
Property: Activity coefficient of butan-1-ol (Liquid); method: Chromatography
Temperature, K	Activity coefficient of butan-1-ol	uncertainty
343	1	0.06
353	1.04	0.07
363	1.08	0.07
373	1.11	0.07
383	1.14	0.07

System: decane + 1-butyl-3-methylimidazolium methanesulfonate; phases: Liquid
Fixed: Pressure, kPa = 101
Fixed: Mole fraction of decane = 0
Property: Activity coefficient of decane (Liquid); method: Chromatography
Temperature, K	Activity coefficient of decane	uncertainty
343	469.2	32.3
353	442.7	30.5
363	418	28.8
373	398.3	27.4

System: 1-decene + 1-butyl-3-methylimidazolium methanesulfonate; phases: Liquid
Fixed: Pressure, kPa = 101
Fixed: Mole fraction of 1-decene = 0
Property: Activity coefficient of 1-decene (Liquid); method: Chromatography
Temperature, K	Activity coefficient of 1-decene	uncertainty
343	230.9	15.9
353	217	14.9
363	205.6	14.1
373	190.8	13.1

System: methanol + 1-butyl-3-methylimidazolium methanesulfonate; phases: Liquid
Fixed: Pressure, kPa = 101
Fixed: Mole fraction of methanol = 0
Property: Activity coefficient of methanol (Liquid); method: Chromatography
Temperature, K	Activity coefficient of methanol	uncertainty
343	0.31	0.03
353	0.32	0.03
363	0.34	0.03
373	0.36	0.03
383	0.37	0.03

System: toluene + 1-butyl-3-methylimidazolium methanesulfonate; phases: Liquid
Fixed: Pressure, kPa = 101
Fixed: Mole fraction of toluene = 0
Property: Activity coefficient of toluene (Liquid); method: Chromatography
Temperature, K	Activity coefficient of toluene	uncertainty
333	6.73	0.46
343	6.71	0.46
353	6.68	0.46
363	6.63	0.45
373	6.59	0.45

System: 4-methylpentan-2-one + 1-butyl-3-methylimidazolium methanesulfonate; phases: Liquid
Fixed: Pressure, kPa = 101
Fixed: Mole fraction of 4-methylpentan-2-one = 0
Property: Activity coefficient of 4-methylpentan-2-one (Liquid); method: Chromatography
Temperature, K	Activity coefficient of 4-methylpentan-2-one	uncertainty
333	10.21	0.7
343	9.8	0.67
353	9.5	0.65
363	9.27	0.63
373	8.9	0.61
383	8.74	0.6

System: diethyl 1,3-propanedioate + 1-butyl-3-methylimidazolium methanesulfonate; phases: Liquid
Fixed: Pressure, kPa = 101
Fixed: Mole fraction of diethyl 1,3-propanedioate = 0
Property: Activity coefficient of diethyl 1,3-propanedioate (Liquid); method: Chromatography
Temperature, K	Activity coefficient of diethyl 1,3-propanedioate	uncertainty
373	7.3	0.5
383	7.8	0.5
393	8.4	0.6
403	8.8	0.6
413	9.1	0.6

System: diethyl butanedioate + 1-butyl-3-methylimidazolium methanesulfonate; phases: Liquid
Fixed: Pressure, kPa = 101
Fixed: Mole fraction of diethyl butanedioate = 0
Property: Activity coefficient of diethyl butanedioate (Liquid); method: Chromatography
Temperature, K	Activity coefficient of diethyl butanedioate	uncertainty
373	14.4	1
383	14.6	1
393	14.7	1
403	15	1
413	15.2	1
