Measured thermophysical data. Thermodynamics of Solubility Processes of Novel Drug-like Spiro-Derivatives in Model Biological Solutions
Source: J. Chem. Eng. Data, 2012, 10.1021/je300143a
Compound 1: N-(3-chloro-4-methylphenyl)-1-thia-3-azaspiro[5.5]undec-2-en-2-amine, C16H21ClN2S, InChI=1S/C16H21ClN2S/c1-12-5-6-13(11-14(12)17)19-15-18-10-9-16(20-15)7-3-2-4-8-16/h5-6,11H,2-4,7-10H2,1H3,(H,18,19)
Compound 2: N-(4-isopropylphenyl)-1-thia-3-azaspiro[5.5]undec-2-en-2-amine, C18H26N2S, InChI=1S/C18H26N2S/c1-14(2)15-6-8-16(9-7-15)20-17-19-13-12-18(21-17)10-4-3-5-11-18/h6-9,14H,3-5,10-13H2,1-2H3,(H,19,20)
Compound 3: N-(4-(trifluoromethyl)phenyl)-1-thia-3-azaspiro[5.5]undec-2-en-2-amine, C16H19F3N2S, InChI=1S/C16H19F3N2S/c17-16(18,19)12-4-6-13(7-5-12)21-14-20-11-10-15(22-14)8-2-1-3-9-15/h4-7H,1-3,8-11H2,(H,20,21)
Compound 4: 1-(4-(1-thia-3-azaspiro[5.5]undec-2-en-2-ylamino)phenyl)ethanone, C17H22N2OS, InChI=1S/C17H22N2OS/c1-13(20)14-5-7-15(8-6-14)19-16-18-12-11-17(21-16)9-3-2-4-10-17/h5-8H,2-4,9-12H2,1H3,(H,18,19)
Compound 5: N-(4-methylphenyl)-1-thia-3-azaspiro[5.5]undec-2-en-2-amine, C16H22N2S, InChI=1S/C16H22N2S/c1-13-5-7-14(8-6-13)18-15-17-12-11-16(19-15)9-3-2-4-10-16/h5-8H,2-4,9-12H2,1H3,(H,17,18)
Compound 6: N-(4-chlorophenyl)-1-thia-3-azaspiro[5.5]undec-2-en-2-amine, C15H19ClN2S, InChI=1S/C15H19ClN2S/c16-12-4-6-13(7-5-12)18-14-17-11-10-15(19-14)8-2-1-3-9-15/h4-7H,1-3,8-11H2,(H,17,18)
Compound 7: N-(1-thia-3-azaspiro[5.5]undec-2-en-2-yl)benzamide, C16H20N2OS, InChI=1S/C16H20N2OS/c19-14(13-7-3-1-4-8-13)18-15-17-12-11-16(20-15)9-5-2-6-10-16/h1,3-4,7-8H,2,5-6,9-12H2,(H,17,18,19)
Compound 8: N-(4-methoxyphenyl)-1-thia-3-azaspiro[5.5]undec-2-en-2-amine, C16H22N2OS, InChI=1S/C16H22N2OS/c1-19-14-7-5-13(6-8-14)18-15-17-12-11-16(20-15)9-3-2-4-10-16/h5-8H,2-4,9-12H2,1H3,(H,17,18)
Compound 9: N-(4-bromophenyl)-1-thia-3-azaspiro[5.5]undec-2-en-2-amine, C15H19BrN2S, InChI=1S/C15H19BrN2S/c16-12-4-6-13(7-5-12)18-14-17-11-10-15(19-14)8-2-1-3-9-15/h4-7H,1-3,8-11H2,(H,17,18)
Compound 10: N-(4-ethylphenyl)-1-thia-3-azaspiro[5.5]undec-2-en-2-amine, C17H24N2S, InChI=1S/C17H24N2S/c1-2-14-6-8-15(9-7-14)19-16-18-13-12-17(20-16)10-4-3-5-11-17/h6-9H,2-5,10-13H2,1H3,(H,18,19)
Compound 11: N-phenyl-1-thia-3-azaspiro[5.5]undec-2-en-2-amine, C15H20N2S, InChI=1S/C15H20N2S/c1-3-7-13(8-4-1)17-14-16-12-11-15(18-14)9-5-2-6-10-15/h1,3-4,7-8H,2,5-6,9-12H2,(H,16,17)
Compound 12: hexane, C6H14, InChI=1S/C6H14/c1-3-5-6-4-2/h3-6H2,1-2H3, purity 99%

System: N-(3-chloro-4-methylphenyl)-1-thia-3-azaspiro[5.5]undec-2-en-2-amine; phases: Crystal, Liquid, Air at 1 atmosphere
Property: Molar enthalpy of transition or fusion, kJ/mol (Crystal); method: DSC
Molar enthalpy of transition or fusion, kJ/mol	uncertainty
33.2	1.2

System: N-(3-chloro-4-methylphenyl)-1-thia-3-azaspiro[5.5]undec-2-en-2-amine; phases: Crystal, Liquid, Air at 1 atmosphere
Property: Normal melting temperature, K (Crystal); method: DTA
Normal melting temperature, K	uncertainty
422.3	0.5

System: N-(4-isopropylphenyl)-1-thia-3-azaspiro[5.5]undec-2-en-2-amine; phases: Crystal, Liquid, Air at 1 atmosphere
Property: Molar enthalpy of transition or fusion, kJ/mol (Crystal); method: DSC
Molar enthalpy of transition or fusion, kJ/mol	uncertainty
29.2	1.2

System: N-(4-isopropylphenyl)-1-thia-3-azaspiro[5.5]undec-2-en-2-amine; phases: Crystal, Liquid, Air at 1 atmosphere
Property: Normal melting temperature, K (Crystal); method: DTA
Normal melting temperature, K	uncertainty
412.7	0.5

System: N-(4-(trifluoromethyl)phenyl)-1-thia-3-azaspiro[5.5]undec-2-en-2-amine; phases: Crystal, Liquid, Air at 1 atmosphere
Property: Molar enthalpy of transition or fusion, kJ/mol (Crystal); method: DSC
Molar enthalpy of transition or fusion, kJ/mol	uncertainty
32.9	1.2

System: N-(4-(trifluoromethyl)phenyl)-1-thia-3-azaspiro[5.5]undec-2-en-2-amine; phases: Crystal, Liquid, Air at 1 atmosphere
Property: Normal melting temperature, K (Crystal); method: DTA
Normal melting temperature, K	uncertainty
422.8	0.5

System: 1-(4-(1-thia-3-azaspiro[5.5]undec-2-en-2-ylamino)phenyl)ethanone; phases: Crystal, Liquid, Air at 1 atmosphere
Property: Molar enthalpy of transition or fusion, kJ/mol (Crystal); method: DSC
Molar enthalpy of transition or fusion, kJ/mol	uncertainty
32.5	1.2

System: 1-(4-(1-thia-3-azaspiro[5.5]undec-2-en-2-ylamino)phenyl)ethanone; phases: Crystal, Liquid, Air at 1 atmosphere
Property: Normal melting temperature, K (Crystal); method: DTA
Normal melting temperature, K	uncertainty
436.6	0.5

System: N-(4-methylphenyl)-1-thia-3-azaspiro[5.5]undec-2-en-2-amine; phases: Crystal, Liquid, Air at 1 atmosphere
Property: Molar enthalpy of transition or fusion, kJ/mol (Crystal); method: DSC
Molar enthalpy of transition or fusion, kJ/mol	uncertainty
41.9	1.3

System: N-(4-methylphenyl)-1-thia-3-azaspiro[5.5]undec-2-en-2-amine; phases: Crystal, Liquid, Air at 1 atmosphere
Property: Normal melting temperature, K (Crystal); method: DTA
Normal melting temperature, K	uncertainty
381.3	0.5

System: N-(4-chlorophenyl)-1-thia-3-azaspiro[5.5]undec-2-en-2-amine; phases: Crystal, Liquid, Air at 1 atmosphere
Property: Molar enthalpy of transition or fusion, kJ/mol (Crystal); method: DSC
Molar enthalpy of transition or fusion, kJ/mol	uncertainty
27.9	1.2

System: N-(4-chlorophenyl)-1-thia-3-azaspiro[5.5]undec-2-en-2-amine; phases: Crystal, Liquid, Air at 1 atmosphere
Property: Normal melting temperature, K (Crystal); method: DTA
Normal melting temperature, K	uncertainty
435.7	0.5

System: N-(1-thia-3-azaspiro[5.5]undec-2-en-2-yl)benzamide; phases: Crystal, Liquid, Air at 1 atmosphere
Property: Molar enthalpy of transition or fusion, kJ/mol (Crystal); method: DSC
Molar enthalpy of transition or fusion, kJ/mol	uncertainty
27.9	1.2

System: N-(1-thia-3-azaspiro[5.5]undec-2-en-2-yl)benzamide; phases: Crystal, Liquid, Air at 1 atmosphere
Property: Normal melting temperature, K (Crystal); method: DTA
Normal melting temperature, K	uncertainty
403.4	0.5

System: N-(4-methoxyphenyl)-1-thia-3-azaspiro[5.5]undec-2-en-2-amine; phases: Crystal, Liquid, Air at 1 atmosphere
Property: Molar enthalpy of transition or fusion, kJ/mol (Crystal); method: DSC
Molar enthalpy of transition or fusion, kJ/mol	uncertainty
29.3	1.2

System: N-(4-methoxyphenyl)-1-thia-3-azaspiro[5.5]undec-2-en-2-amine; phases: Crystal, Liquid, Air at 1 atmosphere
Property: Normal melting temperature, K (Crystal); method: DTA
Normal melting temperature, K	uncertainty
388.5	0.5

System: N-(4-bromophenyl)-1-thia-3-azaspiro[5.5]undec-2-en-2-amine; phases: Crystal, Liquid, Air at 1 atmosphere
Property: Molar enthalpy of transition or fusion, kJ/mol (Crystal); method: DSC
Molar enthalpy of transition or fusion, kJ/mol	uncertainty
44.3	1.3

System: N-(4-bromophenyl)-1-thia-3-azaspiro[5.5]undec-2-en-2-amine; phases: Crystal, Liquid, Air at 1 atmosphere
Property: Normal melting temperature, K (Crystal); method: DTA
Normal melting temperature, K	uncertainty
448.3	0.5

System: N-(4-ethylphenyl)-1-thia-3-azaspiro[5.5]undec-2-en-2-amine; phases: Crystal, Liquid, Air at 1 atmosphere
Property: Molar enthalpy of transition or fusion, kJ/mol (Crystal); method: DSC
Molar enthalpy of transition or fusion, kJ/mol	uncertainty
42.82	1.3

System: N-(4-ethylphenyl)-1-thia-3-azaspiro[5.5]undec-2-en-2-amine; phases: Crystal, Liquid, Air at 1 atmosphere
Property: Normal melting temperature, K (Crystal); method: DTA
Normal melting temperature, K	uncertainty
412.5	0.5

System: N-phenyl-1-thia-3-azaspiro[5.5]undec-2-en-2-amine; phases: Crystal, Liquid, Air at 1 atmosphere
Property: Molar enthalpy of transition or fusion, kJ/mol (Crystal); method: DSC
Molar enthalpy of transition or fusion, kJ/mol	uncertainty
21.6	1.1

System: N-phenyl-1-thia-3-azaspiro[5.5]undec-2-en-2-amine; phases: Crystal, Liquid, Air at 1 atmosphere
Property: Normal melting temperature, K (Crystal); method: DTA
Normal melting temperature, K	uncertainty
386.5	0.5

System: hexane + N-phenyl-1-thia-3-azaspiro[5.5]undec-2-en-2-amine; phases: Liquid, Crystal
Fixed: Pressure, kPa = 101
Property: Mole fraction of N-phenyl-1-thia-3-azaspiro[5.5]undec-2-en-2-amine (Liquid); method: spectrophotometrically
Temperature, K	Mole fraction of N-phenyl-1-thia-3-azaspiro[5.5]undec-2-en-2-amine	uncertainty
293.15	0.00115	6e-05
298.15	0.0013	7e-05
303.15	0.00148	7e-05
310.15	0.0019	0.0001
315.15	0.00215	0.00011

System: hexane + N-(4-methylphenyl)-1-thia-3-azaspiro[5.5]undec-2-en-2-amine; phases: Liquid, Crystal
Fixed: Pressure, kPa = 101
Property: Mole fraction of N-(4-methylphenyl)-1-thia-3-azaspiro[5.5]undec-2-en-2-amine (Liquid); method: spectrophotometrically
Temperature, K	Mole fraction of N-(4-methylphenyl)-1-thia-3-azaspiro[5.5]undec-2-en-2-amine	uncertainty
293.15	0.0028	0.00014
298.15	0.00326	0.00016
303.15	0.00379	0.00019
310.15	0.00445	0.00022
315.15	0.0052	0.00026

System: hexane + N-(4-ethylphenyl)-1-thia-3-azaspiro[5.5]undec-2-en-2-amine; phases: Liquid, Crystal
Fixed: Pressure, kPa = 101
Property: Mole fraction of N-(4-ethylphenyl)-1-thia-3-azaspiro[5.5]undec-2-en-2-amine (Liquid); method: spectrophotometrically
Temperature, K	Mole fraction of N-(4-ethylphenyl)-1-thia-3-azaspiro[5.5]undec-2-en-2-amine	uncertainty
293.15	0.00365	0.00018
298.15	0.00431	0.00022
303.15	0.00508	0.00025
310.15	0.00617	0.00031
315.15	0.00885	0.00044

System: hexane + N-(4-isopropylphenyl)-1-thia-3-azaspiro[5.5]undec-2-en-2-amine; phases: Liquid, Crystal
Fixed: Pressure, kPa = 101
Property: Mole fraction of N-(4-isopropylphenyl)-1-thia-3-azaspiro[5.5]undec-2-en-2-amine (Liquid); method: spectrophotometrically
Temperature, K	Mole fraction of N-(4-isopropylphenyl)-1-thia-3-azaspiro[5.5]undec-2-en-2-amine	uncertainty
293.15	0.00514	0.00026
298.15	0.0061	0.00031
303.15	0.00742	0.00037
310.15	0.00919	0.00046
315.15	0.011	0.00055

System: hexane + 1-(4-(1-thia-3-azaspiro[5.5]undec-2-en-2-ylamino)phenyl)ethanone; phases: Liquid, Crystal
Fixed: Pressure, kPa = 101
Property: Mole fraction of 1-(4-(1-thia-3-azaspiro[5.5]undec-2-en-2-ylamino)phenyl)ethanone (Liquid); method: spectrophotometrically
Temperature, K	Mole fraction of 1-(4-(1-thia-3-azaspiro[5.5]undec-2-en-2-ylamino)phenyl)ethanone	uncertainty
293.15	0.00156	8e-05
298.15	0.00193	0.0001
303.15	0.00242	0.00012
310.15	0.00323	0.00016
315.15	0.00395	0.0002

System: hexane + N-(1-thia-3-azaspiro[5.5]undec-2-en-2-yl)benzamide; phases: Liquid, Crystal
Fixed: Pressure, kPa = 101
Property: Mole fraction of N-(1-thia-3-azaspiro[5.5]undec-2-en-2-yl)benzamide (Liquid); method: spectrophotometrically
Temperature, K	Mole fraction of N-(1-thia-3-azaspiro[5.5]undec-2-en-2-yl)benzamide	uncertainty
293.15	0.0124	0.0006
298.15	0.0153	0.0008
303.15	0.0189	0.0009
310.15	0.025	0.0013
315.15	0.0295	0.0015

System: hexane + N-(4-methoxyphenyl)-1-thia-3-azaspiro[5.5]undec-2-en-2-amine; phases: Liquid, Crystal
Fixed: Pressure, kPa = 101
Property: Mole fraction of N-(4-methoxyphenyl)-1-thia-3-azaspiro[5.5]undec-2-en-2-amine (Liquid); method: spectrophotometrically
Temperature, K	Mole fraction of N-(4-methoxyphenyl)-1-thia-3-azaspiro[5.5]undec-2-en-2-amine	uncertainty
293.15	0.01493	0.00075
298.15	0.01822	0.00091
303.15	0.02206	0.0011
310.15	0.02946	0.00147
315.15	0.03571	0.00179

System: hexane + N-(3-chloro-4-methylphenyl)-1-thia-3-azaspiro[5.5]undec-2-en-2-amine; phases: Liquid, Crystal
Fixed: Pressure, kPa = 101
Property: Mole fraction of N-(3-chloro-4-methylphenyl)-1-thia-3-azaspiro[5.5]undec-2-en-2-amine (Liquid); method: spectrophotometrically
Temperature, K	Mole fraction of N-(3-chloro-4-methylphenyl)-1-thia-3-azaspiro[5.5]undec-2-en-2-amine	uncertainty
293.15	0.00086	4e-05
298.15	0.00115	6e-05
303.15	0.00148	7e-05
310.15	0.00215	0.00011
315.15	0.00268	0.00013

System: hexane + N-(4-bromophenyl)-1-thia-3-azaspiro[5.5]undec-2-en-2-amine; phases: Liquid, Crystal
Fixed: Pressure, kPa = 101
Property: Mole fraction of N-(4-bromophenyl)-1-thia-3-azaspiro[5.5]undec-2-en-2-amine (Liquid); method: spectrophotometrically
Temperature, K	Mole fraction of N-(4-bromophenyl)-1-thia-3-azaspiro[5.5]undec-2-en-2-amine	uncertainty
293.15	0.00246	0.00012
298.15	0.00331	0.00017
303.15	0.00434	0.00022
310.15	0.00654	0.00033
315.15	0.00827	0.00041

System: hexane + N-(4-chlorophenyl)-1-thia-3-azaspiro[5.5]undec-2-en-2-amine; phases: Liquid, Crystal
Fixed: Pressure, kPa = 101
Property: Mole fraction of N-(4-chlorophenyl)-1-thia-3-azaspiro[5.5]undec-2-en-2-amine (Liquid); method: spectrophotometrically
Temperature, K	Mole fraction of N-(4-chlorophenyl)-1-thia-3-azaspiro[5.5]undec-2-en-2-amine	uncertainty
293.15	0.00609	0.0003
298.15	0.00793	0.0004
303.15	0.0101	0.0005
310.15	0.0136	0.0007
315.15	0.017	0.0009

System: hexane + N-(4-(trifluoromethyl)phenyl)-1-thia-3-azaspiro[5.5]undec-2-en-2-amine; phases: Liquid, Crystal
Fixed: Pressure, kPa = 101
Property: Mole fraction of N-(4-(trifluoromethyl)phenyl)-1-thia-3-azaspiro[5.5]undec-2-en-2-amine (Liquid); method: spectrophotometrically
Temperature, K	Mole fraction of N-(4-(trifluoromethyl)phenyl)-1-thia-3-azaspiro[5.5]undec-2-en-2-amine	uncertainty
293.15	0.00214	0.00011
298.15	0.00272	0.00014
303.15	0.00345	0.00017
310.15	0.00424	0.00021
315.15	0.0057	0.00029
