Measured thermophysical data. Viscosity of Urea in the Mixture of N,N-Dimethylformamide and Water
Source: J. Chem. Eng. Data, 2013, 10.1021/je300608v
Compound 1: urea, CH4N2O, InChI=1S/CH4N2O/c2-1(3)4/h(H4,2,3,4), purity 99.5%
Compound 2: dimethylformamide, C3H7NO, InChI=1S/C3H7NO/c1-4(2)3-5/h3H,1-2H3, purity 99%
Compound 3: water, H2O, InChI=1S/H2O/h1H2, purity 99.8%

System: dimethylformamide; phases: Liquid
Fixed: Pressure, kPa = 101
Property: Viscosity, Pa*s (Liquid); method: Capillary tube (Ostwald; Ubbelohde) method
Temperature, K	Viscosity, Pa*s	uncertainty
293.15	0.0008542	5.8e-06
298.15	0.0008045	5.5e-06
303.15	0.0007547	5.2e-06
308.15	0.0007116	5e-06

System: water; phases: Liquid
Fixed: Pressure, kPa = 101
Property: Viscosity, Pa*s (Liquid); method: Capillary tube (Ostwald; Ubbelohde) method
Temperature, K	Viscosity, Pa*s	uncertainty
293.15	0.0010019	6.8e-06
298.15	0.0008903	6.1e-06
303.15	0.0007973	5.6e-06
308.15	0.000719	5.1e-06

System: dimethylformamide + water; phases: Liquid
Fixed: Pressure, kPa = 101
Property: Viscosity, Pa*s (Liquid); method: Capillary tube (Ostwald; Ubbelohde) method
Temperature, K	Mole fraction of water	Viscosity, Pa*s	uncertainty
293.15	0	0.0008542	5.8e-06
293.15	0.1	0.0009649	6.5e-06
293.15	0.2	0.0011286	7.6e-06
293.15	0.3	0.0013571	9e-06
293.15	0.4	0.0016744	1.11e-05
293.15	0.5	0.0021774	1.43e-05
293.15	0.6	0.0025641	1.65e-05
293.15	0.7	0.0028851	1.83e-05
293.15	0.8	0.0027611	1.76e-05
293.15	0.9	0.0020189	1.32e-05
293.15	0.92	0.0018183	1.19e-05
293.15	0.94	0.0016222	1.07e-05
293.15	0.96	0.0014079	9.4e-06
293.15	0.98	0.0012025	8.1e-06
293.15	1	0.0010019	6.8e-06
298.15	0	0.0008045	5.5e-06
298.15	0.1	0.0009018	6.1e-06
298.15	0.2	0.0010386	7e-06
298.15	0.3	0.0012331	8.2e-06
298.15	0.4	0.0015078	1e-05
298.15	0.5	0.0018528	1.22e-05
298.15	0.6	0.0022264	1.45e-05
298.15	0.7	0.0024775	1.6e-05
298.15	0.8	0.0023495	1.53e-05
298.15	0.9	0.0017464	1.15e-05
298.15	0.92	0.0015825	1.05e-05
298.15	0.94	0.0014116	9.4e-06
298.15	0.96	0.0012378	8.3e-06
298.15	0.98	0.0010647	7.2e-06
298.15	1	0.0008903	6.1e-06
303.15	0	0.0007547	5.2e-06
303.15	0.1	0.0008402	5.8e-06
303.15	0.2	0.0009593	6.5e-06
303.15	0.3	0.0011365	7.6e-06
303.15	0.4	0.0013537	9e-06
303.15	0.5	0.0016407	1.08e-05
303.15	0.6	0.0019428	1.27e-05
303.15	0.7	0.0021342	1.39e-05
303.15	0.8	0.0020259	1.32e-05
303.15	0.9	0.0015188	1.01e-05
303.15	0.92	0.001385	9.2e-06
303.15	0.94	0.00124	8.3e-06
303.15	0.96	0.001093	7.4e-06
303.15	0.98	0.0009451	6.5e-06
303.15	1	0.0007973	5.6e-06
308.15	0	0.0007116	5e-06
308.15	0.1	0.0007874	5.4e-06
308.15	0.2	0.0008915	6.1e-06
308.15	0.3	0.0010356	7e-06
308.15	0.4	0.0012264	8.2e-06
308.15	0.5	0.0014681	9.8e-06
308.15	0.6	0.0017072	1.13e-05
308.15	0.7	0.0018561	1.23e-05
308.15	0.8	0.0017588	1.18e-05
308.15	0.9	0.0013353	8.9e-06
308.15	0.92	0.0012208	8.2e-06
308.15	0.94	0.0011005	7.5e-06
308.15	0.96	0.0009743	6.7e-06
308.15	0.98	0.0008498	5.9e-06
308.15	1	0.000719	5.1e-06

System: urea + dimethylformamide; phases: Liquid
Fixed: Pressure, kPa = 101
Property: Viscosity, Pa*s (Liquid); method: Capillary tube (Ostwald; Ubbelohde) method
Temperature, K	Molality, mol/kg of urea	Viscosity, Pa*s	uncertainty
293.15	0.03553	0.0008641	5.9e-06
293.15	0.05617	0.0008696	5.9e-06
293.15	0.07624	0.0008749	6e-06
293.15	0.10512	0.0008829	6e-06
293.15	0.11787	0.0008861	6e-06
293.15	0.13404	0.0008909	6.1e-06
293.15	0.1567	0.0008964	6.1e-06
293.15	0.18965	0.000906	6.1e-06
298.15	0.03801	0.0008095	5.6e-06
298.15	0.08244	0.0008163	5.6e-06
298.15	0.12146	0.0008219	5.6e-06
298.15	0.15187	0.0008295	5.7e-06
298.15	0.15802	0.0008371	5.7e-06
298.15	0.17064	0.0008421	5.8e-06
298.15	0.18705	0.0008468	5.8e-06
298.15	0.20557	0.0008557	5.8e-06
303.15	0.02243	0.0007596	5.2e-06
303.15	0.04245	0.0007641	5.3e-06
303.15	0.06537	0.0007693	5.3e-06
303.15	0.08208	0.0007728	5.3e-06
303.15	0.10225	0.0007775	5.4e-06
303.15	0.11458	0.0007799	5.4e-06
303.15	0.14032	0.0007857	5.4e-06
303.15	0.16167	0.0007908	5.4e-06
308.15	0.02727	0.0007171	5e-06
308.15	0.04896	0.0007214	5e-06
308.15	0.07023	0.0007257	5e-06
308.15	0.09322	0.00073	5.1e-06
308.15	0.11361	0.0007345	5.1e-06
308.15	0.1281	0.0007372	5.1e-06
308.15	0.14367	0.0007403	5.1e-06
308.15	0.15183	0.0007421	5.1e-06

System: urea + water; phases: Liquid
Fixed: Pressure, kPa = 101
Property: Viscosity, Pa*s (Liquid); method: Capillary tube (Ostwald; Ubbelohde) method
Temperature, K	Molality, mol/kg of urea	Viscosity, Pa*s	uncertainty
293.15	0.01878	0.0010024	6.8e-06
293.15	0.03163	0.0010028	6.8e-06
293.15	0.05497	0.0010034	6.8e-06
293.15	0.0703	0.0010038	6.8e-06
293.15	0.08954	0.0010043	6.8e-06
293.15	0.11208	0.0010048	6.8e-06
293.15	0.14167	0.0010057	6.8e-06
293.15	0.15618	0.0010062	6.9e-06
298.15	0.02111	0.0008909	6.1e-06
298.15	0.05094	0.0008918	6.1e-06
298.15	0.07533	0.0008925	6.1e-06
298.15	0.09396	0.000893	6.2e-06
298.15	0.11085	0.0008935	6.2e-06
298.15	0.13743	0.0008943	6.2e-06
298.15	0.17311	0.0008953	6.2e-06
298.15	0.20503	0.0008962	6.2e-06
303.15	0.02577	0.000798	5.6e-06
303.15	0.06152	0.000799	5.6e-06
303.15	0.08937	0.0007999	5.6e-06
303.15	0.11257	0.0008005	5.6e-06
303.15	0.12634	0.0008009	5.6e-06
303.15	0.15263	0.0008016	5.6e-06
303.15	0.17585	0.0008024	5.6e-06
303.15	0.19024	0.0008028	5.6e-06
308.15	0.02096	0.0007197	5.1e-06
308.15	0.0359	0.0007201	5.1e-06
308.15	0.06387	0.000721	5.1e-06
308.15	0.07924	0.0007214	5.1e-06
308.15	0.10607	0.0007223	5.1e-06
308.15	0.12339	0.0007227	5.1e-06
308.15	0.15986	0.0007238	5.1e-06
308.15	0.18429	0.0007246	5.1e-06

System: urea + dimethylformamide + water; phases: Liquid
Fixed: Pressure, kPa = 101
Property: Viscosity, Pa*s (Liquid); method: Capillary tube (Ostwald; Ubbelohde) method
Temperature, K	Solvent: Mole fraction of water	Molality, mol/kg of urea	Viscosity, Pa*s	uncertainty
293.15	0	0.03553	0.0008641	5.9e-06
293.15	0	0.05617	0.0008696	5.9e-06
293.15	0	0.07624	0.0008749	6e-06
293.15	0	0.10512	0.0008829	6e-06
293.15	0	0.11787	0.0008861	6e-06
293.15	0	0.13404	0.0008909	6.1e-06
293.15	0	0.1567	0.0008964	6.1e-06
293.15	0	0.18965	0.000906	6.2e-06
293.15	0.1	0.02664	0.0009727	6.6e-06
293.15	0.1	0.04365	0.0009776	6.6e-06
293.15	0.1	0.06643	0.0009841	6.6e-06
293.15	0.1	0.07974	0.0009879	6.7e-06
293.15	0.1	0.11345	0.0009974	6.8e-06
293.15	0.1	0.12765	0.001002	6.8e-06
293.15	0.1	0.14234	0.0010056	6.8e-06
293.15	0.1	0.16855	0.0010139	6.8e-06
293.15	0.2	0.037	0.00114	7.6e-06
293.15	0.2	0.05562	0.0011461	7.7e-06
293.15	0.2	0.07026	0.0011504	7.7e-06
293.15	0.2	0.09544	0.0011586	7.7e-06
293.15	0.2	0.10312	0.0011605	7.7e-06
293.15	0.2	0.12304	0.001167	7.8e-06
293.15	0.2	0.13341	0.00117	7.9e-06
293.15	0.2	0.15622	0.0011775	7.9e-06
293.15	0.3	0.02496	0.0013653	9.1e-06
293.15	0.3	0.03459	0.0013683	9.1e-06
293.15	0.3	0.0552	0.001375	9.2e-06
293.15	0.3	0.06909	0.0013799	9.1e-06
293.15	0.3	0.09844	0.0013897	9.3e-06
293.15	0.3	0.12669	0.0013988	9.3e-06
293.15	0.3	0.15193	0.0014078	9.4e-06
293.15	0.3	0.17561	0.0014157	9.4e-06
293.15	0.4	0.02751	0.0016837	1.12e-05
293.15	0.4	0.04107	0.001688	1.12e-05
293.15	0.4	0.06738	0.0016972	1.12e-05
293.15	0.4	0.08142	0.0017021	1.13e-05
293.15	0.4	0.10414	0.0017098	1.13e-05
293.15	0.4	0.11607	0.0017134	1.13e-05
293.15	0.4	0.1446	0.0017227	1.14e-05
293.15	0.4	0.16841	0.0017311	1.14e-05
293.15	0.5	0.02972	0.0021872	1.42e-05
293.15	0.5	0.04383	0.0021922	1.43e-05
293.15	0.5	0.06267	0.0021985	1.44e-05
293.15	0.5	0.07856	0.002204	1.44e-05
293.15	0.5	0.10218	0.0022114	1.45e-05
293.15	0.5	0.11132	0.002215	1.45e-05
293.15	0.5	0.14186	0.0022256	1.45e-05
293.15	0.5	0.16699	0.0022338	1.46e-05
293.15	0.6	0.02614	0.0025713	1.65e-05
293.15	0.6	0.03913	0.0025752	1.64e-05
293.15	0.6	0.06613	0.0025825	1.64e-05
293.15	0.6	0.07919	0.0025866	1.66e-05
293.15	0.6	0.10046	0.0025928	1.65e-05
293.15	0.6	0.11171	0.0025953	1.65e-05
293.15	0.6	0.13986	0.0026027	1.66e-05
293.15	0.6	0.16385	0.0026094	1.66e-05
293.15	0.7	0.02507	0.002889	1.83e-05
293.15	0.7	0.04563	0.002894	1.83e-05
293.15	0.7	0.05514	0.0028923	1.85e-05
293.15	0.7	0.08245	0.0028985	1.83e-05
293.15	0.7	0.0948	0.0029003	1.85e-05
293.15	0.7	0.12017	0.0029041	1.86e-05
293.15	0.7	0.12775	0.0029058	1.86e-05
293.15	0.7	0.15364	0.00291	1.86e-05
293.15	0.8	0.02542	0.0027627	1.75e-05
293.15	0.8	0.05227	0.0027642	1.76e-05
293.15	0.8	0.07521	0.0027657	1.78e-05
293.15	0.8	0.09547	0.0027667	1.76e-05
293.15	0.8	0.11576	0.0027681	1.76e-05
293.15	0.8	0.13422	0.0027692	1.78e-05
293.15	0.8	0.15447	0.0027704	1.76e-05
293.15	0.8	0.17354	0.0027715	1.78e-05
293.15	0.9	0.02782	0.0020199	1.31e-05
293.15	0.9	0.03792	0.0020204	1.31e-05
293.15	0.9	0.06139	0.0020212	1.31e-05
293.15	0.9	0.07992	0.0020219	1.32e-05
293.15	0.9	0.10573	0.0020229	1.31e-05
293.15	0.9	0.12028	0.0020235	1.31e-05
293.15	0.9	0.13748	0.0020241	1.31e-05
293.15	0.9	0.15074	0.0020246	1.31e-05
293.15	0.92	0.01939	0.001819	1.19e-05
293.15	0.92	0.0403	0.0018198	1.19e-05
293.15	0.92	0.0635	0.0018206	1.19e-05
293.15	0.92	0.08806	0.0018216	1.18e-05
293.15	0.92	0.11108	0.0018224	1.19e-05
293.15	0.92	0.12516	0.0018229	1.19e-05
293.15	0.92	0.15655	0.0018241	1.18e-05
293.15	0.92	0.18427	0.0018251	1.2e-05
293.15	0.94	0.02351	0.001623	1.06e-05
293.15	0.94	0.04908	0.0016239	1.06e-05
293.15	0.94	0.06869	0.0016246	1.07e-05
293.15	0.94	0.09908	0.0016256	1.06e-05
293.15	0.94	0.12978	0.0016267	1.06e-05
293.15	0.94	0.1445	0.0016272	1.07e-05
293.15	0.94	0.16051	0.0016278	1.07e-05
293.15	0.94	0.18323	0.0016286	1.07e-05
293.15	0.96	0.0201	0.0014086	9.3e-06
293.15	0.96	0.04449	0.0014095	9.3e-06
293.15	0.96	0.07542	0.0014105	9.3e-06
293.15	0.96	0.09495	0.0014111	9.3e-06
293.15	0.96	0.11657	0.0014118	9.3e-06
293.15	0.96	0.13101	0.0014123	9.3e-06
293.15	0.96	0.16057	0.0014133	9.3e-06
293.15	0.96	0.17978	0.0014139	9.3e-06
293.15	0.98	0.0188	0.0012031	8e-06
293.15	0.98	0.04507	0.0012039	8e-06
293.15	0.98	0.05911	0.0012044	8e-06
293.15	0.98	0.08045	0.001205	8e-06
293.15	0.98	0.10104	0.0012058	8e-06
293.15	0.98	0.11647	0.0012062	8.1e-06
293.15	0.98	0.14816	0.0012072	8.1e-06
293.15	0.98	0.17766	0.0012081	8e-06
293.15	1	0.01878	0.0010024	6.8e-06
293.15	1	0.03163	0.0010028	6.8e-06
293.15	1	0.05497	0.0010034	6.8e-06
293.15	1	0.0703	0.0010038	6.8e-06
293.15	1	0.08954	0.0010043	6.8e-06
293.15	1	0.11208	0.0010048	6.8e-06
293.15	1	0.14167	0.0010057	6.8e-06
293.15	1	0.15618	0.0010062	6.8e-06
298.15	0	0.03801	0.0008095	5.6e-06
298.15	0	0.08244	0.0008163	5.6e-06
298.15	0	0.12146	0.0008219	5.6e-06
298.15	0	0.15187	0.0008295	5.7e-06
298.15	0	0.15802	0.0008371	5.7e-06
298.15	0	0.17064	0.0008421	5.8e-06
298.15	0	0.18705	0.0008468	5.8e-06
298.15	0	0.20557	0.0008557	5.9e-06
298.15	0.1	0.03874	0.000907	6.2e-06
298.15	0.1	0.08285	0.0009142	6.2e-06
298.15	0.1	0.11242	0.0009215	6.3e-06
298.15	0.1	0.14712	0.0009293	6.4e-06
298.15	0.1	0.15491	0.0009361	6.3e-06
298.15	0.1	0.17758	0.0009421	6.4e-06
298.15	0.1	0.18826	0.0009483	6.4e-06
298.15	0.1	0.21033	0.0009566	6.5e-06
298.15	0.2	0.02075	0.0010478	7.1e-06
298.15	0.2	0.03332	0.0010574	7.1e-06
298.15	0.2	0.05842	0.0010665	7.2e-06
298.15	0.2	0.06745	0.0010747	7.2e-06
298.15	0.2	0.09929	0.001082	7.3e-06
298.15	0.2	0.12863	0.0010876	7.3e-06
298.15	0.2	0.15446	0.0010444	7e-06
298.15	0.2	0.17415	0.0010549	7.2e-06
298.15	0.3	0.02327	0.0012398	8.3e-06
298.15	0.3	0.04982	0.0012473	8.3e-06
298.15	0.3	0.06603	0.0012523	8.3e-06
298.15	0.3	0.08697	0.0012579	8.4e-06
298.15	0.3	0.11038	0.0012652	8.5e-06
298.15	0.3	0.12509	0.001269	8.4e-06
298.15	0.3	0.15851	0.0012787	8.5e-06
298.15	0.3	0.18688	0.0012872	8.6e-06
298.15	0.4	0.02032	0.0015138	1e-05
298.15	0.4	0.0439	0.0015203	1.01e-05
298.15	0.4	0.07657	0.0015303	1.01e-05
298.15	0.4	0.08837	0.0015331	1.01e-05
298.15	0.4	0.12351	0.0015436	1.02e-05
298.15	0.4	0.15449	0.0015531	1.02e-05
298.15	0.4	0.17856	0.0015599	1.03e-05
298.15	0.4	0.20135	0.0015672	1.04e-05
298.15	0.5	0.02505	0.0018595	1.22e-05
298.15	0.5	0.0435	0.0018646	1.23e-05
298.15	0.5	0.06567	0.0018707	1.23e-05
298.15	0.5	0.09181	0.0018769	1.23e-05
298.15	0.5	0.12046	0.0018846	1.23e-05
298.15	0.5	0.14717	0.0018914	1.25e-05
298.15	0.5	0.17574	0.0018998	1.25e-05
298.15	0.5	0.19691	0.0019058	1.25e-05
298.15	0.6	0.01723	0.0022304	1.44e-05
298.15	0.6	0.04339	0.0022363	1.45e-05
298.15	0.6	0.06617	0.0022418	1.45e-05
298.15	0.6	0.08556	0.0022461	1.45e-05
298.15	0.6	0.11252	0.0022523	1.46e-05
298.15	0.6	0.13309	0.0022573	1.51e-05
298.15	0.6	0.14648	0.00226	1.46e-05
298.15	0.6	0.17768	0.0022675	1.45e-05
298.15	0.7	0.01911	0.0024802	1.6e-05
298.15	0.7	0.04756	0.0024837	1.6e-05
298.15	0.7	0.0622	0.0024862	1.6e-05
298.15	0.7	0.09255	0.0024892	1.6e-05
298.15	0.7	0.11081	0.0024931	1.61e-05
298.15	0.7	0.15014	0.002497	1.61e-05
298.15	0.7	0.1709	0.0024996	1.61e-05
298.15	0.7	0.18977	0.002502	1.61e-05
298.15	0.8	0.01881	0.0023508	1.52e-05
298.15	0.8	0.04545	0.0023525	1.53e-05
298.15	0.8	0.06913	0.0023542	1.53e-05
298.15	0.8	0.08743	0.0023554	1.53e-05
298.15	0.8	0.11421	0.0023572	1.56e-05
298.15	0.8	0.14471	0.0023594	1.53e-05
298.15	0.8	0.16911	0.0023608	1.53e-05
298.15	0.8	0.19082	0.0023623	1.51e-05
298.15	0.9	0.02005	0.0017472	1.14e-05
298.15	0.9	0.0498	0.0017483	1.14e-05
298.15	0.9	0.0776	0.0017492	1.15e-05
298.15	0.9	0.09827	0.0017505	1.15e-05
298.15	0.9	0.13776	0.0017515	1.15e-05
298.15	0.9	0.1611	0.0017525	1.15e-05
298.15	0.9	0.18498	0.0017536	1.15e-05
298.15	0.9	0.20259	0.0017545	1.14e-05
298.15	0.92	0.02215	0.0015833	1.04e-05
298.15	0.92	0.04026	0.001584	1.04e-05
298.15	0.92	0.05913	0.0015847	1.04e-05
298.15	0.92	0.07523	0.0015852	1.05e-05
298.15	0.92	0.10175	0.0015863	1.05e-05
298.15	0.92	0.11935	0.0015869	1.05e-05
298.15	0.92	0.15307	0.0015882	1.05e-05
298.15	0.92	0.18906	0.0015896	1.05e-05
298.15	0.94	0.01992	0.0014123	9.4e-06
298.15	0.94	0.0365	0.0014128	9.4e-06
298.15	0.94	0.0615	0.0014137	9.4e-06
298.15	0.94	0.07366	0.0014141	9.3e-06
298.15	0.94	0.09963	0.0014151	9.4e-06
298.15	0.94	0.11205	0.0014156	9.4e-06
298.15	0.94	0.14251	0.0014167	9.4e-06
298.15	0.94	0.16686	0.0014176	9.4e-06
298.15	0.96	0.01844	0.0012384	8.3e-06
298.15	0.96	0.03895	0.0012392	8.3e-06
298.15	0.96	0.05883	0.0012399	8.3e-06
298.15	0.96	0.09071	0.0012412	8.3e-06
298.15	0.96	0.1132	0.0012417	8.3e-06
298.15	0.96	0.14778	0.0012428	8.3e-06
298.15	0.96	0.16669	0.0012437	8.3e-06
298.15	0.96	0.18739	0.0012442	8.4e-06
298.15	0.98	0.01695	0.0010652	7.2e-06
298.15	0.98	0.03814	0.0010658	7.2e-06
298.15	0.98	0.06235	0.0010668	7.2e-06
298.15	0.98	0.07367	0.0010671	7.2e-06
298.15	0.98	0.10085	0.001068	7.2e-06
298.15	0.98	0.1276	0.0010689	7.4e-06
298.15	0.98	0.14955	0.0010696	7.2e-06
298.15	0.98	0.16907	0.0010704	7.2e-06
298.15	1	0.02111	0.0008909	6.1e-06
298.15	1	0.05094	0.0008918	6.1e-06
298.15	1	0.07533	0.0008925	6.1e-06
298.15	1	0.09396	0.000893	6.1e-06
298.15	1	0.11085	0.0008935	6.1e-06
298.15	1	0.13743	0.0008943	6.1e-06
298.15	1	0.17311	0.0008953	6.1e-06
298.15	1	0.20503	0.0008962	6.2e-06
303.15	0	0.02243	0.0007596	5.3e-06
303.15	0	0.04245	0.0007641	5.3e-06
303.15	0	0.06537	0.0007693	5.3e-06
303.15	0	0.08208	0.0007728	5.3e-06
303.15	0	0.10225	0.0007775	5.4e-06
303.15	0	0.11458	0.0007799	5.4e-06
303.15	0	0.14032	0.0007857	5.4e-06
303.15	0	0.16167	0.0007908	5.5e-06
303.15	0.1	0.02217	0.0008455	5.8e-06
303.15	0.1	0.04723	0.000852	5.8e-06
303.15	0.1	0.07157	0.0008583	5.9e-06
303.15	0.1	0.08501	0.000866	5.9e-06
303.15	0.1	0.12696	0.0008718	6e-06
303.15	0.1	0.15749	0.0008766	6e-06
303.15	0.1	0.18443	0.0008842	6e-06
303.15	0.1	0.21243	0.0008898	6.1e-06
303.15	0.2	0.04005	0.0009652	6.6e-06
303.15	0.2	0.05625	0.0009717	6.6e-06
303.15	0.2	0.07619	0.0009778	6.6e-06
303.15	0.2	0.09815	0.000985	6.7e-06
303.15	0.2	0.11861	0.000992	6.7e-06
303.15	0.2	0.15394	0.0009988	6.7e-06
303.15	0.2	0.18335	0.001004	6.8e-06
303.15	0.2	0.21304	0.0010163	6.8e-06
303.15	0.3	0.01945	0.0011414	7.6e-06
303.15	0.3	0.03344	0.0011448	7.7e-06
303.15	0.3	0.05554	0.0011505	7.7e-06
303.15	0.3	0.07631	0.0011555	7.7e-06
303.15	0.3	0.10128	0.0011621	7.8e-06
303.15	0.3	0.11674	0.0011658	7.8e-06
303.15	0.3	0.13238	0.0011698	7.8e-06
303.15	0.3	0.14706	0.0011732	7.8e-06
303.15	0.4	0.02379	0.0013597	9e-06
303.15	0.4	0.05408	0.0013672	9.1e-06
303.15	0.4	0.07792	0.0013733	9.1e-06
303.15	0.4	0.09988	0.0013784	9.1e-06
303.15	0.4	0.12181	0.001384	9.2e-06
303.15	0.4	0.14286	0.001389	9.2e-06
303.15	0.4	0.17093	0.0013959	9.3e-06
303.15	0.4	0.19026	0.0014007	9.3e-06
303.15	0.5	0.02197	0.0016457	1.09e-05
303.15	0.5	0.03201	0.0016477	1.08e-05
303.15	0.5	0.05391	0.0016528	1.08e-05
303.15	0.5	0.06747	0.0016559	1.09e-05
303.15	0.5	0.09884	0.0016627	1.09e-05
303.15	0.5	0.13052	0.0016698	1.1e-05
303.15	0.5	0.15528	0.0016756	1.11e-05
303.15	0.5	0.17353	0.0016798	1.1e-05
303.15	0.6	0.02151	0.0019469	1.27e-05
303.15	0.6	0.04531	0.0019514	1.27e-05
303.15	0.6	0.06532	0.0019554	1.27e-05
303.15	0.6	0.08475	0.0019589	1.27e-05
303.15	0.6	0.1022	0.0019628	1.27e-05
303.15	0.6	0.11982	0.0019656	1.28e-05
303.15	0.6	0.1517	0.0019719	1.28e-05
303.15	0.6	0.17808	0.0019772	1.29e-05
303.15	0.7	0.02152	0.0021369	1.39e-05
303.15	0.7	0.03928	0.0021391	1.39e-05
303.15	0.7	0.06422	0.0021426	1.39e-05
303.15	0.7	0.08329	0.0021445	1.39e-05
303.15	0.7	0.10753	0.0021481	1.39e-05
303.15	0.7	0.12754	0.0021506	1.39e-05
303.15	0.7	0.15722	0.0021543	1.42e-05
303.15	0.7	0.18059	0.0021575	1.41e-05
303.15	0.8	0.02126	0.0020273	1.32e-05
303.15	0.8	0.04423	0.0020289	1.32e-05
303.15	0.8	0.0781	0.0020312	1.32e-05
303.15	0.8	0.09643	0.0020325	1.32e-05
303.15	0.8	0.12524	0.0020345	1.31e-05
303.15	0.8	0.14918	0.0020361	1.35e-05
303.15	0.8	0.17707	0.002038	1.33e-05
303.15	0.8	0.20225	0.0020397	1.43e-05
303.15	0.9	0.01919	0.0015196	1e-05
303.15	0.9	0.0294	0.00152	1e-05
303.15	0.9	0.05	0.0015207	1e-05
303.15	0.9	0.06538	0.0015213	1e-05
303.15	0.9	0.08153	0.001522	1.01e-05
303.15	0.9	0.10049	0.0015226	1.01e-05
303.15	0.9	0.13436	0.0015239	1.01e-05
303.15	0.9	0.16022	0.001525	1.01e-05
303.15	0.92	0.02253	0.0013859	9.2e-06
303.15	0.92	0.03942	0.0013865	9.2e-06
303.15	0.92	0.06525	0.0013874	9.2e-06
303.15	0.92	0.09274	0.0013883	9.2e-06
303.15	0.92	0.10873	0.001389	9.2e-06
303.15	0.92	0.13472	0.00139	9.3e-06
303.15	0.92	0.16661	0.0013911	9.2e-06
303.15	0.92	0.19013	0.001392	9.2e-06
303.15	0.94	0.02683	0.0012409	8.3e-06
303.15	0.94	0.04999	0.0012418	8.3e-06
303.15	0.94	0.06532	0.0012423	8.3e-06
303.15	0.94	0.09343	0.0012433	8.3e-06
303.15	0.94	0.11667	0.001244	8.3e-06
303.15	0.94	0.12902	0.0012444	8.3e-06
303.15	0.94	0.15968	0.0012455	8.3e-06
303.15	0.94	0.18261	0.0012462	8.3e-06
303.15	0.96	0.02522	0.0010938	7.4e-06
303.15	0.96	0.04674	0.0010945	7.4e-06
303.15	0.96	0.06951	0.0010953	7.4e-06
303.15	0.96	0.08856	0.0010959	7.4e-06
303.15	0.96	0.11895	0.0010969	7.4e-06
303.15	0.96	0.13092	0.0010973	7.4e-06
303.15	0.96	0.1655	0.0010984	7.4e-06
303.15	0.96	0.19361	0.0010993	7.4e-06
303.15	0.98	0.02496	0.0009458	6.4e-06
303.15	0.98	0.05164	0.0009467	6.4e-06
303.15	0.98	0.07697	0.0009475	6.5e-06
303.15	0.98	0.09772	0.0009481	6.5e-06
303.15	0.98	0.12121	0.0009489	6.5e-06
303.15	0.98	0.13825	0.0009494	6.5e-06
303.15	0.98	0.16987	0.0009504	6.5e-06
303.15	0.98	0.18217	0.0009508	6.5e-06
303.15	1	0.02577	0.000798	5.5e-06
303.15	1	0.06152	0.000799	5.5e-06
303.15	1	0.08937	0.0007999	5.6e-06
303.15	1	0.11257	0.0008005	5.5e-06
303.15	1	0.12634	0.0008009	5.6e-06
303.15	1	0.15263	0.0008016	5.6e-06
303.15	1	0.17585	0.0008024	5.5e-06
303.15	1	0.19024	0.0008028	5.6e-06
308.15	0	0.02727	0.0007171	5e-06
308.15	0	0.04896	0.0007214	5e-06
308.15	0	0.07023	0.0007257	5.1e-06
308.15	0	0.09322	0.00073	5.1e-06
308.15	0	0.11361	0.0007345	5.1e-06
308.15	0	0.1281	0.0007372	5.1e-06
308.15	0	0.14367	0.0007403	5.1e-06
308.15	0	0.15183	0.0007421	5.2e-06
308.15	0.1	0.02426	0.0007925	5.5e-06
308.15	0.1	0.04661	0.0007971	5.5e-06
308.15	0.1	0.06866	0.0008018	5.5e-06
308.15	0.1	0.09006	0.0008062	5.5e-06
308.15	0.1	0.13003	0.0008146	5.6e-06
308.15	0.1	0.14729	0.000818	5.6e-06
308.15	0.1	0.17399	0.0008238	5.7e-06
308.15	0.1	0.18919	0.0008268	5.7e-06
308.15	0.2	0.02725	0.0008972	6.1e-06
308.15	0.2	0.05356	0.0009029	6.1e-06
308.15	0.2	0.06826	0.0009063	6.2e-06
308.15	0.2	0.094	0.0009171	6.2e-06
308.15	0.2	0.11733	0.0009202	6.2e-06
308.15	0.2	0.13186	0.0009273	6.3e-06
308.15	0.2	0.16288	0.000933	6.3e-06
308.15	0.2	0.18749	0.0009367	6.4e-06
308.15	0.3	0.02783	0.0010418	7e-06
308.15	0.3	0.062	0.0010493	7.1e-06
308.15	0.3	0.08344	0.0010539	7.1e-06
308.15	0.3	0.10649	0.0010589	7.1e-06
308.15	0.3	0.12098	0.001062	7.2e-06
308.15	0.3	0.14095	0.0010665	7.2e-06
308.15	0.3	0.17685	0.0010744	7.3e-06
308.15	0.3	0.20379	0.0010802	7.3e-06
308.15	0.4	0.02591	0.0012319	8.2e-06
308.15	0.4	0.05001	0.0012371	8.2e-06
308.15	0.4	0.07356	0.0012423	8.3e-06
308.15	0.4	0.08754	0.0012453	8.3e-06
308.15	0.4	0.10487	0.0012493	8.3e-06
308.15	0.4	0.12081	0.0012523	8.4e-06
308.15	0.4	0.15163	0.0012592	8.4e-06
308.15	0.4	0.17562	0.0012642	8.4e-06
308.15	0.5	0.03227	0.0014741	9.8e-06
308.15	0.5	0.0631	0.00148	9.8e-06
308.15	0.5	0.08793	0.001485	9.8e-06
308.15	0.5	0.10356	0.0014881	9.9e-06
308.15	0.5	0.12527	0.0014925	9.9e-06
308.15	0.5	0.13748	0.0014948	9.9e-06
308.15	0.5	0.17224	0.0015022	9.9e-06
308.15	0.5	0.1974	0.0015063	9.9e-06
308.15	0.6	0.03085	0.0017122	1.14e-05
308.15	0.6	0.05804	0.0017168	1.13e-05
308.15	0.6	0.08707	0.0017215	1.14e-05
308.15	0.6	0.10228	0.0017241	1.13e-05
308.15	0.6	0.12456	0.0017279	1.14e-05
308.15	0.6	0.14424	0.0017311	1.13e-05
308.15	0.6	0.17816	0.0017368	1.15e-05
308.15	0.6	0.18967	0.0017391	1.17e-05
308.15	0.7	0.02532	0.001859	1.22e-05
308.15	0.7	0.04646	0.0018614	1.22e-05
308.15	0.7	0.06653	0.0018639	1.22e-05
308.15	0.7	0.08127	0.0018656	1.22e-05
308.15	0.7	0.10183	0.0018682	1.24e-05
308.15	0.7	0.11488	0.0018694	1.22e-05
308.15	0.7	0.14445	0.0018731	1.25e-05
308.15	0.7	0.17025	0.001876	1.23e-05
308.15	0.8	0.02603	0.0017605	1.18e-05
308.15	0.8	0.05185	0.0017623	1.16e-05
308.15	0.8	0.07738	0.0017639	1.17e-05
308.15	0.8	0.09334	0.0017649	1.16e-05
308.15	0.8	0.11863	0.0017667	1.16e-05
308.15	0.8	0.1366	0.0017676	1.16e-05
308.15	0.8	0.16543	0.0017696	1.16e-05
308.15	0.8	0.1795	0.0017705	1.25e-05
308.15	0.9	0.02586	0.0013363	8.9e-06
308.15	0.9	0.05241	0.0013374	8.9e-06
308.15	0.9	0.06799	0.001338	8.9e-06
308.15	0.9	0.09763	0.0013391	8.9e-06
308.15	0.9	0.12118	0.0013401	8.9e-06
308.15	0.9	0.1329	0.0013406	8.9e-06
308.15	0.9	0.16421	0.0013419	8.9e-06
308.15	0.9	0.19157	0.001343	9.2e-06
308.15	0.92	0.02497	0.0012217	8.2e-06
308.15	0.92	0.053	0.0012227	8.2e-06
308.15	0.92	0.06651	0.0012232	8.2e-06
308.15	0.92	0.09117	0.0012241	8.2e-06
308.15	0.92	0.11222	0.0012248	8.2e-06
308.15	0.92	0.12883	0.0012254	8.2e-06
308.15	0.92	0.15923	0.0012266	8.2e-06
308.15	0.92	0.18648	0.0012276	8.2e-06
308.15	0.94	0.02501	0.0011013	7.4e-06
308.15	0.94	0.04906	0.0011021	7.4e-06
308.15	0.94	0.07736	0.0011031	7.4e-06
308.15	0.94	0.09555	0.0011037	7.4e-06
308.15	0.94	0.11719	0.0011045	7.4e-06
308.15	0.94	0.12795	0.0011047	7.4e-06
308.15	0.94	0.15571	0.0011057	7.5e-06
308.15	0.94	0.18176	0.0011065	7.5e-06
308.15	0.96	0.02011	0.000975	6.6e-06
308.15	0.96	0.04565	0.0009758	6.6e-06
308.15	0.96	0.06937	0.0009765	6.6e-06
308.15	0.96	0.08717	0.0009771	6.6e-06
308.15	0.96	0.10465	0.0009777	6.6e-06
308.15	0.96	0.12026	0.0009781	6.7e-06
308.15	0.96	0.14664	0.000979	6.6e-06
308.15	0.96	0.16911	0.0009797	6.7e-06
308.15	0.98	0.02493	0.0008506	5.9e-06
308.15	0.98	0.05171	0.0008515	5.9e-06
308.15	0.98	0.07567	0.0008522	5.9e-06
308.15	0.98	0.09774	0.0008529	5.9e-06
308.15	0.98	0.12132	0.0008538	5.9e-06
308.15	0.98	0.13915	0.0008542	5.9e-06
308.15	0.98	0.1401	0.0008548	5.9e-06
308.15	0.98	0.17671	0.0008554	5.9e-06
308.15	1	0.02096	0.0007197	5e-06
308.15	1	0.0359	0.0007201	5e-06
308.15	1	0.06387	0.000721	5.1e-06
308.15	1	0.07924	0.0007214	5.1e-06
308.15	1	0.10607	0.0007223	5.1e-06
308.15	1	0.12339	0.0007227	5.1e-06
308.15	1	0.15986	0.0007238	5.1e-06
308.15	1	0.18429	0.0007246	5.1e-06
