Measured thermophysical data. Solubility of o-Nitrobenzoic Acid in Modified Supercritical Carbon Dioxide at (308 to 328) K
Source: J. Chem. Eng. Data, 2012, 10.1021/je300023v
Compound 1: carbon dioxide, CO2, InChI=1S/CO2/c2-1-3, purity 99.9%
Compound 2: 2-nitrobenzoic acid, C7H5NO4, InChI=1S/C7H5NO4/c9-7(10)5-3-1-2-4-6(5)8(11)12/h1-4H,(H,9,10), purity 99%
Compound 3: ethanol, C2H6O, InChI=1S/C2H6O/c1-2-3/h3H,2H2,1H3, purity 99.7%
Compound 4: ethyl acetate, C4H8O2, InChI=1S/C4H8O2/c1-3-6-4(2)5/h3H2,1-2H3, purity 99.5%

System: ethanol + carbon dioxide + 2-nitrobenzoic acid; phases: Gas, Crystal
Fixed: Solvent: Mole fraction of carbon dioxide = 0.035
Property: Mole fraction of 2-nitrobenzoic acid (Gas); method: UV spectroscopy
Temperature, K	Pressure, kPa	Mole fraction of 2-nitrobenzoic acid	uncertainty
308	10000	1.13e-05	1.2e-06
308	12000	1.59e-05	1.7e-06
308	15000	3.82e-05	4e-06
308	18000	6.67e-05	7.2e-06
308	21000	9.18e-05	9.9e-06
318	10000	2.7e-06	1e-06
318	12000	1.87e-05	2.6e-06
318	15000	8.79e-05	9.4e-06
318	18000	0.0002004	2.05e-05
318	21000	0.0002735	2.82e-05
328	10000	2.1e-06	1.4e-06
328	12000	2.11e-05	3.9e-06
328	15000	0.0001557	1.66e-05
328	18000	0.0003524	3.62e-05
328	21000	0.0006191	6.29e-05

System: carbon dioxide + ethyl acetate + 2-nitrobenzoic acid; phases: Gas, Crystal
Fixed: Temperature, K = 318
Fixed: Solvent: Mole fraction of carbon dioxide = 0.035
Property: Mole fraction of 2-nitrobenzoic acid (Gas); method: UV spectroscopy
Pressure, kPa	Mole fraction of 2-nitrobenzoic acid	uncertainty
10000	5.7e-06	2.1e-06
12000	4.67e-05	5.4e-06
15000	0.000143	1.46e-05
18000	0.0002357	2.38e-05
21000	0.000342	3.44e-05
