Measured thermophysical data. Thermodynamic Properties of a New Hydrophobic Amide-Based Task-Specific Ionic Liquid [EimCH2CONHBu][NTf2]
Source: J. Chem. Eng. Data, 2013, 10.1021/je301001g
Compound 1: 3-(2-(butylamino)-2-oxoethyl)-1-ethyl-1H-imidazolium bis((trifluoromethyl)sulfonyl)amide, C13H20F6N4O5S2, InChI=1S/C11H19N3O.C2F6NO4S2/c1-3-5-6-12-11(15)9-14-8-7-13(4-2)10-14;3-1(4,5)14(10,11)9-15(12,13)2(6,7)8/h7-8,10H,3-6,9H2,1-2H3;/q;-1/p+1

System: 3-(2-(butylamino)-2-oxoethyl)-1-ethyl-1H-imidazolium bis((trifluoromethyl)sulfonyl)amide; phases: Liquid
Fixed: Pressure, kPa = 101.325
Property: Electrical conductivity, S/m (Liquid); method: MP522 conductivity instrument
Temperature, K	Electrical conductivity, S/m	uncertainty
283.15	0.00606	0.00014
288.15	0.00985	0.00022
293.15	0.01527	0.00033
298.15	0.0233	0.0005
303.15	0.0332	0.0007
308.15	0.0467	0.001
313.15	0.0639	0.0013
318.15	0.0854	0.0018
323.15	0.1106	0.0023
328.15	0.1414	0.0029
333.15	0.1774	0.0036
338.15	0.219	0.004

System: 3-(2-(butylamino)-2-oxoethyl)-1-ethyl-1H-imidazolium bis((trifluoromethyl)sulfonyl)amide; phases: Liquid, Air at 1 atmosphere
Property: Surface tension liquid-gas, N/m (Liquid); method: Maximal bubble pressure
Temperature, K	Surface tension liquid-gas, N/m	uncertainty
283.15	0.0327	0.0003
288.15	0.0324	0.0003
293.15	0.0322	0.0003
298.15	0.0318	0.0003
303.15	0.0316	0.0003
308.15	0.031	0.0003
313.15	0.0308	0.0003
318.15	0.0305	0.0003
323.15	0.0303	0.0003
328.15	0.0298	0.0003
333.15	0.0294	0.0003
338.15	0.029	0.0003

System: 3-(2-(butylamino)-2-oxoethyl)-1-ethyl-1H-imidazolium bis((trifluoromethyl)sulfonyl)amide; phases: Liquid
Fixed: Pressure, kPa = 101.325
Property: Viscosity, Pa*s (Liquid); method: Capillary tube (Ostwald; Ubbelohde) method
Temperature, K	Viscosity, Pa*s	uncertainty
298.15	0.7775	0.038
303.15	0.5173	0.023
308.15	0.359	0.0142
313.15	0.2552	0.009
318.15	0.1879	0.0059
323.15	0.1389	0.004
328.15	0.106	0.0028
333.15	0.0821	0.002
338.15	0.0644	0.0015
343.15	0.0533	0.0012
348.15	0.0435	0.001
353.15	0.0358	0.0008
358.15	0.03	0.0007
363.15	0.0253	0.0006

System: 3-(2-(butylamino)-2-oxoethyl)-1-ethyl-1H-imidazolium bis((trifluoromethyl)sulfonyl)amide; phases: Liquid
Fixed: Pressure, kPa = 101.325
Property: Mass density, kg/m3 (Liquid); method: Buoyancy - hydrostatic balance
Temperature, K	Mass density, kg/m3	uncertainty
283.15	1431	0.6
288.15	1427	0.6
293.15	1422.7	0.6
298.15	1418	0.6
303.15	1413.5	0.5
308.15	1409	0.5
313.15	1404.4	0.5
318.15	1399.7	0.5
323.15	1395.4	0.5
328.15	1391	0.5
333.15	1386.7	0.5
338.15	1382.3	0.5
