Measured thermophysical data. Phase diagram for Na2SO4-NaOH-H2O system and  Na2SO4 solubility in sodium aluminate solution with  caustic ratios of 12 and 15 at 80 deg C
Source: J. Chem. Eng. Data, 2013, 10.1021/je301267r
Compound 1: sodium hydroxide, HNaO, InChI=1S/Na.H2O/h;1H2/q+1;/p-1, purity 98%
Compound 2: water, H2O, InChI=1S/H2O/h1H2, purity 99.99%
Compound 3: sodium sulfate, Na2O4S, InChI=1S/2Na.H2O4S/c;;1-5(2,3)4/h;;(H2,1,2,3,4)/q2*+1;/p-2, purity 98%

System: sodium hydroxide + water + sodium sulfate; phases: Liquid, Crystal
Fixed: Pressure, kPa = 101
Fixed: Temperature, K = 353.15
Property: Mass fraction of sodium sulfate (Liquid); method: Chemical analysis
Mass fraction of sodium hydroxide	Mass fraction of sodium sulfate	uncertainty
0	0.2502	0.0009
0.029	0.203	0.0012
0.0652	0.152	0.0011
0.089	0.1257	0.0009
0.116	0.0985	0.0008
0.1719	0.0604	0.0007
0.2174	0.0367	0.0007
0.2793	0.0163	0.0006
0.3296	0.0113	0.0006
0.3866	0.0079	0.0006
0.4464	0.0069	0.0006
0.5059	0.006	0.0006
0.5731	0.0041	0.0006
0.6333	0.0027	0.0006
0.6869	0.0023	0.0006
0.7297	0.0006	0.0006

System: sodium hydroxide + water + sodium sulfate; phases: Liquid, Crystal, Crystal
Property: Mass fraction of sodium sulfate (Liquid); method: Chemical analysis
Pressure, kPa	Temperature, K	Mass fraction of sodium sulfate	uncertainty
101	353.15	0.0005	0.0005

System: sodium hydroxide + water + sodium sulfate; phases: Liquid, Crystal, Crystal
Property: Mass fraction of sodium hydroxide (Liquid); method: Chemical analysis
Temperature, K	Pressure, kPa	Mass fraction of sodium hydroxide	uncertainty
353.15	101	0.7432	0.0067

System: sodium hydroxide + water; phases: Liquid, Crystal
Property: Mass fraction of sodium hydroxide (Liquid); method: Chemical analysis
Temperature, K	Pressure, kPa	Mass fraction of sodium hydroxide	uncertainty
353.15	101	0.758	0.007
