Measured thermophysical data. Isobaric Vapor Liquid Equilibria of Tertiary Amine and n-Alkane/Alkanol Binary Mixtures: Experimental Measurements and Modeling with GC-PPC-SAFT
Source: J. Chem. Eng. Data, 2012, 10.1021/je300568h
Compound 1: N,N-dimethylbutanamine, C6H15N, InChI=1S/C6H15N/c1-4-5-6-7(2)3/h4-6H2,1-3H3, purity 98%
Compound 2: N,N-dimethyl-1-octanamine, C10H23N, InChI=1S/C10H23N/c1-4-5-6-7-8-9-10-11(2)3/h4-10H2,1-3H3, purity 95%
Compound 3: hexane, C6H14, InChI=1S/C6H14/c1-3-5-6-4-2/h3-6H2,1-2H3, purity 99%
Compound 4: heptane, C7H16, InChI=1S/C7H16/c1-3-5-7-6-4-2/h3-7H2,1-2H3, purity 99%
Compound 5: propan-1-ol, C3H8O, InChI=1S/C3H8O/c1-2-3-4/h4H,2-3H2,1H3, purity 99.5%
Compound 6: butan-1-ol, C4H10O, InChI=1S/C4H10O/c1-2-3-4-5/h5H,2-4H2,1H3, purity 99.7%
Compound 7: pentan-1-ol, C5H12O, InChI=1S/C5H12O/c1-2-3-4-5-6/h6H,2-5H2,1H3, purity 99%

System: N,N-dimethylbutanamine; phases: Liquid, Gas
Property: Vapor or sublimation pressure, kPa (Liquid); method: Ebulliometric method (Recirculating still)
Temperature, K	Vapor or sublimation pressure, kPa	uncertainty
330.9	29.84	0.86
345	49.84	0.99
355.1	69.83	1.32
363.2	89.83	1.55
366.7	99.83	1.73

System: N,N-dimethyl-1-octanamine; phases: Liquid, Gas
Property: Vapor or sublimation pressure, kPa (Liquid); method: Ebulliometric method (Recirculating still)
Temperature, K	Vapor or sublimation pressure, kPa	uncertainty
420.2	29.84	0.74
436.7	49.84	0.89
448.2	69.83	1.18
457.9	89.83	1.32

System: hexane + N,N-dimethylbutanamine; phases: Liquid, Gas
Property: Boiling temperature at pressure P, K (Liquid); method: Ebulliometric method (Recirculating still)
Pressure, kPa	Mole fraction of N,N-dimethylbutanamine	Boiling temperature at pressure P, K	uncertainty
29.84	0.1158	309	0.6
29.84	0.2271	310.7	0.6
29.84	0.4386	314.5	0.6
29.84	0.6374	319.1	0.6
29.84	0.8241	324.4	0.6
29.84	0.9117	327.5	0.6
49.84	0.1158	322.5	0.6
49.84	0.2271	324.2	0.6
49.84	0.4386	328.3	0.6
49.84	0.6374	332.9	0.6
49.84	0.8241	338.3	0.6
49.84	0.9117	341.5	0.6
69.83	0.1158	332.1	0.6
69.83	0.2271	333.9	0.6
69.83	0.4386	338.2	0.6
69.83	0.6374	342.9	0.6
69.83	0.8241	348.4	0.6
69.83	0.9117	351.8	0.6
89.83	0.1158	339.8	0.6
89.83	0.2271	341.6	0.6
89.83	0.4386	346	0.6
89.83	0.6374	350.9	0.6
89.83	0.8241	356.4	0.6
89.83	0.9117	359.7	0.6
99.83	0.1158	343.1	0.6
99.83	0.2271	345	0.6
99.83	0.4386	349.4	0.6
99.83	0.6374	354.4	0.6
99.83	0.8241	359.9	0.6
99.83	0.9117	363.2	0.6

System: heptane + N,N-dimethylbutanamine; phases: Liquid, Gas
Property: Boiling temperature at pressure P, K (Liquid); method: Ebulliometric method (Recirculating still)
Pressure, kPa	Mole fraction of N,N-dimethylbutanamine	Boiling temperature at pressure P, K	uncertainty
29.84	0.1001	334.1	0.6
29.84	0.3003	333.4	0.6
29.84	0.4999	332.6	0.6
29.84	0.7098	331.9	0.6
29.84	0.9001	331.1	0.6
49.84	0.1001	348.4	0.6
49.84	0.3003	347.7	0.6
49.84	0.4999	346.8	0.6
49.84	0.7098	346	0.6
49.84	0.9001	345.2	0.6
69.83	0.1001	358.6	0.6
69.83	0.3003	357.9	0.6
69.83	0.4999	356.9	0.6
69.83	0.7098	356.1	0.6
69.83	0.9001	355.3	0.6
89.83	0.1001	366.7	0.6
89.83	0.3003	366	0.6
89.83	0.4999	364.9	0.6
89.83	0.7098	364.1	0.6
89.83	0.9001	363.3	0.6
99.83	0.1001	370.3	0.6
99.83	0.3003	369.5	0.6
99.83	0.4999	368.4	0.6
99.83	0.7098	367.6	0.6
99.83	0.9001	366.8	0.6

System: heptane + N,N-dimethyl-1-octanamine; phases: Liquid, Gas
Property: Boiling temperature at pressure P, K (Liquid); method: Ebulliometric method (Recirculating still)
Pressure, kPa	Mole fraction of N,N-dimethyl-1-octanamine	Boiling temperature at pressure P, K	uncertainty
29.84	0.1	337.5	0.6
29.84	0.3	344.7	0.6
29.84	0.5001	355.3	0.6
29.84	0.6997	373.2	0.6
29.84	0.8995	399.4	0.7
49.84	0.1	352.2	0.6
49.84	0.3	360.5	0.6
49.84	0.5001	371.5	0.7
49.84	0.6997	391.6	0.7
49.84	0.8995	417	0.7
69.83	0.1	362.7	0.6
69.83	0.3	371.7	0.6
69.83	0.5001	383.2	0.7
69.83	0.6997	403.2	0.7
69.83	0.8995	428	0.7
89.83	0.1	371.1	0.6
89.83	0.3	380.5	0.6
89.83	0.5001	392.8	0.7
89.83	0.6997	412.3	0.7
89.83	0.8995	436.5	0.7
99.83	0.1	374.7	0.6
99.83	0.3	384.3	0.7
99.83	0.5001	396.8	0.8
99.83	0.6997	416.3	0.8
99.83	0.8995	442.1	0.8

System: propan-1-ol + N,N-dimethylbutanamine; phases: Liquid, Gas
Property: Boiling temperature at pressure P, K (Liquid); method: Ebulliometric method (Recirculating still)
Pressure, kPa	Mole fraction of N,N-dimethylbutanamine	Boiling temperature at pressure P, K	uncertainty
29.84	0.1	339.8	0.6
29.84	0.3001	336.9	0.6
29.84	0.5001	334	0.6
29.84	0.6989	331.9	0.6
29.84	0.9001	329.7	0.6
49.84	0.1	351.4	0.6
49.84	0.3001	349	0.6
49.84	0.5001	346.6	0.6
49.84	0.6989	344.8	0.6
49.84	0.9001	343.1	0.6
69.83	0.1	359.6	0.6
69.83	0.3001	357.5	0.6
69.83	0.5001	355.4	0.6
69.83	0.6989	354	0.6
69.83	0.9001	352.6	0.6
89.83	0.1	366.1	0.6
89.83	0.3001	364.1	0.6
89.83	0.5001	362.4	0.6
89.83	0.6989	361.2	0.6
89.83	0.9001	360.1	0.6
99.83	0.1	368.8	0.6
99.83	0.3001	367	0.6
99.83	0.5001	365.4	0.6
99.83	0.6989	364.3	0.6
99.83	0.9001	363.4	0.6

System: butan-1-ol + N,N-dimethylbutanamine; phases: Liquid, Gas
Property: Boiling temperature at pressure P, K (Liquid); method: Ebulliometric method (Recirculating still)
Pressure, kPa	Mole fraction of N,N-dimethylbutanamine	Boiling temperature at pressure P, K	uncertainty
29.84	0.1002	356	0.6
29.84	0.2999	348	0.6
29.84	0.4993	341.1	0.6
29.84	0.7002	335.7	0.6
29.84	0.8999	330.9	0.6
49.84	0.1002	368.4	0.6
49.84	0.2999	361.3	0.6
49.84	0.4993	354.7	0.6
49.84	0.7002	349.4	0.6
49.84	0.8999	344.6	0.6
69.83	0.1002	377.2	0.6
69.83	0.2999	370.5	0.6
69.83	0.4993	364.3	0.6
69.83	0.7002	359.2	0.6
69.83	0.8999	354.3	0.6
89.83	0.1002	384.1	0.6
89.83	0.2999	377.7	0.6
89.83	0.4993	371.4	0.6
89.83	0.7002	366.8	0.6
89.83	0.8999	362.1	0.6
99.83	0.1002	387	0.6
99.83	0.2999	380.8	0.6
99.83	0.4993	375.1	0.6
99.83	0.7002	370.1	0.6
99.83	0.8999	365.5	0.6

System: pentan-1-ol + N,N-dimethylbutanamine; phases: Liquid, Gas
Property: Boiling temperature at pressure P, K (Liquid); method: Ebulliometric method (Recirculating still)
Pressure, kPa	Mole fraction of N,N-dimethylbutanamine	Boiling temperature at pressure P, K	uncertainty
29.84	0.1	370.6	0.6
29.84	0.3	357.3	0.6
29.84	0.4997	345.3	0.6
29.84	0.6996	337.6	0.6
29.84	0.9	333.2	0.6
49.84	0.1	383.8	0.6
49.84	0.3	371	0.6
49.84	0.4997	360.5	0.6
49.84	0.6996	352.1	0.6
49.84	0.9	347.4	0.6
69.83	0.1	393.2	0.6
69.83	0.3	380.8	0.6
69.83	0.4997	370.8	0.6
69.83	0.6996	362.5	0.6
69.83	0.9	357.6	0.6
89.83	0.1	400.6	0.6
89.83	0.3	388.7	0.6
89.83	0.4997	378.9	0.6
89.83	0.6996	370.5	0.6
89.83	0.9	365.7	0.6
99.83	0.1	403.7	0.6
99.83	0.3	392.1	0.6
99.83	0.4997	382.3	0.6
99.83	0.6996	373.9	0.6
99.83	0.9	369.2	0.6

System: butan-1-ol + N,N-dimethyl-1-octanamine; phases: Liquid, Gas
Property: Boiling temperature at pressure P, K (Liquid); method: Ebulliometric method (Recirculating still)
Pressure, kPa	Mole fraction of N,N-dimethyl-1-octanamine	Boiling temperature at pressure P, K	uncertainty
29.84	0.1001	361.8	0.6
29.84	0.3	365.9	0.6
29.84	0.5	371.3	0.6
29.84	0.7002	378.6	0.6
29.84	0.8998	394.7	0.7
49.84	0.1001	374	0.6
49.84	0.3	378.6	0.6
49.84	0.5	384.4	0.6
49.84	0.7002	392.6	0.7
49.84	0.8998	410.4	0.7
69.83	0.1001	382.7	0.6
69.83	0.3	387.5	0.6
69.83	0.5	393.7	0.6
69.83	0.7002	402.6	0.7
69.83	0.8998	420.8	0.7
89.83	0.1001	389.6	0.6
89.83	0.3	394.6	0.6
89.83	0.5	401.2	0.6
89.83	0.7002	410.7	0.7
89.83	0.8998	430.6	0.7
99.83	0.1001	392.6	0.6
99.83	0.3	397.7	0.6
99.83	0.5	404.4	0.7
99.83	0.7002	414.2	0.8
99.83	0.8998	434.6	0.7
