Measured thermophysical data. Densities and Viscosities of Three Binary Monoglyme + 1-Alcohol Systems from (283.15 to 313.15) K
Source: J. Chem. Eng. Data, 2013, 10.1021/je301095j
Compound 1: 1,2-dimethoxyethane, C4H10O2, InChI=1S/C4H10O2/c1-5-3-4-6-2/h3-4H2,1-2H3, purity 99.5%
Compound 2: ethanol, C2H6O, InChI=1S/C2H6O/c1-2-3/h3H,2H2,1H3, purity 99.8%
Compound 3: pentan-1-ol, C5H12O, InChI=1S/C5H12O/c1-2-3-4-5-6/h6H,2-5H2,1H3, purity 99.6%
Compound 4: octan-1-ol, C8H18O, InChI=1S/C8H18O/c1-2-3-4-5-6-7-8-9/h9H,2-8H2,1H3, purity 99.7%

System: 1,2-dimethoxyethane; phases: Liquid
Fixed: Pressure, kPa = 101.325
Property: Mass density, kg/m3 (Liquid); method: Vibrating tube method
Temperature, K	Mass density, kg/m3	uncertainty
283.15	877.72	0.12
293.15	866.71	0.12
298.15	861.2	0.12
303.15	855.7	0.13
313.15	844.69	0.13

System: 1,2-dimethoxyethane; phases: Liquid
Fixed: Pressure, kPa = 101.325
Property: Viscosity, Pa*s (Liquid); method: Capillary tube (Ostwald; Ubbelohde) method
Temperature, K	Viscosity, Pa*s	uncertainty
283.15	0.000493	4e-06
293.15	0.000438	3e-06
298.15	0.000414	3e-06
303.15	0.000392	3e-06
313.15	0.000353	3e-06

System: ethanol; phases: Liquid
Fixed: Pressure, kPa = 101.325
Property: Mass density, kg/m3 (Liquid); method: Vibrating tube method
Temperature, K	Mass density, kg/m3	uncertainty
283.15	797.97	0.12
293.15	789.43	0.12
298.15	785.16	0.12
303.15	780.88	0.12
313.15	772.34	0.13

System: ethanol; phases: Liquid
Fixed: Pressure, kPa = 101.325
Property: Viscosity, Pa*s (Liquid); method: Capillary tube (Ostwald; Ubbelohde) method
Temperature, K	Viscosity, Pa*s	uncertainty
283.15	0.001459	9e-06
293.15	0.001209	7e-06
298.15	0.001098	7e-06
303.15	0.000998	6e-06
313.15	0.000831	5e-06

System: pentan-1-ol; phases: Liquid
Fixed: Pressure, kPa = 101.325
Property: Mass density, kg/m3 (Liquid); method: Vibrating tube method
Temperature, K	Mass density, kg/m3	uncertainty
283.15	821.95	0.24
293.15	814.6	0.24
298.15	810.93	0.24
303.15	807.25	0.24
313.15	799.9	0.24

System: pentan-1-ol; phases: Liquid
Fixed: Pressure, kPa = 101.325
Property: Viscosity, Pa*s (Liquid); method: Capillary tube (Ostwald; Ubbelohde) method
Temperature, K	Viscosity, Pa*s	uncertainty
283.15	0.005463	4e-05
293.15	0.004037	3e-05
298.15	0.00349	2.6e-05
303.15	0.003032	2.3e-05
313.15	0.002319	1.8e-05

System: octan-1-ol; phases: Liquid
Fixed: Pressure, kPa = 101.325
Property: Mass density, kg/m3 (Liquid); method: Vibrating tube method
Temperature, K	Mass density, kg/m3	uncertainty
283.15	832.11	0.13
293.15	825.13	0.13
298.15	821.63	0.14
303.15	818.14	0.14
313.15	811.15	0.14

System: octan-1-ol; phases: Liquid
Fixed: Pressure, kPa = 101.325
Property: Viscosity, Pa*s (Liquid); method: Capillary tube (Ostwald; Ubbelohde) method
Temperature, K	Viscosity, Pa*s	uncertainty
283.15	0.01352	7e-05
293.15	0.009167	5e-05
298.15	0.007618	4.2e-05
303.15	0.006395	3.6e-05
313.15	0.004628	2.8e-05

System: ethanol + 1,2-dimethoxyethane; phases: Liquid
Fixed: Pressure, kPa = 101
Property: Mass density, kg/m3 (Liquid); method: Vibrating tube method
Temperature, K	Mole fraction of 1,2-dimethoxyethane	Mass density, kg/m3	uncertainty
283.15	0.05379	805.91	0.11
283.15	0.09719	811.83	0.11
283.15	0.2113	825.56	0.11
283.15	0.29676	834.32	0.11
283.15	0.40555	843.94	0.11
283.15	0.48647	850.18	0.11
283.15	0.59711	857.71	0.11
283.15	0.69485	863.49	0.11
283.15	0.82571	870.24	0.11
283.15	0.87486	872.52	0.12
283.15	0.9456	875.57	0.12
293.15	0.05746	797.66	0.12
293.15	0.09986	803.22	0.12
293.15	0.14531	808.77	0.12
293.15	0.21381	816.42	0.12
293.15	0.29467	824.42	0.12
293.15	0.39904	833.43	0.12
293.15	0.48772	840.1	0.12
293.15	0.59651	847.24	0.12
293.15	0.6885	852.56	0.12
293.15	0.82494	859.38	0.12
293.15	0.87722	861.72	0.12
293.15	0.95418	864.93	0.12
303.15	0.04309	786.92	0.12
303.15	0.10384	794.71	0.12
303.15	0.20816	806.41	0.12
303.15	0.29553	814.8	0.12
303.15	0.39262	822.94	0.12
303.15	0.49699	830.54	0.12
303.15	0.5918	836.55	0.12
303.15	0.69908	842.5	0.12
303.15	0.81029	847.89	0.12
303.15	0.88763	851.26	0.12
303.15	0.91994	852.57	0.12
313.15	0.04639	778.57	0.12
313.15	0.10489	785.84	0.12
313.15	0.21098	797.27	0.12
313.15	0.29771	805.28	0.12
313.15	0.37867	811.92	0.12
313.15	0.49586	820.25	0.12
313.15	0.65115	829.41	0.12
313.15	0.69794	831.83	0.12
313.15	0.81679	837.35	0.12
313.15	0.88031	840.03	0.13
313.15	0.93844	842.37	0.13

System: ethanol + 1,2-dimethoxyethane; phases: Liquid
Fixed: Pressure, kPa = 101
Property: Kinematic viscosity, m2/s (Liquid); method: Capillary tube (Ostwald; Ubbelohde) method
Temperature, K	Mole fraction of 1,2-dimethoxyethane	Kinematic viscosity, m2/s	uncertainty
283.15	0.05379	1.552e-06	1.5e-08
283.15	0.09719	1.381e-06	1.3e-08
283.15	0.2113	1.076e-06	1.1e-08
283.15	0.29676	9.35e-07	9e-09
283.15	0.40555	8.09e-07	8e-09
283.15	0.48647	7.45e-07	8e-09
283.15	0.59711	6.82e-07	7e-09
283.15	0.69485	6.38e-07	7e-09
283.15	0.82571	5.98e-07	6e-09
283.15	0.87486	5.83e-07	6e-09
283.15	0.9456	5.71e-07	6e-09
293.15	0.05746	1.304e-06	1.3e-08
293.15	0.09986	1.174e-06	1.2e-08
293.15	0.14531	1.067e-06	1.1e-08
293.15	0.21381	9.37e-07	9e-09
293.15	0.29467	8.24e-07	8e-09
293.15	0.39904	7.25e-07	7e-09
293.15	0.48772	6.64e-07	7e-09
293.15	0.59651	6.09e-07	6e-09
293.15	0.6885	5.75e-07	6e-09
293.15	0.82494	5.39e-07	6e-09
293.15	0.87722	5.26e-07	6e-09
293.15	0.95418	5.13e-07	5e-09
303.15	0.04309	1.14e-06	1.1e-08
303.15	0.10384	9.89e-07	1e-08
303.15	0.20816	8.13e-07	8e-09
303.15	0.29553	7.17e-07	7e-09
303.15	0.39262	6.39e-07	7e-09
303.15	0.49699	5.82e-07	6e-09
303.15	0.5918	5.43e-07	6e-09
303.15	0.69908	5.1e-07	5e-09
303.15	0.81029	4.86e-07	5e-09
303.15	0.88763	4.73e-07	5e-09
303.15	0.91994	4.68e-07	5e-09
313.15	0.04639	9.59e-07	9e-09
313.15	0.10489	8.49e-07	8e-09
313.15	0.21098	7.05e-07	7e-09
313.15	0.29771	6.27e-07	6e-09
313.15	0.37867	5.75e-07	6e-09
313.15	0.49586	5.21e-07	5e-09
313.15	0.65115	4.7e-07	5e-09
313.15	0.69794	4.62e-07	5e-09
313.15	0.81679	4.39e-07	5e-09
313.15	0.88031	4.32e-07	5e-09
313.15	0.93844	4.23e-07	5e-09

System: pentan-1-ol + 1,2-dimethoxyethane; phases: Liquid
Fixed: Pressure, kPa = 101
Property: Mass density, kg/m3 (Liquid); method: Vibrating tube method
Temperature, K	Mole fraction of 1,2-dimethoxyethane	Mass density, kg/m3	uncertainty
283.15	0.04484	824.28	0.23
283.15	0.07064	825.63	0.23
283.15	0.10214	827.27	0.22
283.15	0.21037	833.01	0.21
283.15	0.30766	838.24	0.19
283.15	0.40777	843.7	0.18
283.15	0.49019	848.25	0.17
283.15	0.5751	853	0.16
283.15	0.71198	860.78	0.15
283.15	0.79784	865.75	0.14
283.15	0.81371	866.69	0.14
283.15	0.89569	871.5	0.13
283.15	0.93466	873.81	0.12
283.15	0.94725	874.57	0.12
293.15	0.04837	816.95	0.23
293.15	0.07064	818.04	0.23
293.15	0.09244	819.11	0.22
293.15	0.19617	824.24	0.21
293.15	0.2048	824.66	0.21
293.15	0.30775	829.83	0.2
293.15	0.40797	834.94	0.18
293.15	0.49705	839.55	0.17
293.15	0.59505	844.67	0.16
293.15	0.69845	850.18	0.15
293.15	0.70879	850.73	0.15
293.15	0.7978	855.54	0.14
293.15	0.81371	856.41	0.14
293.15	0.89597	860.92	0.13
293.15	0.90714	861.54	0.13
293.15	0.95406	864.14	0.13
303.15	0.04441	809.26	0.23
303.15	0.11177	812.32	0.22
303.15	0.19473	816.15	0.21
303.15	0.30883	821.48	0.2
303.15	0.40557	826.06	0.19
303.15	0.49484	830.35	0.18
303.15	0.6215	836.52	0.16
303.15	0.70756	840.79	0.15
303.15	0.80378	845.62	0.14
303.15	0.85189	848.06	0.14
303.15	0.89982	850.52	0.13
303.15	0.95239	853.23	0.13
313.15	0.06014	802.42	0.23
313.15	0.0969	803.97	0.22
313.15	0.11593	804.76	0.22
313.15	0.22207	809.31	0.21
313.15	0.32489	813.76	0.2
313.15	0.40494	817.27	0.19
313.15	0.49549	821.28	0.18
313.15	0.59897	825.94	0.17
313.15	0.70006	830.56	0.16
313.15	0.80103	835.25	0.15
313.15	0.90306	840.05	0.14
313.15	0.9604	842.78	0.13

System: pentan-1-ol + 1,2-dimethoxyethane; phases: Liquid
Fixed: Pressure, kPa = 101
Property: Kinematic viscosity, m2/s (Liquid); method: Capillary tube (Ostwald; Ubbelohde) method
Temperature, K	Mole fraction of 1,2-dimethoxyethane	Kinematic viscosity, m2/s	uncertainty
283.15	0.04484	5.31e-06	5.6e-08
283.15	0.10214	4.087e-06	4.3e-08
283.15	0.21037	2.728e-06	2.9e-08
283.15	0.30766	2.011e-06	2.1e-08
283.15	0.40777	1.54e-06	1.6e-08
283.15	0.49019	1.269e-06	1.3e-08
283.15	0.71198	8.27e-07	9e-09
283.15	0.79784	7.25e-07	8e-09
283.15	0.89569	6.35e-07	7e-09
283.15	0.94725	5.96e-07	6e-09
293.15	0.04837	3.975e-06	4.2e-08
293.15	0.09244	3.319e-06	3.5e-08
293.15	0.2048	2.235e-06	2.4e-08
293.15	0.30775	1.652e-06	1.7e-08
293.15	0.40797	1.284e-06	1.4e-08
293.15	0.49705	1.053e-06	1.1e-08
293.15	0.59505	8.65e-07	9e-09
293.15	0.69845	7.25e-07	8e-09
293.15	0.7978	6.17e-07	6e-09
293.15	0.89597	5.4e-07	6e-09
293.15	0.95406	5.01e-07	5e-09
303.15	0.04441	3.138e-06	3.4e-08
303.15	0.11177	2.451e-06	2.6e-08
303.15	0.19473	1.888e-06	2e-08
303.15	0.30883	1.391e-06	1.5e-08
303.15	0.40557	1.112e-06	1.2e-08
303.15	0.49484	9.29e-07	1e-08
303.15	0.70756	6.5e-07	7e-09
303.15	0.80378	5.69e-07	6e-09
303.15	0.89982	5.08e-07	5e-09
303.15	0.95239	4.8e-07	5e-09
313.15	0.06014	2.339e-06	2.5e-08
313.15	0.0969	2.077e-06	2.2e-08
313.15	0.32489	1.134e-06	1.2e-08
313.15	0.40494	9.58e-07	1e-08
313.15	0.49549	8.09e-07	9e-09
313.15	0.59897	6.82e-07	7e-09
313.15	0.70006	5.86e-07	6e-09
313.15	0.80103	5.16e-07	6e-09
313.15	0.90306	4.59e-07	5e-09
313.15	0.9604	4.34e-07	5e-09

System: 1,2-dimethoxyethane + octan-1-ol; phases: Liquid
Fixed: Pressure, kPa = 101
Property: Mass density, kg/m3 (Liquid); method: Vibrating tube method
Temperature, K	Mole fraction of 1,2-dimethoxyethane	Mass density, kg/m3	uncertainty
283.15	0.06697	833.91	0.13
283.15	0.12235	835.41	0.13
283.15	0.21714	838.23	0.13
283.15	0.31076	841.31	0.13
283.15	0.40358	844.65	0.13
283.15	0.50462	848.72	0.13
283.15	0.59301	852.66	0.13
283.15	0.69487	857.74	0.13
283.15	0.79072	863.1	0.12
283.15	0.89835	870.05	0.12
283.15	0.9329	872.53	0.12
293.15	0.06547	826.71	0.13
293.15	0.1085	827.8	0.13
293.15	0.20803	830.48	0.13
293.15	0.30978	833.51	0.13
293.15	0.40691	836.71	0.13
293.15	0.50355	840.25	0.13
293.15	0.59811	844.1	0.13
293.15	0.69051	848.29	0.13
293.15	0.79632	853.72	0.13
293.15	0.89602	859.6	0.12
293.15	0.9434	862.69	0.12
303.15	0.05281	819.29	0.14
303.15	0.20285	822.86	0.13
303.15	0.21973	823.3	0.13
303.15	0.29904	825.44	0.13
303.15	0.38261	827.89	0.13
303.15	0.49838	831.64	0.13
303.15	0.61072	835.78	0.13
303.15	0.6969	839.34	0.13
303.15	0.80376	844.34	0.13
303.15	0.89196	849.04	0.13
303.15	0.93498	851.56	0.13
313.15	0.05472	812.24	0.14
313.15	0.10712	813.31	0.14
313.15	0.21453	815.67	0.14
313.15	0.28815	817.43	0.14
313.15	0.4028	820.44	0.14
313.15	0.50277	823.38	0.14
313.15	0.5955	826.4	0.13
313.15	0.68975	829.8	0.13
313.15	0.78978	833.92	0.13
313.15	0.89454	838.85	0.13
313.15	0.9681	842.83	0.13

System: 1,2-dimethoxyethane + octan-1-ol; phases: Liquid
Fixed: Pressure, kPa = 101
Property: Kinematic viscosity, m2/s (Liquid); method: Capillary tube (Ostwald; Ubbelohde) method
Temperature, K	Mole fraction of 1,2-dimethoxyethane	Kinematic viscosity, m2/s	uncertainty
283.15	0.06697	1.152e-05	1.08e-07
283.15	0.12235	8.912e-06	8.4e-08
283.15	0.21714	5.951e-06	5.8e-08
283.15	0.31076	4.177e-06	4.1e-08
283.15	0.40358	3.014e-06	3e-08
283.15	0.50462	2.162e-06	2.2e-08
283.15	0.59301	1.647e-06	1.7e-08
283.15	0.69487	1.225e-06	1.2e-08
283.15	0.79072	9.43e-07	1e-08
283.15	0.89835	7.18e-07	7e-09
283.15	0.9329	6.62e-07	7e-09
293.15	0.06547	8.238e-06	7.8e-08
293.15	0.1085	6.898e-06	6.6e-08
293.15	0.20803	4.672e-06	4.6e-08
293.15	0.30978	3.277e-06	3.2e-08
293.15	0.40691	2.394e-06	2.4e-08
293.15	0.50355	1.788e-06	1.8e-08
293.15	0.59811	1.366e-06	1.4e-08
293.15	0.69051	1.066e-06	1.1e-08
293.15	0.79632	8.12e-07	8e-09
293.15	0.89602	6.42e-07	7e-09
293.15	0.9434	5.8e-07	6e-09
303.15	0.05281	6.333e-06	6.1e-08
303.15	0.20285	3.707e-06	3.6e-08
303.15	0.21973	3.499e-06	3.4e-08
303.15	0.29904	2.72e-06	2.7e-08
303.15	0.38261	2.122e-06	2.1e-08
303.15	0.49838	1.531e-06	1.5e-08
303.15	0.61072	1.14e-06	1.2e-08
303.15	0.6969	9.2e-07	9e-09
303.15	0.80376	7.15e-07	7e-09
303.15	0.89196	5.86e-07	6e-09
303.15	0.93498	5.35e-07	6e-09
313.15	0.05472	4.688e-06	4.6e-08
313.15	0.10712	3.922e-06	3.8e-08
313.15	0.21453	2.798e-06	2.8e-08
313.15	0.28815	2.251e-06	2.2e-08
313.15	0.4028	1.643e-06	1.6e-08
313.15	0.50277	1.272e-06	1.3e-08
313.15	0.5955	1.008e-06	1e-08
313.15	0.68975	8.07e-07	8e-09
313.15	0.78978	6.45e-07	7e-09
313.15	0.89454	5.16e-07	5e-09
313.15	0.9681	4.44e-07	5e-09
