Measured thermophysical data. Electrical Conductivity of Aqueous Ethanol Solutions Containing Ammonium Salts under High Pressure at 298 K
Source: J. Chem. Eng. Data, 2013, 10.1021/je3008233
Compound 1: ammonium chloride (NH4Cl), ClH4N, InChI=1S/ClH.H3N/h1H;1H3, purity 99%
Compound 2: ammonium nitrate, H4N2O3, InChI=1S/NO3.H3N/c2-1(3)4;/h;1H3/q-1;/p+1, purity 99%
Compound 3: ethanol, C2H6O, InChI=1S/C2H6O/c1-2-3/h3H,2H2,1H3, purity 99%
Compound 4: water, H2O, InChI=1S/H2O/h1H2, purity 99.9%

System: water + ammonium chloride (NH4Cl); phases: Liquid
Fixed: Temperature, K = 298
Property: Electrical conductivity, S/m (Liquid); method: High-pressure cell
Pressure, kPa	Molality, mol/kg of ammonium chloride (NH4Cl)	Electrical conductivity, S/m	uncertainty
100	0.5	11.47	0.1
100	1	10.91	0.1
100	1.5	10.66	0.1
100000	0.5	11.72	0.1
100000	1	11.16	0.1
100000	1.5	10.62	0.1
200000	0.5	11.81	0.1
200000	1	11.18	0.1
200000	1.5	10.56	0.1
300000	0.5	11.71	0.1
300000	1	10.71	0.1
300000	1.5	10.51	0.1
400000	0.5	11.68	0.1
400000	1	10.98	0.1
400000	1.5	10.31	0.1

System: ammonium nitrate + water; phases: Liquid
Fixed: Temperature, K = 298
Property: Electrical conductivity, S/m (Liquid); method: High Pressure cell
Pressure, kPa	Molality, mol/kg of ammonium nitrate	Electrical conductivity, S/m	uncertainty
100	0.5	11.35	0.1
100	1	10.65	0.1
100	1.5	10.25	0.1
100000	0.5	11.44	0.1
100000	1	10.67	0.1
100000	1.5	10.51	0.1
200000	0.5	11.41	0.1
200000	1	10.55	0.1
200000	1.5	10.6	0.1
300000	0.5	11.31	0.1
300000	1	10.45	0.1
300000	1.5	10.53	0.1
400000	0.5	11.16	0.1
400000	1	10.33	0.1
400000	1.5	10.43	0.1

System: ethanol + water + ammonium chloride (NH4Cl); phases: Liquid
Fixed: Temperature, K = 298
Property: Electrical conductivity, S/m (Liquid); method: High-pressure cell
Pressure, kPa	Solvent: Mole fraction of ethanol	Molality, mol/kg of ammonium chloride (NH4Cl)	Electrical conductivity, S/m	uncertainty
100	0	0.5	11.47	0.1
100	0	1	10.91	0.1
100	0	1.5	10.66	0.1
100	0.11	0.701	9.63	0.19
100	0.11	1.402	8.93	0.18
100	0.11	2.104	8.49	0.37
100	0.28	0.46	8.65	0.19
100	0.28	0.92	8.02	0.21
100	0.28	1.38	7.72	0.18
100	0.48	0.23	8.23	0.13
100	0.48	0.459	7.65	0.14
100	0.48	0.689	7.25	0.14
100	0.48	0.918	6.55	0.18
100	0.78	0.049	7.9	0.18
100	0.78	0.097	7.42	0.14
100	0.78	0.146	7.32	0.13
100	0.78	0.194	7.08	0.13
100000	0	0.5	11.72	0.1
100000	0	1	11.16	0.1
100000	0	1.5	10.62	0.1
100000	0.11	0.701	9.56	0.2
100000	0.11	1.402	8.91	0.19
100000	0.11	2.104	8.4	0.35
100000	0.28	0.46	8.59	0.21
100000	0.28	0.92	7.86	0.23
100000	0.28	1.38	7.6	0.19
100000	0.48	0.23	7.99	0.13
100000	0.48	0.459	7.47	0.15
100000	0.48	0.689	7.06	0.15
100000	0.48	0.918	6.44	0.17
100000	0.78	0.049	7.55	0.16
100000	0.78	0.097	7.17	0.14
100000	0.78	0.146	7.09	0.13
100000	0.78	0.194	6.87	0.13
200000	0	0.5	11.81	0.1
200000	0	1	11.18	0.1
200000	0	1.5	10.56	0.1
200000	0.11	0.701	9.56	0.21
200000	0.11	1.402	8.86	0.21
200000	0.11	2.104	8.36	0.36
200000	0.28	0.46	8.47	0.22
200000	0.28	0.92	7.73	0.23
200000	0.28	1.38	7.33	0.2
200000	0.48	0.23	7.76	0.13
200000	0.48	0.459	7.25	0.16
200000	0.48	0.689	6.89	0.15
200000	0.48	0.918	6.31	0.17
200000	0.78	0.049	7.22	0.19
200000	0.78	0.097	6.75	0.14
200000	0.78	0.146	6.75	0.12
200000	0.78	0.194	6.64	0.13
300000	0	0.5	11.71	0.1
300000	0	1	10.71	0.1
300000	0	1.5	10.51	0.1
300000	0.11	0.701	9.5	0.22
300000	0.11	1.402	8.8	0.22
300000	0.11	2.104	8.34	0.36
300000	0.28	0.46	8.32	0.23
300000	0.28	0.92	7.64	0.22
300000	0.28	1.38	7.19	0.21
300000	0.48	0.23	7.51	0.13
300000	0.48	0.459	7.03	0.16
300000	0.48	0.689	6.7	0.16
300000	0.48	0.918	6.18	0.18
300000	0.78	0.049	6.99	0.15
300000	0.78	0.097	6.66	0.13
300000	0.78	0.146	6.61	0.13
300000	0.78	0.194	6.42	0.13
400000	0	0.5	11.68	0.1
400000	0	1	10.98	0.1
400000	0	1.5	10.31	0.1
400000	0.11	0.701	9.35	0.21
400000	0.11	1.402	8.75	0.22
400000	0.11	2.104	8.27	0.35
400000	0.28	0.46	8.19	0.23
400000	0.28	0.92	7.56	0.23
400000	0.28	1.38	7.11	0.22
400000	0.48	0.23	7.22	0.12
400000	0.48	0.459	6.81	0.17
400000	0.48	0.689	6.5	0.17
400000	0.48	0.918	6.09	0.18
400000	0.78	0.049	6.74	0.15
400000	0.78	0.097	6.42	0.13
400000	0.78	0.146	6.39	0.12
400000	0.78	0.194	6.22	0.13

System: ethanol + ammonium nitrate + water; phases: Liquid
Fixed: Temperature, K = 298
Property: Electrical conductivity, S/m (Liquid); method: High Pressure cell
Solvent: Mole fraction of ethanol	Pressure, kPa	Molality, mol/kg of ammonium nitrate	Electrical conductivity, S/m	uncertainty
0	100	0.5	11.35	0.1
0	100	1	10.65	0.1
0	100	1.5	10.25	0.1
0	100000	0.5	11.44	0.1
0	100000	1	10.67	0.1
0	100000	1.5	10.51	0.1
0	200000	0.5	11.41	0.1
0	200000	1	10.55	0.1
0	200000	1.5	10.6	0.1
0	300000	0.5	11.31	0.1
0	300000	1	10.45	0.1
0	300000	1.5	10.53	0.1
0	400000	0.5	11.16	0.1
0	400000	1	10.33	0.1
0	400000	1.5	10.43	0.1
0.11	100	1.429	9.23	0.17
0.11	100	2.858	8.74	0.18
0.11	100	4.287	8.37	0.19
0.11	100000	1.429	9.14	0.18
0.11	100000	2.858	8.65	0.19
0.11	100000	4.287	8.26	0.19
0.11	200000	1.429	9.01	0.19
0.11	200000	2.858	8.54	0.19
0.11	200000	4.287	8.14	0.2
0.11	300000	1.429	8.89	0.19
0.11	300000	2.858	8.42	0.19
0.11	300000	4.287	8.02	0.21
0.11	400000	1.429	8.7	0.19
0.11	400000	2.858	8.28	0.19
0.11	400000	4.287	7.89	0.21
0.28	100	1.137	8.24	0.13
0.28	100	2.275	7.75	0.19
0.28	100	3.412	7.26	0.18
0.28	100000	1.137	8.13	0.13
0.28	100000	2.275	7.66	0.2
0.28	100000	3.412	7.1	0.18
0.28	200000	1.137	7.9	0.13
0.28	200000	2.275	7.48	0.2
0.28	200000	3.412	6.91	0.19
0.28	300000	1.137	7.75	0.14
0.28	300000	2.275	7.27	0.19
0.28	300000	3.412	6.74	0.19
0.28	400000	1.137	7.54	0.14
0.28	400000	2.275	7.12	0.18
0.28	400000	3.412	6.6	0.2
0.48	100	0.837	7.74	0.13
0.48	100	1.675	6.67	0.15
0.48	100	2.512	6.02	0.18
0.48	100000	0.837	7.51	0.13
0.48	100000	1.675	6.5	0.16
0.48	100000	2.512	5.73	0.19
0.48	200000	0.837	7.26	0.13
0.48	200000	1.675	6.29	0.16
0.48	200000	2.512	5.65	0.19
0.48	300000	0.837	7.02	0.13
0.48	300000	1.675	6.15	0.17
0.48	300000	2.512	5.53	0.19
0.48	400000	0.837	6.87	0.13
0.48	400000	1.675	6.06	0.16
0.48	400000	2.512	5.44	0.18
0.78	100	0.235	7.01	0.12
0.78	100	0.47	6.9	0.13
0.78	100	0.705	6.6	0.13
0.78	100	0.939	6.38	0.13
0.78	100000	0.235	6.78	0.13
0.78	100000	0.47	6.61	0.13
0.78	100000	0.705	6.42	0.13
0.78	100000	0.939	6.21	0.13
0.78	200000	0.235	6.51	0.12
0.78	200000	0.47	6.38	0.12
0.78	200000	0.705	6.22	0.13
0.78	200000	0.939	5.99	0.13
0.78	300000	0.235	6.26	0.12
0.78	300000	0.47	6.17	0.12
0.78	300000	0.705	6.01	0.12
0.78	300000	0.939	5.82	0.12
0.78	400000	0.235	6.03	0.12
0.78	400000	0.47	5.97	0.12
0.78	400000	0.705	5.84	0.13
0.78	400000	0.939	5.65	0.13
