Measured thermophysical data. Solid Liquid Equilibria of 1-Ethyl-3-methylimidazolium Hexafluorophosphate + Polyols
Source: J. Chem. Eng. Data, 2013, 10.1021/je301265w
Compound 1: 1-ethyl-3-methylimidazolium hexafluorophosphate, C6H11F6N2P, InChI=1S/C6H11N2.F6P/c1-3-8-5-4-7(2)6-8;1-7(2,3,4,5)6/h4-6H,3H2,1-2H3;/q+1;-1, purity 99%
Compound 2: 1,2-ethanediol, C2H6O2, InChI=1S/C2H6O2/c3-1-2-4/h3-4H,1-2H2, purity 99.7%
Compound 3: 1,2-propanediol, C3H8O2, InChI=1S/C3H8O2/c1-3(5)2-4/h3-5H,2H2,1H3, purity 99.7%
Compound 4: glycerol, C3H8O3, InChI=1S/C3H8O3/c4-1-3(6)2-5/h3-6H,1-2H2, purity 99.7%
Compound 5: water, H2O, InChI=1S/H2O/h1H2
Compound 6: sodium bicarbonate, CHNaO3, InChI=1S/CH2O3.Na/c2-1(3)4;/h(H2,2,3,4);/q;+1/p-1

System: sodium bicarbonate + water; phases: Liquid, Crystal
Fixed: Pressure, kPa = 101
Property: Solid-liquid equilibrium temperature, K (Liquid); method: VISOBS
Mole fraction of sodium bicarbonate	Solid-liquid equilibrium temperature, K	uncertainty
0.0225	300.2	1
0.0236	303.7	1
0.0251	308.7	1
0.0259	310.4	1
0.0274	315.6	1

System: 1,2-ethanediol + 1-ethyl-3-methylimidazolium hexafluorophosphate; phases: Liquid, Crystal
Fixed: Pressure, kPa = 101
Property: Solid-liquid equilibrium temperature, K (Liquid); method: VISOBS
Mole fraction of 1,2-ethanediol	Solid-liquid equilibrium temperature, K	uncertainty
0.0097053	300.3	0.3
0.0109471	302.8	0.3
0.0118621	304.5	0.3
0.0145034	308.8	0.3
0.0167337	311.5	0.3
0.0186572	313.7	0.3
0.0232164	317.5	0.3
0.0298872	321.5	0.3
0.0389354	324.2	0.3
0.0572863	325	0.3

System: 1,2-propanediol + 1-ethyl-3-methylimidazolium hexafluorophosphate; phases: Liquid, Crystal
Fixed: Pressure, kPa = 101
Property: Solid-liquid equilibrium temperature, K (Liquid); method: VISOBS
Mole fraction of 1,2-propanediol	Solid-liquid equilibrium temperature, K	uncertainty
0.0020843	306.7	0.3
0.003041	308.6	0.3
0.0038975	310.4	0.3
0.0049707	312.5	0.3
0.0060033	314.5	0.3
0.0077436	316.6	0.3
0.0088101	317.2	0.3
0.0105873	318.5	0.3
0.0134774	319.7	0.3
0.0155973	321.3	0.3
0.0203706	323.4	0.3
0.0292406	325.3	0.3

System: glycerol + 1-ethyl-3-methylimidazolium hexafluorophosphate; phases: Liquid, Crystal
Fixed: Pressure, kPa = 101
Property: Solid-liquid equilibrium temperature, K (Liquid); method: VISOBS
Mole fraction of glycerol	Solid-liquid equilibrium temperature, K	uncertainty
0.0003694	307.5	0.4
0.0005311	314.8	0.3
0.0006299	317.3	0.3
0.0007185	319.4	0.3
0.0008518	322.4	0.3
0.0010729	325.9	0.3
0.0011999	327.4	0.3
0.0012387	327.8	0.3
0.0014063	329.4	0.3
0.0014685	329.7	0.3
0.0016234	330	0.3
0.001733	330.8	0.3

System: 1,2-propanediol + 1,2-ethanediol + 1-ethyl-3-methylimidazolium hexafluorophosphate; phases: Liquid, Crystal
Fixed: Pressure, kPa = 101
Property: Solid-liquid equilibrium temperature, K (Liquid); method: VISOBS
Mole fraction of 1-ethyl-3-methylimidazolium hexafluorophosphate	Mole fraction of 1,2-ethanediol	Solid-liquid equilibrium temperature, K	uncertainty
0.078023	0.496	302.9	0.3
0.094089	0.4952	305.4	0.3
0.146352	0.4928	312.1	0.3
0.190958	0.4904	315.9	0.3
0.266234	0.4867	320.1	0.3
0.350635	0.4825	322.4	0.3
0.415127	0.4793	324.3	0.3

System: glycerol + 1,2-ethanediol + 1-ethyl-3-methylimidazolium hexafluorophosphate; phases: Liquid, Crystal
Fixed: Pressure, kPa = 101
Property: Solid-liquid equilibrium temperature, K (Liquid); method: VISOBS
Mole fraction of 1-ethyl-3-methylimidazolium hexafluorophosphate	Mole fraction of 1,2-ethanediol	Solid-liquid equilibrium temperature, K	uncertainty
0.0058229	0.4969	312.8	0.3
0.0068024	0.4965	314.4	0.3
0.0077699	0.496	316.3	0.3
0.0087118	0.4954	318.7	0.3
0.009668	0.4951	321	0.3
0.0106291	0.4947	323.6	0.4
0.0125327	0.4937	325.8	0.3
0.0144339	0.4928	327.5	0.3
0.017262	0.4914	328.7	0.3

System: glycerol + 1,2-propanediol + 1-ethyl-3-methylimidazolium hexafluorophosphate; phases: Liquid, Crystal
Fixed: Pressure, kPa = 101
Property: Solid-liquid equilibrium temperature, K (Liquid); method: VISOBS
Mole fraction of 1-ethyl-3-methylimidazolium hexafluorophosphate	Mole fraction of 1,2-propanediol	Solid-liquid equilibrium temperature, K	uncertainty
0.0029545	0.4985	302.9	0.3
0.0048733	0.4975	311	0.3
0.0058171	0.4971	314.9	0.3
0.0072713	0.4963	318.9	0.3
0.0082332	0.4959	320.2	0.3
0.0097774	0.4952	323.6	0.3
0.0130176	0.4935	326.4	0.3
0.0154151	0.4925	328	0.3
