Measured thermophysical data. Liquid Liquid Equilibrium for the Water + Diethyl Carbonate + Ethanol System at Different Temperatures
Source: J. Chem. Eng. Data, 2012, 10.1021/je300094j
Compound 1: diethyl carbonate, C5H10O3, InChI=1S/C5H10O3/c1-3-7-5(6)8-4-2/h3-4H2,1-2H3, purity 99%
Compound 2: water, H2O, InChI=1S/H2O/h1H2
Compound 3: ethanol, C2H6O, InChI=1S/C2H6O/c1-2-3/h3H,2H2,1H3, purity 99.7%

System: diethyl carbonate + water; phases: Liquid mixture 2, Liquid mixture 1
Fixed: Pressure, kPa = 101
Property: Mole fraction of water (Liquid mixture 2); method: Chromatography
Temperature, K	Mole fraction of water	uncertainty
318.15	0.2426	0.0486
323.15	0.2578	0.0516
333.15	0.2464	0.0493
296.15	0.2134	0.0427
303.15	0.2241	0.0448

System: diethyl carbonate + water; phases: Liquid mixture 1, Liquid mixture 2
Fixed: Pressure, kPa = 101
Property: Mole fraction of diethyl carbonate (Liquid mixture 1); method: Chromatography
Temperature, K	Mole fraction of diethyl carbonate	uncertainty
318.15	0.0087	0.0017
323.15	0.0083	0.0017
333.15	0.0082	0.0016
296.15	0.0075	0.0015
303.15	0.0096	0.0019

System: ethanol + diethyl carbonate + water; phases: Liquid mixture 1, Liquid mixture 2
Fixed: Pressure, kPa = 101
Property: Mole fraction of diethyl carbonate (Liquid mixture 1); method: Chromatography
Property: Mole fraction of water (Liquid mixture 2); method: Chromatography
Property: Mole fraction of diethyl carbonate (Liquid mixture 2); method: Chromatography
Temperature, K	Mole fraction of water	Mole fraction of diethyl carbonate	uncertainty	Mole fraction of water	uncertainty	Mole fraction of diethyl carbonate	uncertainty
296.15	0.9415	0.0107	0.0021	0.2439	0.0488	0.733	
333.15	0.8492	0.0212	0.0042	0.4804	0.0961	0.2732	
333.15	0.8163	0.0264	0.0053	0.5753	0.1151	0.1777	
318.15	0.9089	0.0129	0.0026	0.3137	0.0628	0.5537	
333.15	0.9607	0.0093	0.0019	0.2833	0.0567	0.672	
333.15	0.9918	0.0082	0.0016	0.2464	0.0493	0.7536	
333.15	0.9217	0.0121	0.0024	0.338	0.0676	0.521	
303.15	0.9003	0.0121	0.0024	0.2879	0.0576	0.5946	
338.15	0.9	0.0151	0.003	0.4046	0.081	0.4035	
338.15	0.8088	0.0358	0.0072	0.5967	0.1194	0.1676	
338.15	0.8685	0.0183	0.0037	0.4624	0.0925	0.3076	
323.15	0.9133	0.0133	0.0027	0.3218	0.0644	0.5409	
338.15	0.96	0.0105	0.0021	0.2968	0.0594	0.6573	
296.15	0.7912	0.0276	0.0055	0.4488	0.0898	0.271	
338.15	0.9254	0.0121	0.0024	0.3468	0.0694	0.5201	
318.15	0.8883	0.0146	0.0029	0.3718	0.0744	0.4345	
296.15	0.9925	0.0075	0.0015	0.2134	0.0427	0.7866	
296.15	0.8976	0.0111	0.0022	0.2697	0.054	0.6243	
296.15	0.8688	0.0117	0.0023	0.309	0.0618	0.5221	
303.15	0.8507	0.0162	0.0032	0.3632	0.0727	0.4161	
303.15	0.7983	0.0283	0.0057	0.4686	0.0938	0.2603	
303.15	0.8292	0.0197	0.0039	0.4049	0.081	0.3448	
323.15	0.884	0.0142	0.0028	0.3743	0.0749	0.427	
303.15	0.9904	0.0096	0.0019	0.2241	0.0448	0.7759	
303.15	0.8724	0.0141	0.0028	0.3244	0.0649	0.4958	
318.15	0.8383	0.0205	0.0041	0.4549	0.091	0.2951	
318.15	0.8582	0.0174	0.0035	0.4181	0.0837	0.3513	
296.15	0.8426	0.0161	0.0032	0.3442	0.0689	0.4363	
318.15	0.9511	0.0103	0.0021	0.2771	0.0555	0.6814	
318.15	0.8014	0.0319	0.0064	0.5296	0.106	0.2114	
318.15	0.9913	0.0087	0.0017	0.2426	0.0486	0.7574	
323.15	0.84	0.0216	0.0043	0.4724	0.0945	0.2786	
323.15	0.8608	0.0175	0.0035	0.4333	0.0867	0.3374	
303.15	0.9461	0.0098	0.002	0.2556	0.0512	0.7161	
323.15	0.9524	0.0098	0.002	0.2818	0.0564	0.6723	
323.15	0.8052	0.0313	0.0063	0.5468	0.1094	0.1981	
323.15	0.9917	0.0083	0.0017	0.2578	0.0516	0.7422	
333.15	0.8689	0.0176	0.0035	0.4332	0.0867	0.3351	
296.15	0.8223	0.0197	0.0039	0.3828	0.0766	0.3652	
333.15	0.8962	0.0147	0.0029	0.377	0.0754	0.4342	
