Measured thermophysical data. Solubility of Clonazepam and Diazepam in Polyethylene Glycol 200, Propylene Glycol, N-Methyl Pyrrolidone, Ethanol, and Water at (298.2 to 318.2) K and in Binary and Ternary Mixtures of Polyethylene Glycol 200, Propylene Glycol, and Water at 298.2 K
Source: J. Chem. Eng. Data, 2013, 10.1021/je3009842
Compound 1: N-methylpyrrolidone, C5H9NO, InChI=1S/C5H9NO/c1-6-4-2-3-5(6)7/h2-4H2,1H3, purity 99.8%
Compound 2: clonazepam, C15H10ClN3O3, InChI=1S/C15H10ClN3O3/c16-12-4-2-1-3-10(12)15-11-7-9(19(21)22)5-6-13(11)18-14(20)8-17-15/h1-7H,8H2,(H,18,20), purity 99.8%
Compound 3: 1,2-propanediol, C3H8O2, InChI=1S/C3H8O2/c1-3(5)2-4/h3-5H,2H2,1H3, purity 99.5%
Compound 4: ethanol, C2H6O, InChI=1S/C2H6O/c1-2-3/h3H,2H2,1H3, purity 99%
Compound 5: water, H2O, InChI=1S/H2O/h1H2, purity 99.9%
Compound 6: 7-chloro-1,3-dihydro-1-methyl-5-phenyl-2H-1,4-benzodiazepin-2-one, C16H13ClN2O, InChI=1S/C16H13ClN2O/c1-19-14-8-7-12(17)9-13(14)16(18-10-15(19)20)11-5-3-2-4-6-11/h2-9H,10H2,1H3, purity 99.8%

System: N-methylpyrrolidone + clonazepam; phases: Liquid, Crystal
Fixed: Pressure, kPa = 101
Property: Mole fraction of clonazepam (Liquid); method: UV-Vis spectrophotometer
Temperature, K	Mole fraction of clonazepam	uncertainty
298.2	0.01321938	0.0007704
303.2	0.01415158	0.0008499
308.2	0.01871486	0.001117
313.2	0.02067468	0.001208
318.2	0.02218022	0.001294

System: 1,2-propanediol + clonazepam; phases: Liquid, Crystal
Fixed: Pressure, kPa = 101
Property: Mole fraction of clonazepam (Liquid); method: UV-Vis spectrophotometer
Temperature, K	Mole fraction of clonazepam	uncertainty
298.2	0.00064059	4.751e-05
303.2	0.00104159	5.967e-05
308.2	0.00108304	5.946e-05
313.2	0.00116354	6.478e-05
318.2	0.0013823	7.763e-05

System: ethanol + clonazepam; phases: Liquid, Crystal
Fixed: Pressure, kPa = 101
Property: Mole fraction of clonazepam (Liquid); method: UV-Vis spectrophotometer
Temperature, K	Mole fraction of clonazepam	uncertainty
298.2	0.00034775	2.006e-05
303.2	0.0004091	2.405e-05
308.2	0.00053334	3.06e-05
313.2	0.00057999	3.278e-05
318.2	0.00065211	3.692e-05

System: clonazepam + water; phases: Liquid, Crystal
Fixed: Pressure, kPa = 101
Property: Mole fraction of clonazepam (Liquid); method: UV-Vis spectrophotometer
Temperature, K	Mole fraction of clonazepam	uncertainty
298.2	1.9e-07	1e-08
303.2	2.4e-07	2e-08
308.2	2.6e-07	2e-08
313.2	2.9e-07	2e-08
318.2	3.2e-07	2e-08

System: N-methylpyrrolidone + 7-chloro-1,3-dihydro-1-methyl-5-phenyl-2H-1,4-benzodiazepin-2-one; phases: Liquid, Crystal
Fixed: Pressure, kPa = 101
Property: Mole fraction of 7-chloro-1,3-dihydro-1-methyl-5-phenyl-2H-1,4-benzodiazepin-2-one (Liquid); method: UV-Vis spectrophotometer
Temperature, K	Mole fraction of 7-chloro-1,3-dihydro-1-methyl-5-phenyl-2H-1,4-benzodiazepin-2-one	uncertainty
298.2	0.0774018	0.005932
303.2	0.1261548	0.007725
308.2	0.13793523	0.008105
313.2	0.15257119	0.008967
318.2	0.16311335	0.009581

System: 1,2-propanediol + 7-chloro-1,3-dihydro-1-methyl-5-phenyl-2H-1,4-benzodiazepin-2-one; phases: Liquid, Crystal
Fixed: Pressure, kPa = 101
Property: Mole fraction of 7-chloro-1,3-dihydro-1-methyl-5-phenyl-2H-1,4-benzodiazepin-2-one (Liquid); method: UV-Vis spectrophotometer
Temperature, K	Mole fraction of 7-chloro-1,3-dihydro-1-methyl-5-phenyl-2H-1,4-benzodiazepin-2-one	uncertainty
298.2	0.00200915	0.0001247
303.2	0.00275033	0.0001833
308.2	0.0046403	0.0002739
313.2	0.00535269	0.0003045
318.2	0.00678724	0.0003879

System: ethanol + 7-chloro-1,3-dihydro-1-methyl-5-phenyl-2H-1,4-benzodiazepin-2-one; phases: Liquid, Crystal
Fixed: Pressure, kPa = 101
Property: Mole fraction of 7-chloro-1,3-dihydro-1-methyl-5-phenyl-2H-1,4-benzodiazepin-2-one (Liquid); method: UV-Vis spectrophotometer
Temperature, K	Mole fraction of 7-chloro-1,3-dihydro-1-methyl-5-phenyl-2H-1,4-benzodiazepin-2-one	uncertainty
298.2	0.00486389	0.0002718
303.2	0.00521375	0.0002911
308.2	0.00553419	0.0003128
313.2	0.0066262	0.0003788
318.2	0.00774169	0.0004395

System: 7-chloro-1,3-dihydro-1-methyl-5-phenyl-2H-1,4-benzodiazepin-2-one + water; phases: Liquid, Crystal
Fixed: Pressure, kPa = 101
Property: Mole fraction of 7-chloro-1,3-dihydro-1-methyl-5-phenyl-2H-1,4-benzodiazepin-2-one (Liquid); method: UV-Vis spectrophotometer
Temperature, K	Mole fraction of 7-chloro-1,3-dihydro-1-methyl-5-phenyl-2H-1,4-benzodiazepin-2-one	uncertainty
298.2	1.26e-06	9e-08
303.2	1.65e-06	1.1e-07
308.2	2.39e-06	1.6e-07
313.2	2.87e-06	2e-07
318.2	4.2e-06	2.9e-07
