Measured thermophysical data. Applications of Correlation Gas Chromatography and Transpiration Studies for the Evaluation of the Vaporization and Sublimation Enthalpies of Some Perfluorinated Hydrocarbons
Source: J. Chem. Eng. Data, 2012, 10.1021/je300504f
Compound 1: perfluorobiphenyl, C12F10, InChI=1S/C12F10/c13-3-1(4(14)8(18)11(21)7(3)17)2-5(15)9(19)12(22)10(20)6(2)16, purity 99%
Compound 2: hexacosafluorododecane, C12F26, InChI=1S/C12F26/c13-1(14,3(17,18)5(21,22)7(25,26)9(29,30)11(33,34)35)2(15,16)4(19,20)6(23,24)8(27,28)10(31,32)12(36,37)38, purity 97%
Compound 3: perfluorotridecane, C13F28, InChI=1S/C13F28/c14-1(15,2(16,17)4(20,21)6(24,25)8(28,29)10(32,33)12(36,37)38)3(18,19)5(22,23)7(26,27)9(30,31)11(34,35)13(39,40)41, purity 98%
Compound 4: triacontafluorotetradecane, C14F30, InChI=1S/C14F30/c15-1(16,3(19,20)5(23,24)7(27,28)9(31,32)11(35,36)13(39,40)41)2(17,18)4(21,22)6(25,26)8(29,30)10(33,34)12(37,38)14(42,43)44, purity 97%
Compound 5: perfluoropentadecane, C15F32, InChI=1S/C15F32/c16-1(17,2(18,19)4(22,23)6(26,27)8(30,31)10(34,35)12(38,39)14(42,43)44)3(20,21)5(24,25)7(28,29)9(32,33)11(36,37)13(40,41)15(45,46)47, purity 95%
Compound 6: tetratriacontafluorohexadecane, C16F34, InChI=1S/C16F34/c17-1(18,3(21,22)5(25,26)7(29,30)9(33,34)11(37,38)13(41,42)15(45,46)47)2(19,20)4(23,24)6(27,28)8(31,32)10(35,36)12(39,40)14(43,44)16(48,49)50, purity 97%
Compound 7: dotetracontafluoroeicosane, C20F42, InChI=1S/C20F42/c21-1(22,3(25,26)5(29,30)7(33,34)9(37,38)11(41,42)13(45,46)15(49,50)17(53,54)19(57,58)59)2(23,24)4(27,28)6(31,32)8(35,36)10(39,40)12(43,44)14(47,48)16(51,52)18(55,56)20(60,61)62, purity 97%
Compound 8: perfluorotetracosane, C24F50, InChI=1S/C24F50/c25-1(26,3(29,30)5(33,34)7(37,38)9(41,42)11(45,46)13(49,50)15(53,54)17(57,58)19(61,62)21(65,66)23(69,70)71)2(27,28)4(31,32)6(35,36)8(39,40)10(43,44)12(47,48)14(51,52)16(55,56)18(59,60)20(63,64)22(67,68)24(72,73)74, purity 99%

System: perfluorobiphenyl; phases: Crystal, Liquid, Air at 1 atmosphere
Property: Molar enthalpy of transition or fusion, kJ/mol (Crystal); method: DSC
Molar enthalpy of transition or fusion, kJ/mol	uncertainty
20.5	1.3

System: perfluorobiphenyl; phases: Crystal, Liquid, Air at 1 atmosphere
Property: Normal melting temperature, K (Crystal); method: DTA
Normal melting temperature, K	uncertainty
339.6	0.7

System: hexacosafluorododecane; phases: Crystal, Liquid, Air at 1 atmosphere
Property: Molar enthalpy of transition or fusion, kJ/mol (Crystal); method: DSC
Molar enthalpy of transition or fusion, kJ/mol	uncertainty
24.2	1.3

System: hexacosafluorododecane; phases: Crystal, Liquid, Air at 1 atmosphere
Property: Normal melting temperature, K (Crystal); method: DTA
Normal melting temperature, K	uncertainty
346.6	0.7

System: hexacosafluorododecane; phases: Crystal, Gas
Property: Vapor or sublimation pressure, kPa (Crystal); method: TRANSPIR:UFactor:2
Temperature, K	Vapor or sublimation pressure, kPa	uncertainty
313.3	0.0672	0.0067
318.2	0.1074	0.0107
323.2	0.1781	0.0178
328.2	0.2832	0.0283
333.2	0.4571	0.0457
338.2	0.7269	0.0727
343.2	1.0388	0.1039
348.2	1.6302	0.1631

System: perfluorotridecane; phases: Crystal, Liquid, Air at 1 atmosphere
Property: Molar enthalpy of transition or fusion, kJ/mol (Crystal); method: DSC
Molar enthalpy of transition or fusion, kJ/mol	uncertainty
27.9	1

System: perfluorotridecane; phases: Crystal, Liquid, Air at 1 atmosphere
Property: Normal melting temperature, K (Crystal); method: DTA
Normal melting temperature, K	uncertainty
361.7	0.7

System: perfluorotridecane; phases: Crystal, Gas
Property: Vapor or sublimation pressure, kPa (Crystal); method: TRANSPIR:UFactor:2
Temperature, K	Vapor or sublimation pressure, kPa	uncertainty
313.2	0.0143	0.0014
318.4	0.0253	0.0025
323.4	0.0443	0.0044
329.3	0.0796	0.008
333.5	0.1199	0.012
339.3	0.2077	0.0208
343.3	0.297	0.0297
349.2	0.5217	0.0522
354.1	0.8357	0.0836
358.2	1.1474	0.1148

System: triacontafluorotetradecane; phases: Crystal, Liquid, Air at 1 atmosphere
Property: Molar enthalpy of transition or fusion, kJ/mol (Crystal); method: DSC
Molar enthalpy of transition or fusion, kJ/mol	uncertainty
31.5	0.9

System: triacontafluorotetradecane; phases: Crystal, Liquid, Air at 1 atmosphere
Property: Normal melting temperature, K (Crystal); method: DTA
Normal melting temperature, K	uncertainty
375.6	

System: triacontafluorotetradecane; phases: Crystal, Gas
Property: Vapor or sublimation pressure, kPa (Crystal); method: TRANSPIR:UFactor:2
Temperature, K	Vapor or sublimation pressure, kPa	uncertainty
313.2	0.00349	0.00035
318.2	0.00664	0.00066
328.2	0.0191	0.0019
333.2	0.0315	0.0032
338.2	0.053	0.0053
343.2	0.0971	0.0097
348.2	0.161	0.0161
353.1	0.2493	0.0249
358.2	0.4128	0.0413
358.2	0.4025	0.0403

System: perfluoropentadecane; phases: Crystal, Liquid, Air at 1 atmosphere
Property: Molar enthalpy of transition or fusion, kJ/mol (Crystal); method: DSC
Molar enthalpy of transition or fusion, kJ/mol	uncertainty
35.1	0.8

System: perfluoropentadecane; phases: Crystal, Liquid, Air at 1 atmosphere
Property: Normal melting temperature, K (Crystal); method: DTA
Normal melting temperature, K	uncertainty
388.1	0.7

System: perfluoropentadecane; phases: Crystal, Gas
Property: Vapor or sublimation pressure, kPa (Crystal); method: TRANSPIR:UFactor:2
Temperature, K	Vapor or sublimation pressure, kPa	uncertainty
312.1	0.0006	6e-05
323.2	0.0025	0.00025
333.2	0.00776	0.00078
338.2	0.0139	0.0014
343.3	0.0238	0.0024
348.2	0.0408	0.0041
353.1	0.0662	0.0066
358.2	0.1119	0.0112
363.2	0.1796	0.018
368.2	0.2908	0.0291

System: tetratriacontafluorohexadecane; phases: Crystal, Liquid, Air at 1 atmosphere
Property: Molar enthalpy of transition or fusion, kJ/mol (Crystal); method: DSC
Molar enthalpy of transition or fusion, kJ/mol	uncertainty
38.7	0.8

System: tetratriacontafluorohexadecane; phases: Crystal, Liquid, Air at 1 atmosphere
Property: Normal melting temperature, K (Crystal); method: DTA
Normal melting temperature, K	uncertainty
399.7	0.7

System: tetratriacontafluorohexadecane; phases: Liquid, Gas
Property: Molar enthalpy of vaporization or sublimation, kJ/mol (Liquid); method: Correlation gas chromatography
Temperature, K	Molar enthalpy of vaporization or sublimation, kJ/mol	uncertainty
298	117.6	10

System: dotetracontafluoroeicosane; phases: Crystal, Liquid, Air at 1 atmosphere
Property: Molar enthalpy of transition or fusion, kJ/mol (Crystal); method: DSC
Molar enthalpy of transition or fusion, kJ/mol	uncertainty
50.3	1.1

System: dotetracontafluoroeicosane; phases: Crystal, Liquid, Air at 1 atmosphere
Property: Normal melting temperature, K (Crystal); method: DTA
Normal melting temperature, K	uncertainty
436.2	0.7

System: dotetracontafluoroeicosane; phases: Liquid, Gas
Property: Molar enthalpy of vaporization or sublimation, kJ/mol (Liquid); method: Correlation gas chromatography
Temperature, K	Molar enthalpy of vaporization or sublimation, kJ/mol	uncertainty
298	148	18

System: perfluorotetracosane; phases: Crystal, Liquid, Air at 1 atmosphere
Property: Molar enthalpy of transition or fusion, kJ/mol (Crystal); method: DSC
Molar enthalpy of transition or fusion, kJ/mol	uncertainty
63.2	1.7

System: perfluorotetracosane; phases: Crystal, Liquid, Air at 1 atmosphere
Property: Normal melting temperature, K (Crystal); method: DTA
Normal melting temperature, K	uncertainty
461.1	0.7

System: perfluorotetracosane; phases: Liquid, Gas
Property: Molar enthalpy of vaporization or sublimation, kJ/mol (Liquid); method: Correlation gas chromatography
Temperature, K	Molar enthalpy of vaporization or sublimation, kJ/mol	uncertainty
298	168.3	22.4
