Measured thermophysical data. Transfer Partial Molar Volumes of L-Alanine/L-Glutamine/Glycylglycine from Water to 0.512 mol/kg Aqueous KNO3/K2SO4 Solutions at (298.15 to 323.15) K
Source: J. Chem. Eng. Data, 2012, 10.1021/je300083m
Compound 1: water, H2O, InChI=1S/H2O/h1H2
Compound 2: potassium sulfate, K2O4S, InChI=1S/2K.H2O4S/c;;1-5(2,3)4/h;;(H2,1,2,3,4)/q2*+1;/p-2, purity 99%
Compound 3: potassium nitrate, KNO3, InChI=1S/K.NO3/c;2-1(3)4/q+1;-1, purity 99%
Compound 4: (S)-2-aminopropanoic acid, C3H7NO2, InChI=1S/C3H7NO2/c1-2(4)3(5)6/h2H,4H2,1H3,(H,5,6)/t2-/m0/s1, purity 99%
Compound 5: L-glutamine, C5H10N2O3, InChI=1S/C5H10N2O3/c6-3(5(9)10)1-2-4(7)8/h3H,1-2,6H2,(H2,7,8)(H,9,10)/t3-/m0/s1, purity 99%
Compound 6: glycylglycine, C4H8N2O3, InChI=1S/C4H8N2O3/c5-1-3(7)6-2-4(8)9/h1-2,5H2,(H,6,7)(H,8,9), purity 99%

System: water + potassium sulfate; phases: Liquid
Fixed: Pressure, kPa = 101
Fixed: Molality, mol/kg of potassium sulfate = 0.512
Property: Mass density, kg/m3 (Liquid); method: VIBTUB:UFactor:4
Temperature, K	Mass density, kg/m3	uncertainty
298.15	1063.81	0.298
303.15	1062.02	0.295
308.15	1060.06	0.291
313.15	1057.74	0.286
318.15	1055.14	0.281
323.15	1052.95	0.276

System: water + potassium nitrate; phases: Liquid
Fixed: Pressure, kPa = 101
Fixed: Molality, mol/kg of potassium nitrate = 0.512
Property: Mass density, kg/m3 (Liquid); method: VIBTUB:UFactor:4
Temperature, K	Mass density, kg/m3	uncertainty
298.15	1027.984	0.223
303.15	1026.225	0.219
308.15	1024.102	0.215
313.15	1022.05	0.211
318.15	1020.2	0.207
323.15	1018.2	0.203

System: (S)-2-aminopropanoic acid + water + potassium sulfate; phases: Liquid
Fixed: Pressure, kPa = 101
Fixed: Solvent: Molality, mol/kg of potassium sulfate = 0.512
Property: Mass density, kg/m3 (Liquid); method: VIBTUB:UFactor:4
Temperature, K	Molality, mol/kg of (S)-2-aminopropanoic acid	Mass density, kg/m3	uncertainty
298.15	0	1063.81	0.431
298.15	0.1901	1068.612	0.441
298.15	0.3847	1073.232	0.452
298.15	0.5849	1077.812	0.462
298.15	0.7905	1082.283	0.473
298.15	1.0017	1086.684	0.483
298.15	1.2185	1091.239	0.493
303.15	0	1062.02	0.427
303.15	0.1901	1066.782	0.437
303.15	0.3847	1071.325	0.448
303.15	0.5849	1075.943	0.458
303.15	0.7905	1080.336	0.468
303.15	1.0017	1084.731	0.478
303.15	1.2185	1089.531	0.489
308.15	0	1060.06	0.422
308.15	0.1901	1064.793	0.433
308.15	0.3847	1069.282	0.443
308.15	0.5849	1073.877	0.454
308.15	0.7905	1078.209	0.463
308.15	1.0017	1082.584	0.473
308.15	1.2185	1087.484	0.485
313.15	0	1057.74	0.417
313.15	0.1901	1062.453	0.428
313.15	0.3847	1066.893	0.438
313.15	0.5849	1071.448	0.448
313.15	0.7905	1075.775	0.458
313.15	1.0017	1080.137	0.468
313.15	1.2185	1084.983	0.479
318.15	0	1055.14	0.411
318.15	0.1901	1059.838	0.422
318.15	0.3847	1064.226	0.432
318.15	0.5849	1068.766	0.442
318.15	0.7905	1073.105	0.452
318.15	1.0017	1077.423	0.462
318.15	1.2185	1082.219	0.473
323.15	0	1052.95	0.406
323.15	0.1901	1057.615	0.417
323.15	0.3847	1061.984	0.426
323.15	0.5849	1066.459	0.437
323.15	0.7905	1070.853	0.447
323.15	1.0017	1075.069	0.456
323.15	1.2185	1079.781	0.467

System: (S)-2-aminopropanoic acid + water + potassium nitrate; phases: Liquid
Fixed: Pressure, kPa = 101
Fixed: Solvent: Molality, mol/kg of potassium nitrate = 0.512
Property: Mass density, kg/m3 (Liquid); method: VIBTUB:UFactor:4
Temperature, K	Molality, mol/kg of (S)-2-aminopropanoic acid	Mass density, kg/m3	uncertainty
298.15	0	1027.984	0.349
298.15	0.1971	1033.262	0.361
298.15	0.4038	1038.627	0.373
298.15	0.6157	1043.979	0.385
298.15	0.8362	1049.373	0.398
298.15	1.0658	1054.757	0.41
298.15	1.3028	1060.283	0.422
303.15	0	1026.225	0.345
303.15	0.1971	1031.483	0.357
303.15	0.4038	1036.831	0.369
303.15	0.6157	1042.164	0.381
303.15	0.8362	1047.536	0.393
303.15	1.0658	1052.904	0.406
303.15	1.3028	1058.414	0.418
308.15	0	1024.102	0.341
308.15	0.1971	1029.344	0.352
308.15	0.4038	1034.676	0.364
308.15	0.6157	1039.994	0.376
308.15	0.8362	1045.349	0.389
308.15	1.0658	1050.701	0.401
308.15	1.3028	1056.191	0.413
313.15	0	1022.05	0.336
313.15	0.1971	1027.276	0.348
313.15	0.4038	1032.592	0.36
313.15	0.6157	1037.893	0.372
313.15	0.8362	1043.232	0.384
313.15	1.0658	1048.568	0.396
313.15	1.3028	1054.048	0.408
318.15	0	1020.2	0.332
318.15	0.1971	1025.409	0.343
318.15	0.4038	1030.707	0.355
318.15	0.6157	1035.993	0.367
318.15	0.8362	1041.312	0.379
318.15	1.0658	1046.629	0.391
318.15	1.3028	1052.084	0.404
323.15	0	1018.2	0.327
323.15	0.1971	1023.393	0.339
323.15	0.4038	1028.675	0.351
323.15	0.6157	1033.941	0.363
323.15	0.8362	1039.246	0.375
323.15	1.0658	1044.547	0.387
323.15	1.3028	1049.985	0.399

System: L-glutamine + water + potassium sulfate; phases: Liquid
Fixed: Pressure, kPa = 101
Fixed: Solvent: Molality, mol/kg of potassium sulfate = 0.512
Property: Mass density, kg/m3 (Liquid); method: VIBTUB:UFactor:4
Temperature, K	Molality, mol/kg of L-glutamine	Mass density, kg/m3	uncertainty
298.15	0	1063.81	0.433
298.15	0.0472	1066.112	0.438
298.15	0.095	1068.417	0.443
298.15	0.1429	1070.684	0.448
298.15	0.1918	1072.964	0.453
298.15	0.2408	1075.209	0.458
298.15	0.2903	1077.447	0.463
303.15	0	1062.02	0.429
303.15	0.0472	1064.319	0.434
303.15	0.095	1066.622	0.439
303.15	0.1429	1068.884	0.444
303.15	0.1918	1071.164	0.449
303.15	0.2408	1073.405	0.454
303.15	0.2903	1075.647	0.459
308.15	0	1060.06	0.424
308.15	0.0472	1062.357	0.429
308.15	0.095	1064.657	0.434
308.15	0.1429	1066.915	0.44
308.15	0.1918	1069.197	0.445
308.15	0.2408	1071.434	0.45
308.15	0.2903	1073.68	0.455
313.15	0	1057.74	0.419
313.15	0.0472	1060.035	0.424
313.15	0.095	1062.335	0.429
313.15	0.1429	1064.59	0.434
313.15	0.1918	1066.875	0.44
313.15	0.2408	1069.108	0.445
313.15	0.2903	1071.359	0.449
318.15	0	1055.14	0.413
318.15	0.0472	1057.436	0.418
318.15	0.095	1059.732	0.423
318.15	0.1429	1061.985	0.429
318.15	0.1918	1064.273	0.434
318.15	0.2408	1066.504	0.439
318.15	0.2903	1068.768	0.444
323.15	0	1052.95	0.408
323.15	0.0472	1055.245	0.413
323.15	0.095	1057.539	0.418
323.15	0.1429	1059.788	0.423
323.15	0.1918	1062.078	0.429
323.15	0.2408	1064.305	0.434
323.15	0.2903	1066.567	0.439

System: L-glutamine + water + potassium nitrate; phases: Liquid
Fixed: Pressure, kPa = 101
Fixed: Solvent: Molality, mol/kg of potassium nitrate = 0.512
Property: Mass density, kg/m3 (Liquid); method: VIBTUB:UFactor:4
Temperature, K	Molality, mol/kg of L-glutamine	Mass density, kg/m3	uncertainty
298.15	0	1027.984	0.353
298.15	0.0481	1030.712	0.358
298.15	0.0987	1032.966	0.363
298.15	0.1499	1035.524	0.369
298.15	0.2002	1037.985	0.374
298.15	0.2521	1040.496	0.38
298.15	0.3048	1043.029	0.385
303.15	0	1026.225	0.349
303.15	0.0481	1028.949	0.354
303.15	0.0987	1031.207	0.359
303.15	0.1499	1033.755	0.365
303.15	0.2002	1036.213	0.37
303.15	0.2521	1038.721	0.376
303.15	0.3048	1041.251	0.381
308.15	0	1024.102	0.344
308.15	0.0481	1026.835	0.349
308.15	0.0987	1029.073	0.354
308.15	0.1499	1031.625	0.36
308.15	0.2002	1034.081	0.366
308.15	0.2521	1036.639	0.371
308.15	0.3048	1039.115	0.377
313.15	0	1022.05	0.339
313.15	0.0481	1024.772	0.345
313.15	0.0987	1027.016	0.349
313.15	0.1499	1029.566	0.355
313.15	0.2002	1032.019	0.361
313.15	0.2521	1034.523	0.366
313.15	0.3048	1037.048	0.372
318.15	0	1020.2	0.336
318.15	0.0481	1022.929	0.341
318.15	0.0987	1025.163	0.345
318.15	0.1499	1027.707	0.351
318.15	0.2002	1030.158	0.357
318.15	0.2521	1032.658	0.362
318.15	0.3048	1035.188	0.368
323.15	0	1018.2	0.331
323.15	0.0481	1020.917	0.336
323.15	0.0987	1023.155	0.341
323.15	0.1499	1025.699	0.347
323.15	0.2002	1028.147	0.352
323.15	0.2521	1030.648	0.358
323.15	0.3048	1033.166	0.363

System: glycylglycine + water + potassium sulfate; phases: Liquid
Fixed: Pressure, kPa = 101
Fixed: Solvent: Molality, mol/kg of potassium sulfate = 0.512
Property: Mass density, kg/m3 (Liquid); method: VIBTUB:UFactor:4
Temperature, K	Molality, mol/kg of glycylglycine	Mass density, kg/m3	uncertainty
298.15	0	1063.81	0.433
298.15	0.1911	1073.932	0.456
298.15	0.3887	1084.169	0.479
298.15	0.5932	1094.349	0.502
298.15	0.8038	1104.452	0.525
298.15	1.0178	1114.489	0.548
298.15	1.2586	1125.255	0.572
303.15	0	1062.02	0.429
303.15	0.1911	1072.123	0.452
303.15	0.3887	1082.348	0.475
303.15	0.5932	1092.499	0.498
303.15	0.8038	1102.575	0.521
303.15	1.0178	1112.546	0.543
303.15	1.2586	1123.333	0.568
308.15	0	1060.06	0.425
308.15	0.1911	1070.145	0.447
308.15	0.3887	1080.347	0.47
308.15	0.5932	1090.477	0.493
308.15	0.8038	1100.525	0.516
308.15	1.0178	1110.439	0.539
308.15	1.2586	1121.222	0.563
313.15	0	1057.74	0.42
313.15	0.1911	1067.781	0.442
313.15	0.3887	1077.996	0.465
313.15	0.5932	1088.096	0.488
313.15	0.8038	1098.107	0.511
313.15	1.0178	1108.037	0.533
313.15	1.2586	1118.794	0.558
318.15	0	1055.14	0.414
318.15	0.1911	1065.171	0.436
318.15	0.3887	1075.375	0.459
318.15	0.5932	1085.421	0.482
318.15	0.8038	1095.459	0.505
318.15	1.0178	1105.306	0.527
318.15	1.2586	1116.043	0.552
323.15	0	1052.95	0.409
323.15	0.1911	1062.973	0.431
323.15	0.3887	1073.147	0.454
323.15	0.5932	1083.175	0.477
323.15	0.8038	1093.195	0.499
323.15	1.0178	1102.999	0.522
323.15	1.2586	1113.688	0.546

System: glycylglycine + water + potassium nitrate; phases: Liquid
Fixed: Pressure, kPa = 101
Fixed: Solvent: Molality, mol/kg of potassium nitrate = 0.512
Property: Mass density, kg/m3 (Liquid); method: VIBTUB:UFactor:4
Temperature, K	Molality, mol/kg of glycylglycine	Mass density, kg/m3	uncertainty
298.15	0	1027.984	0.352
298.15	0.1997	1038.793	0.376
298.15	0.4102	1049.787	0.401
298.15	0.6324	1061.018	0.426
298.15	0.8674	1072.465	0.452
298.15	1.1162	1084.161	0.479
298.15	1.3801	1096.103	0.506
303.15	0	1026.225	0.349
303.15	0.1997	1037.013	0.373
303.15	0.4102	1047.992	0.397
303.15	0.6324	1059.203	0.422
303.15	0.8674	1070.639	0.448
303.15	1.1162	1082.308	0.474
303.15	1.3801	1094.221	0.501
308.15	0	1024.102	0.344
308.15	0.1997	1034.874	0.368
308.15	0.4102	1045.836	0.392
308.15	0.6324	1057.031	0.417
308.15	0.8674	1068.442	0.443
308.15	1.1162	1080.102	0.469
308.15	1.3801	1092.007	0.496
313.15	0	1022.05	0.339
313.15	0.1997	1032.808	0.363
313.15	0.4102	1043.757	0.388
313.15	0.6324	1054.929	0.413
313.15	0.8674	1066.535	0.439
313.15	1.1162	1077.965	0.464
313.15	1.3801	1089.853	0.492
318.15	0	1020.2	0.335
318.15	0.1997	1030.942	0.359
318.15	0.4102	1041.865	0.383
318.15	0.6324	1053.026	0.408
318.15	0.8674	1064.613	0.434
318.15	1.1162	1076.025	0.46
318.15	1.3801	1087.894	0.487
323.15	0	1018.2	0.331
323.15	0.1997	1028.921	0.355
323.15	0.4102	1039.832	0.379
323.15	0.6324	1050.975	0.404
323.15	0.8674	1062.545	0.43
323.15	1.1162	1073.941	0.455
323.15	1.3801	1085.791	0.482
