Measured thermophysical data. Density of Water (1) + Diethanolamine (2) + CO2 (3) and Water (1) + N-Methyldiethanolamine (2) + CO2 (3) from (298.15 to 423.15) K
Source: J. Chem. Eng. Data, 2012, 10.1021/je300345m
Compound 1: water, H2O, InChI=1S/H2O/h1H2, purity 99.8%
Compound 2: carbon dioxide, CO2, InChI=1S/CO2/c2-1-3, purity 99.99%
Compound 3: diethanolamine, C4H11NO2, InChI=1S/C4H11NO2/c6-3-1-5-2-4-7/h5-7H,1-4H2, purity 98%
Compound 4: N-methyldiethanolamine, C5H13NO2, InChI=1S/C5H13NO2/c1-6(2-4-7)3-5-8/h7-8H,2-5H2,1H3, purity 98%

System: diethanolamine; phases: Liquid
Property: Mass density, kg/m3 (Liquid); method: Vibrating tube method
Pressure, kPa	Temperature, K	Mass density, kg/m3	uncertainty
100	298.15	1093.6	3.6
100	303.15	1090.4	3.6
100	308.15	1087.1	3.6
100	313.15	1083.8	3.6
100	318.15	1080.6	3.6
100	323.15	1077.4	3.6
100	328.15	1074.1	3.6
100	333.15	1070.8	3.6
100	338.15	1067.4	3.6
100	343.15	1064	3.6
100	348.15	1060.6	3.6
100	353.15	1057.2	3.6
100	358.15	1053.7	3.6
100	363.15	1050.1	3.6
700	373.15	1043.3	3.6
700	383.15	1035.5	3.6
700	393.15	1028.1	3.6
700	403.15	1020.5	3.6
700	413.15	1012.9	3.6
700	423.15	1004.8	3.6

System: N-methyldiethanolamine; phases: Liquid
Property: Mass density, kg/m3 (Liquid); method: Vibrating tube method
Pressure, kPa	Temperature, K	Mass density, kg/m3	uncertainty
100	298.15	1036	3.1
100	303.15	1032.4	3.1
100	308.15	1028.6	3.1
100	313.15	1024.8	3.1
100	318.15	1021	3.1
100	323.15	1017.2	3.1
100	328.15	1013.3	3.1
100	333.15	1009.4	3.1
100	338.15	1005.6	3.1
100	343.15	1001.7	3.1
100	348.15	997.7	3.1
100	353.15	993.8	3.1
100	358.15	989.9	3.1
100	363.15	985.9	3.1
700	373.15	978.6	3.1
700	383.15	970.3	3.1
700	393.15	962.1	3.1
700	403.15	953.9	3.1
700	413.15	945.6	3.1
700	423.15	937	3.1

System: diethanolamine + water; phases: Liquid
Property: Mass density, kg/m3 (Liquid); method: Vibrating tube method
Pressure, kPa	Temperature, K	Mole fraction of diethanolamine	Mass density, kg/m3	uncertainty
100	298.15	0	997	3.5
100	298.15	0.0684	1034	3.5
100	298.15	0.1025	1047.2	3.5
100	298.15	0.1463	1059.5	3.5
100	298.15	0.2045	1071.4	3.5
100	298.15	0.2856	1081	3.5
100	298.15	0.4067	1088	3.5
100	298.15	0.6066	1092.2	3.5
100	298.15	1	1093.6	3.6
100	303.15	0	995.6	3.5
100	303.15	0.0684	1031.8	3.5
100	303.15	0.1025	1044.8	3.5
100	303.15	0.1463	1056.9	3.5
100	303.15	0.2045	1068.5	3.5
100	303.15	0.2856	1077.9	3.5
100	303.15	0.4067	1085	3.5
100	303.15	0.6066	1088.9	3.5
100	303.15	1	1090.4	3.6
100	308.15	0	994	3.5
100	308.15	0.0684	1029.7	3.5
100	308.15	0.1025	1042.4	3.5
100	308.15	0.1463	1054.2	3.5
100	308.15	0.2045	1065.6	3.5
100	308.15	0.2856	1074.9	3.5
100	308.15	0.4067	1081.8	3.5
100	308.15	0.6066	1085.8	3.5
100	308.15	1	1087.1	3.6
100	313.15	0	992.2	3.5
100	313.15	0.0684	1027.2	3.5
100	313.15	0.1025	1039.6	3.5
100	313.15	0.1463	1051.3	3.5
100	313.15	0.2045	1062.6	3.5
100	313.15	0.2856	1071.7	3.5
100	313.15	0.4067	1078.7	3.5
100	313.15	0.6066	1082.7	3.5
100	313.15	1	1083.8	3.6
100	318.15	0	990.2	3.5
100	318.15	0.0684	1024.9	3.5
100	318.15	0.1025	1037	3.5
100	318.15	0.1463	1048.4	3.5
100	318.15	0.2045	1059.5	3.5
100	318.15	0.2856	1068.6	3.5
100	318.15	0.4067	1075.5	3.5
100	318.15	0.6066	1079.5	3.5
100	318.15	1	1080.6	3.6
100	323.15	0	988	3.5
100	323.15	0.0684	1022.2	3.5
100	323.15	0.1025	1034.2	3.5
100	323.15	0.1463	1045.4	3.5
100	323.15	0.2045	1056.6	3.5
100	323.15	0.2856	1065.3	3.5
100	323.15	0.4067	1072.2	3.5
100	323.15	0.6066	1076.2	3.5
100	323.15	1	1077.4	3.6
100	328.15	0	985.7	3.5
100	328.15	0.0684	1019.5	3.5
100	328.15	0.1025	1031.4	3.5
100	328.15	0.1463	1042.4	3.5
100	328.15	0.2045	1053.2	3.5
100	328.15	0.2856	1062.1	3.5
100	328.15	0.4067	1068.9	3.5
100	328.15	0.6066	1073	3.5
100	328.15	1	1074.1	3.6
100	333.15	0	983.2	3.5
100	333.15	0.0684	1016.6	3.5
100	333.15	0.1025	1028.3	3.5
100	333.15	0.1463	1039.2	3.5
100	333.15	0.2045	1049.9	3.5
100	333.15	0.2856	1058.8	3.5
100	333.15	0.4067	1065.6	3.5
100	333.15	0.6066	1069.6	3.5
100	333.15	1	1070.8	3.6
100	338.15	0	980.5	3.5
100	338.15	0.0684	1013.8	3.5
100	338.15	0.1025	1025.2	3.5
100	338.15	0.1463	1036	3.5
100	338.15	0.2045	1046.5	3.5
100	338.15	0.2856	1055.3	3.5
100	338.15	0.4067	1062.2	3.5
100	338.15	0.6066	1066.3	3.5
100	338.15	1	1067.4	3.6
100	343.15	0	977.7	3.5
100	343.15	0.0684	1010.6	3.5
100	343.15	0.1025	1022	3.5
100	343.15	0.1463	1032.6	3.5
100	343.15	0.2045	1043.1	3.5
100	343.15	0.2856	1051.8	3.5
100	343.15	0.4067	1058.8	3.5
100	343.15	0.6066	1062.9	3.5
100	343.15	1	1064	3.6
100	348.15	0	974.8	3.5
100	348.15	0.0684	1007.5	3.5
100	348.15	0.1025	1018.8	3.5
100	348.15	0.1463	1029.3	3.5
100	348.15	0.2045	1039.7	3.5
100	348.15	0.2856	1048.3	3.5
100	348.15	0.4067	1055.3	3.5
100	348.15	0.6066	1059.4	3.5
100	348.15	1	1060.6	3.6
100	353.15	0	971.8	3.5
100	353.15	0.0684	1004.2	3.5
100	353.15	0.1025	1015.3	3.5
100	353.15	0.1463	1025.8	3.5
100	353.15	0.2045	1036	3.5
100	353.15	0.2856	1044.8	3.5
100	353.15	0.4067	1051.7	3.5
100	353.15	0.6066	1055.9	3.5
100	353.15	1	1057.2	3.6
100	358.15	0	968.6	3.5
100	358.15	0.0684	1000.8	3.5
100	358.15	0.1025	1011.9	3.5
100	358.15	0.1463	1022.3	3.5
100	358.15	0.2045	1032.5	3.5
100	358.15	0.2856	1041.1	3.5
100	358.15	0.4067	1048	3.5
100	358.15	0.6066	1052.4	3.5
100	358.15	1	1053.7	3.6
100	363.15	0	965.3	3.5
100	363.15	0.0684	997.3	3.5
100	363.15	0.1025	1008.3	3.5
100	363.15	0.1463	1018.6	3.5
100	363.15	0.2045	1028.7	3.5
100	363.15	0.2856	1037.2	3.5
100	363.15	0.4067	1044.4	3.5
100	363.15	0.6066	1048.8	3.5
100	363.15	1	1050.1	3.6
700	373.15	0	958.6	3.5
700	373.15	0.0684	990.2	3.5
700	373.15	0.1025	1000.9	3.5
700	373.15	0.1463	1011.5	3.5
700	373.15	0.2045	1021.2	3.5
700	373.15	0.2856	1029.9	3.5
700	373.15	0.4067	1037.2	3.5
700	373.15	0.6066	1041.8	3.5
700	373.15	1	1043.3	3.6
700	383.15	0	951.2	3.5
700	383.15	0.0684	982.3	3.5
700	383.15	0.1025	992.9	3.5
700	383.15	0.1463	1003.3	3.5
700	383.15	0.2045	1012.9	3.5
700	383.15	0.2856	1021.7	3.5
700	383.15	0.4067	1028.9	3.5
700	383.15	0.6066	1033.8	3.5
700	383.15	1	1035.5	3.6
700	393.15	0	943.4	3.5
700	393.15	0.0684	974.2	3.5
700	393.15	0.1025	984.7	3.5
700	393.15	0.1463	995.1	3.5
700	393.15	0.2045	1004.7	3.5
700	393.15	0.2856	1013.5	3.5
700	393.15	0.4067	1020.9	3.5
700	393.15	0.6066	1026	3.5
700	393.15	1	1028.1	3.6
700	403.15	0	935.1	3.5
700	403.15	0.0684	965.8	3.5
700	403.15	0.1025	976.3	3.5
700	403.15	0.1463	986.7	3.5
700	403.15	0.2045	996.2	3.5
700	403.15	0.2856	1005.1	3.5
700	403.15	0.4067	1012.8	3.5
700	403.15	0.6066	1018.2	3.5
700	403.15	1	1020.5	3.6
700	413.15	0	926.3	3.5
700	413.15	0.0684	957.1	3.5
700	413.15	0.1025	967.5	3.5
700	413.15	0.1463	977.9	3.5
700	413.15	0.2045	987.5	3.5
700	413.15	0.2856	996.5	3.5
700	413.15	0.4067	1004.5	3.5
700	413.15	0.6066	1010.2	3.5
700	413.15	1	1012.9	3.6
700	423.15	0	917.1	3.5
700	423.15	0.0684	947.9	3.5
700	423.15	0.1025	958.1	3.5
700	423.15	0.1463	969	3.5
700	423.15	0.2045	978.2	3.5
700	423.15	0.2856	987.2	3.5
700	423.15	0.4067	995.4	3.5
700	423.15	0.6066	1001.7	3.5
700	423.15	1	1004.8	3.6

System: N-methyldiethanolamine + water; phases: Liquid
Property: Mass density, kg/m3 (Liquid); method: Vibrating tube method
Pressure, kPa	Temperature, K	Mole fraction of N-methyldiethanolamine	Mass density, kg/m3	uncertainty
100	298.15	0	997	3
100	298.15	0.0609	1025.2	3
100	298.15	0.0916	1035.6	3
100	298.15	0.1313	1043.3	3
100	298.15	0.1848	1049.7	3
100	298.15	0.2608	1053.6	3
100	298.15	0.3768	1052.3	3
100	298.15	0.5764	1046	3
100	298.15	1	1036	3.1
100	303.15	0	995.6	3
100	303.15	0.0609	1022.8	3
100	303.15	0.0916	1032.8	3
100	303.15	0.1313	1040.9	3
100	303.15	0.1848	1046.1	3
100	303.15	0.2608	1049.9	3
100	303.15	0.3768	1048.6	3
100	303.15	0.5764	1042.3	3
100	303.15	1	1032.4	3.1
100	308.15	0	994	3
100	308.15	0.0609	1020.3	3
100	308.15	0.0916	1029.9	3
100	308.15	0.1313	1037.6	3
100	308.15	0.1848	1042.5	3
100	308.15	0.2608	1046.2	3
100	308.15	0.3768	1044.8	3
100	308.15	0.5764	1038.4	3
100	308.15	1	1028.6	3.1
100	313.15	0	992.2	3
100	313.15	0.0609	1017.7	3
100	313.15	0.0916	1026.9	3
100	313.15	0.1313	1034.3	3
100	313.15	0.1848	1038.8	3
100	313.15	0.2608	1042.4	3
100	313.15	0.3768	1040.9	3
100	313.15	0.5764	1034.6	3
100	313.15	1	1024.8	3.1
100	318.15	0	990.2	3
100	318.15	0.0609	1014.9	3
100	318.15	0.0916	1023.8	3
100	318.15	0.1313	1030.8	3
100	318.15	0.1848	1034.7	3
100	318.15	0.2608	1038.5	3
100	318.15	0.3768	1037	3
100	318.15	0.5764	1030.8	3
100	318.15	1	1021	3.1
100	323.15	0	988	3
100	323.15	0.0609	1012	3
100	323.15	0.0916	1020.6	3
100	323.15	0.1313	1027.3	3
100	323.15	0.1848	1031.1	3
100	323.15	0.2608	1034.6	3
100	323.15	0.3768	1033.1	3
100	323.15	0.5764	1026.9	3
100	323.15	1	1017.2	3.1
100	328.15	0	985.7	3
100	328.15	0.0609	1009	3
100	328.15	0.0916	1017.2	3
100	328.15	0.1313	1023.7	3
100	328.15	0.1848	1027.3	3
100	328.15	0.2608	1030.6	3
100	328.15	0.3768	1029.1	3
100	328.15	0.5764	1022.9	3
100	328.15	1	1013.3	3.1
100	333.15	0	983.2	3
100	333.15	0.0609	1005.9	3
100	333.15	0.0916	1013.8	3
100	333.15	0.1313	1020.1	3
100	333.15	0.1848	1023.6	3
100	333.15	0.2608	1026.6	3
100	333.15	0.3768	1025	3
100	333.15	0.5764	1019	3
100	333.15	1	1009.4	3.1
100	338.15	0	980.5	3
100	338.15	0.0609	1002.7	3
100	338.15	0.0916	1010.3	3
100	338.15	0.1313	1016.3	3
100	338.15	0.1848	1019.8	3
100	338.15	0.2608	1022.5	3
100	338.15	0.3768	1020.9	3
100	338.15	0.5764	1015	3
100	338.15	1	1005.6	3.1
100	343.15	0	977.7	3
100	343.15	0.0609	999.3	3
100	343.15	0.0916	1006.7	3
100	343.15	0.1313	1012.5	3
100	343.15	0.1848	1015.9	3
100	343.15	0.2608	1018.4	3
100	343.15	0.3768	1016.8	3
100	343.15	0.5764	1010.9	3
100	343.15	1	1001.7	3.1
100	348.15	0	974.8	3
100	348.15	0.0609	995.9	3
100	348.15	0.0916	1003	3
100	348.15	0.1313	1008.5	3
100	348.15	0.1848	1011.9	3
100	348.15	0.2608	1014.2	3
100	348.15	0.3768	1012.6	3
100	348.15	0.5764	1006.9	3
100	348.15	1	997.7	3.1
100	353.15	0	971.8	3
100	353.15	0.0609	992.3	3
100	353.15	0.0916	999.2	3
100	353.15	0.1313	1004.6	3
100	353.15	0.1848	1007.7	3
100	353.15	0.2608	1009.9	3
100	353.15	0.3768	1008.4	3
100	353.15	0.5764	1002.7	3
100	353.15	1	993.8	3.1
100	358.15	0	968.6	3
100	358.15	0.0609	988.7	3
100	358.15	0.0916	995.3	3
100	358.15	0.1313	1000.4	3
100	358.15	0.1848	1003.5	3
100	358.15	0.2608	1005.2	3
100	358.15	0.3768	1004.1	3
100	358.15	0.5764	998.6	3
100	358.15	1	989.9	3.1
100	363.15	0	965.3	3
100	363.15	0.0609	984.9	3
100	363.15	0.0916	991.3	3
100	363.15	0.1313	996.3	3
100	363.15	0.1848	999.2	3
100	363.15	0.2608	1000.9	3
100	363.15	0.3768	999.8	3
100	363.15	0.5764	994.4	3
100	363.15	1	985.9	3.1
700	373.15	0	958.6	3
700	373.15	0.0609	977.2	3
700	373.15	0.0916	982.9	3
700	373.15	0.1313	987.6	3
700	373.15	0.1848	990.7	3
700	373.15	0.2608	992	3
700	373.15	0.3768	990.6	3
700	373.15	0.5764	985.7	3
700	373.15	1	978.6	3.1
700	383.15	0	951.2	3
700	383.15	0.0609	968.8	3
700	383.15	0.0916	974.1	3
700	383.15	0.1313	978.5	3
700	383.15	0.1848	981.4	3
700	383.15	0.2608	982.6	3
700	383.15	0.3768	981.4	3
700	383.15	0.5764	976.9	3
700	383.15	1	970.3	3.1
700	393.15	0	943.4	3
700	393.15	0.0609	960.2	3
700	393.15	0.0916	965.2	3
700	393.15	0.1313	969.3	3
700	393.15	0.1848	972.1	3
700	393.15	0.2608	973.3	3
700	393.15	0.3768	972.2	3
700	393.15	0.5764	968.1	3
700	393.15	1	962.1	3.1
700	403.15	0	935.1	3
700	403.15	0.0609	951.2	3
700	403.15	0.0916	955.9	3
700	403.15	0.1313	959.8	3
700	403.15	0.1848	962.5	3
700	403.15	0.2608	963.7	3
700	403.15	0.3768	962.9	3
700	403.15	0.5764	959.3	3
700	403.15	1	953.9	3.1
700	413.15	0	926.3	3
700	413.15	0.0609	941.9	3
700	413.15	0.0916	946.4	3
700	413.15	0.1313	950.1	3
700	413.15	0.1848	952.7	3
700	413.15	0.2608	954	3
700	413.15	0.3768	953.4	3
700	413.15	0.5764	950.4	3
700	413.15	1	945.6	3.1
700	423.15	0	917.1	3
700	423.15	0.0609	931.9	3
700	423.15	0.0916	936.1	3
700	423.15	0.1313	939.6	3
700	423.15	0.1848	942.3	3
700	423.15	0.2608	943.6	3
700	423.15	0.3768	943.4	3
700	423.15	0.5764	940.9	3
700	423.15	1	937	3.1

System: N-methyldiethanolamine + carbon dioxide + water; phases: Liquid
Fixed: Pressure, kPa = 101
Property: Mass density, kg/m3 (Liquid); method: Vibrating tube method
Temperature, K	Mole fraction of N-methyldiethanolamine	Mole fraction of carbon dioxide	Mass density, kg/m3	uncertainty
298.15	0.0591	0.0295	1074.7	12
298.15	0.0594	0.0238	1064.5	12
298.15	0.0598	0.0179	1056.5	12
298.15	0.0601	0.012	1046.6	12
298.15	0.0605	0.00605	1036.1	12
298.15	0.0876	0.0438	1102.6	12
298.15	0.0883	0.0353	1089.8	12
298.15	0.0891	0.0267	1076.9	12
298.15	0.0899	0.018	1063.3	12
298.15	0.0907	0.0091	1049.4	12
303.15	0.0591	0.0295	1072	12
303.15	0.0594	0.0238	1061.9	12
303.15	0.0598	0.0179	1053.9	12
303.15	0.0601	0.012	1044.1	12
303.15	0.0605	0.00605	1033.6	12
303.15	0.0876	0.0438	1099.5	12
303.15	0.0883	0.0353	1086.8	12
303.15	0.0891	0.0267	1073.9	12
303.15	0.0899	0.018	1060.4	12
303.15	0.0907	0.0091	1046.5	12
313.15	0.0591	0.0295	1066.3	12
313.15	0.0594	0.0238	1056.2	12
313.15	0.0598	0.0179	1048.3	12
313.15	0.0601	0.012	1038.6	12
313.15	0.0605	0.00605	1028.3	12
313.15	0.0876	0.0438	1093.3	12
313.15	0.0883	0.0353	1080.6	12
313.15	0.0891	0.0267	1067.7	12
313.15	0.0899	0.018	1054.2	12
313.15	0.0907	0.0091	1040.5	12
323.15	0.0591	0.0295	1060.4	12
323.15	0.0594	0.0238	1050.3	12
323.15	0.0598	0.0179	1042.4	12
323.15	0.0601	0.012	1032.7	12
323.15	0.0605	0.00605	1022.5	12
323.15	0.0876	0.0438	1086.9	12
323.15	0.0883	0.0353	1074.1	12
323.15	0.0891	0.0267	1061.3	12
323.15	0.0899	0.018	1047.8	12
323.15	0.0907	0.0091	1034.1	12
333.15	0.0591	0.0295	1054.2	12
333.15	0.0594	0.0238	1044.1	12
333.15	0.0598	0.0179	1036.1	12
333.15	0.0601	0.012	1026.5	12
333.15	0.0605	0.00605	1016.3	12
333.15	0.0876	0.0438	1080.2	12
333.15	0.0883	0.0353	1067.4	12
333.15	0.0891	0.0267	1054.6	12
333.15	0.0899	0.018	1041.1	12
333.15	0.0907	0.0091	1027.4	12
343.15	0.0591	0.0295	1047.6	12
343.15	0.0594	0.0238	1037.5	12
343.15	0.0598	0.0179	1029.5	12
343.15	0.0601	0.012	1019.9	12
343.15	0.0605	0.00605	1009.7	12
343.15	0.0891	0.0267	1047.5	12
343.15	0.0899	0.018	1034.1	12
343.15	0.0907	0.0091	1020.4	12
353.15	0.0598	0.0179	1022.5	12
353.15	0.0601	0.012	1012.9	12
353.15	0.0605	0.00605	1002.7	12
353.15	0.0899	0.018	1026.7	12
353.15	0.0907	0.0091	1012.9	12

System: N-methyldiethanolamine + carbon dioxide + water; phases: Liquid
Fixed: Pressure, kPa = 808
Property: Mass density, kg/m3 (Liquid); method: Vibrating tube method
Temperature, K	Mole fraction of N-methyldiethanolamine	Mole fraction of carbon dioxide	Mass density, kg/m3	uncertainty
343.15	0.0876	0.0438	1072.9	12
343.15	0.0883	0.0353	1060.8	12
353.15	0.0591	0.0295	1040.9	12
353.15	0.0594	0.0238	1030.8	12
353.15	0.0876	0.0438	1066.3	12
353.15	0.0883	0.0353	1053.5	12
353.15	0.0891	0.0267	1040.5	12
363.15	0.0591	0.0295	1033	12
363.15	0.0594	0.0238	1023.4	12
363.15	0.0598	0.0179	1015	12
363.15	0.0601	0.012	1005.8	12
363.15	0.0605	0.00605	995.6	12
363.15	0.0876	0.0438	1057.8	12
363.15	0.0883	0.0353	1045.7	12
363.15	0.0891	0.0267	1032.5	12
363.15	0.0899	0.018	1019.4	12
363.15	0.0907	0.0091	1005.2	12
373.15	0.0591	0.0295	1025.2	12
373.15	0.0594	0.0238	1015.6	12
373.15	0.0598	0.0179	1007.2	12
373.15	0.0601	0.012	998.1	12
373.15	0.0605	0.00605	988.1	12
373.15	0.0883	0.0353	1037.5	12
373.15	0.0891	0.0267	1024.6	12
373.15	0.0899	0.018	1011.1	12
373.15	0.0907	0.0091	997.3	12
383.15	0.0594	0.0238	1007.5	12
383.15	0.0598	0.0179	998.8	12
383.15	0.0601	0.012	990.2	12
383.15	0.0605	0.00605	979.9	12
383.15	0.0891	0.0267	1015.7	12
383.15	0.0899	0.018	1002.5	12
383.15	0.0907	0.0091	988.8	12
393.15	0.0598	0.0179	987.3	12
393.15	0.0601	0.012	981.5	12
393.15	0.0605	0.00605	970.9	12
393.15	0.0899	0.018	993.3	12
393.15	0.0907	0.0091	979.7	12
403.15	0.0601	0.012	971.3	12
403.15	0.0605	0.00605	961.8	12
403.15	0.0907	0.0091	970.4	12
413.15	0.0601	0.012	959.9	12
413.15	0.0605	0.00605	951.9	12
413.15	0.0907	0.0091	960.1	12
423.15	0.0605	0.00605	944.1	12

System: diethanolamine + carbon dioxide + water; phases: Liquid
Fixed: Pressure, kPa = 101
Property: Mass density, kg/m3 (Liquid); method: Vibrating tube method
Temperature, K	Mole fraction of diethanolamine	Mole fraction of carbon dioxide	Mass density, kg/m3	uncertainty
298.15	0.0662	0.0331	1093.1	12
298.15	0.0666	0.0266	1083.4	12
298.15	0.067	0.0201	1071.8	12
298.15	0.0675	0.0135	1058.9	12
298.15	0.0679	0.0068	1046.2	12
298.15	0.0975	0.0488	1123	12
298.15	0.0985	0.0394	1109	12
298.15	0.0995	0.0298	1094.6	12
298.15	0.1005	0.0201	1079.6	12
298.15	0.1015	0.0101	1062.8	12
303.15	0.0662	0.0331	1090.7	12
303.15	0.0666	0.0266	1080.6	12
303.15	0.067	0.0201	1069	12
303.15	0.0675	0.0135	1056.6	12
303.15	0.0679	0.0068	1044.1	12
303.15	0.0975	0.0488	1120.3	12
303.15	0.0985	0.0394	1106.4	12
303.15	0.0995	0.0298	1091.6	12
303.15	0.1005	0.0201	1076.8	12
303.15	0.1015	0.0101	1060.3	12
313.15	0.0662	0.0331	1085.5	12
313.15	0.0666	0.0266	1075.4	12
313.15	0.067	0.0201	1063.8	12
313.15	0.0675	0.0135	1051.8	12
313.15	0.0679	0.0068	1039.4	12
313.15	0.0975	0.0488	1114.8	12
313.15	0.0985	0.0394	1101	12
313.15	0.0995	0.0298	1086	12
313.15	0.1005	0.0201	1071.2	12
313.15	0.1015	0.0101	1055.1	12
323.15	0.0662	0.0331	1080	12
323.15	0.0666	0.0266	1070	12
323.15	0.067	0.0201	1058.5	12
323.15	0.0675	0.0135	1046.6	12
323.15	0.0679	0.0068	1034.2	12
323.15	0.0975	0.0488	1108.9	12
323.15	0.0985	0.0394	1095.3	12
323.15	0.0995	0.0298	1080.4	12
323.15	0.1005	0.0201	1065.6	12
323.15	0.1015	0.0101	1049.6	12
333.15	0.0662	0.0331	1074.1	12
333.15	0.0666	0.0266	1064.2	12
333.15	0.067	0.0201	1052.8	12
333.15	0.0675	0.0135	1041	12
333.15	0.0679	0.0068	1028.7	12
333.15	0.0975	0.0488	1102.9	12
333.15	0.0985	0.0394	1089.3	12
333.15	0.0995	0.0298	1074.5	12
333.15	0.1005	0.0201	1059.8	12
333.15	0.1015	0.0101	1043.7	12
343.15	0.0662	0.0331	1067.9	12
343.15	0.0666	0.0266	1058	12
343.15	0.067	0.0201	1046.7	12
343.15	0.0675	0.0135	1034.9	12
343.15	0.0679	0.0068	1022.6	12
343.15	0.0975	0.0488	1096.4	12
343.15	0.0985	0.0394	1082.9	12
343.15	0.0995	0.0298	1068.2	12
343.15	0.1005	0.0201	1053.5	12
343.15	0.1015	0.0101	1037.5	12
353.15	0.0666	0.0266	1051.5	12
353.15	0.067	0.0201	1040.2	12
353.15	0.0675	0.0135	1028.5	12
353.15	0.0679	0.0068	1016.2	12
353.15	0.0985	0.0394	1076.3	12
353.15	0.0995	0.0298	1061.6	12
353.15	0.1005	0.0201	1047	12
353.15	0.1015	0.0101	1030.9	12
363.15	0.0679	0.0068	1009.4	12
363.15	0.1015	0.0101	1023.9	12

System: diethanolamine + carbon dioxide + water; phases: Liquid
Fixed: Pressure, kPa = 808
Property: Mass density, kg/m3 (Liquid); method: Vibrating tube method
Temperature, K	Mole fraction of diethanolamine	Mole fraction of carbon dioxide	Mass density, kg/m3	uncertainty
353.15	0.0662	0.0331	1061.1	12
353.15	0.0975	0.0488	1090.3	12
363.15	0.0662	0.0331	1054.6	12
363.15	0.0666	0.0266	1045	12
363.15	0.067	0.0201	1033.9	12
363.15	0.0675	0.0135	1022	12
363.15	0.0975	0.0488	1083.1	12
363.15	0.0985	0.0394	1069.9	12
363.15	0.0995	0.0298	1054.7	12
363.15	0.1005	0.0201	1040.1	12
373.15	0.0662	0.0331	1047.2	12
373.15	0.0666	0.0266	1037.6	12
373.15	0.067	0.0201	1026.6	12
373.15	0.0675	0.0135	1014.9	12
373.15	0.0679	0.0068	1002.4	12
373.15	0.0975	0.0488	1075.7	12
373.15	0.0985	0.0394	1062.4	12
373.15	0.0995	0.0298	1047.9	12
373.15	0.1005	0.0201	1033.1	12
373.15	0.1015	0.0101	1016.7	12
383.15	0.0662	0.0331	1038.9	12
383.15	0.0666	0.0266	1030	12
383.15	0.067	0.0201	1019	12
383.15	0.0675	0.0135	1007.3	12
383.15	0.0679	0.0068	994.8	12
383.15	0.0975	0.0488	1067.7	12
383.15	0.0985	0.0394	1054.8	12
383.15	0.0995	0.0298	1040.3	12
383.15	0.1005	0.0201	1025.6	12
383.15	0.1015	0.0101	1009	12
393.15	0.0666	0.0266	1021.6	12
393.15	0.067	0.0201	1011.3	12
393.15	0.0675	0.0135	999.1	12
393.15	0.0679	0.0068	986.8	12
393.15	0.0985	0.0394	1046.4	12
393.15	0.0995	0.0298	1032.1	12
393.15	0.1005	0.0201	1017.4	12
393.15	0.1015	0.0101	1000.9	12
403.15	0.067	0.0201	1002.2	12
403.15	0.0675	0.0135	990.7	12
403.15	0.0679	0.0068	978.4	12
403.15	0.0995	0.0298	1023.4	12
403.15	0.1005	0.0201	1008.9	12
403.15	0.1015	0.0101	992.5	12
413.15	0.0675	0.0135	981.5	12
413.15	0.0679	0.0068	969.6	12
413.15	0.1005	0.0201	1000.5	12
413.15	0.1015	0.0101	984.1	12
423.15	0.0679	0.0068	958.4	12
423.15	0.1015	0.0101	973.4	12
