Measured thermophysical data. Physicochemical Characterization of MFm -Based Ammonium Ionic Liquids
Source: J. Chem. Eng. Data, 2013, 10.1021/je300993n
Compound 1: tetraethylammonium tetrafluoroborate, C8H20BF4N, InChI=1S/C8H20N.BF4/c1-5-9(6-2,7-3)8-4;2-1(3,4)5/h5-8H2,1-4H3;/q+1;-1
Compound 2: tetraethylammonium hexafluorophosphate, C8H20F6NP, InChI=1S/C8H20N.F6P/c1-5-9(6-2,7-3)8-4;1-7(2,3,4,5)6/h5-8H2,1-4H3;/q+1;-1
Compound 3: tetraethylammonium hexafluoroantimonate, C8H20F6NSb, InChI=1S/C8H20N.6FH.Sb/c1-5-9(6-2,7-3)8-4;;;;;;;/h5-8H2,1-4H3;6*1H;/q+1;;;;;;;+5/p-6
Compound 4: N,N,N-triethyl-N-butylammonium tetrafluoroborate, C10H24BF4N, InChI=1S/C10H24N.BF4/c1-5-9-10-11(6-2,7-3)8-4;2-1(3,4)5/h5-10H2,1-4H3;/q+1;-1
Compound 5: N,N,N-triethyl-N-butylammonium hexafluorophosphate, C10H24F6NP, InChI=1S/C10H24N.F6P/c1-5-9-10-11(6-2,7-3)8-4;1-7(2,3,4,5)6/h5-10H2,1-4H3;/q+1;-1
Compound 6: N,N,N-triethylbutan-1-aminium hexafluorostibate, C10H24F6NSb, InChI=1S/C10H24N.6FH.Sb/c1-5-9-10-11(6-2,7-3)8-4;;;;;;;/h5-10H2,1-4H3;6*1H;/q+1;;;;;;;+5/p-6
Compound 7: N,N,N-triethyl-N-hexylammonium tetrafluoroborate, C12H28BF4N, InChI=1S/C12H28N.BF4/c1-5-9-10-11-12-13(6-2,7-3)8-4;2-1(3,4)5/h5-12H2,1-4H3;/q+1;-1
Compound 8: N,N,N-triethyl-N-hexylammonium hexafluorophosphate, C12H28F6NP, InChI=1S/C12H28N.F6P/c1-5-9-10-11-12-13(6-2,7-3)8-4;1-7(2,3,4,5)6/h5-12H2,1-4H3;/q+1;-1
Compound 9: N,N,N-triethyl-N-hexylammonium hexafluoroantimonate, C12H28F6NSb, InChI=1S/C12H28N.6FH.Sb/c1-5-9-10-11-12-13(6-2,7-3)8-4;;;;;;;/h5-12H2,1-4H3;6*1H;/q+1;;;;;;;+5/p-6
Compound 10: N,N,N-triethyl-N-octylammonium tetrafluoroborate, C14H32BF4N, InChI=1S/C14H32N.BF4/c1-5-9-10-11-12-13-14-15(6-2,7-3)8-4;2-1(3,4)5/h5-14H2,1-4H3;/q+1;-1
Compound 11: N,N,N-triethyl-N-octylammonium hexafluorophosphate, C14H32F6NP, InChI=1S/C14H32N.F6P/c1-5-9-10-11-12-13-14-15(6-2,7-3)8-4;1-7(2,3,4,5)6/h5-14H2,1-4H3;/q+1;-1
Compound 12: N,N,N-triethyloctan-1-aminium hexafluorostibate, C14H32F6NSb, InChI=1S/C14H32N.6FH.Sb/c1-5-9-10-11-12-13-14-15(6-2,7-3)8-4;;;;;;;/h5-14H2,1-4H3;6*1H;/q+1;;;;;;;+5/p-6
Compound 13: methanesulfonic acid, trifluoro-, CHF3O3S, InChI=1S/CHF3O3S/c2-1(3,4)8(5,6)7/h(H,5,6,7), purity 98%

System: tetraethylammonium tetrafluoroborate; phases: Crystal, Liquid, Air at 1 atmosphere
Property: Normal melting temperature, K (Crystal); method: DTA
Normal melting temperature, K	uncertainty
344.55	0.5

System: tetraethylammonium tetrafluoroborate; phases: Crystal
Property: Mass density, kg/m3 (Crystal); method: gas displacement
Temperature, K	Pressure, kPa	Mass density, kg/m3	uncertainty
293.15	101.325	1220	16

System: tetraethylammonium hexafluorophosphate; phases: Crystal, Liquid, Air at 1 atmosphere
Property: Normal melting temperature, K (Crystal); method: DTA
Normal melting temperature, K	uncertainty
350.25	0.5

System: tetraethylammonium hexafluorophosphate; phases: Crystal
Property: Mass density, kg/m3 (Crystal); method: gas displacement
Temperature, K	Pressure, kPa	Mass density, kg/m3	uncertainty
293.15	101.325	1440	16

System: tetraethylammonium hexafluoroantimonate; phases: Liquid
Property: Mass density, kg/m3 (Liquid); method: gas displacement
Temperature, K	Pressure, kPa	Mass density, kg/m3	uncertainty
293.15	101.325	1715	16

System: N,N,N-triethyl-N-butylammonium tetrafluoroborate; phases: Crystal 1, Liquid, Air at 1 atmosphere
Property: Normal melting temperature, K (Crystal 1); method: DTA
Normal melting temperature, K	uncertainty
435.05	0.5

System: N,N,N-triethyl-N-butylammonium tetrafluoroborate; phases: Crystal 2, Crystal 1, Air at 1 atmosphere
Property: Triple point temperature, K (Crystal 2); method: DTA
Triple point temperature, K	uncertainty
305.85	0.5

System: N,N,N-triethyl-N-butylammonium tetrafluoroborate; phases: Crystal 2
Property: Mass density, kg/m3 (Crystal 2); method: gas displacement
Temperature, K	Pressure, kPa	Mass density, kg/m3	uncertainty
293.15	101.325	1140	16

System: N,N,N-triethyl-N-butylammonium hexafluorophosphate; phases: Crystal 1, Liquid, Air at 1 atmosphere
Property: Normal melting temperature, K (Crystal 1); method: DTA
Normal melting temperature, K	uncertainty
452.05	0.5

System: N,N,N-triethyl-N-butylammonium hexafluorophosphate; phases: Crystal
Property: Mass density, kg/m3 (Crystal); method: gas displacement
Temperature, K	Pressure, kPa	Mass density, kg/m3	uncertainty
293.15	101.325	1366	16

System: N,N,N-triethylbutan-1-aminium hexafluorostibate; phases: Crystal 1, Liquid, Air at 1 atmosphere
Property: Normal melting temperature, K (Crystal 1); method: DTA
Normal melting temperature, K	uncertainty
457.15	0.5

System: N,N,N-triethylbutan-1-aminium hexafluorostibate; phases: Crystal
Property: Mass density, kg/m3 (Crystal); method: gas displacement
Temperature, K	Pressure, kPa	Mass density, kg/m3	uncertainty
293.15	101.325	1640	16

System: N,N,N-triethyl-N-hexylammonium tetrafluoroborate; phases: Crystal, Liquid, Air at 1 atmosphere
Property: Normal melting temperature, K (Crystal); method: DTA
Normal melting temperature, K	uncertainty
361.35	0.5

System: N,N,N-triethyl-N-hexylammonium tetrafluoroborate; phases: Crystal
Property: Mass density, kg/m3 (Crystal); method: gas displacement
Temperature, K	Pressure, kPa	Mass density, kg/m3	uncertainty
293.15	101.325	1094	16

System: N,N,N-triethyl-N-hexylammonium hexafluorophosphate; phases: Crystal, Liquid, Air at 1 atmosphere
Property: Normal melting temperature, K (Crystal); method: DTA
Normal melting temperature, K	uncertainty
434.75	0.5

System: N,N,N-triethyl-N-hexylammonium hexafluorophosphate; phases: Crystal
Property: Mass density, kg/m3 (Crystal); method: gas displacement
Temperature, K	Pressure, kPa	Mass density, kg/m3	uncertainty
293.15	101.325	1351	16

System: N,N,N-triethyl-N-hexylammonium hexafluoroantimonate; phases: Crystal, Liquid, Air at 1 atmosphere
Property: Normal melting temperature, K (Crystal); method: DTA
Normal melting temperature, K	uncertainty
447.15	0.5

System: N,N,N-triethyl-N-hexylammonium hexafluoroantimonate; phases: Crystal
Property: Mass density, kg/m3 (Crystal); method: gas displacement
Temperature, K	Pressure, kPa	Mass density, kg/m3	uncertainty
293.15	101.325	1488	16

System: N,N,N-triethyl-N-octylammonium tetrafluoroborate; phases: Crystal, Liquid, Air at 1 atmosphere
Property: Normal melting temperature, K (Crystal); method: DTA
Normal melting temperature, K	uncertainty
374.55	0.5

System: N,N,N-triethyl-N-octylammonium tetrafluoroborate; phases: Crystal
Property: Mass density, kg/m3 (Crystal); method: gas displacement
Temperature, K	Pressure, kPa	Mass density, kg/m3	uncertainty
293.15	101.325	1065	16

System: N,N,N-triethyl-N-octylammonium hexafluorophosphate; phases: Crystal 1, Liquid, Air at 1 atmosphere
Property: Normal melting temperature, K (Crystal 1); method: DTA
Normal melting temperature, K	uncertainty
361.45	0.5

System: N,N,N-triethyl-N-octylammonium hexafluorophosphate; phases: Crystal 2, Crystal 1, Air at 1 atmosphere
Property: Triple point temperature, K (Crystal 2); method: DTA
Triple point temperature, K	uncertainty
311.65	0.5

System: N,N,N-triethyl-N-octylammonium hexafluorophosphate; phases: Crystal 2
Property: Mass density, kg/m3 (Crystal 2); method: gas displacement
Temperature, K	Pressure, kPa	Mass density, kg/m3	uncertainty
293.15	101.325	1190	16

System: N,N,N-triethyloctan-1-aminium hexafluorostibate; phases: Crystal, Liquid, Air at 1 atmosphere
Property: Normal melting temperature, K (Crystal); method: DTA
Normal melting temperature, K	uncertainty
346.75	0.5

System: N,N,N-triethyloctan-1-aminium hexafluorostibate; phases: Crystal
Property: Mass density, kg/m3 (Crystal); method: gas displacement
Temperature, K	Pressure, kPa	Mass density, kg/m3	uncertainty
293.15	101.325	1439	16

System: methanesulfonic acid, trifluoro-; phases: Liquid
Property: Refractive index (Na D-line) (Liquid); method: Standard Abbe refractometry
Temperature, K	Pressure, kPa	Refractive index (Na D-line)	uncertainty
293.15	101.325	1.3292	0.005

System: tetraethylammonium tetrafluoroborate + methanesulfonic acid, trifluoro-; phases: Liquid
Fixed: Temperature, K = 293.15
Fixed: Pressure, kPa = 101
Property: Refractive index (Na D-line) (Liquid); method: Standard Abbe refractometry
Mass fraction of tetraethylammonium tetrafluoroborate	Refractive index (Na D-line)	uncertainty
0	1.3292	0.005
0.1	1.3421	0.0051
0.2	1.3512	0.0051
0.3	1.3601	0.0051
0.4	1.3656	0.0051
0.5	1.3732	0.0051

System: tetraethylammonium hexafluorophosphate + methanesulfonic acid, trifluoro-; phases: Liquid
Fixed: Temperature, K = 293.15
Fixed: Pressure, kPa = 101
Property: Refractive index (Na D-line) (Liquid); method: Standard Abbe refractometry
Mass fraction of tetraethylammonium hexafluorophosphate	Refractive index (Na D-line)	uncertainty
0	1.3292	0.005
0.1	1.3398	0.0051
0.2	1.3499	0.0051
0.3	1.3602	0.0051
0.4	1.3691	0.0051

System: methanesulfonic acid, trifluoro- + tetraethylammonium hexafluoroantimonate; phases: Liquid
Fixed: Temperature, K = 293.15
Fixed: Pressure, kPa = 101
Property: Refractive index (Na D-line) (Liquid); method: Standard Abbe refractometry
Mass fraction of tetraethylammonium hexafluoroantimonate	Refractive index (Na D-line)	uncertainty
0	1.3292	0.005
0.1	1.3349	0.0051
0.2	1.3408	0.0051
0.3	1.3498	0.0051
0.4	1.3571	0.0051
0.5	1.3641	0.0051
0.6	1.3678	0.005

System: methanesulfonic acid, trifluoro- + N,N,N-triethyl-N-butylammonium tetrafluoroborate; phases: Liquid
Fixed: Temperature, K = 293.15
Fixed: Pressure, kPa = 101
Property: Refractive index (Na D-line) (Liquid); method: Standard Abbe refractometry
Mass fraction of N,N,N-triethyl-N-butylammonium tetrafluoroborate	Refractive index (Na D-line)	uncertainty
0	1.3292	0.005
0.1	1.3451	0.0052
0.2	1.3543	0.0051
0.3	1.3636	0.0051
0.4	1.3698	0.0051
0.5	1.3771	0.0051
0.6	1.3857	0.0051

System: methanesulfonic acid, trifluoro- + N,N,N-triethyl-N-butylammonium hexafluorophosphate; phases: Liquid
Fixed: Temperature, K = 293.15
Fixed: Pressure, kPa = 101
Property: Refractive index (Na D-line) (Liquid); method: Standard Abbe refractometry
Mass fraction of N,N,N-triethyl-N-butylammonium hexafluorophosphate	Refractive index (Na D-line)	uncertainty
0	1.3292	0.005
0.1	1.3405	0.0052
0.2	1.3522	0.0052
0.3	1.3632	0.0051
0.4	1.3745	0.0051
0.5	1.3786	0.005
0.6	1.3782	0.005

System: methanesulfonic acid, trifluoro- + N,N,N-triethylbutan-1-aminium hexafluorostibate; phases: Liquid
Fixed: Temperature, K = 293.15
Fixed: Pressure, kPa = 101
Property: Refractive index (Na D-line) (Liquid); method: Standard Abbe refractometry
Mass fraction of N,N,N-triethylbutan-1-aminium hexafluorostibate	Refractive index (Na D-line)	uncertainty
0	1.3292	0.005
0.1	1.3382	0.0051
0.2	1.3449	0.0051
0.3	1.3532	0.0051
0.4	1.3611	0.0051
0.5	1.3693	0.0051
0.6	1.3745	0.0051

System: methanesulfonic acid, trifluoro- + N,N,N-triethyl-N-hexylammonium tetrafluoroborate; phases: Liquid
Fixed: Pressure, kPa = 101
Fixed: Temperature, K = 293.15
Property: Refractive index (Na D-line) (Liquid); method: Standard Abbe refractometry
Mass fraction of N,N,N-triethyl-N-hexylammonium tetrafluoroborate	Refractive index (Na D-line)	uncertainty
0	1.3292	0.005
0.1	1.3475	0.0052
0.2	1.3572	0.0051
0.3	1.3654	0.0051
0.4	1.3728	0.0051
0.5	1.3782	0.0051

System: methanesulfonic acid, trifluoro- + N,N,N-triethyl-N-hexylammonium hexafluorophosphate; phases: Liquid
Fixed: Pressure, kPa = 101
Fixed: Temperature, K = 293.15
Property: Refractive index (Na D-line) (Liquid); method: Standard Abbe refractometry
Mass fraction of N,N,N-triethyl-N-hexylammonium hexafluorophosphate	Refractive index (Na D-line)	uncertainty
0	1.3292	0.005
0.1	1.3421	0.0052
0.2	1.3549	0.0052
0.3	1.3667	0.0051
0.4	1.3762	0.0051

System: methanesulfonic acid, trifluoro- + N,N,N-triethyl-N-hexylammonium hexafluoroantimonate; phases: Liquid
Fixed: Pressure, kPa = 101
Fixed: Temperature, K = 293.15
Property: Refractive index (Na D-line) (Liquid); method: Standard Abbe refractometry
Mass fraction of N,N,N-triethyl-N-hexylammonium hexafluoroantimonate	Refractive index (Na D-line)	uncertainty
0	1.3292	0.005
0.1	1.3381	0.0051
0.2	1.3462	0.0051
0.3	1.3563	0.0051
0.4	1.3628	0.0051
0.5	1.3722	0.0051
0.6	1.3809	0.0051

System: methanesulfonic acid, trifluoro- + N,N,N-triethyl-N-octylammonium tetrafluoroborate; phases: Liquid
Fixed: Pressure, kPa = 101
Fixed: Temperature, K = 293.15
Property: Refractive index (Na D-line) (Liquid); method: Standard Abbe refractometry
Mass fraction of N,N,N-triethyl-N-octylammonium tetrafluoroborate	Refractive index (Na D-line)	uncertainty
0	1.3292	0.005
0.1	1.3493	0.0052
0.2	1.3583	0.0051
0.3	1.3672	0.0051
0.4	1.3745	0.0051
0.5	1.3811	0.0051

System: methanesulfonic acid, trifluoro- + N,N,N-triethyl-N-octylammonium hexafluorophosphate; phases: Liquid
Fixed: Pressure, kPa = 101
Fixed: Temperature, K = 293.15
Property: Refractive index (Na D-line) (Liquid); method: Standard Abbe refractometry
Mass fraction of N,N,N-triethyl-N-octylammonium hexafluorophosphate	Refractive index (Na D-line)	uncertainty
0	1.3292	0.005
0.1	1.3427	0.0052
0.2	1.3562	0.0052
0.3	1.3681	0.0051
0.4	1.3781	0.0051
0.5	1.3875	0.0051

System: methanesulfonic acid, trifluoro- + N,N,N-triethyloctan-1-aminium hexafluorostibate; phases: Liquid
Fixed: Pressure, kPa = 101
Fixed: Temperature, K = 293.15
Property: Refractive index (Na D-line) (Liquid); method: Standard Abbe refractometry
Mass fraction of N,N,N-triethyloctan-1-aminium hexafluorostibate	Refractive index (Na D-line)	uncertainty
0	1.3292	0.005
0.1	1.3381	0.0051
0.2	1.3484	0.0051
0.3	1.3578	0.0051
0.4	1.3668	0.0051
0.5	1.376	0.0051
0.6	1.3866	0.0051
