Measured thermophysical data. Liquid Liquid Coexistence Curves and Turbidity Measurements of Benzonitrile + Tridecane in the Critical Region
Source: J. Chem. Eng. Data, 2012, 10.1021/je300630u
Compound 1: benzonitrile, C7H5N, InChI=1S/C7H5N/c8-6-7-4-2-1-3-5-7/h1-5H, purity 99%
Compound 2: tridecane, C13H28, InChI=1S/C13H28/c1-3-5-7-9-11-13-12-10-8-6-4-2/h3-13H2,1-2H3, purity 99%

System: benzonitrile; phases: Liquid
Fixed: Pressure, kPa = 101
Fixed: Wavelength, nm = 632.8
Property: Refractive index (other wavelength) (Liquid); method: Standard Abbe refractometry
Temperature, K	Refractive index (other wavelength)	uncertainty
293.369	1.5252	0.0004
293.987	1.5249	0.0004
294.531	1.5247	0.0004
295.089	1.5243	0.0004
295.661	1.5241	0.0004
295.84	1.5239	0.0004
296.114	1.5238	0.0004
296.798	1.5236	0.0004
297.155	1.5233	0.0004
297.911	1.523	0.0004
298.196	1.5228	0.0004
298.803	1.5225	0.0004
298.833	1.5226	0.0004
299.262	1.5223	0.0004
300.062	1.5219	0.0004
300.124	1.5219	0.0004
300.308	1.5218	0.0004
301.126	1.5214	0.0004
301.233	1.5214	0.0004
301.349	1.5213	0.0004
302.265	1.5209	0.0004
302.311	1.5209	0.0004
302.42	1.5208	0.0004
303.409	1.5203	0.0004
304.49	1.5198	0.0004
305.644	1.5192	0.0004
306.894	1.5186	0.0004
307.877	1.5181	0.0004

System: tridecane; phases: Liquid
Fixed: Pressure, kPa = 101
Fixed: Wavelength, nm = 632.8
Property: Refractive index (other wavelength) (Liquid); method: Standard Abbe refractometry
Temperature, K	Refractive index (other wavelength)	uncertainty
293.2	1.4244	0.0004
294.257	1.4239	0.0004
295.293	1.4234	0.0004
295.84	1.4231	0.0004
296.326	1.423	0.0004
297.354	1.4225	0.0004
298.374	1.4221	0.0004
299.424	1.4216	0.0004
300.387	1.4212	0.0004
301.47	1.4207	0.0004

System: benzonitrile + tridecane; phases: Liquid mixture 1, Liquid mixture 2
Fixed: Pressure, kPa = 101.3
Fixed: Wavelength, nm = 632.8
Property: Refractive index (other wavelength) (Liquid mixture 1); method: Standard Abbe refractometry
Temperature, K	Refractive index (other wavelength)	uncertainty
285.662	1.4962	0.0004
288.099	1.4923	0.0004
289.403	1.4899	0.0004
290.618	1.4875	0.0004
291.619	1.4853	0.0004
292.401	1.4833	0.0004
293.028	1.4817	0.0004
293.603	1.4799	0.0004
294.007	1.4784	0.0004
294.306	1.4773	0.0004
294.512	1.4761	0.0004
294.674	1.4755	0.0005
294.823	1.4744	0.0005
294.943	1.4736	0.0005
295.028	1.4732	0.0005
295.103	1.4724	0.0005
295.17	1.4721	0.0005
295.228	1.4713	0.0006
295.271	1.4709	0.0006
295.311	1.4703	0.0007
295.344	1.47	0.0007
295.371	1.4695	0.0007
295.396	1.469	0.001
295.411	1.4687	0.0011
295.425	1.4683	0.0012
295.441	1.4678	0.0017
295.451	1.4675	0.0013
295.459	1.4671	0.0014
295.466	1.4667	0.0016
295.472	1.4664	0.0017
295.476	1.4661	0.0018
295.483	1.4653	0.0024

System: benzonitrile + tridecane; phases: Liquid mixture 2, Liquid mixture 1
Fixed: Pressure, kPa = 101.3
Fixed: Wavelength, nm = 632.8
Property: Refractive index (other wavelength) (Liquid mixture 2); method: Standard Abbe refractometry
Temperature, K	Refractive index (other wavelength)	uncertainty
285.662	1.4426	0.0004
288.099	1.4435	0.0004
289.403	1.4444	0.0004
290.618	1.4453	0.0004
291.619	1.4463	0.0004
292.401	1.4471	0.0004
293.028	1.4481	0.0004
293.603	1.4492	0.0004
294.007	1.45	0.0004
294.306	1.4508	0.0004
294.512	1.4517	0.0004
294.674	1.4521	0.0004
294.823	1.453	0.0005
294.943	1.4537	0.0004
295.028	1.4539	0.0005
295.103	1.4546	0.0005
295.17	1.4549	0.0005
295.228	1.4554	0.0006
295.271	1.4559	0.0007
295.311	1.4565	0.0007
295.344	1.4568	0.0007
295.371	1.4572	0.0007
295.396	1.4576	0.0009
295.411	1.4579	0.001
295.425	1.4582	0.0011
295.441	1.4587	0.0016
295.451	1.459	0.0012
295.459	1.4593	0.0012
295.466	1.4597	0.0015
295.472	1.46	0.0016
295.476	1.4603	0.0017
295.483	1.461	0.0022

System: benzonitrile + tridecane; phases: Liquid
Fixed: Temperature, K = 295.84
Fixed: Pressure, kPa = 101.3
Fixed: Wavelength, nm = 632.8
Property: Refractive index (other wavelength) (Liquid); method: Standard Abbe refractometry
Mole fraction of benzonitrile	Refractive index (other wavelength)	uncertainty
0	1.4231	0.0004
0.1148	1.428	0.0004
0.2007	1.4323	0.0004
0.3192	1.439	0.0004
0.3935	1.4443	0.0004
0.5	1.4525	0.0004
0.6113	1.4629	0.0004
0.7078	1.4738	0.0004
0.8007	1.4865	0.0004
0.9009	1.5032	0.0004
1	1.5239	0.0004

System: benzonitrile + tridecane; phases: Liquid mixture 1, Liquid mixture 2
Fixed: Pressure, kPa = 101.3
Property: Mole fraction of benzonitrile (Liquid mixture 1); method: Index of refraction calibration data
Temperature, K	Mole fraction of benzonitrile	uncertainty
285.662	0.832	0.006
288.099	0.815	0.006
289.403	0.803	0.006
290.618	0.791	0.006
291.619	0.779	0.006
292.401	0.768	0.006
293.028	0.758	0.006
293.603	0.747	0.006
294.007	0.737	0.006
294.306	0.73	0.006
294.512	0.721	0.006
294.674	0.717	0.006
294.823	0.709	0.006
294.943	0.703	0.006
295.028	0.7	0.006
295.103	0.694	0.006
295.17	0.692	0.006
295.228	0.685	0.006
295.271	0.682	0.006
295.311	0.677	0.006
295.344	0.674	0.006
295.371	0.67	0.006
295.396	0.666	0.006
295.411	0.663	0.006
295.425	0.66	0.006
295.441	0.656	0.006
295.451	0.653	0.006
295.459	0.649	0.006
295.466	0.646	0.006
295.472	0.643	0.006
295.476	0.64	0.006
295.483	0.633	0.006

System: benzonitrile + tridecane; phases: Liquid mixture 2, Liquid mixture 1
Fixed: Pressure, kPa = 101.3
Property: Mole fraction of benzonitrile (Liquid mixture 2); method: Index of refraction calibration data
Temperature, K	Mole fraction of benzonitrile	uncertainty
285.662	0.299	0.006
288.099	0.331	0.006
289.403	0.353	0.006
290.618	0.374	0.006
291.619	0.395	0.006
292.401	0.411	0.006
293.028	0.429	0.006
293.603	0.446	0.006
294.007	0.459	0.006
294.306	0.471	0.006
294.512	0.483	0.006
294.674	0.489	0.006
294.823	0.5	0.006
294.943	0.509	0.006
295.028	0.512	0.006
295.103	0.521	0.006
295.17	0.524	0.006
295.228	0.53	0.006
295.271	0.536	0.006
295.311	0.543	0.006
295.344	0.546	0.006
295.371	0.551	0.006
295.396	0.555	0.006
295.411	0.559	0.006
295.425	0.562	0.006
295.441	0.567	0.006
295.451	0.571	0.006
295.459	0.574	0.006
295.466	0.578	0.006
295.472	0.581	0.006
295.476	0.584	0.006
295.483	0.591	0.006
