Measured thermophysical data. Solubility of CO2 in Binary Mixtures of Room-Temperature Ionic Liquids at High Pressures
Source: J. Chem. Eng. Data, 2012, 10.1021/je300016q
Compound 1: 1-ethyl-3-methylimidazolium tetrafluoroborate, C6H11BF4N2, InChI=1S/C6H11N2.BF4/c1-3-8-5-4-7(2)6-8;2-1(3,4)5/h4-6H,3H2,1-2H3;/q+1;-1, purity 99%
Compound 2: 1-butyl-3-methylimidazolium tetrafluoroborate, C8H15BF4N2, InChI=1S/C8H15N2.BF4/c1-3-4-5-10-7-6-9(2)8-10;2-1(3,4)5/h6-8H,3-5H2,1-2H3;/q+1;-1, purity 99%
Compound 3: 1-octyl-3-methylimidazolium bis[(trifluoromethyl)sulfonyl]imide, C14H23F6N3O4S2, InChI=1S/C12H23N2.C2F6NO4S2/c1-3-4-5-6-7-8-9-14-11-10-13(2)12-14;3-1(4,5)14(10,11)9-15(12,13)2(6,7)8/h10-12H,3-9H2,1-2H3;/q+1;-1, purity 99%
Compound 4: carbon dioxide, CO2, InChI=1S/CO2/c2-1-3, purity 99.99%

System: carbon dioxide + 1-ethyl-3-methylimidazolium tetrafluoroborate; phases: Liquid, Gas
Property: Mole fraction of carbon dioxide (Liquid); method: Gravimetric
Temperature, K	Pressure, kPa	Mole fraction of carbon dioxide	uncertainty
313.2	1130	0.0909	0.0121
313.2	1640	0.1305	0.0121
313.2	2530	0.1949	0.0121
313.2	3490	0.267	0.0121
313.2	4620	0.3306	0.0121
313.2	5470	0.3802	0.0121
333.2	1120	0.0743	0.0122
333.2	1470	0.1101	0.0121
333.2	2380	0.1664	0.0121
333.2	3310	0.2228	0.0121
333.2	4320	0.2729	0.012
333.2	5310	0.3098	0.012

System: carbon dioxide + 1-octyl-3-methylimidazolium bis[(trifluoromethyl)sulfonyl]imide; phases: Liquid, Gas
Property: Mole fraction of carbon dioxide (Liquid); method: Gravimetric
Temperature, K	Pressure, kPa	Mole fraction of carbon dioxide	uncertainty
313.2	1130	0.2633	0.0125
313.2	1940	0.4045	0.0125
313.2	2820	0.5394	0.0124
313.2	3690	0.6468	0.0122
313.2	4720	0.7372	0.0122
313.2	5540	0.7915	0.0121
333.2	1200	0.21	0.0125
333.2	1830	0.3208	0.0124
333.2	2720	0.4355	0.0123
333.2	3700	0.5349	0.0122
333.2	4680	0.617	0.0122
333.2	5530	0.6657	0.0121

System: carbon dioxide + 1-butyl-3-methylimidazolium tetrafluoroborate; phases: Liquid, Gas
Property: Mole fraction of carbon dioxide (Liquid); method: Gravimetric
Temperature, K	Pressure, kPa	Mole fraction of carbon dioxide	uncertainty
313.2	1120	0.1158	0.0122
313.2	1940	0.2055	0.0122
313.2	2860	0.2849	0.0121
313.2	3830	0.337	0.0121
313.2	4910	0.4106	0.0121
313.2	5530	0.4402	0.0121
333.2	1130	0.093	0.0122
333.2	1480	0.1304	0.0121
333.2	2420	0.2077	0.0121
333.2	3410	0.2615	0.0121
333.2	4420	0.3167	0.0121
333.2	5390	0.36	0.0121

System: carbon dioxide + 1-ethyl-3-methylimidazolium tetrafluoroborate + 1-octyl-3-methylimidazolium bis[(trifluoromethyl)sulfonyl]imide; phases: Liquid, Gas
Property: Mole fraction of carbon dioxide (Liquid); method: Gravimetric method
Solvent: Mass fraction of 1-ethyl-3-methylimidazolium tetrafluoroborate	Temperature, K	Pressure, kPa	Mole fraction of carbon dioxide	uncertainty
0	313.2	1130	0.2633	0.0125
0	313.2	1940	0.4045	0.0125
0	313.2	2820	0.5394	0.0124
0	313.2	3690	0.6468	0.0123
0	313.2	4720	0.7372	0.0122
0	313.2	5540	0.7915	0.0122
0	333.2	1200	0.21	0.0125
0	333.2	1830	0.3208	0.0124
0	333.2	2720	0.4355	0.0123
0	333.2	3700	0.5349	0.0122
0	333.2	4680	0.617	0.0122
0	333.2	5530	0.6657	0.0122
0.2	313.2	1120	0.2001	0.0123
0.2	313.2	1790	0.3013	0.0124
0.2	313.2	2490	0.4158	0.0123
0.2	313.2	3410	0.5095	0.0123
0.2	313.2	4380	0.6086	0.0122
0.2	313.2	5520	0.6831	0.0123
0.2	333.2	1210	0.17	0.0122
0.2	333.2	2320	0.2994	0.0122
0.2	333.2	3190	0.3707	0.0122
0.2	333.2	4280	0.4562	0.0122
0.2	333.2	4710	0.487	0.0122
0.2	333.2	5320	0.5198	0.0123
0.5	313.2	1210	0.1857	0.0123
0.5	313.2	2180	0.3204	0.0123
0.5	313.2	3210	0.4203	0.0122
0.5	313.2	4120	0.5002	0.0122
0.5	313.2	4710	0.5388	0.0122
0.5	313.2	5380	0.575	0.0123
0.5	333.2	1220	0.1308	0.0121
0.5	333.2	2210	0.2209	0.0122
0.5	333.2	3140	0.289	0.0291
0.5	333.2	4030	0.3519	0.0121
0.5	333.2	4820	0.3901	0.0121
0.5	333.2	5490	0.4135	0.0122
0.8	313.2	1190	0.1609	0.0123
0.8	313.2	2230	0.2747	0.0122
0.8	313.2	3290	0.3819	0.0122
0.8	313.2	4030	0.4405	0.0122
0.8	313.2	4630	0.4746	0.0121
0.8	313.2	5510	0.5154	0.0121
0.8	333.2	1210	0.1201	0.0121
0.8	333.2	2240	0.2001	0.0121
0.8	333.2	3130	0.2605	0.0121
0.8	333.2	4090	0.32	0.0121
0.8	333.2	4740	0.3556	0.0121
0.8	333.2	5480	0.3765	0.0121
1	313.2	1130	0.0909	0.0121
1	313.2	1640	0.1305	0.0121
1	313.2	2530	0.1949	0.0121
1	313.2	3490	0.267	0.0121
1	313.2	4620	0.3306	0.0121
1	313.2	5470	0.3802	0.0121
1	333.2	1120	0.0743	0.0122
1	333.2	1470	0.1101	0.0121
1	333.2	2380	0.1664	0.0121
1	333.2	3310	0.2228	0.0121
1	333.2	4320	0.2729	0.012
1	333.2	5310	0.3098	0.012

System: carbon dioxide + 1-butyl-3-methylimidazolium tetrafluoroborate + 1-octyl-3-methylimidazolium bis[(trifluoromethyl)sulfonyl]imide; phases: Liquid, Gas
Property: Mole fraction of carbon dioxide (Liquid); method: Gravimetric method
Solvent: Mass fraction of 1-butyl-3-methylimidazolium tetrafluoroborate	Temperature, K	Pressure, kPa	Mole fraction of carbon dioxide	uncertainty
0.2	313.2	1130	0.22	0.0125
0.2	313.2	1720	0.3213	0.0125
0.2	313.2	2340	0.4178	0.0123
0.2	313.2	3320	0.5245	0.0123
0.2	313.2	4330	0.6186	0.0122
0.2	313.2	5390	0.6931	0.0122
0.2	333.2	1300	0.1975	0.0122
0.2	333.2	2290	0.3121	0.0122
0.2	333.2	3330	0.4094	0.0122
0.2	333.2	4210	0.4865	0.0122
0.2	333.2	4820	0.5417	0.0122
0.2	333.2	5680	0.6109	0.0122
0.5	313.2	1210	0.2057	0.0123
0.5	313.2	2220	0.3404	0.0123
0.5	313.2	3190	0.4403	0.0122
0.5	313.2	4100	0.5202	0.0122
0.5	313.2	4640	0.5588	0.0121
0.5	313.2	5120	0.575	0.0122
0.5	333.2	1210	0.1588	0.0122
0.5	333.2	2220	0.26	0.0122
0.5	333.2	3170	0.355	0.0122
0.5	333.2	4020	0.4253	0.0122
0.5	333.2	4930	0.5081	0.0122
0.5	333.2	5500	0.5602	0.0122
0.8	313.2	1200	0.181	0.0123
0.8	313.2	2230	0.2947	0.0122
0.8	313.2	3280	0.4019	0.0122
0.8	313.2	4020	0.4605	0.0121
0.8	313.2	4640	0.4946	0.0121
0.8	313.2	5130	0.5154	0.0121
0.8	333.2	1210	0.1355	0.0122
0.8	333.2	2190	0.2426	0.0122
0.8	333.2	3280	0.3426	0.0121
0.8	333.2	4340	0.4152	0.0121
0.8	333.2	4820	0.4505	0.0122
0.8	333.2	5460	0.5018	0.0121
1	313.2	1120	0.1158	0.0122
1	313.2	1940	0.2055	0.0122
1	313.2	2860	0.2849	0.0121
1	313.2	3830	0.337	0.0121
1	313.2	4910	0.4106	0.0121
1	313.2	5530	0.4402	0.0121
1	333.2	1130	0.093	0.0122
1	333.2	1480	0.1304	0.0121
1	333.2	2420	0.2077	0.0121
1	333.2	3410	0.2615	0.0121
1	333.2	4420	0.3167	0.0121
1	333.2	5390	0.36	0.0121
