Measured thermophysical data. Apparent Molar Volumes and Expansibilities of Thiourea, 1,3-Dimethylurea, and 1,3-Dimethylthiourea in Water at Temperatures from T = (278.15 to 318.15) K and Atmospheric Pressure
Source: J. Chem. Eng. Data, 2013, 10.1021/je301203z
Compound 1: 1,3-dimethylurea, C3H8N2O, InChI=1S/C3H8N2O/c1-4-3(6)5-2/h1-2H3,(H2,4,5,6), purity 99%
Compound 2: N,N'-dimethylthiourea, C3H8N2S, InChI=1S/C3H8N2S/c1-4-3(6)5-2/h1-2H3,(H2,4,5,6), purity 99%
Compound 3: thiourea, CH4N2S, InChI=1S/CH4N2S/c2-1(3)4/h(H4,2,3,4), purity 99%
Compound 4: water, H2O, InChI=1S/H2O/h1H2, purity 99.8%
Compound 5: urea, CH4N2O, InChI=1S/CH4N2O/c2-1(3)4/h(H4,2,3,4), purity 99%

System: thiourea + water; phases: Liquid
Fixed: Pressure, kPa = 101
Property: Mass density, kg/m3 (Liquid); method: Vibrating tube method
Temperature, K	Molality, mol/kg of thiourea	Mass density, kg/m3	uncertainty
278.15	0.05326	1001.24	0.05
278.15	0.0967	1002.27	0.05
278.15	0.2115	1004.96	0.05
278.15	0.31509	1007.36	0.05
278.15	0.40681	1009.45	0.05
278.15	0.49771	1011.5	0.06
278.15	0.60709	1013.94	0.06
278.15	0.74869	1017.03	0.06
278.15	0.91871	1020.66	0.06
278.15	0.94601	1021.24	0.06
278.15	1.0535	1023.48	0.06
278.15	1.2243	1026.96	0.06
278.15	1.3577	1029.62	0.06
288.15	0.05326	1000.3	0.06
288.15	0.0967	1001.27	0.05
288.15	0.2115	1003.81	0.05
288.15	0.31509	1006.07	0.05
288.15	0.40681	1008.04	0.05
288.15	0.49771	1009.98	0.05
288.15	0.60709	1012.28	0.06
288.15	0.74869	1015.21	0.06
288.15	0.91871	1018.66	0.06
288.15	0.94601	1019.21	0.06
288.15	1.0535	1021.34	0.06
288.15	1.2243	1024.66	0.06
288.15	1.3577	1027.2	0.06
288.15	1.5185	1030.19	0.06
298.15	0.05326	998.19	0.06
298.15	0.0967	999.11	0.05
298.15	0.2115	1001.54	0.05
298.15	0.31509	1003.7	0.05
298.15	0.40681	1005.59	0.05
298.15	0.49771	1007.44	0.05
298.15	0.60709	1009.65	0.05
298.15	0.74869	1012.46	0.06
298.15	0.91871	1015.77	0.06
298.15	0.94601	1016.3	0.06
298.15	1.0535	1018.35	0.06
298.15	1.2243	1021.56	0.06
298.15	1.3577	1024.01	0.06
298.15	1.5185	1026.91	0.06
308.15	0.05326	995.13	0.06
308.15	0.0967	996.02	0.05
308.15	0.2115	998.35	0.05
308.15	0.31509	1000.42	0.05
308.15	0.40681	1002.25	0.05
308.15	0.49771	1004.03	0.05
308.15	0.60709	1006.16	0.05
308.15	0.74869	1008.88	0.05
308.15	0.91871	1012.08	0.06
308.15	0.94601	1012.59	0.06
308.15	1.0535	1014.58	0.06
308.15	1.2243	1017.69	0.06
308.15	1.3577	1020.07	0.06
308.15	1.5185	1022.9	0.06
318.15	0.05326	991.28	0.05
318.15	0.0967	992.14	0.05
318.15	0.2115	994.39	0.05
318.15	0.31509	996.41	0.05
318.15	0.40681	998.18	0.05
318.15	0.49771	999.91	0.05
318.15	0.60709	1001.97	0.05
318.15	0.74869	1004.61	0.05
318.15	0.91871	1007.72	0.05
318.15	0.94601	1008.22	0.05
318.15	1.0535	1010.15	0.05
318.15	1.2243	1013.17	0.06
318.15	1.3577	1015.49	0.06
318.15	1.5185	1018.24	0.06

System: urea + water; phases: Liquid
Fixed: Pressure, kPa = 101
Property: Mass density, kg/m3 (Liquid); method: Vibrating tube method
Temperature, K	Molality, mol/kg of urea	Mass density, kg/m3	uncertainty
278.15	0.04989	1000.84	0.05
278.15	0.05022	1000.85	0.05
278.15	0.09992	1001.71	0.05
278.15	0.1009	1001.73	0.05
278.15	0.1991	1003.43	0.05
278.15	0.2013	1003.46	0.05
278.15	0.4998	1008.56	0.05
278.15	0.5003	1008.56	0.05
278.15	0.9984	1016.7	0.06
278.15	1.0006	1016.72	0.06
278.15	1.4998	1024.46	0.07
278.15	1.5013	1024.51	0.07
288.15	0.04989	999.93	0.05
288.15	0.05022	999.93	0.05
288.15	0.09992	1000.76	0.05
288.15	0.1009	1000.77	0.05
288.15	0.1991	1002.37	0.19
288.15	0.2013	1002.4	0.17
288.15	0.4998	1007.22	0.05
288.15	0.5003	1007.21	0.05
288.15	0.9984	1014.93	0.17
288.15	1.0006	1014.95	0.15
288.15	1.4998	1022.29	0.25
288.15	1.5013	1022.35	0.17
298.15	0.04989	997.83	0.05
298.15	0.05022	997.84	0.05
298.15	0.09992	998.61	0.05
298.15	0.1009	998.64	0.05
298.15	0.1991	1000.18	0.16
298.15	0.2013	1000.19	0.14
298.15	0.4998	1004.8	0.05
298.15	0.5003	1004.79	0.05
298.15	0.9984	1012.18	0.14
298.15	1.0006	1012.19	0.12
298.15	1.4998	1019.22	0.2
298.15	1.5013	1019.28	0.13
308.15	0.04989	994.79	0.05
308.15	0.05022	994.8	0.05
308.15	0.09992	995.55	0.05
308.15	0.1009	995.57	0.05
308.15	0.1991	997.04	0.14
308.15	0.2013	997.07	0.12
308.15	0.4998	1001.52	0.05
308.15	0.5003	1001.52	0.05
308.15	0.9984	1008.64	0.12
308.15	1.0006	1008.66	0.11
308.15	1.4998	1015.46	0.19
308.15	1.5013	1015.52	0.12
318.15	0.04989	990.95	0.05
318.15	0.05022	990.96	0.05
318.15	0.09992	991.68	0.05
318.15	0.1009	991.71	0.05
318.15	0.1991	993.15	0.05
318.15	0.2013	993.17	0.05
318.15	0.4998	997.49	0.05
318.15	0.5003	997.48	0.05
318.15	0.9984	1004.42	0.05
318.15	1.0006	1004.44	0.05
318.15	1.4998	1011.06	0.06
318.15	1.5013	1011.11	0.06

System: 1,3-dimethylurea + water; phases: Liquid
Fixed: Pressure, kPa = 101
Property: Mass density, kg/m3 (Liquid); method: Vibrating tube method
Temperature, K	Molality, mol/kg of 1,3-dimethylurea	Mass density, kg/m3	uncertainty
278.15	0.05811	1000.51	0.05
278.15	0.09557	1000.87	0.05
278.15	0.20236	1001.88	0.05
278.15	0.29879	1002.79	0.05
278.15	0.3971	1003.72	0.05
278.15	0.48199	1004.52	0.05
278.15	0.57345	1005.39	0.05
278.15	0.69526	1006.54	0.05
278.15	0.80011	1007.53	0.05
278.15	0.88735	1008.36	0.05
278.15	0.98531	1009.29	0.05
278.15	1.1377	1010.73	0.05
278.15	1.3082	1012.35	0.05
278.15	1.4997	1014.17	0.05
288.15	0.05811	999.62	0.05
288.15	0.09557	999.95	0.05
288.15	0.20236	1000.89	0.05
288.15	0.29879	1001.74	0.05
288.15	0.3971	1002.6	0.05
288.15	0.48199	1003.35	0.05
288.15	0.57345	1004.15	0.05
288.15	0.69526	1005.22	0.05
288.15	0.80011	1006.14	0.05
288.15	0.88735	1006.9	0.05
288.15	0.98531	1007.75	0.05
288.15	1.1377	1009.08	0.05
288.15	1.3082	1010.56	0.05
288.15	1.4997	1012.21	0.05
298.15	0.05811	997.53	0.05
298.15	0.09557	997.85	0.05
298.15	0.20236	998.74	0.05
298.15	0.29879	999.54	0.05
298.15	0.3971	1000.35	0.05
298.15	0.48199	1001.06	0.05
298.15	0.57345	1001.81	0.05
298.15	0.69526	1002.81	0.05
298.15	0.80011	1003.67	0.05
298.15	0.88735	1004.38	0.05
298.15	0.98531	1005.18	0.05
298.15	1.1377	1006.41	0.05
298.15	1.3082	1007.79	0.05
298.15	1.4997	1009.32	0.05
308.15	0.05811	994.5	0.05
308.15	0.09557	994.8	0.05
308.15	0.20236	995.65	0.05
308.15	0.29879	996.41	0.05
308.15	0.3971	997.18	0.05
308.15	0.48199	997.84	0.05
308.15	0.57345	998.56	0.05
308.15	0.69526	999.5	0.05
308.15	0.80011	1000.31	0.05
308.15	0.88735	1000.98	0.05
308.15	0.98531	1001.73	0.05
308.15	1.1377	1002.89	0.05
308.15	1.3082	1004.18	0.05
308.15	1.4997	1005.61	0.05
318.15	0.05811	990.66	0.05
318.15	0.09557	990.94	0.05
318.15	0.20236	991.75	0.05
318.15	0.29879	992.48	0.05
318.15	0.3971	993.21	0.05
318.15	0.48199	993.84	0.05
318.15	0.57345	994.52	0.05
318.15	0.69526	995.41	0.05
318.15	0.80011	996.17	0.05
318.15	0.88735	996.8	0.05
318.15	0.98531	997.51	0.05
318.15	1.1377	998.59	0.05
318.15	1.3082	999.8	0.05
318.15	1.4997	1001.13	0.05

System: N,N'-dimethylthiourea + water; phases: Liquid
Fixed: Pressure, kPa = 101
Property: Mass density, kg/m3 (Liquid); method: Vibrating tube method
Temperature, K	Molality, mol/kg of N,N'-dimethylthiourea	Mass density, kg/m3	uncertainty
278.15	0.05361	1000.75	0.05
278.15	0.09097	1001.29	0.05
278.15	0.20178	1002.88	0.05
278.15	0.29704	1004.24	0.05
278.15	0.40888	1005.82	0.05
278.15	0.5618	1007.96	0.05
278.15	0.78496	1011.03	0.05
278.15	0.89219	1012.49	0.05
278.15	1.0165	1014.16	0.05
278.15	1.042	1014.5	0.05
278.15	1.21	1016.72	0.05
278.15	1.4656	1020.02	0.06
278.15	1.5036	1020.51	0.06
288.15	0.05361	999.84	0.05
288.15	0.09097	1000.34	0.05
288.15	0.20178	1001.85	0.05
288.15	0.29704	1003.13	0.05
288.15	0.40888	1004.62	0.05
288.15	0.5618	1006.63	0.05
288.15	0.78496	1009.52	0.05
288.15	0.89219	1010.89	0.05
288.15	1.0165	1012.46	0.06
288.15	1.042	1012.78	0.05
288.15	1.21	1014.86	0.05
288.15	1.4656	1017.97	0.06
288.15	1.5036	1018.42	0.05
298.15	0.05361	997.75	0.05
298.15	0.09097	998.23	0.05
298.15	0.20178	999.67	0.05
298.15	0.29704	1000.88	0.05
298.15	0.40888	1002.3	0.05
298.15	0.5618	1004.21	0.05
298.15	0.78496	1006.96	0.05
298.15	0.89219	1008.26	0.05
298.15	1.0165	1009.75	0.06
298.15	1.042	1010.05	0.05
298.15	1.21	1012.02	0.05
298.15	1.4656	1014.97	0.06
298.15	1.5036	1015.4	0.05
308.15	0.05361	994.71	0.05
308.15	0.09097	995.18	0.05
308.15	0.20178	996.55	0.05
308.15	0.29704	997.71	0.05
308.15	0.40888	999.07	0.05
308.15	0.5618	1000.9	0.05
308.15	0.78496	1003.53	0.05
308.15	0.89219	1004.77	0.05
308.15	1.0165	1006.19	0.05
308.15	1.042	1006.47	0.05
308.15	1.21	1008.36	0.05
308.15	1.4656	1011.17	0.06
308.15	1.5036	1011.58	0.05
318.15	0.05361	990.86	0.05
318.15	0.09097	991.31	0.05
318.15	0.20178	992.62	0.05
318.15	0.29704	993.74	0.05
318.15	0.40888	995.04	0.05
318.15	0.5618	996.8	0.05
318.15	0.78496	999.31	0.05
318.15	0.89219	1000.49	0.05
318.15	1.0165	1001.85	0.05
318.15	1.042	1002.13	0.05
318.15	1.21	1003.93	0.05
318.15	1.4656	1006.61	0.05
318.15	1.5036	1007	0.05
