Measured thermophysical data. Phase Equilibria in the Ternary Systems K2SO4 K2B4O7 H2O and Na2SO4 Na2B4O7 H2O at 348 K
Source: J. Chem. Eng. Data, 2012, 10.1021/je3006387
Compound 1: potassium sulfate, K2O4S, InChI=1S/2K.H2O4S/c;;1-5(2,3)4/h;;(H2,1,2,3,4)/q2*+1;/p-2, purity 99%
Compound 2: potassium tetraborate, B4K2O7, InChI=1S/B4O7.2K/c5-1-7-3-9-2(6)10-4(8-1)11-3;;/q-2;2*+1, purity 99%
Compound 3: water, H2O, InChI=1S/H2O/h1H2, purity 99.8%
Compound 4: sodium tetraborate, B4Na2O7, InChI=1S/B4O7.2Na/c5-1-9-3(7)11-4(8)10-2-6;;/q-2;2*+1, purity 99%
Compound 5: sodium sulfate, Na2O4S, InChI=1S/2Na.H2O4S/c;;1-5(2,3)4/h;;(H2,1,2,3,4)/q2*+1;/p-2, purity 99%

System: potassium tetraborate + water + potassium sulfate; phases: Liquid, Crystal
Fixed: Pressure, kPa = 101
Fixed: Temperature, K = 348
Property: Mass density, kg/m3 (Liquid); method: Pycnometric method
Mass fraction of potassium tetraborate	Mass density, kg/m3	uncertainty
0	1271.6	8
0.0817	1313.7	8
0.1292	1344.5	8
0.1813	1389.3	8
0.2627	1456.8	8
0.2993	1492.6	8.1

System: potassium tetraborate + water + potassium sulfate; phases: Liquid, Crystal of intercomponent compound 1
Fixed: Pressure, kPa = 101
Fixed: Temperature, K = 348
Property: Mass density, kg/m3 (Liquid); method: Pycnometric method
Mass fraction of potassium tetraborate	Mass density, kg/m3	uncertainty
0.2959	1493.4	8.2
0.2986	1505.9	8.2
0.2991	1496.2	8.2
0.3066	1498.5	8.2
0.3134	1492.1	8.2
0.3279	1510.1	8.2

System: potassium tetraborate + water + potassium sulfate; phases: Liquid, Crystal, Crystal of intercomponent compound 1
Property: Mass density, kg/m3 (Liquid); method: Pycnometric method
Temperature, K	Pressure, kPa	Mass density, kg/m3	uncertainty
348	101	1497.3	8

System: potassium tetraborate + water + potassium sulfate; phases: Liquid, Crystal of intercomponent compound 1, Crystal
Property: Mass fraction of potassium tetraborate (Liquid); method: Titration method
Temperature, K	Pressure, kPa	Mass fraction of potassium tetraborate	uncertainty
348	101	0.3074	0.01

System: potassium tetraborate + water + potassium sulfate; phases: Liquid, Crystal
Fixed: Pressure, kPa = 101
Fixed: Temperature, K = 348
Property: Mass fraction of potassium sulfate (Liquid); method: Titration method
Mass fraction of potassium tetraborate	Mass fraction of potassium sulfate	uncertainty
0	0.171	0.01
0.0817	0.149	0.0106
0.1292	0.1235	0.0111
0.1813	0.1	0.0106
0.2627	0.0745	0.0108
0.2993	0.0507	0.0119

System: potassium tetraborate + water + potassium sulfate; phases: Liquid, Crystal, Crystal
Property: Mass fraction of potassium sulfate (Liquid); method: Titration method
Temperature, K	Pressure, kPa	Mass fraction of potassium sulfate	uncertainty
348	101	0.0443	0.01

System: potassium tetraborate + water + potassium sulfate; phases: Liquid, Crystal of intercomponent compound 1
Fixed: Pressure, kPa = 101
Fixed: Temperature, K = 348
Property: Mass fraction of potassium sulfate (Liquid); method: Titration method
Mass fraction of potassium tetraborate	Mass fraction of potassium sulfate	uncertainty
0.2959	0.0607	0.013
0.2986	0.0563	0.0129
0.2991	0.0542	0.0122
0.3066	0.0518	0.0154
0.3134	0.0442	0.0145
0.3279	0.0241	0.0139
0.3577	0	

System: sodium tetraborate + water + sodium sulfate; phases: Liquid, Crystal of intercomponent compound 1
Fixed: Pressure, kPa = 101
Fixed: Temperature, K = 348
Property: Mass density, kg/m3 (Liquid); method: Pycnometric method
Mass fraction of sodium tetraborate	Mass density, kg/m3	uncertainty
0.0943	1516.3	21.2
0.1039	1492.4	20.1
0.1111	1483.4	21.6
0.1334	1438.1	16.5
0.1617	1409.4	14.7
0.177	1383.2	18.9

System: sodium tetraborate + water + sodium sulfate; phases: Liquid, Crystal
Fixed: Pressure, kPa = 101
Fixed: Temperature, K = 348
Property: Mass density, kg/m3 (Liquid); method: Pycnometric method
Mass fraction of sodium tetraborate	Mass density, kg/m3	uncertainty
0	1457.1	8
0.0205	1475	13.1
0.038	1496.5	9.4
0.0865	1510.1	8.5
0.0932	1516.4	8.8
0.0944	1517.9	8.9

System: sodium tetraborate + water + sodium sulfate; phases: Liquid, Crystal, Crystal of intercomponent compound 1
Property: Mass density, kg/m3 (Liquid); method: Pycnometric method
Temperature, K	Pressure, kPa	Mass density, kg/m3	uncertainty
348	101	1524.9	8

System: sodium tetraborate + water + sodium sulfate; phases: Liquid, Crystal, Crystal of intercomponent compound 1
Property: Mass fraction of sodium tetraborate (Liquid); method: Titration method
Temperature, K	Pressure, kPa	Mass fraction of sodium tetraborate	uncertainty
348	101	0.0961	0.01

System: sodium tetraborate + water + sodium sulfate; phases: Liquid, Crystal
Fixed: Temperature, K = 348
Fixed: Pressure, kPa = 101
Property: Mass fraction of sodium sulfate (Liquid); method: Titration method
Mass fraction of sodium tetraborate	Mass fraction of sodium sulfate	uncertainty
0	0.303	0.01
0.0205	0.2974	0.0107
0.038	0.2886	0.0115
0.0865	0.261	0.0115
0.0932	0.2557	0.0117
0.0944	0.259	0.0113

System: sodium tetraborate + water + sodium sulfate; phases: Liquid, Crystal of intercomponent compound 1
Fixed: Temperature, K = 348
Fixed: Pressure, kPa = 101
Property: Mass fraction of sodium sulfate (Liquid); method: Titration method
Mass fraction of sodium tetraborate	Mass fraction of sodium sulfate	uncertainty
0.0943	0.2602	0.0364
0.1039	0.2352	0.0388
0.1111	0.2015	0.0361
0.1334	0.1245	0.0234
0.1617	0.0922	0.0157
0.177	0.0714	0.0196
0.2172	0	

System: sodium tetraborate + water + sodium sulfate; phases: Liquid, Crystal, Crystal of intercomponent compound 1
Property: Mass fraction of sodium sulfate (Liquid); method: Titration method
Temperature, K	Pressure, kPa	Mass fraction of sodium sulfate	uncertainty
348	101	0.2568	0.01
