Measured thermophysical data. Thermal and Volumetric Properties of Four Aqueous Aroma Compounds at Infinite Dilution
Source: J. Chem. Eng. Data, 2012, 10.1021/je300280s
Compound 1: water, H2O, InChI=1S/H2O/h1H2, purity 99.99%
Compound 2: propyl ethanoate, C5H10O2, InChI=1S/C5H10O2/c1-3-4-7-5(2)6/h3-4H2,1-2H3
Compound 3: methyl butanoate, C5H10O2, InChI=1S/C5H10O2/c1-3-4-5(6)7-2/h3-4H2,1-2H3
Compound 4: 2,3-butanedione, C4H6O2, InChI=1S/C4H6O2/c1-3(5)4(2)6/h1-2H3
Compound 5: (Z)-3-hexen-1-ol, C6H12O, InChI=1S/C6H12O/c1-2-3-4-5-6-7/h3-4,7H,2,5-6H2,1H3/b4-3-

System: propyl ethanoate; phases: Liquid
Fixed: Pressure, kPa = 101.325
Property: Mass density, kg/m3 (Liquid); method: Vibrating tube method
Temperature, K	Mass density, kg/m3	uncertainty
288.15	893.2	0.2
298.15	882.05	0.2
308.15	870.87	0.2
318.15	859.52	0.2

System: methyl butanoate; phases: Liquid
Fixed: Pressure, kPa = 101.325
Property: Mass density, kg/m3 (Liquid); method: Vibrating tube method
Temperature, K	Mass density, kg/m3	uncertainty
288.15	903.34	0.27
293.15	897.88	0.27
298.15	892.38	0.27
303.15	886.86	0.27
308.15	881.3	0.27
313.15	875.74	0.27
318.15	870.14	0.27

System: 2,3-butanedione; phases: Liquid
Fixed: Pressure, kPa = 101.325
Property: Mass density, kg/m3 (Liquid); method: Vibrating tube method
Temperature, K	Mass density, kg/m3	uncertainty
288.15	998.09	0.27
293.15	991.78	0.27
298.15	985.5	0.27
303.15	979.18	0.27
308.15	972.83	0.27
313.15	966.48	0.27
318.15	960.08	0.27

System: (Z)-3-hexen-1-ol; phases: Liquid
Fixed: Pressure, kPa = 101.325
Property: Mass density, kg/m3 (Liquid); method: Vibrating tube method
Temperature, K	Mass density, kg/m3	uncertainty
288.15	856.22	0.68
293.15	852.44	0.68
298.15	848.64	0.67
308.15	840.99	0.67
318.15	833.27	0.66

System: propyl ethanoate + water; phases: Liquid
Fixed: Pressure, kPa = 101.3
Property: Excess molar enthalpy (molar enthalpy of mixing), kJ/mol (Liquid); method: Flow calorimetry
Temperature, K	Mole fraction of propyl ethanoate	Excess molar enthalpy (molar enthalpy of mixing), kJ/mol	uncertainty
288.15	0.000935	-0.01142	0.00086
288.15	0.001246	-0.01523	0.00089
288.15	0.001248	-0.01517	0.00089
288.15	0.001558	-0.0189	0.00092
288.15	0.00156	-0.01867	0.00092
288.15	0.001869	-0.0224	0.00095
288.15	0.001871	-0.02234	0.00095
288.15	0.00218	-0.02592	0.00098
288.15	0.002182	-0.02577	0.00097
288.15	0.002491	-0.0294	0.001
288.15	0.002494	-0.02963	0.001
298.15	0.000935	-0.00863	0.00084
298.15	0.000936	-0.00879	0.00084
298.15	0.000937	-0.00887	0.00084
298.15	0.001247	-0.01146	0.00086
298.15	0.001248	-0.01157	0.00086
298.15	0.001249	-0.01162	0.00086
298.15	0.001558	-0.01451	0.00089
298.15	0.00156	-0.01433	0.00089
298.15	0.001869	-0.01691	0.00091
298.15	0.001871	-0.01703	0.00091
298.15	0.001872	-0.01694	0.00091
298.15	0.002181	-0.01976	0.00093
298.15	0.002183	-0.01951	0.00093
298.15	0.002492	-0.02254	0.00095
298.15	0.00156	-0.01436	0.00089
298.15	0.002183	-0.01975	0.00093
308.15	0.000936	-0.00618	0.00082
308.15	0.001247	-0.00821	0.00084
308.15	0.001559	-0.01027	0.00085
308.15	0.00187	-0.01196	0.00087
308.15	0.002181	-0.01389	0.00088
308.15	0.002492	-0.01549	0.00089
308.15	0.000936	-0.00617	0.00082
308.15	0.001247	-0.00823	0.00084
308.15	0.001559	-0.0102	0.00085
308.15	0.00187	-0.0122	0.00087
308.15	0.002181	-0.01398	0.00088
308.15	0.002492	-0.01551	0.00089
318.15	0.000936	-0.00381	0.0008
318.15	0.000937	-0.0039	0.0008
318.15	0.001247	-0.00499	0.00081
318.15	0.001248	-0.00512	0.00081
318.15	0.001559	-0.00619	0.00082
318.15	0.001561	-0.00618	0.00082
318.15	0.00187	-0.00731	0.00083
318.15	0.001873	-0.00721	0.00083
318.15	0.002182	-0.00842	0.00084
318.15	0.002184	-0.0083	0.00084
318.15	0.002493	-0.00923	0.00085
318.15	0.002496	-0.00924	0.00085

System: propyl ethanoate + water; phases: Liquid
Fixed: Pressure, kPa = 101.3
Property: Mass density, kg/m3 (Liquid); method: Vibrating tube method
Temperature, K	Mole fraction of propyl ethanoate	Mass density, kg/m3	uncertainty
288.15	0.000935	999.019	0.033
288.15	0.001246	998.986	0.033
288.15	0.001248	998.988	0.033
288.15	0.001558	998.959	0.033
288.15	0.00156	998.962	0.033
288.15	0.001869	998.934	0.033
288.15	0.001871	998.936	0.033
288.15	0.00218	998.909	0.033
288.15	0.002182	998.906	0.033
288.15	0.002491	998.876	0.033
288.15	0.002494	998.882	0.033
298.15	0.000935	996.903	0.103
298.15	0.000936	996.9	0.034
298.15	0.000937	996.898	0.103
298.15	0.001247	996.856	0.132
298.15	0.001248	996.852	0.034
298.15	0.001249	996.848	0.133
298.15	0.001558	996.807	0.167
298.15	0.00156	996.803	0.172
298.15	0.001869	996.762	0.158
298.15	0.001871	996.758	0.205
298.15	0.001872	996.748	0.035
298.15	0.002181	996.714	0.223
298.15	0.002183	996.703	0.223
298.15	0.002492	996.669	0.274
298.15	0.002494	996.669	0.034
298.15	0.002495	996.655	0.118
298.15	0.00156	996.805	0.171
298.15	0.002183	996.709	0.23
308.15	0.000936	993.831	0.037
308.15	0.001247	993.761	0.037
308.15	0.001559	993.691	0.037
308.15	0.00187	993.628	0.037
308.15	0.002181	993.559	0.037
308.15	0.002492	993.5	0.037
308.15	0.000936	993.832	0.037
308.15	0.001247	993.761	0.037
308.15	0.001559	993.692	0.037
308.15	0.00187	993.621	0.037
308.15	0.002181	993.557	0.037
308.15	0.002492	993.503	0.037
318.15	0.000936	989.957	0.039
318.15	0.000937	989.951	0.039
318.15	0.001247	989.872	0.039
318.15	0.001248	989.86	0.039
318.15	0.001559	989.782	0.04
318.15	0.001561	989.779	0.04
318.15	0.00187	989.693	0.04
318.15	0.001873	989.698	0.04
318.15	0.002182	989.605	0.04
318.15	0.002184	989.612	0.04
318.15	0.002493	989.536	0.04
318.15	0.002496	989.532	0.04

System: methyl butanoate + water; phases: Liquid
Fixed: Pressure, kPa = 101.3
Property: Excess molar enthalpy (molar enthalpy of mixing), kJ/mol (Liquid); method: Flow calorimetry
Temperature, K	Mole fraction of methyl butanoate	Excess molar enthalpy (molar enthalpy of mixing), kJ/mol	uncertainty
288.15	0.000628	-0.00684	0.00083
288.15	0.000941	-0.01035	0.00085
288.15	0.000943	-0.0102	0.00085
288.15	0.001255	-0.01335	0.00088
288.15	0.001257	-0.01344	0.00088
288.15	0.001569	-0.01685	0.00091
288.15	0.00157	-0.0166	0.0009
288.15	0.001882	-0.01981	0.00094
288.15	0.001884	-0.02017	0.00094
288.15	0.000628	-0.00688	0.00083
298.15	0.000628	-0.0051	0.00081
298.15	0.000942	-0.00771	0.00083
298.15	0.001256	-0.01006	0.00085
298.15	0.001569	-0.01238	0.00087
298.15	0.00157	-0.01255	0.00087
298.15	0.001882	-0.01506	0.00089
298.15	0.001883	-0.01467	0.00089
298.15	0.002195	-0.01683	0.0009
298.15	0.002197	-0.01689	0.00091
298.15	0.000628	-0.00515	0.00081
298.15	0.000942	-0.00764	0.00083
298.15	0.001256	-0.01008	0.00085
308.15	0.000626	-0.0035	0.0008
308.15	0.000627	-0.00351	0.0008
308.15	0.000939	-0.00517	0.00081
308.15	0.000941	-0.00518	0.00081
308.15	0.001253	-0.00692	0.00083
308.15	0.001254	-0.00675	0.00083
308.15	0.001565	-0.00831	0.00084
308.15	0.001567	-0.00833	0.00084
308.15	0.001878	-0.01007	0.00085
308.15	0.00188	-0.00991	0.00085
308.15	0.002191	-0.01133	0.00086
308.15	0.002194	-0.01137	0.00086
318.15	0.000941	-0.00276	0.0008
318.15	0.000942	-0.0028	0.0008
318.15	0.001254	-0.00362	0.0008
318.15	0.001255	-0.00365	0.0008
318.15	0.001567	-0.00442	0.00081
318.15	0.001569	-0.00444	0.00081
318.15	0.001879	-0.00526	0.00082
318.15	0.001882	-0.00519	0.00081
318.15	0.002192	-0.00589	0.00082
318.15	0.002195	-0.00597	0.00082

System: methyl butanoate + water; phases: Liquid
Fixed: Pressure, kPa = 101.3
Property: Mass density, kg/m3 (Liquid); method: Vibrating tube method
Temperature, K	Mole fraction of methyl butanoate	Mass density, kg/m3	uncertainty
288.15	0.000628	999.058	0.033
288.15	0.000941	999.037	0.033
288.15	0.000943	999.038	0.033
288.15	0.001255	999.019	0.033
288.15	0.001257	999.019	0.033
288.15	0.001569	998.999	0.033
288.15	0.00157	999.001	0.033
288.15	0.001882	998.985	0.033
288.15	0.001884	998.981	0.033
288.15	0.000628	999.058	0.033
298.15	0.000628	996.968	0.034
298.15	0.000942	996.917	0.034
298.15	0.001256	996.885	0.034
298.15	0.001569	996.85	0.034
298.15	0.00157	996.838	0.034
298.15	0.001882	996.8	0.034
298.15	0.001883	996.81	0.034
298.15	0.002195	996.774	0.035
298.15	0.002197	996.773	0.035
298.15	0.000628	996.965	0.034
298.15	0.000942	996.921	0.034
298.15	0.001256	996.884	0.034
308.15	0.000626	993.913	0.036
308.15	0.000627	993.914	0.036
308.15	0.000939	993.855	0.138
308.15	0.000941	993.855	0.139
308.15	0.001253	993.793	0.037
308.15	0.001254	993.798	0.037
308.15	0.001565	993.741	0.211
308.15	0.001567	993.742	0.211
308.15	0.001878	993.673	0.262
308.15	0.00188	993.682	0.262
308.15	0.002191	993.626	0.159
308.15	0.002194	993.63	0.207
318.15	0.000941	989.988	0.039
318.15	0.000942	989.983	0.039
318.15	0.001254	989.911	0.039
318.15	0.001255	989.908	0.039
318.15	0.001567	989.837	0.04
318.15	0.001569	989.832	0.04
318.15	0.001879	989.762	0.04
318.15	0.001882	989.758	0.04
318.15	0.002192	989.694	0.041
318.15	0.002195	989.679	0.041

System: 2,3-butanedione + water; phases: Liquid
Fixed: Pressure, kPa = 101.3
Property: Excess molar enthalpy (molar enthalpy of mixing), kJ/mol (Liquid); method: Flow calorimetry
Temperature, K	Mole fraction of 2,3-butanedione	Excess molar enthalpy (molar enthalpy of mixing), kJ/mol	uncertainty
288.18	0.00103	-0.02037	0.00094
288.18	0.001032	-0.02041	0.00094
288.18	0.002059	-0.04083	0.00129
288.18	0.002062	-0.04083	0.00129
288.18	0.003086	-0.061	0.00167
288.18	0.003089	-0.061	0.00167
288.18	0.004111	-0.0809	0.00206
288.18	0.004113	-0.08113	0.00207
288.18	0.005132	-0.101	0.00247
288.18	0.005135	-0.10091	0.00247
288.18	0.006153	-0.12113	0.00288
288.18	0.006157	-0.1207	0.00287
293.15	0.001031	-0.01932	0.00093
293.15	0.00206	-0.03874	0.00125
293.15	0.003088	-0.0578	0.00161
293.15	0.004114	-0.07634	0.00197
293.15	0.005136	-0.09512	0.00235
293.15	0.006158	-0.11393	0.00274
298.15	0.001032	-0.01855	0.00092
298.15	0.002061	-0.03685	0.00122
298.15	0.002062	-0.03692	0.00122
298.15	0.003089	-0.05512	0.00156
298.15	0.004113	-0.07311	0.00191
298.15	0.004114	-0.07301	0.0019
298.15	0.005137	-0.09119	0.00227
298.15	0.00616	-0.10921	0.00264
298.15	0.001032	-0.01847	0.00092
298.15	0.003089	-0.05505	0.00155
298.15	0.005137	-0.09113	0.00227
298.15	0.00616	-0.10912	0.00264
303.15	0.001032	-0.0172	0.00091
303.15	0.002061	-0.03434	0.00117
303.15	0.003089	-0.05129	0.00148
303.15	0.004114	-0.06814	0.00181
303.15	0.005137	-0.08492	0.00214
303.15	0.006159	-0.10165	0.00248
308.15	0.001031	-0.01616	0.0009
308.15	0.00206	-0.0325	0.00114
308.15	0.003086	-0.04874	0.00143
308.15	0.003088	-0.0489	0.00144
308.15	0.004109	-0.06477	0.00174
308.15	0.004114	-0.06499	0.00175
308.15	0.005131	-0.08121	0.00207
308.15	0.005137	-0.08097	0.00206
308.15	0.006152	-0.09725	0.00239
308.15	0.00616	-0.09704	0.00239
308.15	0.001031	-0.01619	0.0009
308.15	0.00206	-0.03255	0.00114
313.15	0.001032	-0.01471	0.00089
313.15	0.002062	-0.02969	0.00109
313.15	0.003091	-0.04473	0.00136
313.15	0.004116	-0.05938	0.00164
313.15	0.005139	-0.07429	0.00193
313.15	0.006161	-0.08914	0.00223
318.15	0.001031	-0.01356	0.00088
318.15	0.001032	-0.01361	0.00088
318.15	0.00206	-0.02757	0.00106
318.15	0.002062	-0.02765	0.00106
318.15	0.003088	-0.04184	0.00131
318.15	0.00309	-0.04167	0.0013
318.15	0.004114	-0.05581	0.00157
318.15	0.004116	-0.05576	0.00157
318.15	0.005137	-0.06983	0.00184
318.15	0.00514	-0.07035	0.00185
318.15	0.006159	-0.08409	0.00213
318.15	0.006164	-0.08458	0.00214

System: 2,3-butanedione + water; phases: Liquid
Fixed: Pressure, kPa = 101.3
Property: Mass density, kg/m3 (Liquid); method: Vibrating tube method
Temperature, K	Mole fraction of 2,3-butanedione	Mass density, kg/m3	uncertainty
288.15	0.002059	1001.045	0.033
288.15	0.002062	1001.038	0.033
288.15	0.003086	1001.997	0.033
288.15	0.003089	1002	0.033
288.15	0.004111	1002.95	0.034
288.15	0.004113	1002.963	0.034
288.15	0.005132	1003.913	0.034
288.15	0.005135	1003.912	0.034
288.15	0.006153	1004.871	0.035
288.15	0.006157	1004.865	0.035
293.15	0.001031	999.136	0.033
293.15	0.00206	1000.074	0.033
293.15	0.003088	1000.996	0.033
293.15	0.004114	1001.902	0.034
293.15	0.005136	1002.818	0.034
293.15	0.006158	1003.731	0.035
298.15	0.001032	997.937	0.034
298.15	0.002061	998.816	0.034
298.15	0.002062	998.823	0.034
298.15	0.003089	999.697	0.034
298.15	0.004113	1000.566	0.034
298.15	0.004114	1000.562	0.034
298.15	0.005137	1001.445	0.035
298.15	0.00616	1002.315	0.035
298.15	0.001032	997.929	0.034
298.15	0.003089	999.692	0.034
298.15	0.005137	1001.435	0.035
298.15	0.00616	1002.298	0.035
303.15	0.001032	996.49	0.035
303.15	0.002061	997.341	0.035
303.15	0.003089	998.182	0.035
303.15	0.004114	999.012	0.035
303.15	0.005137	999.84	0.035
303.15	0.006159	1000.662	0.035
308.15	0.001031	994.828	0.037
308.15	0.00206	995.637	0.037
308.15	0.003086	996.432	0.037
308.15	0.003088	996.443	0.037
308.15	0.004109	997.222	0.037
308.15	0.004114	997.237	0.037
308.15	0.005131	998.031	0.073
308.15	0.005137	998.026	0.073
308.15	0.006152	998.821	0.067
308.15	0.00616	998.816	0.067
308.15	0.001031	994.831	0.037
308.15	0.00206	995.637	0.037
313.15	0.001032	992.976	0.038
313.15	0.002062	993.745	0.038
313.15	0.003091	994.499	0.038
313.15	0.004116	995.251	0.038
313.15	0.005139	996.015	0.038
313.15	0.006161	996.763	0.038
318.15	0.001031	990.924	0.04
318.15	0.001032	990.928	0.04
318.15	0.00206	991.645	0.04
318.15	0.002062	991.65	0.04
318.15	0.003088	992.362	0.04
318.15	0.00309	992.361	0.04
318.15	0.004114	993.082	0.039
318.15	0.004116	993.069	0.04
318.15	0.005137	993.801	0.04
318.15	0.00514	993.799	0.04
318.15	0.006159	994.517	0.04
318.15	0.006164	994.503	0.04

System: (Z)-3-hexen-1-ol + water; phases: Liquid
Fixed: Pressure, kPa = 101.3
Property: Excess molar enthalpy (molar enthalpy of mixing), kJ/mol (Liquid); method: Flow calorimetry
Temperature, K	Mole fraction of (Z)-3-hexen-1-ol	Excess molar enthalpy (molar enthalpy of mixing), kJ/mol	uncertainty
288.15	0.000611	-0.00593	0.00082
288.15	0.000916	-0.00879	0.00084
288.15	0.001221	-0.01164	0.00086
288.15	0.001526	-0.01439	0.00092
288.15	0.001831	-0.01717	0.00098
288.15	0.002135	-0.01977	0.00103
298.15	0.00061	-0.00403	0.00081
298.15	0.000915	-0.00597	0.00082
298.15	0.00122	-0.00783	0.00084
298.15	0.001524	-0.00967	0.00085
298.15	0.001828	-0.0115	0.00086
298.15	0.002132	-0.01321	0.00089
308.15	0.000306	-0.00117	0.00078
308.15	0.000611	-0.00221	0.00079
308.15	0.000612	-0.00223	0.00079
308.15	0.000916	-0.00329	0.0008
308.15	0.000918	-0.0033	0.0008
308.15	0.001221	-0.00428	0.00081
308.15	0.001224	-0.00428	0.00081
308.15	0.001526	-0.00522	0.00082
308.15	0.001529	-0.00528	0.00082
308.15	0.001835	-0.0061	0.00082
318.15	0.000611	-0.00059	0.00078
318.15	0.000612	-0.00058	0.00078
318.15	0.000917	-0.00083	0.00078
318.15	0.001222	-0.00101	0.00078
318.15	0.001223	-0.001	0.00078
318.15	0.001527	-0.00117	0.00078
318.15	0.001528	-0.00119	0.00078
318.15	0.001832	-0.00129	0.00078
318.15	0.001833	-0.0013	0.00078
318.15	0.000917	-0.00081	0.00078

System: (Z)-3-hexen-1-ol + water; phases: Liquid
Fixed: Pressure, kPa = 101.3
Property: Mass density, kg/m3 (Liquid); method: Vibrating tube method
Temperature, K	Mole fraction of (Z)-3-hexen-1-ol	Mass density, kg/m3	uncertainty
288.15	0.000611	998.763	0.033
288.15	0.000916	998.596	0.033
288.15	0.001221	998.432	0.033
288.15	0.001526	998.27	0.033
288.15	0.001831	998.106	0.033
288.15	0.002135	997.95	0.033
298.15	0.00061	996.68	0.034
298.15	0.000915	996.493	0.034
298.15	0.00122	996.319	0.034
298.15	0.001524	996.139	0.035
298.15	0.001828	995.963	0.035
298.15	0.002132	995.788	0.036
308.15	0.000306	993.834	0.036
308.15	0.000611	993.642	0.037
308.15	0.000612	993.637	0.037
308.15	0.000916	993.442	0.129
308.15	0.000918	993.441	0.129
308.15	0.001221	993.253	0.116
308.15	0.001224	993.253	0.096
308.15	0.001526	993.064	0.147
308.15	0.001529	993.059	0.139
308.15	0.001831	992.912	0.135
308.15	0.001835	992.883	0.134
318.15	0.000611	989.794	0.039
318.15	0.000612	989.796	0.039
318.15	0.000917	989.578	0.039
318.15	0.001222	989.38	0.04
318.15	0.001223	989.388	0.04
318.15	0.001527	989.183	0.04
318.15	0.001528	989.184	0.04
318.15	0.001832	988.988	0.04
318.15	0.001833	988.984	0.04
318.15	0.002137	988.803	0.04
318.15	0.000917	989.591	0.039
318.15	0.002137	988.815	0.04
