Measured thermophysical data. Comparative Study on Physicochemical Properties of Protic Ionic Liquids Based on Allylammonium and Propylammonium Cations
Source: J. Chem. Eng. Data, 2013, 10.1021/je301284x
Compound 1: N,N-dimethylprop-2-en-1-aminium trifluoromethanesulfonate, C6H12F3NO3S, InChI=1S/C5H11N.CHF3O3S/c1-4-5-6(2)3;2-1(3,4)8(5,6)7/h4H,1,5H2,2-3H3;(H,5,6,7)
Compound 2: diethylmethylammonium trifluoromethanesulfonate, C6H14F3NO3S, InChI=1S/C5H13N.CHF3O3S/c1-4-6(3)5-2;2-1(3,4)8(5,6)7/h4-5H2,1-3H3;(H,5,6,7)
Compound 3: N,N-dimethylpropan-1-aminium trifluoromethanesulfonate, C6H14F3NO3S, InChI=1S/C5H13N.CHF3O3S/c1-4-5-6(2)3;2-1(3,4)8(5,6)7/h4-5H2,1-3H3;(H,5,6,7)
Compound 4: N,N-diethylprop-2-en-1-aminium trifluoromethanesulfonate, C8H16F3NO3S, InChI=1S/C7H15N.CHF3O3S/c1-4-7-8(5-2)6-3;2-1(3,4)8(5,6)7/h4H,1,5-7H2,2-3H3;(H,5,6,7)
Compound 5: N,N-diethylpropan-1-aminium trifluoromethanesulfonate, C8H18F3NO3S, InChI=1S/C7H17N.CHF3O3S/c1-4-7-8(5-2)6-3;2-1(3,4)8(5,6)7/h4-7H2,1-3H3;(H,5,6,7)
Compound 6: N-allyl-N-methylprop-2-en-1-aminium trifluoromethanesulfonate, C8H14F3NO3S, InChI=1S/C7H13N.CHF3O3S/c1-4-6-8(3)7-5-2;2-1(3,4)8(5,6)7/h4-5H,1-2,6-7H2,3H3;(H,5,6,7)
Compound 7: N-methyl-N-propylpropan-1-aminium trifluoromethanesulfonate, C8H18F3NO3S, InChI=1S/C7H17N.CHF3O3S/c1-4-6-8(3)7-5-2;2-1(3,4)8(5,6)7/h4-7H2,1-3H3;(H,5,6,7)

System: N,N-dimethylprop-2-en-1-aminium trifluoromethanesulfonate; phases: Crystal, Liquid, Air at 1 atmosphere
Property: Normal melting temperature, K (Crystal); method: DTA
Normal melting temperature, K	uncertainty
289.15	1

System: N,N-dimethylprop-2-en-1-aminium trifluoromethanesulfonate; phases: Crystal, Liquid, Air at 1 atmosphere
Property: Molar enthalpy of transition or fusion, kJ/mol (Crystal); method: DSC
Molar enthalpy of transition or fusion, kJ/mol	uncertainty
21	2

System: N,N-dimethylprop-2-en-1-aminium trifluoromethanesulfonate; phases: Liquid
Fixed: Pressure, kPa = 101.325
Property: Mass density, kg/m3 (Liquid); method: Vibrating tube method
Temperature, K	Mass density, kg/m3	uncertainty
288.15	1318	28
293.15	1311	28
298.15	1303	27
303.15	1295	27
308.15	1288	27
313.15	1280	27

System: N,N-dimethylprop-2-en-1-aminium trifluoromethanesulfonate; phases: Liquid
Fixed: Pressure, kPa = 101.325
Property: Viscosity, Pa*s (Liquid); method: Concentric cylinders viscometry
Temperature, K	Viscosity, Pa*s	uncertainty
303.15	0.0288	0.0009
323.15	0.0164	0.0005
343.15	0.0104	0.0003
363.15	0.00711	0.00023
383.15	0.00518	0.00017
403.15	0.00395	0.00013
423.15	0.00317	0.0001

System: N,N-dimethylprop-2-en-1-aminium trifluoromethanesulfonate; phases: Liquid
Fixed: Pressure, kPa = 101.325
Property: Electrical conductivity, S/m (Liquid); method: None given
Temperature, K	Electrical conductivity, S/m	uncertainty
303.15	0.968	0.019
323.15	1.74	0.04
343.15	2.65	0.05
363.15	3.73	0.07
383.15	4.92	0.1
403.15	6.19	0.12
423.15	7.48	0.15
443.15	8.82	0.18

System: diethylmethylammonium trifluoromethanesulfonate; phases: Crystal, Liquid, Air at 1 atmosphere
Property: Normal melting temperature, K (Crystal); method: DTA
Normal melting temperature, K	uncertainty
267.15	1

System: diethylmethylammonium trifluoromethanesulfonate; phases: Crystal, Liquid, Air at 1 atmosphere
Property: Molar enthalpy of transition or fusion, kJ/mol (Crystal); method: DSC
Molar enthalpy of transition or fusion, kJ/mol	uncertainty
16	2

System: diethylmethylammonium trifluoromethanesulfonate; phases: Liquid
Fixed: Pressure, kPa = 101.325
Property: Mass density, kg/m3 (Liquid); method: Vibrating tube method
Temperature, K	Mass density, kg/m3	uncertainty
288.15	1299	27
293.15	1292	27
298.15	1284	27
303.15	1277	27
308.15	1270	27
313.15	1262	26

System: diethylmethylammonium trifluoromethanesulfonate; phases: Liquid
Fixed: Pressure, kPa = 101.325
Property: Viscosity, Pa*s (Liquid); method: Concentric cylinders viscometry
Temperature, K	Viscosity, Pa*s	uncertainty
303.15	0.0369	0.0012
323.15	0.0194	0.0006
343.15	0.0121	0.0004
363.15	0.00813	0.00026
383.15	0.00582	0.00019
403.15	0.00441	0.00014
423.15	0.00348	0.00011

System: diethylmethylammonium trifluoromethanesulfonate; phases: Liquid
Fixed: Pressure, kPa = 101.325
Property: Electrical conductivity, S/m (Liquid); method: None given
Temperature, K	Electrical conductivity, S/m	uncertainty
303.15	0.833	0.017
323.15	1.45	0.03
343.15	2.15	0.04
363.15	3.15	0.06
383.15	3.91	0.08
403.15	4.73	0.09
423.15	5.46	0.11
443.15	5.97	0.12

System: N,N-dimethylpropan-1-aminium trifluoromethanesulfonate; phases: Crystal, Liquid, Air at 1 atmosphere
Property: Normal melting temperature, K (Crystal); method: DTA
Normal melting temperature, K	uncertainty
293.15	1

System: N,N-dimethylpropan-1-aminium trifluoromethanesulfonate; phases: Crystal, Liquid, Air at 1 atmosphere
Property: Molar enthalpy of transition or fusion, kJ/mol (Crystal); method: DSC
Molar enthalpy of transition or fusion, kJ/mol	uncertainty
20	2

System: N,N-dimethylpropan-1-aminium trifluoromethanesulfonate; phases: Liquid
Fixed: Pressure, kPa = 101.325
Property: Mass density, kg/m3 (Liquid); method: Vibrating tube method
Temperature, K	Mass density, kg/m3	uncertainty
288.15	1291	27
293.15	1284	27
298.15	1276	27
303.15	1269	27
308.15	1262	26
313.15	1254	26

System: N,N-dimethylpropan-1-aminium trifluoromethanesulfonate; phases: Liquid
Fixed: Pressure, kPa = 101.325
Property: Viscosity, Pa*s (Liquid); method: Concentric cylinders viscometry
Temperature, K	Viscosity, Pa*s	uncertainty
303.15	0.0332	0.0011
323.15	0.018	0.0006
343.15	0.011	0.0004
363.15	0.00742	0.00024
383.15	0.00532	0.00017
403.15	0.00404	0.00013
423.15	0.00319	0.0001

System: N,N-dimethylpropan-1-aminium trifluoromethanesulfonate; phases: Liquid
Fixed: Pressure, kPa = 101.325
Property: Electrical conductivity, S/m (Liquid); method: None given
Temperature, K	Electrical conductivity, S/m	uncertainty
303.15	0.901	0.018
323.15	1.57	0.03
343.15	2.39	0.05
363.15	3.25	0.07
383.15	4.29	0.09
403.15	5.3	0.11
423.15	6.4	0.13
443.15	7.68	0.15

System: N,N-diethylprop-2-en-1-aminium trifluoromethanesulfonate; phases: Glass, Liquid, Air at 1 atmosphere
Property: Triple point temperature, K (Glass); method: DTA
Triple point temperature, K	uncertainty
174.15	6

System: N,N-diethylprop-2-en-1-aminium trifluoromethanesulfonate; phases: Crystal, Liquid, Air at 1 atmosphere
Property: Normal melting temperature, K (Crystal); method: DTA
Normal melting temperature, K	uncertainty
259.15	1

System: N,N-diethylprop-2-en-1-aminium trifluoromethanesulfonate; phases: Crystal, Liquid, Air at 1 atmosphere
Property: Molar enthalpy of transition or fusion, kJ/mol (Crystal); method: DSC
Molar enthalpy of transition or fusion, kJ/mol	uncertainty
21	2

System: N,N-diethylprop-2-en-1-aminium trifluoromethanesulfonate; phases: Liquid
Fixed: Pressure, kPa = 101.325
Property: Mass density, kg/m3 (Liquid); method: Vibrating tube method
Temperature, K	Mass density, kg/m3	uncertainty
288.15	1270	27
293.15	1263	26
298.15	1255	26
303.15	1247	26
308.15	1240	26
313.15	1232	26

System: N,N-diethylprop-2-en-1-aminium trifluoromethanesulfonate; phases: Liquid
Fixed: Pressure, kPa = 101.325
Property: Viscosity, Pa*s (Liquid); method: Concentric cylinders viscometry
Temperature, K	Viscosity, Pa*s	uncertainty
303.15	0.051	0.0017
323.15	0.0255	0.0008
343.15	0.0149	0.0005
363.15	0.00964	0.00031
383.15	0.0067	0.00022
403.15	0.00494	0.00016
423.15	0.00387	0.00013

System: N,N-diethylprop-2-en-1-aminium trifluoromethanesulfonate; phases: Liquid
Fixed: Pressure, kPa = 101.325
Property: Electrical conductivity, S/m (Liquid); method: None given
Temperature, K	Electrical conductivity, S/m	uncertainty
303.15	0.419	0.008
323.15	0.785	0.016
343.15	1.26	0.03
363.15	1.81	0.04
383.15	2.43	0.05
403.15	3.17	0.06
423.15	3.91	0.08
443.15	4.71	0.09

System: N,N-diethylpropan-1-aminium trifluoromethanesulfonate; phases: Crystal, Liquid, Air at 1 atmosphere
Property: Normal melting temperature, K (Crystal); method: DTA
Normal melting temperature, K	uncertainty
259.15	1

System: N,N-diethylpropan-1-aminium trifluoromethanesulfonate; phases: Crystal, Liquid, Air at 1 atmosphere
Property: Molar enthalpy of transition or fusion, kJ/mol (Crystal); method: DSC
Molar enthalpy of transition or fusion, kJ/mol	uncertainty
21	2

System: N,N-diethylpropan-1-aminium trifluoromethanesulfonate; phases: Liquid
Fixed: Pressure, kPa = 101.325
Property: Mass density, kg/m3 (Liquid); method: Vibrating tube method
Temperature, K	Mass density, kg/m3	uncertainty
288.15	1237	26
293.15	1229	26
298.15	1222	26
303.15	1215	25
308.15	1208	25
313.15	1201	25

System: N,N-diethylpropan-1-aminium trifluoromethanesulfonate; phases: Liquid
Fixed: Pressure, kPa = 101.325
Property: Viscosity, Pa*s (Liquid); method: Concentric cylinders viscometry
Temperature, K	Viscosity, Pa*s	uncertainty
303.15	0.0543	0.0018
323.15	0.0268	0.0009
343.15	0.0153	0.0005
363.15	0.00976	0.00032
383.15	0.00671	0.00022
403.15	0.00487	0.00016
423.15	0.00373	0.00012

System: N,N-diethylpropan-1-aminium trifluoromethanesulfonate; phases: Liquid
Fixed: Pressure, kPa = 101.325
Property: Electrical conductivity, S/m (Liquid); method: None given
Temperature, K	Electrical conductivity, S/m	uncertainty
303.15	0.384	0.008
323.15	0.71	0.014
343.15	1.13	0.02
363.15	1.71	0.03
383.15	2.22	0.04
403.15	2.88	0.06
423.15	3.57	0.07
443.15	4.31	0.09

System: N-allyl-N-methylprop-2-en-1-aminium trifluoromethanesulfonate; phases: Glass, Liquid, Air at 1 atmosphere
Property: Triple point temperature, K (Glass); method: DTA
Triple point temperature, K	uncertainty
185.15	5

System: N-allyl-N-methylprop-2-en-1-aminium trifluoromethanesulfonate; phases: Crystal, Liquid, Air at 1 atmosphere
Property: Normal melting temperature, K (Crystal); method: DTA
Normal melting temperature, K	uncertainty
254.15	1

System: N-allyl-N-methylprop-2-en-1-aminium trifluoromethanesulfonate; phases: Crystal, Liquid, Air at 1 atmosphere
Property: Molar enthalpy of transition or fusion, kJ/mol (Crystal); method: DSC
Molar enthalpy of transition or fusion, kJ/mol	uncertainty
11	1

System: N-allyl-N-methylprop-2-en-1-aminium trifluoromethanesulfonate; phases: Liquid
Fixed: Pressure, kPa = 101.325
Property: Mass density, kg/m3 (Liquid); method: Vibrating tube method
Temperature, K	Mass density, kg/m3	uncertainty
288.15	1268	27
293.15	1261	26
298.15	1253	26
303.15	1246	26
308.15	1239	26
313.15	1231	26

System: N-allyl-N-methylprop-2-en-1-aminium trifluoromethanesulfonate; phases: Liquid
Fixed: Pressure, kPa = 101.325
Property: Viscosity, Pa*s (Liquid); method: Concentric cylinders viscometry
Temperature, K	Viscosity, Pa*s	uncertainty
303.15	0.0385	0.0013
323.15	0.0197	0.0006
343.15	0.0116	0.0004
363.15	0.00761	0.00025
383.15	0.00539	0.00018

System: N-allyl-N-methylprop-2-en-1-aminium trifluoromethanesulfonate; phases: Liquid
Fixed: Pressure, kPa = 101.325
Property: Electrical conductivity, S/m (Liquid); method: None given
Temperature, K	Electrical conductivity, S/m	uncertainty
303.15	0.469	0.009
323.15	0.893	0.018
343.15	1.43	0.03
363.15	2.06	0.04
383.15	2.74	0.06
403.15	3.54	0.07
423.15	4.39	0.09
443.15	5.21	0.1

System: N-methyl-N-propylpropan-1-aminium trifluoromethanesulfonate; phases: Crystal, Liquid, Air at 1 atmosphere
Property: Normal melting temperature, K (Crystal); method: DTA
Normal melting temperature, K	uncertainty
290.15	1

System: N-methyl-N-propylpropan-1-aminium trifluoromethanesulfonate; phases: Crystal, Liquid, Air at 1 atmosphere
Property: Molar enthalpy of transition or fusion, kJ/mol (Crystal); method: DSC
Molar enthalpy of transition or fusion, kJ/mol	uncertainty
14	2

System: N-methyl-N-propylpropan-1-aminium trifluoromethanesulfonate; phases: Liquid
Fixed: Pressure, kPa = 101.325
Property: Mass density, kg/m3 (Liquid); method: Vibrating tube method
Temperature, K	Mass density, kg/m3	uncertainty
293.15	1218	25
298.15	1211	25
303.15	1203	25
308.15	1196	25
313.15	1189	25

System: N-methyl-N-propylpropan-1-aminium trifluoromethanesulfonate; phases: Liquid
Fixed: Pressure, kPa = 101.325
Property: Viscosity, Pa*s (Liquid); method: Concentric cylinders viscometry
Temperature, K	Viscosity, Pa*s	uncertainty
303.15	0.0487	0.0016
323.15	0.0239	0.0008
343.15	0.0136	0.0004
363.15	0.00863	0.00028
383.15	0.00596	0.00019
403.15	0.0044	0.00014
423.15	0.00344	0.00011

System: N-methyl-N-propylpropan-1-aminium trifluoromethanesulfonate; phases: Liquid
Fixed: Pressure, kPa = 101.325
Property: Electrical conductivity, S/m (Liquid); method: None given
Temperature, K	Electrical conductivity, S/m	uncertainty
303.15	0.415	0.008
323.15	0.772	0.015
343.15	1.23	0.03
363.15	1.81	0.04
383.15	2.48	0.05
403.15	3.18	0.06
423.15	4.04	0.08
443.15	4.88	0.1
