Measured thermophysical data. Volumetric Properties of Binary Mixtures of 1-Butyl-1-methylpyrrolidinium Bis(trifluoromethylsulfonyl)imide with N-Methylformamide and N,N-Dimethylformamide from (293.15 to 323.15) K
Source: J. Chem. Eng. Data, 2013, 10.1021/je300941v
Compound 1: 1-butyl-1-methylpyrrolidinium bis[(trifluoromethyl)sulfonyl]imide, C11H20F6N2O4S2, InChI=1S/C9H20N.C2F6NO4S2/c1-3-4-7-10(2)8-5-6-9-10;3-1(4,5)14(10,11)9-15(12,13)2(6,7)8/h3-9H2,1-2H3;/q+1;-1, purity 99%
Compound 2: N-methylformamide, C2H5NO, InChI=1S/C2H5NO/c1-3-2-4/h2H,1H3,(H,3,4), purity 99%
Compound 3: dimethylformamide, C3H7NO, InChI=1S/C3H7NO/c1-4(2)3-5/h3H,1-2H3, purity 99.8%

System: N-methylformamide; phases: Liquid
Fixed: Pressure, kPa = 101.325
Property: Mass density, kg/m3 (Liquid); method: Vibrating tube method
Temperature, K	Mass density, kg/m3	uncertainty
293.15	1003.59	0.25
298.15	999.19	0.24
303.15	994.75	0.24
308.15	990.33	0.24
313.15	985.78	0.24
318.15	981.23	0.24
323.15	976.57	0.24

System: dimethylformamide; phases: Liquid
Fixed: Pressure, kPa = 101.325
Property: Mass density, kg/m3 (Liquid); method: Vibrating tube method
Temperature, K	Mass density, kg/m3	uncertainty
293.15	948.79	0.14
298.15	943.87	0.14
303.15	938.98	0.14
308.15	934.07	0.14
313.15	929.11	0.14
318.15	924.04	0.14
323.15	918.91	0.14

System: dimethylformamide + 1-butyl-1-methylpyrrolidinium bis[(trifluoromethyl)sulfonyl]imide; phases: Liquid
Fixed: Pressure, kPa = 101
Property: Mass density, kg/m3 (Liquid); method: Vibrating tube method
Temperature, K	Mole fraction of 1-butyl-1-methylpyrrolidinium bis[(trifluoromethyl)sulfonyl]imide	Mass density, kg/m3	uncertainty
293.15	0.0912	1074.98	0.17
293.15	0.1871	1161.1	0.22
293.15	0.2922	1224.53	0.25
293.15	0.3783	1262.14	0.27
293.15	0.4845	1298.31	0.31
293.15	0.5809	1324.74	0.33
293.15	0.6768	1346.86	0.37
293.15	0.7744	1366.1	0.42
293.15	0.8686	1381.39	0.48
298.15	0.0912	1070.09	0.17
298.15	0.1871	1156.23	0.22
298.15	0.2922	1219.62	0.26
298.15	0.3783	1257.32	0.27
298.15	0.4845	1293.53	0.31
298.15	0.5809	1319.99	0.33
298.15	0.6768	1342.16	0.37
298.15	0.7744	1361.38	0.42
298.15	0.8686	1376.73	0.48
303.15	0.0912	1065.22	0.17
303.15	0.1871	1151.35	0.22
303.15	0.2922	1214.77	0.25
303.15	0.3783	1252.53	0.27
303.15	0.4845	1288.82	0.31
303.15	0.5809	1315.37	0.33
303.15	0.6768	1337.55	0.37
303.15	0.7744	1356.72	0.42
303.15	0.8686	1372.14	0.48
308.15	0.0912	1060.4	0.17
308.15	0.1871	1146.5	0.22
308.15	0.2922	1210	0.25
308.15	0.3783	1247.8	0.27
308.15	0.4845	1284.1	0.3
308.15	0.5809	1310.7	0.32
308.15	0.6768	1332.9	0.36
308.15	0.7744	1352	0.41
308.15	0.8686	1367.6	0.47
313.15	0.0912	1055.43	0.16
313.15	0.1871	1141.58	0.22
313.15	0.2922	1205.17	0.25
313.15	0.3783	1243.01	0.27
313.15	0.4845	1279.29	0.3
313.15	0.5809	1306.04	0.32
313.15	0.6768	1328.25	0.36
313.15	0.7744	1347.28	0.41
313.15	0.8686	1363.02	0.47
318.15	0.0912	1050.48	0.16
318.15	0.1871	1136.63	0.22
318.15	0.2922	1200.26	0.25
318.15	0.3783	1238.22	0.27
318.15	0.4845	1274.53	0.3
318.15	0.5809	1301.32	0.32
318.15	0.6768	1323.54	0.36
318.15	0.7744	1342.91	0.41
318.15	0.8686	1358.3	0.47
323.15	0.0912	1045.36	0.16
323.15	0.1871	1131.55	0.25
323.15	0.2922	1195.32	0.26
323.15	0.3783	1233.32	0.27
323.15	0.4845	1269.65	0.3
323.15	0.5809	1296.48	0.32
323.15	0.6768	1318.83	0.36
323.15	0.7744	1338.2	0.41
323.15	0.8686	1353.61	0.46

System: N-methylformamide + 1-butyl-1-methylpyrrolidinium bis[(trifluoromethyl)sulfonyl]imide; phases: Liquid
Fixed: Pressure, kPa = 101
Property: Mass density, kg/m3 (Liquid); method: Vibrating tube method
Temperature, K	Mole fraction of 1-butyl-1-methylpyrrolidinium bis[(trifluoromethyl)sulfonyl]imide	Mass density, kg/m3	uncertainty
293.15	0.0246	1055.01	0.28
293.15	0.0444	1087.36	0.31
293.15	0.0743	1124.18	0.34
293.15	0.1571	1192.03	0.4
293.15	0.2195	1227.49	0.43
293.15	0.2768	1253.4	0.45
293.15	0.3721	1288.07	0.49
293.15	0.4755	1318.98	0.51
293.15	0.588	1344.35	0.53
293.15	0.631	1352.66	0.54
293.15	0.7045	1364.77	0.54
293.15	0.7807	1375.58	0.55
293.15	0.9067	1390.15	0.57
298.15	0.0246	1050.43	0.28
298.15	0.0444	1082.72	0.3
298.15	0.0743	1119.6	0.33
298.15	0.1571	1187.22	0.4
298.15	0.2195	1222.75	0.43
298.15	0.2768	1248.66	0.45
298.15	0.3721	1283.27	0.48
298.15	0.4755	1314.25	0.51
298.15	0.588	1339.65	0.53
298.15	0.631	1347.99	0.53
298.15	0.7045	1360	0.54
298.15	0.7807	1370.92	0.55
298.15	0.9067	1385.5	0.56
303.15	0.0246	1045.86	0.28
303.15	0.0444	1078.08	0.3
303.15	0.0743	1114.93	0.33
303.15	0.1571	1182.56	0.4
303.15	0.2195	1218	0.43
303.15	0.2768	1243.85	0.45
303.15	0.3721	1278.56	0.48
303.15	0.4755	1309.5	0.51
303.15	0.588	1334.96	0.52
303.15	0.631	1343.33	0.53
303.15	0.7045	1355.4	0.54
303.15	0.7807	1366.37	0.55
303.15	0.9067	1380.94	0.56
308.15	0.0246	1041.32	0.27
308.15	0.0444	1073.48	0.3
308.15	0.0743	1110.11	0.33
308.15	0.1571	1177.83	0.39
308.15	0.2195	1213.28	0.42
308.15	0.2768	1239.09	0.44
308.15	0.3721	1273.79	0.48
308.15	0.4755	1304.78	0.5
308.15	0.588	1330.34	0.52
308.15	0.631	1338.74	0.52
308.15	0.7045	1350.82	0.53
308.15	0.7807	1361.76	0.54
308.15	0.9067	1376.4	0.55
313.15	0.0246	1036.71	0.27
313.15	0.0444	1068.79	0.29
313.15	0.0743	1105.37	0.32
313.15	0.1571	1173.12	0.39
313.15	0.2195	1208.51	0.42
313.15	0.2768	1234.35	0.44
313.15	0.3721	1269.04	0.47
313.15	0.4755	1300.03	0.5
313.15	0.588	1325.69	0.52
313.15	0.631	1334.09	0.52
313.15	0.7045	1346.19	0.53
313.15	0.7807	1357.23	0.54
313.15	0.9067	1371.81	0.55
318.15	0.0246	1032	0.27
318.15	0.0444	1064.04	0.29
318.15	0.0743	1100.74	0.32
318.15	0.1571	1168.24	0.39
318.15	0.2195	1203.7	0.42
318.15	0.2768	1229.57	0.44
318.15	0.3721	1264.27	0.47
318.15	0.4755	1295.32	0.5
318.15	0.588	1320.95	0.51
318.15	0.631	1329.42	0.52
318.15	0.7045	1341.54	0.52
318.15	0.7807	1352.53	0.53
318.15	0.9067	1367.24	0.55
323.15	0.0246	1027.24	0.26
323.15	0.0444	1059.25	0.3
323.15	0.0743	1095.89	0.33
323.15	0.1571	1163.34	0.39
323.15	0.2195	1198.78	0.41
323.15	0.2768	1224.76	0.43
323.15	0.3721	1259.52	0.47
323.15	0.4755	1290.63	0.49
323.15	0.588	1316.2	0.51
323.15	0.631	1324.65	0.51
323.15	0.7045	1336.77	0.52
323.15	0.7807	1347.89	0.53
323.15	0.9067	1362.53	0.54
