Measured thermophysical data. Vapor Pressures and Activity Coefficients of (1-Propanol + 1,8-Cineole) at 10 Temperatures between 278.15 K and 323.15 K
Source: J. Chem. Eng. Data, 2012, 10.1021/je300736k
Compound 1: propan-1-ol, C3H8O, InChI=1S/C3H8O/c1-2-3-4/h4H,2-3H2,1H3, purity 99.9%
Compound 2: 1,3,3-trimethyl-2-oxabicyclo[2.2.2]octane, C10H18O, InChI=1S/C10H18O/c1-9(2)8-4-6-10(3,11-9)7-5-8/h8H,4-7H2,1-3H3, purity 99%

System: propan-1-ol; phases: Liquid, Gas
Property: Vapor or sublimation pressure, kPa (Liquid); method: Closed cell (Static) method
Temperature, K	Vapor or sublimation pressure, kPa	uncertainty
278.15	0.704	0.027
283.15	1.012	0.027
288.15	1.449	0.028
293.15	2.038	0.028
298.15	2.838	0.029
303.15	3.866	0.029
308.15	5.229	0.03
313.15	7.006	0.032
318.15	9.295	0.035
323.15	12.178	0.037

System: 1,3,3-trimethyl-2-oxabicyclo[2.2.2]octane; phases: Liquid, Gas
Property: Vapor or sublimation pressure, kPa (Liquid); method: Closed cell (Static) method
Temperature, K	Vapor or sublimation pressure, kPa	uncertainty
278.15	0.071	0.026
283.15	0.093	0.026
288.15	0.13	0.026
293.15	0.178	0.026
298.15	0.253	0.026
303.15	0.346	0.026
308.15	0.477	0.026
313.15	0.627	0.027
318.15	0.828	0.027
323.15	1.101	0.027

System: propan-1-ol + 1,3,3-trimethyl-2-oxabicyclo[2.2.2]octane; phases: Liquid, Gas
Property: Vapor or sublimation pressure, kPa (Liquid); method: Closed cell (Static) method
Temperature, K	Mole fraction of 1,3,3-trimethyl-2-oxabicyclo[2.2.2]octane	Vapor or sublimation pressure, kPa	uncertainty
278.15	0.0656	0.672	0.028
278.15	0.117	0.649	0.028
278.15	0.2057	0.609	0.028
278.15	0.2949	0.557	0.028
278.15	0.3988	0.517	0.028
278.15	0.5083	0.485	0.027
278.15	0.6189	0.416	0.027
278.15	0.7623	0.343	0.027
278.15	0.8689	0.253	0.027
278.15	0.9239	0.192	0.026
283.15	0.0656	0.977	0.03
283.15	0.117	0.936	0.03
283.15	0.2057	0.875	0.03
283.15	0.295	0.806	0.029
283.15	0.3988	0.742	0.029
283.15	0.5083	0.672	0.028
283.15	0.6189	0.596	0.028
283.15	0.7624	0.482	0.027
283.15	0.8689	0.354	0.027
283.15	0.924	0.27	0.027
288.15	0.0657	1.375	0.032
288.15	0.117	1.337	0.032
288.15	0.2058	1.243	0.033
288.15	0.295	1.163	0.032
288.15	0.3989	1.077	0.031
288.15	0.5084	0.955	0.03
288.15	0.619	0.846	0.029
288.15	0.7624	0.685	0.028
288.15	0.8689	0.511	0.028
288.15	0.924	0.38	0.027
293.15	0.0658	1.944	0.033
293.15	0.1171	1.88	0.033
293.15	0.2058	1.746	0.032
293.15	0.2952	1.621	0.032
293.15	0.3989	1.494	0.032
293.15	0.5085	1.346	0.032
293.15	0.619	1.192	0.032
293.15	0.7625	0.964	0.03
293.15	0.869	0.698	0.029
293.15	0.924	0.53	0.028
298.15	0.0659	2.698	0.034
298.15	0.1172	2.604	0.034
298.15	0.2059	2.412	0.034
298.15	0.2953	2.256	0.033
298.15	0.399	2.083	0.033
298.15	0.5086	1.875	0.033
298.15	0.6191	1.664	0.032
298.15	0.7625	1.345	0.032
298.15	0.869	0.991	0.031
298.15	0.9241	0.718	0.029
303.15	0.0661	3.664	0.036
303.15	0.1173	3.523	0.036
303.15	0.2061	3.289	0.035
303.15	0.2955	3.077	0.035
303.15	0.3992	2.838	0.034
303.15	0.5087	2.555	0.034
303.15	0.6193	2.258	0.033
303.15	0.7626	1.816	0.033
303.15	0.8691	1.333	0.032
303.15	0.9241	0.99	0.031
308.15	0.0664	4.973	0.039
308.15	0.1175	4.769	0.038
308.15	0.2063	4.45	0.038
308.15	0.2958	4.156	0.037
308.15	0.3994	3.835	0.036
308.15	0.509	3.456	0.036
308.15	0.6194	3.063	0.035
308.15	0.7627	2.452	0.034
308.15	0.8693	1.795	0.033
308.15	0.9242	1.349	0.032
313.15	0.0668	6.637	0.043
313.15	0.1177	6.381	0.042
313.15	0.2065	5.949	0.041
313.15	0.2962	5.563	0.04
313.15	0.3997	5.114	0.039
313.15	0.5093	4.628	0.038
313.15	0.6197	4.112	0.037
313.15	0.7629	3.267	0.035
313.15	0.8694	2.393	0.034
313.15	0.9244	1.777	0.033
318.15	0.0674	8.809	0.048
318.15	0.1181	8.455	0.047
318.15	0.2069	7.89	0.046
318.15	0.2968	7.363	0.045
318.15	0.4001	6.75	0.043
318.15	0.5098	6.138	0.042
318.15	0.62	5.455	0.04
318.15	0.7631	4.334	0.038
318.15	0.8697	3.139	0.036
318.15	0.9245	2.323	0.034
323.15	0.0683	11.518	0.055
323.15	0.1186	11.085	0.054
323.15	0.2075	10.333	0.052
323.15	0.2977	9.66	0.05
323.15	0.4007	8.892	0.048
323.15	0.5104	8.052	0.046
323.15	0.6205	7.135	0.044
323.15	0.7634	5.656	0.041
323.15	0.87	4.101	0.038
323.15	0.9247	3.038	0.037
