Measured thermophysical data. Densities and Volumetric Characteristics of Binary System of CO2 + Decane from (303.15 to 353.15) K and Pressures up to 19 MPa
Source: J. Chem. Eng. Data, 2012, 10.1021/je300388b
Compound 1: carbon dioxide, CO2, InChI=1S/CO2/c2-1-3, purity 99.99%
Compound 2: decane, C10H22, InChI=1S/C10H22/c1-3-5-7-9-10-8-6-4-2/h3-10H2,1-2H3, purity 99.99%

System: decane + carbon dioxide; phases: Liquid
Property: Mass density, kg/m3 (Liquid); method: MSONE:UFactor:3
Temperature, K	Pressure, kPa	Mole fraction of carbon dioxide	Mass density, kg/m3	uncertainty
303.04	8020	0.869	798.45	0.56
303.15	9990	0.4698	756.27	0.54
303.15	11990	0.4698	758.43	0.55
303.15	14000	0.4698	760.53	0.55
303.15	15980	0.4698	762.54	0.55
303.15	17990	0.4698	764.51	0.55
303.15	19010	0.2361	748.64	0.54
303.15	19010	0.4698	765.49	0.55
303.16	7980	0.2361	740.1	0.54
303.16	8020	0.4698	754.05	0.54
303.16	9970	0.2361	741.73	0.54
303.16	12020	0.2361	743.35	0.54
303.16	16020	0.2361	746.43	0.54
303.17	14020	0.2361	744.91	0.54
303.17	18020	0.2361	747.92	0.54
303.31	10030	0.869	807.43	0.56
303.31	14030	0.869	824.12	0.56
303.31	18050	0.869	837.96	0.57
303.36	12020	0.869	816.02	0.56
303.37	16020	0.869	831.09	0.56
313	7980	0.71	763.24	0.54
313	9940	0.71	767.44	0.54
313	13970	0.71	775.3	0.55
313.01	11690	0.71	770.91	0.55
313.01	18020	0.71	782.43	0.55
313.03	16020	0.71	778.96	0.55
313.06	13970	0.4698	750.5	0.54
313.07	15990	0.4698	752.76	0.54
313.09	17990	0.4698	754.91	0.54
313.09	19000	0.4698	755.97	0.54
313.1	8010	0.4698	743.23	0.54
313.11	11990	0.4698	748.15	0.54
313.12	10010	0.4698	745.74	0.54
313.13	16010	0.2361	738.82	0.54
313.13	18010	0.2361	740.41	0.54
313.14	10010	0.2361	733.81	0.54
313.14	19020	0.2361	741.18	0.54
313.15	7990	0.2361	732.05	0.54
313.15	14010	0.2361	737.19	0.54
313.16	12000	0.2361	735.5	0.54
313.23	18020	0.869	812.48	0.56
313.27	10000	0.869	776.26	0.55
313.31	14000	0.869	796.68	0.56
313.33	12000	0.869	787.12	0.55
313.36	7990	0.869	762.46	0.55
313.37	16040	0.869	804.9	0.56
323.02	8000	0.71	747.45	0.54
323.02	18230	0.71	769.63	0.55
323.09	14030	0.71	761.43	0.54
323.11	16040	0.71	765.46	0.54
323.12	9940	0.71	752.26	0.54
323.13	18030	0.2361	732.88	0.54
323.15	8010	0.4698	732.04	0.54
323.15	9980	0.4698	734.86	0.54
323.15	11970	0.71	756.86	0.54
323.15	12030	0.2361	727.66	0.54
323.15	16020	0.2361	731.17	0.54
323.15	18000	0.4698	745.11	0.54
323.15	19000	0.4698	746.27	0.54
323.15	19020	0.2361	733.69	0.54
323.16	14030	0.2361	729.45	0.54
323.17	12020	0.4698	737.61	0.54
323.17	15980	0.4698	742.66	0.54
323.18	8030	0.2361	723.85	0.54
323.18	9970	0.2361	725.74	0.54
323.19	13990	0.4698	740.16	0.54
323.29	16020	0.869	778.27	0.55
323.3	10010	0.869	740.74	0.55
323.3	18080	0.869	787.62	0.55
323.34	11990	0.869	755.53	0.55
323.38	14000	0.869	767.56	0.55
333.09	10020	0.71	736.44	0.54
333.1	11960	0.71	741.69	0.54
333.12	8090	0.71	730.25	0.54
333.12	17970	0.4698	735.23	0.54
333.12	18050	0.71	756.13	0.54
333.13	8020	0.2361	715.58	0.53
333.13	11990	0.4698	726.89	0.54
333.13	14000	0.4698	729.82	0.54
333.13	14030	0.2361	721.58	0.54
333.13	14050	0.71	746.85	0.54
333.13	15960	0.4698	732.55	0.54
333.13	16020	0.2361	723.45	0.54
333.13	19020	0.2361	726.15	0.54
333.14	9930	0.4698	723.71	0.54
333.15	10020	0.2361	717.65	0.53
333.15	12030	0.2361	719.64	0.54
333.15	16040	0.71	751.6	0.54
333.15	18020	0.2361	725.24	0.54
333.19	7980	0.4698	720.48	0.54
333.19	15930	0.869	754.21	0.54
333.2	18080	0.869	762.91	0.54
333.22	14070	0.869	745.06	0.54
343.02	10240	0.71	720.54	0.54
343.02	12280	0.71	726.49	0.54
343.1	12070	0.4698	716.06	0.53
343.11	16090	0.4698	722.46	0.54
343.11	19120	0.4698	726.87	0.54
343.12	14000	0.71	730.99	0.54
343.13	8070	0.4698	708.84	0.53
343.13	16030	0.71	736.12	0.54
343.13	18000	0.71	741.08	0.54
343.14	18000	0.4698	725.25	0.54
343.16	18050	0.869	743.75	0.54
343.18	9930	0.4698	712.24	0.53
343.19	13920	0.4698	719	0.54
343.21	12010	0.2361	711.78	0.53
343.23	16060	0.869	735.77	0.54
343.23	18020	0.2361	718.14	0.53
343.24	14010	0.2361	713.97	0.53
343.24	16010	0.2361	716.11	0.53
343.25	8010	0.2361	707.17	0.53
343.25	10010	0.2361	709.51	0.53
343.26	19020	0.2361	719.17	0.54
352.97	9880	0.71	706.61	0.53
352.99	18040	0.869	719.9	0.54
353.01	11990	0.71	711.36	0.53
353.06	16040	0.4698	711.93	0.53
353.06	19020	0.2361	711.31	0.53
353.09	14010	0.4698	708.37	0.53
353.09	18080	0.4698	715.25	0.53
353.1	12020	0.2361	703.37	0.53
353.11	10030	0.2361	700.96	0.53
353.11	14010	0.2361	705.7	0.53
353.12	10090	0.4698	700.82	0.53
353.12	17940	0.71	725.1	0.54
353.12	18020	0.2361	710.21	0.53
353.12	19060	0.4698	716.77	0.53
353.13	8010	0.2361	698.4	0.53
353.13	8040	0.4698	696.42	0.53
353.13	12050	0.4698	704.69	0.53
353.13	16020	0.2361	707.98	0.53
353.14	15980	0.71	719.92	0.54
353.26	14130	0.71	715.78	0.54
362.92	12050	0.71	698.95	0.53
362.99	18090	0.71	712.19	0.54
363.08	16050	0.71	707.18	0.53
363.28	14100	0.71	702.89	0.53
