Measured thermophysical data. Isobaric Vapor Liquid Equilibrium of Binary Systems of Hexane or Octane with 1,2-Dimethylbenzene or 1,3-Dimethylbenzene at 101.3 kPa
Source: J. Chem. Eng. Data, 2012, 10.1021/je3002283
Compound 1: hexane, C6H14, InChI=1S/C6H14/c1-3-5-6-4-2/h3-6H2,1-2H3, purity 99.72%
Compound 2: octane, C8H18, InChI=1S/C8H18/c1-3-5-7-8-6-4-2/h3-8H2,1-2H3, purity 99.94%
Compound 3: 1,2-dimethylbenzene, C8H10, InChI=1S/C8H10/c1-7-5-3-4-6-8(7)2/h3-6H,1-2H3, purity 99.95%
Compound 4: 1,3-dimethylbenzene, C8H10, InChI=1S/C8H10/c1-7-4-3-5-8(2)6-7/h3-6H,1-2H3, purity 99.99%

System: hexane; phases: Liquid
Property: Mass density, kg/m3 (Liquid); method: Vibrating tube method
Temperature, K	Pressure, kPa	Mass density, kg/m3	uncertainty
298.2	101.325	655.29	0.19

System: hexane; phases: Liquid, Gas
Property: Vapor or sublimation pressure, kPa (Liquid); method: Ebulliometric method (Recirculating still)
Temperature, K	Vapor or sublimation pressure, kPa	uncertainty
341.5	101.3	1
341.9	101.3	1

System: octane; phases: Liquid
Property: Mass density, kg/m3 (Liquid); method: Vibrating tube method
Temperature, K	Pressure, kPa	Mass density, kg/m3	uncertainty
298.2	101.325	698.68	0.17

System: octane; phases: Liquid, Gas
Property: Vapor or sublimation pressure, kPa (Liquid); method: Ebulliometric method (Recirculating still)
Temperature, K	Vapor or sublimation pressure, kPa	uncertainty
398.8	101.3	1

System: 1,2-dimethylbenzene; phases: Liquid
Property: Mass density, kg/m3 (Liquid); method: Vibrating tube method
Temperature, K	Pressure, kPa	Mass density, kg/m3	uncertainty
298.2	101.325	875.5	0.13

System: 1,2-dimethylbenzene; phases: Liquid, Gas
Property: Vapor or sublimation pressure, kPa (Liquid); method: Ebulliometric method (Recirculating still)
Temperature, K	Vapor or sublimation pressure, kPa	uncertainty
417.3	101.3	1

System: 1,3-dimethylbenzene; phases: Liquid
Property: Mass density, kg/m3 (Liquid); method: Vibrating tube method
Temperature, K	Pressure, kPa	Mass density, kg/m3	uncertainty
298.2	101.325	860.07	0.14

System: 1,3-dimethylbenzene; phases: Liquid, Gas
Property: Vapor or sublimation pressure, kPa (Liquid); method: Ebulliometric method (Recirculating still)
Temperature, K	Vapor or sublimation pressure, kPa	uncertainty
412.2	101.3	1
412.3	101.3	1

System: 1,2-dimethylbenzene + hexane; phases: Liquid, Gas
Fixed: Pressure, kPa = 101.3
Property: Boiling temperature at pressure P, K (Liquid); method: Ebulliometric method (Recirculating still)
Mole fraction of hexane	Boiling temperature at pressure P, K	uncertainty
1	341.5	0.1
0.936	344.4	0.1
0.819	347.8	0.1
0.725	351.4	0.1
0.625	355.7	0.1
0.515	359.6	0.1
0.429	364.6	0.1
0.343	369.5	0.1
0.231	379.9	0.1
0.187	385.5	0.1
0.122	394	0.1
0.074	402.6	0.1
0.018	414.6	0.1
0	417.3	0.1

System: 1,2-dimethylbenzene + hexane; phases: Gas, Liquid
Fixed: Pressure, kPa = 101.3
Property: Mole fraction of hexane (Gas); method: Chromatography
Mole fraction of hexane	Mole fraction of hexane	uncertainty
1	1	
0.936	0.99	0.001
0.819	0.973	0.001
0.725	0.956	0.001
0.625	0.935	0.001
0.515	0.91	0.001
0.429	0.875	0.002
0.343	0.836	0.002
0.231	0.737	0.003
0.187	0.667	0.004
0.122	0.534	0.006
0.074	0.393	0.005
0.018	0.113	0.001
0	0	

System: 1,3-dimethylbenzene + hexane; phases: Liquid, Gas
Fixed: Pressure, kPa = 101.3
Property: Boiling temperature at pressure P, K (Liquid); method: Ebulliometric method (Recirculating still)
Mole fraction of hexane	Boiling temperature at pressure P, K	uncertainty
1	341.5	0.1
0.9	344.5	0.1
0.812	346.9	0.1
0.74	348.9	0.1
0.673	351.1	0.1
0.557	355.3	0.1
0.352	366.3	0.1
0.296	371.2	0.1
0.249	375.8	0.1
0.148	388.3	0.1
0.095	396.4	0.1
0.063	401.7	0.1
0	412.2	0.1

System: 1,3-dimethylbenzene + hexane; phases: Gas, Liquid
Fixed: Pressure, kPa = 101.3
Property: Mole fraction of hexane (Gas); method: Chromatography
Mole fraction of hexane	Mole fraction of hexane	uncertainty
1	1	
0.9	0.983	0.001
0.812	0.974	0.001
0.74	0.963	0.001
0.673	0.952	0.001
0.557	0.932	0.001
0.352	0.846	0.002
0.296	0.798	0.003
0.249	0.744	0.003
0.148	0.566	0.005
0.095	0.413	0.005
0.063	0.295	0.004
0	0	

System: 1,2-dimethylbenzene + octane; phases: Liquid, Gas
Fixed: Pressure, kPa = 101.3
Property: Boiling temperature at pressure P, K (Liquid); method: Ebulliometric method (Recirculating still)
Mole fraction of octane	Boiling temperature at pressure P, K	uncertainty
0	417.3	0.2
0.065	415.7	0.3
0.091	415	0.4
0.182	412.3	0.4
0.234	410.5	0.3
0.297	409.3	0.5
0.309	408.8	0.5
0.436	406	0.3
0.537	404.5	0.3
0.667	402.6	0.3
0.786	401	0.3
0.924	399.4	0.3
1	398.8	0.2

System: 1,2-dimethylbenzene + octane; phases: Gas, Liquid
Fixed: Pressure, kPa = 101.3
Property: Mole fraction of octane (Gas); method: Chromatography
Mole fraction of octane	Mole fraction of octane	uncertainty
0	0	
0.065	0.123	0.021
0.091	0.163	0.017
0.182	0.291	0.017
0.234	0.36	0.015
0.297	0.423	0.016
0.309	0.438	0.016
0.436	0.557	0.014
0.537	0.641	0.013
0.667	0.74	0.013
0.786	0.836	0.013
0.924	0.942	0.013
1	1	

System: 1,3-dimethylbenzene + octane; phases: Liquid, Gas
Fixed: Pressure, kPa = 101.3
Property: Boiling temperature at pressure P, K (Liquid); method: Ebulliometric method (Recirculating still)
Mole fraction of octane	Boiling temperature at pressure P, K	uncertainty
0	412.3	0.2
0.038	411.4	0.3
0.131	409.8	0.3
0.249	407.3	0.3
0.32	406.2	0.3
0.351	405.5	0.3
0.45	403.9	0.3
0.556	402.5	0.3
0.659	401.6	0.3
0.741	400.9	0.3
0.843	400	0.3
0.934	399.2	0.2
1	398.8	0.2

System: 1,3-dimethylbenzene + octane; phases: Gas, Liquid
Fixed: Pressure, kPa = 101.3
Property: Mole fraction of octane (Gas); method: Chromatography
Mole fraction of octane	Mole fraction of octane	uncertainty
0	0	
0.038	0.064	0.018
0.131	0.191	0.016
0.249	0.338	0.016
0.32	0.413	0.015
0.351	0.438	0.015
0.45	0.54	0.014
0.556	0.632	0.014
0.659	0.718	0.013
0.741	0.783	0.013
0.843	0.869	0.013
0.934	0.948	0.013
1	1	
