Measured thermophysical data. Investigation of the Solubility of Octahydro-1,3,5,7-tetranitro-1,3,5,7-tetrazocine and 1,3,5-Triacetyl-hexahydro-s-triazine
Source: J. Chem. Eng. Data, 2013, 10.1021/je301237t
Compound 1: 1,3,5,7-tetraacetyloctahydro-1,3,5,7-tetrazocine, C12H20N4O4, InChI=1S/C12H20N4O4/c1-9(17)13-5-14(10(2)18)7-16(12(4)20)8-15(6-13)11(3)19/h5-8H2,1-4H3, purity 97.2%
Compound 2: 1,3,5-triacetyl-1,3,5-triazacyclohexane, C9H15N3O3, InChI=1S/C9H15N3O3/c1-7(13)10-4-11(8(2)14)6-12(5-10)9(3)15/h4-6H2,1-3H3, purity 98%
Compound 3: ethyl acetate, C4H8O2, InChI=1S/C4H8O2/c1-3-6-4(2)5/h3H2,1-2H3, purity 95%
Compound 4: methanol, CH4O, InChI=1S/CH4O/c1-2/h2H,1H3, purity 95%
Compound 5: water, H2O, InChI=1S/H2O/h1H2, purity 99.9%
Compound 6: acetonitrile, C2H3N, InChI=1S/C2H3N/c1-2-3/h1H3, purity 95%

System: ethyl acetate + 1,3,5,7-tetraacetyloctahydro-1,3,5,7-tetrazocine; phases: Liquid, Crystal
Fixed: Pressure, kPa = 101
Property: Mole fraction of 1,3,5,7-tetraacetyloctahydro-1,3,5,7-tetrazocine (Liquid); method: Gravimetric
Temperature, K	Mole fraction of 1,3,5,7-tetraacetyloctahydro-1,3,5,7-tetrazocine	uncertainty
298	0.00132	0.00011
303	0.00151	0.00013
308	0.00169	0.00014
313	0.00191	0.00016
318	0.00216	0.00018

System: methanol + 1,3,5,7-tetraacetyloctahydro-1,3,5,7-tetrazocine; phases: Liquid, Crystal
Fixed: Pressure, kPa = 101
Property: Mole fraction of 1,3,5,7-tetraacetyloctahydro-1,3,5,7-tetrazocine (Liquid); method: Gravimetric
Temperature, K	Mole fraction of 1,3,5,7-tetraacetyloctahydro-1,3,5,7-tetrazocine	uncertainty
298	0.00823	0.00083
303	0.01062	0.00101
308	0.01322	0.00129
313	0.01762	0.00171
318	0.02232	0.00206

System: water + 1,3,5,7-tetraacetyloctahydro-1,3,5,7-tetrazocine; phases: Liquid, Crystal
Fixed: Pressure, kPa = 101
Property: Mole fraction of 1,3,5,7-tetraacetyloctahydro-1,3,5,7-tetrazocine (Liquid); method: Gravimetric
Temperature, K	Mole fraction of 1,3,5,7-tetraacetyloctahydro-1,3,5,7-tetrazocine	uncertainty
298	0.00557	0.00069
303	0.00803	0.00091
308	0.01141	0.00132
313	0.01672	0.00183
318	0.02254	0.00228

System: acetonitrile + 1,3,5,7-tetraacetyloctahydro-1,3,5,7-tetrazocine; phases: Liquid, Crystal
Fixed: Pressure, kPa = 101
Property: Mole fraction of 1,3,5,7-tetraacetyloctahydro-1,3,5,7-tetrazocine (Liquid); method: Gravimetric
Temperature, K	Mole fraction of 1,3,5,7-tetraacetyloctahydro-1,3,5,7-tetrazocine	uncertainty
298	0.01258	0.00107
303	0.01422	0.00123
308	0.01682	0.00147
313	0.01964	0.00173
318	0.02351	0.00206

System: ethyl acetate + 1,3,5-triacetyl-1,3,5-triazacyclohexane; phases: Liquid, Crystal
Fixed: Pressure, kPa = 101
Property: Mole fraction of 1,3,5-triacetyl-1,3,5-triazacyclohexane (Liquid); method: Gravimetric
Temperature, K	Mole fraction of 1,3,5-triacetyl-1,3,5-triazacyclohexane	uncertainty
298	0.0153	0.00132
303	0.0178	0.0015
308	0.01981	0.00169
313	0.02362	0.00203
318	0.02705	0.00227

System: methanol + 1,3,5-triacetyl-1,3,5-triazacyclohexane; phases: Liquid, Crystal
Fixed: Pressure, kPa = 101
Property: Mole fraction of 1,3,5-triacetyl-1,3,5-triazacyclohexane (Liquid); method: Gravimetric
Temperature, K	Mole fraction of 1,3,5-triacetyl-1,3,5-triazacyclohexane	uncertainty
298	0.20433	0.01804
303	0.23793	0.02106
308	0.28282	0.02526
313	0.33546	0.02993
318	0.39451	0.03493

System: water + 1,3,5-triacetyl-1,3,5-triazacyclohexane; phases: Liquid, Crystal
Fixed: Pressure, kPa = 101
Property: Mole fraction of 1,3,5-triacetyl-1,3,5-triazacyclohexane (Liquid); method: Gravimetric
Temperature, K	Mole fraction of 1,3,5-triacetyl-1,3,5-triazacyclohexane	uncertainty
298	0.00434	0.00051
303	0.00612	0.00066
308	0.0085	0.00096
313	0.01252	0.00141
318	0.01795	0.00186

System: acetonitrile + 1,3,5-triacetyl-1,3,5-triazacyclohexane; phases: Liquid, Crystal
Fixed: Pressure, kPa = 101
Property: Mole fraction of 1,3,5-triacetyl-1,3,5-triazacyclohexane (Liquid); method: Gravimetric
Temperature, K	Mole fraction of 1,3,5-triacetyl-1,3,5-triazacyclohexane	uncertainty
298	0.04783	0.00581
303	0.06952	0.00779
308	0.10172	0.01099
313	0.14227	0.01527
318	0.20179	0.02025
