Measured thermophysical data. The Water 18-Crown-6 System: Experimental Investigation and Thermodynamic Modeling
Source: J. Chem. Eng. Data, 2013, 10.1021/je301087w
Compound 1: water, H2O, InChI=1S/H2O/h1H2, purity 99.8%
Compound 2: 1,4,7,10,13,16-hexaoxacyclooctadecane octahydrate, C12H40O14, InChI=1S/C12H24O6.8H2O/c1-2-14-5-6-16-9-10-18-12-11-17-8-7-15-4-3-13-1;;;;;;;;/h1-12H2;8*1H2, purity 98%
Compound 3: 1,4,7,10,13,16-hexaoxacyclooctadecane dodecahydrate, C12H48O18, InChI=1S/C12H24O6.12H2O/c1-2-14-5-6-16-9-10-18-12-11-17-8-7-15-4-3-13-1;;;;;;;;;;;;/h1-12H2;12*1H2, purity 98%
Compound 4: 1,4,7,10,13,16-hexaoxacyclooctadecane, C12H24O6, InChI=1S/C12H24O6/c1-2-14-5-6-16-9-10-18-12-11-17-8-7-15-4-3-13-1/h1-12H2, purity 99%

System: 1,4,7,10,13,16-hexaoxacyclooctadecane octahydrate; phases: Crystal, Liquid, Air at 1 atmosphere
Property: Molar enthalpy of transition or fusion, kJ/mol (Crystal); method: DSC
Molar enthalpy of transition or fusion, kJ/mol	uncertainty
11.7	2.4

System: 1,4,7,10,13,16-hexaoxacyclooctadecane octahydrate; phases: Crystal, Liquid, Air at 1 atmosphere
Property: Normal melting temperature, K (Crystal); method: DTA
Normal melting temperature, K	uncertainty
290.25	0.53

System: 1,4,7,10,13,16-hexaoxacyclooctadecane dodecahydrate; phases: Crystal, Liquid, Air at 1 atmosphere
Property: Molar enthalpy of transition or fusion, kJ/mol (Crystal); method: DSC
Molar enthalpy of transition or fusion, kJ/mol	uncertainty
19.5	3.9

System: 1,4,7,10,13,16-hexaoxacyclooctadecane dodecahydrate; phases: Crystal, Liquid, Air at 1 atmosphere
Property: Normal melting temperature, K (Crystal); method: DTA
Normal melting temperature, K	uncertainty
283.05	0.53

System: 1,4,7,10,13,16-hexaoxacyclooctadecane; phases: Crystal, Liquid, Air at 1 atmosphere
Property: Molar enthalpy of transition or fusion, kJ/mol (Crystal); method: DSC
Molar enthalpy of transition or fusion, kJ/mol	uncertainty
35.5	3.1

System: 1,4,7,10,13,16-hexaoxacyclooctadecane; phases: Crystal, Liquid, Air at 1 atmosphere
Property: Normal melting temperature, K (Crystal); method: DTA
Normal melting temperature, K	uncertainty
312.25	0.53

System: water + 1,4,7,10,13,16-hexaoxacyclooctadecane; phases: Liquid, Gas
Property: Vapor or sublimation pressure, kPa (Liquid); method: Closed cell (Static) method
Temperature, K	Mass fraction of 1,4,7,10,13,16-hexaoxacyclooctadecane	Vapor or sublimation pressure, kPa	uncertainty
293.15	0.0443	2.332	0.037
293.15	0.1027	2.323	0.037
293.15	0.1277	2.318	0.037
293.15	0.163	2.304	0.037
293.15	0.2268	2.277	0.037
293.15	0.2812	2.255	0.037
293.15	0.4356	2.128	0.037
293.15	0.438	2.125	0.037
293.15	0.4888	2.062	0.036
293.15	0.5344	1.983	0.036
293.15	0.6115	1.828	0.036
293.15	0.6918	1.662	0.035
293.15	0.7912	1.483	0.034
293.15	0.8603	1.36	0.034
293.15	0.8991	1.273	0.036
293.15	0.9837	0.591	0.028
293.15	0.9851	0.593	0.028
298.15	0.0443	3.158	0.039
298.15	0.1027	3.145	0.039
298.15	0.1277	3.148	0.039
298.15	0.163	3.142	0.039
298.15	0.2268	3.109	0.039
298.15	0.2812	3.082	0.038
298.15	0.4356	2.922	0.038
298.15	0.438	2.916	0.038
298.15	0.4888	2.829	0.038
298.15	0.5344	2.734	0.037
298.15	0.6115	2.546	0.037
298.15	0.6918	2.334	0.036
298.15	0.7725	2.136	0.035
298.15	0.7912	2.095	0.035
298.15	0.8603	1.924	0.035
298.15	0.8991	1.801	0.035
298.15	0.9837	0.83	0.031
298.15	0.9851	0.844	0.032
