Measured thermophysical data. Ultrasonic Properties of Hydrophobic Bis(trifluoromethylsulfonyl)imide-Based Ionic Liquids
Source: J. Chem. Eng. Data, 2012, 10.1021/je300377a
Compound 1: 1-methyl-1-octylpyrrolidinium bis(trifluoromethylsulfonyl)amide, C15H28F6N2O4S2, InChI=1S/C13H28N.C2F6NO4S2/c1-3-4-5-6-7-8-11-14(2)12-9-10-13-14;3-1(4,5)14(10,11)9-15(12,13)2(6,7)8/h3-13H2,1-2H3;/q+1;-1, purity 98%
Compound 2: 1-butyl-1-methylpyrrolidinium bis[(trifluoromethyl)sulfonyl]imide, C11H20F6N2O4S2, InChI=1S/C9H20N.C2F6NO4S2/c1-3-4-7-10(2)8-5-6-9-10;3-1(4,5)14(10,11)9-15(12,13)2(6,7)8/h3-9H2,1-2H3;/q+1;-1, purity 98%
Compound 3: 1-ethyl-1-octylpiperidinium bis((trifluoromethyl)sulfonyl)amide, C17H32F6N2O4S2, InChI=1S/C15H32N.C2F6NO4S2/c1-3-5-6-7-8-10-13-16(4-2)14-11-9-12-15-16;3-1(4,5)14(10,11)9-15(12,13)2(6,7)8/h3-15H2,1-2H3;/q+1;-1, purity 98%
Compound 4: 1-octyl-3-methylimidazolium bis[(trifluoromethyl)sulfonyl]imide, C14H23F6N3O4S2, InChI=1S/C12H23N2.C2F6NO4S2/c1-3-4-5-6-7-8-9-14-11-10-13(2)12-14;3-1(4,5)14(10,11)9-15(12,13)2(6,7)8/h10-12H,3-9H2,1-2H3;/q+1;-1, purity 98%
Compound 5: 1-octylpyridinium bis((trifluoromethyl)sulfonyl)amide, C15H22F6N2O4S2, InChI=1S/C13H22N.C2F6NO4S2/c1-2-3-4-5-6-8-11-14-12-9-7-10-13-14;3-1(4,5)14(10,11)9-15(12,13)2(6,7)8/h7,9-10,12-13H,2-6,8,11H2,1H3;/q+1;-1, purity 98%

System: 1-methyl-1-octylpyrrolidinium bis(trifluoromethylsulfonyl)amide; phases: Liquid
Fixed: Pressure, kPa = 101.325
Property: Molar heat capacity at constant pressure, J/K/mol (Liquid); method: SDSC:UFactor:24
Temperature, K	Molar heat capacity at constant pressure, J/K/mol	uncertainty
265.06	605.8016601072	290.9379220736
275.13	616.3290191296	295.7230852656
285.07	626.856378152	300.9867647768
295.04	636.426704536	305.2934116496
305.04	647.9110961968	311.03560748
315.07	658.4384552192	315.820770672
325.14	668.9658142416	321.0844501832
335.04	679.493173264	326.3481296944
345.11	690.0205322864	331.1332928864
355.01	700.5478913088	336.3969723976
365.05	711.0752503312	341.1821355896
375.01	721.6026093536	346.4458151008
385.14	732.129968376	351.2309782928

System: 1-butyl-1-methylpyrrolidinium bis[(trifluoromethyl)sulfonyl]imide; phases: Liquid
Fixed: Pressure, kPa = 101.325
Property: Molar heat capacity at constant pressure, J/K/mol (Liquid); method: SDSC:UFactor:24
Temperature, K	Molar heat capacity at constant pressure, J/K/mol	uncertainty
265.04	472.2543791056	226.8341695704
275.12	484.9266790816	232.7479095592
285.06	492.107649068	236.1271895528
295.03	498.443799056	239.0840595472
305.03	507.3144090392	243.3081595392
315.07	515.7626090232	247.5322595312
325.13	524.6332190064	251.7563595232
335.04	531.3917789936	255.1356395168
345.11	539.8399789776	258.9373295096
355	547.8657689624	263.1614295016
365.05	554.6243289496	266.118299496
375.09	563.0725289336	270.342399488
385.14	576.1672389088	276.678549476

System: 1-ethyl-1-octylpiperidinium bis((trifluoromethyl)sulfonyl)amide; phases: Liquid
Fixed: Pressure, kPa = 101.325
Property: Molar heat capacity at constant pressure, J/K/mol (Liquid); method: SDSC:UFactor:24
Temperature, K	Molar heat capacity at constant pressure, J/K/mol	uncertainty
265.01	703.6250066088	337.8818426264
275	719.328660464	345.4803848144
285.01	730.4731890064	350.5460796064
295.01	743.6439954656	357.131482836
305.01	763.4002051544	366.2497334616
315.01	782.1432758848	375.3679840872
325.01	799.3666381776	383.4730957544
335.02	814.5637225536	391.0716379424
345.02	829.2542374504	398.1636106512
355.01	844.9578913056	405.7621528392
365	868.2600873488	416.9066813816
375.01	882.4440327664	423.4920846112
385.02	903.7199508928	433.6234741952

System: 1-octyl-3-methylimidazolium bis[(trifluoromethyl)sulfonyl]imide; phases: Liquid
Fixed: Pressure, kPa = 101.325
Property: Molar heat capacity at constant pressure, J/K/mol (Liquid); method: SDSC:UFactor:24
Temperature, K	Molar heat capacity at constant pressure, J/K/mol	uncertainty
265.02	621.4427655744	298.1213573184
275	628.0993828032	301.4496659328
285.01	636.1824180096	305.2534472064
295.01	643.7899805568	309.05722848
305.02	651.8730157632	312.8610097536
315.02	660.4315236288	317.1402636864
325.02	668.5145588352	320.94404496
335.02	675.6466487232	324.2723535744
345.02	684.2051565888	328.5516075072
355.02	694.6655550912	333.3063340992
360	706.076898912	339.0120060096
375.01	720.341078688	345.6686232384
385.03	737.9335670784	354.227131104

System: 1-octylpyridinium bis((trifluoromethyl)sulfonyl)amide; phases: Liquid
Fixed: Pressure, kPa = 101.325
Property: Molar heat capacity at constant pressure, J/K/mol (Liquid); method: SDSC:UFactor:24
Temperature, K	Molar heat capacity at constant pressure, J/K/mol	uncertainty
265.04	582.5538814536	279.7014580864
275.12	597.2004105088	286.7884882744
285.05	609.0121274888	292.4581124248
295.03	620.8238444688	298.1277365752
305.03	636.8877795616	305.6872354424
315.07	652.9517146544	313.2467343096
325.13	669.0156497472	321.278701856
335.03	681.7723040856	327.4207946856
345.1	694.528958424	333.5628875152
355	707.7580814416	339.7049803448
365.05	721.9321418176	346.3195418536
375.09	738.4685455896	354.3515094
385.13	755.94988672	363.800882984
