Measured thermophysical data. Phase Equilibria of H2S-Hydrocarbons (Propane, n-Butane, and n-Pentane) Binary Systems at Low Temperatures
Source: J. Chem. Eng. Data, 2012, 10.1021/je300111m
Compound 1: pentane, C5H12, InChI=1S/C5H12/c1-3-5-4-2/h3-5H2,1-2H3
Compound 2: propane, C3H8, InChI=1S/C3H8/c1-3-2/h3H2,1-2H3
Compound 3: butane, C4H10, InChI=1S/C4H10/c1-3-4-2/h3-4H2,1-2H3
Compound 4: hydrogen sulfide, H2S, InChI=1S/H2S/h1H2

System: propane; phases: Liquid, Gas
Property: Vapor or sublimation pressure, kPa (Liquid); method: CCELL:UFactor:4
Temperature, K	Vapor or sublimation pressure, kPa	uncertainty
243.23	168	2.8
243.23	168.2	2.8
273.12	473.5	7.7

System: butane; phases: Liquid, Gas
Property: Vapor or sublimation pressure, kPa (Liquid); method: CCELL:UFactor:4
Temperature, K	Vapor or sublimation pressure, kPa	uncertainty
243.03	29.1	0.5
293.38	210.8	3.5

System: hydrogen sulfide; phases: Liquid, Gas
Property: Vapor or sublimation pressure, kPa (Liquid); method: CCELL:UFactor:4
Temperature, K	Vapor or sublimation pressure, kPa	uncertainty
243.18	380.2	6.2
243.2	379.4	6.2
273.12	1030.2	16.6
273.13	1029.3	16.6
222.83	167.3	2.8
243.02	384	6.2
293.43	1793.7	28.9

System: propane + hydrogen sulfide; phases: Liquid, Gas
Property: Vapor or sublimation pressure, kPa (Liquid); method: CCELL:UFactor:4
Temperature, K	Mole fraction of hydrogen sulfide	Vapor or sublimation pressure, kPa	uncertainty
243.22	0.01	175.8	2.9
243.23	0.023	187	3.1
243.24	0.047	207.8	3.4
243.23	0.072	227.1	3.7
243.22	0.1	246.7	4
243.23	0.129	264.6	4.3
243.22	0.156	280.7	4.6
243.23	0.181	293.8	4.8
243.23	0.205	305.5	5
243.23	0.229	316.5	5.2
243.23	0.245	323.1	5.3
243.22	0.262	329.9	5.4
243.22	0.281	336.9	5.5
243.22	0.302	343.9	5.6
243.22	0.324	350.9	5.7
243.22	0.351	358.9	5.8
243.22	0.384	367.1	6
243.22	0.418	374.8	6.1
243.22	0.462	383.2	6.2
243.22	0.547	395.7	6.4
243.22	0.638	405.2	6.6
243.22	0.739	412.1	6.7
243.21	0.767	413.4	6.7
243.22	0.788	414.7	6.7
243.23	0	168	2.8
243.23	0.015	181.3	3
243.23	0.032	196.2	3.2
243.23	0.067	224.3	3.7
243.23	0.103	249.8	4.1
243.23	0.135	269.6	4.4
243.23	0.171	289.8	4.7
243.23	0.207	308.4	5
243.22	0.243	323.7	5.3
243.22	0.283	338.8	5.5
243.22	0.323	352	5.7
243.22	0.369	364.3	5.9
243.23	0.499	389.6	6.3
243.22	0.605	402.4	6.5
243.22	0.634	405.2	6.6
243.22	0.68	409	6.6
243.22	0.713	411.1	6.7
243.22	0.724	412	6.7
243.22	0.73	412.4	6.7
243.23	0.732	412.7	6.7
243.23	0	168.2	2.8
243.18	0.996	382.3	6.2
243.18	0.993	384	6.2
243.19	0.985	387.9	6.3
243.19	0.974	392.2	6.4
243.19	0.959	397.3	6.5
243.18	0.943	401.3	6.5
243.18	0.924	405.1	6.6
243.19	0.904	407.8	6.6
243.19	0.884	410	6.7
243.19	0.851	412.1	6.7
243.19	0.819	412.8	6.7
243.19	0.787	413	6.7
243.19	0.757	412.7	6.7
243.19	0.733	412.1	6.7
243.19	0.709	411.5	6.7
243.19	0.684	410.6	6.7
243.19	0.669	410.1	6.7
243.18	1	380.2	6.2
243.21	0.994	382.8	6.2
243.2	0.987	386	6.3
243.21	0.981	388.5	6.3
243.2	0.975	391.1	6.4
243.21	0.97	392.9	6.4
243.21	0.967	394	6.4
243.21	0.961	395.9	6.4
243.21	0.955	397.8	6.5
243.21	0.944	400.2	6.5
243.21	0.934	402.3	6.5
243.21	0.922	404.4	6.6
243.21	0.906	406.8	6.6
243.2	0.889	408.7	6.6
243.2	0.87	410	6.7
243.2	0.847	411.3	6.7
243.21	0.822	411.8	6.7
243.21	0.796	411.8	6.7
243.21	0.774	411.5	6.7
243.21	0.751	411.2	6.7
243.21	0.729	410.3	6.7
243.21	0.707	409.7	6.7
243.2	1	379.4	6.2
273.12	0.996	1033.4	16.7
273.12	0.987	1040.6	16.8
273.12	0.974	1049.6	16.9
273.12	0.919	1072.3	17.3
273.12	0.866	1080.2	17.4
273.12	0.816	1080.1	17.4
273.11	0.762	1074.6	17.3
273.11	0.66	1054.8	17
273.12	0.585	1032.9	16.7
273.12	1	1030.2	16.6
273.11	0.996	1032.7	16.7
273.12	0.989	1038.2	16.8
273.12	0.976	1047.7	16.9
273.12	0.957	1058.3	17.1
273.11	0.921	1070.8	17.3
273.12	0.888	1077.2	17.4
273.12	0.871	1078.8	17.4
273.12	0.855	1079.5	17.4
273.12	0.84	1079.8	17.4
273.12	0.823	1079.5	17.4
273.11	0.808	1079	17.4
273.12	0.79	1077.5	17.4
273.12	0.769	1075.5	17.3
273.12	0.74	1070.9	17.3
273.12	0.688	1061	17.1
273.13	1	1029.3	16.6
273.11	0.017	503.8	8.2
273.1	0.042	545.6	8.8
273.11	0.068	587.7	9.5
273.1	0.099	634.2	10.2
273.1	0.133	682	11
273.1	0.181	741.6	12
273.11	0.237	804.1	13
273.1	0.294	858.1	13.8
273.11	0.355	907.7	14.6
273.1	0.415	947.6	15.3
273.11	0.484	986.5	15.9
273.12	0.577	1027.1	16.6
273.12	0	473.5	7.7

System: butane + hydrogen sulfide; phases: Liquid, Gas
Property: Vapor or sublimation pressure, kPa (Liquid); method: CCELL:UFactor:4
Temperature, K	Mole fraction of hydrogen sulfide	Vapor or sublimation pressure, kPa	uncertainty
222.83	0.983	165.5	2.7
222.83	0.958	163.2	2.7
222.84	0.925	160.5	2.7
222.82	0.888	157.9	2.6
222.83	0.849	155.5	2.6
222.82	0.801	153	2.5
222.83	0.74	150	2.5
222.83	0.671	146.4	2.4
222.82	0.601	142.4	2.4
222.84	0.521	137.1	2.3
222.83	0.442	130.7	2.2
222.83	1	167.3	2.8
243.03	0	29.1	0.5
243.01	0.981	380	6.2
243.02	0.964	376	6.1
243.04	0.946	372.4	6.1
243.03	0.922	367.7	6
243.03	0.892	362	5.9
243.03	0.858	356.4	5.8
243.03	0.819	350.3	5.7
243.03	0.778	344	5.6
243.02	0.737	337.7	5.5
243.03	0.691	330.6	5.4
243.03	0.633	320.9	5.2
243.03	0.581	311.9	5.1
243.03	0.519	299.5	4.9
243.02	0.454	285.9	4.7
243.04	0.021	48.8	0.9
243.03	0.042	66.9	1.2
243.03	0.072	91.4	1.5
243.03	0.096	109.3	1.8
243.02	0.128	132.2	2.2
243.03	0.16	153.2	2.5
243.02	0.21	183.2	3
243.03	0.261	209.7	3.4
243.03	0.322	236.5	3.9
243.03	0.379	258.3	4.2
243.02	1	384	6.2
263	0.994	758.2	12.3
262.99	0.987	754.9	12.2
263	0.977	750.8	12.1
262.99	0.961	743.7	12
262.99	0.944	736.4	11.9
262.99	0.921	727.1	11.8
263	0.893	716.3	11.6
262.97	0.857	703.1	11.4
263	0.816	689.4	11.1
262.99	0.771	675.2	10.9
263.01	0.731	662.9	10.7
263	0.039	130.3	2.2
263.02	0.07	172.3	2.8
262.99	0.099	211.1	3.5
262.99	0.127	245.3	4
263.01	0.156	279.2	4.6
262.99	0.211	337.8	5.5
263	0.245	371.3	6
263	0.285	406.9	6.6
263.01	0.323	437.7	7.1
262.99	0.367	471	7.6
262.99	0.416	504.2	8.2
263.01	0.469	536.5	8.7
263	0.54	574.3	9.3
283.21	0.024	204.7	3.4
283.21	0.048	255.9	4.2
283.2	0.072	305.6	5
283.22	0.125	410	6.7
283.18	0.153	460.8	7.5
283.2	0.175	499	8.1
283.21	0.205	551.5	8.9
283.21	0.232	597.6	9.7
283.21	0.271	659.1	10.6
283.21	0.297	697.8	11.3
283.21	0.332	748.4	12.1
283.2	0.363	791	12.8
283.21	0.407	847.3	13.7
283.21	0.449	896.8	14.5
283.21	0.493	945.5	15.2
283.21	0.543	996.6	16.1
283.21	0.596	1047.9	16.9
283.21	0.654	1100	17.7
283.21	0.711	1147.6	18.5
283.3	0.991	1374.5	22.2
283.3	0.98	1364.6	22
283.29	0.966	1352.6	21.8
283.3	0.95	1338.8	21.6
283.3	0.93	1321.6	21.3
283.3	0.901	1298.3	20.9
283.31	0.865	1270.5	20.5
283.28	0.824	1239.4	20
283.28	0.77	1198.2	19.3
283.31	0.696	1140.2	18.4
293.38	0	210.8	3.5
293.38	0.017	254.8	4.2
293.38	0.039	311.7	5.1
293.37	0.064	377	6.1
293.38	0.091	441.3	7.2
293.38	0.114	495	8
293.36	0.151	580.9	9.4
293.37	0.188	664.7	10.7
293.4	0.219	729.3	11.8
293.38	0.249	790.3	12.8
293.35	0.281	852.1	13.7
293.39	0.313	912	14.7
293.39	0.344	967.5	15.6
293.36	0.374	1019.7	16.4
293.38	0.41	1077.8	17.4
293.36	0.459	1154.7	18.6
293.36	0.51	1228.5	19.8
293.4	0.739	1509.1	24.3
293.36	0.762	1534.7	24.7
293.32	0.786	1560.1	25.1
293.35	0.811	1586.8	25.6
293.39	0.841	1618.1	26.1
293.36	0.878	1657.7	26.7
293.36	0.891	1672	26.9
293.26	0.922	1705.1	27.5
293.37	0.945	1731.1	27.9
293.33	0.958	1745.5	28.1
293.34	0.976	1765.3	28.4
293.34	0.984	1774	28.6
293.37	0.992	1783.2	28.7
293.31	0.996	1786.5	28.8
293.43	1	1793.7	28.9

System: pentane + hydrogen sulfide; phases: Liquid, Gas
Property: Vapor or sublimation pressure, kPa (Liquid); method: CCELL:UFactor:4
Temperature, K	Mole fraction of hydrogen sulfide	Vapor or sublimation pressure, kPa	uncertainty
223.11	0.296	104	1.8
223.11	0.764	150.2	2.5
223.13	0.102	42.3	0.8
223.13	0.681	145.8	2.4
223.13	0.725	147.8	2.5
223.15	0.227	88.1	1.5
223.15	0.371	117.9	2
223.15	0.439	126.8	2.1
223.15	0.167	67.2	1.2
223.18	0.054	17.3	0.4
223.18	0.571	138.8	2.3
223.18	0.629	142.5	2.4
223.19	0.739	148.3	2.5
223.22	0.774	150.1	2.5
223.22	0.702	146.9	2.4
223.23	0.845	153.2	2.5
223.23	0.809	151.9	2.5
223.24	0.935	159.8	2.6
223.27	0.879	155.6	2.6
223.28	0.974	163.5	2.7
223.28	0.912	157.6	2.6
242.89	0.053	32.5	0.6
242.89	0.1	77.4	1.3
242.89	0.164	125.8	2.1
242.89	0.367	237.8	3.9
242.89	0.436	261	4.3
242.89	0.505	280.3	4.6
242.89	0.569	295.2	4.8
242.89	0.628	307.2	5
242.89	0.68	316.4	5.2
242.89	0.725	323.9	5.3
242.89	0.763	330.8	5.4
242.91	0.223	168.8	2.8
242.93	0.293	204.7	3.4
243.12	0.935	362.4	5.9
243.14	0.844	345.1	5.6
243.17	0.808	339.4	5.5
243.18	0.773	333.9	5.4
243.19	0.912	358.5	5.8
243.2	0.738	329.1	5.4
243.2	0.702	323	5.3
243.22	0.974	374	6.1
243.22	0.878	352.4	5.7
262.85	0.051	57.7	1
262.85	0.219	288.7	4.7
262.85	0.501	518.6	8.4
262.85	0.626	583.3	9.5
262.92	0.679	607.3	9.8
262.92	0.724	626.9	10.2
262.93	0.097	130.5	2.2
262.93	0.16	212.3	3.5
262.93	0.288	357.7	5.8
262.93	0.362	426.3	6.9
262.93	0.432	475.5	7.7
262.93	0.566	555.5	9
262.93	0.763	643.3	10.4
263.18	0.878	694	11.2
263.18	0.772	649.2	10.5
263.19	0.701	620	10.1
263.2	0.911	710.6	11.5
263.21	0.973	745.3	12.1
263.22	0.843	679.7	11
263.22	0.737	634.9	10.3
263.24	0.808	664.5	10.8
263.27	0.934	723.1	11.7
