Measured thermophysical data. Measurements, Correlations, and Predictions of Thermodynamic Properties of N-Octylisoquinolinium Thiocyanate Ionic Liquid and Its Aqueous Solutions
Source: J. Chem. Eng. Data, 2013, 10.1021/je300853z
Compound 1: 2-octylisoquinolinium thiocyanate, C18H24N2S, InChI=1S/C17H24N.CHNS/c1-2-3-4-5-6-9-13-18-14-12-16-10-7-8-11-17(16)15-18;2-1-3/h7-8,10-12,14-15H,2-6,9,13H2,1H3;3H/q+1;/p-1
Compound 2: water, H2O, InChI=1S/H2O/h1H2

System: 2-octylisoquinolinium thiocyanate; phases: Glass, Liquid, Air at 1 atmosphere
Property: Triple point temperature, K (Glass); method: DTA
Triple point temperature, K	uncertainty
216.1	3

System: 2-octylisoquinolinium thiocyanate; phases: Liquid
Fixed: Pressure, kPa = 101.325
Property: Molar heat capacity at constant pressure, J/K/mol (Liquid); method: Small sample (50 mg) DSC
Temperature, K	Molar heat capacity at constant pressure, J/K/mol	uncertainty
278.15	510	17
283.15	513	17
288.15	516	17
293.15	519	17
298.15	522	17
303.15	525	17
308.15	528	18
313.15	531	18
318.15	533	18
323.15	535	18
328.15	537	18
333.15	538	18
338.15	540	18
343.15	540	18

System: 2-octylisoquinolinium thiocyanate; phases: Liquid
Fixed: Pressure, kPa = 101.325
Property: Viscosity, Pa*s (Liquid); method: OTHER:UFactor:4:sMethod:rheometer
Temperature, K	Viscosity, Pa*s	uncertainty
298.15	2.388	0.0363
303.15	1.6121	0.0245
308.15	1.1095	0.0169
313.15	0.74387	0.01132
318.15	0.51378	0.00781
323.15	0.36548	0.00555
328.15	0.26677	0.00405
333.15	0.19926	0.00302
338.15	0.15221	0.00231
343.15	0.11851	0.0018
348.15	0.093828	0.001423

System: 2-octylisoquinolinium thiocyanate; phases: Liquid
Fixed: Pressure, kPa = 101.325
Property: Mass density, kg/m3 (Liquid); method: Vibrating tube method
Temperature, K	Mass density, kg/m3	uncertainty
288.15	1067.27	2.17
293.15	1064.44	2.16
298.15	1061.69	2.14
303.15	1058.82	2.13
308.15	1055.96	2.12
313.15	1053.11	2.11
318.15	1050.26	2.09
323.15	1047.42	2.08
328.15	1044.57	2.07
333.15	1041.72	2.06
338.15	1038.94	2.05
343.15	1036.2	2
348.15	1033.47	2.02

System: water + 2-octylisoquinolinium thiocyanate; phases: Liquid mixture 1, Liquid mixture 2
Fixed: Pressure, kPa = 101
Property: Liquid-liquid equilibrium temperature, K (Liquid mixture 1); method: VISOBS
Mole fraction of 2-octylisoquinolinium thiocyanate	Liquid-liquid equilibrium temperature, K	uncertainty
0.2487	352.7	1
0.2543	350	1
0.2585	347.6	1
0.2673	344.1	1
0.2796	336.2	1
0.2855	332.7	1
0.2921	326.7	1
0.2987	318.9	1
0.307	312.2	1
0.3119	305	1
0.3206	298.5	1

System: water + 2-octylisoquinolinium thiocyanate; phases: Liquid
Fixed: Pressure, kPa = 101
Property: Molar heat capacity at constant pressure, J/K/mol (Liquid); method: Small sample (50 mg) DSC
Mole fraction of 2-octylisoquinolinium thiocyanate	Temperature, K	Molar heat capacity at constant pressure, J/K/mol	uncertainty
0.3977	278.15	248	5
0.3977	283.15	250	5
0.3977	288.15	251	5
0.3977	293.15	253	5
0.3977	298.15	255	5
0.3977	303.15	257	5
0.3977	308.15	258	5
0.3977	313.15	260	5
0.3977	318.15	261	5
0.3977	323.15	261	5
0.3977	328.15	262	5
0.3977	333.15	263	5
0.3977	338.15	263	5
0.5237	278.15	295	6
0.5237	283.15	304	6
0.5237	288.15	306	6
0.5237	293.15	309	6
0.5237	298.15	311	6
0.5237	303.15	313	6
0.5237	308.15	315	6
0.5237	313.15	316	6
0.5237	318.15	318	6
0.5237	323.15	319	6
0.5237	328.15	320	6
0.5237	333.15	321	6
0.5237	338.15	322	6
0.5945	278.15	334	7
0.5945	283.15	337	7
0.5945	288.15	340	7
0.5945	293.15	342	7
0.5945	298.15	344	7
0.5945	303.15	347	7
0.5945	308.15	349	7
0.5945	313.15	351	7
0.5945	318.15	353	7
0.5945	323.15	355	7
0.5945	328.15	357	7
0.5945	333.15	358	7
0.5945	338.15	360	7
0.7214	278.15	386	8
0.7214	283.15	388	8
0.7214	288.15	391	8
0.7214	293.15	393	8
0.7214	298.15	396	8
0.7214	303.15	398	8
0.7214	308.15	400	8
0.7214	313.15	402	8
0.7214	318.15	404	8
0.7214	323.15	405	8
0.7214	328.15	406	8
0.7214	333.15	408	8
0.7214	338.15	408	8
0.8097	278.15	423	8
0.8097	283.15	426	9
0.8097	288.15	429	9
0.8097	293.15	432	9
0.8097	298.15	434	9
0.8097	303.15	437	9
0.8097	308.15	439	9
0.8097	313.15	441	9
0.8097	318.15	441	9
0.8097	323.15	442	9
0.8097	328.15	443	9
0.8097	333.15	443	9
0.8097	338.15	442	9
0.8935	278.15	467	9
0.8935	283.15	470	9
0.8935	288.15	474	9
0.8935	293.15	476	10
0.8935	298.15	479	10
0.8935	303.15	482	10
0.8935	308.15	484	10
0.8935	313.15	487	10
0.8935	318.15	490	10
0.8935	323.15	492	10
0.8935	328.15	495	10
0.8935	333.15	497	10
0.8935	338.15	500	10

System: water + 2-octylisoquinolinium thiocyanate; phases: Liquid
Fixed: Pressure, kPa = 101
Property: Excess molar enthalpy (molar enthalpy of mixing), kJ/mol (Liquid); method: Calvet calorimetry
Temperature, K	Mole fraction of 2-octylisoquinolinium thiocyanate	Excess molar enthalpy (molar enthalpy of mixing), kJ/mol	uncertainty
298.15	0.2433	0.129	0.00178
298.15	0.258	0.122	0.00173
298.15	0.2745	0.104	0.00159
298.15	0.2933	0.0661	0.0013
298.15	0.3149	0.00596	0.00084
298.15	0.3361	-0.0525	0.00119
298.15	0.3603	-0.121	0.00172
298.15	0.3833	-0.181	0.00218
298.15	0.4094	-0.243	0.00266
298.15	0.4329	-0.294	0.00306
298.15	0.4593	-0.343	0.00344
298.15	0.4892	-0.391	0.00381
298.15	0.5141	-0.422	0.00406
298.15	0.5417	-0.448	0.00427
298.15	0.5724	-0.467	0.00443
298.15	0.6068	-0.476	0.0045
298.15	0.6457	-0.473	0.00448
298.15	0.6742	-0.463	0.0044
298.15	0.7053	-0.44	0.00421
298.15	0.7395	-0.407	0.00395
298.15	0.7771	-0.363	0.0036
298.15	0.7969	-0.337	0.00339
298.15	0.8176	-0.304	0.00314
298.15	0.8395	-0.268	0.00286
298.15	0.8626	-0.227	0.00255
298.15	0.887	-0.186	0.00223
298.15	0.9128	-0.139	0.00187
298.15	0.9401	-0.0884	0.00149
298.15	0.9691	-0.0316	0.00106
303.15	0.2439	0.176	0.00214
303.15	0.2588	0.156	0.00199
303.15	0.2756	0.123	0.00173
303.15	0.2947	0.0689	0.00132
303.15	0.3133	0.013	0.00089
303.15	0.3344	-0.0492	0.00117
303.15	0.3586	-0.118	0.0017
303.15	0.3815	-0.18	0.00218
303.15	0.4076	-0.244	0.00267
303.15	0.4311	-0.296	0.00307
303.15	0.4575	-0.347	0.00347
303.15	0.4873	-0.395	0.00385
303.15	0.5122	-0.427	0.0041
303.15	0.5398	-0.455	0.00433
303.15	0.5706	-0.476	0.0045
303.15	0.605	-0.488	0.0046
303.15	0.644	-0.489	0.00461
303.15	0.6725	-0.48	0.00453
303.15	0.7038	-0.463	0.0044
303.15	0.7381	-0.435	0.00417
303.15	0.7758	-0.393	0.00383
303.15	0.7957	-0.368	0.00363
303.15	0.8165	-0.339	0.00341
303.15	0.8385	-0.305	0.00315
303.15	0.8617	-0.269	0.00287
303.15	0.8862	-0.23	0.00257
303.15	0.9122	-0.182	0.0022
303.15	0.9397	-0.127	0.00178
303.15	0.9689	-0.0658	0.00132
308.15	0.214	0.268	0.00285
308.15	0.2281	0.256	0.00276
308.15	0.2422	0.235	0.0026
308.15	0.2581	0.19	0.00225
308.15	0.2762	0.13	0.00179
308.15	0.297	0.0602	0.00125
308.15	0.3176	-0.00593	0.00084
308.15	0.3411	-0.0809	0.00141
308.15	0.3636	-0.146	0.00191
308.15	0.3892	-0.216	0.00245
308.15	0.4124	-0.272	0.00289
308.15	0.4385	-0.327	0.00331
308.15	0.4682	-0.382	0.00374
308.15	0.493	-0.419	0.00404
308.15	0.5207	-0.453	0.00431
308.15	0.5517	-0.48	0.00453
308.15	0.5866	-0.499	0.00469
308.15	0.6262	-0.505	0.00474
308.15	0.6554	-0.5	0.0047
308.15	0.6876	-0.487	0.00459
308.15	0.723	-0.462	0.00439
308.15	0.7622	-0.425	0.00409
308.15	0.7829	-0.403	0.00391
308.15	0.8048	-0.376	0.0037
308.15	0.8278	-0.345	0.00346
308.15	0.8523	-0.308	0.00317
308.15	0.8782	-0.264	0.00283
308.15	0.9058	-0.216	0.00246
308.15	0.9352	-0.163	0.00206
308.15	0.9665	-0.102	0.00159
