Measured thermophysical data. Thermodynamic Properties of the Water + 1-(2-Hydroxylethyl)-3-methylimidazolium Chloride System
Source: J. Chem. Eng. Data, 2012, 10.1021/je3007953
Compound 1: sodium chloride, ClNa, InChI=1S/ClH.Na/h1H;/q;+1/p-1, purity 99.5%
Compound 2: water, H2O, InChI=1S/H2O/h1H2, purity 99.9%
Compound 3: 1-(2-hydroxyethyl)-3-methyl-1H-imidazolium chloride, C6H11ClN2O, InChI=1S/C6H11N2O.ClH/c1-7-2-3-8(6-7)4-5-9;/h2-3,6,9H,4-5H2,1H3;1H/q+1;/p-1, purity 99%

System: sodium chloride + water; phases: Liquid, Gas
Fixed: Mass fraction of sodium chloride = 0.25
Property: Vapor or sublimation pressure, kPa (Liquid); method: Closed cell (Static) method
Temperature, K	Vapor or sublimation pressure, kPa	uncertainty
297.19	2.38	0.03
302.09	3.09	0.04
314.52	6.13	0.07
327.43	11.74	0.13
334.84	16.62	0.18
344.09	24.97	0.27
353.95	37.71	0.41
364.03	56.04	0.61
372.84	77.56	0.84
380.48	101.52	1.1

System: water + 1-(2-hydroxyethyl)-3-methyl-1H-imidazolium chloride; phases: Liquid, Gas
Property: Molar heat capacity at constant pressure, J/K/mol (Liquid); method: Small sample (50 mg) DSC
Temperature, K	Mole fraction of 1-(2-hydroxyethyl)-3-methyl-1H-imidazolium chloride	Molar heat capacity at constant pressure, J/K/mol	uncertainty
298.15	0.0122	75.3398	1.167
298.15	0.0453	79.9861	1.253
298.15	0.0997	88.4099	1.362
298.15	0.2054	107.219	1.67
298.15	0.3071	124.595	1.935
303.15	0.0122	75.6958	1.167
303.15	0.0453	80.5756	1.253
303.15	0.0997	89.2531	1.395
303.15	0.2054	108.221	1.67
303.15	0.3071	125.969	1.935
308.15	0.0122	76.0717	1.187
308.15	0.0453	81.1407	1.253
308.15	0.0997	90.0963	1.395
308.15	0.2054	109.318	1.718
308.15	0.3071	127.404	1.998
313.15	0.0122	76.4079	1.187
313.15	0.0453	81.6811	1.277
313.15	0.0997	90.9071	1.395
313.15	0.2054	110.273	1.718
313.15	0.3071	128.965	1.998
318.15	0.0122	76.8628	1.187
318.15	0.0453	82.3935	1.277
318.15	0.0997	91.9125	1.427
318.15	0.2054	111.657	1.718
318.15	0.3071	130.65	1.998
323.15	0.0122	77.2386	1.207
323.15	0.0453	83.0076	1.277
323.15	0.0997	92.7882	1.427
323.15	0.2054	112.945	1.766
323.15	0.3071	132.148	2.06
328.15	0.0122	77.6145	1.207
328.15	0.0453	83.5727	1.302
328.15	0.0997	93.6639	1.459
328.15	0.2054	114.186	1.766
328.15	0.3071	133.709	2.06
333.15	0.0122	77.9705	1.207
333.15	0.0453	84.1622	1.302
333.15	0.0997	94.5395	1.459
333.15	0.2054	115.522	1.813
333.15	0.3071	135.394	2.122
338.15	0.0122	78.3859	1.207
338.15	0.0453	84.8501	1.327
338.15	0.0997	95.5125	1.492
338.15	0.2054	117.001	1.813
338.15	0.3071	137.33	2.122
343.15	0.0122	78.9001	1.226
343.15	0.0453	85.6362	1.327
343.15	0.0997	96.6476	1.492
343.15	0.2054	118.671	1.861
343.15	0.3071	139.452	2.185
348.15	0.0122	79.2364	1.226
348.15	0.0453	86.2012	1.327
348.15	0.0997	97.4908	1.524
348.15	0.2054	120.055	1.861
348.15	0.3071	141.387	2.185
353.15	0.0122	79.6715	1.226
353.15	0.0453	86.889	1.351
353.15	0.0997	98.4638	1.524
353.15	0.2054	121.677	1.909
353.15	0.3071	143.572	2.247

System: water + 1-(2-hydroxyethyl)-3-methyl-1H-imidazolium chloride; phases: Liquid, Gas
Property: Vapor or sublimation pressure, kPa (Liquid); method: Closed cell (Static) method
Temperature, K	Mole fraction of 1-(2-hydroxyethyl)-3-methyl-1H-imidazolium chloride	Vapor or sublimation pressure, kPa	uncertainty
300.73	0.0997	2.82	0.09
301.4	0.0453	3.62	0.1
301.87	0.0122	3.88	0.1
309.53	0.0997	4.82	0.1
310.59	0.0453	6.05	0.1
314.82	0.2054	4.13	0.1
316.31	0.0122	8.39	0.12
318.19	0.0997	7.61	0.11
318.57	0.3071	3.25	0.09
318.58	0.0453	9.03	0.13
323.51	0.0122	12.14	0.18
324.73	0.2054	6.86	0.11
326.37	0.0453	13.26	0.19
326.51	0.0997	11.43	0.16
329.16	0.3071	5.52	0.1
332.49	0.0122	18.76	0.26
334.04	0.2054	10.91	0.15
334.14	0.0453	19.02	0.26
335.28	0.0997	17.07	0.24
336.84	0.3071	7.89	0.11
341.48	0.0453	26.54	0.36
341.57	0.0122	28.3	0.38
343.27	0.2054	16.37	0.22
344.1	0.0997	25.31	0.34
345.67	0.3071	11.58	0.16
349.5	0.0453	37.28	0.5
350.86	0.0122	42.01	0.55
352.9	0.2054	24.57	0.32
352.98	0.0997	36.66	0.49
354.19	0.3071	16.46	0.22
358.32	0.0453	53.06	0.69
359.08	0.0122	58.38	0.75
361.71	0.2054	34.96	0.46
361.73	0.0997	52.01	0.67
362.97	0.3071	23.16	0.3
366.14	0.0122	76.71	0.98
366.3	0.0453	72.02	0.93
370.39	0.0997	71.72	0.92
371.12	0.2054	50.03	0.64
372.87	0.3071	33.52	0.43
373.56	0.0122	100.85	1.24
375.6	0.0453	100.8	1.22
380.1	0.0997	101.09	1.21
381.43	0.2054	72.32	0.91
382.12	0.3071	46.75	0.59
390.3	0.3071	62.08	0.77
391.6	0.2054	102.29	1.23
398.32	0.3071	80.45	0.98
406.45	0.3071	101.8	1.2

System: water + 1-(2-hydroxyethyl)-3-methyl-1H-imidazolium chloride; phases: Liquid, Gas
Property: Mass density, kg/m3 (Liquid); method: Vibrating tube method
Temperature, K	Mole fraction of 1-(2-hydroxyethyl)-3-methyl-1H-imidazolium chloride	Mass density, kg/m3	uncertainty
298.15	0.0122	1016.85	0.27
298.15	0.0453	1059.73	0.22
298.15	0.0997	1107.52	0.16
298.15	0.2054	1136.95	0.15
298.15	0.3071	1187.93	0.15
303.15	0.0122	1015.23	0.27
303.15	0.0453	1057.69	0.22
303.15	0.0997	1105.14	0.13
303.15	0.2054	1134.43	0.13
303.15	0.3071	1185.25	0.15
308.15	0.0122	1013.43	0.26
308.15	0.0453	1055.55	0.21
308.15	0.0997	1102.71	0.13
308.15	0.2054	1131.88	0.13
308.15	0.3071	1182.56	0.15
313.15	0.0122	1011.46	0.26
313.15	0.0453	1053.3	0.2
313.15	0.0997	1100.22	0.13
313.15	0.2054	1129.28	0.13
313.15	0.3071	1179.87	0.15
318.15	0.0122	1009.27	0.26
318.15	0.0453	1050.94	0.21
318.15	0.0997	1097.68	0.12
318.15	0.2054	1126.66	0.12
318.15	0.3071	1177.16	0.15
323.15	0.0122	1005.9	0.27
323.15	0.0453	1048.46	0.22
323.15	0.0997	1095.08	0.18
323.15	0.2054	1123.99	0.13
323.15	0.3071	1174.45	0.15
