Measured thermophysical data. Density, Surface Tension, and Refractive Index of Ionic Liquids Homologue of 1-Alkyl-3-methylimidazolium Tetrafluoroborate [Cnmim][BF4] (n = 2,3,4,5,6)
Source: J. Chem. Eng. Data, 2012, 10.1021/je3000348
Compound 1: 1-ethyl-3-methylimidazolium tetrafluoroborate, C6H11BF4N2, InChI=1S/C6H11N2.BF4/c1-3-8-5-4-7(2)6-8;2-1(3,4)5/h4-6H,3H2,1-2H3;/q+1;-1, purity 99%
Compound 2: 1-propyl-3-methylimidazolium tetrafluoroborate, C7H13BF4N2, InChI=1S/C7H13N2.BF4/c1-3-4-9-6-5-8(2)7-9;2-1(3,4)5/h5-7H,3-4H2,1-2H3;/q+1;-1, purity 99%
Compound 3: 1-butyl-3-methylimidazolium tetrafluoroborate, C8H15BF4N2, InChI=1S/C8H15N2.BF4/c1-3-4-5-10-7-6-9(2)8-10;2-1(3,4)5/h6-8H,3-5H2,1-2H3;/q+1;-1, purity 99%
Compound 4: 1-hexyl-3-methylimidazolium tetrafluoroborate, C10H19BF4N2, InChI=1S/C10H19N2.BF4/c1-3-4-5-6-7-12-9-8-11(2)10-12;2-1(3,4)5/h8-10H,3-7H2,1-2H3;/q+1;-1, purity 99%
Compound 5: 1-methyl-3-pentyl-imidazolium tetrafluoroborate, C9H17BF4N2, InChI=1S/C9H17N2.BF4/c1-3-4-5-6-11-8-7-10(2)9-11;2-1(3,4)5/h7-9H,3-6H2,1-2H3;/q+1;-1, purity 99%

System: 1-ethyl-3-methylimidazolium tetrafluoroborate; phases: Liquid, Air at 1 atmosphere
Property: Surface tension liquid-gas, N/m (Liquid); method: Maximal bubble pressure
Temperature, K	Surface tension liquid-gas, N/m	uncertainty
298.15	0.0501	0.0005
303.15	0.0497	0.0005
308.15	0.0493	0.0005
313.15	0.049	0.0005
318.15	0.0487	0.0005
323.15	0.0484	0.0005
328.15	0.048	0.0005
333.15	0.0476	0.0005
338.15	0.0473	0.0005

System: 1-ethyl-3-methylimidazolium tetrafluoroborate; phases: Liquid
Fixed: Pressure, kPa = 101.325
Property: Refractive index (Na D-line) (Liquid); method: Standard Abbe refractometry
Temperature, K	Refractive index (Na D-line)	uncertainty
298.15	1.4121	0.0005
303.15	1.4109	0.0005
308.15	1.4099	0.0005
313.15	1.409	0.0005
318.15	1.408	0.0005
323.15	1.4069	0.0005
328.15	1.4057	0.0005
333.15	1.4047	0.0005
338.15	1.4036	0.0005

System: 1-ethyl-3-methylimidazolium tetrafluoroborate; phases: Liquid
Fixed: Pressure, kPa = 101.325
Property: Mass density, kg/m3 (Liquid); method: Buoyancy - hydrostatic balance
Temperature, K	Mass density, kg/m3	uncertainty
298.15	1279.8	10
303.15	1277.7	10
308.15	1275.2	10
313.15	1272.4	10
318.15	1270	10
323.15	1267.5	10
328.15	1264.9	10
333.15	1262	10
338.15	1259.3	10

System: 1-propyl-3-methylimidazolium tetrafluoroborate; phases: Liquid, Air at 1 atmosphere
Property: Surface tension liquid-gas, N/m (Liquid); method: Maximal bubble pressure
Temperature, K	Surface tension liquid-gas, N/m	uncertainty
298.15	0.047	0.0005
303.15	0.0467	0.0004
308.15	0.0464	0.0004
313.15	0.0461	0.0004
318.15	0.0458	0.0004
323.15	0.0454	0.0004
328.15	0.045	0.0004
333.15	0.0445	0.0004
338.15	0.0441	0.0004

System: 1-propyl-3-methylimidazolium tetrafluoroborate; phases: Liquid
Fixed: Pressure, kPa = 101.325
Property: Refractive index (Na D-line) (Liquid); method: Standard Abbe refractometry
Temperature, K	Refractive index (Na D-line)	uncertainty
298.15	1.4165	0.0005
303.15	1.4153	0.0005
308.15	1.4142	0.0005
313.15	1.4132	0.0005
318.15	1.412	0.0005
323.15	1.411	0.0005
328.15	1.4098	0.0005
333.15	1.4086	0.0005
338.15	1.4075	0.0005

System: 1-propyl-3-methylimidazolium tetrafluoroborate; phases: Liquid
Fixed: Pressure, kPa = 101.325
Property: Mass density, kg/m3 (Liquid); method: Buoyancy - hydrostatic balance
Temperature, K	Mass density, kg/m3	uncertainty
298.15	1236.1	10
303.15	1233.9	10
308.15	1231.2	10
313.15	1228.8	10
318.15	1226.8	10
323.15	1224.1	10
328.15	1221.8	10
333.15	1219.3	10
338.15	1216.7	10

System: 1-butyl-3-methylimidazolium tetrafluoroborate; phases: Liquid, Air at 1 atmosphere
Property: Surface tension liquid-gas, N/m (Liquid); method: Maximal bubble pressure
Temperature, K	Surface tension liquid-gas, N/m	uncertainty
298.15	0.0447	0.0004
303.15	0.0443	0.0004
308.15	0.044	0.0004
313.15	0.0436	0.0004
318.15	0.0433	0.0004
323.15	0.0429	0.0004
328.15	0.0425	0.0004
333.15	0.0421	0.0004
338.15	0.0417	0.0004

System: 1-butyl-3-methylimidazolium tetrafluoroborate; phases: Liquid
Fixed: Pressure, kPa = 101.325
Property: Refractive index (Na D-line) (Liquid); method: Standard Abbe refractometry
Temperature, K	Refractive index (Na D-line)	uncertainty
298.15	1.4211	0.0005
303.15	1.42	0.0005
308.15	1.4192	0.0005
313.15	1.4182	0.0005
318.15	1.4172	0.0005
323.15	1.4162	0.0005
328.15	1.4151	0.0005
333.15	1.414	0.0005
338.15	1.413	0.0005

System: 1-butyl-3-methylimidazolium tetrafluoroborate; phases: Liquid
Fixed: Pressure, kPa = 101.325
Property: Mass density, kg/m3 (Liquid); method: Buoyancy - hydrostatic balance
Temperature, K	Mass density, kg/m3	uncertainty
298.15	1201.5	10
303.15	1199.1	10
308.15	1197.7	10
313.15	1195.5	10
318.15	1193.2	10
323.15	1191.2	10
328.15	1188.5	10
333.15	1186.5	10
338.15	1184	10

System: 1-hexyl-3-methylimidazolium tetrafluoroborate; phases: Liquid, Air at 1 atmosphere
Property: Surface tension liquid-gas, N/m (Liquid); method: Maximal bubble pressure
Temperature, K	Surface tension liquid-gas, N/m	uncertainty
298.15	0.041	0.0004
303.15	0.0407	0.0004
308.15	0.0403	0.0004
313.15	0.0399	0.0004
318.15	0.0394	0.0004
323.15	0.039	0.0004
328.15	0.0386	0.0004
333.15	0.0383	0.0004
338.15	0.038	0.0004

System: 1-hexyl-3-methylimidazolium tetrafluoroborate; phases: Liquid
Fixed: Pressure, kPa = 101.325
Property: Refractive index (Na D-line) (Liquid); method: Standard Abbe refractometry
Temperature, K	Refractive index (Na D-line)	uncertainty
298.15	1.427	0.0005
303.15	1.426	0.0005
308.15	1.4249	0.0005
313.15	1.4237	0.0005
318.15	1.4226	0.0005
323.15	1.4215	0.0005
328.15	1.4204	0.0005
333.15	1.4191	0.0005
338.15	1.4179	0.0005

System: 1-hexyl-3-methylimidazolium tetrafluoroborate; phases: Liquid
Fixed: Pressure, kPa = 101.325
Property: Mass density, kg/m3 (Liquid); method: Buoyancy - hydrostatic balance
Temperature, K	Mass density, kg/m3	uncertainty
298.15	1146.3	10
303.15	1144.1	10
308.15	1142	10
313.15	1140.3	10
318.15	1138.3	10
323.15	1136.1	10
328.15	1134.5	10
333.15	1132.2	10
338.15	1130.2	10

System: 1-methyl-3-pentyl-imidazolium tetrafluoroborate; phases: Liquid, Air at 1 atmosphere
Property: Surface tension liquid-gas, N/m (Liquid); method: Maximal bubble pressure
Temperature, K	Surface tension liquid-gas, N/m	uncertainty
298.15	0.0429	0.0004
303.15	0.0425	0.0004
308.15	0.0421	0.0004
313.15	0.0417	0.0004
318.15	0.0413	0.0004
323.15	0.0409	0.0004
328.15	0.0405	0.0004
333.15	0.0402	0.0004
338.15	0.0399	0.0004

System: 1-methyl-3-pentyl-imidazolium tetrafluoroborate; phases: Liquid
Fixed: Pressure, kPa = 101.325
Property: Refractive index (Na D-line) (Liquid); method: Standard Abbe refractometry
Temperature, K	Refractive index (Na D-line)	uncertainty
298.15	1.4238	0.0005
303.15	1.4228	0.0005
308.15	1.4216	0.0005
313.15	1.4206	0.0005
318.15	1.4197	0.0005
323.15	1.4185	0.0005
328.15	1.4175	0.0005
333.15	1.4164	0.0005
338.15	1.4153	0.0005

System: 1-methyl-3-pentyl-imidazolium tetrafluoroborate; phases: Liquid
Fixed: Pressure, kPa = 101.325
Property: Mass density, kg/m3 (Liquid); method: Buoyancy - hydrostatic balance
Temperature, K	Mass density, kg/m3	uncertainty
298.15	1171.9	10
303.15	1169.6	10
308.15	1167.5	10
313.15	1165.7	10
318.15	1163.3	10
323.15	1161.3	10
328.15	1159.2	10
333.15	1157.2	10
338.15	1155.1	10
