Measured thermophysical data. Thermodynamic and Topological Studies of 1-Ethyl-3-methylimidazolium Tetrafluoroborate + Pyrrolidin-2-one and 1-Methyl-pyrrolidin-2-one Mixtures
Source: J. Chem. Eng. Data, 2012, 10.1021/je300542s
Compound 1: 1-ethyl-3-methylimidazolium tetrafluoroborate, C6H11BF4N2, InChI=1S/C6H11N2.BF4/c1-3-8-5-4-7(2)6-8;2-1(3,4)5/h4-6H,3H2,1-2H3;/q+1;-1, purity 98%
Compound 2: N-methylpyrrolidone, C5H9NO, InChI=1S/C5H9NO/c1-6-4-2-3-5(6)7/h2-4H2,1H3, purity 99%
Compound 3: 2-pyrrolidinone, C4H7NO, InChI=1S/C4H7NO/c6-4-2-1-3-5-4/h1-3H2,(H,5,6), purity 99%

System: 1-ethyl-3-methylimidazolium tetrafluoroborate; phases: Liquid
Fixed: Pressure, kPa = 101.325
Property: Speed of sound, m/s (Liquid); method: Sing-around technique in a fixed-path interferometer
Temperature, K	Speed of sound, m/s	uncertainty
293.15	1631.05	2.15
298.15	1619.4	2.15
303.15	1607.63	2.15
308.15	1596.31	2.14

System: 1-ethyl-3-methylimidazolium tetrafluoroborate; phases: Liquid
Fixed: Pressure, kPa = 101.325
Property: Mass density, kg/m3 (Liquid); method: Vibrating tube method
Temperature, K	Mass density, kg/m3	uncertainty
293.15	1283.89	2.41
298.15	1279.91	2.41
303.15	1276.26	2.4
308.15	1272.07	2.4

System: N-methylpyrrolidone; phases: Liquid
Fixed: Pressure, kPa = 101.325
Property: Speed of sound, m/s (Liquid); method: Sing-around technique in a fixed-path interferometer
Temperature, K	Speed of sound, m/s	uncertainty
293.15	1565.52	1.26
298.15	1546.02	1.25
303.15	1527.24	1.25
308.15	1507.41	1.25

System: N-methylpyrrolidone; phases: Liquid
Fixed: Pressure, kPa = 101.325
Property: Mass density, kg/m3 (Liquid); method: Vibrating tube method
Temperature, K	Mass density, kg/m3	uncertainty
293.15	1033.23	2.01
298.15	1028.23	2.01
303.15	1023.46	2.01
308.15	1018.66	2.01

System: 2-pyrrolidinone; phases: Liquid
Fixed: Pressure, kPa = 101.325
Property: Speed of sound, m/s (Liquid); method: Sing-around technique in a fixed-path interferometer
Temperature, K	Speed of sound, m/s	uncertainty
293.15	1650.13	1.28
298.15	1633.92	1.27
303.15	1617.14	1.27
308.15	1601.85	1.27

System: 2-pyrrolidinone; phases: Liquid
Fixed: Pressure, kPa = 101.325
Property: Mass density, kg/m3 (Liquid); method: Vibrating tube method
Temperature, K	Mass density, kg/m3	uncertainty
293.15	1111.28	2.02
298.15	1107.15	2.02
303.15	1103.02	2.02
308.15	1098.9	2.02

System: 2-pyrrolidinone + 1-ethyl-3-methylimidazolium tetrafluoroborate; phases: Liquid
Fixed: Pressure, kPa = 101
Fixed: Temperature, K = 298.15
Property: Excess molar enthalpy (molar enthalpy of mixing), kJ/mol (Liquid); method: Calvet calorimetry
Mole fraction of 1-ethyl-3-methylimidazolium tetrafluoroborate	Excess molar enthalpy (molar enthalpy of mixing), kJ/mol	uncertainty
0.1024	-0.111	0.0027
0.1789	-0.1819	0.0042
0.2154	-0.2112	0.0048
0.2825	-0.2593	0.0058
0.3279	-0.2828	0.0063
0.3912	-0.3013	0.0067
0.4456	-0.3111	0.0069
0.4932	-0.3168	0.007
0.5487	-0.3097	0.0068
0.5869	-0.3	0.0066
0.6158	-0.289	0.0064
0.6716	-0.2628	0.0059
0.7257	-0.2301	0.0052
0.7982	-0.1752	0.004
0.8391	-0.1444	0.0034
0.8824	-0.1047	0.0026
0.9011	-0.0883	0.0022
0.9203	-0.0726	0.0019

System: 2-pyrrolidinone + 1-ethyl-3-methylimidazolium tetrafluoroborate; phases: Liquid
Fixed: Pressure, kPa = 101
Property: Speed of sound, m/s (Liquid); method: Sing-around technique in a fixed-path interferometer
Temperature, K	Mole fraction of 1-ethyl-3-methylimidazolium tetrafluoroborate	Speed of sound, m/s	uncertainty
293.15	0.1099	1655.09	1.37
293.15	0.1704	1656.39	1.42
293.15	0.2402	1657.01	1.48
293.15	0.2698	1656.73	1.5
293.15	0.3397	1655.97	1.56
293.15	0.3717	1655.21	1.59
293.15	0.4289	1653.72	1.64
293.15	0.4719	1652.36	1.67
293.15	0.5305	1650.25	1.72
293.15	0.5717	1648.65	1.76
293.15	0.6316	1646.16	1.81
293.15	0.6708	1644.6	1.85
293.15	0.7314	1642.29	1.9
293.15	0.7706	1640.6	1.94
293.15	0.8289	1638.39	1.99
293.15	0.8722	1636.61	2.03
293.15	0.9088	1635.03	2.07
293.15	0.9214	1634.52	2.08
298.15	0.1099	1638.37	1.36
298.15	0.1704	1640.1	1.41
298.15	0.2402	1641.45	1.47
298.15	0.2698	1641.77	1.5
298.15	0.3397	1642.08	1.56
298.15	0.3717	1641.89	1.58
298.15	0.4289	1641.12	1.63
298.15	0.4719	1640.02	1.67
298.15	0.5305	1638.56	1.72
298.15	0.5717	1637.06	1.76
298.15	0.6316	1634.83	1.81
298.15	0.6708	1633.27	1.85
298.15	0.7314	1630.79	1.9
298.15	0.7706	1629.09	1.94
298.15	0.8289	1626.51	1.99
298.15	0.8722	1624.62	2.03
298.15	0.9088	1623.01	2.06
298.15	0.9214	1622.43	2.08
303.15	0.1099	1622.27	1.36
303.15	0.1704	1624.91	1.41
303.15	0.2402	1627.13	1.47
303.15	0.2698	1628.05	1.49
303.15	0.3397	1629.17	1.55
303.15	0.3717	1629.5	1.58
303.15	0.4289	1629.41	1.63
303.15	0.4719	1629.15	1.67
303.15	0.5305	1628.35	1.72
303.15	0.5717	1627.66	1.76
303.15	0.6316	1626.01	1.81
303.15	0.6708	1624.55	1.85
303.15	0.7314	1622.32	1.9
303.15	0.7706	1620.49	1.94
303.15	0.8289	1617.81	1.99
303.15	0.8722	1615.39	2.03
303.15	0.9088	1613.37	2.06
303.15	0.9214	1612.57	2.07
308.15	0.1099	1608.29	1.36
308.15	0.1704	1610.96	1.41
308.15	0.2402	1613.33	1.47
308.15	0.2698	1614.1	1.49
308.15	0.3397	1615.33	1.55
308.15	0.3717	1615.86	1.58
308.15	0.4289	1616.15	1.63
308.15	0.4719	1615.9	1.67
308.15	0.5305	1615.71	1.72
308.15	0.5717	1615.02	1.76
308.15	0.6316	1614.05	1.81
308.15	0.6708	1613.19	1.84
308.15	0.7314	1611.58	1.9
308.15	0.7706	1610.34	1.93
308.15	0.8289	1607.9	1.99
308.15	0.8722	1605.57	2.03
308.15	0.9088	1603.39	2.06
308.15	0.9214	1602.55	2.07

System: 2-pyrrolidinone + 1-ethyl-3-methylimidazolium tetrafluoroborate; phases: Liquid
Fixed: Pressure, kPa = 101
Property: Mass density, kg/m3 (Liquid); method: Vibrating tube method
Temperature, K	Mole fraction of 1-ethyl-3-methylimidazolium tetrafluoroborate	Mass density, kg/m3	uncertainty
293.15	0.1099	1149.23	2.04
293.15	0.1704	1167.01	2.05
293.15	0.2402	1185.2	2.06
293.15	0.2698	1192.24	2.07
293.15	0.3397	1207.39	2.08
293.15	0.3717	1213.68	2.09
293.15	0.4289	1224.05	2.11
293.15	0.4719	1231.12	2.12
293.15	0.5305	1239.88	2.14
293.15	0.5717	1245.49	2.16
293.15	0.6316	1252.87	2.19
293.15	0.6708	1257.25	2.2
293.15	0.7314	1263.41	2.24
293.15	0.7706	1267.04	2.26
293.15	0.8289	1271.98	2.29
293.15	0.8722	1275.32	2.32
293.15	0.9088	1277.96	2.34
293.15	0.9214	1278.82	2.35
298.15	0.1099	1145.44	2.04
298.15	0.1704	1163.28	2.04
298.15	0.2402	1181.48	2.06
298.15	0.2698	1188.52	2.06
298.15	0.3397	1203.62	2.08
298.15	0.3717	1209.93	2.09
298.15	0.4289	1220.26	2.11
298.15	0.4719	1227.33	2.12
298.15	0.5305	1236.07	2.14
298.15	0.5717	1241.64	2.16
298.15	0.6316	1249.02	2.18
298.15	0.6708	1253.43	2.2
298.15	0.7314	1259.6	2.23
298.15	0.7706	1263.22	2.25
298.15	0.8289	1268.14	2.29
298.15	0.8722	1271.48	2.31
298.15	0.9088	1274.08	2.34
298.15	0.9214	1274.95	2.35
303.15	0.1099	1141.73	2.03
303.15	0.1704	1159.64	2.04
303.15	0.2402	1177.82	2.06
303.15	0.2698	1184.83	2.06
303.15	0.3397	1200.05	2.08
303.15	0.3717	1206.3	2.09
303.15	0.4289	1216.55	2.11
303.15	0.4719	1223.58	2.12
303.15	0.5305	1232.31	2.14
303.15	0.5717	1237.88	2.16
303.15	0.6316	1245.24	2.18
303.15	0.6708	1249.64	2.2
303.15	0.7314	1255.84	2.23
303.15	0.7706	1259.49	2.25
303.15	0.8289	1264.37	2.28
303.15	0.8722	1267.75	2.31
303.15	0.9088	1270.39	2.34
303.15	0.9214	1271.26	2.34
308.15	0.1099	1137.87	2.03
308.15	0.1704	1155.81	2.04
308.15	0.2402	1173.98	2.06
308.15	0.2698	1180.96	2.06
308.15	0.3397	1195.95	2.08
308.15	0.3717	1202.18	2.09
308.15	0.4289	1212.4	2.1
308.15	0.4719	1219.44	2.12
308.15	0.5305	1228.15	2.14
308.15	0.5717	1233.71	2.15
308.15	0.6316	1241.13	2.18
308.15	0.6708	1245.54	2.2
308.15	0.7314	1251.76	2.23
308.15	0.7706	1255.43	2.25
308.15	0.8289	1260.4	2.28
308.15	0.8722	1263.75	2.31
308.15	0.9088	1266.36	2.33
308.15	0.9214	1267.21	2.34

System: N-methylpyrrolidone + 1-ethyl-3-methylimidazolium tetrafluoroborate; phases: Liquid
Fixed: Pressure, kPa = 101
Fixed: Temperature, K = 298.15
Property: Excess molar enthalpy (molar enthalpy of mixing), kJ/mol (Liquid); method: Calvet calorimetry
Mole fraction of 1-ethyl-3-methylimidazolium tetrafluoroborate	Excess molar enthalpy (molar enthalpy of mixing), kJ/mol	uncertainty
0.0915	-0.1334	0.0032
0.1456	-0.2073	0.0047
0.1998	-0.2752	0.0061
0.2349	-0.3202	0.0071
0.2879	-0.3683	0.0081
0.3247	-0.4056	0.0089
0.3724	-0.4393	0.0096
0.4085	-0.4589	0.01
0.4754	-0.475	0.0103
0.5102	-0.4787	0.0104
0.5874	-0.4737	0.0103
0.6324	-0.4551	0.0099
0.6984	-0.4059	0.0089
0.7458	-0.3635	0.008
0.7988	-0.3111	0.0069
0.8252	-0.2729	0.0061
0.8865	-0.1908	0.0043
0.9145	-0.1471	0.0034

System: N-methylpyrrolidone + 1-ethyl-3-methylimidazolium tetrafluoroborate; phases: Liquid
Fixed: Pressure, kPa = 101
Property: Speed of sound, m/s (Liquid); method: Sing-around technique in a fixed-path interferometer
Temperature, K	Mole fraction of 1-ethyl-3-methylimidazolium tetrafluoroborate	Speed of sound, m/s	uncertainty
293.15	0.1113	1577.9	1.35
293.15	0.1812	1583.98	1.41
293.15	0.2289	1587.69	1.45
293.15	0.2709	1590.06	1.49
293.15	0.3297	1593.04	1.54
293.15	0.3714	1594.97	1.58
293.15	0.4315	1596.9	1.63
293.15	0.4773	1597.84	1.67
293.15	0.5256	1599.19	1.71
293.15	0.5709	1600	1.75
293.15	0.6317	1601.74	1.81
293.15	0.6772	1603.24	1.85
293.15	0.7311	1605.3	1.9
293.15	0.7342	1605.56	1.9
293.15	0.8324	1611.55	1.99
293.15	0.8727	1615.12	2.03
293.15	0.9129	1619.24	2.07
293.15	0.9304	1621.27	2.08
298.15	0.1113	1558.39	1.35
298.15	0.1812	1564.71	1.41
298.15	0.2289	1568.58	1.45
298.15	0.2709	1571.17	1.48
298.15	0.3297	1574.48	1.54
298.15	0.3714	1576.73	1.57
298.15	0.4315	1579.04	1.63
298.15	0.4773	1580.98	1.67
298.15	0.5256	1582.56	1.71
298.15	0.5709	1584.2	1.75
298.15	0.6317	1586.89	1.81
298.15	0.6772	1588.98	1.85
298.15	0.7311	1591.99	1.9
298.15	0.7342	1592.03	1.9
298.15	0.8324	1599.46	1.99
298.15	0.8727	1603.22	2.03
298.15	0.9129	1607.61	2.07
298.15	0.9304	1609.79	2.08
303.15	0.1113	1539.67	1.34
303.15	0.1812	1546.41	1.4
303.15	0.2289	1550.12	1.44
303.15	0.2709	1553.37	1.48
303.15	0.3297	1557.14	1.53
303.15	0.3714	1559.33	1.57
303.15	0.4315	1562.44	1.62
303.15	0.4773	1564.86	1.66
303.15	0.5256	1566.94	1.71
303.15	0.5709	1569.38	1.75
303.15	0.6317	1572.35	1.8
303.15	0.6772	1575.21	1.84
303.15	0.7311	1578.84	1.89
303.15	0.7342	1579.05	1.9
303.15	0.8324	1587.17	1.99
303.15	0.8727	1591.26	2.03
303.15	0.9129	1595.92	2.06
303.15	0.9304	1598.03	2.08
308.15	0.1113	1520.26	1.34
308.15	0.1812	1527.2	1.4
308.15	0.2289	1531.19	1.44
308.15	0.2709	1534.5	1.48
308.15	0.3297	1538.97	1.53
308.15	0.3714	1541.47	1.57
308.15	0.4315	1545.39	1.62
308.15	0.4773	1547.9	1.66
308.15	0.5256	1550.98	1.7
308.15	0.5709	1553.53	1.74
308.15	0.6317	1557.66	1.8
308.15	0.6772	1560.74	1.84
308.15	0.7311	1565.21	1.89
308.15	0.7342	1565.47	1.89
308.15	0.8324	1574.69	1.99
308.15	0.8727	1579.3	2.02
308.15	0.9129	1584.19	2.06
308.15	0.9304	1586.4	2.08

System: N-methylpyrrolidone + 1-ethyl-3-methylimidazolium tetrafluoroborate; phases: Liquid
Fixed: Pressure, kPa = 101
Property: Mass density, kg/m3 (Liquid); method: Vibrating tube method
Temperature, K	Mole fraction of 1-ethyl-3-methylimidazolium tetrafluoroborate	Mass density, kg/m3	uncertainty
293.15	0.1113	1083.27	2.03
293.15	0.1812	1110.82	2.04
293.15	0.2289	1128.09	2.05
293.15	0.2709	1142.36	2.05
293.15	0.3297	1160.85	2.07
293.15	0.3714	1172.96	2.08
293.15	0.4315	1189.17	2.1
293.15	0.4773	1200.58	2.11
293.15	0.5256	1211.67	2.13
293.15	0.5709	1221.4	2.15
293.15	0.6317	1233.32	2.17
293.15	0.6772	1241.45	2.2
293.15	0.7311	1250.38	2.23
293.15	0.7342	1250.84	2.23
293.15	0.8324	1264.96	2.29
293.15	0.8727	1270.09	2.31
293.15	0.9129	1274.8	2.34
293.15	0.9304	1276.75	2.36
298.15	0.1113	1078.98	2.03
298.15	0.1812	1107.06	2.04
298.15	0.2289	1124.6	2.04
298.15	0.2709	1139.07	2.05
298.15	0.3297	1157.88	2.07
298.15	0.3714	1170.19	2.08
298.15	0.4315	1186.5	2.09
298.15	0.4773	1197.97	2.11
298.15	0.5256	1209.07	2.13
298.15	0.5709	1218.76	2.15
298.15	0.6317	1230.53	2.17
298.15	0.6772	1238.61	2.19
298.15	0.7311	1247.29	2.22
298.15	0.7342	1247.77	2.22
298.15	0.8324	1261.53	2.28
298.15	0.8727	1266.47	2.31
298.15	0.9129	1271.06	2.34
298.15	0.9304	1272.96	2.35
303.15	0.1113	1074.9	2.03
303.15	0.1812	1103.19	2.04
303.15	0.2289	1120.9	2.04
303.15	0.2709	1135.5	2.05
303.15	0.3297	1154.38	2.07
303.15	0.3714	1166.71	2.08
303.15	0.4315	1183.14	2.09
303.15	0.4773	1194.66	2.11
303.15	0.5256	1205.85	2.13
303.15	0.5709	1215.5	2.14
303.15	0.6317	1227.39	2.17
303.15	0.6772	1235.46	2.19
303.15	0.7311	1244.14	2.22
303.15	0.7342	1244.62	2.22
303.15	0.8324	1258.31	2.28
303.15	0.8727	1263.22	2.31
303.15	0.9129	1267.71	2.33
303.15	0.9304	1269.55	2.35
308.15	0.1113	1070.58	2.03
308.15	0.1812	1099.07	2.04
308.15	0.2289	1116.88	2.04
308.15	0.2709	1131.56	2.05
308.15	0.3297	1150.48	2.06
308.15	0.3714	1162.94	2.07
308.15	0.4315	1179.43	2.09
308.15	0.4773	1190.89	2.11
308.15	0.5256	1202.1	2.12
308.15	0.5709	1211.81	2.14
308.15	0.6317	1223.71	2.17
308.15	0.6772	1231.77	2.19
308.15	0.7311	1240.43	2.22
308.15	0.7342	1240.9	2.22
308.15	0.8324	1254.52	2.28
308.15	0.8727	1259.35	2.3
308.15	0.9129	1263.76	2.33
308.15	0.9304	1265.58	2.34
