Measured thermophysical data. Properties of Sodium Tetrafluoroborate Solutions in 1-Butyl-3-methylimidazolium Tetrafluoroborate Ionic Liquid
Source: J. Chem. Eng. Data, 2012, 10.1021/je300603d
Compound 1: 1-butyl-3-methylimidazolium tetrafluoroborate, C8H15BF4N2, InChI=1S/C8H15N2.BF4/c1-3-4-5-10-7-6-9(2)8-10;2-1(3,4)5/h6-8H,3-5H2,1-2H3;/q+1;-1, purity 99%
Compound 2: sodium tetrafluoroborate, BF4Na, InChI=1S/BF4.Na/c2-1(3,4)5;/q-1;+1, purity 98.6%

System: 1-butyl-3-methylimidazolium tetrafluoroborate; phases: Liquid
Fixed: Pressure, kPa = 101
Property: Electrical conductivity, S/m (Liquid); method: Alternating current cell with electrodes
Temperature, K	Electrical conductivity, S/m	uncertainty
238.15	0.00095	1e-05
258.15	0.0227	0.0001
278.15	0.113	0.001
298.15	0.353	0.002
318.15	0.826	0.004
338.15	1.548	0.008
358.15	2.53	0.01
378.15	3.74	0.02
398.15	5.13	0.03
418.15	6.68	0.03
438.15	8.36	0.04
458.15	10.13	0.05

System: 1-butyl-3-methylimidazolium tetrafluoroborate; phases: Liquid
Fixed: Pressure, kPa = 101
Property: Viscosity, Pa*s (Liquid); method: Falling or rolling sphere viscometry
Temperature, K	Viscosity, Pa*s	uncertainty
278.15	0.3845	0.0265
288.15	0.1977	0.0092
298.15	0.1123	0.0031
308.15	0.06889	0.00084
318.15	0.04536	0.00046
328.15	0.03149	0.00032
338.15	0.02199	0.00022
348.15	0.01654	0.00017
358.15	0.01284	0.00013

System: 1-butyl-3-methylimidazolium tetrafluoroborate; phases: Liquid
Fixed: Pressure, kPa = 101
Property: Mass density, kg/m3 (Liquid); method: Vibrating tube method
Temperature, K	Mass density, kg/m3	uncertainty
278.15	1216.3	0.4
288.15	1209	0.4
298.15	1201.8	0.4
308.15	1194.6	0.4
318.15	1187.6	0.4
328.15	1180.6	0.4
338.15	1173.6	0.4
348.15	1166.7	0.4
358.15	1159.9	0.4

System: sodium tetrafluoroborate + 1-butyl-3-methylimidazolium tetrafluoroborate; phases: Liquid
Fixed: Pressure, kPa = 101
Property: Electrical conductivity, S/m (Liquid); method: Alternating current cell with electrodes
Temperature, K	Molality, mol/kg of sodium tetrafluoroborate	Electrical conductivity, S/m	uncertainty
238.15	0	0.00095	1e-05
238.15	0.058	0.00083	1e-05
238.15	0.1159	0.00077	1e-05
238.15	0.1739	0.00071	1e-05
258.15	0	0.0227	0.0001
258.15	0.058	0.0211	0.0001
258.15	0.1159	0.0201	0.0001
258.15	0.1739	0.0188	0.0003
278.15	0	0.113	0.001
278.15	0.058	0.1075	0.0005
278.15	0.1159	0.103	0.001
278.15	0.1739	0.0986	0.0007
298.15	0	0.353	0.002
298.15	0.058	0.341	0.002
298.15	0.1159	0.328	0.002
298.15	0.1739	0.316	0.002
318.15	0	0.826	0.004
318.15	0.058	0.794	0.004
318.15	0.1159	0.769	0.004
318.15	0.1739	0.745	0.004
338.15	0	1.548	0.008
338.15	0.058	1.5	0.008
338.15	0.1159	1.464	0.007
338.15	0.1739	1.425	0.007
358.15	0	2.53	0.01
358.15	0.058	2.47	0.01
358.15	0.1159	2.4	0.01
358.15	0.1739	2.35	0.01
378.15	0	3.74	0.02
378.15	0.058	3.66	0.02
378.15	0.1159	3.57	0.02
378.15	0.1739	3.5	0.02
398.15	0	5.13	0.03
398.15	0.058	5.04	0.03
398.15	0.1159	4.93	0.03
398.15	0.1739	4.84	0.02
418.15	0	6.68	0.03
418.15	0.058	6.58	0.03
418.15	0.1159	6.45	0.03
418.15	0.1739	6.35	0.03
438.15	0	8.36	0.04
438.15	0.058	8.24	0.04
438.15	0.1159	8.11	0.04
438.15	0.1739	7.98	0.04
458.15	0	10.13	0.05
458.15	0.058	10	0.05
458.15	0.1159	9.85	0.05
458.15	0.1739	9.7	0.05

System: sodium tetrafluoroborate + 1-butyl-3-methylimidazolium tetrafluoroborate; phases: Liquid
Fixed: Pressure, kPa = 101
Property: Viscosity, Pa*s (Liquid); method: Falling or rolling sphere viscometry
Temperature, K	Molality, mol/kg of sodium tetrafluoroborate	Viscosity, Pa*s	uncertainty
278.15	0	0.3845	0.0265
278.15	0.058	0.4002	0.0281
278.15	0.1159	0.4214	0.0303
278.15	0.1739	0.4548	0.0339
288.15	0	0.1977	0.0092
288.15	0.058	0.2044	0.0097
288.15	0.1159	0.2155	0.0107
288.15	0.1739	0.2326	0.0121
298.15	0	0.1123	0.0031
298.15	0.058	0.1155	0.0033
298.15	0.1159	0.1214	0.0037
298.15	0.1739	0.1304	0.0043
308.15	0	0.06889	0.00084
308.15	0.058	0.07066	0.0009
308.15	0.1159	0.07452	0.00107
308.15	0.1739	0.07937	0.00131
318.15	0	0.04536	0.00046
318.15	0.058	0.0461	0.00046
318.15	0.1159	0.04894	0.00049
318.15	0.1739	0.05172	0.00038
328.15	0	0.03149	0.00032
328.15	0.058	0.03169	0.00032
328.15	0.1159	0.03398	0.00034
328.15	0.1739	0.03569	0.00036
338.15	0	0.02199	0.00022
338.15	0.058	0.02275	0.00023
338.15	0.1159	0.02385	0.00024
338.15	0.1739	0.02394	0.00024
348.15	0	0.01654	0.00017
348.15	0.058	0.01693	0.00017
348.15	0.1159	0.01763	0.00018
348.15	0.1739	0.01797	0.00018
358.15	0	0.01284	0.00013
358.15	0.058	0.013	0.00013
358.15	0.1159	0.01353	0.00014
358.15	0.1739	0.01401	0.00014

System: sodium tetrafluoroborate + 1-butyl-3-methylimidazolium tetrafluoroborate; phases: Liquid
Fixed: Pressure, kPa = 101
Property: Mass density, kg/m3 (Liquid); method: Vibrating tube method
Temperature, K	Molality, mol/kg of sodium tetrafluoroborate	Mass density, kg/m3	uncertainty
278.15	0	1216.3	0.4
278.15	0.0273	1218	0.4
278.15	0.054	1219.4	0.4
278.15	0.058	1219.2	0.4
278.15	0.0676	1220.7	0.4
278.15	0.0903	1221.3	0.4
278.15	0.1069	1222.4	0.4
278.15	0.1159	1222.8	0.4
278.15	0.1377	1224.3	0.4
278.15	0.1739	1226.2	0.4
288.15	0	1209	0.4
288.15	0.0273	1210.7	0.4
288.15	0.054	1212.2	0.4
288.15	0.058	1212.1	0.4
288.15	0.0676	1213.4	0.4
288.15	0.0903	1214	0.4
288.15	0.1069	1215.1	0.4
288.15	0.1159	1215.5	0.4
288.15	0.1377	1217	0.4
288.15	0.1739	1218.9	0.4
298.15	0	1201.8	0.4
298.15	0.0273	1203.5	0.4
298.15	0.054	1204.9	0.4
298.15	0.058	1205	0.4
298.15	0.0676	1206.1	0.4
298.15	0.0903	1206.8	0.4
298.15	0.1069	1207.9	0.4
298.15	0.1159	1208.3	0.4
298.15	0.1377	1209.8	0.4
298.15	0.1739	1211.6	0.4
308.15	0	1194.6	0.4
308.15	0.0273	1196.3	0.4
308.15	0.054	1197.7	0.4
308.15	0.058	1198	0.4
308.15	0.0676	1199	0.4
308.15	0.0903	1199.6	0.4
308.15	0.1069	1200.7	0.4
308.15	0.1159	1201.1	0.4
308.15	0.1377	1202.6	0.4
308.15	0.1739	1204.4	0.4
318.15	0	1187.6	0.4
318.15	0.0273	1189.2	0.4
318.15	0.054	1190.7	0.4
318.15	0.058	1190.9	0.4
318.15	0.0676	1191.9	0.4
318.15	0.0903	1192.5	0.4
318.15	0.1069	1193.6	0.4
318.15	0.1159	1194	0.4
318.15	0.1377	1195.5	0.4
318.15	0.1739	1197.3	0.4
328.15	0	1180.6	0.4
328.15	0.0273	1182.2	0.4
328.15	0.054	1183.6	0.4
328.15	0.058	1183.9	0.4
328.15	0.0676	1184.9	0.4
328.15	0.0903	1185.5	0.4
328.15	0.1069	1186.6	0.4
328.15	0.1159	1187	0.4
328.15	0.1377	1188.4	0.4
328.15	0.1739	1190.3	0.4
338.15	0	1173.6	0.4
338.15	0.0273	1175.3	0.4
338.15	0.054	1177	0.4
338.15	0.058	1176.8	0.4
338.15	0.0676	1177.9	0.4
338.15	0.0903	1178.6	0.4
338.15	0.1069	1179.6	0.4
338.15	0.1159	1180	0.4
338.15	0.1377	1181.5	0.4
338.15	0.1739	1183.3	0.4
348.15	0	1166.7	0.4
348.15	0.0273	1168.4	0.4
348.15	0.054	1169.8	0.4
348.15	0.058	1169.8	0.4
348.15	0.0676	1171	0.4
348.15	0.0903	1171.7	0.4
348.15	0.1069	1172.7	0.4
348.15	0.1159	1173.1	0.4
348.15	0.1377	1174.6	0.4
348.15	0.1739	1176.4	0.4
358.15	0	1159.9	0.4
358.15	0.0273	1161.6	0.4
358.15	0.054	1163	0.4
358.15	0.058	1162.7	0.4
358.15	0.0676	1164.2	0.4
358.15	0.0903	1164.8	0.4
358.15	0.1069	1165.9	0.4
358.15	0.1159	1166.3	0.4
358.15	0.1377	1167.7	0.4
358.15	0.1739	1169.6	0.4
