Measured thermophysical data. Densities and Surface Tensions of CO2 Loaded Aqueous Monoethanolamine Solutions with r = (0.2 to 0.7) at T = (303.15 to 333.15) K
Source: J. Chem. Eng. Data, 2013, 10.1021/je301279x
Compound 1: 2-aminoethan-1-ol, C2H7NO, InChI=1S/C2H7NO/c3-1-2-4/h4H,1-3H2, purity 99.5%
Compound 2: water, H2O, InChI=1S/H2O/h1H2
Compound 3: carbon dioxide, CO2, InChI=1S/CO2/c2-1-3, purity 99.99%

System: 2-aminoethan-1-ol; phases: Liquid, Air at 1 atmosphere
Property: Surface tension liquid-gas, N/m (Liquid); method: Drop volume
Temperature, K	Surface tension liquid-gas, N/m	uncertainty
293.15	0.04848	0.00084
303.15	0.04764	0.00083
313.15	0.04688	0.00083

System: water; phases: Liquid, Air at 1 atmosphere
Property: Surface tension liquid-gas, N/m (Liquid); method: Drop volume
Temperature, K	Surface tension liquid-gas, N/m	uncertainty
293.15	0.07256	0.00201
303.15	0.0709	0.00197
313.15	0.06981	0.00194
323.15	0.06772	0.0019

System: carbon dioxide + 2-aminoethan-1-ol + water; phases: Liquid
Fixed: Pressure, kPa = 800
Property: Mass density, kg/m3 (Liquid); method: Vibrating tube method
Temperature, K	Mole fraction of 2-aminoethan-1-ol	Mole fraction of carbon dioxide	Mass density, kg/m3	uncertainty
303.15	0.0687	0	1003.6	6.2
303.15	0.0682	0.0068	1019.1	6.3
303.15	0.0677	0.0135	1032.4	6.3
303.15	0.0673	0.0202	1046.7	6.3
303.15	0.0668	0.0267	1061.1	6.4
303.15	0.0664	0.0332	1074.4	6.4
313.15	0.0687	0	999.4	6.2
313.15	0.0682	0.0068	1014.8	6.2
313.15	0.0677	0.0135	1028.1	6.3
313.15	0.0673	0.0202	1042.4	6.3
313.15	0.0668	0.0267	1056.7	6.4
313.15	0.0664	0.0332	1069.8	6.4
323.15	0.0687	0	994.6	6.1
323.15	0.0682	0.0068	1010.2	6.2
323.15	0.0677	0.0135	1023.3	6.2
323.15	0.0673	0.0202	1037.6	6.3
323.15	0.0668	0.0267	1051.8	6.3
323.15	0.0664	0.0332	1064.9	6.4
333.15	0.0687	0	989.1	6.1
333.15	0.0682	0.0068	1004.8	6.2
333.15	0.0677	0.0135	1018	6.2
333.15	0.0673	0.0202	1032.3	6.2
333.15	0.0668	0.0267	1046.4	6.3
333.15	0.0664	0.0332	1059.4	6.3
303.15	0.1122	0	1008.2	6
303.15	0.111	0.0111	1027.8	6
303.15	0.1097	0.0219	1047.5	6.1
303.15	0.1085	0.0326	1066.1	6.1
303.15	0.1074	0.043	1086.3	6.2
303.15	0.1062	0.0531	1106	6.2
313.15	0.1122	0	1003.3	5.9
313.15	0.111	0.0111	1022.9	6
313.15	0.1097	0.0219	1042.7	6
313.15	0.1085	0.0326	1061.4	6.1
313.15	0.1074	0.043	1081.5	6.1
313.15	0.1062	0.0531	1101	6.2
323.15	0.1122	0	998.1	5.9
323.15	0.111	0.0111	1017.8	6
323.15	0.1097	0.0219	1037.6	6
323.15	0.1085	0.0326	1056.3	6
323.15	0.1074	0.043	1076.3	6.1
323.15	0.1062	0.0531	1095.8	6.1
333.15	0.1122	0	992.3	5.9
333.15	0.111	0.0111	1012	5.9
333.15	0.1097	0.0219	1032	6
333.15	0.1085	0.0326	1050.7	6
333.15	0.1074	0.043	1070.7	6.1
333.15	0.1062	0.0531	1090.1	6.1
303.15	0.1643	0	1013.3	5.7
303.15	0.1616	0.0162	1037.8	5.8
303.15	0.1591	0.0318	1062.8	5.8
303.15	0.1566	0.047	1087.6	5.8
303.15	0.1542	0.0617	1113.9	5.9
303.15	0.1518	0.0759	1139.6	5.9
313.15	0.1643	0	1007.8	5.7
313.15	0.1616	0.0162	1032.5	5.7
313.15	0.1591	0.0318	1057.6	5.8
313.15	0.1566	0.047	1082.5	5.8
313.15	0.1542	0.0617	1108.6	5.9
313.15	0.1518	0.0759	1134.4	5.9
323.15	0.1643	0	1002.1	5.7
323.15	0.1616	0.0162	1026.9	5.7
323.15	0.1591	0.0318	1052.1	5.7
323.15	0.1566	0.047	1077.1	5.8
323.15	0.1542	0.0617	1103.2	5.8
323.15	0.1518	0.0759	1129	5.9
333.15	0.1643	0	995.7	5.6
333.15	0.1616	0.0162	1020.8	5.7
333.15	0.1591	0.0318	1046.2	5.7
333.15	0.1566	0.047	1071.3	5.8
333.15	0.1542	0.0617	1097.5	5.8
333.15	0.1518	0.0759	1123.2	5.8
303.15	0.2277	0	1017.8	5.4
303.15	0.2227	0.0223	1047.2	5.5
303.15	0.2178	0.0436	1075.1	5.5
303.15	0.2132	0.064	1106.7	5.5
303.15	0.2087	0.0835	1136.4	5.5
303.15	0.2045	0.1022	1167.7	5.6
313.15	0.2277	0	1011.8	5.4
313.15	0.2227	0.0223	1040.6	5.4
313.15	0.2178	0.0436	1069.4	5.5
313.15	0.2132	0.064	1099.9	5.5
313.15	0.2087	0.0835	1131	5.5
313.15	0.2045	0.1022	1162.1	5.6
323.15	0.2277	0	1005.4	5.4
323.15	0.2227	0.0223	1034.4	5.4
323.15	0.2178	0.0436	1063.6	5.4
323.15	0.2132	0.064	1093.9	5.5
323.15	0.2087	0.0835	1125.4	5.5
323.15	0.2045	0.1022	1156.5	5.5
333.15	0.2277	0	998.7	5.4
333.15	0.2227	0.0223	1027.9	5.4
333.15	0.2178	0.0436	1057.4	5.4
333.15	0.2132	0.064	1088	5.5
333.15	0.2087	0.0835	1119.6	5.5
333.15	0.2045	0.1022	1150.7	5.5
303.15	0.3067	0	1021.3	5.1
303.15	0.2976	0.0298	1058.6	5.2
303.15	0.289	0.0578	1091.6	5.2
303.15	0.2808	0.0843	1126.2	5.2
303.15	0.2732	0.1093	1162.1	5.2
303.15	0.2659	0.133	1197.6	5.2
313.15	0.3067	0	1014.6	5.1
313.15	0.2976	0.0298	1052.3	5.2
313.15	0.289	0.0578	1085.6	5.2
313.15	0.2808	0.0843	1120.4	5.2
313.15	0.2732	0.1093	1156.5	5.2
313.15	0.2659	0.133	1192	5.2
323.15	0.3067	0	1007.8	5.1
323.15	0.2976	0.0298	1045.9	5.1
323.15	0.289	0.0578	1079.5	5.1
323.15	0.2808	0.0843	1114.6	5.2
323.15	0.2732	0.1093	1150.8	5.2
323.15	0.2659	0.133	1186.3	5.2
333.15	0.3067	0	1000.6	5.1
333.15	0.2976	0.0298	1039.2	5.1
333.15	0.289	0.0578	1073.1	5.1
333.15	0.2808	0.0843	1108.5	5.1
333.15	0.2732	0.1093	1144.9	5.2
333.15	0.2659	0.133	1180.4	5.2
303.15	0.4076	0	1022.6	4.9
303.15	0.3916	0.0392	1063.9	4.9
303.15	0.3769	0.0754	1101.1	4.9
303.15	0.3632	0.109	1143.7	4.9
303.15	0.3505	0.1402	1185.4	4.9
303.15	0.3386	0.1693	1226.2	4.9
313.15	0.4076	0	1015.5	4.8
313.15	0.3916	0.0392	1057.3	4.9
313.15	0.3769	0.0754	1094.8	4.9
313.15	0.3632	0.109	1137.8	4.9
313.15	0.3505	0.1402	1179.7	4.9
313.15	0.3386	0.1693	1220.4	4.9
323.15	0.4076	0	1008.2	4.8
323.15	0.3916	0.0392	1050.6	4.8
323.15	0.3769	0.0754	1088.4	4.8
323.15	0.3632	0.109	1131.8	4.8
323.15	0.3505	0.1402	1174	4.9
323.15	0.3386	0.1693	1214.7	4.9
333.15	0.4076	0	1000.6	4.8
333.15	0.3916	0.0392	1043.6	4.8
333.15	0.3769	0.0754	1081.9	4.8
333.15	0.3632	0.109	1125.6	4.8
333.15	0.3505	0.1402	1168.1	4.8
333.15	0.3386	0.1693	1208.7	4.9

System: carbon dioxide + 2-aminoethan-1-ol + water; phases: Liquid, Air at 1 atmosphere
Property: Surface tension liquid-gas, N/m (Liquid); method: Drop volume
Temperature, K	Mole fraction of 2-aminoethan-1-ol	Mole fraction of carbon dioxide	Surface tension liquid-gas, N/m	uncertainty
303.15	0.0687	0	0.0667	0.0029
303.15	0.0682	0.0068	0.0676	0.0029
303.15	0.0677	0.0135	0.0684	0.0029
303.15	0.0673	0.0202	0.0697	0.0029
303.15	0.0668	0.0267	0.0714	0.0029
303.15	0.0664	0.0332	0.0736	0.0029
313.15	0.0687	0	0.0652	0.0029
313.15	0.0682	0.0068	0.0663	0.0029
313.15	0.0677	0.0135	0.067	0.0029
313.15	0.0673	0.0202	0.0679	0.0029
313.15	0.0668	0.0267	0.07	0.0029
313.15	0.0664	0.0332	0.0718	0.0029
323.15	0.0687	0	0.0636	0.0028
323.15	0.0682	0.0068	0.0647	0.0028
323.15	0.0677	0.0135	0.0654	0.0028
323.15	0.0673	0.0202	0.0664	0.0029
323.15	0.0668	0.0267	0.0684	0.0029
323.15	0.0664	0.0332	0.0702	0.0029
333.15	0.0687	0	0.0616	0.0028
333.15	0.0682	0.0068	0.0631	0.0028
333.15	0.0677	0.0135	0.0638	0.0028
333.15	0.0673	0.0202	0.0649	0.0028
333.15	0.0668	0.0267	0.0664	0.0028
333.15	0.0664	0.0332	0.0689	0.0029
303.15	0.1122	0	0.0637	0.0028
303.15	0.111	0.0111	0.065	0.0028
303.15	0.1097	0.0219	0.0664	0.0028
303.15	0.1085	0.0326	0.0678	0.0028
303.15	0.1074	0.043	0.0698	0.0028
303.15	0.1062	0.0531	0.0728	0.0029
313.15	0.1122	0	0.0624	0.0028
313.15	0.111	0.0111	0.0636	0.0028
313.15	0.1097	0.0219	0.065	0.0028
313.15	0.1085	0.0326	0.0662	0.0028
313.15	0.1074	0.043	0.0683	0.0028
313.15	0.1062	0.0531	0.0714	0.0029
323.15	0.1122	0	0.061	0.0028
323.15	0.111	0.0111	0.062	0.0028
323.15	0.1097	0.0219	0.0632	0.0028
323.15	0.1085	0.0326	0.0647	0.0028
323.15	0.1074	0.043	0.0669	0.0028
323.15	0.1062	0.0531	0.0698	0.0028
333.15	0.1122	0	0.0595	0.0028
333.15	0.111	0.0111	0.0605	0.0028
333.15	0.1097	0.0219	0.0615	0.0028
333.15	0.1085	0.0326	0.0628	0.0028
333.15	0.1074	0.043	0.0652	0.0028
333.15	0.1062	0.0531	0.0685	0.0028
303.15	0.1643	0	0.0615	0.0027
303.15	0.1616	0.0162	0.063	0.0027
303.15	0.1591	0.0318	0.0646	0.0028
303.15	0.1566	0.047	0.0663	0.0028
303.15	0.1542	0.0617	0.0693	0.0028
303.15	0.1518	0.0759	0.0724	0.0028
313.15	0.1643	0	0.0598	0.0027
313.15	0.1616	0.0162	0.0619	0.0027
313.15	0.1591	0.0318	0.0634	0.0027
313.15	0.1566	0.047	0.0651	0.0028
313.15	0.1542	0.0617	0.0681	0.0028
313.15	0.1518	0.0759	0.0711	0.0028
323.15	0.1643	0	0.0584	0.0027
323.15	0.1616	0.0162	0.0603	0.0027
323.15	0.1591	0.0318	0.062	0.0027
323.15	0.1566	0.047	0.0638	0.0027
323.15	0.1542	0.0617	0.0667	0.0028
323.15	0.1518	0.0759	0.0698	0.0028
333.15	0.1643	0	0.057	0.0027
333.15	0.1616	0.0162	0.0587	0.0027
333.15	0.1591	0.0318	0.0602	0.0027
333.15	0.1566	0.047	0.0624	0.0027
333.15	0.1542	0.0617	0.0649	0.0027
333.15	0.1518	0.0759	0.0681	0.0028
303.15	0.2277	0	0.0596	0.0027
303.15	0.2227	0.0223	0.0609	0.0027
303.15	0.2178	0.0436	0.0627	0.0027
303.15	0.2132	0.064	0.0644	0.0027
303.15	0.2087	0.0835	0.0671	0.0027
303.15	0.2045	0.1022	0.0705	0.0027
313.15	0.2277	0	0.0581	0.0027
313.15	0.2227	0.0223	0.0594	0.0027
313.15	0.2178	0.0436	0.0613	0.0027
313.15	0.2132	0.064	0.0631	0.0027
313.15	0.2087	0.0835	0.066	0.0027
313.15	0.2045	0.1022	0.0695	0.0027
323.15	0.2277	0	0.0565	0.0027
323.15	0.2227	0.0223	0.0582	0.0027
323.15	0.2178	0.0436	0.0596	0.0027
323.15	0.2132	0.064	0.0618	0.0027
323.15	0.2087	0.0835	0.0648	0.0027
323.15	0.2045	0.1022	0.0682	0.0027
333.15	0.2277	0	0.0551	0.0026
333.15	0.2227	0.0223	0.0567	0.0027
333.15	0.2178	0.0436	0.0579	0.0026
333.15	0.2132	0.064	0.0604	0.0027
333.15	0.2087	0.0835	0.0634	0.0027
333.15	0.2045	0.1022	0.067	0.0027
303.15	0.3067	0	0.0574	0.0026
303.15	0.2976	0.0298	0.0589	0.0026
303.15	0.289	0.0578	0.0606	0.0026
303.15	0.2808	0.0843	0.0633	0.0026
303.15	0.2732	0.1093	0.0663	0.0026
303.15	0.2659	0.133	0.0707	0.0027
313.15	0.3067	0	0.0561	0.0026
313.15	0.2976	0.0298	0.0576	0.0026
313.15	0.289	0.0578	0.0596	0.0026
313.15	0.2808	0.0843	0.0622	0.0026
313.15	0.2732	0.1093	0.0655	0.0026
313.15	0.2659	0.133	0.0698	0.0027
323.15	0.3067	0	0.055	0.0026
323.15	0.2976	0.0298	0.0564	0.0026
323.15	0.289	0.0578	0.0586	0.0026
323.15	0.2808	0.0843	0.0608	0.0026
323.15	0.2732	0.1093	0.0643	0.0026
323.15	0.2659	0.133	0.0686	0.0026
333.15	0.3067	0	0.0536	0.0026
333.15	0.2976	0.0298	0.0549	0.0026
333.15	0.289	0.0578	0.0573	0.0026
333.15	0.2808	0.0843	0.0595	0.0026
333.15	0.2732	0.1093	0.0631	0.0026
333.15	0.2659	0.133	0.0672	0.0026
303.15	0.4076	0	0.0545	0.0026
303.15	0.3916	0.0392	0.057	0.0026
303.15	0.3769	0.0754	0.059	0.0026
303.15	0.3632	0.109	0.0612	0.0026
303.15	0.3505	0.1402	0.0655	0.0026
303.15	0.3386	0.1693	0.0692	0.0026
313.15	0.4076	0	0.0536	0.0026
313.15	0.3916	0.0392	0.0559	0.0026
313.15	0.3769	0.0754	0.058	0.0026
313.15	0.3632	0.109	0.0606	0.0026
313.15	0.3505	0.1402	0.0648	0.0026
313.15	0.3386	0.1693	0.0684	0.0026
323.15	0.4076	0	0.0525	0.0025
323.15	0.3916	0.0392	0.0545	0.0025
323.15	0.3769	0.0754	0.0568	0.0025
323.15	0.3632	0.109	0.0594	0.0026
323.15	0.3505	0.1402	0.0638	0.0026
323.15	0.3386	0.1693	0.0673	0.0026
333.15	0.4076	0	0.0512	0.0025
333.15	0.3916	0.0392	0.053	0.0025
333.15	0.3769	0.0754	0.0555	0.0025
333.15	0.3632	0.109	0.0582	0.0025
333.15	0.3505	0.1402	0.0627	0.0026
333.15	0.3386	0.1693	0.0662	0.0026

System: 2-aminoethan-1-ol + water; phases: Liquid
Fixed: Pressure, kPa = 800
Property: Mass density, kg/m3 (Liquid); method: Vibrating tube method
Temperature, K	Mole fraction of 2-aminoethan-1-ol	Mass density, kg/m3	uncertainty
303.15	0.0687	1003.6	6.2
313.15	0.0687	999.4	6.2
323.15	0.0687	994.6	6.1
333.15	0.0687	989.1	6.1
303.15	0.1122	1008.2	6
313.15	0.1122	1003.3	5.9
323.15	0.1122	998.1	5.9
333.15	0.1122	992.3	5.9
303.15	0.1643	1013.3	5.7
313.15	0.1643	1007.8	5.7
323.15	0.1643	1002.1	5.7
333.15	0.1643	995.7	5.6
303.15	0.2277	1017.8	5.4
313.15	0.2277	1011.8	5.4
323.15	0.2277	1005.4	5.4
333.15	0.2277	998.7	5.4
303.15	0.3067	1021.3	5.1
313.15	0.3067	1014.6	5.1
323.15	0.3067	1007.8	5.1
333.15	0.3067	1000.6	5.1
303.15	0.4076	1022.6	4.9
313.15	0.4076	1015.5	4.8
323.15	0.4076	1008.2	4.8
333.15	0.4076	1000.6	4.8

System: 2-aminoethan-1-ol + water; phases: Liquid, Air at 1 atmosphere
Property: Surface tension liquid-gas, N/m (Liquid); method: Drop volume
Temperature, K	Mole fraction of 2-aminoethan-1-ol	Surface tension liquid-gas, N/m	uncertainty
303.15	0.0687	0.0667	0.0029
313.15	0.0687	0.0652	0.0029
323.15	0.0687	0.0636	0.0028
333.15	0.0687	0.0616	0.0028
303.15	0.1122	0.0637	0.0028
313.15	0.1122	0.0624	0.0028
323.15	0.1122	0.061	0.0028
333.15	0.1122	0.0595	0.0028
303.15	0.1643	0.0615	0.0027
313.15	0.1643	0.0598	0.0027
323.15	0.1643	0.0584	0.0027
333.15	0.1643	0.057	0.0027
303.15	0.2277	0.0596	0.0027
313.15	0.2277	0.0581	0.0027
323.15	0.2277	0.0565	0.0027
333.15	0.2277	0.0551	0.0026
303.15	0.3067	0.0574	0.0026
313.15	0.3067	0.0561	0.0026
323.15	0.3067	0.055	0.0026
333.15	0.3067	0.0536	0.0026
303.15	0.4076	0.0545	0.0026
313.15	0.4076	0.0536	0.0026
323.15	0.4076	0.0525	0.0025
333.15	0.4076	0.0512	0.0025
