Measured thermophysical data. Solubility of the Metastable Polymorph of Piracetam (Form II) in a Range of Solvents
Source: J. Chem. Eng. Data, 2012, 10.1021/je300711r
Compound 1: ethanol, C2H6O, InChI=1S/C2H6O/c1-2-3/h3H,2H2,1H3, purity 99.5%
Compound 2: propan-2-ol, C3H8O, InChI=1S/C3H8O/c1-3(2)4/h3-4H,1-2H3, purity 99.5%
Compound 3: 1,4-dioxane, C4H8O2, InChI=1S/C4H8O2/c1-2-6-4-3-5-1/h1-4H2, purity 99%
Compound 4: acetone, C3H6O, InChI=1S/C3H6O/c1-3(2)4/h1-2H3, purity 99.5%
Compound 5: 2-oxo-1-pyrrolidineacetamide, C6H10N2O2, InChI=1S/C6H10N2O2/c7-5(9)4-8-3-1-2-6(8)10/h1-4H2,(H2,7,9), purity 99.8%

System: 2-oxo-1-pyrrolidineacetamide; phases: Crystal 1, Liquid, Air at 1 atmosphere
Property: Normal melting temperature, K (Crystal 1); method: DTA
Normal melting temperature, K	uncertainty
423	1

System: ethanol + 2-oxo-1-pyrrolidineacetamide; phases: Liquid, Metastable crystal
Fixed: Pressure, kPa = 101
Property: Mass ratio of solute to solvent (Liquid); method: Gravimetrically
Temperature, K	Mass ratio of solute to solvent	uncertainty
278	0.018	0.0009
283	0.0229	0.0009
288	0.0287	0.0009
293	0.0351	0.0009
298	0.043	0.0009
303	0.0537	0.0009
308	0.0656	0.0009
313	0.0816	0.0009
318	0.1013	0.0009
323	0.1281	0.0009

System: propan-2-ol + 2-oxo-1-pyrrolidineacetamide; phases: Liquid, Metastable crystal
Fixed: Pressure, kPa = 101
Property: Mass ratio of solute to solvent (Liquid); method: Gravimetrically
Temperature, K	Mass ratio of solute to solvent	uncertainty
278	0.0086	0.0009
283	0.0101	0.0009
288	0.0131	0.0009
293	0.0164	0.0009
298	0.0203	0.0009
303	0.026	0.0009
308	0.0325	0.0009
313	0.0413	0.0009
318	0.0529	0.0009
323	0.0663	0.0009

System: 1,4-dioxane + 2-oxo-1-pyrrolidineacetamide; phases: Liquid, Metastable crystal
Fixed: Pressure, kPa = 101
Property: Mass ratio of solute to solvent (Liquid); method: Gravimetrically
Temperature, K	Mass ratio of solute to solvent	uncertainty
288	0.00281	0.00092
293	0.00314	0.00092
298	0.00369	0.00092
303	0.00447	0.00092
308	0.00554	0.00092
313	0.00702	0.00092
318	0.00862	0.00092
323	0.01072	0.00092

System: acetone + 2-oxo-1-pyrrolidineacetamide; phases: Liquid, Metastable crystal
Fixed: Pressure, kPa = 101
Property: Mass ratio of solute to solvent (Liquid); method: Gravimetrically
Temperature, K	Mass ratio of solute to solvent	uncertainty
278	0.00443	0.00092
283	0.00486	0.00092
288	0.00575	0.00092
293	0.00701	0.00092
298	0.00847	0.00092
303	0.01014	0.00092
308	0.01234	0.00092
313	0.0148	0.00092
318	0.01732	0.00092
323	0.02058	0.00092
