Measured thermophysical data. Excess Molar Properties for Binary Systems of CnMIM-BF4 Ionic Liquids with Alkylamines in the Temperature Range (298.15 to 318.15) K. Experimental Results and Theoretical Model Calculations
Source: J. Chem. Eng. Data, 2014, 10.1021/je301167q
Compound 1: 1-butanamine, C4H11N, InChI=1S/C4H11N/c1-2-3-4-5/h2-5H2,1H3, purity 99.63%
Compound 2: 1-octanamine, C8H19N, InChI=1S/C8H19N/c1-2-3-4-5-6-7-8-9/h2-9H2,1H3, purity 99.3%
Compound 3: 1-hexyl-3-methylimidazolium tetrafluoroborate, C10H19BF4N2, InChI=1S/C10H19N2.BF4/c1-3-4-5-6-7-12-9-8-11(2)10-12;2-1(3,4)5/h8-10H,3-7H2,1-2H3;/q+1;-1, purity 99%
Compound 4: 1-methyl-3-octylimidazolium tetrafluoroborate, C12H23BF4N2, InChI=1S/C12H23N2.BF4/c1-3-4-5-6-7-8-9-14-11-10-13(2)12-14;2-1(3,4)5/h10-12H,3-9H2,1-2H3;/q+1;-1, purity 99%

System: 1-butanamine; phases: Liquid
Fixed: Pressure, kPa = 101
Property: Mass density, kg/m3 (Liquid); method: VIBTUB:UFactor:8
Temperature, K	Mass density, kg/m3	uncertainty
298.15	733.33	1.1
308.15	723.67	1.13
318.15	714	1.16

System: 1-butanamine; phases: Liquid
Fixed: Pressure, kPa = 101
Property: Speed of sound, m/s (Liquid); method: Sing-around technique in a fixed-path interferometer
Temperature, K	Speed of sound, m/s	uncertainty
298.15	1246.5	0.9
308.15	1201.3	0.9
318.15	1156.2	0.9

System: 1-octanamine; phases: Liquid
Fixed: Pressure, kPa = 101
Property: Mass density, kg/m3 (Liquid); method: VIBTUB:UFactor:8
Temperature, K	Mass density, kg/m3	uncertainty
298.15	777.45	1
308.15	769.46	1.03
318.15	761.47	1.05

System: 1-octanamine; phases: Liquid
Fixed: Pressure, kPa = 101
Property: Speed of sound, m/s (Liquid); method: Sing-around technique in a fixed-path interferometer
Temperature, K	Speed of sound, m/s	uncertainty
298.15	1343.2	1.1
308.15	1303.1	1.1
318.15	1263.5	1.1

System: 1-hexyl-3-methylimidazolium tetrafluoroborate; phases: Liquid
Fixed: Pressure, kPa = 101
Property: Mass density, kg/m3 (Liquid); method: VIBTUB:UFactor:8
Temperature, K	Mass density, kg/m3	uncertainty
298.15	1145.11	0.96
308.15	1137.71	0.94
318.15	1130.49	0.92

System: 1-hexyl-3-methylimidazolium tetrafluoroborate; phases: Liquid
Fixed: Pressure, kPa = 101
Property: Speed of sound, m/s (Liquid); method: Sing-around technique in a fixed-path interferometer
Temperature, K	Speed of sound, m/s	uncertainty
298.15	1496.7	1.3
308.15	1472	1.3
318.15	1447.7	1.3

System: 1-methyl-3-octylimidazolium tetrafluoroborate; phases: Liquid
Fixed: Pressure, kPa = 101
Property: Mass density, kg/m3 (Liquid); method: VIBTUB:UFactor:8
Temperature, K	Mass density, kg/m3	uncertainty
298.15	1097.61	0.83
308.15	1090.9	0.81
318.15	1084.17	0.79

System: 1-methyl-3-octylimidazolium tetrafluoroborate; phases: Liquid
Fixed: Pressure, kPa = 101
Property: Speed of sound, m/s (Liquid); method: Sing-around technique in a fixed-path interferometer
Temperature, K	Speed of sound, m/s	uncertainty
298.15	1481.1	1.3
308.15	1453.9	1.3
318.15	1428.2	1.3

System: 1-butanamine + 1-hexyl-3-methylimidazolium tetrafluoroborate; phases: Liquid
Fixed: Pressure, kPa = 101
Property: Mass density, kg/m3 (Liquid); method: VIBTUB:UFactor:8
Temperature, K	Mole fraction of 1-hexyl-3-methylimidazolium tetrafluoroborate	Mass density, kg/m3	uncertainty
298.15	0	733.33	1.1
298.15	0.0994	820.09	0.88
298.15	0.2012	890.48	0.71
298.15	0.302	946.28	0.6
298.15	0.4065	993.19	0.52
298.15	0.4959	1026.43	0.56
298.15	0.5886	1055.62	0.64
298.15	0.7069	1086.83	0.74
298.15	0.8126	1110.28	0.82
298.15	0.8796	1123.46	0.87
298.15	1	1145.11	0.96
308.15	0	723.67	1.13
308.15	0.0994	810.83	0.9
308.15	0.2012	881.55	0.73
308.15	0.302	937.89	0.61
308.15	0.4065	985.04	0.53
308.15	0.4959	1018.45	0.55
308.15	0.5886	1047.87	0.62
308.15	0.7069	1079.26	0.72
308.15	0.8126	1102.83	0.8
308.15	0.8796	1116.13	0.85
308.15	1	1137.71	0.94
318.15	0	714	1.16
318.15	0.0994	803.47	0.92
318.15	0.2012	874.79	0.75
318.15	0.302	930.48	0.63
318.15	0.4065	977.3	0.55
318.15	0.4959	1010.64	0.53
318.15	0.5886	1040.15	0.6
318.15	0.7069	1071.7	0.7
318.15	0.8126	1095.43	0.78
318.15	0.8796	1108.89	0.83
318.15	1	1130.49	0.92

System: 1-butanamine + 1-hexyl-3-methylimidazolium tetrafluoroborate; phases: Liquid
Fixed: Pressure, kPa = 101
Property: Speed of sound, m/s (Liquid); method: Sing-around technique in a fixed-path interferometer
Temperature, K	Mole fraction of 1-hexyl-3-methylimidazolium tetrafluoroborate	Speed of sound, m/s	uncertainty
298.15	0	1246.5	0.9
298.15	0.0994	1272.3	0.9
298.15	0.2012	1305.8	1
298.15	0.302	1341	1
298.15	0.4065	1376.3	1
298.15	0.4959	1404.6	1.1
298.15	0.5886	1428.9	1.1
298.15	0.7069	1456.2	1.1
298.15	0.8126	1474.1	1.2
298.15	0.8796	1483.2	1.2
298.15	1	1496.7	1.3
308.15	0	1201.3	0.9
308.15	0.0994	1231.1	0.9
308.15	0.2012	1267.4	1
308.15	0.302	1305.5	1
308.15	0.4065	1343.8	1
308.15	0.4959	1374.3	1.1
308.15	0.5886	1401.1	1.1
308.15	0.7069	1429.9	1.1
308.15	0.8126	1450.2	1.2
308.15	0.8796	1459.8	1.2
308.15	1	1472	1.3
318.15	0	1156.2	0.9
318.15	0.0994	1188.8	0.9
318.15	0.2012	1229	0.9
318.15	0.302	1270.1	1
318.15	0.4065	1312	1
318.15	0.4959	1344.3	1.1
318.15	0.5886	1373.6	1.1
318.15	0.7069	1403.8	1.1
318.15	0.8126	1423.8	1.2
318.15	0.8796	1433.9	1.2
318.15	1	1447.7	1.3

System: 1-octanamine + 1-hexyl-3-methylimidazolium tetrafluoroborate; phases: Liquid
Fixed: Pressure, kPa = 101
Property: Mass density, kg/m3 (Liquid); method: VIBTUB:UFactor:8
Temperature, K	Mole fraction of 1-hexyl-3-methylimidazolium tetrafluoroborate	Mass density, kg/m3	uncertainty
298.15	0	777.45	1
298.15	0.2986	914.74	0.7
298.15	0.398	954.27	0.62
298.15	0.4981	991.03	0.56
298.15	0.5999	1025.72	0.6
298.15	0.6994	1057.35	0.69
298.15	0.7998	1087.45	0.78
298.15	0.8945	1114.95	0.87
298.15	1	1145.11	0.96
308.15	0	769.46	1.03
308.15	0.2986	906.98	0.71
308.15	0.398	946.51	0.64
308.15	0.4981	983.38	0.57
308.15	0.5999	1017.96	0.59
308.15	0.6994	1049.51	0.67
308.15	0.7998	1079.76	0.76
308.15	0.8945	1107.34	0.84
308.15	1	1137.71	0.94
318.15	0	761.47	1.05
318.15	0.2986	899.32	0.73
318.15	0.398	938.79	0.65
318.15	0.4981	975.59	0.59
318.15	0.5999	1010.27	0.57
318.15	0.6994	1041.89	0.65
318.15	0.7998	1072.25	0.74
318.15	0.8945	1099.87	0.82
318.15	1	1130.49	0.92

System: 1-octanamine + 1-hexyl-3-methylimidazolium tetrafluoroborate; phases: Liquid
Fixed: Pressure, kPa = 101
Property: Speed of sound, m/s (Liquid); method: Sing-around technique in a fixed-path interferometer
Temperature, K	Mole fraction of 1-hexyl-3-methylimidazolium tetrafluoroborate	Speed of sound, m/s	uncertainty
298.15	0	1343.2	1.1
298.15	0.2986	1365.4	1.1
298.15	0.398	1379.9	1.2
298.15	0.4981	1396.2	1.2
298.15	0.5999	1416.6	1.2
298.15	0.6994	1437.5	1.2
298.15	0.7998	1460.3	1.2
298.15	0.8945	1479.6	1.3
298.15	1	1496.7	1.3
308.15	0	1303.1	1.1
308.15	0.2986	1331.6	1.1
308.15	0.398	1345.6	1.1
308.15	0.4981	1364.9	1.2
308.15	0.5999	1386.2	1.2
308.15	0.6994	1409.6	1.2
308.15	0.7998	1433.5	1.2
308.15	0.8945	1455.6	1.3
308.15	1	1472	1.3
318.15	0	1263.5	1.1
318.15	0.2986	1306.8	1.1
318.15	0.398	1317.5	1.1
318.15	0.4981	1333.8	1.2
318.15	0.5999	1356.4	1.2
318.15	0.6994	1381.5	1.2
318.15	0.7998	1408.2	1.2
318.15	0.8945	1431.7	1.3
318.15	1	1447.7	1.3

System: 1-butanamine + 1-methyl-3-octylimidazolium tetrafluoroborate; phases: Liquid
Fixed: Pressure, kPa = 101
Property: Mass density, kg/m3 (Liquid); method: VIBTUB:UFactor:8
Temperature, K	Mole fraction of 1-methyl-3-octylimidazolium tetrafluoroborate	Mass density, kg/m3	uncertainty
298.15	0	733.33	1.1
298.15	0.0963	817.1	0.88
298.15	0.1917	880.04	0.73
298.15	0.2948	932.2	0.62
298.15	0.3866	968.66	0.56
298.15	0.49	1001.63	0.51
298.15	0.5895	1027.36	0.57
298.15	0.7124	1053.43	0.65
298.15	0.7925	1067.91	0.7
298.15	0.8843	1082.31	0.76
298.15	1	1097.61	0.83
308.15	0	723.67	1.13
308.15	0.0963	807.93	0.91
308.15	0.1917	871.4	0.75
308.15	0.2948	924.07	0.64
308.15	0.3866	960.74	0.57
308.15	0.49	993.95	0.52
308.15	0.5895	1019.96	0.56
308.15	0.7124	1046.28	0.63
308.15	0.7925	1060.88	0.68
308.15	0.8843	1075.48	0.74
308.15	1	1090.9	0.81
318.15	0	714	1.16
318.15	0.0963	800.03	0.93
318.15	0.1917	863.91	0.77
318.15	0.2948	916.37	0.66
318.15	0.3866	953.13	0.59
318.15	0.49	986.41	0.53
318.15	0.5895	1012.6	0.54
318.15	0.7124	1039.31	0.62
318.15	0.7925	1053.97	0.67
318.15	0.8843	1068.67	0.72
318.15	1	1084.17	0.79

System: 1-butanamine + 1-methyl-3-octylimidazolium tetrafluoroborate; phases: Liquid
Fixed: Pressure, kPa = 101
Property: Speed of sound, m/s (Liquid); method: Sing-around technique in a fixed-path interferometer
Temperature, K	Mole fraction of 1-methyl-3-octylimidazolium tetrafluoroborate	Speed of sound, m/s	uncertainty
298.15	0	1246.5	0.9
298.15	0.0963	1276.5	0.9
298.15	0.1917	1309	1
298.15	0.2948	1344.1	1
298.15	0.3866	1371.6	1
298.15	0.49	1398.9	1.1
298.15	0.5895	1421.3	1.1
298.15	0.7124	1442.7	1.2
298.15	0.7925	1454.2	1.2
298.15	0.8843	1465.8	1.2
298.15	1	1481.1	1.3
308.15	0	1201.3	0.9
308.15	0.0963	1235	0.9
308.15	0.1917	1270.6	1
308.15	0.2948	1309	1
308.15	0.3866	1338.8	1
308.15	0.49	1368.2	1.1
308.15	0.5895	1391.9	1.1
308.15	0.7124	1414.8	1.2
308.15	0.7925	1427.1	1.2
308.15	0.8843	1438.8	1.2
308.15	1	1453.9	1.3
318.15	0	1156.2	0.9
318.15	0.0963	1193.1	0.9
318.15	0.1917	1232	0.9
318.15	0.2948	1274	1
318.15	0.3866	1306.4	1
318.15	0.49	1337.9	1.1
318.15	0.5895	1363.3	1.1
318.15	0.7124	1387.4	1.1
318.15	0.7925	1400	1.2
318.15	0.8843	1412.3	1.2
318.15	1	1428.2	1.3

System: 1-octanamine + 1-methyl-3-octylimidazolium tetrafluoroborate; phases: Liquid
Fixed: Pressure, kPa = 101
Property: Mass density, kg/m3 (Liquid); method: VIBTUB:UFactor:8
Temperature, K	Mole fraction of 1-methyl-3-octylimidazolium tetrafluoroborate	Mass density, kg/m3	uncertainty
298.15	0	777.45	1
298.15	0.1563	851.54	0.83
298.15	0.3025	910.65	0.7
298.15	0.4175	951.05	0.63
298.15	0.5225	983.58	0.57
298.15	0.6252	1011.86	0.57
298.15	0.7202	1035.54	0.63
298.15	0.794	1052.58	0.68
298.15	0.7994	1053.88	0.69
298.15	0.8691	1069.21	0.73
298.15	0.9259	1081.47	0.77
298.15	1	1097.61	0.83
308.15	0	769.46	1.03
308.15	0.1563	843.71	0.85
308.15	0.3025	902.92	0.72
308.15	0.4175	943.4	0.64
308.15	0.5225	976.2	0.58
308.15	0.6252	1004.63	0.56
308.15	0.7202	1028.44	0.62
308.15	0.794	1045.53	0.67
308.15	0.7994	1046.83	0.67
308.15	0.8691	1062.23	0.72
308.15	0.9259	1074.59	0.76
308.15	1	1090.9	0.81
318.15	0	761.47	1.05
318.15	0.1563	835.78	0.87
318.15	0.3025	895.08	0.74
318.15	0.4175	935.73	0.66
318.15	0.5225	968.62	0.6
318.15	0.6252	997.3	0.55
318.15	0.7202	1021.3	0.6
318.15	0.794	1038.51	0.65
318.15	0.7994	1039.75	0.65
318.15	0.8691	1055.21	0.7
318.15	0.9259	1067.76	0.74
318.15	1	1084.17	0.79

System: 1-octanamine + 1-methyl-3-octylimidazolium tetrafluoroborate; phases: Liquid
Fixed: Pressure, kPa = 101
Property: Speed of sound, m/s (Liquid); method: Sing-around technique in a fixed-path interferometer
Temperature, K	Mole fraction of 1-methyl-3-octylimidazolium tetrafluoroborate	Speed of sound, m/s	uncertainty
298.15	0	1343.2	1.1
298.15	0.1563	1353.1	1.1
298.15	0.3025	1370.2	1.1
298.15	0.4175	1387.6	1.2
298.15	0.5225	1404.3	1.2
298.15	0.6252	1420.9	1.2
298.15	0.7202	1436.5	1.2
298.15	0.794	1449	1.2
298.15	0.7994	1449.2	1.2
298.15	0.8691	1461.3	1.3
298.15	0.9259	1470.5	1.3
298.15	1	1481.1	1.3
308.15	0	1303.1	1.1
308.15	0.1563	1314.6	1.1
308.15	0.3025	1334.4	1.1
308.15	0.4175	1353.8	1.2
308.15	0.5225	1372.4	1.2
308.15	0.6252	1390.6	1.2
308.15	0.7202	1407.1	1.2
308.15	0.794	1419.9	1.2
308.15	0.7994	1421.1	1.2
308.15	0.8691	1432.7	1.3
308.15	0.9259	1442.2	1.3
308.15	1	1453.9	1.3
318.15	0	1263.5	1.1
318.15	0.1563	1276.9	1.1
318.15	0.3025	1299	1.1
318.15	0.4175	1320.5	1.2
318.15	0.5225	1340.9	1.2
318.15	0.6252	1360.7	1.2
318.15	0.7202	1378.4	1.2
318.15	0.794	1392.2	1.2
318.15	0.7994	1393.2	1.2
318.15	0.8691	1405.8	1.3
318.15	0.9259	1416.1	1.3
318.15	1	1428.2	1.3
