Measured thermophysical data. Physical Properties of a Complex Solution of (Potassium Citrate + Piperazine) as a CO2 Capture Agent
Source: J. Chem. Eng. Data, 2012, 10.1021/je3003354
Compound 1: potassium citrate, C6H5K3O7, InChI=1S/C6H8O7.3K/c7-3(8)1-6(13,5(11)12)2-4(9)10;;;/h13H,1-2H2,(H,7,8)(H,9,10)(H,11,12);;;/q;3*+1/p-3, purity 99.5%
Compound 2: piperazine, C4H10N2, InChI=1S/C4H10N2/c1-2-6-4-3-5-1/h5-6H,1-4H2, purity 99.5%
Compound 3: water, H2O, InChI=1S/H2O/h1H2, purity 99.9%

System: piperazine + potassium citrate + water; phases: Liquid, Air at 1 atmosphere
Fixed: Temperature, K = 293.15
Property: Surface tension liquid-gas, N/m (Liquid); method: Ring tensiometer
Molality, mol/kg of potassium citrate	Molality, mol/kg of piperazine	Surface tension liquid-gas, N/m	uncertainty
0.27	0.18	0.06939	0.00249
0.36	0.09	0.07051	0.00253
0.42	0.42	0.06919	0.00249
0.45	0	0.07149	0.00257
0.5	0.33	0.07072	0.00254
0.58	0.25	0.07276	0.00261
0.62	0.54	0.07032	0.00253
0.66	0.17	0.07372	0.00265
0.7	0.46	0.07188	0.00258
0.75	0.08	0.0748	0.00269
0.77	0.39	0.07382	0.00265
0.83	0	0.07575	0.00272
0.85	0.31	0.07541	0.00271
0.89	0.59	0.0724	0.0026
0.93	0.23	0.07664	0.00275
1.01	0.15	0.0777	0.00279
1.04	0.44	0.07553	0.00271
1.08	0.08	0.07834	0.00281
1.16	0	0.07908	0.00284
1.18	0.3	0.07772	0.00279
1.33	0.15	0.07921	0.00284
1.48	0	0.0811	0.00291

System: piperazine + potassium citrate + water; phases: Liquid
Fixed: Pressure, kPa = 101
Property: Viscosity, Pa*s (Liquid); method: Capillary tube (Ostwald; Ubbelohde) method
Temperature, K	Molality, mol/kg of potassium citrate	Molality, mol/kg of piperazine	Viscosity, Pa*s	uncertainty
293.15	0.27	0.18	0.001259	5.1e-05
293.15	0.36	0.09	0.001294	5.3e-05
293.15	0.42	0.42	0.001568	6.4e-05
293.15	0.45	0	0.001342	5.5e-05
293.15	0.5	0.33	0.001615	6.6e-05
293.15	0.58	0.25	0.001663	6.8e-05
293.15	0.62	0.54	0.002088	8.5e-05
293.15	0.66	0.17	0.001719	7e-05
293.15	0.7	0.46	0.002129	8.7e-05
293.15	0.75	0.08	0.001796	7.4e-05
293.15	0.77	0.39	0.002192	8.9e-05
293.15	0.83	0	0.001891	7.7e-05
293.15	0.85	0.31	0.002295	9.4e-05
293.15	0.89	0.59	0.002683	0.000109
293.15	0.93	0.23	0.002415	9.8e-05
293.15	1.01	0.15	0.002601	0.000106
293.15	1.04	0.44	0.002976	0.000121
293.15	1.08	0.08	0.00275	0.000112
293.15	1.16	0	0.002933	0.00012
293.15	1.18	0.3	0.003317	0.000135
293.15	1.33	0.15	0.003975	0.000162
293.15	1.48	0	0.004989	0.000203
303.15	0.27	0.18	0.000977	4e-05
303.15	0.36	0.09	0.001013	4.1e-05
303.15	0.42	0.42	0.001188	4.8e-05
303.15	0.45	0	0.00105	4.3e-05
303.15	0.5	0.33	0.001229	5e-05
303.15	0.58	0.25	0.001284	5.2e-05
303.15	0.62	0.54	0.00152	6.2e-05
303.15	0.66	0.17	0.001317	5.4e-05
303.15	0.7	0.46	0.00159	6.5e-05
303.15	0.75	0.08	0.001372	5.6e-05
303.15	0.77	0.39	0.00161	6.6e-05
303.15	0.83	0	0.001448	5.9e-05
303.15	0.85	0.31	0.001752	7.1e-05
303.15	0.89	0.59	0.001928	7.9e-05
303.15	0.93	0.23	0.001815	7.4e-05
303.15	1.01	0.15	0.00194	7.9e-05
303.15	1.04	0.44	0.002124	8.7e-05
303.15	1.08	0.08	0.002034	8.3e-05
303.15	1.16	0	0.002205	9e-05
303.15	1.18	0.3	0.002435	9.9e-05
303.15	1.33	0.15	0.002889	0.000118
303.15	1.48	0	0.00356	0.000146
313.15	0.27	0.18	0.00078	3.2e-05
313.15	0.36	0.09	0.000809	3.3e-05
313.15	0.42	0.42	0.000934	3.8e-05
313.15	0.45	0	0.000845	3.4e-05
313.15	0.5	0.33	0.000967	3.9e-05
313.15	0.58	0.25	0.000996	4.1e-05
313.15	0.62	0.54	0.001196	4.9e-05
313.15	0.66	0.17	0.001039	4.2e-05
313.15	0.7	0.46	0.001215	4.9e-05
313.15	0.74	0.74	0.001239	5e-05
313.15	0.75	0.08	0.001077	4.4e-05
313.15	0.77	0.39	0.001231	5e-05
313.15	0.83	0	0.001127	4.6e-05
313.15	0.85	0.31	0.001304	5.3e-05
313.15	0.89	0.59	0.001384	5.6e-05
313.15	0.93	0.23	0.001389	5.7e-05
313.15	1.01	0.15	0.00148	6e-05
313.15	1.04	0.44	0.001575	6.4e-05
313.15	1.08	0.08	0.001546	6.3e-05
313.15	1.16	0	0.001644	6.7e-05
313.15	1.18	0.3	0.001852	7.5e-05
313.15	1.33	0.15	0.002243	9.1e-05
313.15	1.48	0	0.002597	0.000106
323.15	0.27	0.18	0.000629	2.6e-05
323.15	0.36	0.09	0.000661	2.7e-05
323.15	0.42	0.42	0.000759	3.1e-05
323.15	0.45	0	0.000695	2.8e-05
323.15	0.5	0.33	0.000796	3.2e-05
323.15	0.58	0.25	0.000814	3.3e-05
323.15	0.62	0.54	0.000956	3.9e-05
323.15	0.66	0.17	0.000853	3.5e-05
323.15	0.7	0.46	0.000985	4e-05
323.15	0.74	0.74	0.001024	4.2e-05
323.15	0.75	0.08	0.000882	3.6e-05
323.15	0.77	0.39	0.000992	4e-05
323.15	0.83	0	0.000925	3.7e-05
323.15	0.85	0.31	0.001045	4.2e-05
323.15	0.89	0.59	0.001113	4.5e-05
323.15	0.93	0.23	0.001104	4.5e-05
323.15	1.01	0.15	0.001174	4.8e-05
323.15	1.04	0.44	0.001207	4.9e-05
323.15	1.08	0.08	0.001221	5e-05
323.15	1.16	0	0.001291	5.2e-05
323.15	1.18	0.3	0.001447	5.9e-05
323.15	1.33	0.15	0.001642	6.7e-05
323.15	1.48	0	0.001816	7.5e-05

System: piperazine + potassium citrate + water; phases: Liquid
Fixed: Pressure, kPa = 101
Property: Mass density, kg/m3 (Liquid); method: Pycnometric method
Temperature, K	Molality, mol/kg of potassium citrate	Molality, mol/kg of piperazine	Mass density, kg/m3	uncertainty
293.15	0.27	0.18	1082.1	4.4
293.15	0.36	0.09	1101.5	4.4
293.15	0.42	0.42	1122.3	4.6
293.15	0.45	0	1117.7	4.5
293.15	0.5	0.33	1136.8	4.6
293.15	0.58	0.25	1155.2	4.6
293.15	0.62	0.54	1158	4.7
293.15	0.66	0.17	1169.1	4.7
293.15	0.7	0.46	1180.9	4.8
293.15	0.75	0.08	1187.4	4.8
293.15	0.77	0.39	1209.1	4.9
293.15	0.83	0	1201.1	4.9
293.15	0.85	0.31	1227.3	4.9
293.15	0.89	0.59	1225.1	4.9
293.15	0.93	0.23	1248.3	5
293.15	1.01	0.15	1266.6	5.1
293.15	1.04	0.44	1267.7	5.2
293.15	1.08	0.08	1275.7	5.2
293.15	1.16	0	1294.6	5.2
293.15	1.18	0.3	1294.5	5.2
293.15	1.33	0.15	1334.7	5.4
293.15	1.48	0	1355.7	5.5
303.15	0.27	0.18	1076.9	4.3
303.15	0.36	0.09	1097.9	4.4
303.15	0.42	0.42	1111.6	4.5
303.15	0.45	0	1112.9	4.5
303.15	0.5	0.33	1130	4.6
303.15	0.58	0.25	1150.3	4.6
303.15	0.62	0.54	1151.3	4.7
303.15	0.66	0.17	1165.6	4.7
303.15	0.7	0.46	1174.1	4.7
303.15	0.75	0.08	1183.6	4.8
303.15	0.77	0.39	1197.2	4.9
303.15	0.83	0	1199.2	4.8
303.15	0.85	0.31	1220.5	4.9
303.15	0.89	0.59	1219.3	4.9
303.15	0.93	0.23	1240.8	5
303.15	1.01	0.15	1257.9	5.1
303.15	1.04	0.44	1255.6	5.1
303.15	1.08	0.08	1267.6	5.1
303.15	1.16	0	1285	5.2
303.15	1.18	0.3	1283.7	5.2
303.15	1.33	0.15	1321.8	5.4
303.15	1.48	0	1343.2	5.5
313.15	0.27	0.18	1069.4	4.3
313.15	0.36	0.09	1093.1	4.4
313.15	0.42	0.42	1105.9	4.5
313.15	0.45	0	1110.1	4.5
313.15	0.5	0.33	1126.5	4.5
313.15	0.58	0.25	1147.3	4.6
313.15	0.62	0.54	1142.1	4.6
313.15	0.66	0.17	1162.4	4.7
313.15	0.7	0.46	1168.3	4.7
313.15	0.74	0.74	1186.3	4.8
313.15	0.75	0.08	1178	4.7
313.15	0.77	0.39	1185.2	4.8
313.15	0.83	0	1197.4	4.8
313.15	0.85	0.31	1213.5	4.9
313.15	0.89	0.59	1206.5	4.9
313.15	0.93	0.23	1231.8	5
313.15	1.01	0.15	1249.6	5
313.15	1.04	0.44	1250.3	5.1
313.15	1.08	0.08	1261.2	5.1
313.15	1.16	0	1275.6	5.1
313.15	1.18	0.3	1276.1	5.1
313.15	1.33	0.15	1312.1	5.3
313.15	1.48	0	1331.9	5.4
323.15	0.27	0.18	1064.5	4.3
323.15	0.36	0.09	1090.3	4.4
323.15	0.42	0.42	1098.3	4.4
323.15	0.45	0	1108	4.5
323.15	0.5	0.33	1122.9	4.5
323.15	0.58	0.25	1142.1	4.6
323.15	0.62	0.54	1135	4.6
323.15	0.66	0.17	1159.2	4.7
323.15	0.7	0.46	1162.6	4.7
323.15	0.74	0.74	1176.2	4.8
323.15	0.75	0.08	1173.9	4.7
323.15	0.77	0.39	1176.7	4.8
323.15	0.83	0	1194	4.8
323.15	0.85	0.31	1206.1	4.9
323.15	0.89	0.59	1199.5	4.8
323.15	0.93	0.23	1221.3	5
323.15	1.01	0.15	1241.9	5.1
323.15	1.04	0.44	1235.3	5.1
323.15	1.08	0.08	1254.2	5.1
323.15	1.16	0	1270.7	5.2
323.15	1.18	0.3	1268.3	5.1
323.15	1.33	0.15	1297.2	5.3
323.15	1.48	0	1327.8	5.3
