Measured thermophysical data. Ionic Conductivities of Binary Mixtures Containing Pyridinium-Based Ionic Liquids and Alkanols
Source: J. Chem. Eng. Data, 2013, 10.1021/je301347v
Compound 1: 1-butylpyridinium tetrafluoroborate, C9H14BF4N, InChI=1S/C9H14N.BF4/c1-2-3-7-10-8-5-4-6-9-10;2-1(3,4)5/h4-6,8-9H,2-3,7H2,1H3;/q+1;-1, purity 99%
Compound 2: 1-butyl-3-methylpyridinium tetrafluoroborate, C10H16BF4N, InChI=1S/C10H16N.BF4/c1-3-4-7-11-8-5-6-10(2)9-11;2-1(3,4)5/h5-6,8-9H,3-4,7H2,1-2H3;/q+1;-1, purity 99%
Compound 3: 1-butyl-4-methylpyridinium tetrafluoroborate, C10H16BF4N, InChI=1S/C10H16N.BF4/c1-3-4-7-11-8-5-10(2)6-9-11;2-1(3,4)5/h5-6,8-9H,3-4,7H2,1-2H3;/q+1;-1, purity 99%
Compound 4: methanol, CH4O, InChI=1S/CH4O/c1-2/h2H,1H3, purity 99.8%
Compound 5: ethanol, C2H6O, InChI=1S/C2H6O/c1-2-3/h3H,2H2,1H3, purity 99.5%

System: 1-butylpyridinium tetrafluoroborate; phases: Liquid
Fixed: Pressure, kPa = 101
Property: Electrical conductivity, S/m (Liquid); method: Voltage change across transformer (no electrode)
Temperature, K	Electrical conductivity, S/m	uncertainty
293.15	0.1807	0.0036
303.15	0.321	0.006
313.15	0.519	0.01
323.15	0.785	0.016

System: 1-butyl-3-methylpyridinium tetrafluoroborate; phases: Liquid
Fixed: Pressure, kPa = 101
Property: Electrical conductivity, S/m (Liquid); method: Voltage change across transformer (no electrode)
Temperature, K	Electrical conductivity, S/m	uncertainty
293.15	0.1549	0.0016
303.15	0.281	0.003
313.15	0.461	0.005
323.15	0.704	0.007

System: 1-butyl-4-methylpyridinium tetrafluoroborate; phases: Liquid
Fixed: Pressure, kPa = 101
Property: Electrical conductivity, S/m (Liquid); method: Voltage change across transformer (no electrode)
Temperature, K	Electrical conductivity, S/m	uncertainty
293.15	0.1318	0.0013
303.15	0.254	0.003
313.15	0.439	0.004
323.15	0.687	0.007

System: methanol + 1-butylpyridinium tetrafluoroborate; phases: Liquid
Fixed: Pressure, kPa = 101
Property: Electrical conductivity, S/m (Liquid); method: Voltage change across transformer (no electrode)
Temperature, K	Mole fraction of 1-butylpyridinium tetrafluoroborate	Electrical conductivity, S/m	uncertainty
293.15	0.0432	2.87	0.12
293.15	0.0485	2.98	0.12
293.15	0.0698	3.21	0.13
293.15	0.0901	3.45	0.14
293.15	0.1091	3.71	0.15
293.15	0.1252	3.75	0.15
293.15	0.142	3.82	0.15
293.15	0.1629	3.79	0.15
293.15	0.1773	3.78	0.15
293.15	0.2273	3.47	0.14
293.15	0.2401	3.43	0.14
293.15	0.2966	3.14	0.13
293.15	0.3803	2.37	0.09
293.15	0.4277	2.07	0.08
293.15	0.4808	1.754	0.07
293.15	0.5618	1.198	0.048
293.15	0.6317	0.894	0.036
293.15	0.698	0.74	0.03
293.15	0.8355	0.406	0.016
293.15	0.879	0.321	0.013
293.15	0.9279	0.27	0.011
293.15	1	0.1807	0.0072
303.15	0.0432	3.37	0.14
303.15	0.0485	3.51	0.14
303.15	0.0698	3.82	0.15
303.15	0.0901	4.17	0.17
303.15	0.1091	4.39	0.18
303.15	0.1252	4.54	0.18
303.15	0.142	4.61	0.18
303.15	0.1629	4.59	0.18
303.15	0.1773	4.57	0.18
303.15	0.2273	4.3	0.17
303.15	0.2401	4.26	0.17
303.15	0.2966	3.99	0.16
303.15	0.3803	3.05	0.12
303.15	0.4277	2.71	0.11
303.15	0.4808	2.29	0.09
303.15	0.5618	1.719	0.069
303.15	0.6317	1.354	0.054
303.15	0.698	1.068	0.043
303.15	0.8355	0.647	0.026
303.15	0.879	0.514	0.021
303.15	0.9279	0.446	0.018
303.15	1	0.321	0.013
313.15	0.0432	3.91	0.16
313.15	0.0485	3.95	0.16
313.15	0.0698	4.45	0.18
313.15	0.0901	4.89	0.2
313.15	0.1091	5.14	0.21
313.15	0.1252	5.35	0.21
313.15	0.142	5.45	0.22
313.15	0.1629	5.49	0.22
313.15	0.1773	5.38	0.22
313.15	0.2273	5.16	0.21
313.15	0.2401	5.13	0.21
313.15	0.2966	4.81	0.19
313.15	0.3803	3.72	0.15
313.15	0.4277	3.39	0.14
313.15	0.4808	2.89	0.12
313.15	0.5618	2.22	0.09
313.15	0.6317	1.812	0.072
313.15	0.698	1.447	0.058
313.15	0.8355	0.966	0.039
313.15	0.879	0.776	0.031
313.15	0.9279	0.684	0.027
313.15	1	0.519	0.021
323.15	0.0432	4.28	0.17
323.15	0.0485	4.62	0.19
323.15	0.0698	5.11	0.2
323.15	0.0901	5.46	0.22
323.15	0.1091	5.81	0.23
323.15	0.1252	6.06	0.24
323.15	0.142	6.12	0.24
323.15	0.1629	6.19	0.25
323.15	0.1773	6.12	0.24
323.15	0.2273	6.01	0.24
323.15	0.2401	5.94	0.24
323.15	0.2966	5.59	0.22
323.15	0.3803	4.51	0.18
323.15	0.4277	4.08	0.16
323.15	0.4808	3.49	0.14
323.15	0.5618	2.77	0.11
323.15	0.6317	2.35	0.09
323.15	0.698	1.892	0.076
323.15	0.8355	1.386	0.055
323.15	0.879	1.119	0.045
323.15	0.9279	0.976	0.039
323.15	1	0.785	0.031

System: ethanol + 1-butylpyridinium tetrafluoroborate; phases: Liquid
Fixed: Pressure, kPa = 101
Property: Electrical conductivity, S/m (Liquid); method: Voltage change across transformer (no electrode)
Temperature, K	Mole fraction of 1-butylpyridinium tetrafluoroborate	Electrical conductivity, S/m	uncertainty
303.15	0.0353	0.785	0.032
303.15	0.0417	0.863	0.035
303.15	0.0455	1.06	0.043
303.15	0.0461	1.036	0.042
303.15	0.0551	1.147	0.048
303.15	0.0564	1.238	0.051
303.15	0.0634	1.439	0.058
303.15	0.0735	1.43	0.057
303.15	0.084	1.556	0.062
303.15	0.1033	1.68	0.07
303.15	0.1165	1.797	0.072
303.15	0.1291	1.857	0.074
303.15	0.1597	2.16	0.09
303.15	0.1656	2.28	0.09
303.15	0.2093	2.38	0.1
303.15	0.2237	2.44	0.1
303.15	0.2751	2.46	0.1
303.15	0.3929	2.17	0.09
303.15	0.4464	1.956	0.078
303.15	0.5095	1.659	0.066
303.15	0.617	1.195	0.048
303.15	0.7008	0.884	0.035
303.15	0.8158	0.566	0.023
303.15	0.8973	0.436	0.017
303.15	1	0.321	0.013
313.15	0.0353	1.024	0.041
313.15	0.0417	1.18	0.047
313.15	0.0455	1.268	0.051
313.15	0.0461	1.291	0.052
313.15	0.0551	1.475	0.06
313.15	0.0564	1.501	0.06
313.15	0.0634	1.637	0.066
313.15	0.0735	1.821	0.073
313.15	0.084	1.983	0.079
313.15	0.1033	2.24	0.09
313.15	0.1165	2.39	0.1
313.15	0.1291	2.51	0.1
313.15	0.1597	2.74	0.11
313.15	0.1656	2.77	0.11
313.15	0.2093	2.95	0.12
313.15	0.2237	2.96	0.12
313.15	0.2751	2.97	0.12
313.15	0.3929	2.7	0.11
313.15	0.4464	2.5	0.1
313.15	0.5095	2.2	0.09
313.15	0.617	1.766	0.071
313.15	0.7008	1.426	0.057
313.15	0.8158	1.032	0.041
313.15	0.8973	0.821	0.033
313.15	1	0.519	0.021
323.15	0.0353	1.316	0.053
323.15	0.0417	1.376	0.055
323.15	0.0455	1.542	0.062
323.15	0.0461	1.54	0.062
323.15	0.0551	1.72	0.071
323.15	0.0564	1.83	0.075
323.15	0.0634	2.22	0.09
323.15	0.0735	2.12	0.08
323.15	0.084	2.31	0.09
323.15	0.1033	2.56	0.1
323.15	0.1165	2.7	0.11
323.15	0.1291	2.92	0.12
323.15	0.1597	3.01	0.12
323.15	0.1656	3.23	0.13
323.15	0.2093	3.41	0.14
323.15	0.2237	3.43	0.14
323.15	0.2751	3.45	0.14
323.15	0.3929	3.2	0.13
323.15	0.4464	2.86	0.11
323.15	0.5095	2.56	0.1
323.15	0.617	2.17	0.09
323.15	0.7008	1.71	0.068
323.15	0.8158	1.283	0.051
323.15	0.8973	1.042	0.042
323.15	1	0.785	0.031

System: methanol + 1-butyl-3-methylpyridinium tetrafluoroborate; phases: Liquid
Fixed: Pressure, kPa = 101
Property: Electrical conductivity, S/m (Liquid); method: Voltage change across transformer (no electrode)
Temperature, K	Mole fraction of 1-butyl-3-methylpyridinium tetrafluoroborate	Electrical conductivity, S/m	uncertainty
293.15	0.0337	2.29	0.09
293.15	0.0438	2.45	0.1
293.15	0.0479	2.66	0.11
293.15	0.0567	2.9	0.12
293.15	0.0699	3.17	0.13
293.15	0.1142	3.33	0.13
293.15	0.1504	3.37	0.13
293.15	0.1734	3.31	0.13
293.15	0.2236	3.11	0.12
293.15	0.2696	2.78	0.11
293.15	0.3345	2.43	0.1
293.15	0.378	2.19	0.09
293.15	0.4258	1.761	0.07
293.15	0.5198	1.305	0.052
293.15	0.61	0.944	0.038
293.15	0.729	0.472	0.019
293.15	0.8344	0.28	0.011
293.15	0.9177	0.1905	0.0076
293.15	1	0.1549	0.0062
303.15	0.0337	2.71	0.11
303.15	0.0438	2.89	0.12
303.15	0.0479	3.12	0.13
303.15	0.0567	3.41	0.14
303.15	0.0699	3.85	0.15
303.15	0.1142	3.98	0.16
303.15	0.1504	4.06	0.16
303.15	0.1734	4.01	0.16
303.15	0.2236	3.8	0.15
303.15	0.2696	3.44	0.14
303.15	0.3345	3.08	0.12
303.15	0.378	2.8	0.11
303.15	0.4258	2.31	0.09
303.15	0.5198	1.817	0.073
303.15	0.61	1.322	0.053
303.15	0.729	0.686	0.027
303.15	0.8344	0.413	0.017
303.15	0.9177	0.311	0.012
303.15	1	0.281	0.011
313.15	0.0337	3.11	0.12
313.15	0.0438	3.34	0.13
313.15	0.0479	3.6	0.14
313.15	0.0567	3.96	0.16
313.15	0.0699	4.49	0.18
313.15	0.1142	4.66	0.19
313.15	0.1504	4.74	0.19
313.15	0.1734	4.74	0.19
313.15	0.2236	4.55	0.18
313.15	0.2696	4.15	0.17
313.15	0.3345	3.77	0.15
313.15	0.378	3.45	0.14
313.15	0.4258	2.95	0.12
313.15	0.5198	2.3	0.09
313.15	0.61	1.782	0.071
313.15	0.729	1.042	0.042
313.15	0.8344	0.672	0.027
313.15	0.9177	0.523	0.021
313.15	1	0.461	0.018
323.15	0.0337	3.5	0.14
323.15	0.0438	3.8	0.15
323.15	0.0479	4.09	0.16
323.15	0.0567	4.53	0.18
323.15	0.0699	5.1	0.2
323.15	0.1142	5.38	0.22
323.15	0.1504	5.5	0.22
323.15	0.1734	5.52	0.22
323.15	0.2236	5.34	0.21
323.15	0.2696	4.89	0.2
323.15	0.3345	4.49	0.18
323.15	0.378	4.11	0.16
323.15	0.4258	3.59	0.14
323.15	0.5198	2.87	0.11
323.15	0.61	2.27	0.09
323.15	0.729	1.583	0.063
323.15	0.8344	1.052	0.042
323.15	0.9177	0.817	0.033
323.15	1	0.704	0.028

System: ethanol + 1-butyl-3-methylpyridinium tetrafluoroborate; phases: Liquid
Fixed: Pressure, kPa = 101
Property: Electrical conductivity, S/m (Liquid); method: Voltage change across transformer (no electrode)
Temperature, K	Mole fraction of 1-butyl-3-methylpyridinium tetrafluoroborate	Electrical conductivity, S/m	uncertainty
293.15	0.0613	0.787	0.032
293.15	0.0737	0.888	0.036
293.15	0.0915	1.016	0.041
293.15	0.1113	1.143	0.046
293.15	0.1366	1.243	0.05
293.15	0.167	1.397	0.056
293.15	0.1985	1.471	0.059
293.15	0.2393	1.52	0.061
293.15	0.2811	1.505	0.06
293.15	0.3174	1.412	0.056
293.15	0.3652	1.325	0.053
293.15	0.4385	1.19	0.048
293.15	0.4652	1.089	0.044
293.15	0.5281	0.934	0.037
293.15	0.5747	0.823	0.033
293.15	0.6938	0.51	0.02
293.15	0.7799	0.37	0.015
293.15	0.9102	0.215	0.009
293.15	1	0.1549	0.0062
303.15	0.0613	1.017	0.041
303.15	0.0737	1.141	0.046
303.15	0.0915	1.312	0.053
303.15	0.1113	1.478	0.059
303.15	0.1366	1.634	0.065
303.15	0.167	1.813	0.073
303.15	0.1985	1.92	0.077
303.15	0.2393	1.969	0.079
303.15	0.2811	1.964	0.079
303.15	0.3174	1.853	0.074
303.15	0.3652	1.758	0.07
303.15	0.4385	1.607	0.064
303.15	0.4652	1.486	0.059
303.15	0.5281	1.276	0.051
303.15	0.5747	1.169	0.047
303.15	0.6938	0.77	0.031
303.15	0.7799	0.56	0.022
303.15	0.9102	0.36	0.014
303.15	1	0.281	0.011
313.15	0.0613	1.26	0.05
313.15	0.0737	1.42	0.057
313.15	0.0915	1.629	0.065
313.15	0.1113	1.844	0.074
313.15	0.1366	2.04	0.08
313.15	0.167	2.22	0.09
313.15	0.1985	2.36	0.09
313.15	0.2393	2.4	0.1
313.15	0.2811	2.4	0.1
313.15	0.3174	2.31	0.09
313.15	0.3652	2.24	0.09
313.15	0.4385	2.11	0.08
313.15	0.4652	1.923	0.077
313.15	0.5281	1.681	0.067
313.15	0.5747	1.565	0.063
313.15	0.6938	1.152	0.046
313.15	0.7799	0.891	0.036
313.15	0.9102	0.59	0.024
313.15	1	0.461	0.018
323.15	0.0613	1.529	0.061
323.15	0.0737	1.716	0.069
323.15	0.0915	1.961	0.078
323.15	0.1113	2.19	0.09
323.15	0.1366	2.43	0.1
323.15	0.167	2.68	0.11
323.15	0.1985	2.81	0.11
323.15	0.2393	2.89	0.12
323.15	0.2811	2.89	0.12
323.15	0.3174	2.85	0.11
323.15	0.3652	2.76	0.11
323.15	0.4385	2.54	0.1
323.15	0.4652	2.45	0.1
323.15	0.5281	2.21	0.09
323.15	0.5747	2.04	0.08
323.15	0.6938	1.628	0.065
323.15	0.7799	1.334	0.053
323.15	0.9102	0.903	0.036
323.15	1	0.704	0.028

System: methanol + 1-butyl-4-methylpyridinium tetrafluoroborate; phases: Liquid
Fixed: Pressure, kPa = 101
Property: Electrical conductivity, S/m (Liquid); method: Voltage change across transformer (no electrode)
Temperature, K	Mole fraction of 1-butyl-4-methylpyridinium tetrafluoroborate	Electrical conductivity, S/m	uncertainty
293.15	0.0426	2.81	0.11
293.15	0.0499	2.99	0.12
293.15	0.0584	3.18	0.13
293.15	0.0716	3.38	0.14
293.15	0.0898	3.58	0.14
293.15	0.1093	3.72	0.15
293.15	0.1256	3.76	0.15
293.15	0.1425	3.78	0.15
293.15	0.2197	3.47	0.14
293.15	0.2475	3.31	0.13
293.15	0.305	3.13	0.13
293.15	0.3465	2.81	0.11
293.15	0.4593	2.18	0.09
293.15	0.5657	1.421	0.057
293.15	0.6744	0.993	0.04
293.15	0.7908	0.565	0.023
293.15	0.8788	0.341	0.014
293.15	1	0.1318	0.0053
303.15	0.0426	3.25	0.13
303.15	0.0499	3.46	0.14
303.15	0.0584	3.71	0.15
303.15	0.0716	3.99	0.16
303.15	0.0898	4.25	0.17
303.15	0.1093	4.43	0.18
303.15	0.1256	4.52	0.18
303.15	0.1425	4.56	0.18
303.15	0.2197	4.38	0.18
303.15	0.2475	4.22	0.17
303.15	0.305	3.84	0.15
303.15	0.3465	3.53	0.14
303.15	0.4593	2.68	0.11
303.15	0.5657	1.928	0.077
303.15	0.6744	1.282	0.051
303.15	0.7908	0.761	0.03
303.15	0.8788	0.487	0.019
303.15	1	0.254	0.01
313.15	0.0426	3.55	0.14
313.15	0.0499	3.93	0.16
313.15	0.0584	4.17	0.17
313.15	0.0716	4.56	0.18
313.15	0.0898	4.82	0.19
313.15	0.1093	5.08	0.2
313.15	0.1256	5.2	0.21
313.15	0.1425	5.27	0.21
313.15	0.2197	5.15	0.21
313.15	0.2475	5	0.2
313.15	0.305	4.61	0.18
313.15	0.3465	4.27	0.17
313.15	0.4593	3.3	0.13
313.15	0.5657	2.47	0.1
313.15	0.6744	1.71	0.07
313.15	0.7908	1.119	0.045
313.15	0.8788	0.78	0.031
313.15	1	0.439	0.018
323.15	0.0426	4.09	0.16
323.15	0.0499	4.37	0.18
323.15	0.0584	4.65	0.19
323.15	0.0716	5.02	0.2
323.15	0.0898	5.4	0.22
323.15	0.1093	5.67	0.23
323.15	0.1256	5.82	0.23
323.15	0.1425	5.92	0.24
323.15	0.2197	5.85	0.23
323.15	0.2475	5.7	0.23
323.15	0.305	5.27	0.21
323.15	0.3465	4.9	0.2
323.15	0.4593	3.83	0.15
323.15	0.5657	2.85	0.11
323.15	0.6744	1.991	0.08
323.15	0.7908	1.287	0.051
323.15	0.8788	0.925	0.037
323.15	1	0.687	0.027

System: ethanol + 1-butyl-4-methylpyridinium tetrafluoroborate; phases: Liquid
Fixed: Pressure, kPa = 101
Property: Electrical conductivity, S/m (Liquid); method: Voltage change across transformer (no electrode)
Temperature, K	Mole fraction of 1-butyl-4-methylpyridinium tetrafluoroborate	Electrical conductivity, S/m	uncertainty
293.15	0.0448	0.696	0.028
293.15	0.0521	0.791	0.032
293.15	0.0608	0.893	0.036
293.15	0.0701	0.991	0.04
293.15	0.0843	1.147	0.046
293.15	0.1046	1.294	0.052
293.15	0.1232	1.391	0.056
293.15	0.1347	1.438	0.058
293.15	0.1551	1.5	0.06
293.15	0.1602	1.513	0.061
293.15	0.2251	1.587	0.063
293.15	0.247	1.587	0.063
293.15	0.3371	1.52	0.061
293.15	0.3512	1.496	0.06
293.15	0.3799	1.453	0.058
293.15	0.3856	1.444	0.058
293.15	0.4126	1.399	0.056
293.15	0.5649	1.101	0.044
293.15	0.6798	0.851	0.034
293.15	0.7941	0.601	0.024
293.15	0.9258	0.305	0.012
293.15	0.9963	0.1543	0.0063
293.15	1	0.1318	0.0053
303.15	0.0448	0.877	0.035
303.15	0.0521	1.007	0.04
303.15	0.0608	1.146	0.046
303.15	0.0701	1.277	0.051
303.15	0.0843	1.472	0.059
303.15	0.1046	1.648	0.066
303.15	0.1232	1.801	0.072
303.15	0.1347	1.859	0.074
303.15	0.1551	1.954	0.078
303.15	0.1602	1.972	0.079
303.15	0.2251	2.088	0.084
303.15	0.247	2.094	0.084
303.15	0.3371	2.018	0.081
303.15	0.3512	1.996	0.08
303.15	0.3799	1.945	0.078
303.15	0.3856	1.935	0.077
303.15	0.4126	1.879	0.075
303.15	0.5649	1.371	0.055
303.15	0.6798	1.018	0.041
303.15	0.7941	0.696	0.028
303.15	0.9258	0.38	0.015
303.15	0.9963	0.242	0.01
303.15	1	0.254	0.01
313.15	0.0448	1.012	0.041
313.15	0.0521	1.224	0.049
313.15	0.0608	1.419	0.057
313.15	0.0701	1.584	0.063
313.15	0.0843	1.82	0.073
313.15	0.1046	2.079	0.083
313.15	0.1232	2.256	0.09
313.15	0.1347	2.331	0.093
313.15	0.1551	2.466	0.099
313.15	0.1602	2.491	0.1
313.15	0.2251	2.665	0.107
313.15	0.247	2.68	0.107
313.15	0.3371	2.612	0.104
313.15	0.3512	2.589	0.104
313.15	0.3799	2.524	0.101
313.15	0.3856	2.519	0.101
313.15	0.4126	2.456	0.098
313.15	0.5649	2.007	0.08
313.15	0.6798	1.612	0.064
313.15	0.7941	1.2	0.048
313.15	0.9258	0.717	0.029
313.15	0.9963	0.459	0.019
313.15	1	0.439	0.018
323.15	0.0448	1.096	0.044
323.15	0.0521	1.301	0.052
323.15	0.0608	1.547	0.062
323.15	0.0701	1.76	0.07
323.15	0.0843	1.95	0.078
323.15	0.1046	2.41	0.1
323.15	0.1232	2.64	0.11
323.15	0.1347	2.76	0.11
323.15	0.1551	2.92	0.12
323.15	0.1602	2.96	0.12
323.15	0.2251	3.22	0.13
323.15	0.247	3.26	0.13
323.15	0.3371	3.22	0.13
323.15	0.3512	3.22	0.13
323.15	0.3799	3.17	0.13
323.15	0.3856	3.16	0.13
323.15	0.4126	3.1	0.12
323.15	0.5649	2.63	0.11
323.15	0.6798	2.16	0.09
323.15	0.7941	1.684	0.067
323.15	0.9258	1.063	0.043
323.15	0.9963	0.74	0.03
323.15	1	0.687	0.027
