Measured thermophysical data. Solubilities of the Triethylene Glycol and Tripropylene Glycol Derivatives Terminated with Phosphoryl Groups in Supercritical CO2
Source: J. Chem. Eng. Data, 2012, 10.1021/je300232a
Compound 1: 2-(2-(2-((2-ethylhexoxy(methoxy)phosphoryl)oxy)ethoxy)ethoxy)ethyl 2-ethylhexyl methyl phosphate, C24H52O10P2, InChI=1S/C24H52O10P2/c1-7-11-13-23(9-3)21-33-35(25,27-5)31-19-17-29-15-16-30-18-20-32-36(26,28-6)34-22-24(10-4)14-12-8-2/h23-24H,7-22H2,1-6H3, purity 99.9%
Compound 2: 2-(2-(2-((2-ethylhexoxy(methoxy)phosphoryl)oxy)propoxy)propoxy)propyl 2-ethylhexyl methyl phosphate, C27H58O10P2, InChI=1S/C27H58O10P2/c1-10-14-16-26(12-3)21-35-38(28,30-8)34-20-24(6)32-18-23(5)33-19-25(7)37-39(29,31-9)36-22-27(13-4)17-15-11-2/h23-27H,10-22H2,1-9H3, purity 99.9%
Compound 3: carbon dioxide, CO2, InChI=1S/CO2/c2-1-3, purity 99.99%

System: carbon dioxide + 2-(2-(2-((2-ethylhexoxy(methoxy)phosphoryl)oxy)ethoxy)ethoxy)ethyl 2-ethylhexyl methyl phosphate; phases: Gas, Liquid
Property: Mole fraction of 2-(2-(2-((2-ethylhexoxy(methoxy)phosphoryl)oxy)ethoxy)ethoxy)ethyl 2-ethylhexyl methyl phosphate (Gas); method: Titration method
Temperature, K	Pressure, kPa	Mole fraction of 2-(2-(2-((2-ethylhexoxy(methoxy)phosphoryl)oxy)ethoxy)ethoxy)ethyl 2-ethylhexyl methyl phosphate	uncertainty
313	11200	0.00215	0.00014
313	11450	0.00245	0.00015
313	11810	0.0027	0.00017
313	12260	0.0029	0.00018
313	12860	0.00321	0.0002
318	12390	0.00215	0.00013
318	12860	0.00245	0.00015
318	13280	0.0027	0.00017
318	13760	0.0029	0.00018
318	14280	0.00321	0.0002
323	13750	0.00215	0.00013
323	14260	0.00245	0.00015
323	14720	0.0027	0.00016
323	15250	0.0029	0.00018
323	15850	0.00321	0.00019
328	15050	0.00215	0.00013
328	15500	0.00245	0.00015
328	16150	0.0027	0.00016
328	16550	0.0029	0.00018
328	17270	0.00321	0.00019
333	16250	0.00215	0.00013
333	16800	0.00245	0.00015
333	17450	0.0027	0.00016
333	17800	0.0029	0.00018
333	18510	0.00321	0.00019

System: carbon dioxide + 2-(2-(2-((2-ethylhexoxy(methoxy)phosphoryl)oxy)propoxy)propoxy)propyl 2-ethylhexyl methyl phosphate; phases: Gas, Liquid
Property: Mole fraction of 2-(2-(2-((2-ethylhexoxy(methoxy)phosphoryl)oxy)propoxy)propoxy)propyl 2-ethylhexyl methyl phosphate (Gas); method: Density calibration data
Temperature, K	Pressure, kPa	Mole fraction of 2-(2-(2-((2-ethylhexoxy(methoxy)phosphoryl)oxy)propoxy)propoxy)propyl 2-ethylhexyl methyl phosphate	uncertainty
313	10120	0.00202	0.00013
313	10430	0.00235	0.00015
313	10710	0.00263	0.00016
313	11100	0.00292	0.00018
313	11610	0.00338	0.00021
318	11330	0.00202	0.00013
318	11790	0.00235	0.00015
318	12130	0.00263	0.00016
318	12530	0.00292	0.00018
318	13150	0.00338	0.00021
323	12630	0.00202	0.00013
323	13080	0.00235	0.00015
323	13430	0.00263	0.00016
323	13910	0.00292	0.00018
323	14550	0.00338	0.00021
328	13850	0.00202	0.00013
328	14280	0.00235	0.00015
328	14740	0.00263	0.00016
328	15210	0.00292	0.00018
328	15870	0.00338	0.00021
333	14960	0.00202	0.00013
333	15430	0.00235	0.00014
333	15920	0.00263	0.00016
333	16410	0.00292	0.00018
333	17110	0.00338	0.00021
