Measured thermophysical data. Chemical Equilibrium of the Liquid-Phase Dehydration of 1-Octanol to 1-(Octyloxy)octane
Source: J. Chem. Eng. Data, 2013, 10.1021/je301236k
Compound 1: dioctyl ether, C16H34O, InChI=1S/C16H34O/c1-3-5-7-9-11-13-15-17-16-14-12-10-8-6-4-2/h3-16H2,1-2H3
Compound 2: water, H2O, InChI=1S/H2O/h1H2
Compound 3: oct-1-ene, C8H16, InChI=1S/C8H16/c1-3-5-7-8-6-4-2/h3H,1,4-8H2,2H3, purity 97%
Compound 4: 2-octene, C8H16, InChI=1S/C8H16/c1-3-5-7-8-6-4-2/h3,5H,4,6-8H2,1-2H3
Compound 5: octan-1-ol, C8H18O, InChI=1S/C8H18O/c1-2-3-4-5-6-7-8-9/h9H,2-8H2,1H3, purity 99.5%

Reaction: -2 octan-1-ol + 1 dioctyl ether + 1 water
Property: Equilibrium constant in terms of mole fraction
94.2
84.9
84.9
90.8
85.9

Reaction: -2 octan-1-ol + 1 dioctyl ether + 1 water
Property: Thermodynamic equilibrium constant
285
244
225
219
195

Reaction: 1 oct-1-ene + -1 octan-1-ol + 1 water
Property: Equilibrium constant in terms of mole fraction
0.125
0.113
0.124
0.338
0.404

Reaction: 1 oct-1-ene + -1 octan-1-ol + 1 water
Property: Thermodynamic equilibrium constant
0.37
0.31
0.3
0.71
0.77

Reaction: -1 oct-1-ene + 1 2-octene
Property: Equilibrium constant in terms of mole fraction
28.4
27.4
24.7
23.3
20.6

Reaction: -1 oct-1-ene + 1 2-octene
Property: Thermodynamic equilibrium constant
29.8
28.8
25.9
24
21.1
