Measured thermophysical data. Chemical and Thermophysical Characterization of 1,3,5-Triisopropylcyclohexane
Source: J. Chem. Eng. Data, 2012, 10.1021/je3005479
Compound 1: 1,3,5-triisopropylcyclohexane, C15H30, InChI=1S/C15H30/c1-10(2)13-7-14(11(3)4)9-15(8-13)12(5)6/h10-15H,7-9H2,1-6H3, purity 99%

System: 1,3,5-triisopropylcyclohexane; phases: Liquid
Fixed: Pressure, kPa = 83.071
Property: Kinematic viscosity, m2/s (Liquid); method: Capillary tube (Ostwald; Ubbelohde) method
Temperature, K	Kinematic viscosity, m2/s	uncertainty
293.15	7.66e-06	1.26e-07
298.15	6.268e-06	1.08e-07
303.15	5.225e-06	8.4e-08
308.15	4.432e-06	6.8e-08
313.15	3.81e-06	5.6e-08
318.15	3.322e-06	4.9e-08
323.15	2.903e-06	3.7e-08
328.15	2.582e-06	3.1e-08
333.15	2.316e-06	2.7e-08
338.15	2.092e-06	2.3e-08
343.15	1.901e-06	2.1e-08
348.15	1.74e-06	1.9e-08
353.15	1.599e-06	1.7e-08
358.15	1.477e-06	1.5e-08
363.15	1.371e-06	1.4e-08
368.15	1.276e-06	1.3e-08
373.15	1.194e-06	1.4e-08

System: 1,3,5-triisopropylcyclohexane; phases: Liquid
Fixed: Pressure, kPa = 83.071
Property: Refractive index (Na D-line) (Liquid); method: Standard Abbe refractometry
Temperature, K	Refractive index (Na D-line)	uncertainty
293.15	1.4571	0.0009
298.15	1.4547	0.0007
303.15	1.4525	0.0011

System: 1,3,5-triisopropylcyclohexane; phases: Liquid
Fixed: Pressure, kPa = 83.071
Property: Speed of sound, m/s (Liquid); method: Pulse-echo method
Temperature, K	Speed of sound, m/s	uncertainty
278.15	1405.7	2.3
283.15	1385	2.3
288.15	1364.8	2.2
293.15	1344.8	2.2
298.15	1325	2.2
303.15	1305.5	2.2
308.15	1286.3	2.2
313.15	1267.3	2.2
318.15	1248.6	2.1
323.15	1230	2.1
328.15	1211.7	2.1
333.15	1193.6	2.1
338.15	1175.6	2.1
343.15	1158	2.1

System: 1,3,5-triisopropylcyclohexane; phases: Liquid
Fixed: Pressure, kPa = 87.071
Property: Mass density, kg/m3 (Liquid); method: Vibrating tube method
Temperature, K	Mass density, kg/m3	uncertainty
278.15	837.78	0.39
283.15	834.14	0.39
288.15	830.52	0.39
293.15	826.89	0.39
298.15	823.27	0.39
303.15	819.64	0.39
308.15	816.02	0.39
313.15	812.39	0.39
318.15	808.76	0.39
323.15	805.12	0.39
328.15	801.49	0.39
333.15	797.85	0.39
338.15	794.21	0.39
343.15	790.57	0.39
