Measured thermophysical data. Solubility of N2O in Density and Viscosity of Aqueous Solutions of 1,4-Butanediamine, 2-(Diethylamino)-ethanol, and Their Mixtures from (298.15 to 333.15) K
Source: J. Chem. Eng. Data, 2013, 10.1021/je301371p
Compound 1: water, H2O, InChI=1S/H2O/h1H2
Compound 2: nitrous oxide, N2O, InChI=1S/N2O/c1-2-3
Compound 3: 2-aminoethan-1-ol, C2H7NO, InChI=1S/C2H7NO/c3-1-2-4/h4H,1-3H2
Compound 4: 1,4-butanediamine, C4H12N2, InChI=1S/C4H12N2/c5-3-1-2-4-6/h1-6H2, purity 98%
Compound 5: (diethylamino)ethanol, C6H15NO, InChI=1S/C6H15NO/c1-3-7(4-2)5-6-8/h8H,3-6H2,1-2H3, purity 99%

System: water + nitrous oxide; phases: Liquid, Gas
Property: Mass fraction of nitrous oxide (Liquid); method: Gravimetric
Temperature, K	Pressure, kPa of nitrous oxide	Mass fraction of nitrous oxide	uncertainty
293.15	111	0.001338	5.4e-05
298.15	150.9	0.001677	6.8e-05
303.15	123.6	0.001219	4.9e-05
313.15	150.3	0.00118	4.8e-05
323.15	142.7	0.000952	3.8e-05
333.15	181.7	0.000829	3.3e-05

System: 2-aminoethan-1-ol + water + nitrous oxide; phases: Liquid, Gas
Fixed: Solvent: Mass fraction of 2-aminoethan-1-ol = 0.3
Property: Mass fraction of nitrous oxide (Liquid); method: Gravimetric
Pressure, kPa of nitrous oxide	Temperature, K	Mass fraction of nitrous oxide	uncertainty
141.7	298.15	0.001402	5.7e-05
155.5	313.15	0.001195	4.8e-05
142	333.15	0.000736	3e-05

System: 1,4-butanediamine + water; phases: Liquid
Fixed: Pressure, kPa = 101
Property: Mass density, kg/m3 (Liquid); method: Vibrating tube method
Temperature, K	Mole fraction of 1,4-butanediamine	Mass density, kg/m3	uncertainty
298.15	0	997.04	0.29
313.15	0	992.22	0.29
333.15	0	983.2	0.29
298.15	0.01952	992.346	0.294
313.15	0.01952	986.497	0.293
333.15	0.01952	976.433	0.292
298.15	0.04244	988.532	0.3
313.15	0.04244	981.237	0.299
333.15	0.04244	969.713	0.297
298.15	0.06965	985.772	0.307
313.15	0.06965	976.817	0.306
333.15	0.06965	963.518	0.304
298.15	0.10253	982.813	0.317
313.15	0.10253	972.197	0.316
333.15	0.10253	957.323	0.313
298.15	0.14336	978.544	0.33
313.15	0.14336	966.791	0.328
333.15	0.14336	950.667	0.325

System: 1,4-butanediamine + water; phases: Liquid
Fixed: Pressure, kPa = 101
Property: Viscosity, Pa*s (Liquid); method: Oscillating disk viscometry
Temperature, K	Mole fraction of 1,4-butanediamine	Viscosity, Pa*s	uncertainty
298.15	0	0.00089	0.00011
303.15	0	0.0008	0.0001
313.15	0	0.00065	8e-05
323.15	0	0.00055	7e-05
333.15	0	0.00048	6e-05
298.15	0.01952	0.00186	0.00022
303.15	0.01952	0.00123	0.00015
313.15	0.01952	0.00098	0.00012
323.15	0.01952	0.0008	0.0001
333.15	0.01952	0.00063	8e-05
298.15	0.04244	0.00264	0.00032
303.15	0.04244	0.00183	0.00022
313.15	0.04244	0.00139	0.00017
323.15	0.04244	0.0011	0.00013
333.15	0.04244	0.0009	0.00011
298.15	0.06965	0.0035	0.00042
303.15	0.06965	0.00251	0.0003
313.15	0.06965	0.00185	0.00022
323.15	0.06965	0.0014	0.00017
333.15	0.06965	0.00106	0.00013
298.15	0.10253	0.00553	0.00067
303.15	0.10253	0.00365	0.00044
313.15	0.10253	0.00257	0.00031
323.15	0.10253	0.00186	0.00022
333.15	0.10253	0.00137	0.00017
298.15	0.14336	0.00792	0.00096
303.15	0.14336	0.00487	0.00059
313.15	0.14336	0.00329	0.0004
323.15	0.14336	0.00229	0.00028
333.15	0.14336	0.00162	0.0002

System: (diethylamino)ethanol + water; phases: Liquid
Fixed: Pressure, kPa = 101
Property: Mass density, kg/m3 (Liquid); method: Vibrating tube method
Temperature, K	Mole fraction of (diethylamino)ethanol	Mass density, kg/m3	uncertainty
298.15	0	997.04	0.29
313.15	0	992.22	0.29
333.15	0	983.2	0.29
298.15	0.02012	993.744	0.289
313.15	0.02012	987.552	0.288
333.15	0.02012	976.86	0.287
298.15	0.04547	990.151	0.289
313.15	0.04547	981.577	0.288
333.15	0.04547	968.366	0.287
298.15	0.07875	983.322	0.289
313.15	0.07875	972.648	0.288
333.15	0.07875	957.191	0.287
298.15	0.1252	971.858	0.289
313.15	0.1252	959.656	0.287
333.15	0.1252	942.334	0.285
298.15	0.19329	961.569	0.288
313.15	0.19329	948.632	0.287
333.15	0.19329	930.379	0.286

System: (diethylamino)ethanol + water; phases: Liquid
Fixed: Pressure, kPa = 101
Property: Viscosity, Pa*s (Liquid); method: Oscillating disk viscometry
Temperature, K	Mole fraction of (diethylamino)ethanol	Viscosity, Pa*s	uncertainty
298.15	0	0.00089	0.00011
303.15	0	0.0008	0.0001
313.15	0	0.00065	8e-05
323.15	0	0.00055	7e-05
333.15	0	0.00048	6e-05
298.15	0.02012	0.00216	0.00026
303.15	0.02012	0.0014	0.00017
313.15	0.02012	0.00112	0.00013
323.15	0.02012	0.00094	0.00011
333.15	0.02012	0.00075	9e-05
298.15	0.04547	0.00362	0.00044
303.15	0.04547	0.00234	0.00028
313.15	0.04547	0.00166	0.0002
323.15	0.04547	0.00132	0.00016
333.15	0.04547	0.00103	0.00012
298.15	0.07875	0.00557	0.00067
303.15	0.07875	0.00361	0.00044
313.15	0.07875	0.00242	0.00029
323.15	0.07875	0.00172	0.00021
333.15	0.07875	0.00124	0.00015
298.15	0.1252	0.008	0.00097
303.15	0.1252	0.00575	0.00069
313.15	0.1252	0.00376	0.00045
323.15	0.1252	0.0026	0.00031
333.15	0.1252	0.00187	0.00023
298.15	0.19329	0.01161	0.0014
303.15	0.19329	0.00805	0.00097
313.15	0.19329	0.00527	0.00063
323.15	0.19329	0.00369	0.00044
333.15	0.19329	0.00253	0.0003

System: (diethylamino)ethanol + 1,4-butanediamine + water; phases: Liquid
Fixed: Pressure, kPa = 101
Property: Mass density, kg/m3 (Liquid); method: Vibrating tube method
Temperature, K	Mole fraction of 1,4-butanediamine	Mole fraction of (diethylamino)ethanol	Mass density, kg/m3	uncertainty
298.15	0.03629	0.14516	962.903	0.298
313.15	0.03629	0.14516	950.135	0.296
333.15	0.03629	0.14516	932.259	0.295
298.15	0.08749	0.17499	948.513	0.312
313.15	0.08749	0.17499	935.423	0.311
333.15	0.08749	0.17499	917.224	0.309
298.15	0.16703	0.2227	930.513	0.858
313.15	0.16703	0.2227	917.399	0.751
333.15	0.16703	0.2227	899.304	0.773
298.15	0.06799	0.10198	967.362	0.307
313.15	0.06799	0.10198	954.889	0.306
333.15	0.06799	0.10198	937.515	0.304
298.15	0.05618	0.05618	979.531	0.304
313.15	0.05618	0.05618	968.135	0.302
333.15	0.05618	0.05618	952.165	0.301
298.15	0.08712	0.09376	973.321	0.313
313.15	0.08712	0.09376	961.226	0.311
333.15	0.08712	0.09376	944.402	0.309

System: (diethylamino)ethanol + 1,4-butanediamine + water; phases: Liquid
Fixed: Pressure, kPa = 101
Property: Viscosity, Pa*s (Liquid); method: Oscillating disk viscometry
Temperature, K	Mole fraction of 1,4-butanediamine	Mole fraction of (diethylamino)ethanol	Viscosity, Pa*s	uncertainty
298.15	0.03629	0.14516	0.0135	0.00163
303.15	0.03629	0.14516	0.00842	0.00102
313.15	0.03629	0.14516	0.00542	0.00065
323.15	0.03629	0.14516	0.00367	0.00044
333.15	0.03629	0.14516	0.00247	0.0003
298.15	0.08749	0.17499	0.01648	0.002
303.15	0.08749	0.17499	0.00986	0.00119
313.15	0.08749	0.17499	0.00613	0.00074
323.15	0.08749	0.17499	0.00399	0.00048
333.15	0.08749	0.17499	0.00261	0.00031
298.15	0.16703	0.2227	0.01528	0.00212
303.15	0.16703	0.2227	0.0091	0.00118
313.15	0.16703	0.2227	0.006	0.00124
323.15	0.16703	0.2227	0.00393	0.00154
333.15	0.16703	0.2227	0.00254	0.00169
298.15	0.04799	0.10198	0.01197	0.00145
303.15	0.04799	0.10198	0.00797	0.00096
313.15	0.04799	0.10198	0.00518	0.00062
323.15	0.04799	0.10198	0.00353	0.00042
333.15	0.04799	0.10198	0.00243	0.00029
298.15	0.05618	0.05618	0.00912	0.00111
303.15	0.05618	0.05618	0.00526	0.00064
313.15	0.05618	0.05618	0.0037	0.00045
323.15	0.05618	0.05618	0.00264	0.00032
333.15	0.05618	0.05618	0.00189	0.00023
298.15	0.08712	0.09376	0.01005	0.00121
303.15	0.08712	0.09376	0.00676	0.00082
313.15	0.08712	0.09376	0.00454	0.00055
323.15	0.08712	0.09376	0.00321	0.00039
333.15	0.08712	0.09376	0.0023	0.00028

System: 1,4-butanediamine + water + nitrous oxide; phases: Liquid, Gas
Property: Mass fraction of nitrous oxide (Liquid); method: Phase equilibration
Temperature, K	Solvent: Mole fraction of 1,4-butanediamine	Pressure, kPa of nitrous oxide	Mass fraction of nitrous oxide	uncertainty
298.15	0	150.9	0.001677	6.8e-05
313.15	0	150.3	0.00118	4.8e-05
333.15	0	181.7	0.000829	3.3e-05
298.15	0.01952	129.8	0.001468	5.9e-05
313.15	0.01952	152.98	0.001111	4.5e-05
333.15	0.01952	146.43	0.000882	3.6e-05
298.15	0.04244	133.5	0.001358	5.5e-05
313.15	0.04244	145.5	0.001009	4.1e-05
333.15	0.04244	146.5	0.000868	3.5e-05
298.15	0.06965	143.2	0.001143	4.6e-05
313.15	0.06965	166.02	0.001001	4e-05
333.15	0.06965	145	0.000863	3.5e-05
298.15	0.10253	143.2	0.00103	4.2e-05
313.15	0.10253	166.02	0.001053	4.3e-05
333.15	0.10253	145	0.000791	3.2e-05
298.15	0.14336	155.4	0.001039	4.2e-05
313.15	0.14336	138.81	0.000831	3.4e-05
333.15	0.14336	158	0.000827	3.3e-05

System: (diethylamino)ethanol + water + nitrous oxide; phases: Liquid, Gas
Property: Mass fraction of nitrous oxide (Liquid); method: Phase equilibration
Temperature, K	Solvent: Mole fraction of (diethylamino)ethanol	Pressure, kPa of nitrous oxide	Mass fraction of nitrous oxide	uncertainty
298.15	0	0.1039	0.001039	4.2e-05
313.15	0	0.0831	0.000831	3.4e-05
333.15	0	0.0827	0.000827	3.3e-05
298.15	0.02012	133.1	0.001281	5.2e-05
313.15	0.02012	156.6	0.00113	4.6e-05
333.15	0.02012	170.19	0.001104	4.5e-05
298.15	0.04547	158.1	0.001566	6.3e-05
313.15	0.04547	154.39	0.001196	4.8e-05
333.15	0.04547	142.15	0.001025	4.1e-05
298.15	0.07875	131.7	0.001385	5.6e-05
313.15	0.07875	140.97	0.001273	5.1e-05
333.15	0.07875	141.63	0.001141	4.6e-05
298.15	0.1252	128.8	0.001638	6.6e-05
313.15	0.1252	130.94	0.001513	6.1e-05
333.15	0.1252	139.49	0.001501	6.1e-05
298.15	0.19329	125.4	0.001962	7.9e-05
313.15	0.19329	124.68	0.001797	7.3e-05
333.15	0.19329	114.77	0.001457	5.9e-05
