Measured thermophysical data. Densities of SrCl2(aq), Na2SO4(aq), NaHCO3(aq), and Two Synthetic Reservoir Brines at Temperatures between (298 and 473) K, Pressures up to 68.5 MPa, and Molalities up to 3 mol*kg-1
Source: J. Chem. Eng. Data, 2013, 10.1021/je301132p
Compound 1: sodium sulfate, Na2O4S, InChI=1S/2Na.H2O4S/c;;1-5(2,3)4/h;;(H2,1,2,3,4)/q2*+1;/p-2, purity 99%
Compound 2: strontium chloride, Cl2Sr, InChI=1S/2ClH.Sr/h2*1H;/q;;+2/p-2, purity 99%
Compound 3: sodium bicarbonate, CHNaO3, InChI=1S/CH2O3.Na/c2-1(3)4;/h(H2,2,3,4);/q;+1/p-1, purity 99.5%
Compound 4: water, H2O, InChI=1S/H2O/h1H2, purity 99.8%

System: water + sodium sulfate; phases: Liquid
Property: Mass density, kg/m3 (Liquid); method: Vibrating tube method
Molality, mol/kg of sodium sulfate	Temperature, K	Pressure, kPa	Mass density, kg/m3	uncertainty
0.783	298.11	1100	1089.58	0.44
0.783	298.11	10100	1092.97	0.44
0.783	298.11	20100	1096.83	0.46
0.783	298.11	30100	1100.47	0.47
0.783	298.11	40100	1104.07	0.49
0.783	298.11	50100	1107.68	0.51
0.783	298.11	60100	1111.07	0.54
0.783	298.11	68600	1113.99	0.57
0.783	323.13	1100	1077.81	0.43
0.783	323.13	10100	1081.15	0.44
0.783	323.13	20100	1084.87	0.45
0.783	323.13	30100	1088.46	0.46
0.783	323.13	40100	1092.02	0.48
0.783	323.13	50100	1095.52	0.5
0.783	323.13	60100	1098.98	0.52
0.783	323.13	68600	1101.8	0.54
0.783	348.12	1100	1063.59	0.43
0.783	348.12	10100	1067.05	0.43
0.783	348.12	20100	1070.84	0.44
0.783	348.12	30100	1074.53	0.45
0.783	348.12	40100	1078.24	0.46
0.783	348.12	50100	1081.79	0.48
0.783	348.12	60100	1085.27	0.5
0.783	348.12	68600	1088.2	0.52
0.783	373.12	1100	1047	0.42
0.783	373.12	10100	1050.62	0.42
0.783	373.12	20100	1054.57	0.43
0.783	373.12	30100	1058.52	0.44
0.783	373.12	40100	1062.4	0.45
0.783	373.12	50100	1066.07	0.46
0.783	373.12	60100	1069.75	0.47
0.783	373.12	68600	1072.82	0.49
0.783	398.08	1100	1028.03	0.41
0.783	398.08	10100	1032.04	0.42
0.783	398.08	20100	1036.41	0.42
0.783	398.08	30100	1040.58	0.43
0.783	398.08	40100	1044.61	0.43
0.783	398.08	50100	1048.55	0.44
0.783	398.08	60100	1052.44	0.45
0.783	398.08	68600	1055.65	0.46
0.783	423.07	1100	1006.98	0.41
0.783	423.07	10100	1011.36	0.41
0.783	423.07	20100	1016.13	0.41
0.783	423.07	30100	1020.77	0.42
0.783	423.07	40100	1025.11	0.42
0.783	423.07	50100	1029.51	0.42
0.783	423.07	60100	1033.66	0.43
0.783	423.07	68600	1037.1	0.44
0.783	448.03	1100	983.81	0.4
0.783	448.03	10100	988.74	0.4
0.783	448.03	20100	994.07	0.41
0.783	448.03	30100	998.93	0.41
0.783	448.03	40100	1004.1	0.41
0.783	448.03	50100	1008.75	0.41
0.783	448.03	60100	1013.33	0.41
0.783	448.03	68600	1017.15	0.42
0.783	473.02	10100	963.68	0.4
0.783	473.02	20100	969.72	0.4
0.783	473.02	30100	975.48	0.41
0.783	473.02	40100	981.03	0.41
0.783	473.02	50100	986.37	0.41
0.783	473.02	60100	991.46	0.41
0.783	473.02	68600	995.65	0.41
1.502	298.11	1100	1164.61	0.55
1.502	298.11	10100	1167.61	0.57
1.502	298.11	20100	1170.98	0.59
1.502	298.11	30100	1174.24	0.62
1.502	298.11	40100	1177.46	0.66
1.502	298.11	50100	1180.69	0.7
1.502	298.11	60100	1183.64	0.75
1.502	298.11	68600	1186.24	0.79
1.502	323.13	1100	1151.3	0.54
1.502	323.13	10100	1154.41	0.56
1.502	323.13	20100	1157.75	0.58
1.502	323.13	30100	1161	0.61
1.502	323.13	40100	1164.24	0.64
1.502	323.13	50100	1167.41	0.68
1.502	323.13	60100	1170.49	0.72
1.502	323.13	68600	1173.08	0.76
1.502	348.12	1100	1136.41	0.54
1.502	348.12	10100	1139.53	0.55
1.502	348.12	20100	1143.04	0.57
1.502	348.12	30100	1146.45	0.59
1.502	348.12	40100	1149.78	0.62
1.502	348.12	50100	1153.06	0.65
1.502	348.12	60100	1156.2	0.69
1.502	348.12	68600	1158.87	0.73
1.502	373.12	1100	1119.57	0.53
1.502	373.12	10100	1122.86	0.54
1.502	373.12	20100	1126.48	0.56
1.502	373.12	30100	1130.05	0.58
1.502	373.12	40100	1133.55	0.6
1.502	373.12	50100	1136.94	0.63
1.502	373.12	60100	1140.35	0.66
1.502	373.12	68600	1143.15	0.7
1.502	398.08	1100	1100.73	0.52
1.502	398.08	10100	1104.32	0.53
1.502	398.08	20100	1108.32	0.54
1.502	398.08	30100	1112.1	0.56
1.502	398.08	40100	1115.8	0.58
1.502	398.08	50100	1119.47	0.6
1.502	398.08	60100	1123.02	0.63
1.502	398.08	68600	1125.97	0.66
1.502	423.07	1100	1080.12	0.51
1.502	423.07	10100	1084.06	0.52
1.502	423.07	20100	1088.31	0.53
1.502	423.07	30100	1092.62	0.54
1.502	423.07	40100	1096.64	0.56
1.502	423.07	50100	1100.57	0.58
1.502	423.07	60100	1104.44	0.6
1.502	423.07	68600	1107.66	0.63
1.502	448.03	1100	1057.71	0.5
1.502	448.03	10100	1062.06	0.51
1.502	448.03	20100	1067	0.52
1.502	448.03	30100	1071.61	0.53
1.502	448.03	40100	1076.11	0.54
1.502	448.03	50100	1080.33	0.55
1.502	448.03	60100	1084.59	0.57
1.502	448.03	68600	1088.14	0.59
1.502	473.02	10100	1038.23	0.5
1.502	473.02	20100	1043.59	0.5
1.502	473.02	30100	1048.78	0.51
1.502	473.02	40100	1053.91	0.52
1.502	473.02	50100	1058.64	0.53
1.502	473.02	60100	1063.34	0.55
1.502	473.02	68600	1067.18	0.56

System: water + strontium chloride; phases: Liquid
Property: Mass density, kg/m3 (Liquid); method: Vibrating tube method
Molality, mol/kg of strontium chloride	Temperature, K	Pressure, kPa	Mass density, kg/m3	uncertainty
1.022	298.11	1100	1130.15	0.48
1.022	298.11	10100	1133.6	0.5
1.022	298.11	20100	1137.52	0.52
1.022	298.11	30100	1141.28	0.54
1.022	298.11	40100	1145.04	0.57
1.022	298.11	50100	1148.76	0.61
1.022	298.11	60100	1152.26	0.65
1.022	298.11	68600	1155.3	0.69
1.022	323.13	1100	1118.47	0.48
1.022	323.13	10100	1121.92	0.49
1.022	323.13	20100	1125.75	0.51
1.022	323.13	30100	1129.44	0.53
1.022	323.13	40100	1133.12	0.56
1.022	323.13	50100	1136.68	0.59
1.022	323.13	60100	1140.25	0.63
1.022	323.13	68600	1143.18	0.66
1.022	348.12	1100	1104.6	0.47
1.022	348.12	10100	1108.06	0.48
1.022	348.12	20100	1111.92	0.5
1.022	348.12	30100	1115.71	0.52
1.022	348.12	40100	1119.42	0.54
1.022	348.12	50100	1123.04	0.57
1.022	348.12	60100	1126.67	0.6
1.022	348.12	68600	1129.67	0.63
1.022	373.12	1100	1088.34	0.47
1.022	373.12	10100	1092.02	0.48
1.022	373.12	20100	1095.98	0.49
1.022	373.12	30100	1100.03	0.5
1.022	373.12	40100	1103.81	0.52
1.022	373.12	50100	1107.65	0.55
1.022	373.12	60100	1111.38	0.57
1.022	373.12	68600	1114.46	0.6
1.022	398.08	1100	1069.78	0.46
1.022	398.08	10100	1073.81	0.47
1.022	398.08	20100	1078.08	0.48
1.022	398.08	30100	1082.31	0.49
1.022	398.08	40100	1086.33	0.5
1.022	398.08	50100	1090.29	0.52
1.022	398.08	60100	1094.27	0.55
1.022	398.08	68600	1097.55	0.57
1.022	423.07	1100	1049.35	0.45
1.022	423.07	10100	1053.57	0.46
1.022	423.07	20100	1058.3	0.47
1.022	423.07	30100	1062.95	0.47
1.022	423.07	40100	1067.24	0.49
1.022	423.07	50100	1071.7	0.5
1.022	423.07	60100	1075.85	0.52
1.022	423.07	68600	1079.3	0.54
1.022	448.03	1100	1026.97	0.45
1.022	448.03	10100	1031.7	0.45
1.022	448.03	20100	1037.05	0.45
1.022	448.03	30100	1042	0.46
1.022	448.03	40100	1046.83	0.47
1.022	448.03	50100	1051.49	0.48
1.022	448.03	60100	1056.12	0.49
1.022	448.03	68600	1059.85	0.5
1.022	473.02	10100	1007.66	0.44
1.022	473.02	20100	1013.5	0.44
1.022	473.02	30100	1019.02	0.45
1.022	473.02	40100	1024.58	0.45
1.022	473.02	50100	1029.72	0.46
1.022	473.02	60100	1034.76	0.47
1.022	473.02	68600	1038.86	0.48
2.024	298.11	1100	1247.6	0.67
2.024	298.11	10100	1250.68	0.69
2.024	298.11	20100	1254.27	0.74
2.024	298.11	30100	1257.65	0.79
2.024	298.11	40100	1260.99	0.85
2.024	298.11	50100	1264.44	0.92
2.024	298.11	60100	1267.55	1
2.024	298.11	68600	1270.33	1.07
2.024	323.13	1100	1234.1	0.66
2.024	323.13	10100	1237.28	0.69
2.024	323.13	20100	1240.69	0.72
2.024	323.13	30100	1244.1	0.77
2.024	323.13	40100	1247.56	0.83
2.024	323.13	50100	1250.9	0.9
2.024	323.13	60100	1254.09	0.97
2.024	323.13	68600	1256.76	1.03
2.024	348.12	1100	1219.34	0.65
2.024	348.12	10100	1222.48	0.67
2.024	348.12	20100	1226.06	0.71
2.024	348.12	30100	1229.57	0.76
2.024	348.12	40100	1233.02	0.81
2.024	348.12	50100	1236.41	0.87
2.024	348.12	60100	1239.66	0.93
2.024	348.12	68600	1242.52	1
2.024	373.12	1100	1202.92	0.64
2.024	373.12	10100	1206.28	0.66
2.024	373.12	20100	1209.96	0.7
2.024	373.12	30100	1213.53	0.74
2.024	373.12	40100	1217.2	0.78
2.024	373.12	50100	1220.6	0.84
2.024	373.12	60100	1224.07	0.9
2.024	373.12	68600	1226.94	0.96
2.024	398.08	1100	1184.72	0.63
2.024	398.08	10100	1188.28	0.65
2.024	398.08	20100	1192.23	0.68
2.024	398.08	30100	1196.08	0.72
2.024	398.08	40100	1199.73	0.76
2.024	398.08	50100	1203.4	0.81
2.024	398.08	60100	1207.02	0.87
2.024	398.08	68600	1210.03	0.92
2.024	423.07	1100	1165.03	0.62
2.024	423.07	10100	1168.83	0.64
2.024	423.07	20100	1173.04	0.66
2.024	423.07	30100	1177.32	0.7
2.024	423.07	40100	1181.23	0.73
2.024	423.07	50100	1185.23	0.78
2.024	423.07	60100	1189.05	0.83
2.024	423.07	68600	1192.19	0.88
2.024	448.03	1100	1143.84	0.61
2.024	448.03	10100	1147.95	0.63
2.024	448.03	20100	1152.74	0.65
2.024	448.03	30100	1157.21	0.68
2.024	448.03	40100	1161.52	0.71
2.024	448.03	50100	1165.8	0.75
2.024	448.03	60100	1169.91	0.79
2.024	448.03	68600	1173.33	0.83
2.024	473.02	10100	1125.38	0.62
2.024	473.02	20100	1130.5	0.63
2.024	473.02	30100	1135.33	0.66
2.024	473.02	40100	1140.28	0.69
2.024	473.02	50100	1144.86	0.72
2.024	473.02	60100	1149.32	0.76
2.024	473.02	68600	1153.07	0.79
3.031	298.11	1100	1354.92	0.87
3.031	298.11	10100	1357.74	0.91
3.031	298.11	20100	1360.96	0.98
3.031	298.11	30100	1364.07	1.05
3.031	298.11	40100	1367.19	1.14
3.031	298.11	50100	1370.34	1.24
3.031	298.11	60100	1373.16	1.35
3.031	298.11	68600	1375.7	1.45
3.031	323.13	1100	1340.16	0.86
3.031	323.13	10100	1343.03	0.9
3.031	323.13	20100	1346.27	0.96
3.031	323.13	30100	1349.35	1.03
3.031	323.13	40100	1352.55	1.12
3.031	323.13	50100	1355.63	1.21
3.031	323.13	60100	1358.71	1.31
3.031	323.13	68600	1361.18	1.41
3.031	348.12	1100	1324.81	0.85
3.031	348.12	10100	1327.78	0.89
3.031	348.12	20100	1331.14	0.94
3.031	348.12	30100	1334.39	1.01
3.031	348.12	40100	1337.62	1.09
3.031	348.12	50100	1340.81	1.18
3.031	348.12	60100	1343.89	1.28
3.031	348.12	68600	1346.54	1.37
3.031	373.12	1100	1308.43	0.84
3.031	373.12	10100	1311.58	0.87
3.031	373.12	20100	1315.04	0.93
3.031	373.12	30100	1318.4	0.99
3.031	373.12	40100	1321.75	1.07
3.031	373.12	50100	1324.88	1.15
3.031	373.12	60100	1328.14	1.24
3.031	373.12	68600	1330.91	1.32
3.031	398.08	1100	1290.36	0.82
3.031	398.08	10100	1293.65	0.86
3.031	398.08	20100	1297.24	0.91
3.031	398.08	30100	1300.87	0.97
3.031	398.08	40100	1304.29	1.04
3.031	398.08	50100	1307.65	1.12
3.031	398.08	60100	1311.1	1.2
3.031	398.08	68600	1313.86	1.28
3.031	423.07	1100	1271.02	0.81
3.031	423.07	10100	1274.46	0.84
3.031	423.07	20100	1278.29	0.89
3.031	423.07	30100	1282.22	0.94
3.031	423.07	40100	1285.9	1.01
3.031	423.07	50100	1289.64	1.08
3.031	423.07	60100	1293.25	1.16
3.031	423.07	68600	1296.08	1.24
3.031	448.03	1100	1250.51	0.8
3.031	448.03	10100	1254.24	0.83
3.031	448.03	20100	1258.62	0.87
3.031	448.03	30100	1262.72	0.92
3.031	448.03	40100	1266.77	0.98
3.031	448.03	50100	1270.62	1.05
3.031	448.03	60100	1274.47	1.12
3.031	448.03	68600	1277.59	1.19
3.031	473.02	10100	1232.68	0.81
3.031	473.02	20100	1237.28	0.85
3.031	473.02	30100	1241.64	0.9
3.031	473.02	40100	1246.19	0.95
3.031	473.02	50100	1250.44	1.01
3.031	473.02	60100	1254.53	1.08
3.031	473.02	68600	1257.93	1.15

System: sodium bicarbonate + water; phases: Liquid
Property: Mass density, kg/m3 (Liquid); method: Vibrating tube method
Molality, mol/kg of sodium bicarbonate	Temperature, K	Pressure, kPa	Mass density, kg/m3	uncertainty
0.507	298.11	1100	1026.64	0.37
0.507	298.11	10100	1030.34	0.37
0.507	298.11	20100	1034.56	0.38
0.507	298.11	30100	1038.58	0.38
0.507	298.11	40100	1042.55	0.39
0.507	298.11	50100	1046.47	0.4
0.507	298.11	60100	1050.19	0.41
0.507	298.11	68600	1053.46	0.42
0.507	323.13	1100	1016.27	0.37
0.507	323.13	10100	1019.92	0.37
0.507	323.13	20100	1023.96	0.37
0.507	323.13	30100	1027.87	0.38
0.507	323.13	40100	1031.74	0.38
0.507	323.13	50100	1035.56	0.39
0.507	323.13	60100	1039.28	0.4
0.507	323.13	68600	1042.41	0.4
0.507	348.12	1100	1002.67	0.36
0.507	348.12	10100	1006.34	0.36
0.507	348.12	20100	1010.5	0.37
0.507	348.12	30100	1014.5	0.37
0.507	348.12	40100	1018.42	0.37
0.507	348.12	50100	1022.29	0.38
0.507	348.12	60100	1026.03	0.38
0.507	348.12	68600	1029.22	0.39
0.507	373.12	1100	986.45	0.36
0.507	373.12	10100	990.43	0.36
0.507	373.12	20100	994.75	0.36
0.507	373.12	30100	998.96	0.36
0.507	373.12	40100	1003.05	0.36
0.507	373.12	50100	1007.05	0.37
0.507	373.12	60100	1010.74	0.37
0.507	373.12	68600	1014.16	0.37
0.507	398.08	1100	967.23	0.36
0.507	398.08	10100	971.5	0.36
0.507	398.08	20100	976.19	0.36
0.507	398.08	30100	980.67	0.36
0.507	398.08	40100	985.06	0.36
0.507	398.08	50100	989.37	0.36
0.507	398.08	60100	993.56	0.36
0.507	398.08	68600	996.98	0.36
0.507	423.07	1100	945.6	0.35
0.507	423.07	10100	950.33	0.36
0.507	423.07	20100	955.52	0.36
0.507	423.07	30100	960.51	0.36
0.507	423.07	40100	965.22	0.37
0.507	423.07	50100	969.93	0.37
0.507	423.07	60100	974.48	0.37
0.507	423.07	68600	978.13	0.37
0.507	448.03	1100	921.6	0.35
0.507	448.03	10100	926.98	0.36
0.507	448.03	20100	932.57	0.36
0.507	448.03	30100	938.23	0.37
0.507	448.03	40100	943.62	0.38
0.507	448.03	50100	948.68	0.38
0.507	448.03	60100	953.67	0.38
0.507	448.03	68600	957.69	0.39
0.507	473.02	10100	900.8	0.36
0.507	473.02	20100	907.44	0.37
0.507	473.02	30100	913.71	0.38
0.507	473.02	40100	919.81	0.39
0.507	473.02	50100	925.55	0.4
0.507	473.02	60100	931	0.41
0.507	473.02	68600	935.54	0.41
1	298.11	1100	1053.32	0.43
1	298.11	10100	1056.9	0.44
1	298.11	20100	1060.94	0.44
1	298.11	30100	1064.78	0.45
1	298.11	40100	1068.62	0.46
1	298.11	50100	1072.42	0.48
1	298.11	60100	1075.95	0.49
1	298.11	68600	1079.05	0.51
1	323.13	1100	1042.1	0.43
1	323.13	10100	1045.63	0.43
1	323.13	20100	1049.49	0.44
1	323.13	30100	1053.27	0.44
1	323.13	40100	1057.11	0.45
1	323.13	50100	1060.81	0.46
1	323.13	60100	1064.4	0.48
1	323.13	68600	1067.35	0.49
1	348.12	1100	1028.17	0.42
1	348.12	10100	1031.76	0.42
1	348.12	20100	1035.74	0.43
1	348.12	30100	1039.62	0.43
1	348.12	40100	1043.26	0.44
1	348.12	50100	1047.06	0.45
1	348.12	60100	1050.67	0.46
1	348.12	68600	1053.84	0.47
1	373.12	1100	1011.61	0.42
1	373.12	10100	1015.42	0.42
1	373.12	20100	1019.51	0.42
1	373.12	30100	1023.49	0.42
1	373.12	40100	1027.56	0.43
1	373.12	50100	1031.43	0.43
1	373.12	60100	1035.29	0.44
1	373.12	68600	1038.44	0.45
1	398.08	1100	992.49	0.41
1	398.08	10100	996.59	0.41
1	398.08	20100	1001.1	0.41
1	398.08	30100	1005.36	0.42
1	398.08	40100	1009.57	0.42
1	398.08	50100	1013.71	0.42
1	398.08	60100	1017.88	0.43
1	398.08	68600	1021.02	0.43
1	423.07	1100	971.16	0.41
1	423.07	10100	975.62	0.41
1	423.07	20100	980.58	0.41
1	423.07	30100	985.4	0.41
1	423.07	40100	989.89	0.41
1	423.07	50100	994.52	0.41
1	423.07	60100	998.85	0.41
1	423.07	68600	1002.43	0.41
1	448.03	1100	947.75	0.4
1	448.03	10100	952.76	0.4
1	448.03	20100	958.38	0.41
1	448.03	30100	963.67	0.41
1	448.03	40100	968.83	0.41
1	448.03	50100	973.77	0.41
1	448.03	60100	978.58	0.42
1	448.03	68600	982.48	0.42
1	473.02	10100	927.94	0.4
1	473.02	20100	934.21	0.41
1	473.02	30100	940.3	0.42
1	473.02	40100	946.08	0.42
1	473.02	50100	951.65	0.42
1	473.02	60100	956.83	0.43
1	473.02	68600	961.25	0.43
