Measured thermophysical data. Apparent Molar Volumes and Expansivities of Ionic Liquids [Cnmim]Br (n = 4, 8, 10, 12) in Dimethyl Sulfoxide
Source: J. Chem. Eng. Data, 2012, 10.1021/je300017m
Compound 1: dimethyl sulfoxide, C2H6OS, InChI=1S/C2H6OS/c1-4(2)3/h1-2H3, purity 99.5%
Compound 2: 1-butyl-3-methylimidazolium bromide, C8H15BrN2, InChI=1S/C8H15N2.BrH/c1-3-4-5-10-7-6-9(2)8-10;/h6-8H,3-5H2,1-2H3;1H/q+1;/p-1, purity 98%
Compound 3: 1-methyl-3-octylimidazolium bromide, C12H23BrN2, InChI=1S/C12H23N2.BrH/c1-3-4-5-6-7-8-9-14-11-10-13(2)12-14;/h10-12H,3-9H2,1-2H3;1H/q+1;/p-1, purity 98%
Compound 4: 1-decyl-3-methylimidazolium bromide, C14H27BrN2, InChI=1S/C14H27N2.BrH/c1-3-4-5-6-7-8-9-10-11-16-13-12-15(2)14-16;/h12-14H,3-11H2,1-2H3;1H/q+1;/p-1, purity 98%
Compound 5: 1-dodecyl-3-methylimidazolium bromide, C16H31BrN2, InChI=1S/C16H31N2.BrH/c1-3-4-5-6-7-8-9-10-11-12-13-18-15-14-17(2)16-18;/h14-16H,3-13H2,1-2H3;1H/q+1;/p-1, purity 98%

System: dimethyl sulfoxide; phases: Liquid
Fixed: Pressure, kPa = 101
Property: Mass density, kg/m3 (Liquid); method: VIBTUB:UFactor:2
Temperature, K	Mass density, kg/m3	uncertainty
293.15	1100.22	0.28
303.15	1090.36	0.28
303.15	1090.34	0.28
303.15	1090.37	0.28
303.15	1090.38	0.27
308.15	1085.41	0.28
308.15	1085.42	0.27
313.15	1080.45	0.27
313.15	1080.43	0.27
313.15	1080.47	0.27

System: dimethyl sulfoxide + 1-butyl-3-methylimidazolium bromide; phases: Liquid
Fixed: Pressure, kPa = 101
Property: Mass density, kg/m3 (Liquid); method: VIBTUB:UFactor:2
Temperature, K	Molality, mol/kg of 1-butyl-3-methylimidazolium bromide	Mass density, kg/m3	uncertainty
293.15	0	1100.22	0.28
293.15	0.00417	1100.42	0.29
293.15	0.00643	1100.53	0.29
293.15	0.00951	1100.68	0.29
293.15	0.01236	1100.82	0.29
293.15	0.015	1100.95	0.29
293.15	0.01784	1101.09	0.29
293.15	0.02066	1101.23	0.29
293.15	0.02307	1101.35	0.29
293.15	0.02628	1101.51	0.29
293.15	0.02848	1101.62	0.29
303.15	0	1090.36	0.28
303.15	0.00497	1090.6	0.28
303.15	0.00823	1090.76	0.28
303.15	0.01126	1090.91	0.28
303.15	0.01409	1091.05	0.28
303.15	0.01689	1091.19	0.28
303.15	0.02008	1091.35	0.28
303.15	0.02326	1091.51	0.28
303.15	0.02642	1091.67	0.28
303.15	0.02917	1091.82	0.28
303.15	0.03153	1091.94	0.28
308.15	0	1085.41	0.28
308.15	0.00514	1085.66	0.28
308.15	0.00817	1085.81	0.28
308.15	0.01139	1085.97	0.28
308.15	0.01418	1086.11	0.28
308.15	0.01696	1086.25	0.28
308.15	0.01992	1086.41	0.28
308.15	0.02347	1086.59	0.28
308.15	0.0264	1086.74	0.28
308.15	0.02914	1086.88	0.28
308.15	0.03167	1087.01	0.28
313.15	0	1080.45	0.27
313.15	0.00489	1080.7	0.27
313.15	0.00769	1080.83	0.27
313.15	0.01069	1080.98	0.27
313.15	0.01325	1081.11	0.28
313.15	0.01542	1081.23	0.28
313.15	0.01934	1081.43	0.28
313.15	0.02264	1081.6	0.28
313.15	0.02575	1081.76	0.28
313.15	0.02845	1081.9	0.28
313.15	0.03154	1082.06	0.28

System: dimethyl sulfoxide + 1-methyl-3-octylimidazolium bromide; phases: Liquid
Fixed: Pressure, kPa = 101
Property: Mass density, kg/m3 (Liquid); method: VIBTUB:UFactor:2
Temperature, K	Molality, mol/kg of 1-methyl-3-octylimidazolium bromide	Mass density, kg/m3	uncertainty
293.15	0	1100.22	0.28
293.15	0.00222	1100.28	0.28
293.15	0.00411	1100.33	0.28
293.15	0.00639	1100.39	0.28
293.15	0.00868	1100.45	0.28
293.15	0.01098	1100.51	0.28
293.15	0.01287	1100.56	0.28
293.15	0.0156	1100.63	0.28
293.15	0.01754	1100.68	0.28
293.15	0.01986	1100.74	0.28
293.15	0.0222	1100.8	0.28
303.15	0	1090.34	0.28
303.15	0.00254	1090.41	0.28
303.15	0.00588	1090.5	0.28
303.15	0.00888	1090.58	0.28
303.15	0.01151	1090.65	0.28
303.15	0.01491	1090.74	0.28
303.15	0.01758	1090.81	0.28
303.15	0.02064	1090.89	0.28
303.15	0.02333	1090.96	0.28
303.15	0.02681	1091.05	0.28
303.15	0.03031	1091.14	0.28
308.15	0	1085.41	0.27
308.15	0.00216	1085.43	0.27
308.15	0.00471	1085.5	0.27
308.15	0.00692	1085.56	0.27
308.15	0.00913	1085.62	0.27
308.15	0.01398	1085.75	0.28
308.15	0.01624	1085.81	0.28
308.15	0.01888	1085.88	0.28
308.15	0.02155	1085.95	0.28
308.15	0.02348	1086	0.28
308.15	0.02616	1086.07	0.28
313.15	0	1080.43	0.27
313.15	0.00623	1080.57	0.27
313.15	0.01004	1080.67	0.27
313.15	0.01351	1080.76	0.27
313.15	0.01667	1080.84	0.27
313.15	0.01987	1080.92	0.27
313.15	0.02275	1080.99	0.27
313.15	0.02686	1081.09	0.27
313.15	0.02946	1081.15	0.27
313.15	0.03287	1081.23	0.27
313.15	0.03631	1081.31	0.27

System: dimethyl sulfoxide + 1-decyl-3-methylimidazolium bromide; phases: Liquid
Fixed: Pressure, kPa = 101
Property: Mass density, kg/m3 (Liquid); method: VIBTUB:UFactor:2
Temperature, K	Molality, mol/kg of 1-decyl-3-methylimidazolium bromide	Mass density, kg/m3	uncertainty
293.15	0	1100.22	0.28
293.15	0.00402	1100.27	0.28
293.15	0.00649	1100.3	0.28
293.15	0.00933	1100.34	0.28
293.15	0.01163	1100.38	0.28
293.15	0.0141	1100.41	0.28
293.15	0.0167	1100.45	0.28
293.15	0.01877	1100.49	0.28
293.15	0.02117	1100.53	0.28
293.15	0.02341	1100.56	0.28
293.15	0.02766	1100.63	0.28
303.15	0	1090.37	0.28
303.15	0.00542	1090.45	0.28
303.15	0.00729	1090.48	0.28
303.15	0.00969	1090.52	0.28
303.15	0.01151	1090.55	0.28
303.15	0.01339	1090.58	0.28
303.15	0.01545	1090.61	0.28
303.15	0.01741	1090.65	0.28
303.15	0.01809	1090.66	0.28
303.15	0.01996	1090.69	0.28
308.15	0	1085.42	0.27
308.15	0.00501	1085.49	0.27
308.15	0.00676	1085.52	0.27
308.15	0.01153	1085.59	0.27
308.15	0.01415	1085.64	0.27
308.15	0.01624	1085.68	0.27
308.15	0.0184	1085.72	0.27
308.15	0.02101	1085.76	0.27
308.15	0.0233	1085.8	0.27
313.15	0	1080.45	0.27
313.15	0.00484	1080.52	0.27
313.15	0.0071	1080.56	0.27
313.15	0.00963	1080.6	0.27
313.15	0.01229	1080.65	0.27
313.15	0.01489	1080.69	0.27
313.15	0.01739	1080.74	0.27
313.15	0.0195	1080.78	0.27
313.15	0.02205	1080.82	0.27
313.15	0.02449	1080.87	0.27

System: dimethyl sulfoxide + 1-dodecyl-3-methylimidazolium bromide; phases: Liquid
Fixed: Pressure, kPa = 101
Property: Mass density, kg/m3 (Liquid); method: VIBTUB:UFactor:2
Temperature, K	Molality, mol/kg of 1-dodecyl-3-methylimidazolium bromide	Mass density, kg/m3	uncertainty
293.15	0	1100.22	0.28
293.15	0.00397	1100.23	0.28
293.15	0.00623	1100.24	0.28
293.15	0.00818	1100.25	0.28
293.15	0.01037	1100.26	0.28
293.15	0.01216	1100.26	0.28
293.15	0.01421	1100.27	0.28
293.15	0.01656	1100.28	0.28
293.15	0.01857	1100.29	0.28
293.15	0.02122	1100.3	0.28
293.15	0.02403	1100.31	0.28
303.15	0	1090.38	0.27
303.15	0.00371	1090.4	0.27
303.15	0.00614	1090.4	0.28
303.15	0.00792	1090.41	0.28
303.15	0.00994	1090.42	0.28
303.15	0.0118	1090.43	0.28
303.15	0.01399	1090.44	0.28
303.15	0.01604	1090.45	0.28
303.15	0.01817	1090.46	0.28
303.15	0.01986	1090.47	0.28
303.15	0.02211	1090.48	0.28
308.15	0	1085.41	0.27
308.15	0.00436	1085.43	0.27
308.15	0.00683	1085.43	0.27
308.15	0.00903	1085.45	0.27
308.15	0.01149	1085.46	0.27
308.15	0.01349	1085.47	0.27
308.15	0.01606	1085.48	0.27
308.15	0.01812	1085.49	0.27
308.15	0.02147	1085.51	0.27
308.15	0.02348	1085.52	0.27
308.15	0.02922	1085.55	0.27
313.15	0	1080.47	0.27
313.15	0.00453	1080.48	0.27
313.15	0.00685	1080.5	0.27
313.15	0.00907	1080.51	0.27
313.15	0.01123	1080.52	0.27
313.15	0.01315	1080.53	0.27
313.15	0.01625	1080.55	0.27
313.15	0.01812	1080.56	0.27
313.15	0.02054	1080.57	0.27
313.15	0.02269	1080.59	0.27
