Measured thermophysical data. Re-evaluation of the Mean Activity Coefficients of Strontium Chloride in Dilute Aqueous Solutions from (10 to 60) degC and at 25 degC up to the Saturated Solution Where the Molality Is 3.520 mol*kg-1
Source: J. Chem. Eng. Data, 2013, 10.1021/je400472v
Compound 1: strontium chloride, Cl2Sr, InChI=1S/2ClH.Sr/h2*1H;/q;;+2/p-2
Compound 2: water, H2O, InChI=1S/H2O/h1H2

System: water + strontium chloride; phases: Liquid
Fixed: Temperature, K = 298.15
Fixed: Pressure, kPa = 101
Property: Mean ionic activity coefficient of strontium chloride (Liquid); method: ?
Molality, mol/kg of strontium chloride	Mean ionic activity coefficient of strontium chloride	uncertainty
0.01	0.726	0.001
0.02	0.661	0.001
0.05	0.571	0.001
0.1	0.509	0.001
0.2	0.459	0.001
0.3	0.439	0.001
0.4	0.43	0.001
0.5	0.428	0.001
0.6	0.43	0.001
0.7	0.435	0.001
0.8	0.442	0.001
0.9	0.451	0.001
1	0.462	0.001
1.2	0.489	0.001
1.4	0.522	0.001
1.6	0.562	0.001
1.8	0.609	0.001
2	0.665	0.001
2.5	0.849	0.001
3	1.12	0.001
3.5	1.524	0.001
3.52	1.544	0.001

System: water + strontium chloride; phases: Liquid
Fixed: Pressure, kPa = 101
Property: Mean ionic activity coefficient of strontium chloride (Liquid); method: ?
Temperature, K	Molality, mol/kg of strontium chloride	Mean ionic activity coefficient of strontium chloride	uncertainty
283.15	0.01	0.732	0.001
293.15	0.01	0.728	0.001
303.15	0.01	0.724	0.001
313.15	0.01	0.72	0.001
323.15	0.01	0.715	0.001
333.15	0.01	0.71	0.001
283.15	0.02	0.668	0.001
293.15	0.02	0.663	0.001
303.15	0.02	0.658	0.001
313.15	0.02	0.653	0.001
323.15	0.02	0.648	0.001
333.15	0.02	0.642	0.001
283.15	0.05	0.58	0.001
293.15	0.05	0.575	0.001
303.15	0.05	0.569	0.001
313.15	0.05	0.563	0.001
323.15	0.05	0.556	0.001
333.15	0.05	0.549	0.001
283.15	0.1	0.519	0.001
293.15	0.1	0.513	0.001
303.15	0.1	0.507	0.001
313.15	0.1	0.5	0.001
323.15	0.1	0.493	0.001
333.15	0.1	0.485	0.001
283.15	0.2	0.47	0.001
293.15	0.2	0.464	0.001
303.15	0.2	0.457	0.001
313.15	0.2	0.45	0.001
323.15	0.2	0.442	0.001
333.15	0.2	0.434	0.001
283.15	0.3	0.45	0.001
293.15	0.3	0.444	0.001
303.15	0.3	0.437	0.001
313.15	0.3	0.429	0.001
323.15	0.3	0.421	0.001
333.15	0.3	0.413	0.001
