Measured thermophysical data. Physical and Thermophysical Properties of 1-Hexyl-1,4-diaza[2.2.2]bicyclooctanium Bis(trifluoromethylsulfonyl)imide Ionic Liquid
Source: J. Chem. Eng. Data, 2014, 10.1021/je400252p
Compound 1: 1-hexyl-1,4-diazabicyclo[2.2.2]octan-1-ium bis((trifluoromethyl)sulfonyl)amide, C14H25F6N3O4S2, InChI=1S/C12H25N2.C2F6NO4S2/c1-2-3-4-5-9-14-10-6-13(7-11-14)8-12-14;3-1(4,5)14(10,11)9-15(12,13)2(6,7)8/h2-12H2,1H3;/q+1;-1, purity 99%

System: 1-hexyl-1,4-diazabicyclo[2.2.2]octan-1-ium bis((trifluoromethyl)sulfonyl)amide; phases: Glass, Liquid, Air at 1 atmosphere
Property: Triple point temperature, K (Glass); method: DTA
Triple point temperature, K	uncertainty
222	5

System: 1-hexyl-1,4-diazabicyclo[2.2.2]octan-1-ium bis((trifluoromethyl)sulfonyl)amide; phases: Crystal, Liquid, Air at 1 atmosphere
Property: Normal melting temperature, K (Crystal); method: DTA
Normal melting temperature, K	uncertainty
309	1.7

System: 1-hexyl-1,4-diazabicyclo[2.2.2]octan-1-ium bis((trifluoromethyl)sulfonyl)amide; phases: Crystal, Liquid, Gas
Property: Molar enthalpy of transition or fusion, kJ/mol (Crystal); method: DSC
Molar enthalpy of transition or fusion, kJ/mol	uncertainty
11	2

System: 1-hexyl-1,4-diazabicyclo[2.2.2]octan-1-ium bis((trifluoromethyl)sulfonyl)amide; phases: Liquid
Property: Refractive index (Na D-line) (Liquid); method: Standard Abbe refractometry
Temperature, K	Pressure, kPa	Refractive index (Na D-line)	uncertainty
313	101.325	1.4379	0.0008

System: 1-hexyl-1,4-diazabicyclo[2.2.2]octan-1-ium bis((trifluoromethyl)sulfonyl)amide; phases: Liquid
Fixed: Pressure, kPa = 101.325
Property: Mass density, kg/m3 (Liquid); method: Vibrating tube method
Temperature, K	Mass density, kg/m3	uncertainty
313.15	1355.15	0.54
318.15	1350.93	0.54
323.15	1346.72	0.53
328.15	1342.51	0.52
333.15	1338.29	0.52

System: 1-hexyl-1,4-diazabicyclo[2.2.2]octan-1-ium bis((trifluoromethyl)sulfonyl)amide; phases: Liquid
Fixed: Pressure, kPa = 101.325
Property: Viscosity, Pa*s (Liquid); method: CONCYL:UFactor:6
Temperature, K	Viscosity, Pa*s	uncertainty
313.15	0.3893	0.0649
318.15	0.1908	0.0209
323.15	0.1381	0.0115
328.15	0.107	0.0067
333.15	0.0876	0.0041

System: 1-hexyl-1,4-diazabicyclo[2.2.2]octan-1-ium bis((trifluoromethyl)sulfonyl)amide; phases: Liquid, Gas
Property: Surface tension liquid-gas, N/m (Liquid); method: Ring tensiometer
Temperature, K	Surface tension liquid-gas, N/m	uncertainty
313.15	0.03562	0.00052
318.15	0.03533	0.00052
323.15	0.03505	0.00052
328.15	0.03483	0.00051
333.15	0.03451	0.00052
