Measured thermophysical data. Micellar and Interfacial Behavior in Mixtures of Dodecyldiethoxylamine Oxide with Ionic Surfactants
Source: J. Chem. Eng. Data, 2013, 10.1021/je400431e
Compound 1: 2,2'-(dodecylimino)bis-ethanol N-oxide, C16H35NO3, InChI=1S/C16H35NO3/c1-2-3-4-5-6-7-8-9-10-11-12-17(20,13-15-18)14-16-19/h18-19H,2-16H2,1H3
Compound 2: sodium dodecyl sulfate, C12H25NaO4S, InChI=1S/C12H26O4S.Na/c1-2-3-4-5-6-7-8-9-10-11-12-16-17(13,14)15;/h2-12H2,1H3,(H,13,14,15);/q;+1/p-1, purity 99.9%
Compound 3: N,N,N-trimethyl-1-dodecanaminium chloride, C15H34ClN, InChI=1S/C15H34N.ClH/c1-5-6-7-8-9-10-11-12-13-14-15-16(2,3)4;/h5-15H2,1-4H3;1H/q+1;/p-1, purity 99%
Compound 4: water, H2O, InChI=1S/H2O/h1H2

System: sodium dodecyl sulfate + 2,2'-(dodecylimino)bis-ethanol N-oxide + water; phases: Liquid, Air at 1 atmosphere
Fixed: Temperature, K = 298
Property: Surface tension liquid-gas, N/m (Liquid); method: Ring tensiometer
Molality, mol/kg of 2,2'-(dodecylimino)bis-ethanol N-oxide	Molality, mol/kg of sodium dodecyl sulfate	Surface tension liquid-gas, N/m	uncertainty
0	0.00013	0.06684	0.00749
0	0.00031	0.06083	0.00435
0	0.00102	0.05239	0.00202
0	0.00303	0.04505	0.00136
0	0.00501	0.04055	0.00121
0	0.007	0.03858	0.00115
0	0.008	0.03741	0.00112
0	0.009	0.03773	0.00113
0	0.01	0.03799	0.00113
0	0.012	0.03776	0.00113
1.5e-06	1.35e-05	0.05873	0.00304
3e-06	2.7e-05	0.04984	0.00469
5e-06	4.5e-05	0.04231	0.0041
7e-06	6.3e-05	0.03576	0.00241
1e-05	9e-05	0.03192	0.00108
1.3e-05	0.000117	0.02691	0.00207
1.5e-05	0.000135	0.02558	0.00092
2e-05	0.00018	0.02474	0.00091
3e-05	0.00027	0.02483	0.00081
5e-05	0.00045	0.02451	0.0008
7e-05	0.00063	0.02471	0.00081
3e-06	7e-06	0.05909	0.00432
3.9e-06	9.1e-06	0.05568	0.00447
6e-06	1.4e-05	0.04931	0.00407
9e-06	2.1e-05	0.04291	0.00285
1.5e-05	3.5e-05	0.03492	0.00194
2.1e-05	4.9e-05	0.03065	0.00147
3e-05	7e-05	0.02657	0.00095
3.9e-05	9.1e-05	0.02504	0.00123
4.8e-05	0.000112	0.02499	0.00084
6e-05	0.00014	0.02493	0.00081
7.5e-05	0.000175	0.02486	0.00081
5e-06	5e-06	0.05614	0.00229
6.5e-06	6.5e-06	0.05191	0.00204
1e-05	1e-05	0.0455	0.00294
1.5e-05	1.5e-05	0.03946	0.00239
2e-05	2e-05	0.0346	0.00172
2.5e-05	2.5e-05	0.03204	0.00153
3.5e-05	3.5e-05	0.02825	0.00108
4.5e-05	4.5e-05	0.02542	0.00154
6e-05	6e-05	0.02541	0.00092
7.5e-05	7.5e-05	0.02484	0.00082
0.0001	0.0001	0.02475	0.00081
0.000125	0.000125	0.02483	0.00081
7e-06	3e-06	0.05775	0.00316
9.1e-06	3.9e-06	0.05408	0.0022
1.4e-05	6e-06	0.04743	0.0019
2.1e-05	9e-06	0.04106	0.004
2.8e-05	1.2e-05	0.03708	0.00112
3.5e-05	1.5e-05	0.03377	0.00127
4.9e-05	2.1e-05	0.02912	0.00132
6.3e-05	2.7e-05	0.02638	0.00092
8.4e-05	3.6e-05	0.02532	0.00321
0.000105	4.5e-05	0.02541	0.00118
0.00014	6e-05	0.02485	0.00084
0.000175	7.5e-05	0.02487	0.00081
0.00021	9e-05	0.02476	0.00087
9e-06	1e-06	0.06285	0.00257
1.17e-05	1.3e-06	0.05831	0.00293
1.8e-05	2e-06	0.05283	0.00159
2.7e-05	3e-06	0.04727	0.00176
3.6e-05	4e-06	0.04284	0.00128
4.5e-05	5e-06	0.03956	0.00176
6.3e-05	7e-06	0.03328	0.00107
8.1e-05	9e-06	0.03098	0.00324
0.000108	1.2e-05	0.0264	0.00119
0.000135	1.5e-05	0.02546	0.00085
0.00018	2e-05	0.0248	0.00081
0.000225	2.5e-05	0.02499	0.00087
0.00027	3e-05	0.0249	0.0051
0.00036	4e-05	0.02475	0.0051

System: N,N,N-trimethyl-1-dodecanaminium chloride + 2,2'-(dodecylimino)bis-ethanol N-oxide + water; phases: Liquid, Air at 1 atmosphere
Fixed: Temperature, K = 298
Property: Surface tension liquid-gas, N/m (Liquid); method: Ring tensiometer
Molality, mol/kg of N,N,N-trimethyl-1-dodecanaminium chloride	Molality, mol/kg of 2,2'-(dodecylimino)bis-ethanol N-oxide	Surface tension liquid-gas, N/m	uncertainty
0	0.002	0.06012	0.00173
0	0.003	0.05665	0.00164
0	0.004	0.05224	0.00151
0	0.0055	0.04892	0.00143
0	0.0086	0.04455	0.0013
0	0.01103	0.0434	0.00127
0	0.01654	0.0416	0.00122
0	0.02582	0.0412	0.00121
0	0.03056	0.04075	0.0012
0	0.05	0.04055	0.00119
1e-05	9e-05	0.06558	0.00202
3e-05	0.00027	0.05388	0.00168
7e-05	0.00063	0.04258	0.00127
0.0001	0.0009	0.0381	0.00115
0.0002	0.0018	0.03119	0.00096
0.0003	0.0027	0.02662	0.00085
0.0005	0.0045	0.02647	0.00085
0.0007	0.0063	0.02638	0.00085
0.001	0.009	0.0265	0.00085
3e-05	7e-05	0.05758	0.0018
9e-05	0.00021	0.04152	0.00126
0.00015	0.00035	0.03562	0.00109
0.00021	0.00049	0.03201	0.00099
0.0003	0.0007	0.02877	0.00091
0.00045	0.00105	0.02633	0.00085
0.0006	0.0014	0.02619	0.00084
0.0009	0.0021	0.02595	0.00084
0.0012	0.0028	0.0267	0.00085
0.0018	0.0042	0.02614	0.00084
2.5e-05	2.5e-05	0.05952	0.00192
5e-05	5e-05	0.05143	0.00156
7.5e-05	7.5e-05	0.04418	0.00134
0.0001	0.0001	0.04089	0.00123
0.00015	0.00015	0.0357	0.00109
0.00025	0.00025	0.03053	0.00095
0.00035	0.00035	0.02778	0.00088
0.0005	0.0005	0.02583	0.00083
0.00075	0.00075	0.02571	0.00083
0.001	0.001	0.02602	0.00084
3.5e-05	1.5e-05	0.05538	0.00169
4.9e-05	2.1e-05	0.05187	0.00158
7e-05	3e-05	0.04601	0.00138
0.000105	4.5e-05	0.04075	0.00122
0.00014	6e-05	0.0378	0.00115
0.00021	9e-05	0.03289	0.00101
0.00035	0.00015	0.02649	0.00085
0.00049	0.00021	0.02593	0.00084
0.0007	0.0003	0.02568	0.00083
0.00105	0.00045	0.02599	0.00084
0.0014	0.0006	0.02665	0.00086
2.7e-05	3e-06	0.05864	0.00184
4.5e-05	5e-06	0.05316	0.00162
6.3e-05	7e-06	0.04835	0.00146
9e-05	1e-05	0.0435	0.00133
0.000135	1.5e-05	0.03846	0.00117
0.00027	3e-05	0.03019	0.00095
0.00045	5e-05	0.02557	0.00083
0.00063	7e-05	0.02551	0.00083
0.0009	0.0001	0.02571	0.00083
0.00135	0.00015	0.02641	0.00085
3e-05	0	0.05638	0.00177
5e-05	0	0.05117	0.00156
7e-05	0	0.04718	0.00142
0.0001	0	0.0417	0.00125
0.00015	0	0.03566	0.00109
0.0002	0	0.03191	0.00099
0.0003	0	0.02813	0.00089
0.0005	0	0.02541	0.00082
0.0007	0	0.02528	0.00082
0.001	0	0.02568	0.00083
0.0013	0	0.0254	0.00082
0.0016	0	0.02552	0.00083

System: sodium dodecyl sulfate + water; phases: Liquid, Air at 1 atmosphere
Fixed: Temperature, K = 298
Property: Surface tension liquid-gas, N/m (Liquid); method: Ring tensiometer
Molality, mol/kg of sodium dodecyl sulfate	Surface tension liquid-gas, N/m	uncertainty
0.00013	0.06684	0.00749
0.00031	0.06083	0.00435
0.00102	0.05239	0.00202
0.00303	0.04505	0.00136
0.00501	0.04055	0.00121
0.007	0.03858	0.00115
0.008	0.03741	0.00112
0.009	0.03773	0.00113
0.01	0.03799	0.00113
0.012	0.03776	0.00113

System: 2,2'-(dodecylimino)bis-ethanol N-oxide + water; phases: Liquid, Air at 1 atmosphere
Fixed: Temperature, K = 298
Property: Surface tension liquid-gas, N/m (Liquid); method: Ring tensiometer
Molality, mol/kg of 2,2'-(dodecylimino)bis-ethanol N-oxide	Surface tension liquid-gas, N/m	uncertainty
0.002	0.06012	0.00173
0.003	0.05665	0.00164
0.004	0.05224	0.00151
0.0055	0.04892	0.00143
0.0086	0.04455	0.0013
0.01103	0.0434	0.00127
0.01654	0.0416	0.00122
0.02582	0.0412	0.00121
0.03056	0.04075	0.0012
0.05	0.04055	0.00119

System: N,N,N-trimethyl-1-dodecanaminium chloride + water; phases: Liquid, Air at 1 atmosphere
Fixed: Temperature, K = 298
Property: Surface tension liquid-gas, N/m (Liquid); method: Ring tensiometer
Molality, mol/kg of N,N,N-trimethyl-1-dodecanaminium chloride	Surface tension liquid-gas, N/m	uncertainty
3e-05	0.05638	0.00177
5e-05	0.05117	0.00156
7e-05	0.04718	0.00142
0.0001	0.0417	0.00125
0.00015	0.03566	0.00109
0.0002	0.03191	0.00099
0.0003	0.02813	0.00089
0.0005	0.02541	0.00082
0.0007	0.02528	0.00082
0.001	0.02568	0.00083
0.0013	0.0254	0.00082
0.0016	0.02552	0.00083
