Measured thermophysical data. Isobaric Vapor Liquid Equilibria for the Binary Mixtures Composed of Ethylene Glycol, 1,2-Propylene Glycol, 1,2-Butanediol, and 1,3-Butanediol at 10.00 kPa
Source: J. Chem. Eng. Data, 2013, 10.1021/je400082c
Compound 1: 1,2-ethanediol, C2H6O2, InChI=1S/C2H6O2/c3-1-2-4/h3-4H,1-2H2, purity 99.5%
Compound 2: 1,2-propanediol, C3H8O2, InChI=1S/C3H8O2/c1-3(5)2-4/h3-5H,2H2,1H3, purity 99.8%
Compound 3: 1,2-butanediol, C4H10O2, InChI=1S/C4H10O2/c1-2-4(6)3-5/h4-6H,2-3H2,1H3, purity 98%
Compound 4: 1,3-butanediol, C4H10O2, InChI=1S/C4H10O2/c1-4(6)2-3-5/h4-6H,2-3H2,1H3, purity 99%

System: 1,2-ethanediol; phases: Liquid, Gas
Property: Vapor or sublimation pressure, kPa (Liquid); method: EBULLIO:UFactor:8
Temperature, K	Vapor or sublimation pressure, kPa	uncertainty
386.15	3.92	0.08
389.12	4.51	0.08
389.95	4.78	0.08
390.75	4.89	0.08
395.25	6.08	0.09
400.78	7.87	0.09
402.15	8.37	0.09
405.85	9.85	0.09
406.25	10.02	0.09
409.3	11.42	0.09
411.15	12.41	0.09
411.85	12.85	0.09
413.85	13.85	0.09
416.45	15.37	0.09
406.09	10	0.095

System: 1,2-propanediol; phases: Liquid, Gas
Property: Vapor or sublimation pressure, kPa (Liquid); method: Ebulliometric method (Recirculating still)
Temperature, K	Vapor or sublimation pressure, kPa	uncertainty
398.23	10	0.095

System: 1,2-butanediol; phases: Liquid, Gas
Property: Vapor or sublimation pressure, kPa (Liquid); method: EBULLIO:UFactor:8
Temperature, K	Vapor or sublimation pressure, kPa	uncertainty
372.06	1.89	0.08
382.61	3.33	0.08
390.52	4.96	0.09
395.55	6.36	0.09
399.56	7.66	0.09
402.61	8.81	0.09
405.13	9.9	0.09
408.5	11.39	0.09
413.34	14.09	0.09
418.29	17.27	0.1
421.49	19.63	0.1
424.91	22.54	0.1
427.57	25.06	0.11
429.92	27.24	0.11
432.76	30.39	0.12
435.37	33.36	0.12
438.52	37.3	0.13
439.97	39.3	0.13
441.78	41.9	0.13
443.55	44.75	0.14
405.42	10	0.1

System: 1,3-butanediol; phases: Liquid, Gas
Property: Vapor or sublimation pressure, kPa (Liquid); method: EBULLIO:UFactor:8
Temperature, K	Vapor or sublimation pressure, kPa	uncertainty
387.75	2.43	0.08
395.13	3.6	0.08
402.05	5.03	0.08
406.61	6.26	0.09
411.11	7.72	0.09
413.41	8.54	0.09
418.03	10.48	0.09
420.85	11.87	0.09
422.04	12.54	0.09
425.8	14.63	0.09
427.74	15.84	0.09
429.75	17.09	0.09
433.71	19.96	0.09
436.29	22.24	0.1
439.65	25.3	0.1
442.45	28.15	0.1
444.75	30.78	0.1
447.01	33.36	0.1
449.8	36.78	0.11
451.7	39.45	0.11
453.1	41.39	0.11
416.91	10	0.095

System: 1,2-propanediol + 1,3-butanediol; phases: Liquid, Gas
Fixed: Pressure, kPa = 10
Property: Boiling temperature at pressure P, K (Liquid); method: Ebulliometric method (Recirculating still)
Mole fraction of 1,2-propanediol	Boiling temperature at pressure P, K	uncertainty
1	398.23	0.19
0.93	399.1	0.23
0.864	400.05	0.24
0.788	401.3	0.25
0.742	402.15	0.25
0.674	403.2	0.24
0.592	404.45	0.24
0.565	404.86	0.24
0.507	405.75	0.24
0.462	406.42	0.24
0.424	406.99	0.24
0.367	407.84	0.24
0.332	408.36	0.24
0.312	408.67	0.24
0.267	409.37	0.25
0.17	411.04	0.27
0.106	412.47	0.32
0.059	413.89	0.44
0.009	416.3	0.47
0	416.91	0.19

System: 1,2-propanediol + 1,3-butanediol; phases: Gas, Liquid
Fixed: Pressure, kPa = 10
Property: Mole fraction of 1,2-propanediol (Gas); method: Chromatography
Mole fraction of 1,2-propanediol	Mole fraction of 1,2-propanediol	uncertainty
1	1	
0.93	0.968	0.011
0.864	0.934	0.011
0.788	0.891	0.012
0.742	0.861	0.012
0.674	0.815	0.013
0.592	0.748	0.013
0.565	0.723	0.014
0.507	0.669	0.014
0.462	0.63	0.014
0.424	0.589	0.014
0.367	0.547	0.013
0.332	0.521	0.014
0.312	0.495	0.016
0.267	0.444	0.017
0.17	0.315	0.017
0.106	0.221	0.018
0.059	0.157	0.021
0.009	0.044	0.023
0	0	

System: 1,2-ethanediol + 1,3-butanediol; phases: Liquid, Gas
Fixed: Pressure, kPa = 10
Property: Boiling temperature at pressure P, K (Liquid); method: Ebulliometric method (Recirculating still)
Mole fraction of 1,2-ethanediol	Boiling temperature at pressure P, K	uncertainty
1	406.09	0.19
0.964	406.22	0.19
0.909	406.46	0.19
0.824	406.92	0.2
0.768	407.28	0.2
0.71	407.6	0.2
0.654	408.05	0.21
0.617	408.4	0.21
0.595	408.62	0.22
0.554	409.1	0.21
0.519	409.39	0.2
0.491	409.59	0.21
0.467	409.91	0.23
0.458	410.03	0.23
0.427	410.41	0.22
0.359	411.21	0.23
0.316	411.81	0.24
0.274	412.4	0.24
0.233	412.98	0.24
0.209	413.34	0.24
0.088	415.33	0.25
0.04	416.18	0.26
0	416.91	0.19

System: 1,2-ethanediol + 1,3-butanediol; phases: Gas, Liquid
Fixed: Pressure, kPa = 10
Property: Mole fraction of 1,2-ethanediol (Gas); method: Chromatography
Mole fraction of 1,2-ethanediol	Mole fraction of 1,2-ethanediol	uncertainty
1	1	
0.964	0.97	0.013
0.909	0.924	0.012
0.824	0.869	0.012
0.768	0.825	0.012
0.71	0.797	0.012
0.654	0.756	0.013
0.617	0.727	0.013
0.595	0.71	0.013
0.554	0.675	0.013
0.519	0.647	0.013
0.491	0.624	0.014
0.467	0.602	0.014
0.458	0.594	0.014
0.427	0.564	0.015
0.359	0.494	0.016
0.316	0.443	0.015
0.274	0.404	0.015
0.233	0.354	0.016
0.209	0.324	0.016
0.088	0.161	0.018
0.04	0.073	0.021
0	0	

System: 1,2-propanediol + 1,2-ethanediol; phases: Liquid, Gas
Fixed: Pressure, kPa = 10
Property: Boiling temperature at pressure P, K (Liquid); method: Ebulliometric method (Recirculating still)
Mole fraction of 1,2-propanediol	Boiling temperature at pressure P, K	uncertainty
0	406.09	0.19
0.043	405.42	0.24
0.105	404.57	0.23
0.163	403.88	0.22
0.202	403.44	0.21
0.254	402.92	0.21
0.305	402.45	0.21
0.36	401.98	0.2
0.4	401.67	0.2
0.446	401.32	0.2
0.484	401.04	0.2
0.537	400.69	0.2
0.574	400.45	0.2
0.605	400.25	0.2
0.649	399.99	0.2
0.69	399.75	0.19
0.807	399.13	0.19
0.891	398.72	0.19
0.95	398.45	0.19
1	398.23	0.19

System: 1,2-propanediol + 1,2-ethanediol; phases: Gas, Liquid
Fixed: Pressure, kPa = 10
Property: Mole fraction of 1,2-propanediol (Gas); method: Chromatography
Mole fraction of 1,2-propanediol	Mole fraction of 1,2-propanediol	uncertainty
0	0	
0.043	0.07	0.018
0.105	0.163	0.017
0.163	0.238	0.016
0.202	0.288	0.016
0.254	0.347	0.015
0.305	0.398	0.014
0.36	0.449	0.014
0.4	0.489	0.015
0.446	0.536	0.015
0.484	0.571	0.014
0.537	0.613	0.013
0.574	0.646	0.014
0.605	0.677	0.014
0.649	0.715	0.013
0.69	0.749	0.013
0.807	0.845	0.013
0.891	0.912	0.013
0.95	0.96	0.013
1	1	

System: 1,2-propanediol + 1,2-butanediol; phases: Liquid, Gas
Fixed: Pressure, kPa = 10
Property: Boiling temperature at pressure P, K (Liquid); method: Ebulliometric method (Recirculating still)
Mole fraction of 1,2-propanediol	Boiling temperature at pressure P, K	uncertainty
1	398.23	0.19
0.912	398.74	0.2
0.847	399.11	0.2
0.765	399.54	0.2
0.702	399.85	0.2
0.627	400.21	0.2
0.572	400.47	0.2
0.51	400.76	0.2
0.463	400.98	0.2
0.416	401.21	0.2
0.379	401.4	0.2
0.348	401.56	0.2
0.319	401.73	0.2
0.29	401.91	0.21
0.242	402.22	0.21
0.201	402.54	0.22
0.122	403.29	0.23
0.057	404.2	0.26
0.016	405.02	0.29
0	405.42	0.2

System: 1,2-propanediol + 1,2-butanediol; phases: Gas, Liquid
Fixed: Pressure, kPa = 10
Property: Mole fraction of 1,2-propanediol (Gas); method: Chromatography
Mole fraction of 1,2-propanediol	Mole fraction of 1,2-propanediol	uncertainty
1	1	
0.912	0.925	0.013
0.847	0.866	0.013
0.765	0.804	0.013
0.702	0.742	0.014
0.627	0.683	0.013
0.572	0.637	0.014
0.51	0.575	0.014
0.463	0.538	0.014
0.416	0.493	0.014
0.379	0.47	0.015
0.348	0.428	0.016
0.319	0.399	0.015
0.29	0.366	0.015
0.242	0.317	0.016
0.201	0.261	0.016
0.122	0.174	0.015
0.057	0.095	0.016
0.016	0.039	0.019
0	0	
