Measured thermophysical data. Surface Tension Measurements for Seven Imidazolium-Based Dialkylphosphate Ionic Liquids and Their Binary Mixtures with Water (Methanol or Ethanol) at 298.15 K and 1 atm
Source: J. Chem. Eng. Data, 2014, 10.1021/je400004j
Compound 1: water, H2O, InChI=1S/H2O/h1H2
Compound 2: methanol, CH4O, InChI=1S/CH4O/c1-2/h2H,1H3, purity 99.7%
Compound 3: ethanol, C2H6O, InChI=1S/C2H6O/c1-2-3/h3H,2H2,1H3, purity 99.7%
Compound 4: 1,3-dimethylimidazolium dimethylphosphate, C7H15N2O4P, InChI=1S/C5H9N2.C2H7O4P/c1-6-3-4-7(2)5-6;1-5-7(3,4)6-2/h3-5H,1-2H3;1-2H3,(H,3,4)/q+1;/p-1, purity 99.7%
Compound 5: 1-ethyl-3-methylimidazolium dimethylphosphate, C8H17N2O4P, InChI=1S/C6H11N2.C2H7O4P/c1-3-8-5-4-7(2)6-8;1-5-7(3,4)6-2/h4-6H,3H2,1-2H3;1-2H3,(H,3,4)/q+1;/p-1, purity 99.1%
Compound 6: 1-butyl-3-methyl-1H-imidazolium dimethylphosphate, C10H21N2O4P, InChI=1S/C8H15N2.C2H7O4P/c1-3-4-5-10-7-6-9(2)8-10;1-5-7(3,4)6-2/h6-8H,3-5H2,1-2H3;1-2H3,(H,3,4)/q+1;/p-1, purity 99.9%
Compound 7: 1-ethyl-3-methylimidazolium diethyl phosphate, C10H21N2O4P, InChI=1S/C6H11N2.C4H11O4P/c1-3-8-5-4-7(2)6-8;1-3-7-9(5,6)8-4-2/h4-6H,3H2,1-2H3;3-4H2,1-2H3,(H,5,6)/q+1;/p-1, purity 99.8%
Compound 8: 1-butyl-3-ethyl-1H-imidazol-3-ium diethyl phosphate, C13H27N2O4P, InChI=1S/C9H17N2.C4H11O4P/c1-3-5-6-11-8-7-10(4-2)9-11;1-3-7-9(5,6)8-4-2/h7-9H,3-6H2,1-2H3;3-4H2,1-2H3,(H,5,6)/q+1;/p-1, purity 99.9%
Compound 9: 1,3-diethyl-1H-imidazol-3-ium diethyl phosphate, C11H23N2O4P, InChI=1S/C7H13N2.C4H11O4P/c1-3-8-5-6-9(4-2)7-8;1-3-7-9(5,6)8-4-2/h5-7H,3-4H2,1-2H3;3-4H2,1-2H3,(H,5,6)/q+1;/p-1, purity 99.7%
Compound 10: 1-butyl-3-methylimidazolium dibutyl phosphate, C16H33N2O4P, InChI=1S/C8H15N2.C8H19O4P/c1-3-4-5-10-7-6-9(2)8-10;1-3-5-7-11-13(9,10)12-8-6-4-2/h6-8H,3-5H2,1-2H3;3-8H2,1-2H3,(H,9,10)/q+1;/p-1, purity 99.8%

System: water; phases: Liquid, Air at 1 atmosphere
Property: Surface tension liquid-gas, N/m (Liquid); method: Ring tensiometer
Temperature, K	Surface tension liquid-gas, N/m	uncertainty
298.15	0.0719	0.0009

System: methanol; phases: Liquid
Property: Mass density, kg/m3 (Liquid); method: Vibrating tube method
Temperature, K	Pressure, kPa	Mass density, kg/m3	uncertainty
298.15	101.325	786.55	0.17

System: methanol; phases: Liquid, Air at 1 atmosphere
Property: Surface tension liquid-gas, N/m (Liquid); method: Ring tensiometer
Temperature, K	Surface tension liquid-gas, N/m	uncertainty
298.15	0.0224	0.0003

System: ethanol; phases: Liquid
Property: Mass density, kg/m3 (Liquid); method: Vibrating tube method
Temperature, K	Pressure, kPa	Mass density, kg/m3	uncertainty
298.15	101.325	785.83	0.17

System: ethanol; phases: Liquid, Air at 1 atmosphere
Property: Surface tension liquid-gas, N/m (Liquid); method: Ring tensiometer
Temperature, K	Surface tension liquid-gas, N/m	uncertainty
298.15	0.0219	0.0003

System: 1,3-dimethylimidazolium dimethylphosphate; phases: Liquid
Property: Mass density, kg/m3 (Liquid); method: Vibrating tube method
Temperature, K	Pressure, kPa	Mass density, kg/m3	uncertainty
298.15	101.325	1252.6	0.22

System: 1,3-dimethylimidazolium dimethylphosphate; phases: Liquid, Air at 1 atmosphere
Property: Surface tension liquid-gas, N/m (Liquid); method: Ring tensiometer
Temperature, K	Surface tension liquid-gas, N/m	uncertainty
298.15	0.0484	0.0006

System: 1-ethyl-3-methylimidazolium dimethylphosphate; phases: Liquid, Air at 1 atmosphere
Property: Surface tension liquid-gas, N/m (Liquid); method: Ring tensiometer
Temperature, K	Surface tension liquid-gas, N/m	uncertainty
298.15	0.0443	0.00062

System: 1-butyl-3-methyl-1H-imidazolium dimethylphosphate; phases: Liquid, Air at 1 atmosphere
Property: Surface tension liquid-gas, N/m (Liquid); method: Ring tensiometer
Temperature, K	Surface tension liquid-gas, N/m	uncertainty
298.15	0.038	0.0005

System: 1-ethyl-3-methylimidazolium diethyl phosphate; phases: Liquid
Property: Mass density, kg/m3 (Liquid); method: Vibrating tube method
Temperature, K	Pressure, kPa	Mass density, kg/m3	uncertainty
298.15	101.325	1148.86	0.14

System: 1-ethyl-3-methylimidazolium diethyl phosphate; phases: Liquid, Air at 1 atmosphere
Property: Surface tension liquid-gas, N/m (Liquid); method: Ring tensiometer
Temperature, K	Surface tension liquid-gas, N/m	uncertainty
298.15	0.0371	0.0005

System: 1-butyl-3-ethyl-1H-imidazol-3-ium diethyl phosphate; phases: Liquid
Property: Mass density, kg/m3 (Liquid); method: Vibrating tube method
Temperature, K	Pressure, kPa	Mass density, kg/m3	uncertainty
298.15	101.325	1083.21	0.1

System: 1-butyl-3-ethyl-1H-imidazol-3-ium diethyl phosphate; phases: Liquid, Air at 1 atmosphere
Property: Surface tension liquid-gas, N/m (Liquid); method: Ring tensiometer
Temperature, K	Surface tension liquid-gas, N/m	uncertainty
298.15	0.0322	0.0005

System: 1,3-diethyl-1H-imidazol-3-ium diethyl phosphate; phases: Liquid
Property: Mass density, kg/m3 (Liquid); method: Vibrating tube method
Temperature, K	Pressure, kPa	Mass density, kg/m3	uncertainty
298.15	101.325	1125.96	0.15

System: 1,3-diethyl-1H-imidazol-3-ium diethyl phosphate; phases: Liquid, Air at 1 atmosphere
Property: Surface tension liquid-gas, N/m (Liquid); method: Ring tensiometer
Temperature, K	Surface tension liquid-gas, N/m	uncertainty
298.15	0.0355	0.0005

System: 1-butyl-3-methylimidazolium dibutyl phosphate; phases: Liquid
Property: Mass density, kg/m3 (Liquid); method: Vibrating tube method
Temperature, K	Pressure, kPa	Mass density, kg/m3	uncertainty
298.15	101.325	1046.18	0.09

System: 1-butyl-3-methylimidazolium dibutyl phosphate; phases: Liquid, Air at 1 atmosphere
Property: Surface tension liquid-gas, N/m (Liquid); method: Ring tensiometer
Temperature, K	Surface tension liquid-gas, N/m	uncertainty
298.15	0.0294	0.0004

System: water + 1,3-dimethylimidazolium dimethylphosphate; phases: Liquid, Air at 1 atmosphere
Fixed: Temperature, K = 298.15
Property: Surface tension liquid-gas, N/m (Liquid); method: Ring tensiometer
Mole fraction of 1,3-dimethylimidazolium dimethylphosphate	Surface tension liquid-gas, N/m	uncertainty
0	0.0719	0.0009
0.02	0.067	0.0009
0.04	0.0642	0.0009
0.08	0.0595	0.0008
0.1	0.0557	0.0008
0.12	0.0536	0.0007
0.14	0.0522	0.0007
0.2	0.0518	0.0007
0.3	0.0506	0.0007
0.4	0.05	0.0007
0.5	0.0498	0.0007
0.6	0.0493	0.0007
0.7	0.0491	0.0007
0.8	0.0489	0.0007
0.9	0.0486	0.0006
1	0.0484	0.0006

System: water + 1-ethyl-3-methylimidazolium dimethylphosphate; phases: Liquid, Air at 1 atmosphere
Fixed: Temperature, K = 298.15
Property: Surface tension liquid-gas, N/m (Liquid); method: Ring tensiometer
Mole fraction of 1-ethyl-3-methylimidazolium dimethylphosphate	Surface tension liquid-gas, N/m	uncertainty
0	0.0719	0.00091
0.1	0.0489	0.00069
0.2	0.047	0.00063
0.3	0.0464	0.00062
0.4	0.0462	0.00062
0.5	0.0451	0.00061
0.6	0.0442	0.0006
0.7	0.0441	0.00061
0.8	0.0445	0.00062
0.9	0.0444	0.00062
1	0.0443	0.00062

System: water + 1-butyl-3-methyl-1H-imidazolium dimethylphosphate; phases: Liquid, Air at 1 atmosphere
Fixed: Temperature, K = 298.15
Property: Surface tension liquid-gas, N/m (Liquid); method: Ring tensiometer
Mole fraction of 1-butyl-3-methyl-1H-imidazolium dimethylphosphate	Surface tension liquid-gas, N/m	uncertainty
0	0.0719	0.0009
0.1	0.0421	0.0006
0.2	0.0409	0.0006
0.3	0.0402	0.0005
0.4	0.0394	0.0005
0.5	0.0388	0.0005
0.6	0.0383	0.0005
0.7	0.0382	0.0005
0.8	0.038	0.0005
0.9	0.0381	0.0005
1	0.038	0.0005

System: water + 1-ethyl-3-methylimidazolium diethyl phosphate; phases: Liquid, Air at 1 atmosphere
Fixed: Temperature, K = 298.15
Property: Surface tension liquid-gas, N/m (Liquid); method: Ring tensiometer
Mole fraction of 1-ethyl-3-methylimidazolium diethyl phosphate	Surface tension liquid-gas, N/m	uncertainty
0	0.0719	0.0009
0.02	0.0497	0.0014
0.04	0.0465	0.0006
0.08	0.0442	0.0006
0.1	0.0426	0.0006
0.12	0.0414	0.0006
0.14	0.0407	0.0006
0.2	0.0389	0.0005
0.3	0.038	0.0005
0.4	0.0378	0.0005
0.5	0.0375	0.0005
0.6	0.0374	0.0005
0.7	0.0373	0.0005
0.8	0.0372	0.0005
0.9	0.0373	0.0005
1	0.0371	0.0005

System: water + 1,3-diethyl-1H-imidazol-3-ium diethyl phosphate; phases: Liquid, Air at 1 atmosphere
Fixed: Temperature, K = 298.15
Property: Surface tension liquid-gas, N/m (Liquid); method: Ring tensiometer
Mole fraction of 1,3-diethyl-1H-imidazol-3-ium diethyl phosphate	Surface tension liquid-gas, N/m	uncertainty
0	0.0719	0.0009
0.1	0.0407	0.0007
0.2	0.0374	0.0005
0.3	0.0372	0.0005
0.4	0.0366	0.0005
0.5	0.0364	0.0005
0.6	0.0362	0.0005
0.7	0.036	0.0005
0.8	0.0361	0.0005
0.9	0.0359	0.0005
1	0.0355	0.0005

System: water + 1-butyl-3-ethyl-1H-imidazol-3-ium diethyl phosphate; phases: Liquid, Air at 1 atmosphere
Fixed: Temperature, K = 298.15
Property: Surface tension liquid-gas, N/m (Liquid); method: Ring tensiometer
Mole fraction of 1-butyl-3-ethyl-1H-imidazol-3-ium diethyl phosphate	Surface tension liquid-gas, N/m	uncertainty
0	0.0719	0.0009
0.02	0.0474	0.0016
0.04	0.0424	0.0006
0.08	0.0378	0.0006
0.1	0.0359	0.0005
0.12	0.0355	0.0005
0.14	0.035	0.0005
0.2	0.0331	0.0005
0.3	0.0329	0.0005
0.4	0.0328	0.0005
0.5	0.0326	0.0005
0.6	0.0325	0.0005
0.7	0.0323	0.0005
0.8	0.0323	0.0005
0.9	0.0322	0.0005
1	0.0322	0.0005

System: water + 1-butyl-3-methylimidazolium dibutyl phosphate; phases: Liquid, Air at 1 atmosphere
Fixed: Temperature, K = 298.15
Property: Surface tension liquid-gas, N/m (Liquid); method: Ring tensiometer
Mole fraction of 1-butyl-3-methylimidazolium dibutyl phosphate	Surface tension liquid-gas, N/m	uncertainty
0	0.0719	0.0009
0.1	0.0282	0.0006
0.2	0.0289	0.0004
0.3	0.029	0.0004
0.4	0.0291	0.0004
0.5	0.0292	0.0004
0.6	0.0293	0.0004
0.7	0.0293	0.0004
0.8	0.0294	0.0004
0.9	0.0295	0.0004
1	0.0294	0.0004

System: methanol + 1,3-dimethylimidazolium dimethylphosphate; phases: Liquid, Air at 1 atmosphere
Fixed: Temperature, K = 298.15
Property: Surface tension liquid-gas, N/m (Liquid); method: Ring tensiometer
Mole fraction of 1,3-dimethylimidazolium dimethylphosphate	Surface tension liquid-gas, N/m	uncertainty
0	0.0224	0.0003
0.1	0.0269	0.0004
0.2	0.0304	0.0004
0.3	0.0331	0.0005
0.4	0.0357	0.0005
0.5	0.0381	0.0005
0.6	0.04	0.0005
0.7	0.0416	0.0006
0.8	0.0436	0.0006
0.9	0.0462	0.0006
1	0.0484	0.0006

System: methanol + 1-ethyl-3-methylimidazolium dimethylphosphate; phases: Liquid, Air at 1 atmosphere
Fixed: Temperature, K = 298.15
Property: Surface tension liquid-gas, N/m (Liquid); method: Ring tensiometer
Mole fraction of 1-ethyl-3-methylimidazolium dimethylphosphate	Surface tension liquid-gas, N/m	uncertainty
0	0.0224	0.0003
0.1	0.0267	0.0004
0.2	0.0295	0.0004
0.3	0.0318	0.0005
0.4	0.0337	0.0005
0.5	0.0356	0.0005
0.6	0.037	0.0005
0.7	0.0389	0.0006
0.8	0.0406	0.0006
0.9	0.0424	0.0006
1	0.0443	0.0006

System: methanol + 1-butyl-3-methyl-1H-imidazolium dimethylphosphate; phases: Liquid, Air at 1 atmosphere
Fixed: Temperature, K = 298.15
Property: Surface tension liquid-gas, N/m (Liquid); method: Ring tensiometer
Mole fraction of 1-butyl-3-methyl-1H-imidazolium dimethylphosphate	Surface tension liquid-gas, N/m	uncertainty
0	0.0224	0.0003
0.1	0.0265	0.0004
0.2	0.0292	0.0004
0.3	0.0308	0.0004
0.4	0.0323	0.0005
0.5	0.0338	0.0005
0.6	0.0351	0.0005
0.7	0.0359	0.0005
0.8	0.038	0.0005
0.9	0.0381	0.0005
1	0.038	0.0005

System: methanol + 1-ethyl-3-methylimidazolium diethyl phosphate; phases: Liquid, Air at 1 atmosphere
Fixed: Temperature, K = 298.15
Property: Surface tension liquid-gas, N/m (Liquid); method: Ring tensiometer
Mole fraction of 1-ethyl-3-methylimidazolium diethyl phosphate	Surface tension liquid-gas, N/m	uncertainty
0	0.0224	0.0003
0.1	0.0264	0.0004
0.2	0.0289	0.0004
0.3	0.0304	0.0004
0.4	0.0319	0.0005
0.5	0.0335	0.0005
0.6	0.0347	0.0005
0.7	0.0353	0.0005
0.8	0.0372	0.0005
0.9	0.0373	0.0005
1	0.0371	0.0005

System: methanol + 1,3-diethyl-1H-imidazol-3-ium diethyl phosphate; phases: Liquid, Air at 1 atmosphere
Fixed: Temperature, K = 298.15
Property: Surface tension liquid-gas, N/m (Liquid); method: Ring tensiometer
Mole fraction of 1,3-diethyl-1H-imidazol-3-ium diethyl phosphate	Surface tension liquid-gas, N/m	uncertainty
0	0.0224	0.0003
0.1	0.0264	0.0004
0.2	0.0286	0.0004
0.3	0.0303	0.0004
0.4	0.0316	0.0005
0.5	0.033	0.0005
0.6	0.034	0.0005
0.7	0.0344	0.0005
0.8	0.0361	0.0005
0.9	0.0359	0.0005
1	0.0355	0.0005

System: methanol + 1-butyl-3-ethyl-1H-imidazol-3-ium diethyl phosphate; phases: Liquid, Air at 1 atmosphere
Fixed: Temperature, K = 298.15
Property: Surface tension liquid-gas, N/m (Liquid); method: Ring tensiometer
Mole fraction of 1-butyl-3-ethyl-1H-imidazol-3-ium diethyl phosphate	Surface tension liquid-gas, N/m	uncertainty
0	0.0224	0.0003
0.1	0.0261	0.0004
0.2	0.0284	0.0004
0.3	0.0298	0.0004
0.4	0.0306	0.0004
0.5	0.0309	0.0004
0.6	0.0311	0.0004
0.7	0.0314	0.0004
0.8	0.0323	0.0005
0.9	0.0322	0.0005
1	0.0322	0.0005

System: methanol + 1-butyl-3-methylimidazolium dibutyl phosphate; phases: Liquid, Air at 1 atmosphere
Fixed: Temperature, K = 298.15
Property: Surface tension liquid-gas, N/m (Liquid); method: Ring tensiometer
Mole fraction of 1-butyl-3-methylimidazolium dibutyl phosphate	Surface tension liquid-gas, N/m	uncertainty
0	0.0224	0.0003
0.1	0.0264	0.0004
0.2	0.0275	0.0004
0.3	0.0281	0.0004
0.4	0.0285	0.0004
0.5	0.0288	0.0004
0.6	0.0289	0.0004
0.7	0.0291	0.0004
0.8	0.0294	0.0004
0.9	0.0295	0.0004
1	0.0294	0.0004

System: ethanol + 1,3-dimethylimidazolium dimethylphosphate; phases: Liquid, Air at 1 atmosphere
Fixed: Temperature, K = 298.15
Property: Surface tension liquid-gas, N/m (Liquid); method: Ring tensiometer
Mole fraction of 1,3-dimethylimidazolium dimethylphosphate	Surface tension liquid-gas, N/m	uncertainty
0	0.0219	0.0003
0.1	0.0232	0.0004
0.2	0.0245	0.0004
0.3	0.0261	0.0004
0.4	0.0282	0.0004
0.5	0.0305	0.0004
0.6	0.0327	0.0005
0.7	0.035	0.0005
0.8	0.0375	0.0005
0.9	0.0414	0.0006
1	0.0484	0.0006

System: ethanol + 1-ethyl-3-methylimidazolium dimethylphosphate; phases: Liquid, Air at 1 atmosphere
Fixed: Temperature, K = 298.15
Property: Surface tension liquid-gas, N/m (Liquid); method: Ring tensiometer
Mole fraction of 1-ethyl-3-methylimidazolium dimethylphosphate	Surface tension liquid-gas, N/m	uncertainty
0	0.0219	0.0003
0.1	0.0229	0.0004
0.2	0.024	0.0004
0.3	0.0255	0.0004
0.4	0.0275	0.0004
0.5	0.0295	0.0004
0.6	0.0317	0.0005
0.7	0.034	0.0005
0.8	0.0365	0.0005
0.9	0.0393	0.0006
1	0.0443	0.0006

System: ethanol + 1-butyl-3-methyl-1H-imidazolium dimethylphosphate; phases: Liquid, Air at 1 atmosphere
Fixed: Temperature, K = 298.15
Property: Surface tension liquid-gas, N/m (Liquid); method: Ring tensiometer
Mole fraction of 1-butyl-3-methyl-1H-imidazolium dimethylphosphate	Surface tension liquid-gas, N/m	uncertainty
0	0.0219	0.0003
0.1	0.0228	0.0003
0.2	0.0236	0.0004
0.3	0.025	0.0004
0.4	0.0269	0.0004
0.5	0.0285	0.0004
0.6	0.0305	0.0004
0.7	0.0323	0.0005
0.8	0.034	0.0005
0.9	0.036	0.0005
1	0.038	0.0005

System: ethanol + 1-ethyl-3-methylimidazolium diethyl phosphate; phases: Liquid, Air at 1 atmosphere
Fixed: Temperature, K = 298.15
Property: Surface tension liquid-gas, N/m (Liquid); method: Ring tensiometer
Mole fraction of 1-ethyl-3-methylimidazolium diethyl phosphate	Surface tension liquid-gas, N/m	uncertainty
0	0.0219	0.0003
0.1	0.0226	0.0003
0.2	0.0236	0.0004
0.3	0.025	0.0004
0.4	0.0266	0.0004
0.5	0.0282	0.0004
0.6	0.0301	0.0004
0.7	0.0316	0.0005
0.8	0.0332	0.0005
0.9	0.0348	0.0005
1	0.0371	0.0005

System: ethanol + 1,3-diethyl-1H-imidazol-3-ium diethyl phosphate; phases: Liquid, Air at 1 atmosphere
Fixed: Temperature, K = 298.15
Property: Surface tension liquid-gas, N/m (Liquid); method: Ring tensiometer
Mole fraction of 1,3-diethyl-1H-imidazol-3-ium diethyl phosphate	Surface tension liquid-gas, N/m	uncertainty
0	0.0219	0.0003
0.1	0.0226	0.0003
0.2	0.0234	0.0004
0.3	0.0246	0.0004
0.4	0.0263	0.0004
0.5	0.0278	0.0004
0.6	0.0296	0.0004
0.7	0.0311	0.0004
0.8	0.0325	0.0005
0.9	0.0341	0.0005
1	0.0355	0.0005

System: ethanol + 1-butyl-3-ethyl-1H-imidazol-3-ium diethyl phosphate; phases: Liquid, Air at 1 atmosphere
Fixed: Temperature, K = 298.15
Property: Surface tension liquid-gas, N/m (Liquid); method: Ring tensiometer
Mole fraction of 1-butyl-3-ethyl-1H-imidazol-3-ium diethyl phosphate	Surface tension liquid-gas, N/m	uncertainty
0	0.0219	0.0003
0.1	0.0226	0.0003
0.2	0.0236	0.0004
0.3	0.0247	0.0004
0.4	0.0261	0.0004
0.5	0.0276	0.0004
0.6	0.0285	0.0004
0.7	0.0295	0.0004
0.8	0.0305	0.0004
0.9	0.0314	0.0004
1	0.0322	0.0005

System: ethanol + 1-butyl-3-methylimidazolium dibutyl phosphate; phases: Liquid, Air at 1 atmosphere
Fixed: Temperature, K = 298.15
Property: Surface tension liquid-gas, N/m (Liquid); method: Ring tensiometer
Mole fraction of 1-butyl-3-methylimidazolium dibutyl phosphate	Surface tension liquid-gas, N/m	uncertainty
0	0.0219	0.0003
0.1	0.0225	0.0003
0.2	0.0235	0.0004
0.3	0.0245	0.0004
0.4	0.0259	0.0004
0.5	0.0266	0.0004
0.6	0.0273	0.0004
0.7	0.0278	0.0004
0.8	0.0283	0.0004
0.9	0.0288	0.0004
1	0.0294	0.0004
