Measured thermophysical data. Solubility and Dissolution Thermodynamic Data of Mefenamic Acid Crystals in Different Classes of Organic Solvents
Source: J. Chem. Eng. Data, 2013, 10.1021/je400714f
Compound 1: 2-((2,3-dimethylphenyl)amino)benzoic acid, C15H15NO2, InChI=1S/C15H15NO2/c1-10-6-5-9-13(11(10)2)16-14-8-4-3-7-12(14)15(17)18/h3-9,16H,1-2H3,(H,17,18), purity 98%
Compound 2: ethanol, C2H6O, InChI=1S/C2H6O/c1-2-3/h3H,2H2,1H3, purity 99.9%
Compound 3: propan-2-ol, C3H8O, InChI=1S/C3H8O/c1-3(2)4/h3-4H,1-2H3, purity 99.99%
Compound 4: N,N-dimethylethanamide, C4H9NO, InChI=1S/C4H9NO/c1-4(6)5(2)3/h1-3H3, purity 99%
Compound 5: dimethylformamide, C3H7NO, InChI=1S/C3H7NO/c1-4(2)3-5/h3H,1-2H3, purity 99%
Compound 6: acetone, C3H6O, InChI=1S/C3H6O/c1-3(2)4/h1-2H3, purity 99.5%
Compound 7: ethyl acetate, C4H8O2, InChI=1S/C4H8O2/c1-3-6-4(2)5/h3H2,1-2H3, purity 99.5%
Compound 8: hexane, C6H14, InChI=1S/C6H14/c1-3-5-6-4-2/h3-6H2,1-2H3, purity 99.9%
Compound 9: heptane, C7H16, InChI=1S/C7H16/c1-3-5-7-6-4-2/h3-7H2,1-2H3, purity 99%
Compound 10: cyclohexane, C6H12, InChI=1S/C6H12/c1-2-4-6-5-3-1/h1-6H2, purity 99%
Compound 11: water, H2O, InChI=1S/H2O/h1H2, purity 99.8%

System: 2-((2,3-dimethylphenyl)amino)benzoic acid + ethanol; phases: Liquid, Crystal
Fixed: Pressure, kPa = 101
Property: Mole fraction of 2-((2,3-dimethylphenyl)amino)benzoic acid (Liquid); method: gravimetric
Temperature, K	Mole fraction of 2-((2,3-dimethylphenyl)amino)benzoic acid	uncertainty
298	0.0019	0.0002
303	0.002	0.0002
308	0.0024	0.0003
313	0.0032	0.0004
318	0.0037	0.0004
323	0.0042	0.0005

System: 2-((2,3-dimethylphenyl)amino)benzoic acid + water; phases: Liquid, Crystal
Fixed: Pressure, kPa = 101
Property: Mole fraction of 2-((2,3-dimethylphenyl)amino)benzoic acid (Liquid); method: gravimetric
Temperature, K	Mole fraction of 2-((2,3-dimethylphenyl)amino)benzoic acid	uncertainty
298	0	1e-05
303	0	1e-05
308	0	1e-05
313	1e-05	1e-05
318	3e-05	1e-05
323	5e-05	1e-05

System: 2-((2,3-dimethylphenyl)amino)benzoic acid + dimethylformamide; phases: Liquid, Crystal
Fixed: Pressure, kPa = 101
Property: Mole fraction of 2-((2,3-dimethylphenyl)amino)benzoic acid (Liquid); method: gravimetric
Temperature, K	Mole fraction of 2-((2,3-dimethylphenyl)amino)benzoic acid	uncertainty
298	0.0171	0.0023
303	0.0208	0.0029
308	0.0275	0.0036
313	0.0327	0.004
318	0.0391	0.006
323	0.0551	0.0085

System: 2-((2,3-dimethylphenyl)amino)benzoic acid + acetone; phases: Liquid, Crystal
Fixed: Pressure, kPa = 101
Property: Mole fraction of 2-((2,3-dimethylphenyl)amino)benzoic acid (Liquid); method: gravimetric
Temperature, K	Mole fraction of 2-((2,3-dimethylphenyl)amino)benzoic acid	uncertainty
298	0.0054	0.0005
303	0.0055	0.0006
308	0.0065	0.0007
313	0.007	0.0008
318	0.0084	0.001
323	0.0098	0.0011

System: 2-((2,3-dimethylphenyl)amino)benzoic acid + propan-2-ol; phases: Liquid, Crystal
Fixed: Pressure, kPa = 101
Property: Mole fraction of 2-((2,3-dimethylphenyl)amino)benzoic acid (Liquid); method: gravimetric
Temperature, K	Mole fraction of 2-((2,3-dimethylphenyl)amino)benzoic acid	uncertainty
298	0.002	0.0003
303	0.0024	0.0003
308	0.0026	0.0003
313	0.0033	0.0004
318	0.004	0.0006
323	0.0053	0.0007

System: 2-((2,3-dimethylphenyl)amino)benzoic acid + N,N-dimethylethanamide; phases: Liquid, Crystal
Fixed: Pressure, kPa = 101
Property: Mole fraction of 2-((2,3-dimethylphenyl)amino)benzoic acid (Liquid); method: gravimetric
Temperature, K	Mole fraction of 2-((2,3-dimethylphenyl)amino)benzoic acid	uncertainty
298	0.1219	0.0138
303	0.1377	0.0152
308	0.1535	0.0163
313	0.1648	0.0171
318	0.1753	0.0183
323	0.1901	0.02

System: 2-((2,3-dimethylphenyl)amino)benzoic acid + ethyl acetate; phases: Liquid, Crystal
Fixed: Pressure, kPa = 101
Property: Mole fraction of 2-((2,3-dimethylphenyl)amino)benzoic acid (Liquid); method: gravimetric
Temperature, K	Mole fraction of 2-((2,3-dimethylphenyl)amino)benzoic acid	uncertainty
298	0.0039	0.0005
303	0.0045	0.0006
308	0.0055	0.0008
313	0.0071	0.0009
318	0.0079	0.0009
323	0.0096	0.0012

System: 2-((2,3-dimethylphenyl)amino)benzoic acid + hexane; phases: Liquid, Crystal
Fixed: Pressure, kPa = 101
Property: Mole fraction of 2-((2,3-dimethylphenyl)amino)benzoic acid (Liquid); method: gravimetric
Temperature, K	Mole fraction of 2-((2,3-dimethylphenyl)amino)benzoic acid	uncertainty
298	0.0013	0.0001
303	0.0014	0.0002
308	0.0016	0.0002
313	0.0018	0.0002
318	0.002	0.0002
323	0.0024	0.0003

System: 2-((2,3-dimethylphenyl)amino)benzoic acid + heptane; phases: Liquid, Crystal
Fixed: Pressure, kPa = 101
Property: Mole fraction of 2-((2,3-dimethylphenyl)amino)benzoic acid (Liquid); method: gravimetric
Temperature, K	Mole fraction of 2-((2,3-dimethylphenyl)amino)benzoic acid	uncertainty
298	0.0011	0.0001
303	0.0013	0.0002
308	0.0015	0.0002
313	0.0017	0.0002
318	0.0018	0.0002
323	0.0022	0.0003

System: 2-((2,3-dimethylphenyl)amino)benzoic acid + cyclohexane; phases: Liquid, Crystal
Fixed: Pressure, kPa = 101
Property: Mole fraction of 2-((2,3-dimethylphenyl)amino)benzoic acid (Liquid); method: gravimetric
Temperature, K	Mole fraction of 2-((2,3-dimethylphenyl)amino)benzoic acid	uncertainty
298	0.0009	0.0001
303	0.0009	0.0001
308	0.0011	0.0001
313	0.0012	0.0001
318	0.0014	0.0002
323	0.0016	0.0002
