Measured thermophysical data. Liquid Liquid Equilibria for the System Water + 1,3-Dichloro-2-propanol + Epichlorohydrin from (283.2 to 303.2) K
Source: J. Chem. Eng. Data, 2013, 10.1021/je400681a
Compound 1: 1,3-dichloro-2-propanol, C3H6Cl2O, InChI=1S/C3H6Cl2O/c4-1-3(6)2-5/h3,6H,1-2H2, purity 99%
Compound 2: 1-chloro-2,3-epoxypropane, C3H5ClO, InChI=1S/C3H5ClO/c4-1-3-2-5-3/h3H,1-2H2, purity 99%
Compound 3: water, H2O, InChI=1S/H2O/h1H2

System: 1,3-dichloro-2-propanol + 1-chloro-2,3-epoxypropane + water; phases: Liquid mixture 1, Liquid mixture 2
Fixed: Pressure, kPa = 0.1
Property: Mass fraction of water (Liquid mixture 1); method: Chromatography
Property: Mass fraction of water (Liquid mixture 2); method: Chromatography
Property: Mass fraction of 1,3-dichloro-2-propanol (Liquid mixture 2); method: Chromatography
Temperature, K	Mass fraction of 1,3-dichloro-2-propanol	Mass fraction of water	uncertainty	Mass fraction of water	uncertainty	Mass fraction of 1,3-dichloro-2-propanol	uncertainty
283.15	0	0.9321	0.009	0.0098	0.009	0	
283.15	0.1592	0.8408	0.0093	0.1055	0.0091	0.8945	
293.15	0	0.9329	0.009	0.0129	0.009	0	
293.15	0.0141	0.9224	0.0111	0.018	0.009	0.1038	
293.15	0.0286	0.9124	0.0102	0.0265	0.009	0.2166	
293.15	0.0395	0.9093	0.0098	0.0332	0.0091	0.3016	
293.15	0.0485	0.9041	0.0104	0.0378	0.009	0.3541	
293.15	0.0727	0.8896	0.0104	0.0537	0.0091	0.5209	
293.15	0.087	0.8825	0.0102	0.0639	0.0091	0.6016	
293.15	0.1054	0.8729	0.0107	0.0801	0.0091	0.6886	
293.15	0.14	0.8499	0.0108	0.0993	0.0094	0.8051	
283.15	0.0153	0.9205	0.0108	0.0161	0.009	0.1019	
293.15	0.1686	0.8314	0.0106	0.1308	0.0104	0.8692	
303.15	0	0.9293	0.009	0.0218	0.009	0	
303.15	0.0124	0.9268	0.0094	0.0315	0.009	0.0928	
303.15	0.0249	0.922	0.0104	0.0357	0.0091	0.2226	
303.15	0.0376	0.9124	0.0111	0.0568	0.0092	0.3128	
303.15	0.0604	0.8965	0.0107	0.062	0.0091	0.3613	
303.15	0.072	0.8905	0.0099	0.0773	0.0091	0.525	
303.15	0.0842	0.8861	0.0094	0.0837	0.0091	0.6098	
303.15	0.0949	0.8837	0.0107	0.1021	0.0093	0.6819	
303.15	0.1325	0.857	0.0108	0.1291	0.0098	0.7822	
283.15	0.0298	0.9123	0.0106	0.0209	0.009	0.2106	
303.15	0.1572	0.8428	0.0104	0.1656	0.0111	0.8344	
283.15	0.0427	0.9035	0.0109	0.0288	0.009	0.2983	
283.15	0.052	0.8972	0.0097	0.0347	0.0091	0.356	
283.15	0.0722	0.8913	0.0104	0.0529	0.0091	0.5092	
283.15	0.0936	0.8735	0.0106	0.0649	0.0091	0.5889	
283.15	0.1069	0.8711	0.0106	0.0759	0.0091	0.6832	
283.15	0.1442	0.8444	0.0106	0.0918	0.0091	0.8001	

System: 1-chloro-2,3-epoxypropane + water; phases: Liquid mixture 1, Liquid mixture 2
Fixed: Pressure, kPa = 0.1
Property: Mass fraction of water (Liquid mixture 1); method: Chromatography
Temperature, K	Mass fraction of water	uncertainty
283.15	0.9321	0.009
303.15	0.9293	0.009
293.15	0.9329	0.009

System: 1-chloro-2,3-epoxypropane + water; phases: Liquid mixture 2, Liquid mixture 1
Fixed: Pressure, kPa = 0.1
Property: Mass fraction of water (Liquid mixture 2); method: Chromatography
Temperature, K	Mass fraction of water	uncertainty
283.15	0.0098	0.009
303.15	0.0218	0.009
293.15	0.0129	0.009

System: 1,3-dichloro-2-propanol + water; phases: Liquid mixture 1, Liquid mixture 2
Fixed: Pressure, kPa = 0.1
Property: Mass fraction of water (Liquid mixture 1); method: Chromatography
Temperature, K	Mass fraction of water	uncertainty
293.15	0.8314	0.0106
283.15	0.8408	0.0093
303.15	0.8428	0.0104

System: 1,3-dichloro-2-propanol + water; phases: Liquid mixture 2, Liquid mixture 1
Fixed: Pressure, kPa = 0.1
Property: Mass fraction of water (Liquid mixture 2); method: Chromatography
Temperature, K	Mass fraction of water	uncertainty
293.15	0.1308	0.0104
283.15	0.1055	0.0091
303.15	0.1656	0.0111
