Measured thermophysical data. Measurements of the Speed of Sound in Liquid Toluene
Source: J. Chem. Eng. Data, 2013, 10.1021/je4001697
Compound 1: toluene, C7H8, InChI=1S/C7H8/c1-7-5-3-2-4-6-7/h2-6H,1H3, purity 99.7%

System: toluene; phases: Liquid
Property: Speed of sound, m/s (Liquid); method: Pulse-echo method
Temperature, K	Pressure, kPa	Speed of sound, m/s	uncertainty
239.9957	103.321	1571.05	1
239.996	1104.21	1574.99	1
239.9963	2104.94	1578.9	1
239.9958	3105.74	1582.79	1.02
239.9957	4106.28	1586.66	1.02
239.996	5107.43	1590.51	1.02
239.9964	6107.67	1594.31	1.02
239.9959	7108.38	1598.11	1.02
239.9961	8109.15	1601.89	1.02
239.996	9109.83	1605.65	1.03
239.9961	10110.5	1609.38	1.03
239.9966	12612.2	1618.62	1.04
239.9966	15113.8	1627.73	1.05
239.9963	17615.5	1636.72	1.05
239.9962	20117.1	1645.58	1.06
239.9963	25120.6	1662.98	1.07
239.9965	30124	1679.95	1.09
239.9966	35127.4	1696.5	1.1
239.9967	40130.8	1712.69	1.11
239.9969	45134.2	1728.51	1.13
239.997	50137.6	1743.99	1.13
239.9971	60144.4	1774.01	1.15
239.9971	70151.4	1802.89	1.19
239.9982	80158.2	1830.74	1.21
239.9976	90165.2	1857.63	1.23
239.9977	100172	1883.64	1.25
260.0012	102.528	1476.76	0.95
260.0022	1103.38	1481.1	1
260.0017	2103.99	1485.39	0.95
260.0015	3104.83	1489.66	0.95
260.0016	4105.61	1493.9	1
260.0023	5106.49	1498.11	0.97
260.002	6106.82	1502.29	0.97
260.0022	7107.53	1506.45	0.97
260.0018	8108.28	1510.58	0.97
260.0026	9109.01	1514.67	0.97
260.0021	10109.8	1518.75	0.98
260.0031	12611.8	1528.82	0.99
260.0029	17615.4	1548.49	1
260.0022	20117.2	1558.1	1
260.0022	25120.7	1576.92	1.02
260.0023	30124.1	1595.21	1.04
260.002	35127.6	1613.03	1.06
260.0026	40131	1630.39	1.06
260.0025	45134.5	1647.33	1.08
260.0025	50138.2	1663.87	1.08
260.0023	60145.4	1695.85	1.12
260.0017	70152.5	1726.52	1.14
260.0021	80159.5	1755.96	1.16
260.0023	90166.5	1784.35	1.19
260.0032	15113.6	1538.73	0.99
260.0022	100174	1811.73	1.21
280.0006	103.617	1385.49	0.9
280.0002	1104.53	1390.25	0.9
280.0007	2105.31	1394.98	0.9
280.0009	3106.24	1399.66	0.9
280.0009	4107.05	1404.31	0.9
280.0007	5107.65	1408.92	0.92
280.0008	6108.14	1413.5	0.9
280.0005	7108.79	1418.04	0.92
280.0006	8109.45	1422.55	0.92
280.0008	9110.12	1427.02	0.92
280.001	10110.8	1431.46	0.93
280.0008	12612.5	1442.42	0.94
280.0013	15114.2	1453.19	0.94
280.0012	17616	1463.78	0.95
280.0012	20118	1474.18	0.96
280.0012	25121.5	1494.49	0.97
280.0015	30125	1514.18	0.99
280.0017	35128.5	1533.29	1.01
280.0015	40132	1551.88	1.01
280.0023	45135	1569.95	1.03
280.0023	50138.5	1587.57	1.05
280.0029	60145.3	1621.55	1.07
280.0029	70152.3	1653.99	1.1
280.003	80159.1	1685.08	1.12
280.0034	90165.8	1714.93	1.14
280.003	100173	1743.69	1.16
299.9999	102.327	1297.15	0.85
300.0001	1103.24	1302.4	0.9
300.0001	2104.05	1307.6	0.9
299.9996	3104.69	1312.74	0.85
300.0049	103.332	1297.13	0.85
300.0063	1104.24	1302.37	0.85
300.0066	2104.88	1307.56	0.85
300.0068	3105.58	1312.7	0.9
300.0068	4106.36	1317.8	0.9
300.0069	5107.04	1322.86	0.87
300.0071	6107.45	1327.87	0.87
300.0074	7108.08	1332.83	0.87
300.008	8108.73	1337.75	0.87
300.0084	9109.36	1342.63	0.87
300.0084	10110	1347.47	0.88
300.0089	12611.7	1359.39	0.89
300.0069	15113.4	1371.09	0.9
300.0071	17615.2	1382.55	0.9
300.0069	20116.9	1393.79	0.92
300.0075	25120.3	1415.68	0.92
300.0076	30123.6	1436.82	0.94
300.0078	35126.9	1457.3	1
300.0082	40130.1	1477.14	0.97
300.0082	45133.3	1496.4	1
300.0085	50136.5	1515.12	1
300.0082	60143.1	1551.11	1.03
300.0078	70150.4	1585.36	1.05
300.0064	80158.5	1618.06	1.07
300.0065	90165.6	1649.39	1.11
300.0063	100172	1679.48	1.13
320.0036	102.82	1211.56	0.8
320.0031	102.83	1211.57	0.8
320.0033	1103.61	1217.34	0.8
320.0032	2104.26	1223.07	0.8
320.0031	3105.03	1228.73	0.8
320.0031	4105.82	1234.33	0.82
320.0027	5106.65	1239.88	0.82
320.0004	6107.07	1245.37	0.82
320.0004	7107.78	1250.8	0.8
320.0007	8108.51	1256.17	0.82
320.001	9109.16	1261.5	0.8
320.0009	10109.8	1266.77	0.83
320.0011	12611.5	1279.74	0.84
320.0007	15113.2	1292.43	0.85
320.001	17614.9	1304.82	0.87
320.0008	20116.6	1316.97	0.87
320.0008	25120.1	1340.53	0.89
320.0007	30123.5	1363.2	0.9
320.0006	35127.1	1385.08	0.91
319.9998	40130.9	1406.22	0.93
320	50137.9	1446.53	0.96
319.9997	45134.4	1426.68	0.94
320	60144.9	1484.55	0.98
320.0002	70152	1520.59	1.02
320.0001	80158.9	1554.89	1.04
320.0003	90165.9	1587.66	1.07
320.0003	100173	1619.07	1.09
339.9989	102.94	1128.51	0.75
339.9996	1103.68	1134.9	0.75
339.9999	2104.32	1141.21	0.75
339.9998	3105.04	1147.45	0.76
339.9999	4105.83	1153.61	0.77
339.9998	103.2	1128.51	0.75
339.9999	1104.11	1134.9	0.75
339.9999	2104.92	1141.22	0.75
339.9998	3105.78	1147.45	0.76
339.9996	4106.59	1153.62	0.77
339.9995	5107.25	1159.71	0.77
339.9998	6107.67	1165.72	0.77
339.9998	7108.35	1171.67	0.78
340	8109.05	1177.55	0.78
339.9998	9109.73	1183.36	0.78
339.9996	10110.3	1189.11	0.79
339.9999	12612	1203.23	0.8
339.9998	15113.7	1216.98	0.8
339.9999	17615.4	1230.4	0.82
340.0003	20117.1	1243.5	0.82
340.0004	25120.5	1268.83	0.84
340.0002	30124	1293.1	0.86
340.0003	35127.6	1316.43	0.87
340.0005	40131.2	1338.91	0.89
340.0002	45134.9	1360.61	0.91
340.0005	50138.8	1381.6	0.93
340.0005	60145.7	1421.66	0.95
340.0005	70152.6	1459.49	0.98
340.0005	80159.5	1495.39	1
340.0005	90166.5	1529.58	1.04
340.0005	100174	1562.28	1.06
359.996	103.401	1047.63	0.7
359.9953	1104.11	1054.73	0.7
359.9955	2104.83	1061.73	0.71
359.9957	3105.45	1068.62	0.72
359.9956	4106.44	1075.42	0.72
359.996	5107.02	1082.11	0.73
359.9956	6107.39	1088.72	0.73
359.9956	7108.04	1095.24	0.73
359.9957	8108.72	1101.68	0.74
359.996	9109.46	1108.04	0.75
359.996	10110.1	1114.32	0.75
359.9933	10111.1	1114.35	0.75
359.9957	12611.9	1129.68	0.75
359.9931	12612.6	1129.71	0.75
359.9933	15114	1144.62	0.77
359.9932	17615.6	1159.13	0.77
359.9942	20117.3	1173.26	0.79
359.993	25120.8	1200.47	0.8
359.9929	30124.2	1226.42	0.82
359.9932	35127.6	1251.26	0.84
359.9936	40131.1	1275.12	0.86
359.9929	45134.5	1298.07	0.86
359.9932	50137.9	1320.21	0.88
359.9936	60144.9	1362.33	0.91
359.9928	70152	1401.95	0.95
359.9934	80159	1439.41	0.97
359.9944	90166	1474.99	0.99
359.9922	100173	1508.93	1.02
380.0004	101.065	968.429	0.655
380.0003	1102.5	976.366	0.657
379.9997	2103.36	984.155	0.672
380.0002	3104.1	991.809	0.674
380.0004	4104.99	999.336	0.676
380.0004	5105.71	1006.74	0.68
380.0002	6106.12	1014.03	0.68
380.0003	7106.84	1021.2	0.7
380.0005	8107.59	1028.27	0.7
380.0004	9108.31	1035.23	0.7
380.0004	10109	1042.09	0.7
380.0007	12610.8	1058.83	0.72
380.0008	15113.4	1075.03	0.72
380.0003	17615.2	1090.72	0.74
380.0007	20116.9	1105.95	0.74
380.0008	25120.4	1135.15	0.77
380.0008	30123.9	1162.87	0.79
380.0003	35127.3	1189.28	0.79
380.0004	40130.8	1214.55	0.81
380.0011	45134	1238.78	0.83
380.0012	50137.5	1262.09	0.85
380.0016	60144.5	1306.28	0.88
380.0014	70151.6	1347.66	0.9
380.0015	80158.6	1386.66	0.94
380.0011	90165.6	1423.62	0.97
380.0013	100173	1458.77	0.99
400.0007	603.007	894.984	0.622
400.0005	1104.15	899.421	0.623
400.0005	2104.6	908.149	0.626
400.0008	3105.31	916.697	0.628
400.0006	4106	925.074	0.63
400.0006	5106.69	933.288	0.646
400.0009	6107.36	941.35	0.65
400.0008	7108.01	949.265	0.65
400.0008	8108.66	957.044	0.652
400.0011	9109.32	964.687	0.654
400.0008	10109.9	972.207	0.669
400.0015	12611.6	990.479	0.674
400.0008	15113.3	1008.07	0.69
400.0011	17615.1	1025.05	0.7
400.0007	20116.8	1041.47	0.7
400.0005	25120.2	1072.79	0.72
400.004	608.939	895.044	0.622
400.0031	4105.08	925.079	0.63
400.0031	15112.7	1008.09	0.69
400.003	30123.2	1102.36	0.74
400.0029	35126.7	1130.4	0.8
400.0016	40130.4	1157.11	0.79
400.0022	45134	1182.65	0.81
400.0017	50137.5	1207.15	0.81
400.0021	60144.5	1253.4	0.9
400.0018	70151.5	1296.54	0.88
400.0019	80158.5	1337.05	0.9
400.0019	90165.6	1375.32	0.94
400.0018	100173	1411.65	0.96
419.9963	1102.46	823.404	0.577
419.9965	2103.16	833.269	0.579
419.9963	3103.88	842.891	0.582
419.9962	4104.56	852.281	0.598
419.9965	5105.25	861.453	0.6
419.9964	6105.94	870.42	0.6
419.9964	7106.62	879.196	0.605
419.9964	8107.32	887.789	0.62
419.9963	9108.03	896.213	0.622
419.9961	10108.7	904.476	0.625
419.9962	12610.5	924.47	0.64
419.9962	15112.3	943.614	0.648
419.996	17614.1	961.991	0.667
419.9961	20115.9	979.684	0.671
419.9959	25119.4	1013.26	0.69
419.996	30122.8	1044.75	0.72
419.9959	35126.3	1074.47	0.74
419.9961	40129.8	1102.67	0.74
419.996	45133.2	1129.52	0.76
419.996	50136.7	1155.2	0.8
419.9957	60143.9	1203.5	0.8
419.9958	70151	1248.37	0.85
419.9955	80158	1290.36	0.88
419.9957	90165.1	1329.92	0.92
419.9959	100172	1367.39	0.94
