Measured thermophysical data. Thermodynamic Properties of Binary Mixtures Containing N,N-Dimethylacetamide + 2-Alkanol: Experimental Data and Modeling
Source: J. Chem. Eng. Data, 2014, 10.1021/je400917j
Compound 1: N,N-dimethylethanamide, C4H9NO, InChI=1S/C4H9NO/c1-4(6)5(2)3/h1-3H3, purity 99%
Compound 2: propan-2-ol, C3H8O, InChI=1S/C3H8O/c1-3(2)4/h3-4H,1-2H3, purity 99%
Compound 3: butan-2-ol, C4H10O, InChI=1S/C4H10O/c1-3-4(2)5/h4-5H,3H2,1-2H3, purity 99%
Compound 4: pentan-2-ol, C5H12O, InChI=1S/C5H12O/c1-3-4-5(2)6/h5-6H,3-4H2,1-2H3, purity 99%
Compound 5: 2-hexanol, C6H14O, InChI=1S/C6H14O/c1-3-4-5-6(2)7/h6-7H,3-5H2,1-2H3, purity 99%
Compound 6: 2-heptanol, C7H16O, InChI=1S/C7H16O/c1-3-4-5-6-7(2)8/h7-8H,3-6H2,1-2H3, purity 99%

System: N,N-dimethylethanamide; phases: Liquid
Fixed: Pressure, kPa = 101
Property: Mass density, kg/m3 (Liquid); method: Vibrating tube method
Temperature, K	Mass density, kg/m3	uncertainty
298.15	936.5	0.2
303.15	932	0.2
308.15	927.8	0.2
313.15	923.5	0.2

System: N,N-dimethylethanamide; phases: Liquid
Fixed: Pressure, kPa = 101
Property: Viscosity, Pa*s (Liquid); method: CAPTUB:UFactor:4
Temperature, K	Viscosity, Pa*s	uncertainty
298.15	0.00094	3e-05
303.15	0.00087	3e-05
308.15	0.00082	3e-05
313.15	0.00075	2e-05
308.15	0.0008	3e-05

System: propan-2-ol; phases: Liquid
Fixed: Pressure, kPa = 101
Property: Mass density, kg/m3 (Liquid); method: Vibrating tube method
Temperature, K	Mass density, kg/m3	uncertainty
298.15	781.1	0.2
303.15	776.8	0.2
308.15	772.4	0.2
313.15	767.8	0.2

System: propan-2-ol; phases: Liquid
Fixed: Pressure, kPa = 101
Property: Viscosity, Pa*s (Liquid); method: CAPTUB:UFactor:4
Temperature, K	Viscosity, Pa*s	uncertainty
298.15	0.00205	6e-05
303.15	0.00179	5e-05
308.15	0.00156	5e-05
313.15	0.00135	4e-05

System: butan-2-ol; phases: Liquid
Fixed: Pressure, kPa = 101
Property: Mass density, kg/m3 (Liquid); method: Vibrating tube method
Temperature, K	Mass density, kg/m3	uncertainty
298.15	803	0.2
303.15	798.9	0.2
308.15	795	0.2
313.15	790.2	0.2

System: butan-2-ol; phases: Liquid
Fixed: Pressure, kPa = 101
Property: Viscosity, Pa*s (Liquid); method: CAPTUB:UFactor:4
Temperature, K	Viscosity, Pa*s	uncertainty
298.15	0.0031	9e-05
303.15	0.00253	7e-05
308.15	0.00213	6e-05
313.15	0.0018	5e-05

System: pentan-2-ol; phases: Liquid
Fixed: Pressure, kPa = 101
Property: Mass density, kg/m3 (Liquid); method: Vibrating tube method
Temperature, K	Mass density, kg/m3	uncertainty
298.15	805.4	0.2
303.15	800.9	0.2
308.15	796.9	0.2
313.15	792.6	0.2

System: pentan-2-ol; phases: Liquid
Fixed: Pressure, kPa = 101
Property: Viscosity, Pa*s (Liquid); method: CAPTUB:UFactor:4
Temperature, K	Viscosity, Pa*s	uncertainty
298.15	0.0035	0.000101
303.15	0.00283	8.2e-05
308.15	0.00235	6.9e-05
313.15	0.00198	5.8e-05

System: 2-hexanol; phases: Liquid
Fixed: Pressure, kPa = 101
Property: Mass density, kg/m3 (Liquid); method: Vibrating tube method
Temperature, K	Mass density, kg/m3	uncertainty
298.15	810.1	0.2
303.15	806.1	0.2
308.15	802.1	0.2
313.15	798	0.2

System: 2-hexanol; phases: Liquid
Fixed: Pressure, kPa = 101
Property: Viscosity, Pa*s (Liquid); method: CAPTUB:UFactor:6
Temperature, K	Viscosity, Pa*s	uncertainty
298.15	0.0041	0.000149
303.15	0.00341	0.000125
308.15	0.00282	0.000104
313.15	0.00222	8.3e-05

System: 2-heptanol; phases: Liquid
Fixed: Pressure, kPa = 101
Property: Mass density, kg/m3 (Liquid); method: Vibrating tube method
Temperature, K	Mass density, kg/m3	uncertainty
298.15	813.2	0.2
303.15	809.5	0.2
308.15	805.7	0.2
313.15	801.5	0.2

System: 2-heptanol; phases: Liquid
Fixed: Pressure, kPa = 101
Property: Viscosity, Pa*s (Liquid); method: CAPTUB:UFactor:4
Temperature, K	Viscosity, Pa*s	uncertainty
298.15	0.0053	0.00015
303.15	0.00448	0.000128
308.15	0.00368	0.000106
313.15	0.00296	8.6e-05

System: propan-2-ol + N,N-dimethylethanamide; phases: Liquid
Fixed: Pressure, kPa = 101
Property: Mass density, kg/m3 (Liquid); method: Vibrating tube method
Temperature, K	Mole fraction of N,N-dimethylethanamide	Mass density, kg/m3	uncertainty
298.15	0	781.1	0.2
298.15	0.081	796.1	0.2
298.15	0.16	810.3	0.2
298.15	0.2399	824.2	0.2
298.15	0.3499	842.7	0.2
298.15	0.4399	857.1	0.2
298.15	0.5598	875.6	0.2
298.15	0.6496	888.9	0.2
298.15	0.7394	901.7	0.2
298.15	0.8495	916.8	0.2
298.15	0.9399	928.8	0.2
298.15	1	936.5	0.2
303.15	0	776.8	0.2
303.15	0.081	791.8	0.2
303.15	0.16	806	0.2
303.15	0.2399	819.9	0.2
303.15	0.3499	838.2	0.2
303.15	0.4399	852.7	0.2
303.15	0.5598	871.1	0.2
303.15	0.6496	884.4	0.2
303.15	0.7394	897.2	0.2
303.15	0.8495	912.4	0.2
303.15	0.9399	924.3	0.2
303.15	1	932	0.2
308.15	0	772.4	0.2
308.15	0.081	787.4	0.2
308.15	0.16	801.6	0.2
308.15	0.2399	815.4	0.2
308.15	0.3499	833.8	0.2
308.15	0.4399	848.2	0.2
308.15	0.5598	866.7	0.2
308.15	0.6496	880	0.2
308.15	0.7394	892.8	0.2
308.15	0.8495	908	0.2
308.15	0.9399	920	0.2
308.15	1	927.8	0.2
313.15	0	767.8	0.2
313.15	0.081	782.8	0.2
313.15	0.16	797	0.2
313.15	0.2399	810.9	0.2
313.15	0.3499	829.2	0.2
313.15	0.4399	842.9	0.2
313.15	0.5598	862.2	0.2
313.15	0.6496	875.6	0.2
313.15	0.7394	888.5	0.2
313.15	0.8495	903.7	0.2
313.15	0.9399	915.6	0.2
313.15	1	923.5	0.2

System: propan-2-ol + N,N-dimethylethanamide; phases: Liquid
Fixed: Pressure, kPa = 101
Property: Viscosity, Pa*s (Liquid); method: CAPTUB:UFactor:4
Temperature, K	Mole fraction of N,N-dimethylethanamide	Viscosity, Pa*s	uncertainty
298.15	0	0.00205	6e-05
298.15	0.081	0.00168	5e-05
298.15	0.16	0.00147	4e-05
298.15	0.2399	0.00133	4e-05
298.15	0.3499	0.00121	4e-05
298.15	0.4399	0.00113	3e-05
298.15	0.5598	0.00106	3e-05
298.15	0.6496	0.00102	3e-05
298.15	0.7394	0.00099	3e-05
298.15	0.8495	0.00097	3e-05
298.15	0.9399	0.00095	3e-05
298.15	1	0.00094	3e-05
303.15	0	0.00179	5e-05
303.15	0.081	0.00153	5e-05
303.15	0.16	0.00132	4e-05
303.15	0.2399	0.00119	4e-05
303.15	0.3499	0.00108	3e-05
303.15	0.4399	0.00103	3e-05
303.15	0.5598	0.00097	3e-05
303.15	0.6496	0.00094	3e-05
303.15	0.7394	0.00092	3e-05
303.15	0.8495	0.0009	3e-05
303.15	0.9399	0.00089	3e-05
303.15	1	0.00087	3e-05
308.15	0	0.00156	5e-05
308.15	0.081	0.00139	4e-05
308.15	0.16	0.00123	4e-05
308.15	0.2399	0.00111	3e-05
308.15	0.3499	0.00101	3e-05
308.15	0.4399	0.00096	3e-05
308.15	0.5598	0.00091	3e-05
308.15	0.6496	0.00088	3e-05
308.15	0.7394	0.00086	3e-05
308.15	0.8495	0.00084	3e-05
308.15	0.9399	0.000823	2.6e-05
308.15	1	0.00082	3e-05
313.15	0	0.00135	4e-05
313.15	0.081	0.00122	4e-05
313.15	0.16	0.0011	3e-05
313.15	0.2399	0.001	3e-05
313.15	0.3499	0.00092	3e-05
313.15	0.4399	0.00087	3e-05
313.15	0.5598	0.00082	3e-05
313.15	0.6496	0.0008	3e-05
313.15	0.7394	0.00078	2e-05
313.15	0.8495	0.00076	2e-05
313.15	0.9399	0.00075	2e-05
313.15	1	0.00075	2e-05

System: butan-2-ol + N,N-dimethylethanamide; phases: Liquid
Fixed: Pressure, kPa = 101
Property: Mass density, kg/m3 (Liquid); method: Vibrating tube method
Temperature, K	Mole fraction of N,N-dimethylethanamide	Mass density, kg/m3	uncertainty
298.15	0	803	0.2
298.15	0.0812	813.5	0.2
298.15	0.1602	823.6	0.2
298.15	0.2401	833.9	0.2
298.15	0.3499	848.2	0.2
298.15	0.4355	859.4	0.2
298.15	0.56	876	0.2
298.15	0.65	888.1	0.2
298.15	0.7398	900.3	0.2
298.15	0.8498	915.4	0.2
298.15	0.9389	927.8	0.2
298.15	1	936.5	0.2
303.15	0	798.9	0.2
303.15	0.0812	808.9	0.2
303.15	0.1602	818.7	0.2
303.15	0.2401	828.7	0.2
303.15	0.3499	842.6	0.2
303.15	0.4355	853.8	0.2
303.15	0.56	870.3	0.2
303.15	0.65	882.5	0.2
303.15	0.7398	894.9	0.2
303.15	0.8498	910.3	0.2
303.15	0.9389	923.1	0.2
303.15	1	932	0.2
308.15	0	795	0.2
308.15	0.0812	804.1	0.2
308.15	0.1602	813.6	0.2
308.15	0.2401	823.7	0.2
308.15	0.3499	837.1	0.2
308.15	0.4355	848	0.2
308.15	0.56	864.7	0.2
308.15	0.65	876.8	0.2
308.15	0.7398	890.2	0.2
308.15	0.8498	906.1	0.2
308.15	0.9389	918.9	0.2
308.15	1	927.8	0.2
313.15	0	790.2	0.2
313.15	0.0812	799.4	0.2
313.15	0.1602	808.6	0.2
313.15	0.2401	818.1	0.2
313.15	0.3499	831.6	0.2
313.15	0.4355	842.5	0.2
313.15	0.56	859	0.2
313.15	0.65	871.4	0.2
313.15	0.7398	884.2	0.2
313.15	0.8498	900.3	0.2
313.15	0.9389	914	0.2
313.15	1	923.5	0.2

System: butan-2-ol + N,N-dimethylethanamide; phases: Liquid
Fixed: Pressure, kPa = 101
Property: Viscosity, Pa*s (Liquid); method: CAPTUB:UFactor:4
Temperature, K	Mole fraction of N,N-dimethylethanamide	Viscosity, Pa*s	uncertainty
298.15	0	0.0031	9e-05
298.15	0.0812	0.00257	8e-05
298.15	0.1602	0.00216	6e-05
298.15	0.2401	0.00181	5e-05
298.15	0.3499	0.00145	4e-05
298.15	0.4355	0.00127	4e-05
298.15	0.56	0.00114	3e-05
298.15	0.65	0.00108	3e-05
298.15	0.7398	0.00103	3e-05
298.15	0.8498	0.00099	3e-05
298.15	0.9389	0.00096	3e-05
298.15	1	0.00094	3e-05
303.15	0	0.00253	7e-05
303.15	0.0812	0.00219	6e-05
303.15	0.1602	0.00188	6e-05
303.15	0.2401	0.00161	5e-05
303.15	0.3499	0.00135	4e-05
303.15	0.4355	0.00121	4e-05
303.15	0.56	0.00109	3e-05
303.15	0.65	0.00103	3e-05
303.15	0.7398	0.00098	3e-05
303.15	0.8498	0.00093	3e-05
303.15	0.9389	0.00091	3e-05
303.15	1	0.00087	3e-05
308.15	0	0.00213	6e-05
308.15	0.0812	0.00189	6e-05
308.15	0.1602	0.00165	5e-05
308.15	0.2401	0.00145	4e-05
308.15	0.3499	0.00125	4e-05
308.15	0.4355	0.00114	3e-05
308.15	0.56	0.00102	3e-05
308.15	0.65	0.00095	3e-05
308.15	0.7398	0.00091	3e-05
308.15	0.8498	0.00086	3e-05
308.15	0.9389	0.00082	3e-05
308.15	1	0.0008	3e-05
313.15	0	0.0018	5e-05
313.15	0.0812	0.00162	5e-05
313.15	0.1602	0.00144	4e-05
313.15	0.2401	0.00127	4e-05
313.15	0.3499	0.00112	3e-05
313.15	0.4355	0.00103	3e-05
313.15	0.56	0.00093	3e-05
313.15	0.65	0.00088	3e-05
313.15	0.7398	0.00084	3e-05
313.15	0.8498	0.0008	3e-05
313.15	0.9389	0.00077	2e-05
313.15	1	0.00075	2e-05

System: N,N-dimethylethanamide + pentan-2-ol; phases: Liquid
Fixed: Pressure, kPa = 101
Property: Mass density, kg/m3 (Liquid); method: Vibrating tube method
Temperature, K	Mole fraction of N,N-dimethylethanamide	Mass density, kg/m3	uncertainty
298.15	0	805.4	0.2
298.15	0.0811	813.4	0.2
298.15	0.16	821.8	0.2
298.15	0.2399	830.7	0.2
298.15	0.35	843.5	0.2
298.15	0.4398	854.5	0.2
298.15	0.5595	870.1	0.2
298.15	0.6499	882.5	0.2
298.15	0.7398	895.4	0.2
298.15	0.8499	912.1	0.2
298.15	0.9398	926.5	0.2
298.15	1	936.5	0.2
303.15	0	800.9	0.2
303.15	0.0811	809	0.2
303.15	0.16	817.3	0.2
303.15	0.2399	826	0.2
303.15	0.35	838.7	0.2
303.15	0.4398	849.6	0.2
303.15	0.5595	865	0.2
303.15	0.6499	877.5	0.2
303.15	0.7398	890.4	0.2
303.15	0.8499	907.3	0.2
303.15	0.9398	921.9	0.2
303.15	1	932	0.2
308.15	0	796.9	0.2
308.15	0.0811	804.9	0.2
308.15	0.16	813	0.2
308.15	0.2399	821.6	0.2
308.15	0.35	834.1	0.2
308.15	0.4398	845	0.2
308.15	0.5595	860.4	0.2
308.15	0.6499	872.8	0.2
308.15	0.7398	885.8	0.2
308.15	0.8499	902.8	0.2
308.15	0.9398	917.5	0.2
308.15	1	927.8	0.2
313.15	0	792.6	0.2
313.15	0.0811	800.3	0.2
313.15	0.16	808.2	0.2
313.15	0.2399	816.6	0.2
313.15	0.35	828.9	0.2
313.15	0.4398	839.6	0.2
313.15	0.5595	854.9	0.2
313.15	0.6499	867.4	0.2
313.15	0.7398	880.5	0.2
313.15	0.8499	897.8	0.2
313.15	0.9398	913	0.2
313.15	1	923.5	0.2

System: N,N-dimethylethanamide + pentan-2-ol; phases: Liquid
Fixed: Pressure, kPa = 101
Property: Viscosity, Pa*s (Liquid); method: CAPTUB:UFactor:4
Temperature, K	Mole fraction of N,N-dimethylethanamide	Viscosity, Pa*s	uncertainty
298.15	0	0.0035	0.000101
298.15	0.0811	0.00287	8.3e-05
298.15	0.16	0.00235	6.9e-05
298.15	0.2399	0.00193	5.7e-05
298.15	0.35	0.00152	4.5e-05
298.15	0.4398	0.0013	3.9e-05
298.15	0.5595	0.00113	3.4e-05
298.15	0.6499	0.00105	3.2e-05
298.15	0.7398	0.00099	3e-05
298.15	0.8499	0.00095	2.9e-05
298.15	0.9398	0.000938	2.9e-05
298.15	1	0.00094	2.9e-05
303.15	0	0.00283	8.2e-05
303.15	0.0811	0.00242	7.1e-05
303.15	0.16	0.00201	5.9e-05
303.15	0.2399	0.00169	5e-05
303.15	0.35	0.00138	4.1e-05
303.15	0.4398	0.00121	3.6e-05
303.15	0.5595	0.00107	3.3e-05
303.15	0.6499	0.00099	3e-05
303.15	0.7398	0.00093	2.9e-05
303.15	0.8499	0.00089	2.7e-05
303.15	0.9398	0.000878	2.7e-05
303.15	1	0.00087	2.7e-05
308.15	0	0.00235	6.9e-05
308.15	0.0811	0.00208	6.1e-05
308.15	0.16	0.0018	5.3e-05
308.15	0.2399	0.00157	4.7e-05
308.15	0.35	0.00129	3.9e-05
308.15	0.4398	0.00114	3.5e-05
308.15	0.5595	0.00099	3e-05
308.15	0.6499	0.00091	2.8e-05
308.15	0.7398	0.00086	2.7e-05
308.15	0.8499	0.00082	2.5e-05
308.15	0.9398	0.000804	2.5e-05
308.15	1	0.0008	2.5e-05
313.15	0	0.00198	5.8e-05
313.15	0.0811	0.00175	5.2e-05
313.15	0.16	0.00152	4.5e-05
313.15	0.2399	0.00133	4e-05
313.15	0.35	0.00113	3.4e-05
313.15	0.4398	0.00101	3.1e-05
313.15	0.5595	0.00089	2.7e-05
313.15	0.6499	0.00083	2.6e-05
313.15	0.7398	0.000793	2.5e-05
313.15	0.8499	0.000761	2.4e-05
313.15	0.9398	0.000752	2.4e-05
313.15	1	0.00075	2.3e-05

System: N,N-dimethylethanamide + 2-hexanol; phases: Liquid
Fixed: Pressure, kPa = 101
Property: Mass density, kg/m3 (Liquid); method: Vibrating tube method
Temperature, K	Mole fraction of N,N-dimethylethanamide	Mass density, kg/m3	uncertainty
298.15	0	810.1	0.2
298.15	0.0817	816.9	0.2
298.15	0.1606	824	0.2
298.15	0.2405	831.5	0.2
298.15	0.3506	842.9	0.2
298.15	0.4404	852.9	0.2
298.15	0.5601	867.5	0.2
298.15	0.6505	879.6	0.2
298.15	0.7405	892.6	0.2
298.15	0.8504	909.9	0.2
298.15	0.9405	925.4	0.2
298.15	1	936.5	0.2
303.15	0	806.1	0.2
303.15	0.0817	812.8	0.2
303.15	0.1606	819.7	0.2
303.15	0.2405	827.1	0.2
303.15	0.3506	838.3	0.2
303.15	0.4404	848.2	0.2
303.15	0.5601	862.8	0.2
303.15	0.6505	874.8	0.2
303.15	0.7405	887.8	0.2
303.15	0.8504	905.2	0.2
303.15	0.9405	920.8	0.2
303.15	1	932	0.2
308.15	0	802.1	0.2
308.15	0.0817	808.6	0.2
308.15	0.1606	815.4	0.2
308.15	0.2405	822.7	0.2
308.15	0.3506	833.8	0.2
308.15	0.4404	843.6	0.2
308.15	0.5601	858.1	0.2
308.15	0.6505	870.1	0.2
308.15	0.7405	883.2	0.2
308.15	0.8504	900.7	0.2
308.15	0.9405	916.5	0.2
308.15	1	927.8	0.2
313.15	0	798	0.2
313.15	0.0817	804.3	0.2
313.15	0.1606	810.9	0.2
313.15	0.2405	818.1	0.2
313.15	0.3506	829	0.2
313.15	0.4404	838.8	0.2
313.15	0.5601	853.3	0.2
313.15	0.6505	865.4	0.2
313.15	0.7405	878.4	0.2
313.15	0.8504	896.2	0.2
313.15	0.9405	912.2	0.2
313.15	1	923.5	0.2

System: N,N-dimethylethanamide + 2-hexanol; phases: Liquid
Fixed: Pressure, kPa = 101
Property: Viscosity, Pa*s (Liquid); method: CAPTUB:UFactor:6
Temperature, K	Mole fraction of N,N-dimethylethanamide	Viscosity, Pa*s	uncertainty
298.15	0	0.0041	0.000149
298.15	0.0817	0.00346	0.000127
298.15	0.1606	0.00287	0.000106
298.15	0.2405	0.00235	8.8e-05
298.15	0.3506	0.00182	6.9e-05
298.15	0.4404	0.00154	5.9e-05
298.15	0.5601	0.00129	5e-05
298.15	0.6505	0.00114	4.5e-05
298.15	0.7405	0.00103	4.1e-05
298.15	0.8504	0.00097	3.8e-05
298.15	0.9405	0.00095	3.8e-05
298.15	1	0.00094	3.7e-05
303.15	0	0.00341	0.000125
303.15	0.0817	0.00289	0.000107
303.15	0.1606	0.00241	9e-05
303.15	0.2405	0.002	7.5e-05
303.15	0.3506	0.00158	6e-05
303.15	0.4404	0.00135	5.2e-05
303.15	0.5601	0.00116	4.5e-05
303.15	0.6505	0.00103	4.1e-05
303.15	0.7405	0.00095	3.8e-05
303.15	0.8504	0.0009	3.6e-05
303.15	0.9405	0.000882	3.5e-05
303.15	1	0.00087	3.5e-05
308.15	0	0.00282	0.000104
308.15	0.0817	0.00242	9e-05
308.15	0.1606	0.00205	7.7e-05
308.15	0.2405	0.00176	6.7e-05
308.15	0.3506	0.00144	5.5e-05
308.15	0.4404	0.00125	4.9e-05
308.15	0.5601	0.00106	4.2e-05
308.15	0.6505	0.00094	3.7e-05
308.15	0.7405	0.00087	3.5e-05
308.15	0.8504	0.00082	3.3e-05
308.15	0.9405	0.00081	3.3e-05
308.15	1	0.0008	3.2e-05
313.15	0	0.00222	8.3e-05
313.15	0.0817	0.0018	6.8e-05
313.15	0.1606	0.00152	5.8e-05
313.15	0.2405	0.00133	5.1e-05
313.15	0.3506	0.00115	4.5e-05
313.15	0.4404	0.00104	4.1e-05
313.15	0.5601	0.00092	3.7e-05
313.15	0.6505	0.00085	3.4e-05
313.15	0.7405	0.0008	3.2e-05
313.15	0.8504	0.00077	3.1e-05
313.15	0.9405	0.000756	3.1e-05
313.15	1	0.00075	3.1e-05

System: N,N-dimethylethanamide + 2-heptanol; phases: Liquid
Fixed: Pressure, kPa = 101
Property: Mass density, kg/m3 (Liquid); method: Vibrating tube method
Temperature, K	Mole fraction of N,N-dimethylethanamide	Mass density, kg/m3	uncertainty
298.15	0	813.2	0.2
298.15	0.0806	819	0.2
298.15	0.1595	825	0.2
298.15	0.2394	831.6	0.2
298.15	0.3495	841.7	0.2
298.15	0.4393	850.8	0.2
298.15	0.559	864.7	0.2
298.15	0.6494	876.4	0.2
298.15	0.7393	889.4	0.2
298.15	0.8494	907.5	0.2
298.15	0.9393	924.2	0.2
298.15	1	936.5	0.2
303.15	0	809.5	0.2
303.15	0.0806	814.8	0.2
303.15	0.1595	820.7	0.2
303.15	0.2394	827.1	0.2
303.15	0.3495	837.1	0.2
303.15	0.4393	846.2	0.2
303.15	0.559	859.9	0.2
303.15	0.6494	871.7	0.2
303.15	0.7393	884.7	0.2
303.15	0.8494	902.8	0.2
303.15	0.9393	919.7	0.2
303.15	1	932	0.2
308.15	0	805.7	0.2
308.15	0.0806	810.8	0.2
308.15	0.1595	816.5	0.2
308.15	0.2394	822.7	0.2
308.15	0.3495	832.6	0.2
308.15	0.4393	841.5	0.2
308.15	0.559	855.1	0.2
308.15	0.6494	866.8	0.2
308.15	0.7393	879.9	0.2
308.15	0.8494	898.1	0.2
308.15	0.9393	915.3	0.2
308.15	1	927.8	0.2
313.15	0	801.5	0.2
313.15	0.0806	806.5	0.2
313.15	0.1595	812.1	0.2
313.15	0.2394	818.1	0.2
313.15	0.3495	827.7	0.2
313.15	0.4393	836.6	0.2
313.15	0.559	850.2	0.2
313.15	0.6494	861.9	0.2
313.15	0.7393	875.1	0.2
313.15	0.8494	893.4	0.2
313.15	0.9393	910.8	0.2
313.15	1	923.5	0.2

System: N,N-dimethylethanamide + 2-heptanol; phases: Liquid
Fixed: Pressure, kPa = 101
Property: Viscosity, Pa*s (Liquid); method: CAPTUB:UFactor:4
Temperature, K	Mole fraction of N,N-dimethylethanamide	Viscosity, Pa*s	uncertainty
298.15	0	0.0053	0.00015
298.15	0.0806	0.00453	0.00013
298.15	0.1595	0.00377	0.000109
298.15	0.2394	0.00311	9e-05
298.15	0.3495	0.00246	7.2e-05
298.15	0.4393	0.00207	6.1e-05
298.15	0.559	0.00165	4.9e-05
298.15	0.6494	0.00141	4.2e-05
298.15	0.7393	0.0012	3.6e-05
298.15	0.8494	0.00106	3.2e-05
298.15	0.9393	0.00098	3e-05
298.15	1	0.00094	2.9e-05
303.15	0	0.00448	0.000128
303.15	0.0806	0.00375	0.000108
303.15	0.1595	0.00317	9.2e-05
303.15	0.2394	0.0026	7.6e-05
303.15	0.3495	0.00208	6.1e-05
303.15	0.4393	0.001775	5.2e-05
303.15	0.559	0.001436	4.3e-05
303.15	0.6494	0.001219	3.7e-05
303.15	0.7393	0.00109	3.3e-05
303.15	0.8494	0.00097	3e-05
303.15	0.9393	0.000906	2.8e-05
303.15	1	0.00087	2.7e-05
308.15	0	0.00368	0.000106
308.15	0.0806	0.00299	8.7e-05
308.15	0.1595	0.00254	7.4e-05
308.15	0.2394	0.00218	6.4e-05
308.15	0.3495	0.00178	5.3e-05
308.15	0.4393	0.00154	4.6e-05
308.15	0.559	0.00126	3.8e-05
308.15	0.6494	0.00108	3.3e-05
308.15	0.7393	0.00098	3e-05
308.15	0.8494	0.00088	2.7e-05
308.15	0.9393	0.00082	2.5e-05
308.15	1	0.0008	2.5e-05
313.15	0	0.00296	8.6e-05
313.15	0.0806	0.00251	7.3e-05
313.15	0.1595	0.00213	6.3e-05
313.15	0.2394	0.00182	5.4e-05
313.15	0.3495	0.00148	4.4e-05
313.15	0.4393	0.00128	3.8e-05
313.15	0.559	0.00106	3.2e-05
313.15	0.6494	0.00095	2.9e-05
313.15	0.7393	0.00087	2.7e-05
313.15	0.8494	0.0008	2.5e-05
313.15	0.9393	0.00076	2.4e-05
313.15	1	0.00075	2.3e-05
