Measured thermophysical data. Heat Capacity and Standard Thermodynamic Functions of Triphenylantimony Bis(1-adamantanecarboxylate) over the Range from (0 to 520) K
Source: J. Chem. Eng. Data, 2013, 10.1021/je400535t
Compound 1: triphenyl-.lambda.5-stibanediyl bis(adamantane-1-carboxylate), C40H45O4Sb, InChI=1S/2C11H16O2.3C6H5.Sb/c2*12-10(13)11-4-7-1-8(5-11)3-9(2-7)6-11;3*1-2-4-6-5-3-1;/h2*7-9H,1-6H2,(H,12,13);3*1-5H;/q;;;;;+2/p-2

System: triphenyl-.lambda.5-stibanediyl bis(adamantane-1-carboxylate); phases: Crystal
Fixed: Pressure, kPa = 101.325
Property: Molar heat capacity at constant pressure, J/K/mol (Crystal); method: Small (less than 1 g) adiabatic calorimetry
Temperature, K	Molar heat capacity at constant pressure, J/K/mol	uncertainty
6.41	4.28	0.19
6.94	5	0.22
7.48	6.19	0.27
8.31	8.15	0.35
9.04	10	0.4
9.66	11.6	0.5
10.2	13.1	0.6
10.77	14.6	0.6
11.22	16	0.7
11.69	17.3	0.7
12.18	18.9	0.8
12.78	20.8	0.9
13.14	22	0.9
13.61	23.6	1
14.14	25.5	1.1
14.53	26.8	1.1
15.03	28.42	0.46
15.43	29.84	0.48
15.87	31.16	0.49
16.49	33.38	0.52
17.1	35.31	0.55
17.71	37.46	0.58
18.32	39.7	0.61
18.89	41.48	0.63
19.52	43.6	0.66
20.03	45.33	0.68
21.3	50	0.74
21.81	51.4	0.75
22.55	53.73	0.78
23.78	58.14	0.83
24.3	60.3	0.86
25.02	62.63	0.88
26.25	66.95	0.93
26.83	69	0.95
27.53	71.5	0.98
28.8	76.1	1.03
29.43	78.2	1.05
30.12	81.06	1.04
31.46	85.96	1.1
32.84	90.86	1.16
33.37	92.7	1.18
34.23	95.66	1.22
35.64	100.4	1.3
37.11	105.3	1.3
38.61	110.2	1.4
39.32	112.6	1.4
40.13	115	0.8
41.68	119.9	0.9
43.2	124.6	0.9
44.84	129.5	0.9
46.46	134.4	1
48.11	139.3	1
49.81	144.3	1
51.54	149.4	1.1
53.3	154.6	1.1
55.08	159.8	1.2
56.92	165	1.2
58.79	170.2	1.2
60.68	175.3	1.3
62.61	180.4	1.3
64.56	185.5	1.3
65.56	188.2	1.4
66.56	190.7	1.4
67.71	194	1.4
68.61	196.1	1.4
69.83	198.9	1.4
71.36	203.1	1.5
72.79	206.9	1.5
74.91	212.3	1.5
76.18	214.9	1.5
77.05	217.4	1.6
79.88	223.6	1.6
82.03	228.1	1.6
82.81	229.3	1.6
84.2	232.4	1.7
84.88	233.7	1.7
86.94	238	1.7
87.67	240.1	1.7
89	242.4	1.7
90.77	246	1.7
91.06	246.7	1.7
93.12	251.6	1.7
93.18	251.3	1.7
95.1	255.9	1.8
97.23	260.6	1.8
99.29	265.2	1.8
101.34	269.7	1.9
103.39	274.4	1.9
105.44	279.4	1.9
107.49	283.8	1.9
109.54	288	2
111.58	292.9	2
113.6	297.5	2
115.64	301.6	2.1
117.68	306.6	2.1
119.72	310.6	2.1
121.6	314.8	2.2
123.78	319.2	2.2
125.8	323.9	2.2
127.83	328.3	2.2
129.85	332.6	2.3
131.86	337.5	2.3
133.87	341.8	2.3
135.88	346.7	2.4
137.88	351.3	2.4
139.88	353.9	2.4
141.88	360.2	2.5
143.86	365	2.5
145.81	369.5	2.5
147.78	373.9	2.5
149.76	378.3	2.6
152.23	383.7	2.6
155.2	391.3	2.7
158.16	397.8	2.7
161.11	404.3	2.7
164.04	411.2	2.8
166.97	417.6	2.8
169.88	424.5	2.9
172.78	430.6	2.9
175.68	437	3
178.57	443.5	3
181.43	450.4	3.1
184.29	457.3	3.1
187.14	463.9	3.1
189.9	470	3.2
192.72	477.1	3.2
195.53	483.7	3.3
198.33	489.7	3.3
201.12	496.2	3.4
203.89	503	3.4
209.43	515.8	3.5
212.2	523	3.5
214.96	529.5	3.6
217.72	536.6	3.6
220.47	543.8	3.7
223.23	550	3.7
225.98	556.9	3.8
228.73	564.4	3.8
231.48	571.2	3.9
234.15	576.4	3.9
236.89	583.6	3.9
239.63	590.6	4
242.35	597.2	4
245.08	603.8	4.1
247.81	610.3	4.1
250.54	617	4.2
253.26	623.5	4.2
255.99	630.5	4.2
258.71	636.5	4.3
261.43	643.1	4.3
264.15	650.3	4.4
266.87	656.1	4.4
269.6	662.2	4.5
272.32	669	4.5
275.04	675.8	4.5
277.75	683.5	4.6
280.46	690.8	4.6
283.18	697.8	4.7
285.9	703.7	4.7
288.62	711.2	4.8
291.34	717.9	4.8
294.06	724.7	4.9
296.83	732.2	4.9
299.59	739	5
302.36	745.1	5
305.06	750.5	5
307.66	756.7	5.1
310.21	763.5	5.1
312.71	769.8	5.2
315.15	776	5.2
317.53	781.5	5.2
319.66	787.9	5.3
321.94	792.5	5.3
324.16	798.1	5.4
326.33	802.6	5.4
328.44	808.3	5.4
330.51	813	5.5
332.48	818.5	5.5
334.44	823.2	5.5
336.34	827.3	5.5
338.2	831.4	5.6
340	835.5	5.6
341.76	839.5	5.6
343.47	842.9	5.7
345	846.6	5.7
346.75	850.4	5.7
348.1	853.8	5.7
349.45	857	5.7
350.59	860.6	5.8
352.03	864	5.8
353.43	868	5.8

System: triphenyl-.lambda.5-stibanediyl bis(adamantane-1-carboxylate); phases: Crystal
Fixed: Pressure, kPa = 101.325
Property: Molar heat capacity at constant pressure, J/K/mol (Crystal); method: Small (less than 1 g) adiabatic calorimetry
Temperature, K	Molar heat capacity at constant pressure, J/K/mol	uncertainty
5	2.04	0.1
10	12.5	0.5
15	28.4	1.2
20	45.29	0.68
25	62.48	0.88
30	80.54	1.03
35	98.3	1.25
40	114.6	1.5
45	130	0.9
50	144.9	1
60	173.4	1.2
70	199.7	1.4
80	223.8	1.6
90	244.7	1.7
100	266.9	1.8
110	289.1	2
120	311.3	2.1
130	333.5	2.3
140	356	2.4
150	378.8	2.6
160	401.7	2.7
170	424.6	2.9
180	447.4	3
190	470.3	3.2
200	493.6	3.3
210	517.7	3.5
220	542.3	3.7
230	567.3	3.8
240	591.6	4
250	615.4	4.1
260	639.5	4.3
270	664	4.5
280	689.1	4.6
290	714.3	4.8
298.15	734.7	4.9
300	739.3	5
310	763.8	5.1
320	787.8	5.3
330	811.6	5.4
340	835.4	5.6
350	859	34
360	882	35
370	904	36
380	926	37
390	949	38
400	972	39
410	996	40
420	1020	41
430	1044	42
440	1067	43
450	1091	44
460	1118	45
470	1152	46
480	1201	48
490	1251	50
498	1289	52

System: triphenyl-.lambda.5-stibanediyl bis(adamantane-1-carboxylate); phases: Crystal
Fixed: Pressure, kPa = 101.325
Property: Molar enthalpy, kJ/mol (Crystal); method: Small (less than 1 g) adiabatic calorimetry
Temperature, K	Molar enthalpy, kJ/mol	uncertainty
5	0.0026	0.0002
10	0.0356	0.0015
15	0.136	0.006
20	0.3199	0.005
25	0.5893	0.0085
30	0.9465	0.0127
35	1.394	0.018
40	1.927	0.025
45	2.539	0.02
50	3.226	0.025
60	4.82	0.036
70	6.687	0.049
80	8.808	0.065
90	11.15	0.08
100	13.71	0.1
110	16.49	0.12
120	19.49	0.14
130	22.71	0.16
140	26.16	0.18
150	29.83	0.21
160	33.74	0.23
170	37.87	0.26
180	42.23	0.29
190	46.82	0.32
200	51.64	0.36
210	56.69	0.39
220	61.99	0.43
230	67.54	0.46
240	73.34	0.5
250	79.37	0.54
260	85.65	0.58
270	92.16	0.63
280	98.93	0.67
290	105.9	0.7
298.15	111.8	0.8
300	113.2	0.8
310	120.7	0.8
320	128.5	0.9
330	136.5	0.9
340	144.7	1
350	153	2
360	162	2
370	171	2
380	180	2
390	189	2
400	199	2
410	209	2
420	219	2
430	229	2
440	240	3
450	251	3
460	262	3
470	273	3
480	285	3
490	297	3
498	307	3

System: triphenyl-.lambda.5-stibanediyl bis(adamantane-1-carboxylate); phases: Crystal
Fixed: Pressure, kPa = 101.325
Property: Molar entropy, J/K/mol (Crystal); method: Small (less than 1 g) adiabatic calorimetry
Temperature, K	Molar entropy, J/K/mol	uncertainty
5	0.683	0.056
10	4.85	0.31
15	12.8	0.8
20	23.24	0.53
25	35.18	0.75
30	48.15	0.94
35	61.92	1.2
40	76.14	1.46
45	90.53	1.01
50	105	1.2
60	134	1.5
70	162.7	1.8
80	191	2.1
90	218.6	2.3
100	245.5	2.5
110	272	2.8
120	298.1	3.1
130	323.9	3.3
140	349.4	3.6
150	374.7	3.8
160	399.9	4.1
170	425	4.3
180	449.9	4.6
190	474.7	4.8
200	499.4	5.1
210	524.1	5.3
220	548.7	5.6
230	573.4	5.8
240	598	6
250	622.7	6.3
260	647.3	6.5
270	671.9	6.8
280	696.5	7
290	721.1	7.3
298.15	741.2	7.5
300	745.7	7.5
310	770.4	7.8
320	795	8
330	819.6	8.2
340	844.2	8.5
350	869	14
360	893	14
370	918	14
380	942	15
390	966	15
400	991	16
410	1015	16
420	1039	16
430	1064	17
440	1088	17
450	1112	17
460	1136	18
470	1161	18
480	1186	19
490	1211	19
498	1231	19
