Measured thermophysical data. Heat Capacities of Natural Antlerite and Brochantite at Low Temperature
Source: J. Chem. Eng. Data, 2013, 10.1021/je400130b
Compound 1: copper(II) tetrahydroxide sulfate, Cu3H4O8S, InChI=1S/3Cu.H2O4S.4H2O/c;;;1-5(2,3)4;;;;/h;;;(H2,1,2,3,4);4*1H2/q3*+2;;;;;/p-6, purity 99%

System: copper(II) tetrahydroxide sulfate; phases: Crystal
Fixed: Pressure, kPa = 101.325
Property: Molar heat capacity at constant pressure, J/K/mol (Crystal); method: Small (less than 1 g) adiabatic calorimetry
Temperature, K	Molar heat capacity at constant pressure, J/K/mol	uncertainty
4.3209	4.92685830344	0.11209498336
4.5708	6.66433054552	0.141892384
4.9442	8.85479422352	0.17984859672
5.2177	10.18929209504	0.20255137816
5.4958	9.75581086192	0.19368310416
5.8181	7.93426738232	0.16033839392
6.1472	7.2347379292	0.1472133484
6.5658	6.79593573168	0.1383450744
7.0992	6.4614244364	0.13089572424
7.6351	6.22304523128	0.12557475984
8.1591	6.05632168008	0.12131798832
8.6704	5.93571315368	0.11812540968
9.1719	5.85518922576	0.11564229296
9.6682	5.79772281024	0.1135139072
10.16	5.73174285168	0.11138552144
10.926	5.73209758264	0.10961186664
11.978	5.7501888616	0.10748348088
13.03	5.8495135304	0.106419288
14.06	6.0694467256	0.10712874992
15.073	6.39260663016	0.10925713568
16.075	6.72179696104	0.11138552144
17.071	7.11732198144	0.11386863816
18.06	7.67673270536	0.11812540968
19.042	8.23756235312	0.12202745024
20.025	8.83315563496	0.1259294908
21.495	9.98815964072	0.13408830288
23.464	11.51705007832	0.14224711496
4.2757	3.86976004264	0.09435843536
4.4671	6.05809533488	0.1312504552
4.7508	7.3500254912	0.15324377472
4.9439	8.88352743128	0.18020332768
5.1091	9.64655372624	0.1933283732
5.2813	10.29287353536	0.20432503296
5.4611	10.030017894	0.1986493376
5.6589	8.61215824688	0.17275397752
5.8637	7.74129374008	0.15679108432
6.0583	7.36279580576	0.14969646512
6.2978	7.04424740368	0.14331130784
6.5917	6.68916171272	0.13621668864
6.8889	6.15883892752	0.12628422176
7.18	6.39650867072	0.1294768004
7.4595	6.26383929168	0.12663895272
7.7432	6.17196397304	0.124155836
8.0239	6.07866973056	0.12202745024
8.3041	6.0144634268	0.12025379544
8.5853	5.9559328184	0.1188348716
8.8658	5.88995285984	0.1170612168
9.1436	5.8406452564	0.115287562
9.4205	5.7838883028	0.11386863816
9.6964	5.74806047584	0.11280444528
9.9718	5.75409090216	0.11209498336
10.628	5.7448678972	0.11032132856
11.683	5.73919220184	0.10783821184
12.744	5.80978366288	0.106419288
13.783	5.98927752864	0.10677401896
14.802	6.28476841832	0.10854767376
15.806	6.63559733776	0.11067605952
16.805	6.97542959744	0.11280444528
17.795	7.52242473776	0.1170612168
18.778	8.08715642608	0.12096325736
19.76	8.6696246624	0.12486529792
21.224	9.77922310528	0.13266937904
23.179	11.25667755368	0.14082819112
25.153	13.02430192736	0.14934173416
27.122	14.99128510056	0.15714581528
29.089	17.13811687048	0.16353097256
31.061	19.35021913704	0.1968756828
33.034	21.61659524048	0.20822707352
35.009	23.953208074	0.2199331952
36.985	26.34977043976	0.23163931688
38.96	28.94356321928	0.2447643624
34.808	23.66339287968	0.21851427136
37.092	26.52961903648	0.23270350976
39.071	29.0843914104	0.24547382432
41.044	31.63277862704	0.25824413888
43.018	34.11234803744	0.27065972248
44.993	36.6401608584	0.283784768
46.973	39.0878044824	0.2944266968
48.952	41.556731964	0.3086159352
50.931	44.1852883776	0.319257864
52.909	46.984115652	0.3334471024
54.89	49.6233139944	0.3476363408
56.878	51.684300872	0.3582782696
58.869	53.865896276	0.3689201984
60.857	56.703743956	0.3831094368
62.844	59.1904079856	0.3972986752
64.836	61.5032538448	0.407940604
66.821	63.780626608	0.4185825328
68.81	66.0402628232	0.4292244616
70.809	68.2360474656	0.4398663904
73.307	71.1483886472	0.4540556288
76.313	74.5254273864	0.4717921768
79.328	77.845709172	0.4895287248
82.354	81.1588963384	0.5072652728
79.149	77.4980728312	0.4859814152
82.874	81.5632896328	0.5072652728
85.917	84.8126252264	0.5250018208
88.965	88.008751176	0.5391910592
92.019	91.1764986488	0.5640222264
95.083	94.3974557656	0.5782114648
98.16	97.4765204984	0.5888533936
101.24	100.5591325408	0.603042632
104.33	103.6736703696	0.6136845608
107.42	106.6108427184	0.6278737992
110.53	109.61186664	0.638515728
113.64	112.5809647752	0.6491576568
116.76	115.500400576	0.6633468952
119.89	118.4659514016	0.673988824
123.02	121.5804892304	0.6846307528
126.17	124.4360734584	0.6988199912
129.34	127.5506112872	0.70946192
132.5	130.2997762272	0.7201038488
135.67	133.2298539568	0.7342930872
138.84	136.3905068104	0.744935016
142.03	139.2815641344	0.7555769448
145.22	142.1371483624	0.7697661832
148.42	144.9146917792	0.780408112
151.63	147.7880125552	0.7910500408
154.85	150.5974817584	0.8016919696
158.08	153.1444500512	0.8123338984
161.31	155.7588172264	0.8229758272
164.54	158.3838263304	0.833617756
167.79	161.2855255832	0.8442596848
171.04	163.6338445384	0.8549016136
174.3	166.5178072432	0.8655435424
177.57	168.9796401056	0.8761854712
180.86	171.6011019	0.8868274
184.14	174.0735766912	0.8974693288
187.43	176.5779772688	0.904563948
190.73	178.997242416	0.9152058768
194.03	181.498095684	0.9258478056
197.33	184.052158596	0.9364897344
200.64	186.3791936936	0.9471316632
203.96	188.7026814816	0.9542262824
207.29	191.004885412	0.9648682112
210.62	193.204217364	0.9719628304
213.96	195.2935827184	0.9826047592
217.3	197.6099758872	0.9896993784
220.63	199.8518755544	1.0003413072
223.97	202.1044171504	1.0074359264
227.29	204.3356748888	1.0180778552
230.62	206.559838008	1.0251724744
233.94	208.883325796	1.0358144032
237.24	210.9017449584	1.0429090224
240.54	213.0975296008	1.0535509512
243.84	215.037907952	1.0606455704
247.12	217.0882529008	1.0677401896
250.39	219.0570097288	1.0748348088
253.64	221.2598889904	1.0854767376
256.89	223.3137812488	1.0925713568
260.12	225.2257811232	1.099665976
263.34	227.0668348056	1.1067605952
266.52	229.0710647296	1.117402524
269.68	230.876645316	1.1244971432
272.81	232.3239476328	1.1280444528
275.92	234.3459141048	1.1386863816
278.99	236.2117989544	1.1457810008
282.03	237.882581776	1.15287562
284.97	239.9506632728	1.1599702392
287.96	241.2064108712	1.1635175488
290.92	242.316718776	1.170612168
293.88	243.7746630216	1.1741594776
296.81	245.8001768032	1.1848014064
299.68	247.51352734	1.188348716
302.54	249.038870468	1.1954433352
305.37	250.5180985712	1.2025379544
308.18	251.8376977424	1.206085264
310.97	253.2388850344	1.2131798832
313.74	254.5123691808	1.2167271928
316.5	255.8177791136	1.223821812
319.23	257.0345063064	1.2273691216
321.95	258.1625507592	1.2309164312
87.611	86.6678681472	0.53209644
91.375	90.4493001808	0.5604749168
94.444	93.6808992264	0.5746641552
97.528	96.7670585784	0.5888533936
100.62	99.8496706208	0.5994953224
103.71	102.889714948	0.6101372512
106.81	105.9191173464	0.6243264896
109.92	109.0407497944	0.6349684184
113.05	112.0133952392	0.6491576568
116.17	114.9363783496	0.6597995856
119.31	118.0651054168	0.673988824
122.46	120.8355542144	0.6846307528
125.61	123.7798211824	0.6952726816
128.76	126.7879397232	0.7059146104
131.93	129.7570378584	0.7201038488
135.11	132.5948855384	0.7307457776
138.3	135.8229372744	0.744935016
141.49	138.4834194744	0.7555769448
144.68	141.3035306064	0.7662188736
147.87	144.3364803144	0.7768608024
151.08	147.1530441368	0.7875027312
153.75	149.1714632992	0.79814466
155.89	151.0054223624	0.8052392792
158.03	152.88904376	0.8123338984
160.17	154.9322940896	0.8194285176
162.32	156.4221641216	0.8265231368
164.47	158.1248727296	0.833617756
166.62	159.8311286472	0.8407123752
168.77	161.7182973544	0.8478069944
170.92	163.424553272	0.8549016136
173.08	165.1520930472	0.8619962328
175.23	166.705814652	0.8655435424
177.4	168.5965306688	0.8726381616
179.56	169.933866388	0.8797327808
181.72	171.5266083984	0.8868274
183.88	173.5024598456	0.8939220192
186.04	174.9142890664	0.9010166384
188.2	176.886593204	0.9081112576
190.37	178.589301812	0.9152058768
192.53	179.8415021008	0.9187531864
194.69	181.9486040032	0.9293951152
196.86	183.6193868248	0.9329424248
199.04	185.0666891416	0.940037044
201.21	186.109598164	0.9435843536
203.39	188.2521731624	0.9542262824
205.57	189.6640023832	0.957773592
207.76	190.5330932352	0.9613209016
209.94	192.5195866112	0.9684155208
212.16	193.7824288288	0.97551014
214.35	195.4674008888	0.9826047592
216.54	197.0778794472	0.9896993784
218.74	198.5287290736	0.993246688
220.93	199.412009164	0.9967939976
223.12	200.7706287408	1.0038886168
225.3	202.7393855688	1.010983236
227.48	203.9632073808	1.0145305456
229.65	205.761693348	1.0216251648
231.82	207.3189622624	1.028719784
233.99	208.8797784864	1.0358144032
236.16	210.1177895368	1.0393617128
238.32	211.490598352	1.046456332
240.47	213.0478672664	1.0535509512
242.63	214.2894256264	1.0570982608
244.78	215.4742270328	1.0606455704
246.91	216.4816629592	1.06419288
249.05	217.9573437528	1.0712874992
251.18	219.631673884	1.0783821184
253.31	221.0470504144	1.0854767376
255.43	222.3666495856	1.0890240472
257.55	223.640133732	1.0961186664
259.67	224.8604082344	1.099665976
261.78	226.0381150216	1.1032132856
263.89	227.3789980504	1.1103079048
265.99	228.0423449456	1.1138552144
268.1	229.5215730488	1.117402524
270.18	231.0114430808	1.1244971432
272.26	232.1572240816	1.1280444528
274.34	233.4200662992	1.135139072
276.41	233.998277764	1.135139072
278.48	235.5839251552	1.1422336912
280.47	237.155383308	1.1493283104
282.51	238.0670418752	1.15287562
284.55	239.1028562784	1.1564229296
286.57	240.2841103752	1.1599702392
288.59	241.6320880232	1.1670648584
290.6	242.6572604976	1.170612168
292.61	243.540540588	1.1741594776
294.6	244.6082807776	1.1777067872
296.58	245.633453252	1.1812540968
298.56	246.6550784168	1.188348716
300.53	247.6412304856	1.1918960256
302.49	248.7160652944	1.1954433352
304.44	249.6738388864	1.1989906448
306.39	250.599686692	1.2025379544
308.34	251.486514092	1.206085264
310.27	252.3697941824	1.2096325736
312.09	253.7461503072	1.2167271928
314.01	254.2285844128	1.2167271928
315.94	255.033823692	1.2202745024
317.86	255.920651092	1.223821812
319.77	256.6620387984	1.2273691216
321.68	257.5666027464	1.2309164312
323.58	258.368294716	1.2344637408

System: copper(II) tetrahydroxide sulfate; phases: Crystal
Fixed: Pressure, kPa = 101.325
Property: Molar heat capacity at constant pressure, J/K/mol (Crystal); method: Small (less than 1 g) adiabatic calorimetry
Temperature, K	Molar heat capacity at constant pressure, J/K/mol	uncertainty
4	4.402	0.103
4.5	6.267	0.134
5	9.138	0.185
6	7.452	0.151
7	6.491	0.132
8	6.095	0.122
9	5.868	0.116
10	5.75	0.112
15	6.341	0.109
20	8.85	0.126
25	12.91	0.15
30	18.13	0.19
35	24	0.22
40	30.19	0.25
45	36.59	0.28
50	43.07	0.32
55	49.46	0.35
60	55.63	0.38
65	61.62	0.41
70	67.43	0.44
75	73.06	0.47
80	78.53	0.49
85	83.89	0.52
90	89.13	0.56
95	94.27	0.58
100	99.3	0.6
110	109.1	0.6
120	118.6	0.7
130	128.1	0.7
140	137.4	0.8
150	146.3	0.8
160	154.8	0.8
170	162.9	0.9
180	170.9	0.9
190	178.5	0.9
200	185.9	0.9
210	192.8	1
220	199.5	1
230	206.1	1
240	212.7	1.1
250	218.9	1.1
260	225.1	1.1
270	231.1	1.1
273.15	232.9	1.1
280	236.7	1.1
290	242.2	1.2
298.15	246.6	1.2
300	247.6	1.2
310	252.8	1.2
320	257.4	1.2

System: copper(II) tetrahydroxide sulfate; phases: Crystal
Fixed: Pressure, kPa = 101.325
Property: Molar entropy, J/K/mol (Crystal); method: Small (less than 1 g) adiabatic calorimetry
Temperature, K	Molar entropy, J/K/mol	uncertainty
4	1.467	0.069
4.5	2.089	0.075
5	2.882	0.086
6	4.557	0.117
7	5.618	0.136
8	6.456	0.149
9	7.16	0.16
10	7.77	0.168
15	10.15	0.19
20	12.27	0.19
25	14.66	0.19
30	17.46	0.22
35	20.69	0.24
40	24.29	0.26
45	28.22	0.28
50	32.41	0.3
55	36.81	0.33
60	41.38	0.36
65	46.07	0.38
70	50.85	0.41
75	55.7	0.44
80	60.59	0.47
85	65.51	0.5
90	70.45	0.56
95	75.41	0.58
100	80.38	0.61
110	90.3	0.65
120	100.2	0.7
130	110.1	0.7
140	119.9	0.8
150	129.7	0.8
160	139.4	0.9
170	149	0.9
180	158.6	1
190	168	1
200	177.4	1.1
210	186.6	1.1
220	195.7	1.1
230	204.7	1.2
240	213.7	1.2
250	222.5	1.3
260	231.2	1.3
270	239.8	1.3
273.15	242.5	1.4
280	248.3	1.4
290	256.7	1.4
298.15	263.5	1.5
300	265	1.5
310	273.2	1.5
320	281.3	1.5

System: copper(II) tetrahydroxide sulfate; phases: Crystal
Fixed: Pressure, kPa = 101.325
Property: Molar enthalpy function {Hm(T)-Hm(0)}/T, J/K/mol (Crystal); method: Small (less than 1 g) adiabatic calorimetry
Temperature, K	Molar enthalpy function {Hm(T)-Hm(0)}/T, J/K/mol	uncertainty
4	1.1	0.04
4.5	1.567	0.049
5	2.166	0.059
6	3.328	0.079
7	3.834	0.086
8	4.139	0.09
9	4.343	0.091
10	4.488	0.092
15	4.952	0.089
20	5.573	0.087
25	6.614	0.086
30	8.083	0.14
35	9.932	0.15
40	12.07	0.16
45	14.44	0.17
50	16.98	0.18
55	19.64	0.2
60	22.39	0.21
65	25.18	0.23
70	27.99	0.24
75	30.81	0.25
80	33.62	0.27
85	36.42	0.28
90	39.2	0.36
95	41.97	0.37
100	44.71	0.38
110	50.12	0.4
120	55.43	0.42
130	60.66	0.44
140	65.81	0.46
150	70.88	0.48
160	75.86	0.5
170	80.74	0.52
180	85.53	0.54
190	90.23	0.56
200	94.83	0.58
210	99.33	0.6
220	103.7	0.6
230	108	0.6
240	112.3	0.7
250	116.4	0.7
260	120.5	0.7
270	124.5	0.7
273.15	125.7	0.7
280	128.4	0.7
290	132.2	0.7
298.15	135.3	0.7
300	135.9	0.7
310	139.6	0.8
320	143.2	0.8
