Measured thermophysical data. Solubility of Benzyl Disulfide in Five Organic Solvents between (283.45 and 333.15) K
Source: J. Chem. Eng. Data, 2013, 10.1021/je400326r
Compound 1: ethanol, C2H6O, InChI=1S/C2H6O/c1-2-3/h3H,2H2,1H3, purity 99.7%
Compound 2: hexane, C6H14, InChI=1S/C6H14/c1-3-5-6-4-2/h3-6H2,1-2H3, purity 99.5%
Compound 3: ethyl acetate, C4H8O2, InChI=1S/C4H8O2/c1-3-6-4(2)5/h3H2,1-2H3, purity 99.5%
Compound 4: toluene, C7H8, InChI=1S/C7H8/c1-7-5-3-2-4-6-7/h2-6H,1H3, purity 99.5%
Compound 5: trichloromethane, CHCl3, InChI=1S/CHCl3/c2-1(3)4/h1H, purity 99.6%
Compound 6: 1,4-diphenyl-2,3-dithiabutane, C14H14S2, InChI=1S/C14H14S2/c1-3-7-13(8-4-1)11-15-16-12-14-9-5-2-6-10-14/h1-10H,11-12H2

System: ethanol + 1,4-diphenyl-2,3-dithiabutane; phases: Liquid, Crystal
Fixed: Pressure, kPa = 100
Property: Mole fraction of 1,4-diphenyl-2,3-dithiabutane (Liquid); method: Titration method
Temperature, K	Mole fraction of 1,4-diphenyl-2,3-dithiabutane	uncertainty
284.7	0.0001675	4e-06
289.45	0.0003985	9.3e-06
294.45	0.0009047	2.1e-05
299.55	0.001903	4.4e-05
303.25	0.003014	7e-05
308.25	0.005239	0.000121
313.05	0.008023	0.000185
318.05	0.01188	0.00027
323.25	0.01623	0.00038
328.15	0.02052	0.00047
333.05	0.02447	0.00057

System: hexane + 1,4-diphenyl-2,3-dithiabutane; phases: Liquid, Crystal
Fixed: Pressure, kPa = 100
Property: Mole fraction of 1,4-diphenyl-2,3-dithiabutane (Liquid); method: Titration method
Temperature, K	Mole fraction of 1,4-diphenyl-2,3-dithiabutane	uncertainty
284.25	0.0009219	1.99e-05
288.35	0.001902	4e-05
294.45	0.004477	9.4e-05
298.25	0.007394	0.000156
303.65	0.01366	0.00029
309.05	0.02228	0.00047
314.45	0.03486	0.00073
318.25	0.04739	0.001
323.05	0.06526	0.00137
328.15	0.08478	0.00179
332.95	0.1063	0.0022

System: ethyl acetate + 1,4-diphenyl-2,3-dithiabutane; phases: Liquid, Crystal
Fixed: Pressure, kPa = 100
Property: Mole fraction of 1,4-diphenyl-2,3-dithiabutane (Liquid); method: Titration method
Temperature, K	Mole fraction of 1,4-diphenyl-2,3-dithiabutane	uncertainty
285.55	0.03317	0.0007
289.95	0.05	0.00105
293.65	0.06672	0.0014
298.8	0.09625	0.00203
303.65	0.1308	0.0028
308.4	0.164	0.0035
313.15	0.1981	0.0042
318.35	0.2316	0.005
323.05	0.2684	0.0058
328.25	0.3005	0.0065
333.05	0.3349	0.0073

System: toluene + 1,4-diphenyl-2,3-dithiabutane; phases: Liquid, Crystal
Fixed: Pressure, kPa = 100
Property: Mole fraction of 1,4-diphenyl-2,3-dithiabutane (Liquid); method: Titration method
Temperature, K	Mole fraction of 1,4-diphenyl-2,3-dithiabutane	uncertainty
283.45	0.05211	0.00109
288.16	0.0769	0.00161
292.65	0.1028	0.0022
299.35	0.1619	0.0034
303.15	0.1978	0.0042
308.65	0.2484	0.0053
313.45	0.2942	0.0063
318.05	0.338	0.0074
323.35	0.3895	0.0086
327.95	0.4346	0.0097
333.15	0.4813	0.011

System: trichloromethane + 1,4-diphenyl-2,3-dithiabutane; phases: Liquid, Crystal
Fixed: Pressure, kPa = 100
Property: Mole fraction of 1,4-diphenyl-2,3-dithiabutane (Liquid); method: Titration method
Temperature, K	Mole fraction of 1,4-diphenyl-2,3-dithiabutane	uncertainty
284.95	0.1017	0.0021
288.75	0.1314	0.0027
292.75	0.1597	0.0033
298.65	0.2085	0.0043
302.6	0.2462	0.0051
308.15	0.2915	0.0061
312.95	0.338	0.0071
318.05	0.3865	0.0082
323.25	0.4351	0.0093
328.15	0.4759	0.0103
332.65	0.5164	0.0111
