Measured thermophysical data. Solubilities of Phosphonic Acid, P,P'-(1,4-Piperazinediyl)bis-,P,P,P',P'-tetraphenyl Ester in Selected Solvents
Source: J. Chem. Eng. Data, 2013, 10.1021/je400412z
Compound 1: tetraphenyl piperazine-1,4-diylbis(phosphonate), C28H28N2O6P2, InChI=1S/C28H28N2O6P2/c31-37(33-25-13-5-1-6-14-25,34-26-15-7-2-8-16-26)29-21-23-30(24-22-29)38(32,35-27-17-9-3-10-18-27)36-28-19-11-4-12-20-28/h1-20H,21-24H2
Compound 2: acetone, C3H6O, InChI=1S/C3H6O/c1-3(2)4/h1-2H3, purity 99%
Compound 3: tetrahydrofuran, C4H8O, InChI=1S/C4H8O/c1-2-4-5-3-1/h1-4H2, purity 99%
Compound 4: ethyl acetate, C4H8O2, InChI=1S/C4H8O2/c1-3-6-4(2)5/h3H2,1-2H3, purity 99%
Compound 5: trichloromethane, CHCl3, InChI=1S/CHCl3/c2-1(3)4/h1H, purity 99%
Compound 6: ethanol, C2H6O, InChI=1S/C2H6O/c1-2-3/h3H,2H2,1H3, purity 99%
Compound 7: benzene, C6H6, InChI=1S/C6H6/c1-2-4-6-5-3-1/h1-6H, purity 99%
Compound 8: toluene, C7H8, InChI=1S/C7H8/c1-7-5-3-2-4-6-7/h2-6H,1H3, purity 99%
Compound 9: dichloromethane, CH2Cl2, InChI=1S/CH2Cl2/c2-1-3/h1H2, purity 99%
Compound 10: methanol, CH4O, InChI=1S/CH4O/c1-2/h2H,1H3, purity 99%

System: acetone + tetraphenyl piperazine-1,4-diylbis(phosphonate); phases: Liquid, Crystal
Fixed: Pressure, kPa = 101
Property: Mole fraction of tetraphenyl piperazine-1,4-diylbis(phosphonate) (Liquid); method: Gravimetric method
Temperature, K	Mole fraction of tetraphenyl piperazine-1,4-diylbis(phosphonate)	uncertainty
293.15	0.00042414	1.824e-05
298.15	0.00048865	2.101e-05
303.15	0.0005593	2.4e-05
308.15	0.00063075	2.712e-05
313.15	0.00071687	3.082e-05
318.15	0.00079521	3.419e-05
323.15	0.00090129	3.876e-05

System: tetrahydrofuran + tetraphenyl piperazine-1,4-diylbis(phosphonate); phases: Liquid, Crystal
Fixed: Pressure, kPa = 101
Property: Mole fraction of tetraphenyl piperazine-1,4-diylbis(phosphonate) (Liquid); method: Gravimetric method
Temperature, K	Mole fraction of tetraphenyl piperazine-1,4-diylbis(phosphonate)	uncertainty
293.15	0.0010883	4.5e-05
298.15	0.0014289	5.9e-05
303.15	0.0018339	7.58e-05
308.15	0.0023604	9.75e-05
313.15	0.0030092	0.0001244
318.15	0.0037485	0.0001549
323.15	0.0049339	0.000204
328.15	0.0060524	0.0002502
333.15	0.0076648	0.000317

System: ethyl acetate + tetraphenyl piperazine-1,4-diylbis(phosphonate); phases: Liquid, Crystal
Fixed: Pressure, kPa = 101
Property: Mole fraction of tetraphenyl piperazine-1,4-diylbis(phosphonate) (Liquid); method: Gravimetric method
Temperature, K	Mole fraction of tetraphenyl piperazine-1,4-diylbis(phosphonate)	uncertainty
293.15	0.00082566	3.323e-05
298.15	0.0010268	4.13e-05
303.15	0.0012218	4.92e-05
308.15	0.0015843	6.38e-05
313.15	0.0019374	7.8e-05
318.15	0.0024156	9.72e-05
323.15	0.0030138	0.0001213
328.15	0.0035997	0.0001449
333.15	0.0043652	0.0001758
338.15	0.0052135	0.0002099
343.15	0.0061426	0.0002474

System: trichloromethane + tetraphenyl piperazine-1,4-diylbis(phosphonate); phases: Liquid, Crystal
Fixed: Pressure, kPa = 101
Property: Mole fraction of tetraphenyl piperazine-1,4-diylbis(phosphonate) (Liquid); method: Gravimetric method
Temperature, K	Mole fraction of tetraphenyl piperazine-1,4-diylbis(phosphonate)	uncertainty
293.15	0.013237	0.00052
298.15	0.014641	0.000575
303.15	0.016217	0.000637
308.15	0.018311	0.000719
313.15	0.020227	0.000795
318.15	0.022324	0.000877
323.15	0.024521	0.000964

System: ethanol + tetraphenyl piperazine-1,4-diylbis(phosphonate); phases: Liquid, Crystal
Fixed: Pressure, kPa = 101
Property: Mole fraction of tetraphenyl piperazine-1,4-diylbis(phosphonate) (Liquid); method: Gravimetric method
Temperature, K	Mole fraction of tetraphenyl piperazine-1,4-diylbis(phosphonate)	uncertainty
293.15	0.00049549	2.264e-05
298.15	0.00061345	2.803e-05
303.15	0.00074571	3.407e-05
308.15	0.00094578	4.321e-05
313.15	0.0011339	5.18e-05
318.15	0.0013362	6.11e-05
323.15	0.0015836	7.24e-05
328.15	0.0018605	8.5e-05
333.15	0.0022094	0.000101
338.15	0.002686	0.000123
343.15	0.0032006	0.0001463

System: benzene + tetraphenyl piperazine-1,4-diylbis(phosphonate); phases: Liquid, Crystal
Fixed: Pressure, kPa = 101
Property: Mole fraction of tetraphenyl piperazine-1,4-diylbis(phosphonate) (Liquid); method: Gravimetric method
Temperature, K	Mole fraction of tetraphenyl piperazine-1,4-diylbis(phosphonate)	uncertainty
293.15	0.0026778	0.0001094
298.15	0.0031941	0.0001305
303.15	0.003852	0.000157
308.15	0.0045816	0.0001872
313.15	0.0054866	0.0002242
318.15	0.0063152	0.0002581
323.15	0.0072362	0.0002958
328.15	0.0083433	0.0003411
333.15	0.0097233	0.0003976
338.15	0.011152	0.000456
343.15	0.012884	0.000527

System: toluene + tetraphenyl piperazine-1,4-diylbis(phosphonate); phases: Liquid, Crystal
Fixed: Pressure, kPa = 101
Property: Mole fraction of tetraphenyl piperazine-1,4-diylbis(phosphonate) (Liquid); method: Gravimetric method
Temperature, K	Mole fraction of tetraphenyl piperazine-1,4-diylbis(phosphonate)	uncertainty
293.15	0.00050597	2.027e-05
298.15	0.00061619	2.468e-05
303.15	0.00078184	3.132e-05
308.15	0.00098576	3.949e-05
313.15	0.0012376	4.96e-05
318.15	0.0014784	5.92e-05
323.15	0.0017821	7.14e-05
328.15	0.0021252	8.51e-05
333.15	0.0025137	0.0001007
338.15	0.0031263	0.0001253
343.15	0.0037061	0.0001485

System: dichloromethane + tetraphenyl piperazine-1,4-diylbis(phosphonate); phases: Liquid, Crystal
Fixed: Pressure, kPa = 101
Property: Mole fraction of tetraphenyl piperazine-1,4-diylbis(phosphonate) (Liquid); method: Gravimetric method
Temperature, K	Mole fraction of tetraphenyl piperazine-1,4-diylbis(phosphonate)	uncertainty
288.15	0.0058539	0.0002367
293.15	0.0072539	0.0002934
298.15	0.0087751	0.000355
303.15	0.010561	0.000427
308.15	0.013023	0.000527
308.15	0.013023	0.000527

System: methanol + tetraphenyl piperazine-1,4-diylbis(phosphonate); phases: Liquid, Crystal
Fixed: Pressure, kPa = 101
Property: Mole fraction of tetraphenyl piperazine-1,4-diylbis(phosphonate) (Liquid); method: Gravimetric method
Temperature, K	Mole fraction of tetraphenyl piperazine-1,4-diylbis(phosphonate)	uncertainty
293.15	3.2832e-05	1.729e-06
298.15	5.7667e-05	3.036e-06
303.15	9.8362e-05	5.179e-06
308.15	0.00015627	8.23e-06
313.15	0.00025092	1.321e-05
318.15	0.00041534	2.187e-05
323.15	0.00065575	3.454e-05
