Measured thermophysical data. Experimental Study of Chemical Equilibria in the Liquid-Phase Reaction between 1-Octanol and Ethanol to 1-Ethoxyoctane
Source: J. Chem. Eng. Data, 2013, 10.1021/je400291y
Compound 1: ethanol, C2H6O, InChI=1S/C2H6O/c1-2-3/h3H,2H2,1H3, purity 99.8%
Compound 2: ethyl octyl ether, C10H22O, InChI=1S/C10H22O/c1-3-5-6-7-8-9-10-11-4-2/h3-10H2,1-2H3
Compound 3: water, H2O, InChI=1S/H2O/h1H2
Compound 4: diethyl ether, C4H10O, InChI=1S/C4H10O/c1-3-5-4-2/h3-4H2,1-2H3
Compound 5: octan-1-ol, C8H18O, InChI=1S/C8H18O/c1-2-3-4-5-6-7-8-9/h9H,2-8H2,1H3, purity 99.5%

Reaction: -1 ethanol + -1 octan-1-ol + 1 ethyl octyl ether + 1 water
Property: Equilibrium constant in terms of mole fraction
16.8
17.4
13.8
14.9
12.5
9.9
11
8.5
8.8

Reaction: 1 diethyl ether + -2 ethanol + 1 water
Property: Equilibrium constant in terms of mole fraction
6.5
7.1
5.7
5.8
5.2
4.2
4.5
3.6
3.9
