Measured thermophysical data. Vapor Liquid Equilibria of the Binary System 1,5-Hexadiene + Allyl Chloride
Source: J. Chem. Eng. Data, 2014, 10.1021/je400755x
Compound 1: 1,5-hexadiene, C6H10, InChI=1S/C6H10/c1-3-5-6-4-2/h3-4H,1-2,5-6H2, purity 98%
Compound 2: 3-chloro-1-propene, C3H5Cl, InChI=1S/C3H5Cl/c1-2-3-4/h2H,1,3H2, purity 99%

System: 1,5-hexadiene; phases: Liquid, Gas
Property: Vapor or sublimation pressure, kPa (Liquid); method: Closed cell (Static) method
Temperature, K	Vapor or sublimation pressure, kPa	uncertainty
313.05	56	20
342.76	147	20
369.36	303	20
322.92	78	20
352.84	197	20
333	109	20
362.75	256	20

System: 3-chloro-1-propene; phases: Liquid, Gas
Property: Vapor or sublimation pressure, kPa (Liquid); method: Closed cell (Static) method
Temperature, K	Vapor or sublimation pressure, kPa	uncertainty
298.88	55	20
323.13	125	20
333.47	173	20
352.3	294	20
369.15	454	20
308.19	75	20
323.19	126	20
343.12	228	20
353.05	301	20
313.35	90	20
323.75	126	20
343.83	233	20
363.03	389	20

System: 3-chloro-1-propene + 1,5-hexadiene; phases: Liquid, Gas
Property: Vapor or sublimation pressure, kPa (Liquid); method: Closed cell (Static) method
Mole fraction of 1,5-hexadiene	Temperature, K	Vapor or sublimation pressure, kPa	uncertainty
0	298.88	55	20
0	323.13	125	20
0	333.47	173	20
0	352.3	294	20
0	369.15	454	20
0.057	303.29	66	20
0.057	333.05	171	20
0.057	362.75	385	20
0.115	303.43	66	20
0.115	333.21	171	20
0.115	362.93	381	20
0.218	303.33	63	20
0.218	333.04	164	20
0.218	353.12	288	20
0.297	303.41	68	20
0.297	333.04	163	20
0.297	353	283	20
1	313.05	56	20
1	342.76	147	20
1	369.36	303	20
0	308.19	75	20
0	323.19	126	20
0	343.12	228	20
0	353.05	301	20
0	313.35	90	20
0	323.75	126	20
0	343.83	233	20
0	363.03	389	20
0.057	313.11	92	20
0.057	342.86	227	20
0.057	369.59	455	20
0.057	322.96	126	20
0.057	352.82	298	20
0.115	313.08	91	20
0.115	343.21	227	20
0.115	369.23	447	20
0.115	323.11	125	20
0.115	353.18	298	20
0.218	313.07	88	20
0.218	337.38	189	20
0.218	362.91	371	20
0.218	323.05	122	20
0.218	342.85	218	20
0.218	369.96	441	20
0.297	313.29	89	20
0.297	337.99	190	20
0.297	363.04	366	20
0.297	323.39	123	20
0.297	342.65	214	20
0.297	370.85	442	20
1	322.92	78	20
1	352.84	197	20
1	333	109	20
1	362.75	256	20
