Measured thermophysical data. Temperature and Concentration Dependences of the Electric Conductivity of Dimethyl Sulfoxide + Ammonium Nitrate Electrolytes
Source: J. Chem. Eng. Data, 2013, 10.1021/je400402n
Compound 1: dimethyl sulfoxide, C2H6OS, InChI=1S/C2H6OS/c1-4(2)3/h1-2H3, purity 99.9%
Compound 2: ammonium nitrate, H4N2O3, InChI=1S/NO3.H3N/c2-1(3)4;/h;1H3/q-1;/p+1, purity 99.9%

System: dimethyl sulfoxide; phases: Liquid
Fixed: Pressure, kPa = 101
Property: Electrical conductivity, S/m (Liquid); method: HP 4194A impedance-gain phase analyzer
Temperature, K	Electrical conductivity, S/m	uncertainty
293.15	0.0001877	3.8e-06
295.15	0.0002006	4e-06
297.15	0.0002115	4.2e-06
299.15	0.0002245	4.5e-06
301.15	0.0002358	4.7e-06
303.15	0.0002476	5e-06
305.15	0.0002616	5.2e-06
307.15	0.0002738	5.5e-06
309.15	0.0002865	5.7e-06
311.15	0.0002995	6e-06
313.15	0.0003147	6.3e-06
315.15	0.0003278	6.6e-06
317.15	0.0003413	6.8e-06
319.15	0.0003553	7.1e-06
321.15	0.0003695	7.4e-06
323.15	0.0003838	7.7e-06
325.15	0.0003988	8e-06
327.15	0.0004187	8.4e-06
329.15	0.0004367	8.7e-06
331.15	0.0004551	9.1e-06
333.15	0.0004743	9.5e-06

System: dimethyl sulfoxide + ammonium nitrate; phases: Liquid
Fixed: Pressure, kPa = 101
Property: Electrical conductivity, S/m (Liquid); method: HP 4194A impedance-gain phase analyzer
Temperature, K	Mole fraction of ammonium nitrate	Electrical conductivity, S/m	uncertainty
293.15	0	0.0001877	1.1e-06
295.15	0	0.0002006	1.2e-06
297.15	0	0.0002115	1.3e-06
299.15	0	0.0002245	1.4e-06
301.15	0	0.0002358	1.4e-06
303.15	0	0.0002476	1.5e-06
305.15	0	0.0002616	1.6e-06
307.15	0	0.0002738	1.6e-06
309.15	0	0.0002865	1.7e-06
311.15	0	0.0002995	1.8e-06
313.15	0	0.0003147	1.9e-06
315.15	0	0.0003278	2e-06
317.15	0	0.0003413	2.1e-06
319.15	0	0.0003553	2.1e-06
321.15	0	0.0003695	2.2e-06
323.15	0	0.0003838	2.3e-06
325.15	0	0.0003988	2.4e-06
327.15	0	0.0004187	2.5e-06
329.15	0	0.0004367	2.6e-06
331.15	0	0.0004551	2.7e-06
333.15	0	0.0004743	2.9e-06
293.15	0.0015	0.05909	0.01405
295.15	0.0015	0.0615	0.01535
297.15	0.0015	0.06407	0.01639
299.15	0.0015	0.06657	0.01714
301.15	0.0015	0.06942	0.01775
303.15	0.0015	0.07174	0.01849
305.15	0.0015	0.07383	0.0193
307.15	0.0015	0.0761	0.01988
309.15	0.0015	0.07821	0.02039
311.15	0.0015	0.08057	0.02104
313.15	0.0015	0.08291	0.02167
315.15	0.0015	0.08547	0.02216
317.15	0.0015	0.08796	0.02266
319.15	0.0015	0.09059	0.02316
321.15	0.0015	0.09319	0.02368
323.15	0.0015	0.09633	0.02423
325.15	0.0015	0.09889	0.02482
327.15	0.0015	0.1014	0.0254
329.15	0.0015	0.1048	0.0261
331.15	0.0015	0.1076	0.0267
333.15	0.0015	0.1105	0.0274
293.15	0.0033	0.1164	0.0108
295.15	0.0033	0.1272	0.0114
297.15	0.0033	0.1356	0.0121
299.15	0.0033	0.1418	0.0126
301.15	0.0033	0.1469	0.0135
303.15	0.0033	0.153	0.014
305.15	0.0033	0.1596	0.0148
307.15	0.0033	0.1644	0.0155
309.15	0.0033	0.1686	0.0162
311.15	0.0033	0.174	0.0166
313.15	0.0033	0.1792	0.0169
315.15	0.0033	0.1833	0.0172
317.15	0.0033	0.1875	0.0178
319.15	0.0033	0.1917	0.0182
321.15	0.0033	0.1961	0.0186
323.15	0.0033	0.2007	0.019
325.15	0.0033	0.2057	0.0194
327.15	0.0033	0.2107	0.0199
329.15	0.0033	0.216	0.0203
331.15	0.0033	0.2212	0.0208
333.15	0.0033	0.2266	0.0213
293.15	0.0052	0.159	0.0099
295.15	0.0052	0.1674	0.0103
297.15	0.0052	0.176	0.0108
299.15	0.0052	0.1838	0.0112
301.15	0.0052	0.1943	0.0117
303.15	0.0052	0.202	0.0121
305.15	0.0052	0.2108	0.0123
307.15	0.0052	0.2194	0.0127
309.15	0.0052	0.2285	0.0131
311.15	0.0052	0.2344	0.0135
313.15	0.0052	0.2393	0.014
315.15	0.0052	0.2451	0.0145
317.15	0.0052	0.2527	0.0151
319.15	0.0052	0.259	0.0156
321.15	0.0052	0.2654	0.0161
323.15	0.0052	0.272	0.0166
325.15	0.0052	0.2786	0.017
327.15	0.0052	0.2854	0.0175
329.15	0.0052	0.2924	0.018
331.15	0.0052	0.2998	0.0184
333.15	0.0052	0.3073	0.0188
293.15	0.0102	0.2855	0.0081
295.15	0.0102	0.3006	0.0083
297.15	0.0102	0.3159	0.0086
299.15	0.0102	0.33	0.009
301.15	0.0102	0.3447	0.0093
303.15	0.0102	0.3568	0.0096
305.15	0.0102	0.3681	0.0099
307.15	0.0102	0.3798	0.0102
309.15	0.0102	0.3923	0.0105
311.15	0.0102	0.4045	0.0109
313.15	0.0102	0.4171	0.0113
315.15	0.0102	0.4297	0.0118
317.15	0.0102	0.4435	0.0122
319.15	0.0102	0.4564	0.0126
321.15	0.0102	0.4692	0.013
323.15	0.0102	0.4821	0.0134
325.15	0.0102	0.4951	0.0138
327.15	0.0102	0.5078	0.0142
329.15	0.0102	0.5207	0.0148
331.15	0.0102	0.5338	0.0152
333.15	0.0102	0.547	0.0158
293.15	0.0205	0.4686	0.007
295.15	0.0205	0.4888	0.0072
297.15	0.0205	0.5091	0.0074
299.15	0.0205	0.5332	0.0076
301.15	0.0205	0.5527	0.008
303.15	0.0205	0.5719	0.0083
305.15	0.0205	0.5928	0.0086
307.15	0.0205	0.6124	0.0089
309.15	0.0205	0.6333	0.0092
311.15	0.0205	0.6533	0.0095
313.15	0.0205	0.6748	0.0099
315.15	0.0205	0.6992	0.0102
317.15	0.0205	0.7215	0.0105
319.15	0.0205	0.7428	0.0108
321.15	0.0205	0.7655	0.0111
323.15	0.0205	0.7871	0.0114
325.15	0.0205	0.8092	0.0117
327.15	0.0205	0.8316	0.0119
329.15	0.0205	0.8608	0.0122
331.15	0.0205	0.8834	0.0125
333.15	0.0205	0.9065	0.0129
293.15	0.0403	0.7676	0.0068
295.15	0.0403	0.7994	0.0071
297.15	0.0403	0.8271	0.0073
299.15	0.0403	0.8594	0.0076
301.15	0.0403	0.8952	0.0079
303.15	0.0403	0.9293	0.0082
305.15	0.0403	0.965	0.0084
307.15	0.0403	0.998	0.0087
309.15	0.0403	1.033	0.009
311.15	0.0403	1.066	0.009
313.15	0.0403	1.105	0.01
315.15	0.0403	1.137	0.01
317.15	0.0403	1.174	0.01
319.15	0.0403	1.206	0.01
321.15	0.0403	1.24	0.011
323.15	0.0403	1.272	0.011
325.15	0.0403	1.306	0.011
327.15	0.0403	1.339	0.011
329.15	0.0403	1.369	0.012
331.15	0.0403	1.404	0.012
333.15	0.0403	1.439	0.012
293.15	0.059	0.9502	0.0066
295.15	0.059	0.9876	0.0068
297.15	0.059	1.025	0.007
299.15	0.059	1.063	0.007
301.15	0.059	1.101	0.008
303.15	0.059	1.141	0.008
305.15	0.059	1.18	0.008
307.15	0.059	1.219	0.008
309.15	0.059	1.257	0.009
311.15	0.059	1.296	0.009
313.15	0.059	1.336	0.009
315.15	0.059	1.374	0.009
317.15	0.059	1.412	0.01
319.15	0.059	1.452	0.01
321.15	0.059	1.491	0.01
323.15	0.059	1.533	0.011
325.15	0.059	1.571	0.011
327.15	0.059	1.609	0.011
329.15	0.059	1.652	0.011
331.15	0.059	1.689	0.012
333.15	0.059	1.731	0.012
293.15	0.0804	1.091	0.007
295.15	0.0804	1.135	0.007
297.15	0.0804	1.182	0.007
299.15	0.0804	1.227	0.008
301.15	0.0804	1.273	0.008
303.15	0.0804	1.319	0.008
305.15	0.0804	1.365	0.009
307.15	0.0804	1.41	0.009
309.15	0.0804	1.456	0.009
311.15	0.0804	1.502	0.009
313.15	0.0804	1.554	0.01
315.15	0.0804	1.601	0.01
317.15	0.0804	1.648	0.01
319.15	0.0804	1.699	0.011
321.15	0.0804	1.747	0.011
323.15	0.0804	1.79	0.011
325.15	0.0804	1.843	0.012
327.15	0.0804	1.89	0.012
329.15	0.0804	1.938	0.012
331.15	0.0804	1.986	0.013
333.15	0.0804	2.033	0.013
293.15	0.1037	1.143	0.007
295.15	0.1037	1.192	0.007
297.15	0.1037	1.229	0.007
299.15	0.1037	1.279	0.008
301.15	0.1037	1.328	0.008
303.15	0.1037	1.379	0.008
305.15	0.1037	1.429	0.009
307.15	0.1037	1.479	0.009
309.15	0.1037	1.531	0.009
311.15	0.1037	1.593	0.01
313.15	0.1037	1.643	0.01
315.15	0.1037	1.697	0.01
317.15	0.1037	1.751	0.011
319.15	0.1037	1.804	0.011
321.15	0.1037	1.863	0.011
323.15	0.1037	1.916	0.012
325.15	0.1037	1.969	0.012
327.15	0.1037	2.024	0.012
329.15	0.1037	2.077	0.013
331.15	0.1037	2.13	0.013
333.15	0.1037	2.184	0.013
293.15	0.1529	1.159	0.007
295.15	0.1529	1.218	0.007
297.15	0.1529	1.275	0.008
299.15	0.1529	1.329	0.008
301.15	0.1529	1.389	0.008
303.15	0.1529	1.451	0.009
305.15	0.1529	1.512	0.009
307.15	0.1529	1.572	0.009
309.15	0.1529	1.635	0.01
311.15	0.1529	1.696	0.01
313.15	0.1529	1.758	0.011
315.15	0.1529	1.823	0.011
317.15	0.1529	1.887	0.011
319.15	0.1529	1.953	0.012
321.15	0.1529	2.018	0.012
323.15	0.1529	2.085	0.013
325.15	0.1529	2.151	0.013
327.15	0.1529	2.221	0.013
329.15	0.1529	2.293	0.014
331.15	0.1529	2.353	0.014
333.15	0.1529	2.423	0.015
293.15	0.2022	1.192	0.007
295.15	0.2022	1.255	0.008
297.15	0.2022	1.317	0.008
299.15	0.2022	1.379	0.008
301.15	0.2022	1.443	0.009
303.15	0.2022	1.507	0.009
305.15	0.2022	1.571	0.009
307.15	0.2022	1.639	0.01
309.15	0.2022	1.707	0.01
311.15	0.2022	1.779	0.011
313.15	0.2022	1.843	0.011
315.15	0.2022	1.922	0.012
317.15	0.2022	1.975	0.012
319.15	0.2022	2.055	0.012
321.15	0.2022	2.125	0.013
323.15	0.2022	2.198	0.013
325.15	0.2022	2.271	0.014
327.15	0.2022	2.345	0.014
329.15	0.2022	2.426	0.015
331.15	0.2022	2.5	0.015
333.15	0.2022	2.575	0.015
293.15	0.3	0.995	0.0061
295.15	0.3	1.061	0.006
297.15	0.3	1.122	0.007
299.15	0.3	1.193	0.007
301.15	0.3	1.265	0.008
303.15	0.3	1.336	0.008
305.15	0.3	1.407	0.009
307.15	0.3	1.481	0.009
309.15	0.3	1.56	0.009
311.15	0.3	1.636	0.01
313.15	0.3	1.714	0.01
315.15	0.3	1.795	0.011
317.15	0.3	1.874	0.011
319.15	0.3	1.957	0.012
321.15	0.3	2.04	0.012
323.15	0.3	2.124	0.013
325.15	0.3	2.21	0.013
327.15	0.3	2.296	0.014
329.15	0.3	2.382	0.014
331.15	0.3	2.466	0.015
333.15	0.3	2.548	0.015
293.15	0.4035	0.7852	0.0048
295.15	0.4035	0.8484	0.0052
297.15	0.4035	0.913	0.0056
299.15	0.4035	0.9842	0.006
301.15	0.4035	1.0511	0.0064
303.15	0.4035	1.135	0.007
305.15	0.4035	1.214	0.007
307.15	0.4035	1.295	0.008
309.15	0.4035	1.376	0.008
311.15	0.4035	1.461	0.009
313.15	0.4035	1.553	0.009
315.15	0.4035	1.646	0.01
317.15	0.4035	1.729	0.01
319.15	0.4035	1.817	0.011
321.15	0.4035	1.908	0.012
323.15	0.4035	1.996	0.012
325.15	0.4035	2.082	0.013
327.15	0.4035	2.161	0.013
329.15	0.4035	2.241	0.013
331.15	0.4035	2.324	0.014
333.15	0.4035	2.394	0.014
