Measured thermophysical data. Density, Viscosity, and Interfacial Tension of Binary Mixture of Tri-iso-amyl Phosphate (TiAP) and n-Dodecane: Effect of Compositions and Gamma Absorbed Doses
Source: J. Chem. Eng. Data, 2014, 10.1021/je400493x
Compound 1: triisopentyl phosphate, C15H33O4P, InChI=1S/C15H33O4P/c1-13(2)7-10-17-20(16,18-11-8-14(3)4)19-12-9-15(5)6/h13-15H,7-12H2,1-6H3, purity 98.7%
Compound 2: dodecane, C12H26, InChI=1S/C12H26/c1-3-5-7-9-11-12-10-8-6-4-2/h3-12H2,1-2H3, purity 99.5%
Compound 3: water, H2O, InChI=1S/H2O/h1H2, purity 99.9%

System: triisopentyl phosphate; phases: Liquid
Property: Mass density, kg/m3 (Liquid); method: VIBTUB:UFactor:32
Temperature, K	Pressure, kPa	Mass density, kg/m3	uncertainty
298.15	100	946.95	1.8

System: triisopentyl phosphate; phases: Liquid
Property: Viscosity, Pa*s (Liquid); method: CONCYL:UFactor:4
Temperature, K	Pressure, kPa	Viscosity, Pa*s	uncertainty
298.15	100	0.004267	7.6e-05

System: dodecane; phases: Liquid
Property: Mass density, kg/m3 (Liquid); method: VIBTUB:UFactor:32
Temperature, K	Pressure, kPa	Mass density, kg/m3	uncertainty
298.15	100	745.29	4.21

System: dodecane; phases: Liquid
Property: Viscosity, Pa*s (Liquid); method: CONCYL:UFactor:4
Temperature, K	Pressure, kPa	Viscosity, Pa*s	uncertainty
298.15	100	0.001347	3.3e-05

System: dodecane + triisopentyl phosphate; phases: Liquid
Fixed: Temperature, K = 298.15
Fixed: Pressure, kPa = 100
Property: Mass density, kg/m3 (Liquid); method: VIBTUB:UFactor:32
Mole fraction of triisopentyl phosphate	Mass density, kg/m3	uncertainty
0	745.29	4.21
0.0999	765.49	3.96
0.1998	785.78	3.71
0.3001	805.91	3.47
0.4002	826.05	3.23
0.5001	846.25	2.99
0.5999	866.75	2.74
0.7002	888.26	2.49
0.7998	909.12	2.24
0.9001	929.41	2
1	946.95	1.8

System: dodecane + triisopentyl phosphate; phases: Liquid
Fixed: Temperature, K = 298.15
Fixed: Pressure, kPa = 100
Property: Viscosity, Pa*s (Liquid); method: CONCYL:UFactor:4
Mole fraction of triisopentyl phosphate	Viscosity, Pa*s	uncertainty
0	0.001347	3.3e-05
0.0999	0.001488	3.5e-05
0.1998	0.001678	3.7e-05
0.3001	0.001896	4e-05
0.4002	0.002119	4.3e-05
0.5001	0.002391	4.7e-05
0.5999	0.002674	5.1e-05
0.7002	0.003015	5.6e-05
0.7998	0.003375	6.2e-05
0.9001	0.003804	6.8e-05
1	0.004267	7.6e-05

System: dodecane + triisopentyl phosphate + water; phases: Liquid mixture 1, Liquid mixture 2
Fixed: Pressure, kPa = 100
Fixed: Temperature, K = 298.15
Property: Interfacial tension, N/m (Liquid mixture 1); method: Drop volume
Mole fraction of triisopentyl phosphate	Interfacial tension, N/m	uncertainty
0	0.0526	0.0009
0.0999	0.0353	0.0008
0.1998	0.0255	0.0008
0.3001	0.0205	0.0008
0.4002	0.018	0.0008
0.5001	0.0175	0.0008
0.5999	0.0164	0.0008
0.7002	0.0162	0.0008
0.7998	0.0152	0.0008
0.9001	0.0151	0.0008
1	0.0144	0.0008

System: dodecane + water; phases: Liquid mixture 1, Liquid mixture 2
Property: Interfacial tension, N/m (Liquid mixture 1); method: Drop volume
Pressure, kPa	Temperature, K	Interfacial tension, N/m	uncertainty
100	298.15	0.0526	0.0008

System: triisopentyl phosphate + water; phases: Liquid mixture 1, Liquid mixture 2
Property: Interfacial tension, N/m (Liquid mixture 1); method: Drop volume
Temperature, K	Pressure, kPa	Interfacial tension, N/m	uncertainty
298.15	101	0.0144	0.0008
