Measured thermophysical data. Solubilization Behavior of Paracetamol in Transcutol Water Mixtures at (298.15 to 333.15) K
Source: J. Chem. Eng. Data, 2013, 10.1021/je4008525
Compound 1: N-acetyl-p-aminophenol, C8H9NO2, InChI=1S/C8H9NO2/c1-6(10)9-7-2-4-8(11)5-3-7/h2-5,11H,1H3,(H,9,10), purity 99.5%
Compound 2: 3,6-dioxa-1-octanol, C6H14O3, InChI=1S/C6H14O3/c1-2-8-5-6-9-4-3-7/h7H,2-6H2,1H3, purity 99.98%
Compound 3: water, H2O, InChI=1S/H2O/h1H2

System: N-acetyl-p-aminophenol + 3,6-dioxa-1-octanol + water; phases: Liquid, Crystal
Fixed: Pressure, kPa = 101
Property: Mole fraction of N-acetyl-p-aminophenol (Liquid); method: UV-visible spectrophotometry
Temperature, K	Solvent: Mass fraction of 3,6-dioxa-1-octanol	Mole fraction of N-acetyl-p-aminophenol	uncertainty
298.15	0	0.0016	0.0002
303.15	0	0.0019	0.0003
308.15	0	0.0023	0.0003
313.15	0	0.0027	0.0004
318.15	0	0.0033	0.0004
323.15	0	0.004	0.0005
328.15	0	0.0047	0.0006
333.15	0	0.0055	0.0007
298.15	0.1	0.0037	0.0005
303.15	0.1	0.0042	0.0005
308.15	0.1	0.0052	0.0007
313.15	0.1	0.0061	0.0008
318.15	0.1	0.0073	0.0009
323.15	0.1	0.0085	0.0011
328.15	0.1	0.0097	0.0012
333.15	0.1	0.0108	0.0014
298.15	0.2	0.006	0.0008
308.15	0.2	0.0079	0.001
303.15	0.2	0.0069	0.0009
313.15	0.2	0.0089	0.0011
318.15	0.2	0.01	0.0013
323.15	0.2	0.0113	0.0014
328.15	0.2	0.0127	0.0016
333.15	0.2	0.0141	0.0018
298.15	0.3	0.0102	0.0013
313.15	0.3	0.0143	0.0018
303.15	0.3	0.0114	0.0015
318.15	0.3	0.0158	0.002
323.15	0.3	0.0176	0.0022
308.15	0.3	0.0129	0.0016
328.15	0.3	0.0194	0.0025
333.15	0.3	0.0211	0.0027
313.15	0.4	0.0211	0.0027
318.15	0.4	0.0227	0.0029
298.15	0.4	0.0172	0.0022
323.15	0.4	0.0244	0.0031
303.15	0.4	0.0185	0.0024
328.15	0.4	0.0263	0.0034
333.15	0.4	0.0283	0.0036
308.15	0.4	0.0197	0.0025
318.15	0.5	0.0315	0.004
308.15	0.5	0.029	0.0037
313.15	0.5	0.0303	0.0039
298.15	0.5	0.0268	0.0034
323.15	0.5	0.0328	0.0042
303.15	0.5	0.0278	0.0035
328.15	0.5	0.0341	0.0043
333.15	0.5	0.0357	0.0045
323.15	0.6	0.0389	0.005
313.15	0.6	0.0359	0.0046
308.15	0.6	0.0344	0.0044
298.15	0.6	0.0318	0.004
328.15	0.6	0.0404	0.0051
333.15	0.6	0.0424	0.0054
303.15	0.6	0.033	0.0042
318.15	0.6	0.0374	0.0048
323.15	0.7	0.0476	0.0061
318.15	0.7	0.0459	0.0058
308.15	0.7	0.0423	0.0054
303.15	0.7	0.0406	0.0052
328.15	0.7	0.0496	0.0063
298.15	0.7	0.039	0.005
333.15	0.7	0.0516	0.0066
313.15	0.7	0.0441	0.0056
308.15	0.8	0.0543	0.0069
318.15	0.8	0.0588	0.0075
328.15	0.8	0.0634	0.0081
313.15	0.8	0.0565	0.0072
323.15	0.8	0.0609	0.0078
333.15	0.8	0.066	0.0084
298.15	0.8	0.0502	0.0064
303.15	0.8	0.0523	0.0067
308.15	0.9	0.0749	0.0095
328.15	0.9	0.0876	0.0112
303.15	0.9	0.0716	0.0091
318.15	0.9	0.0814	0.0104
323.15	0.9	0.0845	0.0108
333.15	0.9	0.091	0.0119
298.15	0.9	0.0688	0.0088
313.15	0.9	0.0782	0.01
298.15	1	0.111	0.0142
313.15	1	0.1342	0.0171
303.15	1	0.1185	0.0151
323.15	1	0.1533	0.0195
308.15	1	0.1263	0.0161
318.15	1	0.1437	0.0183
328.15	1	0.1656	0.0211
333.15	1	0.178	0.0227

System: N-acetyl-p-aminophenol + water; phases: Liquid, Crystal
Fixed: Pressure, kPa = 101
Property: Mole fraction of N-acetyl-p-aminophenol (Liquid); method: UV-visible spectrophotometry
Temperature, K	Mole fraction of N-acetyl-p-aminophenol	uncertainty
298.15	0.0016	0.0002
303.15	0.0019	0.0003
308.15	0.0023	0.0003
313.15	0.0027	0.0004
318.15	0.0033	0.0004
323.15	0.004	0.0005
328.15	0.0047	0.0006
333.15	0.0055	0.0007

System: N-acetyl-p-aminophenol + 3,6-dioxa-1-octanol; phases: Liquid, Crystal
Fixed: Pressure, kPa = 101
Property: Mole fraction of N-acetyl-p-aminophenol (Liquid); method: UV-visible spectrophotometry
Temperature, K	Mole fraction of N-acetyl-p-aminophenol	uncertainty
298.15	0.111	0.0142
313.15	0.1342	0.0171
303.15	0.1185	0.0151
323.15	0.1533	0.0195
308.15	0.1263	0.0161
318.15	0.1437	0.0183
328.15	0.1656	0.0211
333.15	0.178	0.0227
