Measured thermophysical data. Experimental and Modeling Studies on the Densities of Aqueous Solutions of 1-Carboxymethyl-3-methylimidazolium Chloride, 1-Carboxymethyl-3-propylimidazolium Chloride, and 1-(2-Hydroxylethyl)-3-propylimidazolium Chloride at (293.15, 298.15, and 303.15) K
Source: J. Chem. Eng. Data, 2014, 10.1021/je400310h
Compound 1: 1-carboxymethyl-3-methylimidazolium chloride, C6H9ClN2O2, InChI=1S/C6H8N2O2.ClH/c1-7-2-3-8(5-7)4-6(9)10;/h2-3,5H,4H2,1H3;1H
Compound 2: 1-(carboxymethyl)-3-propylimidazolium chloride, C8H13ClN2O2, InChI=1S/C8H12N2O2.ClH/c1-2-3-9-4-5-10(7-9)6-8(11)12;/h4-5,7H,2-3,6H2,1H3;1H
Compound 3: 1-(2-hydroxylethyl)-3-propylimidazolium chloride, C8H15ClN2O, InChI=1S/C8H15N2O.ClH/c1-2-3-9-4-5-10(8-9)6-7-11;/h4-5,8,11H,2-3,6-7H2,1H3;1H/q+1;/p-1
Compound 4: water, H2O, InChI=1S/H2O/h1H2

System: water + 1-carboxymethyl-3-methylimidazolium chloride; phases: Liquid
Fixed: Pressure, kPa = 101
Property: Mass density, kg/m3 (Liquid); method: Vibrating tube method
Temperature, K	Molality, mol/kg of 1-carboxymethyl-3-methylimidazolium chloride	Mass density, kg/m3	uncertainty
293.15	6.3751	1173	0.19
293.15	4.4656	1140.75	0.16
293.15	3.0936	1110.21	0.14
293.15	2.0405	1080.57	0.12
293.15	1.2143	1052.15	0.11
293.15	0.5443	1024.61	0.11
293.15	0.2072	1008.87	0.11
293.15	0.1018	1003.6	0.11
293.15	0.0505	1000.94	0.1
293.15	0.0302	999.87	0.1
298.15	6.3751	1170.21	0.19
298.15	4.4656	1138.14	0.16
298.15	3.0936	1107.83	0.14
298.15	2.0405	1078.44	0.12
298.15	1.2143	1050.32	0.11
298.15	0.5443	1022.95	0.11
298.15	0.2072	1007.5	0.11
298.15	0.1018	1002.36	0.1
298.15	0.0505	999.76	0.1
298.15	0.0302	998.71	0.11
303.15	6.3751	1167.36	0.19
303.15	4.4656	1135.4	0.16
303.15	3.0936	1105.34	0.14
303.15	2.0405	1076.13	0.12
303.15	1.2143	1048.33	0.11
303.15	0.5443	1021.26	0.11
303.15	0.2072	1006.06	0.11
303.15	0.1018	1000.9	0.1
303.15	0.0505	998.24	0.1
303.15	0.0302	997.12	0.11

System: water + 1-(carboxymethyl)-3-propylimidazolium chloride; phases: Liquid
Fixed: Pressure, kPa = 101
Property: Mass density, kg/m3 (Liquid); method: Vibrating tube method
Temperature, K	Molality, mol/kg of 1-(carboxymethyl)-3-propylimidazolium chloride	Mass density, kg/m3	uncertainty
293.15	7.7681	1150.29	0.2
293.15	5.1141	1123.69	0.17
293.15	3.3857	1097.44	0.14
293.15	2.1655	1071.45	0.12
293.15	1.2573	1046.14	0.11
293.15	0.5569	1021.7	0.11
293.15	0.2084	1007.61	0.11
293.15	0.1021	1002.96	0.1
293.15	0.0505	1000.6	0.1
293.15	0.0302	999.68	0.1
298.15	7.7681	1147.15	0.2
298.15	5.1141	1120.74	0.17
298.15	3.3857	1094.76	0.14
298.15	2.1655	1069.11	0.12
298.15	1.2573	1044.05	0.11
298.15	0.5569	1019.83	0.11
298.15	0.2084	1006.08	0.11
298.15	0.1021	1001.71	0.1
298.15	0.0505	999.44	0.1
298.15	0.0302	998.52	0.1
303.15	7.7681	1143.97	0.2
303.15	5.1141	1117.73	0.17
303.15	3.3857	1091.97	0.14
303.15	2.1655	1066.6	0.12
303.15	1.2573	1041.75	0.11
303.15	0.5569	1018.22	0.11
303.15	0.2084	1004.64	0.11
303.15	0.1021	1000.1	0.1
303.15	0.0505	998	0.1
303.15	0.0302	997.01	0.11

System: water + 1-(2-hydroxylethyl)-3-propylimidazolium chloride; phases: Liquid
Fixed: Pressure, kPa = 101
Property: Mass density, kg/m3 (Liquid); method: Vibrating tube method
Temperature, K	Molality, mol/kg of 1-(2-hydroxylethyl)-3-propylimidazolium chloride	Mass density, kg/m3	uncertainty
293.15	7.003	1101.22	0.19
293.15	5.9922	1093.61	0.18
293.15	4.7722	1082.55	0.15
293.15	3.23	1063.98	0.12
293.15	2.1027	1046.02	0.09
293.15	1.1749	1027.62	0.07
293.15	0.5535	1012.98	0.06
293.15	0.208	1004.05	0.05
293.15	0.102	1001.01	0.05
293.15	0.0505	999.68	0.05
293.15	0.01	998.4	0.05
298.15	7.003	1098.33	0.19
298.15	5.9922	1090.78	0.17
298.15	4.7722	1079.86	0.15
298.15	3.23	1061.54	0.12
298.15	2.1027	1043.76	0.09
298.15	1.1749	1025.68	0.07
298.15	0.5535	1011.56	0.06
298.15	0.208	1002.76	0.05
298.15	0.102	999.89	0.05
298.15	0.0505	998.47	0.05
298.15	0.01	997.35	0.05
303.15	7.003	1095.39	0.19
303.15	5.9922	1087.9	0.17
303.15	4.7722	1077.08	0.15
303.15	3.23	1058.92	0.12
303.15	2.1027	1041.7	0.09
303.15	1.1749	1023.8	0.07
303.15	0.5535	1009.99	0.06
303.15	0.208	1001.15	0.05
303.15	0.102	998.4	0.05
303.15	0.0505	997.08	0.05
303.15	0.01	995.88	0.05

System: water + 1-carboxymethyl-3-methylimidazolium chloride + 1-(2-hydroxylethyl)-3-propylimidazolium chloride; phases: Liquid
Fixed: Pressure, kPa = 101
Property: Mass density, kg/m3 (Liquid); method: Vibrating tube method
Temperature, K	Molality, mol/kg of 1-(2-hydroxylethyl)-3-propylimidazolium chloride	Molality, mol/kg of 1-carboxymethyl-3-methylimidazolium chloride	Mass density, kg/m3	uncertainty
293.15	3	3.0006	1131.33	0.17
293.15	4.5005	1.5002	1111.76	0.17
293.15	1.5	4.5004	1151.98	0.18
293.15	1.5002	1.5004	1085.37	0.13
293.15	2.2509	0.7503	1072.59	0.13
293.15	0.75	2.25	1098.37	0.14
293.15	0.5009	0.5009	1034.5	0.11
293.15	0.7513	0.2505	1029.03	0.11
293.15	0.2505	0.7514	1040.02	0.11
293.15	0.0501	0.0501	1002.33	0.11
293.15	0.0751	0.0251	1001.64	0.1
293.15	0.025	0.0751	1003.01	0.11
298.15	3	3.0006	1128.52	0.17
298.15	4.5005	1.5002	1108.81	0.16
298.15	1.5	4.5004	1149.28	0.18
298.15	1.5002	1.5004	1082.8	0.13
298.15	2.2509	0.7503	1070.19	0.13
298.15	0.75	2.25	1095.88	0.14
298.15	0.5009	0.5009	1032.67	0.11
298.15	0.7513	0.2505	1027.33	0.11
298.15	0.2505	0.7514	1038.18	0.11
298.15	0.0501	0.0501	1001.12	0.79
298.15	0.0751	0.0251	1000.53	0.1
298.15	0.025	0.0751	1001.82	0.1
303.15	3	3.0006	1125.54	0.17
303.15	4.5005	1.5002	1106.03	0.16
303.15	1.5	4.5004	1146.15	0.18
303.15	1.5002	1.5004	1080.4	0.13
303.15	2.2509	0.7503	1067.71	0.13
303.15	0.75	2.25	1093.52	0.13
303.15	0.5009	0.5009	1030.84	0.11
303.15	0.7513	0.2505	1025.53	0.11
303.15	0.2505	0.7514	1036.33	0.11
303.15	0.0501	0.0501	999.66	0.13
303.15	0.0751	0.0251	999.04	0.1
303.15	0.025	0.0751	1000.31	0.1

System: water + 1-(2-hydroxylethyl)-3-propylimidazolium chloride + 1-(carboxymethyl)-3-propylimidazolium chloride; phases: Liquid
Fixed: Pressure, kPa = 101
Property: Mass density, kg/m3 (Liquid); method: Vibrating tube method
Temperature, K	Molality, mol/kg of 1-(2-hydroxylethyl)-3-propylimidazolium chloride	Molality, mol/kg of 1-(carboxymethyl)-3-propylimidazolium chloride	Mass density, kg/m3	uncertainty
293.15	2.9985	3.0043	1116.09	0.17
293.15	4.5016	1.502	1104.65	0.16
293.15	1.4996	4.5025	1127.71	0.18
293.15	1.5023	1.5024	1077.14	0.13
293.15	2.2553	0.7513	1068.74	0.13
293.15	0.7511	2.2517	1085.41	0.13
293.15	0.4997	0.5015	1031.6	0.11
293.15	0.7514	0.2504	1027.63	0.11
293.15	0.25	0.7506	1035.56	0.11
293.15	0.0501	0.0502	1001.99	0.11
293.15	0.0752	0.0252	1001.5	0.1
293.15	0.025	0.0751	1002.49	0.1
298.15	2.9985	3.0043	1113.18	0.17
298.15	4.5016	1.502	1101.79	0.16
298.15	1.4996	4.5025	1124.69	0.17
298.15	1.5023	1.5024	1074.64	0.13
298.15	2.2553	0.7513	1066.32	0.13
298.15	0.7511	2.2517	1082.83	0.13
298.15	0.4997	0.5015	1029.84	0.11
298.15	0.7514	0.2504	1025.89	0.11
298.15	0.25	0.7506	1033.69	0.11
298.15	0.0501	0.0502	1000.8	0.68
298.15	0.0752	0.0252	1000.36	0.1
298.15	0.025	0.0751	1001.27	0.1
303.15	2.9985	3.0043	1110.19	0.17
303.15	4.5016	1.502	1098.9	0.16
303.15	1.4996	4.5025	1121.66	0.17
303.15	1.5023	1.5024	1072.07	0.13
303.15	2.2553	0.7513	1063.83	0.13
303.15	0.7511	2.2517	1080.18	0.13
303.15	0.4997	0.5015	1027.93	0.11
303.15	0.7514	0.2504	1024.07	0.11
303.15	0.25	0.7506	1031.81	0.11
303.15	0.0501	0.0502	999.3	0.2
303.15	0.0752	0.0252	998.87	0.1
303.15	0.025	0.0751	999.79	0.1

System: water + 1-carboxymethyl-3-methylimidazolium chloride + 1-(carboxymethyl)-3-propylimidazolium chloride; phases: Liquid
Fixed: Pressure, kPa = 101
Property: Mass density, kg/m3 (Liquid); method: Vibrating tube method
Temperature, K	Molality, mol/kg of 1-carboxymethyl-3-methylimidazolium chloride	Molality, mol/kg of 1-(carboxymethyl)-3-propylimidazolium chloride	Mass density, kg/m3	uncertainty
293.15	2.9649	3.0352	1156.18	0.18
293.15	4.4977	1.5025	1165.15	0.19
293.15	1.4981	4.5019	1147.9	0.18
293.15	1.5004	1.4993	1102.66	0.14
293.15	2.2501	0.7494	1107.2	0.14
293.15	0.7496	2.2502	1098.14	0.14
293.15	0.5007	0.5005	1042.54	0.11
293.15	0.7506	0.2509	1043.98	0.11
293.15	0.2502	0.7507	1041.04	0.11
293.15	0.05	0.0501	1003.43	0.1
293.15	0.0751	0.025	1003.6	0.11
293.15	0.025	0.0751	1003.24	0.11
298.15	2.9649	3.0352	1153.22	0.18
298.15	4.4977	1.5025	1162.26	0.18
298.15	1.4981	4.5019	1144.9	0.18
298.15	1.5004	1.4993	1100.19	0.14
298.15	2.2501	0.7494	1104.82	0.14
298.15	0.7496	2.2502	1095.59	0.14
298.15	0.5007	0.5005	1040.59	0.11
298.15	0.7506	0.2509	1042.21	0.11
298.15	0.2502	0.7507	1039.06	0.11
298.15	0.05	0.0501	1002.14	0.1
298.15	0.0751	0.025	1002.3	0.11
298.15	0.025	0.0751	1002	0.11
303.15	2.9649	3.0352	1149.95	0.18
303.15	4.4977	1.5025	1158.74	0.18
303.15	1.4981	4.5019	1141.83	0.18
303.15	1.5004	1.4993	1097.51	0.14
303.15	2.2501	0.7494	1102.24	0.14
303.15	0.7496	2.2502	1092.99	0.14
303.15	0.5007	0.5005	1038.7	0.11
303.15	0.7506	0.2509	1040.34	0.11
303.15	0.2502	0.7507	1036.99	0.11
303.15	0.05	0.0501	1000.67	0.1
303.15	0.0751	0.025	1000.86	0.11
303.15	0.025	0.0751	1000.5	0.11
