Measured thermophysical data. Excess Enthalpy and Excess Volume for Pyridine + Methyldiethanolamine and Pyridine + Ethanolamine Mixtures
Source: J. Chem. Eng. Data, 2013, 10.1021/je400184t
Compound 1: N-methyldiethanolamine, C5H13NO2, InChI=1S/C5H13NO2/c1-6(2-4-7)3-5-8/h7-8H,2-5H2,1H3, purity 99.8%
Compound 2: pyridine, C5H5N, InChI=1S/C5H5N/c1-2-4-6-5-3-1/h1-5H, purity 99.9%
Compound 3: toluene, C7H8, InChI=1S/C7H8/c1-7-5-3-2-4-6-7/h2-6H,1H3, purity 99.9%
Compound 4: heptane, C7H16, InChI=1S/C7H16/c1-3-5-7-6-4-2/h3-7H2,1-2H3, purity 99.4%
Compound 5: 2-aminoethan-1-ol, C2H7NO, InChI=1S/C2H7NO/c3-1-2-4/h4H,1-3H2, purity 99.9%

System: N-methyldiethanolamine; phases: Liquid
Fixed: Pressure, kPa = 101
Property: Mass density, kg/m3 (Liquid); method: Vibrating tube method
Temperature, K	Mass density, kg/m3	uncertainty
288.15	1046.362	0.207
298.15	1036.805	0.206
353.15	994.015	0.204

System: pyridine; phases: Liquid
Fixed: Pressure, kPa = 101
Property: Mass density, kg/m3 (Liquid); method: Vibrating tube method
Temperature, K	Mass density, kg/m3	uncertainty
288.15	988.041	0.203
298.15	978.145	0.204
353.15	921.953	0.208
288.15	988.343	0.203
298.15	978.086	0.204
353.15	921.952	0.208

System: toluene; phases: Liquid
Property: Mass density, kg/m3 (Liquid); method: Vibrating tube method
Pressure, kPa	Temperature, K	Mass density, kg/m3	uncertainty
101	298.15	862.222	0.215

System: heptane; phases: Liquid
Property: Mass density, kg/m3 (Liquid); method: Vibrating tube method
Pressure, kPa	Temperature, K	Mass density, kg/m3	uncertainty
101	298.15	679.537	0.264

System: 2-aminoethan-1-ol; phases: Liquid
Fixed: Pressure, kPa = 101
Property: Mass density, kg/m3 (Liquid); method: Vibrating tube method
Temperature, K	Mass density, kg/m3	uncertainty
288.15	1019.872	0.203
298.15	1012.123	0.203
353.15	968.332	0.204

System: toluene + heptane; phases: Liquid
Fixed: Pressure, kPa = 101
Fixed: Temperature, K = 298.15
Property: Excess molar enthalpy (molar enthalpy of mixing), kJ/mol (Liquid); method: Calvet calorimetry
Mole fraction of heptane	Excess molar enthalpy (molar enthalpy of mixing), kJ/mol	uncertainty
0.00901	0.023	0.002
0.02172	0.057	0.002
0.04198	0.106	0.003
0.06142	0.15	0.003
0.08009	0.191	0.003
0.09803	0.226	0.003
0.11529	0.26	0.003
0.13189	0.289	0.003
0.14789	0.317	0.004
0.1633	0.341	0.004
0.17817	0.364	0.004
0.19252	0.384	0.004
0.20638	0.402	0.004
0.21977	0.418	0.004
0.23271	0.433	0.004
0.24523	0.448	0.004
0.25735	0.461	0.004
0.26909	0.472	0.005
0.28046	0.483	0.005
0.29148	0.492	0.005
0.30217	0.501	0.005
0.31255	0.508	0.005
0.32261	0.516	0.005
0.33239	0.522	0.005
0.34189	0.527	0.005
0.35113	0.532	0.005
0.41122	0.554	0.005
0.41366	0.554	0.005
0.41609	0.554	0.005
0.41849	0.555	0.005
0.42087	0.555	0.005
0.42324	0.556	0.005
0.42558	0.556	0.005
0.42791	0.556	0.005
0.43022	0.557	0.005
0.43251	0.557	0.005
0.43478	0.557	0.005
0.43818	0.557	0.005
0.44154	0.558	0.005
0.44487	0.558	0.005
0.44815	0.558	0.005
0.45139	0.558	0.005
0.4546	0.558	0.005
0.45777	0.558	0.005
0.4609	0.558	0.005
0.464	0.558	0.005
0.46706	0.558	0.005
0.47008	0.557	0.005
0.47308	0.557	0.005
0.47604	0.557	0.005
0.47896	0.557	0.005
0.48185	0.556	0.005
0.52667	0.547	0.005
0.52986	0.546	0.005
0.53301	0.545	0.005
0.53612	0.544	0.005
0.53919	0.543	0.005
0.54222	0.542	0.005
0.54521	0.541	0.005
0.54816	0.54	0.005
0.55107	0.539	0.005
0.55394	0.538	0.005
0.55678	0.537	0.005
0.55887	0.536	0.005
0.56095	0.535	0.005
0.563	0.534	0.005
0.56504	0.533	0.005
0.56706	0.532	0.005
0.56906	0.531	0.005
0.57104	0.53	0.005
0.573	0.529	0.005
0.57495	0.528	0.005
0.57687	0.527	0.005
0.57878	0.527	0.005
0.58068	0.526	0.005
0.58255	0.525	0.005
0.58441	0.524	0.005
0.58625	0.523	0.005
0.61478	0.507	0.005
0.62089	0.502	0.005
0.62712	0.498	0.005
0.63348	0.493	0.005
0.63997	0.488	0.005
0.64659	0.484	0.005
0.65336	0.478	0.005
0.66026	0.473	0.005
0.66731	0.467	0.005
0.67452	0.461	0.004
0.68188	0.454	0.004
0.68941	0.447	0.004
0.6971	0.44	0.004
0.70497	0.433	0.004
0.71301	0.424	0.004
0.72125	0.416	0.004
0.72967	0.408	0.004
0.7383	0.398	0.004
0.74713	0.388	0.004
0.75617	0.378	0.004
0.76227	0.371	0.004
0.76846	0.364	0.004
0.77476	0.356	0.004
0.78116	0.348	0.004
0.78767	0.34	0.004
0.79428	0.33	0.004
0.90016	0.175	0.003
0.90881	0.161	0.003
0.91763	0.147	0.003
0.92662	0.132	0.003
0.9358	0.116	0.003
0.94337	0.103	0.003
0.95106	0.09	0.002
0.95888	0.077	0.002
0.96683	0.063	0.002
0.97492	0.048	0.002
0.98314	0.033	0.002
0.9915	0.016	0.002
0.3601	0.536	0.005
0.36884	0.54	0.005
0.37733	0.544	0.005
0.38561	0.547	0.005
0.38827	0.548	0.005
0.39091	0.548	0.005
0.39352	0.549	0.005
0.39611	0.55	0.005
0.39868	0.551	0.005
0.40123	0.551	0.005
0.40376	0.552	0.005
0.40627	0.552	0.005
0.40875	0.553	0.005
0.48471	0.556	0.005
0.48754	0.556	0.005
0.49034	0.555	0.005
0.49311	0.555	0.005
0.49585	0.554	0.005
0.49947	0.553	0.005
0.50304	0.553	0.005
0.50656	0.552	0.005
0.51003	0.552	0.005
0.51345	0.551	0.005
0.51682	0.55	0.005
0.52015	0.549	0.005
0.52343	0.548	0.005
0.58808	0.522	0.005
0.58989	0.521	0.005
0.59168	0.52	0.005
0.59346	0.519	0.005
0.59523	0.518	0.005
0.59697	0.517	0.005
0.59871	0.516	0.005
0.60043	0.515	0.005
0.60213	0.514	0.005
0.60382	0.513	0.005
0.60549	0.512	0.005
0.60715	0.511	0.005
0.6088	0.51	0.005
0.80101	0.322	0.004
0.80786	0.312	0.004
0.81482	0.303	0.004
0.8219	0.294	0.003
0.82911	0.284	0.003
0.83645	0.274	0.003
0.84391	0.263	0.003
0.85151	0.252	0.003
0.85925	0.24	0.003
0.86713	0.228	0.003
0.87516	0.216	0.003
0.88334	0.203	0.003
0.89167	0.189	0.003

System: toluene + heptane; phases: Liquid
Fixed: Pressure, kPa = 101
Fixed: Temperature, K = 298.15
Property: Mass density, kg/m3 (Liquid); method: Vibrating tube method
Mole fraction of heptane	Mass density, kg/m3	uncertainty
0	862.222	0.215
0.00177	861.767	0.215
0.01118	859.353	0.215
0.0267	855.387	0.216
0.05849	847.515	0.217
0.12966	830.567	0.22
0.20595	813.369	0.224
0.27522	798.596	0.227
0.36045	781.402	0.231
0.44943	764.554	0.235
0.47181	760.485	0.236
0.66591	727.559	0.246
0.81665	704.661	0.254
0.90938	691.588	0.259
0.96238	684.471	0.262
0.99682	679.955	0.264
1	679.537	0.264

System: pyridine + 2-aminoethan-1-ol; phases: Liquid
Fixed: Pressure, kPa = 101
Property: Mass density, kg/m3 (Liquid); method: Vibrating tube method
Temperature, K	Mole fraction of pyridine	Mass density, kg/m3	uncertainty
288.15	0	1019.872	0.203
288.15	0.02208	1018.828	0.203
288.15	0.03932	1018.014	0.203
288.15	0.06973	1016.732	0.203
288.15	0.13692	1014.029	0.203
288.15	0.21465	1011.06	0.2
288.15	0.34549	1006.116	0.203
288.15	0.44136	1002.696	0.202
288.15	0.58186	998.105	0.202
288.15	0.67671	995.328	0.203
288.15	0.78999	992.252	0.203
288.15	0.87805	990.097	0.203
288.15	0.96	988.258	0.203
288.15	1	988.041	0.203
298.15	0	1012.123	0.203
298.15	0.01329	1011.365	0.203
298.15	0.03932	1010.085	0.203
298.15	0.06973	1008.705	0.203
298.15	0.13692	1005.81	0.2
298.15	0.21465	1002.592	0.202
298.15	0.34549	997.334	0.202
298.15	0.44136	993.687	0.203
298.15	0.58186	988.794	0.203
298.15	0.67671	985.804	0.203
298.15	0.78999	982.566	0.203
298.15	0.87805	980.237	0.203
298.15	0.98169	977.805	0.204
298.15	1	978.145	0.204
353.15	0	968.332	0.204
353.15	0.02208	966.667	0.204
353.15	0.03932	965.353	0.204
353.15	0.06973	963.408	0.205
353.15	0.13692	959.323	0.205
353.15	0.21465	954.908	0.205
353.15	0.34549	947.883	0.206
353.15	0.44136	943.004	0.206
353.15	0.58186	936.439	0.207
353.15	0.67671	932.426	0.207
353.15	0.78999	928.035	0.208
353.15	0.87805	924.973	0.208
353.15	0.96	922.401	0.208
353.15	1	921.953	0.208

System: pyridine + 2-aminoethan-1-ol; phases: Liquid
Fixed: Pressure, kPa = 101
Fixed: Temperature, K = 298.15
Property: Excess molar enthalpy (molar enthalpy of mixing), kJ/mol (Liquid); method: Calvet calorimetry
Mole fraction of pyridine	Excess molar enthalpy (molar enthalpy of mixing), kJ/mol	uncertainty
0.00998	0.032	0.002
0.0187	0.06	0.002
0.02728	0.088	0.002
0.0357	0.114	0.003
0.04398	0.14	0.003
0.05212	0.165	0.003
0.06012	0.189	0.003
0.06798	0.213	0.003
0.07572	0.235	0.003
0.08333	0.257	0.003
0.09081	0.279	0.003
0.09818	0.299	0.004
0.10542	0.319	0.004
0.11255	0.338	0.004
0.11957	0.356	0.004
0.12648	0.374	0.004
0.13327	0.389	0.004
0.13997	0.404	0.004
0.14656	0.419	0.004
0.15305	0.433	0.004
0.15944	0.446	0.004
0.16574	0.459	0.004
0.17195	0.471	0.005
0.17821	0.483	0.005
0.18446	0.495	0.005
0.19071	0.507	0.005
0.19696	0.519	0.005
0.27822	0.649	0.006
0.28447	0.657	0.006
0.29072	0.666	0.006
0.29697	0.674	0.006
0.30322	0.682	0.006
0.30947	0.69	0.006
0.31573	0.698	0.006
0.32198	0.706	0.006
0.32823	0.713	0.006
0.33448	0.721	0.006
0.34073	0.728	0.006
0.34698	0.735	0.006
0.35323	0.742	0.007
0.35948	0.749	0.007
0.36211	0.752	0.007
0.36521	0.755	0.007
0.36836	0.758	0.007
0.37157	0.762	0.007
0.37483	0.765	0.007
0.37815	0.768	0.007
0.38154	0.772	0.007
0.38498	0.775	0.007
0.38848	0.778	0.007
0.39205	0.781	0.007
0.39569	0.782	0.007
0.39939	0.786	0.007
0.40317	0.79	0.007
0.45963	0.838	0.007
0.46464	0.841	0.007
0.46975	0.845	0.007
0.47498	0.848	0.007
0.48033	0.851	0.007
0.4858	0.855	0.007
0.49139	0.858	0.007
0.49712	0.86	0.007
0.50298	0.863	0.007
0.50898	0.866	0.008
0.51513	0.868	0.008
0.52142	0.87	0.008
0.52193	0.871	0.008
0.52839	0.873	0.008
0.53502	0.875	0.008
0.54181	0.877	0.008
0.54878	0.878	0.008
0.55593	0.88	0.008
0.56327	0.88	0.008
0.57081	0.881	0.008
0.57855	0.881	0.008
0.5865	0.881	0.008
0.59468	0.881	0.008
0.60308	0.88	0.008
0.61173	0.879	0.008
0.62063	0.877	0.008
0.62979	0.874	0.008
0.77935	0.739	0.007
0.79385	0.715	0.006
0.8089	0.687	0.006
0.82453	0.656	0.006
0.84078	0.62	0.006
0.85768	0.576	0.005
0.87527	0.529	0.005
0.89361	0.472	0.005
0.91272	0.407	0.004
0.93268	0.331	0.004
0.95352	0.24	0.003
0.97532	0.135	0.003
0.99814	0.005	0.002
0.20321	0.53	0.005
0.20946	0.541	0.005
0.21572	0.552	0.005
0.22197	0.562	0.005
0.22822	0.573	0.005
0.23447	0.583	0.005
0.24072	0.593	0.005
0.24697	0.602	0.005
0.25322	0.612	0.006
0.25947	0.621	0.006
0.26572	0.631	0.006
0.27197	0.64	0.006
0.40701	0.794	0.007
0.41093	0.797	0.007
0.41493	0.801	0.007
0.41901	0.805	0.007
0.42316	0.809	0.007
0.4274	0.813	0.007
0.43173	0.816	0.007
0.43614	0.82	0.007
0.44064	0.824	0.007
0.44524	0.827	0.007
0.44994	0.831	0.007
0.45473	0.834	0.007
0.63923	0.871	0.008
0.64895	0.867	0.008
0.65897	0.862	0.007
0.66931	0.856	0.007
0.67998	0.849	0.007
0.69099	0.841	0.007
0.70237	0.832	0.007
0.71412	0.822	0.007
0.72628	0.809	0.007
0.73886	0.796	0.007
0.75188	0.779	0.007
0.76536	0.761	0.007

System: N-methyldiethanolamine + pyridine; phases: Liquid
Fixed: Pressure, kPa = 101
Property: Mass density, kg/m3 (Liquid); method: Vibrating tube method
Temperature, K	Mole fraction of pyridine	Mass density, kg/m3	uncertainty
288.15	0	1046.362	0.207
288.15	0.07502	1041.454	0.206
288.15	0.18439	1034.444	0.205
288.15	0.31777	1025.814	0.205
288.15	0.44466	1017.998	0.204
288.15	0.57077	1010.676	0.203
288.15	0.69449	1003.925	0.203
288.15	0.8095	997.843	0.202
288.15	0.88861	993.774	0.203
288.15	0.95968	990.221	0.203
288.15	1	988.343	0.203
298.15	0	1036.805	0.206
298.15	0.04	1034.218	0.206
298.15	0.1	1030.395	0.205
298.15	0.21829	1023.026	0.204
298.15	0.33	1016.102	0.204
298.15	0.52647	1004.445	0.203
298.15	0.6	1000.154	0.203
298.15	0.76874	990.603	0.203
298.15	0.90585	983.032	0.203
298.15	0.95816	980.414	0.203
298.15	1	978.086	0.204
353.15	0	994.015	0.204
353.15	0.01699	992.733	0.204
353.15	0.07502	988.525	0.204
353.15	0.18439	980.64	0.2
353.15	0.31777	971.05	0.2
353.15	0.44466	961.905	0.205
353.15	0.57077	952.805	0.206
353.15	0.69449	943.917	0.206
353.15	0.8095	935.616	0.207
353.15	0.88861	930.006	0.208
353.15	0.95968	924.867	0.208
353.15	1	921.952	0.208

System: N-methyldiethanolamine + pyridine; phases: Liquid
Fixed: Pressure, kPa = 101
Fixed: Temperature, K = 298.15
Property: Excess molar enthalpy (molar enthalpy of mixing), kJ/mol (Liquid); method: Calvet calorimetry
Mole fraction of pyridine	Excess molar enthalpy (molar enthalpy of mixing), kJ/mol	uncertainty
0.00136	-0.002	0.002
0.00718	-0.008	0.002
0.01292	-0.014	0.002
0.0186	-0.019	0.002
0.02422	-0.025	0.002
0.03106	-0.03	0.002
0.0378	-0.035	0.002
0.04445	-0.04	0.002
0.26045	-0.118	0.003
0.26838	-0.119	0.003
0.27223	-0.12	0.003
0.27798	-0.12	0.003
0.28173	-0.121	0.003
0.28545	-0.12	0.003
0.28912	-0.12	0.003
0.29275	-0.121	0.003
0.39222	-0.115	0.003
0.39488	-0.115	0.003
0.39752	-0.114	0.003
0.40013	-0.114	0.003
0.40272	-0.114	0.003
0.40529	-0.113	0.003
0.40784	-0.113	0.003
0.41036	-0.113	0.003
0.48495	-0.101	0.003
0.48724	-0.1	0.003
0.48953	-0.1	0.003
0.49183	-0.099	0.003
0.49412	-0.099	0.003
0.49642	-0.098	0.003
0.49871	-0.098	0.003
0.501	-0.098	0.003
0.57441	-0.08	0.002
0.5767	-0.082	0.002
0.579	-0.081	0.002
0.58129	-0.081	0.002
0.58358	-0.08	0.002
0.58588	-0.08	0.002
0.58817	-0.079	0.002
0.59047	-0.079	0.002
0.66387	-0.061	0.002
0.66617	-0.06	0.002
0.66846	-0.06	0.002
0.67075	-0.059	0.002
0.67305	-0.058	0.002
0.67534	-0.058	0.002
0.67764	-0.057	0.002
0.67993	-0.057	0.002
0.75334	-0.036	0.002
0.75563	-0.036	0.002
0.75792	-0.035	0.002
0.76022	-0.034	0.002
0.76251	-0.034	0.002
0.76481	-0.033	0.002
0.7671	-0.032	0.002
0.76939	-0.032	0.002
0.90712	0.003	0.002
0.9127	0.004	0.002
0.91835	0.005	0.002
0.92407	0.006	0.002
0.92985	0.006	0.002
0.93572	0.007	0.002
0.94165	0.007	0.002
0.94767	0.007	0.002
0.051	-0.044	0.002
0.05747	-0.048	0.002
0.06385	-0.052	0.002
0.0715	-0.056	0.002
0.07636	-0.06	0.002
0.08249	-0.063	0.002
0.08853	-0.066	0.002
0.0945	-0.069	0.002
0.10621	-0.072	0.002
0.11195	-0.075	0.002
0.11761	-0.078	0.002
0.12321	-0.08	0.002
0.12873	-0.083	0.002
0.13419	-0.085	0.002
0.139	-0.087	0.002
0.13957	-0.09	0.002
0.14489	-0.092	0.002
0.15282	-0.094	0.002
0.16061	-0.097	0.002
0.29635	-0.121	0.003
0.29992	-0.121	0.003
0.30344	-0.121	0.003
0.30693	-0.121	0.003
0.31039	-0.121	0.003
0.31381	-0.121	0.003
0.3172	-0.12	0.003
0.32055	-0.12	0.003
0.32388	-0.12	0.003
0.32717	-0.12	0.003
0.33042	-0.12	0.003
0.33365	-0.12	0.003
0.33684	-0.12	0.003
0.34001	-0.12	0.003
0.34314	-0.119	0.003
0.34625	-0.119	0.003
0.34933	-0.119	0.003
0.35237	-0.119	0.003
0.35539	-0.119	0.003
0.051	-0.044	0.002
0.05747	-0.048	0.002
0.06385	-0.052	0.002
0.0715	-0.056	0.002
0.07636	-0.06	0.002
0.08249	-0.063	0.002
0.08853	-0.066	0.002
0.0945	-0.069	0.002
0.10621	-0.072	0.002
0.11195	-0.075	0.002
0.11761	-0.078	0.002
0.12321	-0.08	0.002
0.12873	-0.083	0.002
0.13419	-0.085	0.002
0.139	-0.087	0.002
0.13957	-0.09	0.002
0.14489	-0.092	0.002
0.15282	-0.094	0.002
0.16061	-0.097	0.002
0.29635	-0.121	0.003
0.29992	-0.121	0.003
0.30344	-0.121	0.003
0.30693	-0.121	0.003
0.31039	-0.121	0.003
0.31381	-0.121	0.003
0.3172	-0.12	0.003
0.32055	-0.12	0.003
0.32388	-0.12	0.003
0.32717	-0.12	0.003
0.33042	-0.12	0.003
0.33365	-0.12	0.003
0.33684	-0.12	0.003
0.34001	-0.12	0.003
0.34314	-0.119	0.003
0.34625	-0.119	0.003
0.34933	-0.119	0.003
0.35237	-0.119	0.003
0.35539	-0.119	0.003
0.41287	-0.112	0.003
0.41535	-0.112	0.003
0.41781	-0.112	0.003
0.42025	-0.111	0.003
0.42267	-0.111	0.003
0.42507	-0.111	0.003
0.42745	-0.11	0.003
0.42981	-0.11	0.003
0.43215	-0.11	0.003
0.43448	-0.109	0.003
0.43678	-0.109	0.003
0.43906	-0.108	0.003
0.44136	-0.108	0.003
0.44365	-0.108	0.003
0.44595	-0.107	0.003
0.44824	-0.107	0.003
0.45054	-0.107	0.003
0.45283	-0.106	0.003
0.45512	-0.106	0.003
0.5033	-0.097	0.002
0.50559	-0.097	0.002
0.50788	-0.096	0.002
0.51018	-0.096	0.002
0.51247	-0.095	0.002
0.51477	-0.095	0.002
0.51706	-0.094	0.002
0.51935	-0.094	0.002
0.52165	-0.093	0.002
0.52394	-0.093	0.002
0.52624	-0.093	0.002
0.52853	-0.092	0.002
0.53082	-0.092	0.002
0.53312	-0.091	0.002
0.53541	-0.091	0.002
0.53771	-0.09	0.002
0.54	-0.09	0.002
0.54229	-0.089	0.002
0.54459	-0.089	0.002
0.59276	-0.078	0.002
0.59505	-0.078	0.002
0.59735	-0.077	0.002
0.59964	-0.076	0.002
0.60194	-0.076	0.002
0.60423	-0.075	0.002
0.60652	-0.075	0.002
0.60882	-0.074	0.002
0.61111	-0.074	0.002
0.61341	-0.073	0.002
0.6157	-0.073	0.002
0.61799	-0.072	0.002
0.62029	-0.072	0.002
0.62258	-0.071	0.002
0.62488	-0.07	0.002
0.62717	-0.07	0.002
0.62946	-0.069	0.002
0.63176	-0.069	0.002
0.63405	-0.068	0.002
0.68222	-0.056	0.002
0.68452	-0.055	0.002
0.68681	-0.055	0.002
0.68911	-0.054	0.002
0.6914	-0.053	0.002
0.69369	-0.053	0.002
0.69599	-0.052	0.002
0.69828	-0.052	0.002
0.70058	-0.051	0.002
0.70287	-0.05	0.002
0.70516	-0.05	0.002
0.70746	-0.049	0.002
0.70975	-0.048	0.002
0.71205	-0.048	0.002
0.71434	-0.047	0.002
0.71663	-0.047	0.002
0.71893	-0.046	0.002
0.72122	-0.045	0.002
0.72352	-0.045	0.002
0.77169	-0.031	0.002
0.77398	-0.03	0.002
0.77628	-0.03	0.002
0.77857	-0.029	0.002
0.78086	-0.028	0.002
0.78274	-0.028	0.002
0.78689	-0.027	0.002
0.79108	-0.025	0.002
0.79532	-0.024	0.002
0.79961	-0.023	0.002
0.80394	-0.022	0.002
0.80832	-0.021	0.002
0.81274	-0.019	0.002
0.81722	-0.018	0.002
0.82174	-0.017	0.002
0.82632	-0.015	0.002
0.83094	-0.014	0.002
0.83562	-0.013	0.002
0.84035	-0.012	0.002
0.95376	0.008	0.002
0.95992	0.007	0.002
0.96617	0.007	0.002
0.9725	0.007	0.002
0.97892	0.006	0.002
0.98542	0.005	0.002
0.992	0.003	0.002
0.99868	0.001	0.002
0.35838	-0.118	0.003
0.36135	-0.118	0.003
0.36428	-0.118	0.003
0.36719	-0.118	0.003
0.37007	-0.117	0.003
0.37293	-0.117	0.003
0.37576	-0.117	0.003
0.37857	-0.116	0.003
0.38135	-0.116	0.003
0.3841	-0.116	0.003
0.38683	-0.116	0.003
0.38954	-0.115	0.003
0.45742	-0.105	0.003
0.45971	-0.105	0.003
0.46201	-0.105	0.003
0.4643	-0.104	0.003
0.46659	-0.104	0.003
0.46889	-0.103	0.003
0.47118	-0.103	0.003
0.47348	-0.103	0.003
0.47577	-0.102	0.003
0.47806	-0.102	0.003
0.48036	-0.101	0.003
0.48265	-0.101	0.003
0.54688	-0.088	0.002
0.54918	-0.088	0.002
0.55147	-0.087	0.002
0.55376	-0.087	0.002
0.55606	-0.086	0.002
0.55835	-0.086	0.002
0.56065	-0.085	0.002
0.56294	-0.085	0.002
0.56523	-0.084	0.002
0.56753	-0.084	0.002
0.56982	-0.083	0.002
0.57212	-0.083	0.002
0.63635	-0.068	0.002
0.63864	-0.067	0.002
0.64093	-0.067	0.002
0.64323	-0.066	0.002
0.64552	-0.065	0.002
0.64782	-0.065	0.002
0.65011	-0.064	0.002
0.6524	-0.064	0.002
0.6547	-0.063	0.002
0.65699	-0.062	0.002
0.65928	-0.062	0.002
0.66158	-0.061	0.002
0.72581	-0.044	0.002
0.7281	-0.043	0.002
0.7304	-0.043	0.002
0.73269	-0.042	0.002
0.73498	-0.041	0.002
0.73728	-0.041	0.002
0.73957	-0.04	0.002
0.74187	-0.04	0.002
0.74416	-0.039	0.002
0.74645	-0.038	0.002
0.74875	-0.038	0.002
0.75104	-0.037	0.002
0.84514	-0.01	0.002
0.84998	-0.009	0.002
0.85487	-0.008	0.002
0.85983	-0.007	0.002
0.86484	-0.005	0.002
0.86991	-0.004	0.002
0.87503	-0.003	0.002
0.88022	-0.002	0.002
0.88548	-0.001	0.002
0.89079	0	0.002
0.89617	0.001	0.002
0.90161	0.002	0.002
