Measured thermophysical data. Densities, Viscosities, and Sound Speed of Binary Mixtures of Hexyl Acetate with Tetrahydrofuran, 1,4-Dioxane, Anisole, and Butyl Vinyl Ether
Source: J. Chem. Eng. Data, 2013, 10.1021/je400539h
Compound 1: hexyl ethanoate, C8H16O2, InChI=1S/C8H16O2/c1-3-4-5-6-7-10-8(2)9/h3-7H2,1-2H3, purity 99%
Compound 2: tetrahydrofuran, C4H8O, InChI=1S/C4H8O/c1-2-4-5-3-1/h1-4H2, purity 99.5%
Compound 3: 1,4-dioxane, C4H8O2, InChI=1S/C4H8O2/c1-2-6-4-3-5-1/h1-4H2, purity 99%
Compound 4: anisole, C7H8O, InChI=1S/C7H8O/c1-8-7-5-3-2-4-6-7/h2-6H,1H3, purity 99%
Compound 5: 1-(ethenyloxy)butane, C6H12O, InChI=1S/C6H12O/c1-3-5-6-7-4-2/h4H,2-3,5-6H2,1H3, purity 99%

System: hexyl ethanoate; phases: Liquid
Fixed: Pressure, kPa = 101
Property: Mass density, kg/m3 (Liquid); method: VIBTUB::UFactor:16
Temperature, K	Mass density, kg/m3	uncertainty
298.15	868.3	1.5
303.15	863.9	1.5
308.15	859.8	1.5
313.15	855	1.5

System: hexyl ethanoate; phases: Liquid
Fixed: Pressure, kPa = 101
Property: Viscosity, Pa*s (Liquid); method: CAPTUB::UFactor:4
Temperature, K	Viscosity, Pa*s	uncertainty
298.15	0.001071	2.6e-05
303.15	0.000982	2.4e-05
308.15	0.000898	2.3e-05
313.15	0.000836	2.2e-05
308.15	0.000899	2.3e-05

System: hexyl ethanoate; phases: Liquid
Fixed: Pressure, kPa = 101
Property: Speed of sound, m/s (Liquid); method: LVPAI::UFactor:8
Temperature, K	Speed of sound, m/s	uncertainty
298.15	1236	11
303.15	1216	11
308.15	1196	11
313.15	1176	10

System: tetrahydrofuran; phases: Liquid
Fixed: Pressure, kPa = 101
Property: Mass density, kg/m3 (Liquid); method: VIBTUB::UFactor:16
Temperature, K	Mass density, kg/m3	uncertainty
298.15	881.5	1.4
303.15	878.7	1.4
308.15	873	1.4
313.15	866.9	1.5

System: tetrahydrofuran; phases: Liquid
Fixed: Pressure, kPa = 101
Property: Viscosity, Pa*s (Liquid); method: CAPTUB::UFactor:4
Temperature, K	Viscosity, Pa*s	uncertainty
298.15	0.00045	1.5e-05
303.15	0.000439	1.5e-05
308.15	0.000429	1.5e-05
313.15	0.000404	1.5e-05

System: tetrahydrofuran; phases: Liquid
Fixed: Pressure, kPa = 101
Property: Speed of sound, m/s (Liquid); method: LVPAI::UFactor:8
Temperature, K	Speed of sound, m/s	uncertainty
298.15	1268	11
303.15	1248	11
308.15	1228	11
313.15	1212	11

System: 1,4-dioxane; phases: Liquid
Fixed: Pressure, kPa = 101
Property: Mass density, kg/m3 (Liquid); method: VIBTUB::UFactor:16
Temperature, K	Mass density, kg/m3	uncertainty
298.15	1028.2	1
303.15	1022.7	1
308.15	1017.4	1
313.15	1011.1	1

System: 1,4-dioxane; phases: Liquid
Fixed: Pressure, kPa = 101
Property: Viscosity, Pa*s (Liquid); method: CAPTUB::UFactor:4
Temperature, K	Viscosity, Pa*s	uncertainty
298.15	0.001159	2.8e-05
303.15	0.001087	2.7e-05
308.15	0.001013	2.5e-05
313.15	0.000934	2.3e-05

System: 1,4-dioxane; phases: Liquid
Fixed: Pressure, kPa = 101
Property: Speed of sound, m/s (Liquid); method: LVPAI::UFactor:8
Temperature, K	Speed of sound, m/s	uncertainty
298.15	1328	11
303.15	1320	11
308.15	1312	11
313.15	1304	11

System: anisole; phases: Liquid
Fixed: Pressure, kPa = 101
Property: Mass density, kg/m3 (Liquid); method: VIBTUB::UFactor:16
Temperature, K	Mass density, kg/m3	uncertainty
298.15	993.6	1
303.15	989.4	1
308.15	984.6	1
313.15	980	1

System: anisole; phases: Liquid
Fixed: Pressure, kPa = 101
Property: Viscosity, Pa*s (Liquid); method: CAPTUB::UFactor:4
Temperature, K	Viscosity, Pa*s	uncertainty
298.15	0.00097	2.4e-05
303.15	0.000917	2.3e-05
308.15	0.000863	2.2e-05
313.15	0.000803	2.1e-05

System: anisole; phases: Liquid
Fixed: Pressure, kPa = 101
Property: Speed of sound, m/s (Liquid); method: LVPAI::UFactor:8
Temperature, K	Speed of sound, m/s	uncertainty
298.15	1396	12
303.15	1380	12
308.15	1364	12
313.15	1348	11

System: 1-(ethenyloxy)butane; phases: Liquid
Fixed: Pressure, kPa = 101
Property: Mass density, kg/m3 (Liquid); method: VIBTUB::UFactor:16
Temperature, K	Mass density, kg/m3	uncertainty
298.15	780.2	1.9
303.15	774.1	1.9
308.15	768.2	2
313.15	763.3	2

System: 1-(ethenyloxy)butane; phases: Liquid
Fixed: Pressure, kPa = 101
Property: Viscosity, Pa*s (Liquid); method: CAPTUB::UFactor:4
Temperature, K	Viscosity, Pa*s	uncertainty
298.15	0.0004	1.5e-05
303.15	0.000387	1.4e-05
308.15	0.000365	1.4e-05
313.15	0.000354	1.4e-05

System: 1-(ethenyloxy)butane; phases: Liquid
Fixed: Pressure, kPa = 101
Property: Speed of sound, m/s (Liquid); method: LVPAI::UFactor:8
Temperature, K	Speed of sound, m/s	uncertainty
298.15	1096	10
303.15	1084	10
308.15	1072	10
313.15	1060	10

System: tetrahydrofuran + hexyl ethanoate; phases: Liquid
Fixed: Pressure, kPa = 101
Property: Mass density, kg/m3 (Liquid); method: VIBTUB:UFactor:16
Temperature, K	Mole fraction of hexyl ethanoate	Mass density, kg/m3	uncertainty
298.15	0	881.5	1.4
298.15	0.0514	882.2	1.4
298.15	0.1091	882.2	1.4
298.15	0.1735	882.1	1.4
298.15	0.2467	881.7	1.4
298.15	0.3289	880.9	1.4
298.15	0.4241	879.6	1.4
298.15	0.5384	877.8	1.4
298.15	0.6648	875.5	1.4
298.15	0.8185	872.4	1.4
298.15	1	868.3	1.5
303.15	0	878.7	1.4
303.15	0.0514	878.8	1.4
303.15	0.1091	878.6	1.4
303.15	0.1735	878.3	1.4
303.15	0.2467	877.6	1.4
303.15	0.3289	876.6	1.4
303.15	0.4241	875.2	1.4
303.15	0.5384	873.3	1.4
303.15	0.6648	870.9	1.4
303.15	0.8185	867.7	1.5
303.15	1	863.9	1.5
308.15	0	873	1.4
308.15	0.0514	872.9	1.4
308.15	0.1091	872.7	1.4
308.15	0.1735	872.4	1.4
308.15	0.2467	871.9	1.4
308.15	0.3289	871.2	1.4
308.15	0.4241	870	1.4
308.15	0.5384	868.2	1.5
308.15	0.6648	866	1.5
308.15	0.8185	863	1.5
308.15	1	859.8	1.5
313.15	0	866.9	1.5
313.15	0.0514	866.7	1.5
313.15	0.1091	866.5	1.5
313.15	0.1735	866.2	1.5
313.15	0.2467	865.8	1.5
313.15	0.3289	865.2	1.5
313.15	0.4241	864.2	1.5
313.15	0.5384	862.6	1.5
313.15	0.6648	860.5	1.5
313.15	0.8185	857.8	1.5
313.15	1	855	1.5

System: tetrahydrofuran + hexyl ethanoate; phases: Liquid
Fixed: Pressure, kPa = 101
Property: Viscosity, Pa*s (Liquid); method: CAPTUB:UFactor:4
Temperature, K	Mole fraction of hexyl ethanoate	Viscosity, Pa*s	uncertainty
298.15	0	0.00045	1.5e-05
298.15	0.0514	0.000485	1.6e-05
298.15	0.1091	0.000526	1.7e-05
298.15	0.1735	0.00057	1.7e-05
298.15	0.2467	0.000616	1.8e-05
298.15	0.3289	0.000669	1.9e-05
298.15	0.4241	0.00073	2e-05
298.15	0.5384	0.00079	2.1e-05
298.15	0.6648	0.000875	2.2e-05
298.15	0.8185	0.000967	2.4e-05
298.15	1	0.001071	2.6e-05
303.15	0	0.000439	1.5e-05
303.15	0.0514	0.000471	1.6e-05
303.15	0.1091	0.000504	1.6e-05
303.15	0.1735	0.000543	1.7e-05
303.15	0.2467	0.000584	1.8e-05
303.15	0.3289	0.000632	1.8e-05
303.15	0.4241	0.000683	1.9e-05
303.15	0.5384	0.000745	2e-05
303.15	0.6648	0.000812	2.1e-05
303.15	0.8185	0.000892	2.3e-05
303.15	1	0.000982	2.4e-05
308.15	0	0.000429	1.5e-05
308.15	0.0514	0.000456	1.6e-05
308.15	0.1091	0.000484	1.6e-05
308.15	0.1735	0.000518	1.6e-05
308.15	0.2467	0.000554	1.7e-05
308.15	0.3289	0.000595	1.8e-05
308.15	0.4241	0.000641	1.8e-05
308.15	0.5384	0.000692	1.9e-05
308.15	0.6648	0.000751	2e-05
308.15	0.8185	0.000819	2.2e-05
308.15	1	0.000898	2.3e-05
313.15	0	0.000404	1.5e-05
313.15	0.0514	0.000416	1.5e-05
313.15	0.1091	0.000444	1.5e-05
313.15	0.1735	0.000475	1.6e-05
313.15	0.2467	0.000508	1.6e-05
313.15	0.3289	0.000547	1.7e-05
313.15	0.4241	0.000591	1.8e-05
313.15	0.5384	0.000639	1.8e-05
313.15	0.6648	0.000695	1.9e-05
313.15	0.8185	0.000761	2e-05
313.15	1	0.000836	2.2e-05

System: tetrahydrofuran + hexyl ethanoate; phases: Liquid
Fixed: Pressure, kPa = 101
Property: Speed of sound, m/s (Liquid); method: LVPAI:UFactor:8
Temperature, K	Mole fraction of hexyl ethanoate	Speed of sound, m/s	uncertainty
298.15	0	1268	11
298.15	0.0514	1260	11
298.15	0.1091	1256	11
298.15	0.1735	1248	11
298.15	0.2467	1240	11
298.15	0.3289	1236	11
298.15	0.4241	1232	11
298.15	0.5384	1232	11
298.15	0.6648	1232	11
298.15	0.8185	1232	11
298.15	1	1236	11
303.15	0	1248	11
303.15	0.0514	1236	11
303.15	0.1091	1232	11
303.15	0.1735	1224	11
303.15	0.2467	1212	11
303.15	0.3289	1208	11
303.15	0.4241	1204	11
303.15	0.5384	1204	11
303.15	0.6648	1204	11
303.15	0.8185	1204	11
303.15	1	1216	11
308.15	0	1228	11
308.15	0.0514	1216	11
308.15	0.1091	1208	11
308.15	0.1735	1200	11
308.15	0.2467	1188	10
308.15	0.3289	1184	10
308.15	0.4241	1180	10
308.15	0.5384	1180	10
308.15	0.6648	1180	10
308.15	0.8185	1180	10
308.15	1	1196	11
313.15	0	1212	11
313.15	0.0514	1200	11
313.15	0.1091	1188	10
313.15	0.1735	1176	10
313.15	0.2467	1168	10
313.15	0.3289	1164	10
313.15	0.4241	1156	10
313.15	0.5384	1152	10
313.15	0.6648	1152	10
313.15	0.8185	1152	10
313.15	1	1176	10

System: 1,4-dioxane + hexyl ethanoate; phases: Liquid
Fixed: Pressure, kPa = 101
Property: Mass density, kg/m3 (Liquid); method: VIBTUB:UFactor:16
Temperature, K	Mole fraction of hexyl ethanoate	Mass density, kg/m3	uncertainty
298.15	0	1028.2	1
298.15	0.0546	1015	1
298.15	0.1152	1000.7	0.9
298.15	0.1825	985.9	1
298.15	0.2572	970.6	1
298.15	0.3416	954.6	1.1
298.15	0.4094	942.8	1.1
298.15	0.4773	931.9	1.2
298.15	0.5836	916.5	1.2
298.15	0.7044	900.8	1.3
298.15	1	868.3	1.5
303.15	0	1022.7	1
303.15	0.0546	1009	1
303.15	0.1152	994.8	0.9
303.15	0.1825	979.9	1
303.15	0.2572	964.6	1
303.15	0.3416	948.8	1.1
303.15	0.4094	937.1	1.2
303.15	0.4773	926.4	1.2
303.15	0.5836	911.1	1.3
303.15	0.7044	895.7	1.3
303.15	1	863.9	1.5
308.15	0	1017.4	1
308.15	0.0546	1003.4	0.9
308.15	0.1152	988.9	1
308.15	0.1825	974	1
308.15	0.2572	958.8	1.1
308.15	0.3416	943.2	1.1
308.15	0.4094	931.7	1.2
308.15	0.4773	921.1	1.2
308.15	0.5836	906	1.3
308.15	0.7044	890.8	1.4
308.15	1	859.8	1.5
313.15	0	1011.1	1
313.15	0.0546	996.8	0.9
313.15	0.1152	982.2	1
313.15	0.1825	967.3	1
313.15	0.2572	952.3	1.1
313.15	0.3416	937	1.2
313.15	0.4094	925.7	1.2
313.15	0.4773	915.2	1.2
313.15	0.5836	900.3	1.3
313.15	0.7044	885.2	1.4
313.15	1	855	1.5

System: 1,4-dioxane + hexyl ethanoate; phases: Liquid
Fixed: Pressure, kPa = 101
Property: Viscosity, Pa*s (Liquid); method: CAPTUB:UFactor:4
Temperature, K	Mole fraction of hexyl ethanoate	Viscosity, Pa*s	uncertainty
298.15	0	0.001159	2.8e-05
298.15	0.0546	0.001143	2.8e-05
298.15	0.1152	0.001131	2.8e-05
298.15	0.1825	0.001119	2.7e-05
298.15	0.2572	0.001106	2.7e-05
298.15	0.3416	0.001096	2.7e-05
298.15	0.4094	0.001093	2.7e-05
298.15	0.4773	0.001088	2.7e-05
298.15	0.5836	0.00108	2.6e-05
298.15	0.7044	0.001077	2.6e-05
298.15	1	0.001071	2.6e-05
303.15	0	0.001087	2.7e-05
303.15	0.0546	0.001076	2.6e-05
303.15	0.1152	0.001063	2.6e-05
303.15	0.1825	0.001049	2.6e-05
303.15	0.2572	0.001037	2.5e-05
303.15	0.3416	0.001026	2.5e-05
303.15	0.4094	0.001019	2.5e-05
303.15	0.4773	0.001014	2.5e-05
303.15	0.5836	0.001005	2.5e-05
303.15	0.7044	0.000997	2.5e-05
303.15	1	0.000982	2.4e-05
308.15	0	0.001013	2.5e-05
308.15	0.0546	0.000987	2.4e-05
308.15	0.1152	0.000975	2.4e-05
308.15	0.1825	0.000962	2.4e-05
308.15	0.2572	0.000951	2.4e-05
308.15	0.3416	0.000942	2.4e-05
308.15	0.4094	0.000935	2.4e-05
308.15	0.4773	0.00093	2.3e-05
308.15	0.5836	0.000921	2.3e-05
308.15	0.7044	0.000913	2.3e-05
308.15	1	0.000898	2.3e-05
313.15	0	0.000934	2.3e-05
313.15	0.0546	0.000935	2.4e-05
313.15	0.1152	0.000924	2.3e-05
313.15	0.1825	0.000912	2.3e-05
313.15	0.2572	0.0009	2.3e-05
313.15	0.3416	0.000889	2.3e-05
313.15	0.4094	0.00088	2.3e-05
313.15	0.4773	0.000874	2.2e-05
313.15	0.5836	0.000864	2.2e-05
313.15	0.7044	0.000855	2.2e-05
313.15	1	0.000836	2.2e-05

System: 1,4-dioxane + hexyl ethanoate; phases: Liquid
Fixed: Pressure, kPa = 101
Property: Speed of sound, m/s (Liquid); method: LVPAI:UFactor:8
Temperature, K	Mole fraction of hexyl ethanoate	Speed of sound, m/s	uncertainty
298.15	0	1328	11
298.15	0.0546	1312	11
298.15	0.1152	1292	11
298.15	0.1825	1280	11
298.15	0.2572	1268	11
298.15	0.3416	1256	11
298.15	0.4094	1248	11
298.15	0.4773	1240	11
298.15	0.5836	1236	11
298.15	0.7044	1236	11
298.15	1	1236	11
303.15	0	1320	11
303.15	0.0546	1300	11
303.15	0.1152	1280	11
303.15	0.1825	1268	11
303.15	0.2572	1256	11
303.15	0.3416	1244	11
303.15	0.4094	1236	11
303.15	0.4773	1228	11
303.15	0.5836	1224	11
303.15	0.7044	1224	11
303.15	1	1216	11
308.15	0	1312	11
308.15	0.0546	1288	11
308.15	0.1152	1268	11
308.15	0.1825	1256	11
308.15	0.2572	1244	11
308.15	0.3416	1232	11
308.15	0.4094	1224	11
308.15	0.4773	1216	11
308.15	0.5836	1212	11
308.15	0.7044	1212	11
308.15	1	1196	11
313.15	0	1304	11
313.15	0.0546	1280	11
313.15	0.1152	1256	11
313.15	0.1825	1244	11
313.15	0.2572	1232	11
313.15	0.3416	1216	11
313.15	0.4094	1208	11
313.15	0.4773	1204	11
313.15	0.5836	1200	11
313.15	0.7044	1200	11
313.15	1	1176	10

System: anisole + hexyl ethanoate; phases: Liquid
Fixed: Pressure, kPa = 101
Property: Mass density, kg/m3 (Liquid); method: VIBTUB:UFactor:16
Temperature, K	Mole fraction of hexyl ethanoate	Mass density, kg/m3	uncertainty
298.15	0	993.6	1
298.15	0.0698	979.8	1
298.15	0.1417	969.7	1
298.15	0.221	959	1.1
298.15	0.3061	947.7	1.1
298.15	0.398	935.8	1.2
298.15	0.4979	923.4	1.2
298.15	0.606	910.5	1.3
298.15	0.7254	896.9	1.3
298.15	0.8556	882.9	1.4
298.15	1	868.3	1.5
303.15	0	989.4	1
303.15	0.0698	975	1
303.15	0.1417	964.7	1.1
303.15	0.221	953.8	1.1
303.15	0.3061	942.6	1.1
303.15	0.398	930.8	1.2
303.15	0.4979	918.4	1.2
303.15	0.606	905.5	1.3
303.15	0.7254	891.9	1.4
303.15	0.8556	878	1.4
303.15	1	863.9	1.5
308.15	0	984.6	1
308.15	0.0698	968.1	1
308.15	0.1417	957.8	1.1
308.15	0.221	947.1	1.1
308.15	0.3061	936.2	1.2
308.15	0.398	925	1.2
308.15	0.4979	913	1.3
308.15	0.606	900.3	1.3
308.15	0.7254	886.8	1.4
308.15	0.8556	873.1	1.4
308.15	1	859.8	1.5
313.15	0	980	1
313.15	0.0698	961.6	1.1
313.15	0.1417	951.2	1.1
313.15	0.221	940.5	1.1
313.15	0.3061	929.8	1.2
313.15	0.398	918.6	1.2
313.15	0.4979	906.8	1.3
313.15	0.606	894.4	1.3
313.15	0.7254	881.2	1.4
313.15	0.8556	867.8	1.5
313.15	1	855	1.5

System: anisole + hexyl ethanoate; phases: Liquid
Fixed: Pressure, kPa = 101
Property: Viscosity, Pa*s (Liquid); method: CAPTUB:UFactor:4
Temperature, K	Mole fraction of hexyl ethanoate	Viscosity, Pa*s	uncertainty
298.15	0	0.00097	2.4e-05
298.15	0.0698	0.001022	2.5e-05
298.15	0.1417	0.001031	2.5e-05
298.15	0.221	0.001038	2.6e-05
298.15	0.3061	0.001047	2.6e-05
298.15	0.398	0.001054	2.6e-05
298.15	0.4979	0.001058	2.6e-05
298.15	0.606	0.001061	2.6e-05
298.15	0.7254	0.001065	2.6e-05
298.15	0.8556	0.00107	2.6e-05
298.15	1	0.001071	2.6e-05
303.15	0	0.000917	2.3e-05
303.15	0.0698	0.000932	2.4e-05
303.15	0.1417	0.00094	2.4e-05
303.15	0.221	0.00095	2.4e-05
303.15	0.3061	0.000959	2.4e-05
303.15	0.398	0.000967	2.4e-05
303.15	0.4979	0.000972	2.4e-05
303.15	0.606	0.000975	2.4e-05
303.15	0.7254	0.00098	2.4e-05
303.15	0.8556	0.000983	2.4e-05
303.15	1	0.000982	2.4e-05
308.15	0	0.000863	2.2e-05
308.15	0.0698	0.00086	2.2e-05
308.15	0.1417	0.000872	2.2e-05
308.15	0.221	0.000878	2.3e-05
308.15	0.3061	0.000886	2.3e-05
308.15	0.398	0.000894	2.3e-05
308.15	0.4979	0.000898	2.3e-05
308.15	0.606	0.000901	2.3e-05
308.15	0.7254	0.000903	2.3e-05
308.15	0.8556	0.000902	2.3e-05
308.15	1	0.000898	2.3e-05
313.15	0	0.000803	2.1e-05
313.15	0.0698	0.000779	2.1e-05
313.15	0.1417	0.000791	2.1e-05
313.15	0.221	0.000802	2.1e-05
313.15	0.3061	0.000811	2.1e-05
313.15	0.398	0.000823	2.2e-05
313.15	0.4979	0.000828	2.2e-05
313.15	0.606	0.000833	2.2e-05
313.15	0.7254	0.000838	2.2e-05
313.15	0.8556	0.00084	2.2e-05
313.15	1	0.000836	2.2e-05

System: anisole + hexyl ethanoate; phases: Liquid
Fixed: Pressure, kPa = 101
Property: Speed of sound, m/s (Liquid); method: LVPAI:UFactor:8
Temperature, K	Mole fraction of hexyl ethanoate	Speed of sound, m/s	uncertainty
298.15	0	1396	12
298.15	0.0698	1376	12
298.15	0.1417	1360	12
298.15	0.221	1344	11
298.15	0.3061	1328	11
298.15	0.398	1312	11
298.15	0.4979	1300	11
298.15	0.606	1284	11
298.15	0.7254	1268	11
298.15	0.8556	1252	11
298.15	1	1236	11
303.15	0	1380	12
303.15	0.0698	1360	12
303.15	0.1417	1340	11
303.15	0.221	1324	11
303.15	0.3061	1304	11
303.15	0.398	1288	11
303.15	0.4979	1272	11
303.15	0.606	1260	11
303.15	0.7254	1244	11
303.15	0.8556	1232	11
303.15	1	1216	11
308.15	0	1364	12
308.15	0.0698	1340	11
308.15	0.1417	1320	11
308.15	0.221	1296	11
308.15	0.3061	1280	11
308.15	0.398	1264	11
308.15	0.4979	1248	11
308.15	0.606	1236	11
308.15	0.7254	1224	11
308.15	0.8556	1208	11
308.15	1	1196	11
313.15	0	1348	11
313.15	0.0698	1320	11
313.15	0.1417	1296	11
313.15	0.221	1272	11
313.15	0.3061	1252	11
313.15	0.398	1236	11
313.15	0.4979	1220	11
313.15	0.606	1204	11
313.15	0.7254	1192	11
313.15	0.8556	1184	10
313.15	1	1176	10

System: 1-(ethenyloxy)butane + hexyl ethanoate; phases: Liquid
Fixed: Pressure, kPa = 101
Property: Mass density, kg/m3 (Liquid); method: VIBTUB:UFactor:16
Temperature, K	Mole fraction of hexyl ethanoate	Mass density, kg/m3	uncertainty
298.15	0	780.2	1.9
298.15	0.0806	790.9	1.8
298.15	0.1668	801.3	1.8
298.15	0.2521	810.8	1.7
298.15	0.3443	820.3	1.7
298.15	0.4384	829.2	1.6
298.15	0.5392	838.1	1.6
298.15	0.644	846.6	1.6
298.15	0.7555	854.7	1.5
298.15	0.8741	862.1	1.5
298.15	1	868.3	1.5
303.15	0	774.1	1.9
303.15	0.0806	784.6	1.9
303.15	0.1668	795.1	1.8
303.15	0.2521	804.8	1.8
303.15	0.3443	814.5	1.7
303.15	0.4384	823.7	1.7
303.15	0.5392	832.8	1.6
303.15	0.644	841.3	1.6
303.15	0.7555	849.5	1.6
303.15	0.8741	857.1	1.5
303.15	1	863.9	1.5
308.15	0	768.2	2
308.15	0.0806	778.6	1.9
308.15	0.1668	789.1	1.8
308.15	0.2521	798.8	1.8
308.15	0.3443	808.7	1.7
308.15	0.4384	818.1	1.7
308.15	0.5392	827.4	1.7
308.15	0.644	836.3	1.6
308.15	0.7555	844.8	1.6
308.15	0.8741	852.7	1.5
308.15	1	859.8	1.5
313.15	0	763.3	2
313.15	0.0806	773.6	1.9
313.15	0.1668	784	1.9
313.15	0.2521	793.7	1.8
313.15	0.3443	803.6	1.8
313.15	0.4384	813	1.7
313.15	0.5392	822.3	1.7
313.15	0.644	831.2	1.6
313.15	0.7555	839.7	1.6
313.15	0.8741	847.7	1.6
313.15	1	855	1.5

System: 1-(ethenyloxy)butane + hexyl ethanoate; phases: Liquid
Fixed: Pressure, kPa = 101
Property: Viscosity, Pa*s (Liquid); method: CAPTUB:UFactor:4
Temperature, K	Mole fraction of hexyl ethanoate	Viscosity, Pa*s	uncertainty
298.15	0	0.0004	1.5e-05
298.15	0.0806	0.00044	1.5e-05
298.15	0.1668	0.000486	1.6e-05
298.15	0.2521	0.000538	1.7e-05
298.15	0.3443	0.000596	1.8e-05
298.15	0.4384	0.000657	1.9e-05
298.15	0.5392	0.000726	2e-05
298.15	0.644	0.000798	2.1e-05
298.15	0.7555	0.000879	2.3e-05
298.15	0.8741	0.000965	2.4e-05
298.15	1	0.001071	2.6e-05
303.15	0	0.000387	1.4e-05
303.15	0.0806	0.000423	1.5e-05
303.15	0.1668	0.000465	1.6e-05
303.15	0.2521	0.000508	1.6e-05
303.15	0.3443	0.000559	1.7e-05
303.15	0.4384	0.000615	1.8e-05
303.15	0.5392	0.000675	1.9e-05
303.15	0.644	0.000739	2e-05
303.15	0.7555	0.000812	2.1e-05
303.15	0.8741	0.000891	2.3e-05
303.15	1	0.000982	2.4e-05
308.15	0	0.000365	1.4e-05
308.15	0.0806	0.000398	1.5e-05
308.15	0.1668	0.000434	1.5e-05
308.15	0.2521	0.000474	1.6e-05
308.15	0.3443	0.00052	1.7e-05
308.15	0.4384	0.000567	1.7e-05
308.15	0.5392	0.000622	1.8e-05
308.15	0.644	0.000681	1.9e-05
308.15	0.7555	0.000745	2e-05
308.15	0.8741	0.000817	2.1e-05
308.15	1	0.000899	2.3e-05
313.15	0	0.000354	1.4e-05
313.15	0.0806	0.000385	1.4e-05
313.15	0.1668	0.000418	1.5e-05
313.15	0.2521	0.000454	1.5e-05
313.15	0.3443	0.000496	1.6e-05
313.15	0.4384	0.000538	1.7e-05
313.15	0.5392	0.000588	1.8e-05
313.15	0.644	0.000641	1.8e-05
313.15	0.7555	0.0007	1.9e-05
313.15	0.8741	0.000763	2.1e-05
313.15	1	0.000836	2.2e-05

System: 1-(ethenyloxy)butane + hexyl ethanoate; phases: Liquid
Fixed: Pressure, kPa = 101
Property: Speed of sound, m/s (Liquid); method: LVPAI:UFactor:8
Temperature, K	Mole fraction of hexyl ethanoate	Speed of sound, m/s	uncertainty
298.15	0	1096	10
298.15	0.0806	1100	10
298.15	0.1668	1104	10
298.15	0.2521	1112	10
298.15	0.3443	1120	10
298.15	0.4384	1128	10
298.15	0.5392	1144	10
298.15	0.644	1160	10
298.15	0.7555	1180	10
298.15	0.8741	1204	11
298.15	1	1236	11
303.15	0	1084	10
303.15	0.0806	1088	10
303.15	0.1668	1088	10
303.15	0.2521	1096	10
303.15	0.3443	1104	10
303.15	0.4384	1112	10
303.15	0.5392	1124	10
303.15	0.644	1140	10
303.15	0.7555	1160	10
303.15	0.8741	1184	10
303.15	1	1216	11
308.15	0	1072	10
308.15	0.0806	1072	10
308.15	0.1668	1072	10
308.15	0.2521	1076	10
308.15	0.3443	1084	10
308.15	0.4384	1092	10
308.15	0.5392	1104	10
308.15	0.644	1120	10
308.15	0.7555	1140	10
308.15	0.8741	1164	10
308.15	1	1196	11
313.15	0	1060	10
313.15	0.0806	1056	10
313.15	0.1668	1056	10
313.15	0.2521	1060	10
313.15	0.3443	1064	10
313.15	0.4384	1072	10
313.15	0.5392	1084	10
313.15	0.644	1100	10
313.15	0.7555	1120	10
313.15	0.8741	1144	10
313.15	1	1176	10
