Measured thermophysical data. Vapor PVT and Vapor Pressure of Hydrogen Fluoride
Source: J. Chem. Eng. Data, 2014, 10.1021/je400733m
Compound 1: hydrogen fluoride, FH, InChI=1S/FH/h1H, purity 99.99%

System: hydrogen fluoride; phases: Gas
Property: Mass density, kg/m3 (Gas); method: ISOCHOR
Temperature, K	Pressure, kPa	Mass density, kg/m3	uncertainty
293.15	27.7	0.232	0.08
293.15	29	0.245	0.082
293.15	31.8	0.282	0.086
293.15	34.5	0.32	0.089
293.15	37.2	0.36	0.082
293.15	41.5	0.438	0.104
293.15	55.5	0.802	0.131
293.15	69.3	1.311	0.163
293.15	83.3	1.954	0.18
293.15	98.6	2.86	0.203
303.15	26.4	0.212	0.043
303.15	29.4	0.239	0.046
303.15	34.2	0.283	0.045
303.15	38	0.32	0.053
303.15	41.5	0.356	0.052
303.15	45.1	0.395	0.052
303.15	52.7	0.491	0.063
303.15	64.8	0.694	0.082
303.15	78	0.999	0.104
303.15	90	1.359	0.126
303.15	102.6	1.818	0.146
303.15	114.8	2.327	0.179
303.15	126.7	2.883	0.192
303.15	141.6	3.802	0.216
313.15	36.4	0.28	0.038
313.15	39.6	0.307	0.039
313.15	42.5	0.331	0.039
313.15	53.3	0.426	0.041
313.15	57	0.461	0.044
313.15	62.1	0.51	0.045
313.15	74	0.644	0.049
313.15	90.7	0.883	0.069
313.15	109.1	1.246	0.089
313.15	129.3	1.787	0.109
313.15	148	2.417	0.143
313.15	165.7	3.118	0.138
313.15	180.3	3.777	0.161
313.15	29.3	0.227	0.037
313.15	35.9	0.28	0.038
313.15	41.4	0.326	0.039
313.15	48.3	0.385	0.04
313.15	55.1	0.447	0.041
313.15	68.9	0.59	0.047
313.15	82.8	0.767	0.063
313.15	96.6	0.992	0.082
313.15	110.3	1.285	0.1
313.15	124.3	1.653	0.107
313.15	138	2.078	0.137
313.15	152	2.579	0.149
313.15	165.8	3.133	0.138
313.15	180.5	3.797	0.163
323.15	55	0.422	0.039
323.15	100.9	0.842	0.043
323.15	117.9	1.05	0.062
323.15	156.9	1.731	0.082
323.15	181.4	2.343	0.109
323.15	204.5	3.061	0.121
323.15	228.7	3.949	0.131
333.15	29.2	0.218	0.035
333.15	99.9	0.759	0.033
333.15	142.2	1.147	0.048
333.15	180	1.61	0.035
333.15	222.8	2.36	0.101
333.15	246.2	2.902	0.088
333.15	276.4	3.753	0.116
333.15	317.3	5.162	0.156
333.15	343.5	6.229	0.162
333.15	112.6	0.863	0.041
333.15	163.7	1.386	0.042
333.15	199.2	1.904	0.085
333.15	234.8	2.612	0.093
333.15	270.8	3.552	0.117
333.15	305.8	4.693	0.141
333.15	341.5	6.088	0.153
343.15	24.6	0.179	0.034
343.15	67.3	0.488	0.035
343.15	141.7	1.05	0.04
343.15	244.7	2.094	0.051
343.15	289.6	2.791	0.071
343.15	340.6	3.856	0.097
343.15	375.4	4.777	0.116
343.15	414.8	6.034	0.138
343.15	455.3	7.553	0.153
353.15	50.5	0.352	0.034
353.15	118.5	0.833	0.034
353.15	189	1.359	0.037
353.15	279.3	2.154	0.043
353.15	334.2	2.782	0.057
353.15	391.1	3.617	0.063
353.15	450.1	4.75	0.091
353.15	509	6.216	0.118
353.15	583.5	8.604	0.139
363.15	78.7	0.523	0.033
363.15	151.2	1.024	0.034
363.15	268.6	1.886	0.036
363.15	349.7	2.574	0.042
363.15	435.2	3.463	0.053
363.15	519.5	4.617	0.071
363.15	610.3	6.318	0.1
363.15	704.7	8.73	0.121
363.15	792.4	11.696	0.148
373.15	59.5	0.389	0.032
373.15	135.1	0.89	0.033
373.15	249.7	1.674	0.034
373.15	360.6	2.495	0.036
373.15	444.9	3.191	0.04
373.15	555.7	4.277	0.047
373.15	661.8	5.611	0.07
373.15	768.8	7.405	0.098
373.15	872.6	9.733	0.118
373.15	971.7	12.608	0.129
383.15	109.3	0.69	0.032
383.15	256.8	1.656	0.033
383.15	388.4	2.569	0.034
383.15	518.3	3.557	0.038
383.15	666.4	4.865	0.044
383.15	794.6	6.263	0.057
383.15	928.9	8.187	0.074
383.15	1067	10.825	0.097
383.15	1201	14.245	0.121
393.15	172.3	1.108	0.032
393.15	337.7	2.178	0.032
393.15	505.5	3.335	0.034
393.15	674.9	4.611	0.037
393.15	840.7	6.052	0.042
393.15	1013	7.764	0.062
393.15	1175	10.132	0.08
393.15	1344	13.239	0.096
393.15	1498	17.048	0.127
403.15	240.6	1.492	0.032
403.15	449.3	2.829	0.032
403.15	652.2	4.216	0.034
403.15	862.3	5.791	0.038
403.15	1069	7.588	0.044
403.15	1278	9.802	0.055
403.15	1491	12.74	0.072
403.15	1709	16.83	0.117
403.15	1897	21.668	0.162
413.15	222.3	1.32	0.031
413.15	371.4	2.232	0.031
413.15	508.9	3.095	0.031
413.15	683.2	4.229	0.033
413.15	883.6	5.621	0.034
413.15	1059	6.93	0.037
413.15	1234	8.38	0.044
413.15	1399	9.914	0.051
413.15	1557	11.607	0.049
413.15	1728	13.746	0.074
413.15	2034	18.831	0.082
413.15	2223	23.108	0.117
433.15	309.8	1.785	0.03
433.15	698.6	4.1	0.031
433.15	1068.9	6.452	0.033
433.15	1452	9.113	0.036
433.15	1847	12.286	0.042
433.15	2258	16.303	0.056
433.15	2635	21.034	0.074
433.15	3001	27.275	0.122
433.15	3365	36.362	0.156
433.15	3703	50.976	0.263
453.15	476.5	2.703	0.03
453.15	1014	5.793	0.031
453.15	1550	9.121	0.033
453.15	2081	12.797	0.037
453.15	2621	17.077	0.048
453.15	3133	21.99	0.078
453.15	3651	28.309	0.22
453.15	4173	36.974	0.143
453.15	4738	51.158	0.288
453.15	5189	73.046	0.312
473.15	398.6	2.061	0.029
473.15	719.1	3.785	0.029
473.15	1113	5.969	0.03
473.15	1557	8.541	0.031
473.15	1986	11.159	0.033
473.15	2275	13.033	0.034
473.15	2590	15.167	0.038
473.15	2992	18.107	0.045
473.15	3473	22.184	0.059
473.15	4349	30.552	0.089
473.15	4995	38.609	0.313
473.15	5640	49.429	0.325
473.15	6393	68.899	0.211
473.15	7041	98.187	0.299

System: hydrogen fluoride; phases: Liquid, Gas
Property: Vapor or sublimation pressure, kPa (Liquid); method: ISOPVT
Temperature, K	Vapor or sublimation pressure, kPa	uncertainty
293.12	102.1	4
303.13	145.3	4
313.16	202.1	4.1
323.08	274.7	4.2
333.13	368.7	4.4
343.1	487.1	4.7
353.14	636.4	5.1
363.17	822.2	5.7
373.14	1048.5	6.4
383.21	1327.1	7.3
393.11	1659.3	8.4
403.1	2060.2	9.7
413.14	2541.3	11.3
423.14	3111.5	13.1
433.06	3778.1	15.3
443.01	4566	18
454.15	5611.6	19.3
