Measured thermophysical data. Vapor Pressure, Density, Viscosity and Surface Tension of  Tetrapropylene Glycol
Source: J. Chem. Eng. Data, 2013, 10.1021/je4004977
Compound 1: 2-[2-[2-(2-hydroxypropoxy)propoxy]propoxy]-1-propanol, C12H26O5, InChI=1S/C12H26O5/c1-9(14)6-15-11(3)8-17-12(4)7-16-10(2)5-13/h9-14H,5-8H2,1-4H3, purity 75.51%

System: 2-[2-[2-(2-hydroxypropoxy)propoxy]propoxy]-1-propanol; phases: Liquid, Gas
Property: Vapor or sublimation pressure, kPa (Liquid); method: Closed cell (Static) method
Temperature, K	Vapor or sublimation pressure, kPa	uncertainty
409.85	0.01	0.03
462.55	2.68	0.03
480.15	5.34	0.03
486.15	6.66	0.03
492.15	8.02	0.03
500.15	10.72	0.04
507.15	13.36	0.04
513.15	16.05	0.04
518.15	18.79	0.05
522.15	21.34	0.05
527.15	24.02	0.05
530.15	26.71	0.06
537.15	32.05	0.06
543.15	37.42	0.07
545.15	40.02	0.08
550.15	45.37	0.09
554.15	50.69	0.1
556.15	53.36	0.1
560.15	58.74	0.11
564.15	64.02	0.12
567.15	69.28	0.13
570.15	74.63	0.14
575.15	83.34	0.15
582.15	101.02	0.18

System: 2-[2-[2-(2-hydroxypropoxy)propoxy]propoxy]-1-propanol; phases: Liquid
Fixed: Pressure, kPa = 101.325
Property: Mass density, kg/m3 (Liquid); method: Pycnometric method
Temperature, K	Mass density, kg/m3	uncertainty
298.15	1019.6	0.3
308.15	1013.7	0.3
318.15	1007.9	0.4
328.15	1001.3	0.4
338.15	995.4	0.4
348.15	988.8	0.4
353.15	985.1	0.4
358.15	982.5	0.5
363.15	979	0.5
368.15	975.5	0.5
383.15	965.4	0.5
393.15	958.7	0.5
403.15	951.4	0.5
413.15	944.3	0.6
423.15	937	0.6
433.15	928.9	0.6
443.15	919.4	0.6

System: 2-[2-[2-(2-hydroxypropoxy)propoxy]propoxy]-1-propanol; phases: Liquid
Fixed: Pressure, kPa = 101.325
Property: Viscosity, Pa*s (Liquid); method: Capillary tube (Ostwald; Ubbelohde) method
Temperature, K	Viscosity, Pa*s	uncertainty
288.15	0.10544	0.00139
293.15	0.06781	0.00043
299.15	0.04489	0.00024
303.15	0.03566	0.0002
308.15	0.02785	0.00017
313.15	0.02248	0.00015
318.15	0.01797	0.00013
323.15	0.01432	0.00012
328.15	0.01158	0.00012
333.15	0.00939	0.00011
338.15	0.00765	0.00011
344.15	0.00604	0.00011
348.15	0.00522	0.0001
353.15	0.00442	0.0001
358.15	0.00384	0.0001
363.15	0.00338	0.0001
368.15	0.003	0.0001
373.15	0.00262	0.0001
378.15	0.00228	0.0001
383.15	0.0019	0.0001
388.15	0.00148	0.0001
393.15	0.00102	0.0001

System: 2-[2-[2-(2-hydroxypropoxy)propoxy]propoxy]-1-propanol; phases: Liquid, Gas
Property: Surface tension liquid-gas, N/m (Liquid); method: Drop volume
Temperature, K	Surface tension liquid-gas, N/m	uncertainty
298.15	0.0343	0.0002
308.15	0.0334	0.0002
318.15	0.0326	0.0002
328.15	0.0318	0.0002
348.15	0.0302	0.0002
368.15	0.0285	0.0002
378.15	0.0277	0.0002
398.15	0.0261	0.0002
408.15	0.0252	0.0002
418.15	0.0244	0.0002
428.15	0.0236	0.0002
438.15	0.0227	0.0002
448.15	0.0219	0.0002
458.15	0.0211	0.0002
468.15	0.0202	0.0002
