Measured thermophysical data. Liquid Liquid Equilibria for the Ternary Systems of Perfluamine + Hydrofluoroether + Benzene, Toluene, or Xylene at 298.15 K or 313.15 K
Source: J. Chem. Eng. Data, 2013, 10.1021/je400592a
Compound 1: 1,1,2,2,3,3,3-heptafluoro-N,N-bis(heptafluoropropyl)-1-propanamine, C9F21N, InChI=1S/C9F21N/c10-1(11,4(16,17)18)7(25,26)31(8(27,28)2(12,13)5(19,20)21)9(29,30)3(14,15)6(22,23)24, purity 98%
Compound 2: 1,1,1,2,2,3,3,5,5,5-decafluoro-4-methoxy-4-(trifluoromethyl)pentane, C7H3F13O, InChI=1S/C7H3F13O/c1-21-2(5(12,13)14,6(15,16)17)3(8,9)4(10,11)7(18,19)20/h1H3, purity 99%
Compound 3: 2-trifluoromethyl-3-ethoxydodecafluorohexane, C9H5F15O, InChI=1S/C9H5F15O/c1-2-25-6(15,3(10,7(16,17)18)8(19,20)21)4(11,12)5(13,14)9(22,23)24/h2H2,1H3, purity 99%
Compound 4: benzene, C6H6, InChI=1S/C6H6/c1-2-4-6-5-3-1/h1-6H, purity 99%
Compound 5: toluene, C7H8, InChI=1S/C7H8/c1-7-5-3-2-4-6-7/h2-6H,1H3, purity 99%
Compound 6: 1,2-dimethylbenzene, C8H10, InChI=1S/C8H10/c1-7-5-3-4-6-8(7)2/h3-6H,1-2H3, purity 98%

System: benzene + 1,1,2,2,3,3,3-heptafluoro-N,N-bis(heptafluoropropyl)-1-propanamine + 1,1,1,2,2,3,3,5,5,5-decafluoro-4-methoxy-4-(trifluoromethyl)pentane; phases: Liquid mixture 1, Liquid mixture 2
Fixed: Pressure, kPa = 100
Property: Mass fraction of 1,1,2,2,3,3,3-heptafluoro-N,N-bis(heptafluoropropyl)-1-propanamine (Liquid mixture 1); method: Chromatography
Property: Mass fraction of 1,1,2,2,3,3,3-heptafluoro-N,N-bis(heptafluoropropyl)-1-propanamine (Liquid mixture 2); method: Chromatography
Property: Mass fraction of 1,1,1,2,2,3,3,5,5,5-decafluoro-4-methoxy-4-(trifluoromethyl)pentane (Liquid mixture 2); method: Chromatography
Temperature, K	Mass fraction of 1,1,1,2,2,3,3,5,5,5-decafluoro-4-methoxy-4-(trifluoromethyl)pentane	Mass fraction of 1,1,2,2,3,3,3-heptafluoro-N,N-bis(heptafluoropropyl)-1-propanamine	uncertainty	Mass fraction of 1,1,2,2,3,3,3-heptafluoro-N,N-bis(heptafluoropropyl)-1-propanamine	uncertainty	Mass fraction of 1,1,1,2,2,3,3,5,5,5-decafluoro-4-methoxy-4-(trifluoromethyl)pentane	uncertainty
313.15	0.0024	0.0024	0.0006	0.8118	0.0103	0.0371	
313.15	0.0088	0.0027	0.0006	0.6874	0.0102	0.125	
313.15	0.014	0.003	0.0006	0.6224	0.0107	0.1772	
313.15	0.0155	0.0035	0.0006	0.5802	0.0118	0.1991	
313.15	0.022	0.0041	0.0006	0.5114	0.0114	0.2451	
313.15	0.0287	0.0044	0.0006	0.4352	0.012	0.2956	
313.15	0.0357	0.0047	0.0006	0.3714	0.0132	0.329	
298.15	0.0019	0.0015	0.0006	0.8455	0.0096	0.0373	
298.15	0.0049	0.0015	0.0006	0.7781	0.0095	0.0916	
298.15	0.0073	0.0016	0.0006	0.724	0.01	0.1395	
298.15	0.0109	0.0016	0.0006	0.6515	0.0108	0.19	
298.15	0.0131	0.0017	0.0006	0.6026	0.0109	0.2245	
298.15	0.0159	0.0018	0.0006	0.5474	0.0112	0.2625	
298.15	0.0218	0.002	0.0006	0.4598	0.0117	0.3213	
298.15	0.0271	0.0023	0.0006	0.3841	0.0121	0.366	
313.15	0.0061	0.0025	0.0006	0.7436	0.0105	0.0867	

System: toluene + 1,1,2,2,3,3,3-heptafluoro-N,N-bis(heptafluoropropyl)-1-propanamine + 1,1,1,2,2,3,3,5,5,5-decafluoro-4-methoxy-4-(trifluoromethyl)pentane; phases: Liquid mixture 2, Liquid mixture 1
Fixed: Pressure, kPa = 100
Property: Mass fraction of 1,1,1,2,2,3,3,5,5,5-decafluoro-4-methoxy-4-(trifluoromethyl)pentane (Liquid mixture 2); method: Chromatography
Property: Mass fraction of 1,1,2,2,3,3,3-heptafluoro-N,N-bis(heptafluoropropyl)-1-propanamine (Liquid mixture 1); method: Chromatography
Property: Mass fraction of 1,1,1,2,2,3,3,5,5,5-decafluoro-4-methoxy-4-(trifluoromethyl)pentane (Liquid mixture 1); method: Chromatography
Temperature, K	Mass fraction of 1,1,2,2,3,3,3-heptafluoro-N,N-bis(heptafluoropropyl)-1-propanamine	Mass fraction of 1,1,1,2,2,3,3,5,5,5-decafluoro-4-methoxy-4-(trifluoromethyl)pentane	uncertainty	Mass fraction of 1,1,2,2,3,3,3-heptafluoro-N,N-bis(heptafluoropropyl)-1-propanamine	uncertainty	Mass fraction of 1,1,1,2,2,3,3,5,5,5-decafluoro-4-methoxy-4-(trifluoromethyl)pentane	uncertainty
298.15	0.8474	0.0591	0.0081	0.0022	0.0006	0.0036	
298.15	0.7877	0.1134	0.0078	0.0023	0.0006	0.0073	
298.15	0.7056	0.1758	0.0077	0.0022	0.0006	0.0119	
298.15	0.635	0.2315	0.0076	0.0025	0.0006	0.0164	
298.15	0.5737	0.2732	0.0076	0.0026	0.0006	0.0203	
298.15	0.5216	0.313	0.0076	0.0029	0.0006	0.0246	
298.15	0.4296	0.3739	0.0077	0.0032	0.0006	0.0329	
298.15	0.3719	0.4128	0.0078	0.0035	0.0006	0.0391	
313.15	0.8111	0.0679	0.0076	0.0034	0.0006	0.0052	
313.15	0.751	0.1138	0.0076	0.0034	0.0006	0.0086	
313.15	0.6804	0.1666	0.0075	0.0038	0.0006	0.014	
313.15	0.6116	0.216	0.0077	0.0042	0.0006	0.0195	
313.15	0.5612	0.2563	0.0076	0.0048	0.0006	0.0246	
313.15	0.5175	0.2841	0.0073	0.0051	0.0006	0.0287	
313.15	0.4541	0.3226	0.0073	0.0055	0.0006	0.0352	
313.15	0.3937	0.3573	0.0074	0.0061	0.0006	0.0434	

System: 1,2-dimethylbenzene + 1,1,2,2,3,3,3-heptafluoro-N,N-bis(heptafluoropropyl)-1-propanamine + 1,1,1,2,2,3,3,5,5,5-decafluoro-4-methoxy-4-(trifluoromethyl)pentane; phases: Liquid mixture 1, Liquid mixture 2
Fixed: Pressure, kPa = 100
Property: Mass fraction of 1,1,2,2,3,3,3-heptafluoro-N,N-bis(heptafluoropropyl)-1-propanamine (Liquid mixture 1); method: Chromatography
Property: Mass fraction of 1,1,1,2,2,3,3,5,5,5-decafluoro-4-methoxy-4-(trifluoromethyl)pentane (Liquid mixture 2); method: Chromatography
Property: Mass fraction of 1,1,2,2,3,3,3-heptafluoro-N,N-bis(heptafluoropropyl)-1-propanamine (Liquid mixture 2); method: Chromatography
Temperature, K	Mass fraction of 1,1,1,2,2,3,3,5,5,5-decafluoro-4-methoxy-4-(trifluoromethyl)pentane	Mass fraction of 1,1,2,2,3,3,3-heptafluoro-N,N-bis(heptafluoropropyl)-1-propanamine	uncertainty	Mass fraction of 1,1,1,2,2,3,3,5,5,5-decafluoro-4-methoxy-4-(trifluoromethyl)pentane	uncertainty	Mass fraction of 1,1,2,2,3,3,3-heptafluoro-N,N-bis(heptafluoropropyl)-1-propanamine	uncertainty
298.15	0.0103	0.0017	0.0006	0.1837	0.0081	0.7311	
298.15	0.0134	0.0018	0.0006	0.2311	0.008	0.6769	
298.15	0.017	0.0018	0.0006	0.2869	0.008	0.6096	
298.15	0.0201	0.0019	0.0006	0.3302	0.008	0.5557	
298.15	0.0245	0.0019	0.0006	0.3791	0.008	0.4922	
298.15	0.0285	0.002	0.0006	0.4289	0.008	0.4253	
298.15	0.0336	0.0021	0.0006	0.4716	0.008	0.3644	
298.15	0.0391	0.0022	0.0006	0.4992	0.0084	0.323	
313.15	0.0052	0.0034	0.0006	0.0679	0.0076	0.8111	
313.15	0.0086	0.0034	0.0006	0.1138	0.0076	0.751	
313.15	0.014	0.0038	0.0006	0.1666	0.0075	0.6804	
313.15	0.0195	0.0042	0.0006	0.216	0.0077	0.6116	
313.15	0.0246	0.0048	0.0006	0.2563	0.0076	0.5612	
313.15	0.0287	0.0051	0.0006	0.2841	0.0074	0.5175	
313.15	0.0352	0.0055	0.0006	0.3226	0.0074	0.4541	
313.15	0.0434	0.0061	0.0006	0.3573	0.0074	0.3937	

System: benzene + 1,1,2,2,3,3,3-heptafluoro-N,N-bis(heptafluoropropyl)-1-propanamine + 2-trifluoromethyl-3-ethoxydodecafluorohexane; phases: Liquid mixture 2, Liquid mixture 1
Fixed: Pressure, kPa = 100
Property: Mass fraction of 2-trifluoromethyl-3-ethoxydodecafluorohexane (Liquid mixture 2); method: Chromatography
Property: Mass fraction of 1,1,2,2,3,3,3-heptafluoro-N,N-bis(heptafluoropropyl)-1-propanamine (Liquid mixture 1); method: Chromatography
Property: Mass fraction of 2-trifluoromethyl-3-ethoxydodecafluorohexane (Liquid mixture 1); method: Chromatography
Temperature, K	Mass fraction of 1,1,2,2,3,3,3-heptafluoro-N,N-bis(heptafluoropropyl)-1-propanamine	Mass fraction of 2-trifluoromethyl-3-ethoxydodecafluorohexane	uncertainty	Mass fraction of 1,1,2,2,3,3,3-heptafluoro-N,N-bis(heptafluoropropyl)-1-propanamine	uncertainty	Mass fraction of 2-trifluoromethyl-3-ethoxydodecafluorohexane	uncertainty
298.15	0.8476	0.0318	0.0076	0.0012	0.0006	0.0012	
298.15	0.7896	0.0764	0.0075	0.0012	0.0006	0.0028	
298.15	0.7342	0.1175	0.0073	0.0013	0.0006	0.0043	
298.15	0.6924	0.1433	0.0071	0.0013	0.0006	0.0055	
298.15	0.6643	0.1602	0.0072	0.0015	0.0006	0.0063	
298.15	0.5922	0.2065	0.0074	0.0016	0.0006	0.0085	
298.15	0.5388	0.2451	0.0073	0.0016	0.0006	0.0104	
298.15	0.4647	0.2881	0.0075	0.0017	0.0006	0.013	
313.15	0.8192	0.0293	0.0073	0.002	0.0006	0.0015	
313.15	0.754	0.0745	0.0073	0.0025	0.0006	0.004	
313.15	0.7014	0.1105	0.0074	0.0022	0.0006	0.0059	
313.15	0.6628	0.1397	0.0075	0.0024	0.0006	0.0078	
313.15	0.6278	0.1638	0.0072	0.0024	0.0006	0.0092	
313.15	0.5907	0.1864	0.0072	0.0027	0.0006	0.0109	
313.15	0.5603	0.2052	0.007	0.0026	0.0006	0.0122	
313.15	0.517	0.2278	0.007	0.0029	0.0006	0.0144	

System: toluene + 1,1,2,2,3,3,3-heptafluoro-N,N-bis(heptafluoropropyl)-1-propanamine + 2-trifluoromethyl-3-ethoxydodecafluorohexane; phases: Liquid mixture 2, Liquid mixture 1
Fixed: Pressure, kPa = 100
Property: Mass fraction of 2-trifluoromethyl-3-ethoxydodecafluorohexane (Liquid mixture 2); method: Chromatography
Property: Mass fraction of 1,1,2,2,3,3,3-heptafluoro-N,N-bis(heptafluoropropyl)-1-propanamine (Liquid mixture 1); method: Chromatography
Property: Mass fraction of 2-trifluoromethyl-3-ethoxydodecafluorohexane (Liquid mixture 1); method: Chromatography
Temperature, K	Mass fraction of 1,1,2,2,3,3,3-heptafluoro-N,N-bis(heptafluoropropyl)-1-propanamine	Mass fraction of 2-trifluoromethyl-3-ethoxydodecafluorohexane	uncertainty	Mass fraction of 1,1,2,2,3,3,3-heptafluoro-N,N-bis(heptafluoropropyl)-1-propanamine	uncertainty	Mass fraction of 2-trifluoromethyl-3-ethoxydodecafluorohexane	uncertainty
298.15	0.8752	0.0328	0.0083	0.0022	0.0006	0.0017	
298.15	0.8294	0.0762	0.0076	0.0022	0.0006	0.004	
298.15	0.7381	0.1397	0.0076	0.0023	0.0006	0.0077	
298.15	0.6934	0.1799	0.0075	0.0024	0.0006	0.0098	
298.15	0.6299	0.2172	0.0075	0.0025	0.0006	0.0127	
298.15	0.5887	0.2551	0.0074	0.0026	0.0006	0.0157	
298.15	0.5002	0.3042	0.0073	0.0027	0.0006	0.0196	
298.15	0.4419	0.3412	0.0075	0.003	0.0006	0.0235	
313.15	0.8588	0.0284	0.0077	0.0033	0.0006	0.0019	
313.15	0.803	0.0727	0.0075	0.0034	0.0006	0.0048	
313.15	0.7463	0.1118	0.0075	0.0036	0.0006	0.008	
313.15	0.7132	0.1387	0.0074	0.0037	0.0006	0.0097	
313.15	0.6569	0.1761	0.0073	0.0041	0.0006	0.0135	
313.15	0.5611	0.2374	0.0072	0.0052	0.0006	0.0204	
313.15	0.4655	0.2929	0.0072	0.0057	0.0006	0.028	
313.15	0.3721	0.341	0.0072	0.0067	0.0006	0.0379	

System: 1,2-dimethylbenzene + 1,1,2,2,3,3,3-heptafluoro-N,N-bis(heptafluoropropyl)-1-propanamine + 2-trifluoromethyl-3-ethoxydodecafluorohexane; phases: Liquid mixture 2, Liquid mixture 1
Fixed: Pressure, kPa = 100
Property: Mass fraction of 2-trifluoromethyl-3-ethoxydodecafluorohexane (Liquid mixture 2); method: Chromatography
Property: Mass fraction of 1,1,2,2,3,3,3-heptafluoro-N,N-bis(heptafluoropropyl)-1-propanamine (Liquid mixture 1); method: Chromatography
Property: Mass fraction of 2-trifluoromethyl-3-ethoxydodecafluorohexane (Liquid mixture 1); method: Chromatography
Temperature, K	Mass fraction of 1,1,2,2,3,3,3-heptafluoro-N,N-bis(heptafluoropropyl)-1-propanamine	Mass fraction of 2-trifluoromethyl-3-ethoxydodecafluorohexane	uncertainty	Mass fraction of 1,1,2,2,3,3,3-heptafluoro-N,N-bis(heptafluoropropyl)-1-propanamine	uncertainty	Mass fraction of 2-trifluoromethyl-3-ethoxydodecafluorohexane	uncertainty
298.15	0.8942	0.0451	0.0081	0.0017	0.0006	0.0021	
298.15	0.8205	0.1127	0.0078	0.0018	0.0006	0.0051	
298.15	0.7333	0.1791	0.0079	0.0018	0.0006	0.0087	
298.15	0.7018	0.2137	0.0077	0.0019	0.0006	0.0099	
298.15	0.6342	0.2574	0.0075	0.002	0.0006	0.013	
298.15	0.5496	0.3188	0.0078	0.0021	0.0006	0.017	
298.15	0.4886	0.3641	0.0078	0.0021	0.0006	0.0201	
298.15	0.4168	0.415	0.0079	0.0021	0.0006	0.0244	
313.15	0.8886	0.0406	0.0076	0.0025	0.0006	0.0022	
313.15	0.8238	0.0911	0.0077	0.0021	0.0006	0.0051	
313.15	0.764	0.1387	0.0078	0.0022	0.0006	0.0079	
313.15	0.7192	0.1765	0.0078	0.0023	0.0006	0.0104	
313.15	0.6729	0.2109	0.0076	0.0025	0.0006	0.013	
313.15	0.6121	0.2567	0.0076	0.0026	0.0006	0.0167	
313.15	0.5295	0.3133	0.0076	0.003	0.0006	0.0215	
313.15	0.4096	0.398	0.0079	0.0034	0.0006	0.031	
