Measured thermophysical data. Experimental Study and Correlation Models of the Density and Viscosity of 1-Hexene and 1-Heptene at Temperatures from (298 to 473) K and Pressures up to 245 MPa
Source: J. Chem. Eng. Data, 2014, 10.1021/je401015e
Compound 1: hex-1-ene, C6H12, InChI=1S/C6H12/c1-3-5-6-4-2/h3H,1,4-6H2,2H3, purity 98%
Compound 2: 1-heptene, C7H14, InChI=1S/C7H14/c1-3-5-7-6-4-2/h3H,1,4-7H2,2H3, purity 98%

System: hex-1-ene; phases: Liquid
Property: Mass density, kg/m3 (Liquid); method: Buoyancy - hydrostatic balance with magnetic suspension - one sinker
Pressure, kPa	Temperature, K	Mass density, kg/m3	uncertainty
98	298.15	669.71	10.66
98	303.15	664.87	10.59
98	312.92	655.77	10.44
98	325.17	644.12	10.25
24510	298.15	696.93	11.1
24510	303.15	690.93	11
24510	326	675.1	10.75
24510	364.73	645.55	10.28
24510	398.43	618.11	9.84
24510	423.18	598.39	9.53
24510	452.77	575.45	9.16
24510	471.92	560.56	8.92
49030	298.15	714.95	11.38
49030	303.15	711.55	11.33
49030	326.02	694.93	11.06
49030	364.69	670.17	10.67
49030	398.87	645.8	10.28
49030	423.1	630.04	10.03
49030	453.14	608.12	9.68
49030	471.73	598.79	9.53
98060	298.15	744.22	11.85
98060	303.15	741.4	11.81
98060	325.99	729.28	11.61
98060	364.75	706.69	11.25
98060	398.78	687.13	10.94
98060	422.9	672.81	10.71
98060	453.19	656.91	10.46
98060	471.78	646.27	10.29
147100	298.15	763.36	12.16
147100	303.15	761.37	12.12
147100	326.05	750.05	11.94
147100	364.83	731.74	11.65
147100	398.25	715.97	11.4
147100	422.74	703.54	11.2
147100	453.28	687.84	10.95
147100	472.02	680.82	10.84
196130	298.15	778.91	12.4
196130	303.15	776.19	12.36
196130	326.12	767.98	12.23
196130	364.63	751.74	11.97
196130	398.37	736.05	11.72
196130	422.71	726.21	11.56
196130	453.14	712.63	11.35
196130	471.55	704.21	11.21
245160	298.15	793.17	12.63
245160	303.15	791.19	12.6
245160	326.15	783.2	12.47
245160	364.25	767.68	12.23
245160	398.35	753.74	12
245160	422.37	743.17	11.83
245160	453.52	732.58	11.67
245160	471.64	725.42	11.55

System: hex-1-ene; phases: Liquid
Property: Viscosity, Pa*s (Liquid); method: SPHERE:UFactor:4
Pressure, kPa	Temperature, K	Viscosity, Pa*s	uncertainty
98	298.15	0.000271	9e-06
98	303.15	0.000256	9e-06
98	312.92	0.000232	8e-06
98	325.17	0.00021	7e-06
24510	298.15	0.000337	1.1e-05
24510	303.15	0.000321	1.1e-05
24510	326	0.000274	9e-06
24510	364.73	0.000214	7e-06
24510	398.43	0.00017	6e-06
24510	423.18	0.000146	5e-06
24510	452.77	0.000124	4e-06
24510	471.92	0.000115	4e-06
49030	298.15	0.000415	1.4e-05
49030	303.15	0.000395	1.3e-05
49030	326.02	0.000328	1.1e-05
49030	364.69	0.000254	9e-06
49030	398.87	0.000211	7e-06
49030	423.1	0.000184	6e-06
49030	453.14	0.00016	6e-06
49030	471.73	0.00015	5e-06
98060	298.15	0.00055	1.8e-05
98060	303.15	0.000525	1.7e-05
98060	325.99	0.000442	1.5e-05
98060	364.75	0.000346	1.2e-05
98060	398.78	0.000287	1e-05
98060	422.9	0.000252	9e-06
98060	453.19	0.000218	7e-06
98060	471.78	0.000204	7e-06
147100	298.15	0.000705	2.3e-05
147100	303.15	0.00067	2.2e-05
147100	326.05	0.000561	1.9e-05
147100	364.83	0.000437	1.5e-05
147100	398.25	0.000363	1.2e-05
147100	422.74	0.000319	1.1e-05
147100	453.28	0.000277	9e-06
147100	472.02	0.00026	9e-06
196130	298.15	0.000876	2.9e-05
196130	303.15	0.00084	2.8e-05
196130	326.12	0.000694	2.3e-05
196130	364.63	0.00054	1.8e-05
196130	398.37	0.000444	1.5e-05
196130	422.71	0.000389	1.3e-05
196130	453.14	0.000338	1.1e-05
196130	471.55	0.000315	1.1e-05
245160	298.15	0.001093	3.6e-05
245160	303.15	0.001034	3.4e-05
245160	326.15	0.000836	2.8e-05
245160	364.25	0.000628	2.1e-05
245160	398.35	0.000516	1.7e-05
245160	422.37	0.000456	1.5e-05
245160	453.52	0.000397	1.3e-05
245160	471.64	0.000371	1.2e-05

System: 1-heptene; phases: Liquid
Property: Mass density, kg/m3 (Liquid); method: Buoyancy - hydrostatic balance with magnetic suspension - one sinker
Pressure, kPa	Temperature, K	Mass density, kg/m3	uncertainty
98	298.15	694.51	11.06
98	303.15	689.57	10.98
98	312.83	680.92	10.84
98	322.39	672.17	10.7
98	327.49	668.07	10.64
98	340.21	655.95	10.44
98	354.73	643.5	10.25
98	360.03	638.93	10.17
24510	298.15	718.23	11.44
24510	303.15	715	11.38
24510	327.47	697.97	11.11
24510	360.06	672.86	10.71
24510	392.79	646.48	10.29
24510	424.11	619.97	9.87
24510	452.35	595.84	9.49
24510	473.7	578.48	9.21
49030	298.15	734.7	11.7
49030	303.15	733.1	11.67
49030	327.49	718.4	11.44
49030	359.96	699.31	11.13
49030	392.68	676.29	10.77
49030	424.17	653.79	10.41
49030	452.34	628.89	10.01
49030	473.56	612.5	9.75
98060	298.15	765.58	12.19
98060	303.15	761.82	12.13
98060	327.48	746.71	11.89
98060	359.87	730.37	11.63
98060	392.74	714.89	11.38
98060	424.17	697.03	11.1
98060	452.25	676.86	10.78
98060	473.47	665.45	10.6
147100	298.15	783.57	12.48
147100	303.15	780.46	12.43
147100	327.63	767.87	12.23
147100	359.74	750.76	11.96
147100	392.61	734.09	11.69
147100	424.04	717.45	11.42
147100	452.28	702.95	11.19
147100	473.33	692.3	11.02
196130	298.15	800.85	12.75
196130	303.15	797.46	12.7
196130	327.63	786.42	12.52
196130	359.75	773.85	12.32
196130	392.46	758.9	12.09
196130	423.82	745.35	11.87
196130	452.22	733.49	11.68
196130	473.28	723.12	11.51
245160	298.15	816.79	13.01
245160	303.15	815.3	12.98
245160	327.67	805.58	12.83
245160	359.63	791.61	12.61
245160	392.4	776.73	12.37
245160	424.07	760.78	12.12
245160	452.27	750.38	11.95
245160	473.35	737.15	11.74

System: 1-heptene; phases: Liquid
Property: Viscosity, Pa*s (Liquid); method: SPHERE:UFactor:4
Pressure, kPa	Temperature, K	Viscosity, Pa*s	uncertainty
98	298.15	0.000362	1.2e-05
98	303.15	0.000346	1.2e-05
98	312.83	0.000314	1.1e-05
98	322.39	0.000288	1e-05
98	327.49	0.000278	9e-06
98	340.21	0.000251	8e-06
98	354.73	0.000224	8e-06
98	360.03	0.000215	7e-06
24510	298.15	0.000451	1.5e-05
24510	303.15	0.000431	1.4e-05
24510	327.47	0.000351	1.2e-05
24510	360.06	0.000278	9e-06
24510	392.79	0.000226	8e-06
24510	424.11	0.000182	6e-06
24510	452.35	0.00016	6e-06
24510	473.7	0.000148	5e-06
49030	298.15	0.000544	1.8e-05
49030	303.15	0.00052	1.7e-05
49030	327.49	0.000429	1.4e-05
49030	359.96	0.00034	1.1e-05
49030	392.68	0.000277	9e-06
49030	424.17	0.000226	8e-06
49030	452.34	0.000198	7e-06
49030	473.56	0.000183	6e-06
98060	298.15	0.000739	2.4e-05
98060	303.15	0.000706	2.3e-05
98060	327.48	0.000575	1.9e-05
98060	359.87	0.000457	1.5e-05
98060	392.74	0.000377	1.3e-05
98060	424.17	0.000311	1e-05
98060	452.25	0.00028	9e-06
98060	473.47	0.000262	9e-06
147100	298.15	0.000942	3.1e-05
147100	303.15	0.000903	3e-05
147100	327.63	0.000741	2.4e-05
147100	359.74	0.000587	1.9e-05
147100	392.61	0.00048	1.6e-05
147100	424.04	0.0004	1.3e-05
147100	452.28	0.000355	1.2e-05
147100	473.33	0.000333	1.1e-05
196130	298.15	0.001226	4e-05
196130	303.15	0.001162	3.8e-05
196130	327.63	0.000925	3e-05
196130	359.75	0.000726	2.4e-05
196130	392.46	0.000591	2e-05
196130	423.82	0.000489	1.6e-05
196130	452.22	0.000434	1.4e-05
196130	473.28	0.000407	1.4e-05
245160	298.15	0.001499	4.9e-05
245160	303.15	0.001429	4.7e-05
245160	327.67	0.001136	3.7e-05
245160	359.63	0.000883	2.9e-05
245160	392.4	0.000709	2.3e-05
245160	424.07	0.000574	1.9e-05
245160	452.27	0.000503	1.7e-05
245160	473.35	0.00047	1.6e-05
