Measured thermophysical data. Thermophysical Properties of the Binary Mixture 1-Propylpyridinium Tetrafluoroborate with Methanol
Source: J. Chem. Eng. Data, 2014, 10.1021/je401120a
Compound 1: 1-propylpyridinium tetrafluoroborate, C8H12BF4N, InChI=1S/C8H12N.BF4/c1-2-6-9-7-4-3-5-8-9;2-1(3,4)5/h3-5,7-8H,2,6H2,1H3;/q+1;-1, purity 98%
Compound 2: methanol, CH4O, InChI=1S/CH4O/c1-2/h2H,1H3, purity 99.8%

System: 1-propylpyridinium tetrafluoroborate; phases: Liquid
Fixed: Pressure, kPa = 101
Property: Mass density, kg/m3 (Liquid); method: Vibrating tube method
Temperature, K	Mass density, kg/m3	uncertainty
293.15	1256.673	1.405
303.15	1249.537	1.388
313.15	1242.427	1.371
323.15	1235.309	1.354

System: 1-propylpyridinium tetrafluoroborate; phases: Liquid
Fixed: Pressure, kPa = 101
Property: Speed of sound, m/s (Liquid); method: Pulse-echo method
Temperature, K	Speed of sound, m/s	uncertainty
293.15	1653.87	2.35
303.15	1629.76	2.35
313.15	1606.32	2.35
323.15	1583.31	2.34

System: 1-propylpyridinium tetrafluoroborate; phases: Liquid
Fixed: Pressure, kPa = 101
Property: Viscosity, Pa*s (Liquid); method: CAPTUB:UFactor:4
Temperature, K	Viscosity, Pa*s	uncertainty
293.15	0.16	0.01278
303.15	0.09075	0.00383
313.15	0.056021	0.000891
323.15	0.036989	0.000761

System: 1-propylpyridinium tetrafluoroborate; phases: Liquid
Fixed: Pressure, kPa = 101
Property: Electrical conductivity, S/m (Liquid); method: Crison conductimeter (model GLP31)
Temperature, K	Electrical conductivity, S/m	uncertainty
293.15	0.302	0.006
303.15	0.516	0.01
313.15	0.799	0.016
323.15	1.154	0.023

System: 1-propylpyridinium tetrafluoroborate; phases: Liquid
Fixed: Pressure, kPa = 101.325
Property: Refractive index (Na D-line) (Liquid); method: Standard Abbe refractometry
Temperature, K	Refractive index (Na D-line)	uncertainty
293.15	1.445883	0.000566
303.15	1.44322	0.000566
313.15	1.440566	0.000566
323.15	1.437925	0.000566

System: methanol; phases: Liquid
Fixed: Pressure, kPa = 101
Property: Mass density, kg/m3 (Liquid); method: Vibrating tube method
Temperature, K	Mass density, kg/m3	uncertainty
293.15	791.243	0.147
303.15	781.813	0.149
313.15	772.287	0.152
323.15	762.828	0.154

System: methanol; phases: Liquid
Fixed: Pressure, kPa = 101
Property: Speed of sound, m/s (Liquid); method: Pulse-echo method
Temperature, K	Speed of sound, m/s	uncertainty
293.15	1118.83	1.15
303.15	1085.99	1.15
313.15	1053.55	1.14
323.15	1021.53	1.14

System: methanol; phases: Liquid
Fixed: Pressure, kPa = 101
Property: Viscosity, Pa*s (Liquid); method: CAPTUB:UFactor:4
Temperature, K	Viscosity, Pa*s	uncertainty
293.15	0.0005833	1.57e-05
303.15	0.000507	1.41e-05
313.15	0.0004438	1.27e-05
323.15	0.0003873	1.15e-05

System: methanol; phases: Liquid, Gas
Property: Vapor or sublimation pressure, kPa (Liquid); method: Ebulliometric method (Recirculating still)
Temperature, K	Vapor or sublimation pressure, kPa	uncertainty
303.15	21.93	0.141
323.15	55.785	0.265

System: methanol; phases: Liquid
Fixed: Pressure, kPa = 101.325
Property: Refractive index (Na D-line) (Liquid); method: Standard Abbe refractometry
Temperature, K	Refractive index (Na D-line)	uncertainty
293.15	1.328426	0.000402
303.15	1.324333	0.000402
313.15	1.320152	0.000402
323.15	1.3167	0.000402

System: methanol + 1-propylpyridinium tetrafluoroborate; phases: Liquid
Fixed: Pressure, kPa = 101
Property: Mass density, kg/m3 (Liquid); method: Vibrating tube method
Temperature, K	Mole fraction of 1-propylpyridinium tetrafluoroborate	Mass density, kg/m3	uncertainty
293.15	0	791.243	0.147
293.15	0.028	846.441	0.379
293.15	0.0577	893.625	0.311
293.15	0.0967	944.389	0.261
293.15	0.1459	995.788	0.223
293.15	0.1952	1036.487	0.191
293.15	0.3213	1110.622	0.249
293.15	0.4002	1143.048	0.313
293.15	0.4965	1173.266	0.428
293.15	0.5988	1198.326	0.576
293.15	0.6904	1216.195	0.73
293.15	0.8011	1233.621	0.944
293.15	0.8824	1244.232	1.121
293.15	0.94	1250.692	1.256
293.15	1	1256.673	1.405
303.15	0	781.813	0.149
303.15	0.028	837.96	0.384
303.15	0.0577	885.479	0.312
303.15	0.0967	936.347	0.261
303.15	0.1459	987.6	0.223
303.15	0.1952	1028.349	0.188
303.15	0.3213	1102.548	0.245
303.15	0.4002	1135.039	0.308
303.15	0.4965	1165.53	0.421
303.15	0.5988	1190.7	0.567
303.15	0.6904	1208.714	0.72
303.15	0.8011	1226.215	0.931
303.15	0.8824	1236.991	1.106
303.15	0.94	1243.502	1.24
303.15	1	1249.537	1.388
313.15	0	772.287	0.152
313.15	0.028	829.037	0.388
313.15	0.0577	876.892	0.314
313.15	0.0967	927.831	0.263
313.15	0.1459	979.474	0.225
323.15	0	762.828	0.154
323.15	0.028	820.035	0.39
323.15	0.0577	867.868	0.316
323.15	0.0967	918.92	0.265
323.15	0.1459	970.736	0.226
313.15	0.1952	1020.192	0.186
313.15	0.3213	1094.597	0.242
313.15	0.4002	1127.344	0.302
313.15	0.4965	1157.839	0.414
313.15	0.5988	1183.217	0.559
313.15	0.6904	1201.318	0.709
313.15	0.8011	1218.896	0.919
313.15	0.8824	1229.831	1.092
313.15	0.94	1236.333	1.224
313.15	1	1242.427	1.371
323.15	0.1952	1011.68	0.186
323.15	0.3213	1086.6	0.238
323.15	0.4002	1119.585	0.296
323.15	0.4965	1150.298	0.407
323.15	0.5988	1175.762	0.55
323.15	0.6904	1193.836	0.699
323.15	0.8011	1211.543	0.906
323.15	0.8824	1222.551	1.078
323.15	0.94	1229.151	1.209
323.15	1	1235.309	1.354

System: methanol + 1-propylpyridinium tetrafluoroborate; phases: Liquid
Fixed: Pressure, kPa = 101
Property: Speed of sound, m/s (Liquid); method: Pulse-echo method
Temperature, K	Mole fraction of 1-propylpyridinium tetrafluoroborate	Speed of sound, m/s	uncertainty
293.15	0	1118.83	1.15
293.15	0.028	1164.91	1.21
293.15	0.0577	1208.52	1.22
293.15	0.0967	1257.23	1.24
293.15	0.1459	1311.09	1.28
293.15	0.1952	1362.87	1.31
293.15	0.3213	1458.01	1.43
293.15	0.4002	1496.48	1.52
293.15	0.4965	1541.51	1.64
293.15	0.5988	1575.71	1.77
293.15	0.6904	1598.38	1.89
293.15	0.8011	1621.48	2.05
293.15	0.8824	1637.09	2.17
293.15	0.94	1646.39	2.26
293.15	1	1653.87	2.35
303.15	0	1085.99	1.15
303.15	0.028	1134.45	1.21
303.15	0.0577	1179.75	1.22
303.15	0.0967	1230.94	1.24
303.15	0.1459	1286.16	1.27
303.15	0.1952	1339.4	1.31
303.15	0.3213	1433.17	1.43
303.15	0.4002	1477.19	1.52
303.15	0.4965	1516.74	1.63
303.15	0.5988	1550.87	1.76
303.15	0.6904	1573.96	1.89
303.15	0.8011	1597.31	2.05
303.15	0.8824	1612.65	2.17
303.15	0.94	1622.37	2.26
303.15	1	1629.76	2.35
313.15	0	1053.55	1.14
313.15	0.028	1104.32	1.21
313.15	0.0577	1151.45	1.22
313.15	0.0967	1204.8	1.23
313.15	0.1459	1261.31	1.27
323.15	0	1021.53	1.14
323.15	0.028	1073.8	1.21
323.15	0.0577	1123.48	1.21
323.15	0.0967	1178.72	1.23
323.15	0.1459	1236.95	1.27
313.15	0.1952	1314.3	1.3
313.15	0.3213	1409.27	1.43
313.15	0.4002	1453.16	1.51
313.15	0.4965	1492.67	1.63
313.15	0.5988	1527.33	1.76
313.15	0.6904	1550.31	1.89
313.15	0.8011	1573.6	2.05
313.15	0.8824	1589.41	2.17
313.15	0.94	1598.55	2.25
313.15	1	1606.32	2.35
323.15	0.1952	1290.96	1.3
323.15	0.3213	1385.42	1.42
323.15	0.4002	1429.49	1.51
323.15	0.4965	1467.34	1.62
323.15	0.5988	1503.92	1.76
323.15	0.6904	1527.08	1.88
323.15	0.8011	1550.54	2.04
323.15	0.8824	1566.45	2.16
323.15	0.94	1574.96	2.25
323.15	1	1583.31	2.34

System: methanol + 1-propylpyridinium tetrafluoroborate; phases: Liquid
Fixed: Pressure, kPa = 101
Property: Refractive index (Na D-line) (Liquid); method: Standard Abbe refractometry
Temperature, K	Mole fraction of 1-propylpyridinium tetrafluoroborate	Refractive index (Na D-line)	uncertainty
293.15	0	1.328426	0.000402
293.15	0.0279	1.34377	0.000415
293.15	0.0576	1.356573	0.000412
293.15	0.0965	1.369876	0.000411
293.15	0.1457	1.382831	0.000413
293.15	0.1949	1.393009	0.000417
293.15	0.2548	1.402804	0.000422
293.15	0.3209	1.411212	0.00043
293.15	0.3998	1.418896	0.000441
293.15	0.496	1.425954	0.000456
293.15	0.5983	1.43176	0.000475
293.15	0.6901	1.436013	0.000493
293.15	0.8007	1.44014	0.000518
293.15	0.8821	1.442654	0.000537
293.15	1	1.445883	0.000566
303.15	0	1.324333	0.000402
303.15	0.0279	1.339898	0.000415
303.15	0.0576	1.353187	0.000412
303.15	0.0965	1.366933	0.000411
303.15	0.1457	1.380061	0.000413
303.15	0.1949	1.390301	0.000417
303.15	0.2548	1.400012	0.000422
303.15	0.3209	1.408391	0.00043
303.15	0.3998	1.415916	0.000441
303.15	0.496	1.423155	0.000456
303.15	0.5983	1.428902	0.000475
303.15	0.6901	1.433205	0.000493
303.15	0.8007	1.437377	0.000518
303.15	0.8821	1.439966	0.000537
303.15	1	1.44322	0.000566
313.15	0	1.320152	0.000402
313.15	0.0279	1.336099	0.000416
313.15	0.0576	1.349941	0.000413
313.15	0.0965	1.364087	0.000412
313.15	0.1457	1.377593	0.000413
313.15	0.1949	1.38806	0.000416
313.15	0.2548	1.397549	0.000422
313.15	0.3209	1.40578	0.00043
313.15	0.3998	1.41304	0.000441
313.15	0.496	1.420265	0.000456
313.15	0.5983	1.426092	0.000475
313.15	0.6901	1.43034	0.000493
313.15	0.8007	1.434607	0.000518
313.15	0.8821	1.437371	0.000537
313.15	1	1.440566	0.000566
323.15	0	1.3167	0.000402
323.15	0.0279	1.333043	0.000417
323.15	0.0576	1.347535	0.000413
323.15	0.0965	1.362152	0.000412
323.15	0.1457	1.37597	0.000414
323.15	0.1949	1.386333	0.000416
323.15	0.2548	1.395767	0.000422
323.15	0.3209	1.403733	0.00043
323.15	0.3998	1.410938	0.000441
323.15	0.496	1.4177	0.000456
323.15	0.5983	1.423406	0.000475
323.15	0.6901	1.427715	0.000493
323.15	0.8007	1.431926	0.000518
323.15	0.8821	1.43464	0.000537
323.15	1	1.437925	0.000566

System: methanol + 1-propylpyridinium tetrafluoroborate; phases: Liquid
Fixed: Pressure, kPa = 101
Property: Viscosity, Pa*s (Liquid); method: CAPTUB:UFactor:4
Temperature, K	Mole fraction of 1-propylpyridinium tetrafluoroborate	Viscosity, Pa*s	uncertainty
293.15	0	0.0005833	1.57e-05
293.15	0.0505	0.0012671	3.08e-05
293.15	0.0993	0.0025204	5.84e-05
293.15	0.191	0.0057303	0.0001247
293.15	0.291	0.009737	0.000196
293.15	0.3918	0.014394	0.000281
293.15	0.4929	0.020258	0.000391
293.15	0.6117	0.029276	0.000565
293.15	0.7331	0.046219	0.000897
293.15	0.7923	0.06138	0.001126
293.15	0.8425	0.077913	0.002479
293.15	0.8956	0.099919	0.004835
293.15	0.9447	0.12555	0.00799
293.15	1	0.16	0.01278
303.15	0	0.000507	1.41e-05
303.15	0.0505	0.0009388	2.35e-05
303.15	0.0993	0.0017602	4.16e-05
303.15	0.191	0.0036743	8.35e-05
303.15	0.291	0.0062771	0.000135
303.15	0.3918	0.0089544	0.0001838
303.15	0.4929	0.012658	0.000253
303.15	0.6117	0.018635	0.000368
303.15	0.7331	0.029442	0.000579
303.15	0.7923	0.037996	0.00075
303.15	0.8425	0.047818	0.000947
303.15	0.8956	0.059946	0.001066
303.15	0.9447	0.073487	0.002079
303.15	1	0.09075	0.00383
313.15	0	0.0004438	1.27e-05
313.15	0.0505	0.0007578	1.96e-05
313.15	0.0993	0.0012731	3.08e-05
313.15	0.191	0.0025233	5.84e-05
313.15	0.291	0.0043028	9.75e-05
313.15	0.3918	0.006052	0.000132
313.15	0.4929	0.008501	0.0001775
313.15	0.6117	0.012476	0.000253
313.15	0.7331	0.019999	0.0004
313.15	0.7923	0.025299	0.000506
313.15	0.8425	0.031756	0.000636
313.15	0.8956	0.038868	0.000782
313.15	0.9447	0.046645	0.000943
313.15	1	0.056021	0.000891
323.15	0	0.0003873	1.15e-05
323.15	0.0505	0.000673	1.77e-05
323.15	0.0993	0.0010093	2.5e-05
323.15	0.191	0.0019153	4.5e-05
323.15	0.291	0.0032545	7.47e-05
323.15	0.3918	0.0044752	0.0001019
323.15	0.4929	0.0061305	0.0001346
323.15	0.6117	0.0089104	0.0001876
323.15	0.7331	0.014269	0.000292
323.15	0.7923	0.018123	0.000369
323.15	0.8425	0.022393	0.000455
323.15	0.8956	0.026936	0.000548
323.15	0.9447	0.031717	0.000648
323.15	1	0.036989	0.000761

System: methanol + 1-propylpyridinium tetrafluoroborate; phases: Liquid
Fixed: Pressure, kPa = 101
Property: Electrical conductivity, S/m (Liquid); method: Crison conductimeter (model GLP31)
Temperature, K	Mole fraction of 1-propylpyridinium tetrafluoroborate	Electrical conductivity, S/m	uncertainty
293.15	0.0313	2.58	0.05
293.15	0.0365	2.84	0.06
293.15	0.0422	3.07	0.06
293.15	0.0658	3.66	0.07
293.15	0.0775	3.86	0.08
293.15	0.0894	4.05	0.08
293.15	0.1294	4.37	0.09
293.15	0.1409	4.4	0.09
293.15	0.1703	4.48	0.09
293.15	0.2002	4.41	0.09
293.15	0.2456	4.22	0.08
293.15	0.2819	3.93	0.08
293.15	0.3507	3.46	0.07
293.15	0.3937	3.13	0.06
293.15	0.4334	2.77	0.06
293.15	0.464	2.55	0.05
293.15	0.5398	1.983	0.04
293.15	0.635	1.458	0.029
293.15	0.7918	0.639	0.013
293.15	0.894	0.422	0.008
293.15	0.9384	0.355	0.007
293.15	1	0.302	0.006
303.15	0.0313	2.99	0.06
303.15	0.0365	3.28	0.07
303.15	0.0422	3.59	0.07
303.15	0.0658	4.29	0.09
303.15	0.0775	4.56	0.09
303.15	0.0894	4.84	0.1
303.15	0.1294	5.15	0.1
303.15	0.1409	5.25	0.11
303.15	0.1703	5.38	0.11
303.15	0.2002	5.35	0.11
303.15	0.2456	5.16	0.1
303.15	0.2819	4.8	0.1
303.15	0.3507	4.31	0.09
303.15	0.3937	3.94	0.08
303.15	0.4334	3.52	0.07
303.15	0.464	3.16	0.06
303.15	0.5398	2.59	0.05
303.15	0.635	2.01	0.04
303.15	0.7918	1.038	0.021
303.15	0.894	0.702	0.014
303.15	0.9384	0.625	0.013
303.15	1	0.516	0.01
313.15	0.0313	3.41	0.07
313.15	0.0365	3.77	0.08
313.15	0.0422	4.13	0.08
313.15	0.0658	4.95	0.1
313.15	0.0775	5.27	0.11
313.15	0.0894	5.59	0.11
313.15	0.1294	6.03	0.12
313.15	0.1409	6.12	0.12
313.15	0.1703	6.3	0.13
313.15	0.2002	6.26	0.13
313.15	0.2456	6.05	0.12
313.15	0.2819	5.68	0.11
313.15	0.3507	5.15	0.1
313.15	0.3937	4.76	0.1
313.15	0.4334	4.32	0.09
313.15	0.464	3.91	0.08
313.15	0.5398	3.26	0.07
313.15	0.635	2.5	0.05
313.15	0.7918	1.501	0.03
313.15	0.894	1.051	0.021
313.15	0.9384	0.94	0.019
313.15	1	0.799	0.016
323.15	0.0313	3.87	0.08
323.15	0.0365	4.25	0.09
323.15	0.0422	4.68	0.09
323.15	0.0658	5.62	0.11
323.15	0.0775	6	0.12
323.15	0.0894	6.37	0.13
323.15	0.1294	6.98	0.14
323.15	0.1409	7.05	0.14
323.15	0.1703	7.23	0.14
323.15	0.2002	7.2	0.14
323.15	0.2456	7	0.14
323.15	0.2819	6.64	0.13
323.15	0.3507	6.05	0.12
323.15	0.3937	5.63	0.11
323.15	0.4334	5.12	0.1
323.15	0.464	4.78	0.1
323.15	0.5398	3.97	0.08
323.15	0.635	3.15	0.06
323.15	0.7918	1.96	0.039
323.15	0.894	1.482	0.03
323.15	0.9384	1.336	0.027
323.15	1	1.154	0.023

System: methanol + 1-propylpyridinium tetrafluoroborate; phases: Liquid, Gas
Property: Vapor or sublimation pressure, kPa (Liquid); method: Ebulliometric method (Recirculating still)
Temperature, K	Mole fraction of 1-propylpyridinium tetrafluoroborate	Vapor or sublimation pressure, kPa	uncertainty
303.15	0	21.93	0.141
303.15	0.0278	21.43	0.14
303.15	0.0388	21.405	0.139
303.15	0.0433	21.385	0.139
303.15	0.0529	21.295	0.139
303.15	0.0614	21.175	0.138
303.15	0.0744	21.095	0.137
303.15	0.081	21.21	0.137
303.15	0.0978	21.18	0.137
303.15	0.1145	20.978	0.137
303.15	0.1295	20.865	0.136
303.15	0.1481	20.58	0.136
303.15	0.1752	20.12	0.134
303.15	0.2321	19.58	0.131
303.15	0.2618	19.13	0.129
303.15	0.3065	18.36	0.127
303.15	0.3678	17.07	0.122
303.15	0.4196	15.95	0.117
303.15	0.4715	14.705	0.112
303.15	0.5029	13.75	0.108
303.15	0.5301	13.185	0.105
303.15	0.5695	12.15	0.1
303.15	0.621	10.855	0.094
303.15	0.6789	9.1	0.087
303.15	0.7101	8.375	0.082
323.15	0	55.785	0.265
323.15	0.0281	54.595	0.264
323.15	0.0375	54.25	0.262
323.15	0.0438	53.93	0.259
323.15	0.0541	53.78	0.258
323.15	0.0602	53.575	0.257
323.15	0.0671	53.55	0.259
323.15	0.0841	52.89	0.256
323.15	0.0994	52.565	0.254
323.15	0.1014	52.53	0.254
323.15	0.1322	51.725	0.252
323.15	0.1452	51.57	0.252
323.15	0.1641	50.905	0.251
323.15	0.2229	48.715	0.245
323.15	0.2589	47.02	0.24
323.15	0.3003	45.27	0.235
323.15	0.3606	42.15	0.227
323.15	0.4091	39.05	0.217
323.15	0.46	36.235	0.207
323.15	0.4935	33.995	0.2
323.15	0.5295	31.91	0.192
323.15	0.5805	28.675	0.181
323.15	0.6581	23.575	0.162
323.15	0.6803	22.025	0.156
323.15	0.712	19.985	0.147
