Measured thermophysical data. Density, Viscosity, Speed of Sound, and Bulk Modulus of Methyl Alkanes, Dimethyl Alkanes, and Hydrotreated Renewable Fuels
Source: J. Chem. Eng. Data, 2013, 10.1021/je400274f
Compound 1: 2-methyloctane, C9H20, InChI=1S/C9H20/c1-4-5-6-7-8-9(2)3/h9H,4-8H2,1-3H3, purity 99%
Compound 2: 4-methyloctane, C9H20, InChI=1S/C9H20/c1-4-6-8-9(3)7-5-2/h9H,4-8H2,1-3H3, purity 99%
Compound 3: 2-methylnonane, C10H22, InChI=1S/C10H22/c1-4-5-6-7-8-9-10(2)3/h10H,4-9H2,1-3H3, purity 99%
Compound 4: 2-methyldecane, C11H24, InChI=1S/C11H24/c1-4-5-6-7-8-9-10-11(2)3/h11H,4-10H2,1-3H3, purity 99.4%
Compound 5: 3-methylundecane, C12H26, InChI=1S/C12H26/c1-4-6-7-8-9-10-11-12(3)5-2/h12H,4-11H2,1-3H3, purity 98%
Compound 6: 3,5-dimethylheptane, C9H20, InChI=1S/C9H20/c1-5-8(3)7-9(4)6-2/h8-9H,5-7H2,1-4H3, purity 98.5%
Compound 7: 3,6-dimethyloctane, C10H22, InChI=1S/C10H22/c1-5-9(3)7-8-10(4)6-2/h9-10H,5-8H2,1-4H3, purity 98.7%
Compound 8: 2-methylpentadecane, C16H34, InChI=1S/C16H34/c1-4-5-6-7-8-9-10-11-12-13-14-15-16(2)3/h16H,4-15H2,1-3H3, purity 94%
Compound 9: 7-methylhexadecane, C17H36, InChI=1S/C17H36/c1-4-6-8-10-11-12-14-16-17(3)15-13-9-7-5-2/h17H,4-16H2,1-3H3, purity 98%

System: 2-methyloctane; phases: Liquid
Fixed: Pressure, kPa = 101.325
Property: Mass density, kg/m3 (Liquid); method: Vibrating tube method
Temperature, K	Mass density, kg/m3	uncertainty
283.15	723.2	0.5
293.15	715.3	0.4
303.15	707.4	0.4
313.15	699.4	0.4
323.15	691.4	0.4
333.15	683.3	0.4
343.15	675.1	0.4
353.15	666.7	0.4
363.15	658.2	0.4
373.15	649.7	0.5
283.15	723.2	0.3
293.15	715.4	0.3
303.15	707.6	0.3
313.15	699.6	0.3
323.15	691.6	0.4

System: 2-methyloctane; phases: Liquid
Fixed: Pressure, kPa = 101.325
Property: Viscosity, Pa*s (Liquid); method: Concentric cylinders viscometry
Temperature, K	Viscosity, Pa*s	uncertainty
283.15	0.000776	1.7e-05
293.15	0.000676	1.5e-05
303.15	0.000594	1.3e-05
313.15	0.000499	1.1e-05
323.15	0.00047	1.1e-05
333.15	0.000422	1e-05
343.15	0.000381	9e-06
353.15	0.000345	8e-06
363.15	0.000315	8e-06
373.15	0.000288	8e-06

System: 2-methyloctane; phases: Liquid
Fixed: Pressure, kPa = 101.325
Property: Speed of sound, m/s (Liquid); method: Pulse-echo method
Temperature, K	Speed of sound, m/s	uncertainty
283.15	1242.2	1.5
293.15	1201.3	1.5
303.15	1160.7	1.5
313.15	1120.7	1.5
323.15	1081.2	1.5

System: 4-methyloctane; phases: Liquid
Fixed: Pressure, kPa = 101.325
Property: Mass density, kg/m3 (Liquid); method: Vibrating tube method
Temperature, K	Mass density, kg/m3	uncertainty
283.15	727.5	0.4
293.15	719.7	0.4
303.15	711.7	0.4
313.15	703.7	0.4
323.15	695.7	0.4
333.15	687.5	0.4
343.15	679.3	0.4
353.15	671	0.4
363.15	662.5	0.4
373.15	653.9	0.4
283.15	727.6	0.3
293.15	719.8	0.3
303.15	711.9	0.3
313.15	703.9	0.3
323.15	695.9	0.3

System: 4-methyloctane; phases: Liquid
Fixed: Pressure, kPa = 101.325
Property: Viscosity, Pa*s (Liquid); method: Concentric cylinders viscometry
Temperature, K	Viscosity, Pa*s	uncertainty
283.15	0.000719	2.1e-05
293.15	0.000628	2.1e-05
303.15	0.000554	2.1e-05
313.15	0.000453	8e-05
323.15	0.000441	2.1e-05
333.15	0.000397	2.1e-05
343.15	0.000368	6e-05
353.15	0.000329	4e-05
363.15	0.000294	4e-05
373.15	0.000261	4e-05

System: 4-methyloctane; phases: Liquid
Fixed: Pressure, kPa = 101.325
Property: Speed of sound, m/s (Liquid); method: Pulse-echo method
Temperature, K	Speed of sound, m/s	uncertainty
283.15	1254.9	1.5
293.15	1213	1.5
303.15	1171.6	1.5
313.15	1130.8	1.5
323.15	1090.7	1.5

System: 2-methylnonane; phases: Liquid
Fixed: Pressure, kPa = 101.325
Property: Mass density, kg/m3 (Liquid); method: Vibrating tube method
Temperature, K	Mass density, kg/m3	uncertainty
283.15	734.7	0.4
293.15	727.1	0.4
303.15	719.4	0.4
313.15	711.7	0.4
323.15	703.9	0.4
333.15	696	0.4
343.15	688.1	0.4
353.15	680.2	0.4
363.15	672.1	0.4
373.15	664	0.4
283.15	734.5	0.3
293.15	726.9	0.3
303.15	719.3	0.3
313.15	711.6	0.3
323.15	703.9	0.3

System: 2-methylnonane; phases: Liquid
Fixed: Pressure, kPa = 101.325
Property: Viscosity, Pa*s (Liquid); method: Concentric cylinders viscometry
Temperature, K	Viscosity, Pa*s	uncertainty
283.15	0.001037	2.2e-05
293.15	0.000887	2e-05
303.15	0.000768	1.7e-05
313.15	0.000653	1.5e-05
323.15	0.000595	1.3e-05
333.15	0.000529	1.2e-05
343.15	0.000475	1.1e-05
353.15	0.000428	1e-05
363.15	0.000388	9e-06
373.15	0.000355	9e-06

System: 2-methylnonane; phases: Liquid
Fixed: Pressure, kPa = 101.325
Property: Speed of sound, m/s (Liquid); method: Pulse-echo method
Temperature, K	Speed of sound, m/s	uncertainty
283.15	1271.4	1.5
293.15	1231.1	1.5
303.15	1191.3	1.5
313.15	1152	1.5
323.15	1113.4	1.5

System: 2-methyldecane; phases: Liquid
Fixed: Pressure, kPa = 101.325
Property: Mass density, kg/m3 (Liquid); method: Vibrating tube method
Temperature, K	Mass density, kg/m3	uncertainty
283.15	745.7	0.3
293.15	738.3	0.3
303.15	730.9	0.3
313.15	723.2	0.3
323.15	715.7	0.3
333.15	708.1	0.3
343.15	700.5	0.3
353.15	692.8	0.4
363.15	684.9	0.4
373.15	677	0.4
283.15	745.8	0.3
293.15	738.4	0.3
303.15	730.9	0.3
313.15	723.5	0.3
323.15	715.9	0.3

System: 2-methyldecane; phases: Liquid
Fixed: Pressure, kPa = 101.325
Property: Viscosity, Pa*s (Liquid); method: Concentric cylinders viscometry
Temperature, K	Viscosity, Pa*s	uncertainty
283.15	0.00137	2e-05
293.15	0.00115	4e-05
303.15	0.000977	2.1e-05
313.15	0.00083	1.7e-05
323.15	0.000736	1.5e-05
333.15	0.000647	1.7e-05
343.15	0.000575	1.7e-05
353.15	0.000514	1.5e-05
363.15	0.000464	1.3e-05
373.15	0.000422	1.1e-05

System: 2-methyldecane; phases: Liquid
Fixed: Pressure, kPa = 101.325
Property: Speed of sound, m/s (Liquid); method: Pulse-echo method
Temperature, K	Speed of sound, m/s	uncertainty
283.15	1295.5	1.3
293.15	1256.2	1.3
303.15	1217.1	1.3
313.15	1178.8	1.3
323.15	1141	1.3

System: 3-methylundecane; phases: Liquid
Fixed: Pressure, kPa = 101.325
Property: Mass density, kg/m3 (Liquid); method: Vibrating tube method
Temperature, K	Mass density, kg/m3	uncertainty
283.15	758.6	0.6
293.15	751.3	0.6
303.15	744	0.6
313.15	736.7	0.6
323.15	729.3	0.6
333.15	721.9	0.6
343.15	714.4	0.6
353.15	707	0.6
363.15	699.4	0.6
373.15	691.9	0.6
283.15	758.3	0.6
293.15	751.1	0.6
303.15	743.9	0.6
313.15	736.6	0.6
323.15	729.3	0.6

System: 3-methylundecane; phases: Liquid
Fixed: Pressure, kPa = 101.325
Property: Viscosity, Pa*s (Liquid); method: Concentric cylinders viscometry
Temperature, K	Viscosity, Pa*s	uncertainty
283.15	0.00173	3e-05
293.15	0.00143	3e-05
303.15	0.0012	2e-05
313.15	0.00101	2e-05
323.15	0.000883	2.1e-05
333.15	0.000771	1.9e-05
343.15	0.00068	1.7e-05
353.15	0.000605	1.4e-05
363.15	0.000543	1.2e-05
373.15	0.000492	1.2e-05

System: 3-methylundecane; phases: Liquid
Fixed: Pressure, kPa = 101.325
Property: Speed of sound, m/s (Liquid); method: Pulse-echo method
Temperature, K	Speed of sound, m/s	uncertainty
283.15	1330.2	2.3
293.15	1291	2.3
303.15	1252.2	2.3
313.15	1214	2.3
323.15	1176.6	2.3

System: 3,5-dimethylheptane; phases: Liquid
Fixed: Pressure, kPa = 101.325
Property: Mass density, kg/m3 (Liquid); method: Vibrating tube method
Temperature, K	Mass density, kg/m3	uncertainty
283.15	734.1	0.5
293.15	726.3	0.5
303.15	718.4	0.5
313.15	710.5	0.5
323.15	702.5	0.5
333.15	694.5	0.5
343.15	686.3	0.5
353.15	678	0.5
363.15	669.7	0.5
373.15	661.2	0.5
283.15	734	0.4
293.15	726.2	0.4
303.15	718.4	0.4
313.15	710.5	0.4
323.15	702.5	0.4

System: 3,5-dimethylheptane; phases: Liquid
Fixed: Pressure, kPa = 101.325
Property: Viscosity, Pa*s (Liquid); method: Concentric cylinders viscometry
Temperature, K	Viscosity, Pa*s	uncertainty
283.15	0.000792	1.8e-05
293.15	0.000688	1.6e-05
303.15	0.000604	1.4e-05
313.15	0.000508	1.2e-05
323.15	0.000477	1.2e-05
333.15	0.000428	1e-05
343.15	0.000386	1e-05
353.15	0.00035	1e-05
363.15	0.000319	8e-06

System: 3,5-dimethylheptane; phases: Liquid
Fixed: Pressure, kPa = 101.325
Property: Speed of sound, m/s (Liquid); method: Pulse-echo method
Temperature, K	Speed of sound, m/s	uncertainty
283.15	1245.1	1.9
293.15	1203.3	1.9
303.15	1162	1.9
313.15	1121.3	1.9
323.15	1081.4	1.9

System: 3,6-dimethyloctane; phases: Liquid
Fixed: Pressure, kPa = 101.325
Property: Mass density, kg/m3 (Liquid); method: Vibrating tube method
Temperature, K	Mass density, kg/m3	uncertainty
283.15	746.6	0.4
293.15	738.9	0.4
303.15	731.1	0.4
313.15	723.3	0.4
323.15	715.5	0.4
333.15	707.6	0.4
343.15	699.6	0.4
353.15	691.5	0.4
363.15	683.3	0.4
373.15	674.9	0.5
283.15	746.6	0.5
293.15	738.9	0.5
303.15	731.2	0.5
313.15	723.5	0.6
323.15	715.7	0.6

System: 3,6-dimethyloctane; phases: Liquid
Fixed: Pressure, kPa = 101.325
Property: Viscosity, Pa*s (Liquid); method: Concentric cylinders viscometry
Temperature, K	Viscosity, Pa*s	uncertainty
283.15	0.000988	2.2e-05
293.15	0.000846	1.8e-05
303.15	0.000733	1.6e-05
313.15	0.00062	1.4e-05
323.15	0.000568	1.4e-05
333.15	0.000506	1.2e-05
343.15	0.000453	1e-05
353.15	0.000409	1e-05
363.15	0.000372	1e-05
373.15	0.000328	8e-06

System: 3,6-dimethyloctane; phases: Liquid
Fixed: Pressure, kPa = 101.325
Property: Speed of sound, m/s (Liquid); method: Pulse-echo method
Temperature, K	Speed of sound, m/s	uncertainty
283.15	1277.8	1.7
293.15	1236.7	1.7
303.15	1196.2	1.7
313.15	1156.3	1.9
323.15	1117.2	1.7

System: 2-methylpentadecane; phases: Liquid
Fixed: Pressure, kPa = 101.325
Property: Mass density, kg/m3 (Liquid); method: Vibrating tube method
Temperature, K	Mass density, kg/m3	uncertainty
283.15	782.2	4.9
293.15	775	4.9
303.15	768	4.8
313.15	761	4.7
323.15	754	4.6
333.15	747	4.5
343.15	740	4.5
353.15	733	4.4
363.15	726	4.3
373.15	718.9	4.2
283.15	781.8	4.9
293.15	774.9	4.9
303.15	767.9	4.8
313.15	761	4.7
323.15	754.1	4.6

System: 2-methylpentadecane; phases: Liquid
Fixed: Pressure, kPa = 101.325
Property: Viscosity, Pa*s (Liquid); method: Concentric cylinders viscometry
Temperature, K	Viscosity, Pa*s	uncertainty
283.15	0.0046	0.00029
293.15	0.00352	0.00024
303.15	0.00277	0.00016
313.15	0.00224	0.00016
323.15	0.00185	0.00011
333.15	0.00155	8e-05
343.15	0.00133	6e-05
353.15	0.00114	7e-05
363.15	0.001	5e-05
373.15	0.00088	3e-05

System: 2-methylpentadecane; phases: Liquid
Fixed: Pressure, kPa = 101.325
Property: Speed of sound, m/s (Liquid); method: Pulse-echo method
Temperature, K	Speed of sound, m/s	uncertainty
283.15	1378.7	6.1
293.15	1341	6.1
303.15	1303.8	6.1
313.15	1267.3	6.1
323.15	1231.6	6.1

System: 7-methylhexadecane; phases: Liquid
Fixed: Pressure, kPa = 101.325
Property: Mass density, kg/m3 (Liquid); method: Vibrating tube method
Temperature, K	Mass density, kg/m3	uncertainty
283.15	787.6	0.6
293.15	780.7	0.6
303.15	773.8	0.6
313.15	766.9	0.6
323.15	760	0.6
333.15	753.1	0.6
343.15	746.2	0.6
353.15	739.3	0.6
363.15	732.4	0.6
373.15	725.4	0.6
283.15	787.6	0.6
293.15	780.7	0.6
303.15	773.9	0.6
313.15	767	0.6
323.15	760.2	0.6

System: 7-methylhexadecane; phases: Liquid
Fixed: Pressure, kPa = 101.325
Property: Viscosity, Pa*s (Liquid); method: Concentric cylinders viscometry
Temperature, K	Viscosity, Pa*s	uncertainty
283.15	0.00536	0.00052
293.15	0.004	0.0004
303.15	0.00309	0.00028
313.15	0.00247	0.00022
323.15	0.002	0.00018
333.15	0.00166	0.00016
343.15	0.00141	0.00012
353.15	0.00121	8e-05
363.15	0.00105	8e-05
373.15	0.00091	5e-05

System: 7-methylhexadecane; phases: Liquid
Fixed: Pressure, kPa = 101.325
Property: Speed of sound, m/s (Liquid); method: Pulse-echo method
Temperature, K	Speed of sound, m/s	uncertainty
283.15	1392.5	2.3
293.15	1354.9	2.3
303.15	1317.7	2.3
313.15	1281.3	2.3
323.15	1245.5	2.3
