Measured thermophysical data. Measurement and Correlation of the Solubility of Disodium 4,4?-Dinitrostilbene-2,2?-disulfonate in Aqueous Organic Solutions
Source: J. Chem. Eng. Data, 2013, 10.1021/je400064r
Compound 1: sodium 6,6'-(ethene-1,2-diyl)bis(3-nitrobenzenesulfonate), C14H8N2Na2O10S2, InChI=1S/C14H10N2O10S2.2Na/c17-15(18)11-5-3-9(13(7-11)27(21,22)23)1-2-10-4-6-12(16(19)20)8-14(10)28(24,25)26;;/h1-8H,(H,21,22,23)(H,24,25,26);;/q;2*+1/p-2
Compound 2: water, H2O, InChI=1S/H2O/h1H2
Compound 3: ethanol, C2H6O, InChI=1S/C2H6O/c1-2-3/h3H,2H2,1H3, purity 99.7%
Compound 4: diethylene glycol, C4H10O3, InChI=1S/C4H10O3/c5-1-3-7-4-2-6/h5-6H,1-4H2, purity 99%

System: ethanol + sodium 6,6'-(ethene-1,2-diyl)bis(3-nitrobenzenesulfonate) + water; phases: Liquid mixture 1, Crystal
Fixed: Pressure, kPa = 101
Property: Solid-liquid equilibrium temperature, K (Liquid mixture 1); method: VISOBS
Solvent: Mole fraction of ethanol	Mole fraction of sodium 6,6'-(ethene-1,2-diyl)bis(3-nitrobenzenesulfonate)	Solid-liquid equilibrium temperature, K	uncertainty
0	0.001299	284.85	0.83
0	0.001696	290.35	0.79
0	0.001973	293.05	0.75
0	0.002278	296.45	0.69
0	0.003023	301.45	0.67
0	0.00353	304.55	0.67
0	0.003937	307.75	0.67
0	0.004336	309.85	0.64
0	0.004984	312.05	0.64
0	0.005951	316.25	0.64
0	0.006744	319.25	0.63
0	0.00756	321.95	0.63
0.0416	0.0009654	283.45	0.9
0.0416	0.001123	286.05	0.73
0.0416	0.001271	288.35	0.84
0.0416	0.001462	290.75	0.9
0.0416	0.001645	293.35	0.79
0.0416	0.001868	295.85	0.7
0.0416	0.002219	298.65	0.67
0.0416	0.002488	300.75	0.67
0.0416	0.002828	302.75	0.66
0.0416	0.003188	304.95	0.69
0.0416	0.003379	306.65	0.66
0.0416	0.003776	308.85	0.64
0.0416	0.004529	311.55	0.64
0.0416	0.005306	314.75	0.64
0.1434	0.0007205	283.75	0.65
0.1434	0.0009719	285.45	0.69
0.1434	0.001217	288.15	0.78
0.1434	0.001573	292.55	0.77
0.1434	0.001945	296.35	0.72
0.1434	0.002346	299.75	0.69
0.1434	0.002833	303.15	0.68
0.1434	0.003513	307.95	0.67
0.1434	0.003923	309.95	0.64
0.1434	0.004484	312.35	0.64
0.1434	0.005099	314.75	0.65
0.2809	0.001148	286.65	0.65
0.2809	0.001428	290.55	0.96
0.2809	0.001628	293.35	0.69
0.2809	0.002069	297.65	0.71
0.2809	0.00234	300.35	0.72
0.2809	0.002607	302.65	0.86
0.2809	0.002892	305.45	0.66
0.2809	0.003187	307.75	0.69
0.2809	0.003634	311.25	0.65
0.2809	0.004547	315.15	0.65
0.2809	0.005067	318.15	0.66
0.2809	0.005609	321.35	0.66
0.4767	0.0005517	283.15	2.63
0.4767	0.0007256	286.85	1.5
0.4767	0.000905	290.45	1.03
0.4767	0.001068	293.95	0.96
0.4767	0.001289	297.55	0.9
0.4767	0.001483	300.75	0.86
0.4767	0.001774	304.85	0.87
0.4767	0.001882	306.95	0.94
0.4767	0.001981	308.55	0.87
0.4767	0.002322	313.75	0.88
0.4767	0.002481	316.45	0.85
0.4767	0.002711	319.45	0.88
0.4767	0.002824	322.05	1.11
0.7779	4.393e-05	283.45	4.68
0.7779	8.059e-05	286.05	6.23
0.7779	0.0001232	292.65	7.5
0.7779	0.0001349	295.95	7.43
0.7779	0.0001558	300.35	7.4
0.7779	0.0001903	306.35	7.86
0.7779	0.0002115	310.15	7
0.7779	0.0002194	313.85	7.11
0.7779	0.0002374	316.05	8.26
0.7779	0.0002625	318.95	4.77

System: diethylene glycol + sodium 6,6'-(ethene-1,2-diyl)bis(3-nitrobenzenesulfonate) + water; phases: Liquid, Crystal
Fixed: Pressure, kPa = 101
Property: Solid-liquid equilibrium temperature, K (Liquid); method: VISOBS
Solvent: Mole fraction of diethylene glycol	Mole fraction of sodium 6,6'-(ethene-1,2-diyl)bis(3-nitrobenzenesulfonate)	Solid-liquid equilibrium temperature, K	uncertainty
0.0407	0.001558	283.07	0.75
0.0407	0.001815	285.8	0.8
0.0407	0.002213	290.3	0.7
0.0407	0.002589	293.85	0.73
0.0407	0.002975	297.85	0.67
0.0407	0.003411	299.55	0.65
0.0407	0.003893	302.45	0.65
0.0407	0.005037	308.5	0.7
0.0407	0.005723	311.85	0.64
0.0407	0.006447	314.25	0.63
0.0407	0.007507	317.15	0.63
0.0407	0.00842	320.05	0.63
0.1016	0.0022567	281.85	0.72
0.1016	0.002496	284.05	0.71
0.1016	0.002759	286.25	0.69
0.1016	0.00327	290.1	0.7
0.1016	0.004017	296.05	0.67
0.1016	0.004516	298	0.6
0.1016	0.005087	300.5	0.6
0.1016	0.006414	304.85	0.63
0.1016	0.007482	308.75	0.63
0.1016	0.008439	311.9	0.6
0.1016	0.009624	315.05	0.63
0.1016	0.01093	318.45	0.62
0.1016	0.01222	321.45	0.62
0.2028	0.004673	286.35	0.74
0.2028	0.005082	290.55	0.68
0.2028	0.005697	293.65	0.65
0.2028	0.00629	296.65	0.65
0.2028	0.006937	299.75	0.65
0.2028	0.008048	305.15	0.65
0.2028	0.008587	308.95	0.65
0.2028	0.00933	311.65	0.63
0.2028	0.01012	314.55	0.63
0.2028	0.01093	317.55	0.63
0.2028	0.01211	320.6	0.6
0.2835	0.005413	283.85	0.71
0.2835	0.005742	286.75	0.7
0.2835	0.006125	289.65	0.68
0.2835	0.006529	292.45	0.66
0.2835	0.007408	297.35	0.66
0.2835	0.008207	302.05	0.66
0.2835	0.008695	304.75	0.65
0.2835	0.009485	308.35	0.65
0.2835	0.01006	311.55	0.65
0.2835	0.01084	314.95	0.64
0.2835	0.01156	317.95	0.64
0.2835	0.01222	320.75	0.64
0.4041	0.006594	283.05	0.68
0.4041	0.007111	286.65	0.68
0.4041	0.00754	289.95	0.7
0.4041	0.00809	294.75	0.7
0.4041	0.008536	298.05	0.68
0.4041	0.008825	299.95	0.69
0.4041	0.009174	303.05	0.67
0.4041	0.00979	306.65	0.65
0.4041	0.01035	309.15	0.66
0.4041	0.01061	311.65	0.68
0.4041	0.011	313.85	0.66
0.4041	0.01156	317.05	0.66
0.4041	0.01183	318.45	0.65
0.4041	0.01221	320.55	0.65

System: sodium 6,6'-(ethene-1,2-diyl)bis(3-nitrobenzenesulfonate) + water; phases: Liquid mixture 1, Crystal
Fixed: Pressure, kPa = 101
Property: Solid-liquid equilibrium temperature, K (Liquid mixture 1); method: VISOBS
Mole fraction of sodium 6,6'-(ethene-1,2-diyl)bis(3-nitrobenzenesulfonate)	Solid-liquid equilibrium temperature, K	uncertainty
0.001299	284.85	0.83
0.001696	290.35	0.79
0.001973	293.05	0.75
0.002278	296.45	0.69
0.003023	301.45	0.67
0.00353	304.55	0.67
0.003937	307.75	0.67
0.004336	309.85	0.64
0.004984	312.05	0.64
0.005951	316.25	0.64
0.006744	319.25	0.63
0.00756	321.95	0.63
