Measured thermophysical data. Densities of Six Commercial Ionic Liquids: Experiments and Prediction Using a Cohesion Based Cubic Equation of State
Source: J. Chem. Eng. Data, 2014, 10.1021/je400231q
Compound 1: 1-ethyl-3-methylimidazolium methanesulfonate, C7H14N2O3S, InChI=1S/C6H11N2.CH4O3S/c1-3-8-5-4-7(2)6-8;1-5(2,3)4/h4-6H,3H2,1-2H3;1H3,(H,2,3,4)/q+1;/p-1, purity 95%
Compound 2: 1-ethyl-3-methylimidazolium acetate, C8H14N2O2, InChI=1S/C6H11N2.C2H4O2/c1-3-8-5-4-7(2)6-8;1-2(3)4/h4-6H,3H2,1-2H3;1H3,(H,3,4)/q+1;/p-1, purity 95%
Compound 3: 1-ethyl-3-methylimidazolium thiocyanate, C7H11N3S, InChI=1S/C6H11N2.CHNS/c1-3-8-5-4-7(2)6-8;2-1-3/h4-6H,3H2,1-2H3;3H/q+1;/p-1, purity 95%
Compound 4: 1-ethyl-3-methylimidazolium ethyl sulfate, C8H16N2O4S, InChI=1S/C6H11N2.C2H6O4S/c1-3-8-5-4-7(2)6-8;1-2-6-7(3,4)5/h4-6H,3H2,1-2H3;2H2,1H3,(H,3,4,5)/q+1;/p-1, purity 95%
Compound 5: tris(2-hydroxyethyl) methylammonium methylsulfate, C8H21NO7S, InChI=1S/C7H18NO3.CH4O4S/c1-8(2-5-9,3-6-10)4-7-11;1-5-6(2,3)4/h9-11H,2-7H2,1H3;1H3,(H,2,3,4)/q+1;/p-1, purity 95%
Compound 6: trihexyltetradecylphosphonium bis(2,4,4-trimethylpentyl)phosphinate, C48H102O2P2, InChI=1S/C32H68P.C16H35O2P/c1-5-9-13-17-18-19-20-21-22-23-24-28-32-33(29-25-14-10-6-2,30-26-15-11-7-3)31-27-16-12-8-4;1-13(9-15(3,4)5)11-19(17,18)12-14(2)10-16(6,7)8/h5-32H2,1-4H3;13-14H,9-12H2,1-8H3,(H,17,18)/q+1;/p-1, purity 95%

System: 1-ethyl-3-methylimidazolium methanesulfonate; phases: Liquid
Fixed: Pressure, kPa = 101.325
Property: Mass density, kg/m3 (Liquid); method: Vibrating tube method
Temperature, K	Mass density, kg/m3	uncertainty
293.15	1244.4	12.6
298.15	1240.9	12.6
303.15	1237.4	12.6
308.15	1233.9	12.5
313.15	1230.5	12.5
318.15	1227	12.5
323.15	1223.7	12.5
328.15	1220.3	12.4

System: 1-ethyl-3-methylimidazolium acetate; phases: Liquid
Fixed: Pressure, kPa = 101.325
Property: Mass density, kg/m3 (Liquid); method: Vibrating tube method
Temperature, K	Mass density, kg/m3	uncertainty
293.15	1101.5	11.7
298.15	1098.3	11.6
303.15	1095.1	11.6
308.15	1092	11.6
313.15	1088.9	11.6
318.15	1085.8	11.6
323.15	1082.8	11.6
328.15	1079.7	11.5

System: 1-ethyl-3-methylimidazolium thiocyanate; phases: Liquid
Fixed: Pressure, kPa = 101.325
Property: Mass density, kg/m3 (Liquid); method: Vibrating tube method
Temperature, K	Mass density, kg/m3	uncertainty
293.15	1119.2	11.8
298.15	1116.1	11.8
303.15	1113	11.7
308.15	1109.9	11.7
313.15	1106.9	11.7
318.15	1103.8	11.7
323.15	1100.8	11.7
328.15	1097.8	11.6

System: 1-ethyl-3-methylimidazolium ethyl sulfate; phases: Liquid
Fixed: Pressure, kPa = 101.325
Property: Mass density, kg/m3 (Liquid); method: Vibrating tube method
Temperature, K	Mass density, kg/m3	uncertainty
293.15	1236.7	12.6
298.15	1233.2	12.5
303.15	1229.8	12.5
308.15	1226.3	12.5
313.15	1222.9	12.5
318.15	1219.5	12.4
323.15	1216.2	12.4
328.15	1212.8	12.4

System: tris(2-hydroxyethyl) methylammonium methylsulfate; phases: Liquid
Fixed: Pressure, kPa = 101.325
Property: Mass density, kg/m3 (Liquid); method: Vibrating tube method
Temperature, K	Mass density, kg/m3	uncertainty
293.15	1347.2	13.5
298.15	1344.3	13.5
303.15	1341.4	13.4
308.15	1338.5	13.4
313.15	1335.7	13.4
318.15	1332.9	13.4
323.15	1330.2	13.3
328.15	1327.4	13.3

System: trihexyltetradecylphosphonium bis(2,4,4-trimethylpentyl)phosphinate; phases: Liquid
Fixed: Pressure, kPa = 101.325
Property: Mass density, kg/m3 (Liquid); method: Vibrating tube method
Temperature, K	Mass density, kg/m3	uncertainty
293.15	894	10.8
298.15	890.8	10.8
303.15	887.7	10.7
308.15	884.6	10.7
313.15	881.5	10.7
318.15	878.4	10.7
323.15	875.3	10.7
328.15	872.3	10.7
