Measured thermophysical data. Thermodynamics of Mixtures Containing a Very Strongly Polar Compound. 10. Liquid Liquid Equilibria for N,N-Dimethylacetamide + Selected Alkanes
Source: J. Chem. Eng. Data, 2013, 10.1021/je400487e
Compound 1: N,N-dimethylethanamide, C4H9NO, InChI=1S/C4H9NO/c1-4(6)5(2)3/h1-3H3, purity 99%
Compound 2: decane, C10H22, InChI=1S/C10H22/c1-3-5-7-9-10-8-6-4-2/h3-10H2,1-2H3, purity 99%
Compound 3: dodecane, C12H26, InChI=1S/C12H26/c1-3-5-7-9-11-12-10-8-6-4-2/h3-12H2,1-2H3, purity 99%
Compound 4: tetradecane, C14H30, InChI=1S/C14H30/c1-3-5-7-9-11-13-14-12-10-8-6-4-2/h3-14H2,1-2H3, purity 99%
Compound 5: methylcyclohexane, C7H14, InChI=1S/C7H14/c1-7-5-3-2-4-6-7/h7H,2-6H2,1H3, purity 99%
Compound 6: cyclooctane, C8H16, InChI=1S/C8H16/c1-2-4-6-8-7-5-3-1/h1-8H2, purity 99%
Compound 7: 2,2,4-trimethylpentane, C8H18, InChI=1S/C8H18/c1-7(2)6-8(3,4)5/h7H,6H2,1-5H3, purity 99%

System: N,N-dimethylethanamide; phases: Liquid
Property: Mass density, kg/m3 (Liquid); method: Vibrating tube method
Temperature, K	Pressure, kPa	Mass density, kg/m3	uncertainty
298.15	101.325	936.88	0.26

System: decane; phases: Liquid
Property: Mass density, kg/m3 (Liquid); method: Vibrating tube method
Temperature, K	Pressure, kPa	Mass density, kg/m3	uncertainty
298.15	101.325	726.43	0.26

System: dodecane; phases: Liquid
Property: Mass density, kg/m3 (Liquid); method: Vibrating tube method
Temperature, K	Pressure, kPa	Mass density, kg/m3	uncertainty
298.15	101.325	741.54	0.26

System: tetradecane; phases: Liquid
Property: Mass density, kg/m3 (Liquid); method: Vibrating tube method
Temperature, K	Pressure, kPa	Mass density, kg/m3	uncertainty
298.15	101.325	759.27	0.26

System: methylcyclohexane; phases: Liquid
Property: Mass density, kg/m3 (Liquid); method: Vibrating tube method
Temperature, K	Pressure, kPa	Mass density, kg/m3	uncertainty
298.15	101.325	764.86	0.26

System: cyclooctane; phases: Liquid
Property: Mass density, kg/m3 (Liquid); method: Vibrating tube method
Temperature, K	Pressure, kPa	Mass density, kg/m3	uncertainty
298.15	101.325	831.87	0.26

System: 2,2,4-trimethylpentane; phases: Liquid
Property: Mass density, kg/m3 (Liquid); method: Vibrating tube method
Temperature, K	Pressure, kPa	Mass density, kg/m3	uncertainty
298.15	101.325	687.77	0.26

System: decane + N,N-dimethylethanamide; phases: Liquid mixture 1, Liquid mixture 2
Fixed: Pressure, kPa = 101
Property: Liquid-liquid equilibrium temperature, K (Liquid mixture 1); method: VISOBS
Mole fraction of N,N-dimethylethanamide	Liquid-liquid equilibrium temperature, K	uncertainty
0.3549	320.66	0.17
0.3699	320.99	0.18
0.3854	321.97	0.21
0.3886	322.35	0.18
0.3912	322.09	0.2
0.4077	323.1	0.18
0.438	323.63	0.19
0.4403	323.79	0.19
0.4522	324.02	0.17
0.4567	324.04	0.17
0.4689	324.22	0.17
0.4721	324.22	0.17
0.4999	324.55	0.17
0.5038	324.46	0.17
0.5057	324.57	0.18
0.526	324.59	0.17
0.5486	324.64	0.17
0.571	324.6	0.17
0.5987	324.64	0.18
0.6011	324.56	0.18
0.6126	324.54	0.17
0.6404	324.51	0.17
0.6895	324.14	0.17
0.697	324.08	0.17
0.7025	323.92	0.18
0.7252	323.54	0.17
0.7348	323.13	0.18
0.7481	322.7	0.18
0.7618	321.99	0.18
0.7735	321.35	0.18

System: dodecane + N,N-dimethylethanamide; phases: Liquid mixture 1, Liquid mixture 2
Fixed: Pressure, kPa = 101
Property: Liquid-liquid equilibrium temperature, K (Liquid mixture 1); method: VISOBS
Mole fraction of N,N-dimethylethanamide	Liquid-liquid equilibrium temperature, K	uncertainty
0.4013	329.63	0.18
0.4091	329.87	0.18
0.4323	331.11	0.18
0.4556	331.86	0.18
0.4699	332.17	0.17
0.5147	333.15	0.17
0.5305	333.31	0.17
0.5511	333.69	0.17
0.5805	334	0.17
0.6083	334.34	0.17
0.6218	334.32	0.21
0.6229	334.19	0.21
0.646	334.33	0.17
0.6559	334.32	0.17
0.6986	334.21	0.17
0.7072	334.2	0.17
0.7166	334.11	0.17
0.7382	334	0.17
0.7509	333.81	0.18
0.7799	332.97	0.18
0.7974	332.48	0.18
0.8079	331.85	0.18
0.8157	331.36	0.19
0.8282	330.33	0.2
0.8532	327.98	0.2

System: N,N-dimethylethanamide + tetradecane; phases: Liquid mixture 1, Liquid mixture 2
Fixed: Pressure, kPa = 101
Property: Liquid-liquid equilibrium temperature, K (Liquid mixture 1); method: VISOBS
Mole fraction of N,N-dimethylethanamide	Liquid-liquid equilibrium temperature, K	uncertainty
0.517	339.78	0.18
0.5359	340.39	0.18
0.5724	341.84	0.18
0.5841	342.03	0.17
0.622	342.77	0.17
0.6598	342.87	0.17
0.6773	342.91	0.17
0.7197	342.82	0.17
0.734	342.81	0.17
0.748	342.67	0.17
0.7687	342.3	0.17
0.7934	341.81	0.17
0.8111	341.35	0.18
0.8245	340.55	0.18
0.8459	339.83	0.18

System: methylcyclohexane + N,N-dimethylethanamide; phases: Liquid mixture 1, Liquid mixture 2
Fixed: Pressure, kPa = 101
Property: Liquid-liquid equilibrium temperature, K (Liquid mixture 1); method: VISOBS
Mole fraction of N,N-dimethylethanamide	Liquid-liquid equilibrium temperature, K	uncertainty
0.3195	307.27	0.18
0.3376	307.99	0.18
0.3432	308.06	0.18
0.3571	308.58	0.18
0.3606	308.5	0.17
0.365	308.6	0.17
0.3829	308.9	0.17
0.3949	309.09	0.17
0.3971	309.07	0.17
0.4077	309.22	0.17
0.4157	309.2	0.17
0.4208	309.24	0.17
0.4345	309.19	0.17
0.4471	309.24	0.17
0.458	309.17	0.17
0.4761	309.18	0.19
0.4776	309.28	0.17
0.482	309.2	0.17
0.5108	309.11	0.17
0.5335	308.93	0.17
0.5365	309	0.17
0.5526	308.96	0.17
0.5552	308.9	0.17
0.5708	308.87	0.17
0.5748	308.88	0.17
0.5869	308.76	0.17
0.5909	308.78	0.17
0.6084	308.59	0.17
0.6415	308.26	0.17
0.6449	308.18	0.18
0.6571	307.62	0.18
0.6742	307.06	0.18
0.6973	306.1	0.18
0.7176	304.88	0.18

System: N,N-dimethylethanamide + cyclooctane; phases: Liquid mixture 1, Liquid mixture 2
Fixed: Pressure, kPa = 101
Property: Liquid-liquid equilibrium temperature, K (Liquid mixture 1); method: VISOBS
Mole fraction of N,N-dimethylethanamide	Liquid-liquid equilibrium temperature, K	uncertainty
0.287	298.41	0.17
0.3025	298.53	0.17
0.3115	298.86	0.17
0.3295	299.11	0.17
0.3427	299.27	0.17
0.3466	299.29	0.17
0.3626	299.33	0.17
0.3706	299.33	0.17
0.3874	299.35	0.17
0.4044	299.32	0.17
0.4086	299.35	0.17
0.4116	299.36	0.17
0.4298	299.27	0.17
0.4354	299.38	0.17
0.4558	299.3	0.17
0.4559	299.24	0.17
0.4801	299.18	0.17
0.4809	299.16	0.17
0.5009	299.16	0.17
0.5245	298.98	0.17
0.5327	298.95	0.17
0.5337	299.07	0.17
0.5413	298.72	0.18
0.5456	298.73	0.17
0.5528	298.69	0.17
0.5695	298.51	0.17
0.5793	298.23	0.17
0.5947	297.98	0.18
0.5982	297.87	0.17
0.6008	297.88	0.17
0.6173	297.31	0.18
0.6283	297.03	0.18
0.6348	296.79	0.18

System: N,N-dimethylethanamide + 2,2,4-trimethylpentane; phases: Liquid mixture 1, Liquid mixture 2
Fixed: Pressure, kPa = 101
Property: Liquid-liquid equilibrium temperature, K (Liquid mixture 1); method: VISOBS
Mole fraction of N,N-dimethylethanamide	Liquid-liquid equilibrium temperature, K	uncertainty
0.2533	289.38	0.18
0.2627	289.91	0.18
0.2853	290.26	0.17
0.3011	290.46	0.17
0.3123	290.56	0.17
0.3143	290.54	0.17
0.3241	290.67	0.17
0.3376	290.69	0.17
0.3539	290.72	0.17
0.371	290.75	0.17
0.3717	290.61	0.17
0.3807	290.64	0.17
0.4076	290.62	0.18
0.4107	290.53	0.17
0.4127	290.61	0.18
0.4236	290.62	0.17
0.4357	290.54	0.17
0.4447	290.56	0.17
0.4456	290.52	0.17
0.4596	290.51	0.17
0.481	290.56	0.17
0.5034	290.51	0.2
0.5046	290.39	0.2
0.5214	290.47	0.17
0.5414	290.16	0.17
0.5631	289.61	0.17
0.5813	289.38	0.17
0.5936	288.93	0.18
0.6018	288.58	0.18
0.6198	288.15	0.18
0.6481	286.86	0.18
0.703	283.25	0.19
