Measured thermophysical data. Thermophysical Properties of Furfural Compounds
Source: J. Chem. Eng. Data, 2014, 10.1021/je400783h
Compound 1: 5-methylfurfural, C6H6O2, InChI=1S/C6H6O2/c1-5-2-3-6(4-7)8-5/h2-4H,1H3, purity 99%
Compound 2: 2-tetrahydrofurylmethanol, C5H10O2, InChI=1S/C5H10O2/c6-4-5-2-1-3-7-5/h5-6H,1-4H2, purity 99%

System: 5-methylfurfural; phases: Liquid
Property: Mass density, kg/m3 (Liquid); method: VIBTUB:UFactor:4
Temperature, K	Pressure, kPa	Mass density, kg/m3	uncertainty
283.15	100	1118.02	0.56
288.15	100	1113.09	0.55
293.15	100	1108.15	0.54
298.15	100	1103.2	0.53
303.15	100	1098.25	0.53
308.15	100	1093.29	0.51
313.15	100	1088.32	0.5
318.15	100	1083.33	0.49
323.15	100	1078.33	0.48
328.15	100	1073.32	0.48
333.15	100	1068.3	0.46
338.15	100	1063.25	0.46
283.15	2500	1119.83	0.61
288.15	2500	1114.82	0.6
293.15	2500	1110.03	0.58
298.15	2500	1104.82	0.57
303.15	2500	1100.71	1
308.15	2500	1095.01	0.55
313.15	2500	1090.31	0.54
318.15	2500	1085.42	0.53
323.15	2500	1080.39	0.52
328.15	2500	1075.43	0.51
333.15	2500	1070.05	0.49
338.15	2500	1065.43	0.48
283.15	5000	1121.37	0.66
288.15	5000	1116.39	0.64
293.15	5000	1111.5	0.63
298.15	5000	1106.62	0.62
303.15	5000	1101.81	0.6
308.15	5000	1096.9	0.59
313.15	5000	1092.06	0.58
318.15	5000	1087.05	0.56
323.15	5000	1082.17	0.55
328.15	5000	1077.24	0.54
333.15	5000	1072.29	0.53
338.15	5000	1067.33	0.51
283.15	7500	1122.65	0.71
288.15	7500	1117.87	0.69
293.15	7500	1112.96	0.68
298.15	7500	1108.34	0.66
303.15	7500	1103.11	0.65
308.15	7500	1098.15	0.63
313.15	7500	1093.64	0.62
318.15	7500	1088.71	0.6
323.15	7500	1083.95	0.59
328.15	7500	1079.03	0.57
333.15	7500	1074.1	0.56
338.15	7500	1069.06	0.54
283.15	10000	1124.02	0.76
288.15	10000	1119.23	0.74
293.15	10000	1114.4	0.73
298.15	10000	1109.63	0.71
303.15	10000	1104.89	0.69
308.15	10000	1100.06	0.68
313.15	10000	1095.27	0.66
318.15	10000	1090.41	0.64
323.15	10000	1085.56	0.63
328.15	10000	1080.7	0.61
333.15	10000	1075.84	0.59
338.15	10000	1070.99	0.58
283.15	20000	1129.41	0.98
288.15	20000	1124.75	0.96
293.15	20000	1120.15	0.93
298.15	20000	1115.43	0.91
303.15	20000	1110.81	0.88
308.15	20000	1106.17	0.86
313.15	20000	1101.5	0.84
318.15	20000	1096.72	0.81
323.15	20000	1092.07	0.79
328.15	20000	1087.38	0.77
333.15	20000	1082.66	0.74
338.15	20000	1077.96	0.72
283.15	30000	1134.53	1.21
288.15	30000	1129.99	1.18
293.15	30000	1125.46	1.15
298.15	30000	1120.97	1.12
303.15	30000	1116.44	1.09
308.15	30000	1111.86	1.06
313.15	30000	1107.37	1.03
318.15	30000	1102.74	1
323.15	30000	1098.22	0.97
328.15	30000	1093.64	0.94
333.15	30000	1089.1	0.91
338.15	30000	1084.52	0.88
283.15	40000	1139.44	1.46
288.15	40000	1134.99	1.43
293.15	40000	1130.57	1.39
298.15	40000	1126.15	1.35
303.15	40000	1121.72	1.32
308.15	40000	1117.24	1.28
313.15	40000	1112.86	1.24
318.15	40000	1108.39	1.21
323.15	40000	1104.01	1.17
328.15	40000	1099.55	1.14
333.15	40000	1095.12	1.1
338.15	40000	1090.69	1.06
283.15	50000	1144.14	1.72
288.15	50000	1139.79	1.68
293.15	50000	1135.4	1.64
298.15	50000	1131.12	1.6
303.15	50000	1126.87	1.56
308.15	50000	1122.38	1.51
313.15	50000	1118.1	1.47
318.15	50000	1113.73	1.43
323.15	50000	1109.47	1.39
328.15	50000	1105.14	1.34
333.15	50000	1100.86	1.3
338.15	50000	1096.51	1.26
283.15	60000	1148.58	2
288.15	60000	1144.31	1.95
293.15	60000	1140.08	1.9
298.15	60000	1135.84	1.85
303.15	60000	1131.66	1.81
308.15	60000	1127.34	1.76
313.15	60000	1123.12	1.71
318.15	60000	1118.89	1.66
323.15	60000	1114.68	1.61
328.15	60000	1110.48	1.57
333.15	60000	1106.23	1.52
338.15	60000	1102.02	1.47

System: 5-methylfurfural; phases: Liquid
Fixed: Pressure, kPa = 101.325
Property: Speed of sound, m/s (Liquid); method: Pulse-echo method
Temperature, K	Speed of sound, m/s	uncertainty
278.15	1521.03	1.25
280.65	1511.82	1.25
283.15	1502.55	1.24
285.65	1493.23	1.24
288.15	1483.97	1.24
290.65	1474.72	1.24
293.15	1465.52	1.24
295.65	1456.28	1.23
298.15	1447.02	1.23
300.65	1437.84	1.23
303.15	1428.7	1.23
305.65	1419.57	1.23
308.15	1410.46	1.22
310.65	1401.41	1.22
313.15	1392.34	1.22
315.65	1383.28	1.22
318.15	1374.29	1.22
320.65	1365.29	1.21
323.15	1356.09	1.21
325.65	1347.33	1.21
328.15	1338.36	1.21
330.65	1329.45	1.21
333.15	1320.54	1.2
335.65	1311.63	1.2
338.15	1302.77	1.2

System: 5-methylfurfural; phases: Liquid
Fixed: Pressure, kPa = 101.325
Property: Mass density, kg/m3 (Liquid); method: Vibrating tube method
Temperature, K	Mass density, kg/m3	uncertainty
278.15	1122.936	0.343
280.65	1120.495	0.341
283.15	1118.023	0.34
285.65	1115.557	0.338
288.15	1113.091	0.336
290.65	1110.623	0.334
293.15	1108.153	0.332
295.65	1105.676	0.33
298.15	1103.203	0.328
300.65	1100.728	0.326
303.15	1098.25	0.324
305.65	1095.77	0.322
308.15	1093.288	0.32
310.65	1090.804	0.318
313.15	1088.316	0.316
315.65	1085.822	0.314
318.15	1083.329	0.313
320.65	1080.833	0.311
323.15	1078.332	0.309
325.65	1075.829	0.307
328.15	1073.322	0.305
330.65	1070.811	0.303
333.15	1068.296	0.301
335.65	1065.776	0.299
338.15	1063.252	0.297

System: 5-methylfurfural; phases: Liquid
Fixed: Pressure, kPa = 101.325
Property: Refractive index (Na D-line) (Liquid); method: Standard Abbe refractometry
Temperature, K	Refractive index (Na D-line)	uncertainty
283.15	1.536401	0.000369
285.65	1.535291	0.000369
288.15	1.533931	0.000369
290.65	1.532694	0.000369
293.15	1.531443	0.000369
295.65	1.530189	0.000369
298.15	1.528904	0.000369
300.65	1.527652	0.000369
303.15	1.5264	0.000369
305.65	1.525132	0.000369
308.15	1.523855	0.000369
310.65	1.522567	0.000369
313.15	1.521298	0.000369
315.65	1.52	0.000369
318.15	1.518716	0.000369
320.65	1.517421	0.000369
323.15	1.516145	0.000369
325.65	1.514857	0.000369
328.15	1.513565	0.000369
330.65	1.512288	0.000369
333.15	1.510996	0.000369
335.65	1.509721	0.000369
338.15	1.508422	0.000369

System: 5-methylfurfural; phases: Liquid, Gas
Property: Surface tension liquid-gas, N/m (Liquid); method: Drop volume
Temperature, K	Surface tension liquid-gas, N/m	uncertainty
278.15	0.04302	0.0003
280.65	0.04275	0.00029
283.15	0.04237	0.00029
285.65	0.04213	0.00029
288.15	0.0418	0.00029
290.65	0.04146	0.00029
293.15	0.0412	0.00029
295.65	0.0409	0.00029
298.15	0.04061	0.00028
300.65	0.04022	0.00028
303.15	0.03995	0.00028
305.65	0.03966	0.00028
308.15	0.03932	0.00028
310.65	0.03904	0.00028
313.15	0.03875	0.00027
315.65	0.03844	0.00027
318.15	0.03813	0.00027
320.65	0.03778	0.00027
323.15	0.03751	0.00027
325.65	0.03726	0.00027
328.15	0.03691	0.00027
330.65	0.03654	0.00026
333.15	0.03621	0.00026
335.65	0.03592	0.00026
338.15	0.03557	0.00026

System: 5-methylfurfural; phases: Liquid
Fixed: Pressure, kPa = 101.325
Property: Viscosity, Pa*s (Liquid); method: Capillary tube (Ostwald; Ubbelohde) method
Temperature, K	Viscosity, Pa*s	uncertainty
278.15	0.003164	6.7e-05
280.65	0.002974	6.3e-05
283.15	0.002764	5.9e-05
285.65	0.002628	5.6e-05
288.15	0.002443	5.2e-05
290.65	0.002297	4.9e-05
293.15	0.002175	4.6e-05
295.65	0.002056	4.4e-05
298.15	0.001948	4.1e-05
300.65	0.001853	3.9e-05
303.15	0.001757	3.7e-05
305.65	0.001674	3.6e-05
308.15	0.001598	3.4e-05
310.65	0.001527	3.3e-05
313.15	0.001461	3.1e-05
315.65	0.001402	3e-05
318.15	0.001345	2.9e-05
320.65	0.001292	2.8e-05
323.15	0.001241	2.6e-05
325.65	0.001202	2.6e-05
328.15	0.001151	2.5e-05
330.65	0.00111	2.4e-05
333.15	0.001072	2.3e-05
335.65	0.001039	2.2e-05
338.15	0.001002	2.1e-05

System: 5-methylfurfural; phases: Liquid
Fixed: Pressure, kPa = 101
Fixed: Frequency, MHz = 2
Property: Relative permittivity at various frequencies (Liquid); method: capacitive measurement method
Temperature, K	Relative permittivity at various frequencies	uncertainty
278.15	45.2	0.2
280.65	44.5	0.2
283.15	43.7	0.2
285.65	43	0.2
288.15	42.3	0.2
290.65	41.6	0.2
293.15	40.9	0.2
295.65	40.2	0.2
298.15	39.4	0.2
300.65	38.7	0.2
303.15	38	0.2
305.65	37.2	0.2
308.15	36.4	0.2
310.65	35.8	0.2
313.15	35.1	0.2
315.65	34.4	0.2
318.15	33.7	0.2
320.65	33.6	0.2
323.15	32.4	0.2
325.65	31.7	0.2
328.15	31.1	0.2
330.65	30.4	0.2
333.15	29.8	0.2
335.65	29.1	0.2
338.15	28.4	0.2

System: 5-methylfurfural; phases: Liquid, Gas
Property: Vapor or sublimation pressure, kPa (Liquid); method: Ebulliometric method (Recirculating still)
Temperature, K	Vapor or sublimation pressure, kPa	uncertainty
303.15	0.1	0.1
308.15	0.15	0.1
313.15	0.2	0.1
318.15	0.3	0.1
323.15	0.4	0.1
328.15	0.54	0.1
333.15	0.74	0.1
338.15	0.97	0.1
343.15	1.3	0.1
348.15	1.66	0.1
353.15	2.17	0.1
358.15	2.76	0.1
363.15	3.52	0.1
368.15	4.4	0.1
373.15	5.52	0.1
378.15	6.79	0.1
383.15	8.43	0.1
388.15	10.2	0.1
393.15	12.31	0.1
398.15	15	0.1
403.15	18	0.1
408.15	21.27	0.1
413.15	25.33	0.11
418.15	30.01	0.11
423.15	34.95	0.11
428.15	40.57	0.11
433.15	47.43	0.12
438.15	55.14	0.12
443.15	63.39	0.12
448.15	72.37	0.13
453.15	83.4	0.14

System: 2-tetrahydrofurylmethanol; phases: Liquid
Property: Mass density, kg/m3 (Liquid); method: VIBTUB:UFactor:4
Temperature, K	Pressure, kPa	Mass density, kg/m3	uncertainty
283.15	100	1062.84	0.45
288.15	100	1058.59	0.44
293.15	100	1054.34	0.43
298.15	100	1050.06	0.43
303.15	100	1045.78	0.42
308.15	100	1041.48	0.41
313.15	100	1037.17	0.4
318.15	100	1032.83	0.39
323.15	100	1028.47	0.39
328.15	100	1024.08	0.38
333.15	100	1019.68	0.37
338.15	100	1015.24	0.36
283.15	2500	1064.37	0.48
288.15	2500	1060.15	0.47
293.15	2500	1055.94	0.46
298.15	2500	1051.72	0.45
303.15	2500	1047.47	0.44
308.15	2500	1043.19	0.43
313.15	2500	1038.92	0.42
318.15	2500	1034.57	0.41
323.15	2500	1030.3	0.4
328.15	2500	1025.88	0.39
333.15	2500	1021.52	0.38
338.15	2500	1017.04	0.37
283.15	5000	1065.68	0.5
288.15	5000	1061.47	0.49
293.15	5000	1057.3	0.48
298.15	5000	1053.11	0.47
303.15	5000	1048.9	0.46
308.15	5000	1044.66	0.45
313.15	5000	1040.41	0.44
318.15	5000	1036.11	0.42
323.15	5000	1031.87	0.41
328.15	5000	1027.49	0.4
333.15	5000	1023.18	0.39
338.15	5000	1018.75	0.38
283.15	7500	1066.97	0.53
288.15	7500	1062.8	0.52
293.15	7500	1058.64	0.51
298.15	7500	1054.48	0.49
303.15	7500	1050.31	0.48
308.15	7500	1046.09	0.47
313.15	7500	1041.89	0.46
318.15	7500	1037.62	0.44
323.15	7500	1033.41	0.43
328.15	7500	1029.13	0.42
333.15	7500	1024.84	0.4
338.15	7500	1020.45	0.39
283.15	10000	1068.24	0.56
288.15	10000	1064.09	0.55
293.15	10000	1060	0.53
298.15	10000	1055.84	0.52
303.15	10000	1051.69	0.51
308.15	10000	1047.48	0.49
313.15	10000	1043.41	0.48
318.15	10000	1039.11	0.46
323.15	10000	1034.93	0.45
328.15	10000	1030.63	0.43
333.15	10000	1026.39	0.42
338.15	10000	1022.06	0.4
283.15	20000	1073.16	0.69
288.15	20000	1069.11	0.67
293.15	20000	1065.1	0.65
298.15	20000	1061.08	0.63
303.15	20000	1057.06	0.61
308.15	20000	1052.96	0.59
313.15	20000	1048.93	0.57
318.15	20000	1044.81	0.55
323.15	20000	1040.79	0.53
328.15	20000	1036.6	0.51
333.15	20000	1032.49	0.49
338.15	20000	1028.31	0.47
283.15	30000	1077.84	0.84
288.15	30000	1073.88	0.81
293.15	30000	1069.97	0.79
298.15	30000	1066.04	0.76
303.15	30000	1062.11	0.73
308.15	30000	1058.12	0.71
313.15	30000	1054.21	0.68
318.15	30000	1050.15	0.65
323.15	30000	1046.28	0.63
328.15	30000	1042.2	0.6
333.15	30000	1038.22	0.58
338.15	30000	1034.16	0.55
283.15	40000	1082.28	0.99
288.15	40000	1078.41	0.96
293.15	40000	1074.62	0.93
298.15	40000	1070.75	0.9
303.15	40000	1066.94	0.87
308.15	40000	1063.05	0.84
313.15	40000	1059.19	0.81
318.15	40000	1055.24	0.77
323.15	40000	1051.44	0.74
328.15	40000	1047.5	0.71
333.15	40000	1043.64	0.68
338.15	40000	1039.68	0.65
283.15	50000	1086.55	1.16
288.15	50000	1082.72	1.13
293.15	50000	1078.97	1.09
298.15	50000	1075.22	1.05
303.15	50000	1071.49	1.02
308.15	50000	1067.61	0.98
313.15	50000	1063.91	0.94
318.15	50000	1060.12	0.91
323.15	50000	1056.41	0.87
328.15	50000	1052.52	0.83
333.15	50000	1048.73	0.8
338.15	50000	1044.89	0.76
283.15	60000	1090.57	1.34
288.15	60000	1086.83	1.3
293.15	60000	1083.18	1.26
298.15	60000	1079.49	1.22
303.15	60000	1075.79	1.18
308.15	60000	1072.09	1.13
313.15	60000	1068.44	1.09
318.15	60000	1064.68	1.05
323.15	60000	1061.07	1.01
328.15	60000	1057.3	0.97
333.15	60000	1053.6	0.93
338.15	60000	1049.83	0.88

System: 2-tetrahydrofurylmethanol; phases: Liquid
Fixed: Pressure, kPa = 101.325
Property: Speed of sound, m/s (Liquid); method: Pulse-echo method
Temperature, K	Speed of sound, m/s	uncertainty
278.15	1556.44	1.26
280.65	1547.59	1.25
283.15	1538.61	1.25
285.65	1529.7	1.25
288.15	1520.76	1.25
290.65	1511.85	1.25
293.15	1503	1.24
295.65	1494.16	1.24
298.15	1485.32	1.24
300.65	1476.53	1.24
303.15	1467.78	1.24
305.65	1459.02	1.23
308.15	1450.27	1.23
310.65	1441.56	1.23
313.15	1432.84	1.23
315.65	1424.13	1.23
318.15	1415.43	1.22
320.65	1406.75	1.22
323.15	1398.06	1.22
325.65	1389.4	1.22
328.15	1380.75	1.22
330.65	1372.13	1.21
333.15	1363.47	1.21
335.65	1354.83	1.21
338.15	1346.2	1.21

System: 2-tetrahydrofurylmethanol; phases: Liquid
Fixed: Pressure, kPa = 101.325
Property: Mass density, kg/m3 (Liquid); method: Vibrating tube method
Temperature, K	Mass density, kg/m3	uncertainty
278.15	1067.066	0.295
280.65	1064.958	0.293
283.15	1062.839	0.292
285.65	1060.717	0.29
288.15	1058.593	0.289
290.65	1056.467	0.287
293.15	1054.338	0.285
295.65	1052.201	0.284
298.15	1050.064	0.282
300.65	1047.925	0.28
303.15	1045.782	0.279
305.65	1043.633	0.277
308.15	1041.48	0.276
310.65	1039.327	0.274
313.15	1037.166	0.272
315.65	1034.999	0.271
318.15	1032.828	0.269
320.65	1030.65	0.268
323.15	1028.467	0.266
325.65	1026.279	0.265
328.15	1024.084	0.263
330.65	1021.883	0.261
333.15	1019.676	0.26
335.65	1017.463	0.259
338.15	1015.243	0.257

System: 2-tetrahydrofurylmethanol; phases: Liquid
Fixed: Pressure, kPa = 101.325
Property: Refractive index (Na D-line) (Liquid); method: Standard Abbe refractometry
Temperature, K	Refractive index (Na D-line)	uncertainty
283.15	1.456462	0.000369
285.65	1.455486	0.000369
288.15	1.454522	0.000369
290.65	1.453559	0.000369
293.15	1.452588	0.000369
295.65	1.451616	0.000369
298.15	1.450627	0.000369
300.65	1.449652	0.000369
303.15	1.448668	0.000369
305.65	1.447686	0.000369
308.15	1.446715	0.000369
310.65	1.44572	0.000369
313.15	1.44473	0.000369
315.65	1.443746	0.000369
318.15	1.442742	0.000369
320.65	1.441757	0.000369
323.15	1.440721	0.000369
325.65	1.439698	0.000369
328.15	1.438711	0.000369
330.65	1.437718	0.000369
333.15	1.436683	0.000369
335.65	1.435673	0.000369
338.15	1.434661	0.000369

System: 2-tetrahydrofurylmethanol; phases: Liquid, Gas
Property: Surface tension liquid-gas, N/m (Liquid); method: Drop volume
Temperature, K	Surface tension liquid-gas, N/m	uncertainty
278.15	0.03954	0.00028
280.65	0.03929	0.00028
283.15	0.03903	0.00028
285.65	0.03878	0.00027
288.15	0.03853	0.00027
290.65	0.03827	0.00027
293.15	0.03802	0.00027
295.65	0.03777	0.00027
298.15	0.03751	0.00027
300.65	0.03726	0.00027
303.15	0.03701	0.00027
305.65	0.03675	0.00026
308.15	0.0365	0.00026
310.65	0.03625	0.00026
313.15	0.03599	0.00026
315.65	0.03574	0.00026
318.15	0.03548	0.00026
320.65	0.03523	0.00026
323.15	0.03498	0.00026
325.65	0.03472	0.00025
328.15	0.03447	0.00025
330.65	0.03422	0.00025
333.15	0.03396	0.00025
335.65	0.03371	0.00025
338.15	0.03346	0.00025

System: 2-tetrahydrofurylmethanol; phases: Liquid
Fixed: Pressure, kPa = 101.325
Property: Viscosity, Pa*s (Liquid); method: Capillary tube (Ostwald; Ubbelohde) method
Temperature, K	Viscosity, Pa*s	uncertainty
278.15	0.010391	0.000219
280.65	0.009487	0.0002
283.15	0.008684	0.000183
285.65	0.007971	0.000168
288.15	0.007335	0.000155
290.65	0.006765	0.000143
293.15	0.006254	0.000132
295.65	0.005795	0.000123
298.15	0.005381	0.000114
300.65	0.005006	0.000106
303.15	0.004667	9.9e-05
305.65	0.004359	9.2e-05
308.15	0.004078	8.7e-05
310.65	0.003822	8.1e-05
313.15	0.003588	7.6e-05
315.65	0.003374	7.2e-05
318.15	0.003177	6.7e-05
320.65	0.002996	6.4e-05
323.15	0.00283	6e-05
325.65	0.002677	5.7e-05
328.15	0.002535	5.4e-05
330.65	0.002404	5.1e-05
333.15	0.002282	4.9e-05
335.65	0.002169	4.6e-05
338.15	0.002064	4.4e-05

System: 2-tetrahydrofurylmethanol; phases: Liquid
Fixed: Pressure, kPa = 101
Fixed: Frequency, MHz = 2
Property: Relative permittivity at various frequencies (Liquid); method: capacitive measurement method
Temperature, K	Relative permittivity at various frequencies	uncertainty
278.15	15.2	0.1
280.65	15	0.1
283.15	15	0.1
285.65	14.9	0.1
288.15	14.8	0.1
290.65	14.7	0.1
293.15	14.6	0.1
295.65	14.5	0.1
298.15	14.4	0.1
300.65	14.4	0.1
303.15	14.3	0.1
305.65	14.2	0.1
308.15	14.1	0.1
310.65	14	0.1
313.15	13.9	0.1
315.65	13.8	0.1
318.15	13.8	0.1
320.65	13.6	0.1
323.15	13.5	0.1
325.65	13.5	0.1
328.15	13.4	0.1
330.65	13.3	0.1
333.15	13.2	0.1
335.65	13.1	0.1
338.15	13	0.1

System: 2-tetrahydrofurylmethanol; phases: Liquid, Gas
Property: Vapor or sublimation pressure, kPa (Liquid); method: Ebulliometric method (Recirculating still)
Temperature, K	Vapor or sublimation pressure, kPa	uncertainty
303.15	0.09	0.1
308.15	0.15	0.1
313.15	0.21	0.1
318.15	0.31	0.1
323.15	0.43	0.1
328.15	0.63	0.1
333.15	0.86	0.1
338.15	1.15	0.1
343.15	1.55	0.1
348.15	2.11	0.1
353.15	2.72	0.1
358.15	3.53	0.1
363.15	4.51	0.1
368.15	5.72	0.1
373.15	7.22	0.1
378.15	9.11	0.1
383.15	11.18	0.1
388.15	13.68	0.1
393.15	16.64	0.1
398.15	20.17	0.1
403.15	24.22	0.1
408.15	28.63	0.11
413.15	34.22	0.11
418.15	40.19	0.11
423.15	47.32	0.12
428.15	56.31	0.12
433.15	65.02	0.13
438.15	74.02	0.13
443.15	84.98	0.14
448.15	97.93	0.15
