Measured thermophysical data. Excess Volume of Water in Hydrate Complexes of Some alpha-Amino Acids
Source: J. Chem. Eng. Data, 2013, 10.1021/je400415r
Compound 1: 2-aminoacetic acid, C2H5NO2, InChI=1S/C2H5NO2/c3-1-2(4)5/h1,3H2,(H,4,5), purity 99%
Compound 2: DL-2-aminopropanoic acid, C3H7NO2, InChI=1S/C3H7NO2/c1-2(4)3(5)6/h2H,4H2,1H3,(H,5,6), purity 99%
Compound 3: (.+-.)-.alpha.-aminobutyric acid, C4H9NO2, InChI=1S/C4H9NO2/c1-2-3(5)4(6)7/h3H,2,5H2,1H3,(H,6,7), purity 99%
Compound 4: DL-2-aminopentanoic acid, C5H11NO2, InChI=1S/C5H11NO2/c1-2-3-4(6)5(7)8/h4H,2-3,6H2,1H3,(H,7,8), purity 99%
Compound 5: water, H2O, InChI=1S/H2O/h1H2

System: 2-aminoacetic acid + water; phases: Liquid
Fixed: Pressure, kPa = 101
Property: Mass density, kg/m3 (Liquid); method: Vibrating tube method
Temperature, K	Molality, mol/kg of 2-aminoacetic acid	Mass density, kg/m3	uncertainty
288.15	0	999.11	0.042
288.15	0.04998	1000.775	0.042
288.15	0.13986	1003.737	0.043
288.15	0.22765	1006.595	0.045
288.15	0.40555	1012.273	0.048
288.15	0.5835	1017.816	0.051
288.15	0.76025	1023.187	0.054
288.15	0.93858	1028.479	0.057
288.15	1.11668	1033.622	0.06
288.15	1.2957	1038.686	0.063
298.15	0	997.05	0.043
298.15	0.04998	998.679	0.043
298.15	0.13986	1001.578	0.043
298.15	0.22765	1004.377	0.044
298.15	0.40555	1009.936	0.047
298.15	0.5835	1015.364	0.05
298.15	0.76025	1020.619	0.053
298.15	0.93858	1025.812	0.056
298.15	1.11668	1030.854	0.059
298.15	1.2957	1035.808	0.062
308.15	0	994.03	0.046
308.15	0.04998	995.632	0.045
308.15	0.13986	998.484	0.044
308.15	0.22765	1001.236	0.044
308.15	0.40555	1006.706	0.047
308.15	0.5835	1012.043	0.05
308.15	0.76025	1017.223	0.053
308.15	0.93858	1022.321	0.056
308.15	1.11668	1027.277	0.059
308.15	1.2957	1032.17	0.062
318.15	0	990.21	0.049
318.15	0.04998	991.792	0.048
318.15	0.13986	994.608	0.047
318.15	0.22765	997.323	0.046
318.15	0.40555	1002.721	0.046
318.15	0.5835	1007.993	0.049
318.15	0.76025	1013.098	0.052
318.15	0.93858	1018.127	0.055
318.15	1.11668	1023.037	0.057
318.15	1.2957	1027.841	0.06

System: 2-aminoacetic acid + water; phases: Liquid
Fixed: Pressure, kPa = 101
Property: Speed of sound, m/s (Liquid); method: Pulse-echo method
Temperature, K	Molality, mol/kg of 2-aminoacetic acid	Speed of sound, m/s	uncertainty
288.15	0	1466.4	0.78
288.15	0.04998	1469.24	0.78
288.15	0.13986	1474.3	0.79
288.15	0.22765	1479.18	0.79
288.15	0.40555	1488.91	0.79
288.15	0.5835	1498.4	0.79
288.15	0.76025	1507.6	0.79
288.15	0.93858	1516.65	0.79
288.15	1.11668	1525.47	0.8
288.15	1.2957	1534.09	0.8
298.15	0	1496.77	0.78
298.15	0.04998	1499.43	0.78
298.15	0.13986	1504.18	0.78
298.15	0.22765	1508.76	0.78
298.15	0.40555	1517.87	0.79
298.15	0.5835	1526.78	0.79
298.15	0.76025	1535.41	0.79
298.15	0.93858	1543.9	0.79
298.15	1.11668	1552.17	0.8
298.15	1.2957	1560.26	0.8
308.15	0	1519.73	0.77
308.15	0.04998	1522.25	0.77
308.15	0.13986	1526.75	0.77
308.15	0.22765	1531.09	0.77
308.15	0.40555	1539.73	0.78
308.15	0.5835	1548.16	0.78
308.15	0.76025	1556.33	0.78
308.15	0.93858	1564.37	0.78
308.15	1.11668	1572.18	0.79
308.15	1.2957	1579.82	0.79
318.15	0	1536.22	0.77
318.15	0.04998	1538.64	0.77
318.15	0.13986	1542.95	0.77
318.15	0.22765	1547.11	0.77
318.15	0.40555	1555.39	0.77
318.15	0.5835	1563.46	0.78
318.15	0.76025	1571.27	0.78
318.15	0.93858	1578.95	0.78
318.15	1.11668	1586.41	0.79
318.15	1.2957	1593.7	0.79

System: DL-2-aminopropanoic acid + water; phases: Liquid
Fixed: Pressure, kPa = 101
Property: Mass density, kg/m3 (Liquid); method: Vibrating tube method
Temperature, K	Molality, mol/kg of DL-2-aminopropanoic acid	Mass density, kg/m3	uncertainty
288.15	0	999.1	0.042
288.15	0.04994	1000.587	0.041
288.15	0.1499	1003.529	0.043
288.15	0.25969	1006.695	0.045
288.15	0.47967	1012.861	0.048
288.15	0.69938	1018.782	0.052
288.15	0.91991	1024.512	0.055
288.15	1.13828	1029.974	0.059
288.15	1.36019	1035.329	0.063
288.15	1.5771	1040.366	0.066
288.15	1.79926	1045.372	0.07
298.15	0	997.05	0.043
298.15	0.04994	998.501	0.043
298.15	0.1499	1001.37	0.043
298.15	0.25969	1004.464	0.044
298.15	0.47967	1010.484	0.048
298.15	0.69938	1016.265	0.051
298.15	0.91991	1021.853	0.055
298.15	1.13828	1027.199	0.058
298.15	1.36019	1032.434	0.062
298.15	1.5771	1037.359	0.065
298.15	1.79926	1042.257	0.069
308.15	0	994.03	0.046
308.15	0.04994	995.455	0.045
308.15	0.1499	998.271	0.044
308.15	0.25969	1001.305	0.044
308.15	0.47967	1007.214	0.047
308.15	0.69938	1012.892	0.051
308.15	0.91991	1018.392	0.054
308.15	1.13828	1023.638	0.057
308.15	1.36019	1028.774	0.061
308.15	1.5771	1033.634	0.064
308.15	1.79926	1038.425	0.068
318.15	0	990.21	0.049
318.15	0.04994	991.617	0.048
318.15	0.1499	994.396	0.047
318.15	0.25969	997.395	0.046
318.15	0.47967	1003.226	0.046
318.15	0.69938	1008.836	0.05
318.15	0.91991	1014.256	0.053
318.15	1.13828	1019.432	0.056
318.15	1.36019	1024.512	0.06
318.15	1.5771	1029.293	0.063
318.15	1.79926	1034.034	0.066

System: DL-2-aminopropanoic acid + water; phases: Liquid
Fixed: Pressure, kPa = 101
Property: Speed of sound, m/s (Liquid); method: Pulse-echo method
Temperature, K	Molality, mol/kg of DL-2-aminopropanoic acid	Speed of sound, m/s	uncertainty
288.15	0	1466.38	0.78
288.15	0.04994	1469.89	0.78
288.15	0.1499	1476.88	0.79
288.15	0.25969	1484.45	0.79
288.15	0.47967	1499.35	0.79
288.15	0.69938	1513.84	0.79
288.15	0.91991	1528.01	0.8
288.15	1.13828	1541.66	0.8
288.15	1.36019	1555.14	0.8
288.15	1.5771	1567.95	0.81
288.15	1.79926	1580.68	0.81
298.15	0	1496.77	0.78
298.15	0.04994	1500.03	0.78
298.15	0.1499	1506.51	0.78
298.15	0.25969	1513.54	0.78
298.15	0.47967	1527.36	0.79
298.15	0.69938	1540.8	0.79
298.15	0.91991	1553.94	0.79
298.15	1.13828	1566.59	0.8
298.15	1.36019	1579.09	0.8
298.15	1.5771	1590.95	0.81
298.15	1.79926	1602.74	0.81
308.15	0	1519.73	0.77
308.15	0.04994	1522.78	0.77
308.15	0.1499	1528.83	0.77
308.15	0.25969	1535.39	0.77
308.15	0.47967	1548.3	0.78
308.15	0.69938	1560.87	0.78
308.15	0.91991	1573.16	0.79
308.15	1.13828	1585	0.79
308.15	1.36019	1596.7	0.8
308.15	1.5771	1607.82	0.8
308.15	1.79926	1618.88	0.81
318.15	0	1536.28	0.77
318.15	0.04994	1539.14	0.77
318.15	0.1499	1544.84	0.77
318.15	0.25969	1551.02	0.77
318.15	0.47967	1563.16	0.78
318.15	0.69938	1574.98	0.78
318.15	0.91991	1586.54	0.79
318.15	1.13828	1597.68	0.79
318.15	1.36019	1608.69	0.8
318.15	1.5771	1619.15	0.8
318.15	1.79926	1629.55	0.81

System: (.+-.)-.alpha.-aminobutyric acid + water; phases: Liquid
Fixed: Pressure, kPa = 101
Property: Mass density, kg/m3 (Liquid); method: Vibrating tube method
Temperature, K	Molality, mol/kg of (.+-.)-.alpha.-aminobutyric acid	Mass density, kg/m3	uncertainty
288.15	0	999.1	0.042
288.15	0.04996	1000.537	0.041
288.15	0.14981	1003.361	0.043
288.15	0.2141	1005.149	0.044
288.15	0.43665	1011.154	0.047
288.15	0.6599	1016.911	0.051
288.15	0.8834	1022.417	0.055
288.15	1.10632	1027.682	0.058
288.15	1.32972	1032.73	0.062
288.15	1.5515	1037.551	0.066
288.15	1.77417	1042.191	0.07
288.15	1.99846	1046.67	0.074
298.15	0	997.04	0.043
298.15	0.04996	998.441	0.042
298.15	0.14981	1001.194	0.042
298.15	0.2141	1002.923	0.043
298.15	0.43665	1008.794	0.047
298.15	0.6599	1014.404	0.05
298.15	0.8834	1019.774	0.054
298.15	1.10632	1024.901	0.058
298.15	1.32972	1029.826	0.061
298.15	1.5515	1034.518	0.065
298.15	1.77417	1039.048	0.069
298.15	1.99846	1043.404	0.072
308.15	0	994.03	0.046
308.15	0.04996	995.405	0.045
308.15	0.14981	998.105	0.044
308.15	0.2141	999.815	0.043
308.15	0.43665	1005.558	0.047
308.15	0.6599	1011.063	0.05
308.15	0.8834	1016.335	0.053
308.15	1.10632	1021.35	0.057
308.15	1.32972	1026.175	0.06
308.15	1.5515	1030.77	0.064
308.15	1.77417	1035.205	0.068
308.15	1.99846	1039.505	0.071
318.15	0	990.21	0.048
318.15	0.04996	991.565	0.048
318.15	0.14981	994.226	0.047
318.15	0.2141	995.911	0.046
318.15	0.43665	1001.57	0.046
318.15	0.6599	1006.992	0.049
318.15	0.8834	1012.176	0.052
318.15	1.10632	1017.133	0.056
318.15	1.32972	1021.873	0.059
318.15	1.5515	1026.396	0.063
318.15	1.77417	1030.744	0.066
318.15	1.99846	1034.955	0.07

System: (.+-.)-.alpha.-aminobutyric acid + water; phases: Liquid
Fixed: Pressure, kPa = 101
Property: Speed of sound, m/s (Liquid); method: Pulse-echo method
Temperature, K	Molality, mol/kg of (.+-.)-.alpha.-aminobutyric acid	Speed of sound, m/s	uncertainty
288.15	0	1466.31	0.78
288.15	0.04996	1470.76	0.78
288.15	0.14981	1479.55	0.79
288.15	0.2141	1485.15	0.79
288.15	0.43665	1504.18	0.79
288.15	0.6599	1522.69	0.79
288.15	0.8834	1540.66	0.8
288.15	1.10632	1558	0.8
288.15	1.32972	1574.81	0.8
288.15	1.5515	1590.94	0.81
288.15	1.77417	1606.56	0.82
288.15	1.99846	1621.72	0.82
298.15	0	1496.72	0.78
298.15	0.04996	1500.84	0.78
298.15	0.14981	1508.92	0.78
298.15	0.2141	1513.81	0.78
298.15	0.43665	1531.46	0.79
298.15	0.6599	1548.42	0.79
298.15	0.8834	1564.87	0.79
298.15	1.10632	1580.74	0.8
298.15	1.32972	1596.1	0.8
298.15	1.5515	1610.82	0.81
298.15	1.77417	1625.07	0.82
298.15	1.99846	1638.88	0.82
308.15	0	1519.71	0.77
308.15	0.04996	1523.48	0.77
308.15	0.14981	1530.94	0.77
308.15	0.2141	1535.69	0.77
308.15	0.43665	1551.79	0.78
308.15	0.6599	1567.43	0.78
308.15	0.8834	1582.58	0.79
308.15	1.10632	1597.18	0.79
308.15	1.32972	1611.29	0.8
308.15	1.5515	1624.8	0.81
308.15	1.77417	1637.85	0.81
308.15	1.99846	1650.48	0.82
318.15	0	1536.24	0.77
318.15	0.04996	1539.75	0.77
318.15	0.14981	1546.67	0.77
318.15	0.2141	1551.08	0.77
318.15	0.43665	1566.02	0.78
318.15	0.6599	1580.51	0.78
318.15	0.8834	1594.53	0.79
318.15	1.10632	1608.02	0.79
318.15	1.32972	1621.05	0.8
318.15	1.5515	1633.49	0.81
318.15	1.77417	1645.5	0.81
318.15	1.99846	1657.1	0.82

System: DL-2-aminopentanoic acid + water; phases: Liquid
Fixed: Pressure, kPa = 101
Property: Mass density, kg/m3 (Liquid); method: Vibrating tube method
Temperature, K	Molality, mol/kg of DL-2-aminopentanoic acid	Mass density, kg/m3	uncertainty
288.15	0	999.107	0.041
288.15	0.04497	1000.312	0.041
288.15	0.05999	1000.711	0.041
288.15	0.07998	1001.24	0.042
288.15	0.09499	1001.635	0.042
288.15	0.11	1002.029	0.042
288.15	0.12497	1002.42	0.042
288.15	0.13997	1002.811	0.043
288.15	0.155	1003.201	0.043
288.15	0.16998	1003.587	0.043
288.15	0.18498	1003.975	0.043
288.15	0.2	1004.361	0.044
298.15	0	997.049	0.043
298.15	0.04497	998.222	0.043
298.15	0.05999	998.611	0.042
298.15	0.07998	999.126	0.042
298.15	0.09499	999.511	0.042
298.15	0.11	999.895	0.042
298.15	0.12497	1000.277	0.042
298.15	0.13997	1000.658	0.042
298.15	0.155	1001.038	0.042
298.15	0.16998	1001.416	0.043
298.15	0.18498	1001.792	0.043
298.15	0.2	1002.166	0.043
308.15	0	994.033	0.046
308.15	0.04497	995.183	0.045
308.15	0.05999	995.564	0.045
308.15	0.07998	996.069	0.045
308.15	0.09499	996.447	0.045
308.15	0.11	996.823	0.045
308.15	0.12497	997.197	0.045
308.15	0.13997	997.57	0.044
308.15	0.155	997.943	0.044
308.15	0.16998	998.314	0.044
308.15	0.18498	998.684	0.044
308.15	0.2	999.053	0.044
318.15	0	990.214	0.048
318.15	0.04497	991.346	0.048
318.15	0.05999	991.721	0.048
318.15	0.07998	992.218	0.048
318.15	0.09499	992.59	0.047
318.15	0.11	992.961	0.047
318.15	0.12497	993.329	0.047
318.15	0.13997	993.697	0.047
318.15	0.155	994.064	0.047
318.15	0.16998	994.429	0.047
318.15	0.18498	994.793	0.047
318.15	0.2	995.156	0.047

System: DL-2-aminopentanoic acid + water; phases: Liquid
Fixed: Pressure, kPa = 101
Property: Speed of sound, m/s (Liquid); method: Pulse-echo method
Temperature, K	Molality, mol/kg of DL-2-aminopentanoic acid	Speed of sound, m/s	uncertainty
288.15	0	1466.4	0.78
288.15	0.04497	1471.32	0.78
288.15	0.05999	1472.95	0.78
288.15	0.07998	1475.11	0.78
288.15	0.09499	1476.69	0.78
288.15	0.11	1478.31	0.78
288.15	0.12497	1479.87	0.78
288.15	0.13997	1481.49	0.78
288.15	0.155	1483.08	0.78
288.15	0.16998	1484.6	0.78
288.15	0.18498	1486.2	0.78
288.15	0.2	1487.78	0.78
298.15	0	1496.79	0.78
298.15	0.04497	1501.21	0.78
298.15	0.05999	1502.68	0.78
298.15	0.07998	1504.62	0.78
298.15	0.09499	1506.06	0.78
298.15	0.11	1507.51	0.78
298.15	0.12497	1508.97	0.78
298.15	0.13997	1510.42	0.78
298.15	0.155	1511.86	0.78
298.15	0.16998	1513.3	0.78
298.15	0.18498	1514.7	0.78
298.15	0.2	1516.06	0.78
308.15	0	1519.75	0.77
308.15	0.04497	1523.8	0.77
308.15	0.05999	1525.13	0.77
308.15	0.07998	1526.91	0.77
308.15	0.09499	1528.25	0.77
308.15	0.11	1529.56	0.77
308.15	0.12497	1530.88	0.77
308.15	0.13997	1532.2	0.77
308.15	0.155	1533.52	0.77
308.15	0.16998	1534.85	0.77
308.15	0.18498	1536.17	0.77
308.15	0.2	1537.49	0.77
318.15	0	1536.29	0.77
318.15	0.04497	1539.96	0.77
318.15	0.05999	1541.17	0.77
318.15	0.07998	1542.78	0.77
318.15	0.09499	1543.99	0.77
318.15	0.11	1545.21	0.77
318.15	0.12497	1546.41	0.77
318.15	0.13997	1547.61	0.77
318.15	0.155	1548.81	0.77
318.15	0.16998	1550.02	0.77
318.15	0.18498	1551.21	0.77
318.15	0.2	1552.43	0.77
