Measured thermophysical data. New Series of Green Cyclic Ammonium-Based Room Temperature Ionic Liquids with Alkylphosphite-Containing Anion: Synthesis and Physicochemical Characterization
Source: J. Chem. Eng. Data, 2014, 10.1021/je4007053
Compound 1: N-ethyl-N-methylpyrrolidinium ethylphosphonate, C9H22NO3P, InChI=1S/C7H16N.C2H7O3P/c1-3-8(2)6-4-5-7-8;1-2-5-6(3)4/h3-7H2,1-2H3;6H,2H2,1H3,(H,3,4)/q+1;/p-1
Compound 2: 4-ethyl-4-methylmorpholin-4-ium ethylphosphonate, C9H22NO4P, InChI=1S/C7H16NO.C2H7O3P/c1-3-8(2)4-6-9-7-5-8;1-2-5-6(3)4/h3-7H2,1-2H3;6H,2H2,1H3,(H,3,4)/q+1;/p-1
Compound 3: 1-ethyl-1-methylpiperidin-1-ium ethyl phosphonate, C10H24NO3P, InChI=1S/C8H18N.C2H7O3P/c1-3-9(2)7-5-4-6-8-9;1-2-5-6(3)4/h3-8H2,1-2H3;6H,2H2,1H3,(H,3,4)/q+1;/p-1
Compound 4: 1-butyl-1-methylpyrrolidin-1-ium butyl phosphonate, C13H30NO3P, InChI=1S/C9H20N.C4H11O3P/c1-3-4-7-10(2)8-5-6-9-10;1-2-3-4-7-8(5)6/h3-9H2,1-2H3;8H,2-4H2,1H3,(H,5,6)/q+1;/p-1
Compound 5: 4-butyl-4-methylmorpholin-4-ium butylphosphonate, C13H30NO4P, InChI=1S/C9H20NO.C4H11O3P/c1-3-4-5-10(2)6-8-11-9-7-10;1-2-3-4-7-8(5)6/h3-9H2,1-2H3;8H,2-4H2,1H3,(H,5,6)/q+1;/p-1
Compound 6: 1-butyl-1-methylpiperidin-1-ium butyl phosphonate, C14H32NO3P, InChI=1S/C10H22N.C4H11O3P/c1-3-4-8-11(2)9-6-5-7-10-11;1-2-3-4-7-8(5)6/h3-10H2,1-2H3;8H,2-4H2,1H3,(H,5,6)/q+1;/p-1
Compound 7: N-hexyl-N-methylpyrrolidinium hexylphosphonate, C17H38NO3P, InChI=1S/C11H24N.C6H15O3P/c1-3-4-5-6-9-12(2)10-7-8-11-12;1-2-3-4-5-6-9-10(7)8/h3-11H2,1-2H3;10H,2-6H2,1H3,(H,7,8)/q+1;/p-1
Compound 8: 4-hexyl-4-methylmorpholin-4-ium hexylphosphonate, C17H38NO4P, InChI=1S/C11H24NO.C6H15O3P/c1-3-4-5-6-7-12(2)8-10-13-11-9-12;1-2-3-4-5-6-9-10(7)8/h3-11H2,1-2H3;10H,2-6H2,1H3,(H,7,8)/q+1;/p-1
Compound 9: 1-hexyl-1-methylpiperidin-1-ium hexylphosphonate, C18H40NO3P, InChI=1S/C12H26N.C6H15O3P/c1-3-4-5-7-10-13(2)11-8-6-9-12-13;1-2-3-4-5-6-9-10(7)8/h3-12H2,1-2H3;10H,2-6H2,1H3,(H,7,8)/q+1;/p-1
Compound 10: N-methyl-N-octylpyrrolidinium octylphosphonate, C21H46NO3P, InChI=1S/C13H28N.C8H19O3P/c1-3-4-5-6-7-8-11-14(2)12-9-10-13-14;1-2-3-4-5-6-7-8-11-12(9)10/h3-13H2,1-2H3;12H,2-8H2,1H3,(H,9,10)/q+1;/p-1
Compound 11: 4-methyl-4-octylmorpholin-4-ium octylphosphonate, C21H46NO4P, InChI=1S/C13H28NO.C8H19O3P/c1-3-4-5-6-7-8-9-14(2)10-12-15-13-11-14;1-2-3-4-5-6-7-8-11-12(9)10/h3-13H2,1-2H3;12H,2-8H2,1H3,(H,9,10)/q+1;/p-1
Compound 12: 1-methyl-1-octylpiperidin-1-ium octyl phosphonate, C22H48NO3P, InChI=1S/C14H30N.C8H19O3P/c1-3-4-5-6-7-9-12-15(2)13-10-8-11-14-15;1-2-3-4-5-6-7-8-11-12(9)10/h3-14H2,1-2H3;12H,2-8H2,1H3,(H,9,10)/q+1;/p-1

System: N-ethyl-N-methylpyrrolidinium ethylphosphonate; phases: Liquid
Fixed: Pressure, kPa = 101.325
Property: Mass density, kg/m3 (Liquid); method: Vibrating tube method
Temperature, K	Mass density, kg/m3	uncertainty
293.18	1126.04	1.1
295.63	1124.56	1.1
298.13	1123.05	1.1
300.63	1121.53	1.09
303.13	1120.03	1.09
305.63	1118.51	1.09
308.13	1117.01	1.08
310.63	1115.5	1.08
313.13	1113.99	1.08
315.63	1112.49	1.07
318.13	1111	1.07
320.63	1109.51	1.07
323.13	1108.02	1.06

System: N-ethyl-N-methylpyrrolidinium ethylphosphonate; phases: Liquid
Fixed: Pressure, kPa = 101.325
Property: Viscosity, Pa*s (Liquid); method: CONPLT:UFactor:4
Temperature, K	Viscosity, Pa*s	uncertainty
293.18	0.2978	0.0433
295.63	0.2511	0.0331
298.13	0.2201	0.0267
300.63	0.1854	0.0199
303.13	0.1639	0.016
305.63	0.1389	0.0118
308.13	0.1167	0.0082
310.63	0.1053	0.0066
313.13	0.08462	0.00407
315.63	0.06997	0.00255
318.13	0.06012	0.00177
320.63	0.04974	0.00156
323.13	0.04312	0.00133

System: N-ethyl-N-methylpyrrolidinium ethylphosphonate; phases: Liquid
Fixed: Pressure, kPa = 101.325
Property: Electrical conductivity, S/m (Liquid); method: Alternating current cell with electrodes
Temperature, K	Electrical conductivity, S/m	uncertainty
293.18	0.208	0.008
295.63	0.223	0.009
298.13	0.239	0.01
300.63	0.256	0.01
303.13	0.275	0.011
305.63	0.294	0.012
308.13	0.316	0.013
310.63	0.338	0.014
313.13	0.363	0.015
315.63	0.389	0.016
318.13	0.416	0.017
320.63	0.446	0.018
323.13	0.478	0.019

System: 4-ethyl-4-methylmorpholin-4-ium ethylphosphonate; phases: Liquid
Fixed: Pressure, kPa = 101.325
Property: Mass density, kg/m3 (Liquid); method: Vibrating tube method
Temperature, K	Mass density, kg/m3	uncertainty
293.18	1164.7	1.19
295.63	1163.17	1.19
298.13	1161.61	1.18
300.63	1160.03	1.18
303.13	1158.48	1.18
305.63	1156.91	1.17
308.13	1155.36	1.17
310.63	1153.8	1.17
313.13	1152.24	1.16
315.63	1150.68	1.16
318.13	1149.14	1.16
320.63	1147.6	1.15
323.13	1146.06	1.15

System: 4-ethyl-4-methylmorpholin-4-ium ethylphosphonate; phases: Liquid
Fixed: Pressure, kPa = 101.325
Property: Viscosity, Pa*s (Liquid); method: CONPLT:UFactor:4
Temperature, K	Viscosity, Pa*s	uncertainty
293.18	0.2088	0.0244
295.63	0.1794	0.0188
298.13	0.1622	0.0157
300.63	0.1383	0.0116
303.13	0.1252	0.0095
305.63	0.1071	0.0068
308.13	0.09307	0.00488
310.63	0.08482	0.00395
313.13	0.07022	0.00259
315.63	0.05863	0.00166
318.13	0.05157	0.00131
320.63	0.04365	0.00133
323.13	0.03907	0.00116

System: 4-ethyl-4-methylmorpholin-4-ium ethylphosphonate; phases: Liquid
Fixed: Pressure, kPa = 101.325
Property: Electrical conductivity, S/m (Liquid); method: Alternating current cell with electrodes
Temperature, K	Electrical conductivity, S/m	uncertainty
293.18	0.083	0.003
295.63	0.088	0.004
298.13	0.094	0.004
300.63	0.099	0.004
303.13	0.106	0.004
305.63	0.112	0.005
308.13	0.121	0.005
310.63	0.127	0.005
313.13	0.135	0.005
315.63	0.144	0.006
318.13	0.153	0.006
320.63	0.163	0.007
323.13	0.173	0.007

System: 1-ethyl-1-methylpiperidin-1-ium ethyl phosphonate; phases: Liquid
Fixed: Pressure, kPa = 101.325
Property: Mass density, kg/m3 (Liquid); method: Vibrating tube method
Temperature, K	Mass density, kg/m3	uncertainty
293.18	1097.05	1.04
295.63	1095.6	1.04
298.13	1094.13	1.03
300.63	1092.65	1.03
303.13	1091.19	1.03
305.63	1089.71	1.02
308.13	1088.25	1.02
310.63	1086.78	1.02
313.13	1085.31	1.02
315.63	1083.84	1.01
318.13	1082.39	1.01
320.63	1080.94	1.01
323.13	1079.49	1

System: 1-ethyl-1-methylpiperidin-1-ium ethyl phosphonate; phases: Liquid
Fixed: Pressure, kPa = 101.325
Property: Viscosity, Pa*s (Liquid); method: CONPLT:UFactor:4
Temperature, K	Viscosity, Pa*s	uncertainty
293.18	0.1162	0.0082
295.63	0.1007	0.0059
298.13	0.09199	0.00473
300.63	0.07981	0.00339
303.13	0.07299	0.00271
305.63	0.06351	0.00194
308.13	0.05601	0.00143
310.63	0.05089	0.00125
313.13	0.04334	0.00135
315.63	0.03667	0.00112
318.13	0.03253	0.00099
320.63	0.02794	0.00085
323.13	0.02511	0.00075

System: 1-ethyl-1-methylpiperidin-1-ium ethyl phosphonate; phases: Liquid
Fixed: Pressure, kPa = 101.325
Property: Electrical conductivity, S/m (Liquid); method: Alternating current cell with electrodes
Temperature, K	Electrical conductivity, S/m	uncertainty
293.18	0.068	0.003
295.63	0.073	0.003
298.13	0.078	0.003
300.63	0.084	0.003
303.13	0.09	0.004
305.63	0.096	0.004
308.13	0.103	0.004
310.63	0.111	0.004
313.13	0.118	0.005
315.63	0.126	0.005
318.13	0.135	0.005
320.63	0.145	0.006
323.13	0.155	0.006

System: 1-butyl-1-methylpyrrolidin-1-ium butyl phosphonate; phases: Liquid
Fixed: Pressure, kPa = 101.325
Property: Mass density, kg/m3 (Liquid); method: Vibrating tube method
Temperature, K	Mass density, kg/m3	uncertainty
293.18	1084.71	1.01
295.63	1083.18	1.01
298.13	1081.59	1.01
300.63	1080.01	1
303.13	1078.44	1
305.63	1076.87	1
308.13	1075.3	0.99
310.63	1073.73	0.99
313.13	1072.17	0.99
315.63	1070.6	0.98
318.13	1069.04	0.98
320.63	1067.48	0.98
323.13	1065.92	0.97

System: 1-butyl-1-methylpyrrolidin-1-ium butyl phosphonate; phases: Liquid
Fixed: Pressure, kPa = 101.325
Property: Viscosity, Pa*s (Liquid); method: CONPLT:UFactor:4
Temperature, K	Viscosity, Pa*s	uncertainty
293.18	0.4268	0.0744
295.63	0.3589	0.0575
298.13	0.3214	0.0486
300.63	0.2712	0.0374
303.13	0.2411	0.0309
305.63	0.2046	0.0236
308.13	0.1731	0.0176
310.63	0.1553	0.0145
313.13	0.1254	0.0097
315.63	0.1031	0.0063
318.13	0.09012	0.00458
320.63	0.07486	0.00298
323.13	0.06482	0.00208

System: 1-butyl-1-methylpyrrolidin-1-ium butyl phosphonate; phases: Liquid
Fixed: Pressure, kPa = 101.325
Property: Electrical conductivity, S/m (Liquid); method: Alternating current cell with electrodes
Temperature, K	Electrical conductivity, S/m	uncertainty
293.18	0.022	0.001
295.63	0.025	0.001
298.13	0.027	0.001
300.63	0.03	0.001
303.13	0.034	0.001
305.63	0.037	0.002
308.13	0.041	0.002
310.63	0.045	0.002
313.13	0.05	0.01
315.63	0.056	0.002
318.13	0.062	0.003
320.63	0.068	0.003
323.13	0.075	0.003

System: 4-butyl-4-methylmorpholin-4-ium butylphosphonate; phases: Liquid
Fixed: Pressure, kPa = 101.325
Property: Mass density, kg/m3 (Liquid); method: Vibrating tube method
Temperature, K	Mass density, kg/m3	uncertainty
293.18	1121.95	1.1
295.63	1120.36	1.09
298.13	1118.73	1.09
300.63	1117.08	1.08
303.13	1115.43	1.08
305.63	1113.77	1.08
308.13	1112.09	1.07
310.63	1110.41	1.07
313.13	1108.71	1.07
315.63	1107.01	1.06
318.13	1105.29	1.06
320.63	1103.58	1.06
323.13	1101.86	1.05

System: 4-butyl-4-methylmorpholin-4-ium butylphosphonate; phases: Liquid
Fixed: Pressure, kPa = 101.325
Property: Viscosity, Pa*s (Liquid); method: CONPLT:UFactor:4
Temperature, K	Viscosity, Pa*s	uncertainty
293.18	0.2836	0.0401
295.63	0.2426	0.0312
298.13	0.2178	0.0262
300.63	0.1872	0.0202
303.13	0.1688	0.0168
305.63	0.1431	0.0124
308.13	0.1236	0.0093
310.63	0.1096	0.0072
313.13	0.08776	0.00444
315.63	0.07111	0.00268
318.13	0.06058	0.00181
320.63	0.05034	0.00132
323.13	0.04325	0.00135

System: 4-butyl-4-methylmorpholin-4-ium butylphosphonate; phases: Liquid
Fixed: Pressure, kPa = 101.325
Property: Electrical conductivity, S/m (Liquid); method: Alternating current cell with electrodes
Temperature, K	Electrical conductivity, S/m	uncertainty
293.18	0.074	0.003
295.63	0.078	0.003
298.13	0.082	0.003
300.63	0.087	0.004
303.13	0.092	0.004
305.63	0.097	0.004
308.13	0.102	0.004
310.63	0.108	0.004
313.13	0.114	0.005
315.63	0.121	0.005
318.13	0.127	0.005
320.63	0.134	0.005
323.13	0.141	0.006

System: 1-butyl-1-methylpiperidin-1-ium butyl phosphonate; phases: Liquid
Fixed: Pressure, kPa = 101.325
Property: Mass density, kg/m3 (Liquid); method: Vibrating tube method
Temperature, K	Mass density, kg/m3	uncertainty
293.18	1056.78	0.95
295.63	1055.22	0.95
298.13	1053.61	0.95
300.63	1052	0.94
303.13	1050.39	0.94
305.63	1048.76	0.94
308.13	1047.14	0.93
310.63	1045.51	0.93
313.13	1043.87	0.93
315.63	1042.24	0.92
318.13	1040.6	0.92
320.63	1038.96	0.92
323.13	1037.32	0.91

System: 1-butyl-1-methylpiperidin-1-ium butyl phosphonate; phases: Liquid
Fixed: Pressure, kPa = 101.325
Property: Viscosity, Pa*s (Liquid); method: CONPLT:UFactor:8
Temperature, K	Viscosity, Pa*s	uncertainty
293.18	0.166	0.0325
295.63	0.1329	0.0213
298.13	0.1133	0.0152
300.63	0.08911	0.00856
303.13	0.07751	0.0057
305.63	0.06258	0.00274
308.13	0.05102	0.00137
310.63	0.04414	0.00195
313.13	0.03372	0.00158
315.63	0.02553	0.00118
318.13	0.02082	0.00096
320.63	0.01541	0.00073
323.13	0.01261	0.00058

System: 1-butyl-1-methylpiperidin-1-ium butyl phosphonate; phases: Liquid
Fixed: Pressure, kPa = 101.325
Property: Electrical conductivity, S/m (Liquid); method: Alternating current cell with electrodes
Temperature, K	Electrical conductivity, S/m	uncertainty
293.18	0.026	0.001
295.63	0.028	0.001
298.13	0.031	0.001
300.63	0.034	0.001
303.13	0.037	0.002
305.63	0.04	0.002
308.13	0.044	0.002
310.63	0.048	0.002
313.13	0.053	0.002
315.63	0.058	0.002
318.13	0.063	0.003
320.63	0.069	0.003
323.13	0.075	0.003

System: N-hexyl-N-methylpyrrolidinium hexylphosphonate; phases: Liquid
Fixed: Pressure, kPa = 101.325
Property: Mass density, kg/m3 (Liquid); method: Vibrating tube method
Temperature, K	Mass density, kg/m3	uncertainty
293.18	1064.2	0.97
295.63	1062.5	0.97
298.13	1060.7	0.96
300.63	1059	0.96
303.13	1057.3	0.96
305.63	1055.5	0.95
308.13	1053.8	0.95
310.63	1052.1	0.95
313.13	1050.3	0.94
315.63	1048.6	0.94
318.13	1046.9	0.93
320.63	1045.1	0.93
323.13	1043.4	0.93

System: N-hexyl-N-methylpyrrolidinium hexylphosphonate; phases: Liquid
Fixed: Pressure, kPa = 101.325
Property: Viscosity, Pa*s (Liquid); method: CONPLT:UFactor:4
Temperature, K	Viscosity, Pa*s	uncertainty
293.18	0.46	0.0829
295.63	0.3839	0.0636
298.13	0.3428	0.0537
300.63	0.2885	0.0412
303.13	0.2559	0.0341
305.63	0.2137	0.0254
308.13	0.1825	0.0194
310.63	0.1627	0.0158
313.13	0.1319	0.0107
315.63	0.1081	0.007
318.13	0.09423	0.00509
320.63	0.07839	0.00332
323.13	0.06823	0.00234

System: N-hexyl-N-methylpyrrolidinium hexylphosphonate; phases: Liquid
Fixed: Pressure, kPa = 101.325
Property: Electrical conductivity, S/m (Liquid); method: Alternating current cell with electrodes
Temperature, K	Electrical conductivity, S/m	uncertainty
293.18	0.034	0.001
295.63	0.035	0.002
298.13	0.037	0.002
300.63	0.039	0.002
303.13	0.041	0.002
305.63	0.043	0.002
308.13	0.045	0.002
310.63	0.047	0.002
313.13	0.05	0.002
315.63	0.052	0.002
318.13	0.055	0.002
320.63	0.058	0.002
323.13	0.061	0.003

System: 4-hexyl-4-methylmorpholin-4-ium hexylphosphonate; phases: Liquid
Fixed: Pressure, kPa = 101.325
Property: Mass density, kg/m3 (Liquid); method: Vibrating tube method
Temperature, K	Mass density, kg/m3	uncertainty
293.18	1023.1	0.88
295.63	1021.6	0.88
298.13	1020	0.88
300.63	1018.3	0.88
303.13	1016.7	0.87
305.63	1015	0.87
308.13	1013.4	0.87
310.63	1011.7	0.86
313.13	1010.1	0.86
315.63	1008.4	0.86
318.13	1006.7	0.85
320.63	1005.1	0.85
323.13	1003.4	0.85

System: 4-hexyl-4-methylmorpholin-4-ium hexylphosphonate; phases: Liquid
Fixed: Pressure, kPa = 101.325
Property: Viscosity, Pa*s (Liquid); method: CONPLT:UFactor:4
Temperature, K	Viscosity, Pa*s	uncertainty
293.18	0.3695	0.0601
295.63	0.3086	0.0458
298.13	0.2689	0.0369
300.63	0.2244	0.0275
303.13	0.1968	0.0221
305.63	0.1645	0.0162
308.13	0.1375	0.0115
310.63	0.1233	0.0093
313.13	0.09823	0.00577
315.63	0.07922	0.00347
318.13	0.06758	0.00234
320.63	0.05542	0.00153
323.13	0.04776	0.00148

System: 4-hexyl-4-methylmorpholin-4-ium hexylphosphonate; phases: Liquid
Fixed: Pressure, kPa = 101.325
Property: Electrical conductivity, S/m (Liquid); method: Alternating current cell with electrodes
Temperature, K	Electrical conductivity, S/m	uncertainty
293.18	0.015	0.001
295.63	0.016	0.001
298.13	0.017	0.001
300.63	0.019	0.001
303.13	0.02	0.001
305.63	0.022	0.001
308.13	0.024	0.001
310.63	0.026	0.001
313.13	0.028	0.001
315.63	0.03	0.001
318.13	0.032	0.001
320.63	0.035	0.002
323.13	0.038	0.002

System: 1-hexyl-1-methylpiperidin-1-ium hexylphosphonate; phases: Liquid
Fixed: Pressure, kPa = 101.325
Property: Mass density, kg/m3 (Liquid); method: Vibrating tube method
Temperature, K	Mass density, kg/m3	uncertainty
293.18	1016.3	0.87
295.63	1014.8	0.87
298.13	1013.1	0.86
300.63	1011.5	0.86
303.13	1009.9	0.86
305.63	1008.4	0.85
308.13	1006.8	0.85
310.63	1005.2	0.85
313.13	1003.6	0.85
315.63	1002	0.84
318.13	1000.4	0.84
320.63	998.8	0.84
323.13	997.3	0.83

System: 1-hexyl-1-methylpiperidin-1-ium hexylphosphonate; phases: Liquid
Fixed: Pressure, kPa = 101.325
Property: Viscosity, Pa*s (Liquid); method: CONPLT:UFactor:4
Temperature, K	Viscosity, Pa*s	uncertainty
293.18	0.3037	0.0447
295.63	0.2466	0.0322
298.13	0.2133	0.0253
300.63	0.1736	0.0178
303.13	0.1486	0.0134
305.63	0.1161	0.0083
308.13	0.09247	0.00494
310.63	0.07987	0.00354
313.13	0.06119	0.00213
315.63	0.04631	0.00161
318.13	0.03771	0.00127
320.63	0.02894	0.00098
323.13	0.02411	0.00079

System: 1-hexyl-1-methylpiperidin-1-ium hexylphosphonate; phases: Liquid
Fixed: Pressure, kPa = 101.325
Property: Electrical conductivity, S/m (Liquid); method: Alternating current cell with electrodes
Temperature, K	Electrical conductivity, S/m	uncertainty
293.18	0.037	0.002
295.63	0.041	0.002
298.13	0.042	0.002
300.63	0.044	0.002
303.13	0.046	0.002
305.63	0.049	0.002
308.13	0.052	0.002
310.63	0.055	0.002
313.13	0.058	0.002
315.63	0.061	0.003
318.13	0.064	0.003
320.63	0.068	0.003
323.13	0.072	0.003

System: N-methyl-N-octylpyrrolidinium octylphosphonate; phases: Liquid
Fixed: Pressure, kPa = 101.325
Property: Mass density, kg/m3 (Liquid); method: Vibrating tube method
Temperature, K	Mass density, kg/m3	uncertainty
293.18	992.3	0.83
295.63	990.8	0.83
298.13	989.1	0.82
300.63	987.5	0.82
303.13	985.7	0.82
305.63	984	0.82
308.13	982.2	0.82
310.63	980.5	0.81
313.13	978.7	0.81
315.63	977	0.81
318.13	975.2	0.81
320.63	973.5	0.81
323.13	971.7	0.8

System: N-methyl-N-octylpyrrolidinium octylphosphonate; phases: Liquid
Fixed: Pressure, kPa = 101.325
Property: Viscosity, Pa*s (Liquid); method: CONPLT:UFactor:4
Temperature, K	Viscosity, Pa*s	uncertainty
293.18	0.1051	0.0065
295.63	0.09102	0.00462
298.13	0.08367	0.00379
300.63	0.07181	0.00261
303.13	0.06629	0.00212
305.63	0.05708	0.00153
308.13	0.05084	0.00121
310.63	0.04652	0.00139
313.13	0.03974	0.00124
315.63	0.03339	0.00102
318.13	0.03001	0.0009
320.63	0.02575	0.00078
323.13	0.02333	0.00069

System: N-methyl-N-octylpyrrolidinium octylphosphonate; phases: Liquid
Fixed: Pressure, kPa = 101.325
Property: Electrical conductivity, S/m (Liquid); method: Alternating current cell with electrodes
Temperature, K	Electrical conductivity, S/m	uncertainty
293.18	0.031	0.001
295.63	0.032	0.001
298.13	0.034	0.001
300.63	0.036	0.002
303.13	0.038	0.002
305.63	0.04	0.002
308.13	0.042	0.002
310.63	0.044	0.002
313.13	0.046	0.002
315.63	0.048	0.002
318.13	0.051	0.002
320.63	0.053	0.002
323.13	0.056	0.002

System: 4-methyl-4-octylmorpholin-4-ium octylphosphonate; phases: Liquid
Fixed: Pressure, kPa = 101.325
Property: Mass density, kg/m3 (Liquid); method: Vibrating tube method
Temperature, K	Mass density, kg/m3	uncertainty
293.18	981.58	0.82
295.63	979.86	0.81
298.13	978.1	0.81
300.63	976.35	0.81
303.13	974.6	0.81
305.63	972.85	0.81
308.13	971.11	0.8
310.63	969.37	0.8
313.13	967.63	0.8
315.63	965.89	0.8
318.13	964.14	0.8
320.63	962.4	0.79
323.13	960.66	0.79

System: 4-methyl-4-octylmorpholin-4-ium octylphosphonate; phases: Liquid
Fixed: Pressure, kPa = 101.325
Property: Viscosity, Pa*s (Liquid); method: CONPLT:UFactor:4
Temperature, K	Viscosity, Pa*s	uncertainty
293.18	0.07021	0.00246
295.63	0.06199	0.00178
298.13	0.05785	0.0015
300.63	0.05169	0.00124
303.13	0.04746	0.00139
305.63	0.04267	0.00127
308.13	0.0377	0.00111
310.63	0.03536	0.00105
313.13	0.03018	0.00094
315.63	0.02579	0.00079
318.13	0.02273	0.0007
320.63	0.01929	0.00059
323.13	0.01738	0.00052

System: 4-methyl-4-octylmorpholin-4-ium octylphosphonate; phases: Liquid
Fixed: Pressure, kPa = 101.325
Property: Electrical conductivity, S/m (Liquid); method: Alternating current cell with electrodes
Temperature, K	Electrical conductivity, S/m	uncertainty
293.18	0.016	0.001
295.63	0.017	0.001
298.13	0.018	0.001
300.63	0.019	0.001
303.13	0.021	0.001
305.63	0.022	0.001
308.13	0.024	0.001
310.63	0.025	0.001
313.13	0.027	0.001
315.63	0.029	0.001
318.13	0.031	0.001
320.63	0.033	0.001
323.13	0.035	0.002

System: 1-methyl-1-octylpiperidin-1-ium octyl phosphonate; phases: Liquid
Fixed: Pressure, kPa = 101.325
Property: Mass density, kg/m3 (Liquid); method: Vibrating tube method
Temperature, K	Mass density, kg/m3	uncertainty
293.18	972.2	0.8
295.63	971	0.8
298.13	969.4	0.8
300.63	967.8	0.8
303.13	966.1	0.8
305.63	964.4	0.8
308.13	962.6	0.79
310.63	960.9	0.79
313.13	959.1	0.79
315.63	957.3	0.79
318.13	955.6	0.79
320.63	953.8	0.78
323.13	952.1	0.78

System: 1-methyl-1-octylpiperidin-1-ium octyl phosphonate; phases: Liquid
Fixed: Pressure, kPa = 101.325
Property: Viscosity, Pa*s (Liquid); method: CONPLT:UFactor:4
Temperature, K	Viscosity, Pa*s	uncertainty
293.18	0.04583	0.00136
295.63	0.04057	0.00119
298.13	0.03765	0.0011
300.63	0.03336	0.00098
303.13	0.03106	0.00091
305.63	0.02745	0.00082
308.13	0.02484	0.00073
310.63	0.02305	0.00068
313.13	0.01993	0.00061
315.63	0.01733	0.00052
318.13	0.01587	0.00047
320.63	0.01398	0.00042
323.13	0.01251	0.00038

System: 1-methyl-1-octylpiperidin-1-ium octyl phosphonate; phases: Liquid
Fixed: Pressure, kPa = 101.325
Property: Electrical conductivity, S/m (Liquid); method: Alternating current cell with electrodes
Temperature, K	Electrical conductivity, S/m	uncertainty
293.18	0.03	0.001
295.63	0.032	0.001
298.13	0.033	0.001
300.63	0.034	0.001
303.13	0.036	0.002
305.63	0.037	0.002
308.13	0.039	0.002
310.63	0.04	0.002
313.13	0.042	0.002
315.63	0.044	0.002
318.13	0.046	0.002
320.63	0.048	0.002
323.13	0.05	0.002
