Measured thermophysical data. Measurement and Correlation for the Solid Solubility of Antioxidants d-Isoascorbic Acid and Calcium l-Ascorbate Dihydrate in Supercritical Carbon Dioxide
Source: J. Chem. Eng. Data, 2014, 10.1021/je400369n
Compound 1: D-isoascorbic acid, C6H8O6, InChI=1S/C6H8O6/c7-1-2(8)5-3(9)4(10)6(11)12-5/h2,5,7-10H,1H2/t2-,5-/m1/s1, purity 98%
Compound 2: carbon dioxide, CO2, InChI=1S/CO2/c2-1-3, purity 99.5%
Compound 3: calcium L-ascorbate dihydrate, C12H18CaO14, InChI=1S/2C6H8O6.Ca.2H2O/c2*7-1-2(8)5-3(9)4(10)6(11)12-5;;;/h2*2,5,7-10H,1H2;;2*1H2/q;;+2;;/p-2/t2*2-,5+;;;/m00.../s1, purity 98%

System: D-isoascorbic acid + carbon dioxide; phases: Fluid (supercritical or subcritical phases), Crystal
Property: Mole fraction of D-isoascorbic acid (Fluid (supercritical or subcritical phases)); method: solubilty from gas volume and solute amount
Temperature, K	Pressure, kPa	Mole fraction of D-isoascorbic acid	uncertainty
308.2	12000	2.633e-07	1.41e-08
308.2	14000	3.294e-07	1.41e-08
308.2	16000	3.509e-07	1.41e-08
308.2	18000	3.906e-07	1.41e-08
308.2	20000	4.391e-07	1.41e-08
308.2	22000	4.627e-07	1.41e-08
308.2	24000	4.888e-07	1.41e-08
313.2	12000	2.152e-07	1.4e-08
313.2	14000	2.756e-07	1.41e-08
313.2	16000	3.387e-07	1.41e-08
313.2	18000	3.922e-07	1.41e-08
313.2	20000	4.511e-07	1.41e-08
313.2	22000	4.789e-07	1.41e-08
313.2	24000	5.018e-07	1.41e-08
318.2	12000	1.404e-07	1.4e-08
318.2	14000	2.354e-07	1.4e-08
318.2	16000	3.006e-07	1.41e-08
318.2	18000	3.831e-07	1.41e-08
318.2	20000	4.491e-07	1.41e-08
318.2	22000	4.898e-07	1.41e-08
318.2	24000	5.496e-07	1.41e-08

System: carbon dioxide + calcium L-ascorbate dihydrate; phases: Fluid (supercritical or subcritical phases), Crystal
Property: Mole fraction of calcium L-ascorbate dihydrate (Fluid (supercritical or subcritical phases)); method: solubilty from gas volume and solute amount
Temperature, K	Pressure, kPa	Mole fraction of calcium L-ascorbate dihydrate	uncertainty
313.15	12000	3.887e-08	3.78e-09
313.15	14000	4.397e-08	3.78e-09
313.15	16000	4.87e-08	3.8e-09
313.15	18000	5.206e-08	3.78e-09
313.15	20000	5.913e-08	3.78e-09
313.15	22000	6.223e-08	3.78e-09
313.15	24000	6.628e-08	3.78e-09
318.15	12000	4.117e-08	3.78e-09
318.15	14000	5.185e-08	3.78e-09
318.15	16000	6.188e-08	3.78e-09
318.15	18000	7.087e-08	3.78e-09
318.15	20000	7.915e-08	3.79e-09
318.15	22000	8.43e-08	3.79e-09
318.15	24000	9.241e-08	3.79e-09
323.15	12000	4.452e-08	3.78e-09
323.15	14000	6.75e-08	3.78e-09
323.15	16000	7.589e-08	3.79e-09
323.15	18000	8.777e-08	3.79e-09
323.15	20000	1.009e-07	3.8e-09
323.15	22000	1.109e-07	3.8e-09
323.15	24000	1.262e-07	3.8e-09
