Measured thermophysical data. Solubility of 3,4-Bis(3-nitrofurazan-4-yl)furoxan in Common Solvents at Temperatures between 293.15 K and 313.15 K
Source: J. Chem. Eng. Data, 2013, 10.1021/je4005992
Compound 1: 3,4-bis(3-nitrofurazan-4-yl)furoxan, C6N8O8, InChI=1S/C6N8O8/c15-12(16)5-2(7-20-10-5)1-4(14(19)22-9-1)3-6(13(17)18)11-21-8-3, purity 99.4%
Compound 2: dichloromethane, CH2Cl2, InChI=1S/CH2Cl2/c2-1-3/h1H2, purity 99.5%
Compound 3: ethanol, C2H6O, InChI=1S/C2H6O/c1-2-3/h3H,2H2,1H3, purity 99.7%
Compound 4: ethyl acetate, C4H8O2, InChI=1S/C4H8O2/c1-3-6-4(2)5/h3H2,1-2H3, purity 99.5%
Compound 5: methanol, CH4O, InChI=1S/CH4O/c1-2/h2H,1H3, purity 99.5%
Compound 6: trichloromethane, CHCl3, InChI=1S/CHCl3/c2-1(3)4/h1H, purity 99.5%
Compound 7: water, H2O, InChI=1S/H2O/h1H2, purity 99.8%

System: water + 3,4-bis(3-nitrofurazan-4-yl)furoxan; phases: Liquid, Crystal
Fixed: Pressure, kPa = 101
Property: Mole fraction of 3,4-bis(3-nitrofurazan-4-yl)furoxan (Liquid); method: Chromatography
Temperature, K	Mole fraction of 3,4-bis(3-nitrofurazan-4-yl)furoxan	uncertainty
298.15	1.24836e-06	1.1486e-07
303.15	2.08252e-06	1.8685e-07
308.15	3.05167e-06	2.7356e-07
313.15	4.65826e-06	4.1756e-07
318.15	6.97959e-06	6.2145e-07

System: dichloromethane + 3,4-bis(3-nitrofurazan-4-yl)furoxan; phases: Liquid, Crystal
Fixed: Pressure, kPa = 101
Property: Mole fraction of 3,4-bis(3-nitrofurazan-4-yl)furoxan (Liquid); method: Chromatography
Temperature, K	Mole fraction of 3,4-bis(3-nitrofurazan-4-yl)furoxan	uncertainty
298.15	0.00586643	0.00048197
303.15	0.00835691	0.00068247
308.15	0.0118844	0.0009805
313.15	0.0193951	0.0015836
318.15	0.0257207	0.0020833

System: ethanol + 3,4-bis(3-nitrofurazan-4-yl)furoxan; phases: Liquid, Crystal
Fixed: Pressure, kPa = 101
Property: Mole fraction of 3,4-bis(3-nitrofurazan-4-yl)furoxan (Liquid); method: Chromatography
Temperature, K	Mole fraction of 3,4-bis(3-nitrofurazan-4-yl)furoxan	uncertainty
298.15	0.00374638	0.00031652
303.15	0.00590213	0.00048465
308.15	0.00715981	0.00059017
313.15	0.010769	0.000885
318.15	0.0135733	0.0011094

System: ethyl acetate + 3,4-bis(3-nitrofurazan-4-yl)furoxan; phases: Liquid, Crystal
Fixed: Pressure, kPa = 101
Property: Mole fraction of 3,4-bis(3-nitrofurazan-4-yl)furoxan (Liquid); method: Chromatography
Temperature, K	Mole fraction of 3,4-bis(3-nitrofurazan-4-yl)furoxan	uncertainty
298.15	0.0590265	0.0048831
303.15	0.087797	0.0071263
308.15	0.107174	0.00868
313.15	0.138312	0.011225
318.15	0.179883	0.01458

System: methanol + 3,4-bis(3-nitrofurazan-4-yl)furoxan; phases: Liquid, Crystal
Fixed: Pressure, kPa = 101
Property: Mole fraction of 3,4-bis(3-nitrofurazan-4-yl)furoxan (Liquid); method: Chromatography
Temperature, K	Mole fraction of 3,4-bis(3-nitrofurazan-4-yl)furoxan	uncertainty
298.15	0.0144417	0.0011991
303.15	0.0171022	0.0014177
308.15	0.0191423	0.001585
313.15	0.0204818	0.001696
318.15	0.0226801	0.0018788

System: trichloromethane + 3,4-bis(3-nitrofurazan-4-yl)furoxan; phases: Liquid, Crystal
Fixed: Pressure, kPa = 101
Property: Mole fraction of 3,4-bis(3-nitrofurazan-4-yl)furoxan (Liquid); method: Chromatography
Temperature, K	Mole fraction of 3,4-bis(3-nitrofurazan-4-yl)furoxan	uncertainty
298.15	0.00503899	0.00041042
303.15	0.00683307	0.00055291
308.15	0.00872524	0.00070909
313.15	0.0125756	0.0010187
318.15	0.0159181	0.0012836
