Measured thermophysical data. Dissociation Constants and Solubilities of Daidzein and Genistein in Different Solvents
Source: J. Chem. Eng. Data, 2014, 10.1021/je4010905
Compound 1: daidzein, C15H10O4, InChI=1S/C15H10O4/c16-10-3-1-9(2-4-10)13-8-19-14-7-11(17)5-6-12(14)15(13)18/h1-8,16-17H, purity 99.5%
Compound 2: water, H2O, InChI=1S/H2O/h1H2, purity 99.8%
Compound 3: trichloromethane, CHCl3, InChI=1S/CHCl3/c2-1(3)4/h1H, purity 99.7%
Compound 4: hexane, C6H14, InChI=1S/C6H14/c1-3-5-6-4-2/h3-6H2,1-2H3, purity 97%
Compound 5: methanol, CH4O, InChI=1S/CH4O/c1-2/h2H,1H3, purity 99.8%
Compound 6: ethyl acetate, C4H8O2, InChI=1S/C4H8O2/c1-3-6-4(2)5/h3H2,1-2H3, purity 99.8%
Compound 7: acetone, C3H6O, InChI=1S/C3H6O/c1-3(2)4/h1-2H3, purity 99.5%
Compound 8: 5,7-dihydroxy-3-(4-hydroxyphenyl)-4H-chromen-4-one, C15H10O5, InChI=1S/C15H10O5/c16-9-3-1-8(2-4-9)11-7-20-13-6-10(17)5-12(18)14(13)15(11)19/h1-7,16-18H, purity 99.5%

System: daidzein + water; phases: Liquid, Crystal
Fixed: Pressure, kPa = 101
Property: Mole fraction of daidzein (Liquid); method: Spectra
Temperature, K	Mole fraction of daidzein	uncertainty
288.2	5.643e-08	8.98e-09
293.2	6.089e-08	9.72e-09
298.2	9.592e-08	1.542e-08
303.2	1.6966e-07	2.71e-08
308.2	2.1345e-07	3.4e-08
313.2	2.4696e-07	3.932e-08
318.2	2.8033e-07	4.462e-08
323.2	3.0786e-07	4.901e-08
328.2	3.6623e-07	5.832e-08

System: trichloromethane + daidzein; phases: Liquid, Crystal
Fixed: Pressure, kPa = 101
Property: Mole fraction of daidzein (Liquid); method: Spectra
Temperature, K	Mole fraction of daidzein	uncertainty
288.2	1.3689e-06	2.18e-07
293.2	1.6066e-06	2.558e-07
298.2	1.8796e-06	2.994e-07
303.2	2.2653e-06	3.61e-07
308.2	2.8769e-06	4.582e-07
313.2	3.3013e-06	5.257e-07
318.2	3.9001e-06	6.21e-07
323.2	4.463e-06	7.112e-07
328.2	5.8207e-06	9.277e-07

System: hexane + daidzein; phases: Liquid, Crystal
Fixed: Pressure, kPa = 101
Property: Mole fraction of daidzein (Liquid); method: Spectra
Temperature, K	Mole fraction of daidzein	uncertainty
288.2	1.6116e-06	2.573e-07
293.2	2.1536e-06	3.435e-07
298.2	2.8293e-06	4.509e-07
303.2	3.4207e-06	5.447e-07
308.2	3.9185e-06	6.238e-07
313.2	4.4732e-06	7.121e-07
318.2	4.9778e-06	7.923e-07
323.2	5.4058e-06	8.603e-07
328.2	5.8935e-06	9.379e-07

System: methanol + daidzein; phases: Liquid, Crystal
Fixed: Pressure, kPa = 101
Property: Mole fraction of daidzein (Liquid); method: Spectra
Temperature, K	Mole fraction of daidzein	uncertainty
288.2	0.0001626	2.588e-05
293.2	0.00017874	2.845e-05
298.2	0.0002019	3.217e-05
303.2	0.00026481	4.219e-05
308.2	0.00030599	4.871e-05
313.2	0.00034182	5.443e-05
318.2	0.0004112	6.548e-05
323.2	0.00046654	7.426e-05
328.2	0.00050941	8.107e-05

System: ethyl acetate + daidzein; phases: Liquid, Crystal
Fixed: Pressure, kPa = 101
Property: Mole fraction of daidzein (Liquid); method: Spectra
Temperature, K	Mole fraction of daidzein	uncertainty
288.2	6.956e-05	1.107e-05
293.2	7.875e-05	1.253e-05
298.2	8.381e-05	1.334e-05
303.2	9.124e-05	1.453e-05
308.2	0.00011788	1.878e-05
313.2	0.00013793	2.198e-05
318.2	0.00017798	2.837e-05
323.2	0.00022451	3.579e-05
328.2	0.00028931	4.611e-05

System: acetone + daidzein; phases: Liquid, Crystal
Fixed: Pressure, kPa = 101
Property: Mole fraction of daidzein (Liquid); method: Spectra
Temperature, K	Mole fraction of daidzein	uncertainty
288.2	0.0064903	0.001033
293.2	0.007095	0.0011294
298.2	0.0082268	0.0013096
303.2	0.0090305	0.0014372
308.2	0.0097858	0.0015574
313.2	0.0105405	0.0016775
318.2	0.0115761	0.0018421
323.2	0.0119538	0.0019021
328.2	0.0123739	0.0019689

System: 5,7-dihydroxy-3-(4-hydroxyphenyl)-4H-chromen-4-one + water; phases: Liquid, Crystal
Fixed: Pressure, kPa = 101
Property: Mole fraction of 5,7-dihydroxy-3-(4-hydroxyphenyl)-4H-chromen-4-one (Liquid); method: Spectra
Temperature, K	Mole fraction of 5,7-dihydroxy-3-(4-hydroxyphenyl)-4H-chromen-4-one	uncertainty
288.2	4.724e-08	7.57e-09
293.2	6.95e-08	1.108e-08
298.2	8.46e-08	1.348e-08
303.2	1.0456e-07	1.666e-08
308.2	1.2525e-07	1.997e-08
313.2	1.674e-07	2.668e-08
318.2	1.994e-07	3.179e-08
323.2	2.7024e-07	4.313e-08
328.2	3.6825e-07	5.872e-08

System: trichloromethane + 5,7-dihydroxy-3-(4-hydroxyphenyl)-4H-chromen-4-one; phases: Liquid, Crystal
Fixed: Pressure, kPa = 101
Property: Mole fraction of 5,7-dihydroxy-3-(4-hydroxyphenyl)-4H-chromen-4-one (Liquid); method: Spectra
Temperature, K	Mole fraction of 5,7-dihydroxy-3-(4-hydroxyphenyl)-4H-chromen-4-one	uncertainty
288.2	2.4062e-06	3.832e-07
293.2	2.8191e-06	4.489e-07
298.2	3.2227e-06	5.13e-07
303.2	3.6005e-06	5.731e-07
308.2	3.9892e-06	6.349e-07
313.2	4.3558e-06	6.931e-07
318.2	4.5058e-06	7.17e-07
323.2	4.6983e-06	7.476e-07
328.2	4.7391e-06	7.541e-07

System: hexane + 5,7-dihydroxy-3-(4-hydroxyphenyl)-4H-chromen-4-one; phases: Liquid, Crystal
Fixed: Pressure, kPa = 101
Property: Mole fraction of 5,7-dihydroxy-3-(4-hydroxyphenyl)-4H-chromen-4-one (Liquid); method: Spectra
Temperature, K	Mole fraction of 5,7-dihydroxy-3-(4-hydroxyphenyl)-4H-chromen-4-one	uncertainty
288.2	6.9588e-06	1.1082e-06
293.2	8.1186e-06	1.2924e-06
298.2	8.9955e-06	1.4318e-06
303.2	1.00625e-05	1.6015e-06
308.2	1.08832e-05	1.7319e-06
313.2	1.14448e-05	1.8213e-06
318.2	1.24016e-05	1.9735e-06
323.2	1.30172e-05	2.0715e-06
328.2	1.40841e-05	2.2414e-06

System: methanol + 5,7-dihydroxy-3-(4-hydroxyphenyl)-4H-chromen-4-one; phases: Liquid, Crystal
Fixed: Pressure, kPa = 101
Property: Mole fraction of 5,7-dihydroxy-3-(4-hydroxyphenyl)-4H-chromen-4-one (Liquid); method: Spectra
Temperature, K	Mole fraction of 5,7-dihydroxy-3-(4-hydroxyphenyl)-4H-chromen-4-one	uncertainty
288.2	0.0009353	0.0001494
293.2	0.0012737	0.0002029
298.2	0.0014511	0.000231
303.2	0.001629	0.0002594
308.2	0.0019151	0.0003049
313.2	0.0021203	0.0003377
318.2	0.0026596	0.0004238
323.2	0.0032342	0.000515
328.2	0.0037184	0.000592

System: ethyl acetate + 5,7-dihydroxy-3-(4-hydroxyphenyl)-4H-chromen-4-one; phases: Liquid, Crystal
Fixed: Pressure, kPa = 101
Property: Mole fraction of 5,7-dihydroxy-3-(4-hydroxyphenyl)-4H-chromen-4-one (Liquid); method: Spectra
Temperature, K	Mole fraction of 5,7-dihydroxy-3-(4-hydroxyphenyl)-4H-chromen-4-one	uncertainty
288.2	0.0018289	0.0002914
293.2	0.0021963	0.0003497
298.2	0.0024105	0.0003837
303.2	0.0027274	0.0004344
308.2	0.0033467	0.0005328
313.2	0.0036723	0.0005845
318.2	0.0041278	0.0006571
323.2	0.0047129	0.0007503
328.2	0.0053946	0.0008588

System: acetone + 5,7-dihydroxy-3-(4-hydroxyphenyl)-4H-chromen-4-one; phases: Liquid, Crystal
Fixed: Pressure, kPa = 101
Property: Mole fraction of 5,7-dihydroxy-3-(4-hydroxyphenyl)-4H-chromen-4-one (Liquid); method: Spectra
Temperature, K	Mole fraction of 5,7-dihydroxy-3-(4-hydroxyphenyl)-4H-chromen-4-one	uncertainty
288.2	0.0047717	0.0007595
293.2	0.0052626	0.0008378
298.2	0.0060714	0.0009667
303.2	0.0070012	0.0011144
308.2	0.0075387	0.0011997
313.2	0.0080502	0.0012811
318.2	0.0085632	0.0013626
323.2	0.0087919	0.0013989
328.2	0.0089043	0.0014168
