Measured thermophysical data. High-Pressure Physicochemical Properties of Ethyl Caprylate and Ethyl Caprate
Source: J. Chem. Eng. Data, 2013, 10.1021/je400157s
Compound 1: ethyl octanoate, C10H20O2, InChI=1S/C10H20O2/c1-3-5-6-7-8-9-10(11)12-4-2/h3-9H2,1-2H3, purity 99.5%
Compound 2: ethyl decanoate, C12H24O2, InChI=1S/C12H24O2/c1-3-5-6-7-8-9-10-11-12(13)14-4-2/h3-11H2,1-2H3, purity 99.5%

System: ethyl octanoate; phases: Liquid
Property: Speed of sound, m/s (Liquid); method: Pulse-echo method
Temperature, K	Pressure, kPa	Speed of sound, m/s	uncertainty
292.94	100	1281.78	1.32
292.92	15200	1358.96	2.18
292.92	30390	1426.66	2.21
292.91	45590	1484.68	2.24
292.91	60790	1539.15	2.28
292.91	75990	1589.96	2.32
292.91	91180	1638.26	2.36
292.9	101320	1668.8	2.39
298.22	100	1261.46	1.32
298.22	15200	1340.79	2.19
298.21	30390	1407.87	2.22
298.2	45590	1468.7	2.25
298.2	60790	1523.7	2.28
298.2	75990	1574.95	2.32
298.2	91180	1623.92	2.36
298.21	101320	1654.14	2.38
303.2	100	1242.48	1.32
303.14	15200	1324.21	2.19
303.14	30390	1391.85	2.21
303.13	45590	1453.63	2.25
303.13	60790	1509.14	2.28
303.13	75990	1561.43	2.32
303.13	91180	1610.08	2.36
303.13	101320	1639.9	2.38
308.17	100	1223.64	1.31
308.11	15200	1307.5	2.19
308.11	30390	1376.3	2.21
308.11	45590	1438.66	2.25
308.11	60790	1494.89	2.28
308.11	75990	1547.22	2.32
308.11	91180	1596.51	2.36
308.11	101320	1627.66	2.39
313.15	100	1204.97	1.31
313.11	15200	1290.2	2.19
313.11	30390	1360.2	2.21
313.11	45590	1423.12	2.25
313.09	60800	1480.45	2.28
313.1	75990	1533.04	2.32
313.09	91180	1582.85	2.37
313.1	101320	1614.81	2.4
318.32	100	1185.71	1.31
318.26	15200	1273	2.2
318.24	30390	1343.93	2.22
318.26	45590	1407.41	2.25
318.26	60800	1466.05	2.29
318.26	75990	1519.38	2.32
318.26	91180	1569.61	2.37
318.27	101320	1601.6	2.4

System: ethyl octanoate; phases: Liquid
Fixed: Pressure, kPa = 101.325
Property: Mass density, kg/m3 (Liquid); method: Vibrating tube method
Temperature, K	Mass density, kg/m3	uncertainty
278.15	879.5	0.17
283.15	875.22	0.17
288.15	870.94	0.17
293.15	866.65	0.17
298.15	862.36	0.17
303.15	858.07	0.17
308.15	853.76	0.17
313.15	849.46	0.18
318.15	845.14	0.18
323.15	840.81	0.18
328.15	836.47	0.18
333.15	832.12	0.18
338.15	827.76	0.18
343.15	823.39	0.18
348.15	819	0.18
353.15	814.59	0.18
358.15	810.17	0.18

System: ethyl octanoate; phases: Liquid
Fixed: Pressure, kPa = 101.325
Property: Molar heat capacity at constant pressure, J/K/mol (Liquid); method: Small sample (50 mg) DSC
Temperature, K	Molar heat capacity at constant pressure, J/K/mol	uncertainty
285.01	338.00233376	5.23687424
288.16	339.38045856	5.2541008
293.15	341.085888	5.28855392
298.15	343.11862208	5.32300704
303.16	345.3063952	5.35746016
308.15	347.47694176	5.37468672
313.15	349.66471488	5.40913984
318.16	351.95584736	5.46081952
323.15	354.3503392	5.49527264
328.14	356.89987008	5.52972576
333.15	358.94983072	5.56417888
338.15	361.55104128	5.598632
343.16	363.70436128	5.63308512
343.78	364.29006432	5.65031168

System: ethyl decanoate; phases: Liquid
Property: Speed of sound, m/s (Liquid); method: Pulse-echo method
Temperature, K	Pressure, kPa	Speed of sound, m/s	uncertainty
292.92	100	1313.79	1.33
292.91	15200	1389.41	2.18
292.9	30390	1453.47	2.21
292.9	45590	1511.65	2.25
292.9	60790	1565.94	2.28
292.9	75990	1616.66	2.32
292.91	91180	1664.29	2.36
292.9	101320	1693.93	2.38
298.18	100	1293.91	1.32
298.18	15200	1370.56	2.19
298.17	30390	1436.06	2.22
298.17	45590	1494.88	2.25
298.17	60790	1549.43	2.29
298.17	75990	1601.26	2.32
298.17	91180	1648.56	2.36
298.17	101320	1678.78	2.39
303.16	100	1275.23	1.32
303.17	15200	1353.08	2.19
303.16	30390	1419.13	2.22
303.16	45590	1479.56	2.25
303.16	60790	1534.66	2.28
303.16	75990	1586.89	2.32
303.16	91180	1634.96	2.36
303.16	101320	1665.86	2.39
308.14	100	1256.76	1.32
308.14	15200	1335.4	2.19
308.14	30390	1403.03	2.22
308.13	45590	1464.56	2.25
308.14	60790	1520.06	2.28
308.13	75990	1572.07	2.32
308.14	91180	1621.75	2.37
308.13	101320	1652.91	2.39
313.11	100	1238.5	1.31
313.11	15200	1318.7	2.19
313.1	30390	1387.45	2.21
313.09	45590	1449.78	2.25
313.1	60790	1506.18	2.28
313.09	75990	1559.16	2.32
313.09	91180	1608.6	2.36
313.09	101320	1638.96	2.39
318.28	100	1219.66	1.31
318.27	15200	1301.59	2.2
318.27	30390	1371.72	2.22
318.27	45590	1434.89	2.25
318.27	60790	1491.63	2.29
318.26	75990	1544.9	2.33
318.26	91180	1594.65	2.37
318.26	101320	1626.53	2.39

System: ethyl decanoate; phases: Liquid
Fixed: Pressure, kPa = 101.325
Property: Mass density, kg/m3 (Liquid); method: Vibrating tube method
Temperature, K	Mass density, kg/m3	uncertainty
283.15	872.11	0.17
288.15	868.06	0.17
293.15	864	0.17
298.15	859.94	0.17
303.15	855.88	0.17
308.14	851.82	0.17
313.14	847.75	0.17
318.15	843.68	0.17
323.15	839.6	0.18
328.15	835.52	0.18
333.15	831.43	0.18
338.14	827.33	0.18
343.15	823.23	0.18
348.15	819.11	0.18
353.14	814.99	0.18

System: ethyl decanoate; phases: Liquid
Fixed: Pressure, kPa = 101.325
Property: Molar heat capacity at constant pressure, J/K/mol (Liquid); method: Small sample (50 mg) DSC
Temperature, K	Molar heat capacity at constant pressure, J/K/mol	uncertainty
286.16	397.733271254	6.1698235984
288.15	398.534547046	6.1698235984
293.15	400.8782787376	6.209887388
298.15	403.342201798	6.2499511776
303.16	405.6659015948	6.2900149672
308.16	408.1698884448	6.3300787568
313.16	410.9342899272	6.3701425464
318.15	413.6385957252	6.410206336
323.15	416.5231885764	6.4502701256
328.16	419.5480046912	6.4903339152
333.14	422.3124061736	6.5504295996
338.15	425.4574136572	6.5904933892
341.11	427.3604436632	6.6305571788
