Measured thermophysical data. Measurements of Liquid Liquid Equilibria for the Quaternary System 2-Methoxy-2-methylpropane + Phenol + Hydroquinone + Water at 313.15 K
Source: J. Chem. Eng. Data, 2013, 10.1021/je400488x
Compound 1: 2-methoxy-2-methylpropane, C5H12O, InChI=1S/C5H12O/c1-5(2,3)6-4/h1-4H3, purity 99%
Compound 2: 1,4-benzenediol, C6H6O2, InChI=1S/C6H6O2/c7-5-1-2-6(8)4-3-5/h1-4,7-8H, purity 99%
Compound 3: water, H2O, InChI=1S/H2O/h1H2, purity 99.9%

System: 2-methoxy-2-methylpropane; phases: Liquid
Property: Mass density, kg/m3 (Liquid); method: Vibrating tube method
Temperature, K	Pressure, kPa	Mass density, kg/m3	uncertainty
293.15	101.325	739.8	0.4

System: 2-methoxy-2-methylpropane; phases: Liquid
Property: Refractive index (Na D-line) (Liquid); method: Standard Abbe refractometry
Temperature, K	Pressure, kPa	Refractive index (Na D-line)	uncertainty
298.15	101.325	1.3689	0.0005

System: 1,4-benzenediol; phases: Liquid
Property: Mass density, kg/m3 (Liquid); method: Vibrating tube method
Temperature, K	Pressure, kPa	Mass density, kg/m3	uncertainty
293.15	101.325	1328	1

System: 1,4-benzenediol + 2-methoxy-2-methylpropane + water; phases: Liquid mixture 2, Liquid mixture 1
Fixed: Temperature, K = 313.15
Fixed: Pressure, kPa = 101
Property: Mole fraction of 1,4-benzenediol (Liquid mixture 2); method: Chromatography
Property: Mole fraction of 1,4-benzenediol (Liquid mixture 1); method: Chromatography
Property: Mole fraction of 2-methoxy-2-methylpropane (Liquid mixture 1); method: Chromatography
Mole fraction of 2-methoxy-2-methylpropane	Mole fraction of 1,4-benzenediol	uncertainty	Mole fraction of 1,4-benzenediol	uncertainty	Mole fraction of 2-methoxy-2-methylpropane	uncertainty
0.020028	0.002417	0.00084	0.007026	0.001683	0.973476	
0.021448	0.001483	0.00084	0.005971	0.001898	0.975492	
0.022305	0.000705	0.000705	0.004007	0.001523	0.978032	
0.02277	0.000561	0.000561	0.00322	0.001487	0.979933	
0.023573	0.000402	0.000402	0.002691	0.001301	0.981121	
0.023774	0.000369	0.000369	0.002281	0.001469	0.981974	
0.024067	0.000356	0.000356	0.002205	0.001468	0.982062	
0.024456	0.000252	0.000252	0.001547	0.001364	0.983464	
0.025	0		0		0.9853	
