Measured thermophysical data. Solubility of 2,3,5,6-Tetrachloropyridine in Supercritical CO2: Measurement and Correlation
Source: J. Chem. Eng. Data, 2014, 10.1021/je400462d
Compound 1: 2,3,5,6-tetrachloropyridine, C5HCl4N, InChI=1S/C5HCl4N/c6-2-1-3(7)5(9)10-4(2)8/h1H, purity 99%
Compound 2: carbon dioxide, CO2, InChI=1S/CO2/c2-1-3, purity 99.9%

System: carbon dioxide + 2,3,5,6-tetrachloropyridine; phases: Fluid (supercritical or subcritical phases), Crystal
Property: Mole fraction of 2,3,5,6-tetrachloropyridine (Fluid (supercritical or subcritical phases)); method: UV Spectrophotometry
Temperature, K	Pressure, kPa	Mole fraction of 2,3,5,6-tetrachloropyridine	uncertainty
313.15	10000	0.00351	0.00048
313.15	12000	0.00541	0.00054
313.15	14000	0.00706	0.00045
313.15	16000	0.00795	0.00038
313.15	18000	0.00895	0.00046
313.15	20000	0.00998	0.00032
313.15	24000	0.01088	0.00028
323.15	10000	0.00065	0.0002
323.15	12000	0.0023	0.00044
323.15	14000	0.00359	0.00045
323.15	16000	0.00483	0.00042
323.15	18000	0.00569	0.0003
323.15	20000	0.00613	0.00025
323.15	24000	0.00728	0.00046
333.15	10000	0.00035	0.00013
333.15	12000	0.00088	0.0002
333.15	14000	0.00167	0.00029
333.15	16000	0.00251	0.00031
333.15	18000	0.00322	0.00029
333.15	20000	0.00377	0.00027
333.15	24000	0.00482	0.00032
