Measured thermophysical data. Vapor Liquid Phase Equilibrium Data of CO2 in Some Physical Solvents from 285.19 K to 313.26 K
Source: J. Chem. Eng. Data, 2014, 10.1021/je400985u
Compound 1: carbon dioxide, CO2, InChI=1S/CO2/c2-1-3
Compound 2: octamethylcyclotetrasiloxane, C8H24O4Si4, InChI=1S/C8H24O4Si4/c1-13(2)9-14(3,4)11-16(7,8)12-15(5,6)10-13/h1-8H3, purity 99.9%
Compound 3: diethyl butanedioate, C8H14O4, InChI=1S/C8H14O4/c1-3-11-7(9)5-6-8(10)12-4-2/h3-6H2,1-2H3, purity 99.9%

System: carbon dioxide + octamethylcyclotetrasiloxane; phases: Liquid, Gas
Property: Mole fraction of carbon dioxide (Liquid); method: pressure drop and mass balance
Temperature, K	Pressure, kPa of carbon dioxide	Mole fraction of carbon dioxide	uncertainty
285.19	81.8	0.0275	0.0021
285.19	132.4	0.0445	0.0021
285.19	189.9	0.0605	0.0021
285.19	210.2	0.0707	0.0024
285.19	255.6	0.0859	0.0028
285.19	326.9	0.1099	0.0036
285.19	393.7	0.1257	0.0041
285.19	433	0.1456	0.0047
291.43	91.6	0.0277	0.0021
291.43	135.5	0.0411	0.0021
291.43	188.2	0.0569	0.0021
291.43	241.3	0.0732	0.0024
291.43	271.2	0.0821	0.0027
291.43	336.4	0.1018	0.0033
291.43	399.8	0.1209	0.0039
291.43	448.5	0.1357	0.0044
291.43	499.2	0.1506	0.0049
299.56	89.1	0.0243	0.0021
299.56	140.6	0.0383	0.0021
299.56	188.7	0.0487	0.0021
299.56	224.9	0.0613	0.0021
299.56	286.5	0.0781	0.0025
299.56	451.9	0.1149	0.0037
299.56	604.3	0.1647	0.0053
299.56	746.6	0.1953	0.0063
299.56	853.8	0.2327	0.0074
304.37	77.3	0.0199	0.002
304.37	133.6	0.0319	0.0021
304.37	169.9	0.0438	0.0021
304.37	242.7	0.0601	0.0021
304.37	273.8	0.0707	0.0023
304.37	362.1	0.0883	0.0029
304.37	444.9	0.1097	0.0035
304.37	560.4	0.1446	0.0047
304.37	694.1	0.1766	0.0057
313.26	58.33	0.0134	0.002
313.26	151.4	0.0301	0.002
313.26	187.6	0.0407	0.0021
313.26	261.4	0.0529	0.0021
313.26	295.7	0.0677	0.0022
313.26	376.6	0.0862	0.0028
313.26	443.1	0.0946	0.0031
313.26	646.2	0.1479	0.0048
313.26	856.1	0.1915	0.0061
285.19	557.1	0.1873	0.006
285.19	666.5	0.214	0.0069
285.19	746.7	0.2511	0.0081
285.19	864.3	0.2906	0.0094
285.19	1162	0.3907	0.0125
285.19	1440.9	0.4845	0.0155
285.19	1787.4	0.601	0.0192
285.19	2235.1	0.7179	0.0229
291.43	564.6	0.1648	0.0053
291.43	600.6	0.1817	0.0059
291.43	774.2	0.2342	0.0075
291.43	882.2	0.2578	0.0083
291.43	962.3	0.2911	0.0093
291.43	1286.9	0.3893	0.0125
291.43	1553.5	0.4699	0.015
291.43	1998.5	0.5955	0.019
291.43	2463.4	0.7148	0.0228
299.56	929.2	0.2533	0.0081
299.56	1119.2	0.2941	0.0094
299.56	1363.4	0.3716	0.0119
299.56	1608.5	0.4275	0.0137
299.56	1701.7	0.4638	0.0148
299.56	1953.5	0.5324	0.017
299.56	2186.9	0.596	0.019
299.56	2442.3	0.6439	0.0205
299.56	2774.2	0.7288	0.0233
304.37	753.7	0.1945	0.0062
304.37	893.4	0.2306	0.0074
304.37	1127.9	0.2911	0.0093
304.37	1466.3	0.3707	0.0119
304.37	1728.5	0.4358	0.0139
304.37	1970.1	0.5084	0.0162
304.37	2253.5	0.5816	0.0186
304.37	2538.2	0.6448	0.0206
304.37	2836.2	0.7061	0.0225
313.26	1145.7	0.2624	0.0084
313.26	1493.5	0.3283	0.0105
313.26	1653.8	0.3787	0.0121
313.26	1815.2	0.4157	0.0133
313.26	2129.7	0.4877	0.0156
313.26	2452.7	0.5617	0.0179
313.26	2767.8	0.6339	0.0202
313.26	3133.5	0.7085	0.0226
313.26	3482.2	0.7746	0.0247

System: diethyl butanedioate + carbon dioxide; phases: Liquid, Gas
Property: Mole fraction of carbon dioxide (Liquid); method: pressure drop and mass balance
Temperature, K	Pressure, kPa of carbon dioxide	Mole fraction of carbon dioxide	uncertainty
285.19	63.6	0.0143	0.0021
285.19	133.6	0.03	0.002
285.19	199.2	0.0389	0.0021
285.19	273.2	0.0616	0.002
285.19	525.5	0.1067	0.0034
285.19	828.7	0.1868	0.006
285.19	966.2	0.2178	0.007
285.19	1260.9	0.2707	0.0087
285.19	1435.2	0.3236	0.0104
285.19	1724.6	0.3888	0.0125
285.19	1893.5	0.4269	0.0137
285.19	2157.9	0.4865	0.0156
285.19	2414.6	0.5444	0.0175
285.19	2596.2	0.5853	0.0188
285.19	2772.3	0.625	0.0201
285.19	2979.8	0.6718	0.0216
285.19	3378.4	0.7391	0.0237
285.19	3565.3	0.7812	0.025
291.43	139.7	0.0273	0.002
291.43	176.2	0.0345	0.002
291.43	228.1	0.0407	0.002
291.43	272.2	0.0532	0.0021
291.43	463.1	0.0906	0.0029
291.43	807.8	0.1522	0.0049
291.43	1002.7	0.1962	0.0063
291.43	1337.6	0.2539	0.0082
291.43	1605.2	0.2945	0.0095
291.43	1843.1	0.3607	0.0116
291.43	2023.5	0.3959	0.0127
291.43	2341.4	0.4581	0.0147
291.43	2561.9	0.5013	0.0161
291.43	2886.5	0.5648	0.0182
291.43	3314.2	0.6485	0.0208
291.43	3595	0.7035	0.0226
291.43	3883.1	0.7499	0.0241
291.43	4212.4	0.8047	0.0258
299.56	178.4	0.0292	0.002
299.56	258.4	0.0424	0.002
299.56	322.7	0.0529	0.002
299.56	485.1	0.0796	0.0026
299.56	522.9	0.0858	0.0028
299.56	636.7	0.1045	0.0034
299.56	723.3	0.1187	0.0038
299.56	954.7	0.1567	0.005
299.56	1408.5	0.218	0.007
299.56	1712.1	0.28098536	0.008987146
299.56	2119.7	0.33967373	0.010907533
299.56	2315.1	0.37994814	0.012213357
299.56	2733.4	0.44859844	0.014413479
299.56	2990.4	0.4907766	0.015750311
299.56	3279.7	0.53825576	0.017287106
299.56	3582.2	0.58790127	0.018880982
299.56	3961.9	0.6338049	0.020340625
299.56	4298.6	0.67921617	0.021804054
304.37	123.1	0.0187	0.002
304.37	255.7	0.0388	0.002
304.37	324.4	0.0492	0.002
304.37	471.1	0.0714	0.0023
304.37	641.5	0.0972	0.0032
304.37	828.9	0.1256	0.004
304.37	1093.3	0.1657	0.0053
304.37	1396.4	0.2117	0.0068
304.37	1718.2	0.2604	0.0083
304.37	2059	0.3121	0.01
304.37	2471.3	0.3746	0.012
304.37	2651.9	0.4019	0.0129
304.37	2957.7	0.4483	0.0144
304.37	3331.8	0.5051	0.0162
304.37	3579.2	0.5425	0.0174
304.37	3794.4	0.5751	0.0184
304.37	4156.8	0.6164	0.0197
304.37	4673.2	0.6932	0.0222
313.26	154.7	0.0201	0.002
313.26	254.4	0.0329	0.002
313.26	453.9	0.0587	0.002
313.26	507.4	0.0656	0.0021
313.26	767.2	0.0863	0.0028
313.26	885.1	0.1144	0.0037
313.26	1244.8	0.1609	0.0052
313.26	1583.1	0.2047	0.0066
313.26	1787.8	0.2311	0.0074
313.26	2043.3	0.2642	0.0085
313.26	2365.1	0.3058	0.0098
313.26	2745.7	0.3421	0.011
313.26	3229.5	0.4175	0.0134
313.26	3732.6	0.4826	0.0155
313.26	4240.1	0.5353	0.0171
313.26	4761.1	0.6156	0.0197
313.26	5450.5	0.6918	0.0221
313.26	5805.8	0.7377	0.0236
