Measured thermophysical data. Bubble-Point Measurements of Eight Binary Mixtures for Organic Rankine Cycle Applications
Source: J. Chem. Eng. Data, 2013, 10.1021/je400251s
Compound 1: 1,1,1,3,3-pentafluoropropane, C3H3F5, InChI=1S/C3H3F5/c4-2(5)1-3(6,7)8/h2H,1H2, purity 98.8%
Compound 2: heptafluoropropyl methyl ether, C4H3F7O, InChI=1S/C4H3F7O/c1-12-4(10,11)2(5,6)3(7,8)9/h1H3, purity 99.5%
Compound 3: dodecafluoro-2-methylpentan-3-one, C6F12O, InChI=1S/C6F12O/c7-2(4(10,11)12,5(13,14)15)1(19)3(8,9)6(16,17)18, purity 99.9%
Compound 4: 1,1-dichloro-1-fluoroethane, C2H3Cl2F, InChI=1S/C2H3Cl2F/c1-2(3,4)5/h1H3, purity 99.8%
Compound 5: trans-1,3,3,3-tetrafluoropropene, C3H2F4, InChI=1S/C3H2F4/c4-2-1-3(5,6)7/h1-2H/b2-1+, purity 99.993%
Compound 6: dimethyl ether, C2H6O, InChI=1S/C2H6O/c1-3-2/h1-2H3, purity 99.9%
Compound 7: butane, C4H10, InChI=1S/C4H10/c1-3-4-2/h3-4H2,1-2H3, purity 99.9%
Compound 8: pentane, C5H12, InChI=1S/C5H12/c1-3-5-4-2/h3-5H2,1-2H3, purity 99%

System: butane + 1,1,1,3,3-pentafluoropropane; phases: Liquid, Gas
Property: Vapor or sublimation pressure, kPa (Liquid); method: Ebulliometric method (Recirculating still)
Temperature, K	Mole fraction of 1,1,1,3,3-pentafluoropropane	Vapor or sublimation pressure, kPa	uncertainty
280	0.278	169	10.59
290	0.278	237.84	10.97
300	0.278	325.02	11.37
310	0.278	437.11	11.81
320	0.278	575.17	15.11
330	0.278	743.89	15.58
330	0.278	743.19	15.56
340	0.278	945.18	16.25
340	0.278	944.9	16.25
350	0.278	1184.87	17.09
360	0.278	1466.18	18.07
370	0.278	1793.14	19.37
380	0.278	2170.37	20.8
279.95	0.692	162.77	12.96
280.02	0.692	163.5	12.96
290	0.692	227.74	13.18
290	0.692	225.74	13.18
300	0.692	309.17	13.43
310	0.692	410.79	13.71
310	0.692	412.18	13.71
320	0.692	541.11	18.74
320	0.692	540.78	18.74
330	0.692	703	19.02
330	0.692	699.5	19.02
330	0.692	699.99	19.02
340	0.692	895.03	19.5
340	0.692	891.58	19.5
340	0.692	890.49	19.5
350	0.692	1125.39	20.08
360	0.692	1396.3	20.94
370	0.692	1714.7	21.93
370	0.692	1714.82	21.93
380	0.692	2084.4	23.3

System: pentane + 1,1-dichloro-1-fluoroethane; phases: Liquid, Gas
Property: Vapor or sublimation pressure, kPa (Liquid); method: Ebulliometric method (Recirculating still)
Temperature, K	Mole fraction of 1,1-dichloro-1-fluoroethane	Vapor or sublimation pressure, kPa	uncertainty
290	0.251	57.38	3.95
300	0.251	82.76	3.98
310	0.251	118.19	4.04
320	0.251	163.6	9.68
320	0.251	162.84	9.68
330	0.251	221.38	9.73
340	0.251	292.55	9.82
350	0.251	380.29	9.94
360	0.251	486.56	10.15
360	0.251	486.72	10.15
370	0.251	613.64	10.42
370	0.251	613.39	10.43
380	0.251	763.21	11.12
289.99	0.695	61.34	4.79
300	0.695	87.13	4.86
300	0.695	88.52	4.87
300	0.695	88.17	4.86
310	0.695	123.13	4.94
310	0.695	122.56	4.94
320	0.695	172.55	12.9
320	0.695	172.24	12.9
330	0.695	232.72	12.98
340	0.695	307.98	13.07
350	0.695	400.91	13.24
360	0.695	513.55	13.47
370	0.695	647.72	13.78
380	0.695	805.84	14.02
380	0.695	806.22	14.03

System: pentane + 1,1,1,3,3-pentafluoropropane; phases: Liquid, Gas
Property: Vapor or sublimation pressure, kPa (Liquid); method: Ebulliometric method (Recirculating still)
Temperature, K	Mole fraction of 1,1,1,3,3-pentafluoropropane	Vapor or sublimation pressure, kPa	uncertainty
290.06	0.342	129.71	6.08
300	0.342	180.22	6.26
310	0.342	248.46	6.49
320	0.342	335.25	11.71
330	0.342	441.45	11.92
330	0.342	441	11.92
340	0.342	569.25	12.21
350	0.342	722.89	12.61
360	0.342	904.42	13.33
370	0.342	1116.46	14.35
370	0.342	1116.3	14.35
380	0.342	1361.73	15.85
290.02	0.776	133.17	6.08
300	0.776	188.67	6.3
300	0.776	189.26	6.48
310	0.776	264.53	11.71
320	0.776	360.29	11.92
330	0.776	480.12	12.09
340	0.776	628.4	12.54
340	0.776	628.26	12.69
350	0.776	808.67	13.51
360	0.776	1025.1	14.71
370	0.776	1282.01	15.91
380	0.776	1584.7	17.69

System: pentane + trans-1,3,3,3-tetrafluoropropene; phases: Liquid, Gas
Property: Vapor or sublimation pressure, kPa (Liquid); method: Ebulliometric method (Recirculating still)
Temperature, K	Mole fraction of trans-1,3,3,3-tetrafluoropropene	Vapor or sublimation pressure, kPa	uncertainty
270	0.303	132.65	10.61
279.95	0.303	181.57	11.93
290	0.303	248.03	14.02
300	0.303	333.56	17.06
310	0.303	426.25	21.24
320	0.303	543.88	27.99
320	0.303	545.02	27.98
330	0.303	682.61	34.31
330	0.303	684.14	34.3
340.07	0.303	846.77	42.14
340	0.303	844.56	42.11
350.07	0.303	1035.01	51.58
350	0.303	1032.23	51.25
360	0.303	1248.92	61.99
370	0.303	1493.52	74.23
380	0.303	1768.9	88.14
269.9	0.732	169.92	10.62
270.01	0.732	170.91	10.62
279.92	0.732	243.14	11
279.99	0.732	243.95	11
290	0.732	338.88	11.57
290	0.732	339.05	11.57
300	0.732	456.49	12.42
300	0.732	458.26	12.43
310	0.732	607.58	13.93
320	0.732	788.44	19.69
320	0.732	790.34	19.7
330	0.732	1006.75	22.42
330	0.732	1010.53	22.46
330	0.732	1010.61	22.46
340	0.732	1266.57	25.9
350	0.732	1572.69	30.68
350	0.732	1572.67	30.68
360	0.732	1927.75	36.63
360	0.732	1927.97	36.63
370	0.732	2337.92	44.11
380	0.732	2805.99	52.94

System: pentane + dimethyl ether; phases: Liquid, Gas
Property: Vapor or sublimation pressure, kPa (Liquid); method: Ebulliometric method (Recirculating still)
Temperature, K	Mole fraction of dimethyl ether	Vapor or sublimation pressure, kPa	uncertainty
280	0.392	185.74	12.35
280	0.392	183.26	12.38
290.03	0.392	241.48	13.11
300	0.392	323.15	14.24
310	0.392	425.98	15.44
310	0.392	423.02	15.46
320	0.392	541.47	18.95
320	0.392	541.88	18.94
330	0.392	663.68	21.45
330	0.392	663.95	21.45
340	0.392	826.04	24.73
340	0.392	826.75	24.73
340	0.392	823.98	24.75
350	0.392	1013.92	28.59
360	0.392	1234.82	33.29
360	0.392	1233.31	33.3
370	0.392	1482.58	38.78
380	0.392	1765.56	45.68
380	0.392	1764.5	45.72
269.99	0.679	187	12.8
280	0.679	264.04	13.18
290	0.679	362.14	14.13
300	0.679	489.02	15.19
310	0.679	630.24	16.55
310	0.679	633.1	16.57
310	0.679	633.53	16.58
320	0.679	811.02	20.03
320	0.679	810.47	20.02
330	0.679	1026.36	23.07
340	0.679	1280.28	26.47
350	0.679	1576.05	30.56
360	0.679	1916.41	35.43
370	0.679	2306.6	41.28
380	0.679	2750.2	47.38

System: pentane + heptafluoropropyl methyl ether; phases: Liquid, Gas
Property: Vapor or sublimation pressure, kPa (Liquid); method: Ebulliometric method (Recirculating still)
Temperature, K	Mole fraction of heptafluoropropyl methyl ether	Vapor or sublimation pressure, kPa	uncertainty
290	0.348	73.77	7.97
300	0.348	105.13	8.18
310	0.348	146.27	8.39
320	0.348	201.14	13.69
320	0.348	202.65	13.69
320	0.348	202.71	13.69
330	0.348	272.38	13.85
340	0.348	359.11	14.03
350	0.348	465.46	14.22
360	0.348	593.87	14.46
360	0.348	593.82	14.46
370	0.348	745.87	14.77
380	0.348	926.33	15.25
269.96	0.667	31.92	7.37
280.07	0.667	49.27	7.46
290	0.667	73.11	7.59
290	0.667	74.92	7.59
299.98	0.667	106.55	7.72
300.08	0.667	104.29	7.7
300	0.667	105.1	7.7
310	0.667	145.44	7.83
310.09	0.667	146.78	7.88
320	0.667	200.18	10.28
330	0.667	271.37	10.41
330	0.667	271.92	10.41
340	0.667	358.65	10.57
339.97	0.667	359.92	10.57
350.03	0.667	469.24	10.79
360.02	0.667	600.52	11.02
370	0.667	755.04	11.34

System: heptafluoropropyl methyl ether + dodecafluoro-2-methylpentan-3-one; phases: Liquid, Gas
Property: Vapor or sublimation pressure, kPa (Liquid); method: Ebulliometric method (Recirculating still)
Temperature, K	Mole fraction of heptafluoropropyl methyl ether	Vapor or sublimation pressure, kPa	uncertainty
290	0.308	41.69	9.07
300	0.308	59.12	9.11
300	0.308	60.24	9.11
310	0.308	86.5	9.18
310	0.308	86.36	9.18
320	0.308	123.22	20.25
320	0.308	121.67	20.25
330	0.308	171.75	20.3
330	0.308	168.96	20.3
340	0.308	232.36	20.34
340	0.308	231.44	20.34
350	0.308	308.13	20.4
350	0.308	307.83	20.4
360	0.308	401.36	20.47
360	0.308	401	20.47
370	0.308	514.45	20.57
380	0.308	650.26	20.73
290	0.701	54.52	6.21
300	0.701	77.69	6.37
310	0.701	107.28	6.56
310	0.701	107.39	6.56
320	0.701	151.44	18.39
330	0.701	207.09	18.47
340	0.701	277.58	18.56
340	0.701	277.54	18.56
350	0.701	365.51	18.67
360	0.701	473.25	18.79
370	0.701	603.39	18.96
380	0.701	758.84	19.18

System: pentane + dodecafluoro-2-methylpentan-3-one; phases: Liquid, Gas
Property: Vapor or sublimation pressure, kPa (Liquid); method: Ebulliometric method (Recirculating still)
Temperature, K	Mole fraction of dodecafluoro-2-methylpentan-3-one	Vapor or sublimation pressure, kPa	uncertainty
290.04	0.178	65.37	7.09
300.04	0.178	95.01	7.27
310.04	0.178	130.6	7.48
320	0.178	180.92	12.81
330.06	0.178	245.3	12.94
329.96	0.178	244.62	12.94
340.02	0.178	324.15	13.12
349.91	0.178	418.66	13.29
349.96	0.178	418.79	13.29
359.97	0.178	534.66	13.51
369.91	0.178	671.37	13.77
300.01	0.406	93.35	4.9
300.06	0.406	93.89	4.9
310.03	0.406	134.11	5.05
310.01	0.406	134.09	5.05
319.99	0.406	184.4	14.9
330.02	0.406	249.02	14.17
340.01	0.406	329.6	14.3
350.04	0.406	428.85	20.7
360	0.406	547.38	14.53
360.02	0.406	547.6	14.5
369.91	0.406	688.71	14.69
