Measured thermophysical data. Vapor Liquid Equilibria for Water + Propylene Glycols Binary Systems: Experimental Data and Regression
Source: J. Chem. Eng. Data, 2014, 10.1021/je4009014
Compound 1: 1,2-propanediol, C3H8O2, InChI=1S/C3H8O2/c1-3(5)2-4/h3-5H,2H2,1H3, purity 99.93%
Compound 2: 4-oxa-1,7-heptanediol, C6H14O3, InChI=1S/C6H14O3/c7-3-1-5-9-6-2-4-8/h7-8H,1-6H2, purity 99.89%
Compound 3: 2-[2-(2-hydroxypropoxy)propoxy]-1-propanol, C9H20O4, InChI=1S/C9H20O4/c1-7(11)5-12-9(3)6-13-8(2)4-10/h7-11H,4-6H2,1-3H3, purity 99.93%
Compound 4: water, H2O, InChI=1S/H2O/h1H2

System: 1,2-propanediol; phases: Liquid, Gas
Property: Vapor or sublimation pressure, kPa (Liquid); method: CCELL:UFactor:4
Temperature, K	Vapor or sublimation pressure, kPa	uncertainty
345.15	0.617	0.046
347.15	0.699	0.051
350.15	0.84	0.06
353.15	1.005	0.088
355.15	1.131	0.078
357.15	1.27	0.088
360.15	1.506	0.094
363.15	1.781	0.1
365.15	1.987	0.161
367.15	2.214	0.089
370.15	2.596	0.094
373.15	3.034	0.1
375.15	3.361	0.104
377.15	3.718	0.108

System: 4-oxa-1,7-heptanediol; phases: Liquid, Gas
Property: Vapor or sublimation pressure, kPa (Liquid); method: CCELL:UFactor:4
Temperature, K	Vapor or sublimation pressure, kPa	uncertainty
365.15	0.406	0.033
367.15	0.453	0.036
370.15	0.532	0.041
373.15	0.623	0.047
375.15	0.692	0.053
377.15	0.767	0.056
380.15	0.894	0.063
383.15	1.039	0.072
385.15	1.146	0.079
387.15	1.264	0.086
390.15	1.461	0.08
393.15	1.684	0.083
397.15	2.029	0.088

System: 2-[2-(2-hydroxypropoxy)propoxy]-1-propanol; phases: Liquid, Gas
Property: Vapor or sublimation pressure, kPa (Liquid); method: CCELL:UFactor:4
Temperature, K	Vapor or sublimation pressure, kPa	uncertainty
340.15	0.019	0.005
350.15	0.04	0.008
355.15	0.055	0.01
360.15	0.076	0.012
370.15	0.141	0.017
375.15	0.189	0.02
377.15	0.212	0.023
380.15	0.251	0.024
385.15	0.33	0.029
390.15	0.43	0.035
395.15	0.556	0.043
400.15	0.714	0.052
405.15	0.909	0.064

System: water; phases: Liquid, Gas
Property: Vapor or sublimation pressure, kPa (Liquid); method: CCELL:UFactor:4
Temperature, K	Vapor or sublimation pressure, kPa	uncertainty
317.15	9.114	0.176
320.15	10.627	0.195
323.15	12.352	0.217
325.15	13.63	0.233
327.15	15.02	0.25
330.15	17.332	0.279
333.15	19.94	0.312
335.15	21.859	0.336
337.15	23.932	0.362
340.15	27.354	0.405
343.15	31.181	0.453
345.15	33.976	0.489
305.15	4.761	0.121
307.15	5.326	0.129
310.15	6.284	0.141
313.15	7.386	0.154
315.15	8.211	0.165
300.15	3.569	0.107

System: 1,2-propanediol + water; phases: Liquid, Gas
Property: Vapor or sublimation pressure, kPa (Liquid); method: CCELL:UFactor:4
Temperature, K	Mole fraction of water	Vapor or sublimation pressure, kPa	uncertainty
345.15	0	0.617	0.046
347.15	0	0.699	0.051
350.15	0	0.84	0.06
353.15	0	1.005	0.088
355.15	0	1.131	0.078
357.15	0	1.27	0.088
360.15	0	1.506	0.094
363.15	0	1.781	0.1
365.15	0	1.987	0.161
367.15	0	2.214	0.089
370.15	0	2.596	0.094
373.15	0	3.034	0.1
375.15	0	3.361	0.104
377.15	0	3.718	0.108
347.15	0.271	11.271	0.203
350.15	0.271	12.925	0.223
353.15	0.271	14.745	0.246
355.15	0.271	15.998	0.262
357.15	0.271	17.208	0.282
360.15	0.271	19.141	0.301
363.15	0.271	21.614	0.332
365.15	0.271	23.607	0.357
367.15	0.271	25.383	0.379
370.15	0.271	28.064	0.412
373.15	0.271	31.259	0.452
375.15	0.271	33.619	0.482
330.15	0.503	9.318	0.21
333.15	0.503	10.697	0.213
335.15	0.503	11.712	0.217
337.15	0.503	12.813	0.222
340.15	0.503	14.69	0.252
343.15	0.503	16.873	0.272
345.15	0.503	18.472	0.292
347.15	0.503	20.206	0.314
350.15	0.503	22.916	0.348
353.15	0.503	25.779	0.383
355.15	0.503	27.876	0.41
360.15	0.503	34.149	0.488
323.15	0.7012	9.025	0.175
325.15	0.7012	9.986	0.187
327.15	0.7012	11.02	0.2
330.15	0.7012	12.661	0.22
333.15	0.7012	14.53	0.263
335.15	0.7012	15.909	0.261
337.15	0.7012	17.466	0.28
340.15	0.7012	20.026	0.312
343.15	0.7012	22.888	0.348
345.15	0.7012	24.977	0.374
347.15	0.7012	27.234	0.402
350.15	0.7012	30.963	0.449
323.15	0.9018	11.092	0.201
325.15	0.9018	12.3	0.216
327.15	0.9018	13.581	0.232
330.15	0.9018	15.578	0.257
333.15	0.9018	17.704	0.284
335.15	0.9018	19.422	0.305
337.15	0.9018	21.614	0.333
340.15	0.9018	24.873	0.374
343.15	0.9018	28.318	0.417
345.15	0.9018	30.853	0.449
347.15	0.9018	33.518	0.482
317.15	1	9.114	0.176
320.15	1	10.627	0.195
323.15	1	12.352	0.217
325.15	1	13.63	0.233
327.15	1	15.02	0.25
330.15	1	17.332	0.279
333.15	1	19.94	0.312
335.15	1	21.859	0.336
337.15	1	23.932	0.362
340.15	1	27.354	0.405
343.15	1	31.181	0.453
345.15	1	33.976	0.489

System: water + 4-oxa-1,7-heptanediol; phases: Liquid, Gas
Property: Vapor or sublimation pressure, kPa (Liquid); method: CCELL:UFactor:4
Temperature, K	Mole fraction of water	Vapor or sublimation pressure, kPa	uncertainty
365.15	0	0.406	0.033
367.15	0	0.453	0.036
370.15	0	0.532	0.041
373.15	0	0.623	0.047
375.15	0	0.692	0.053
377.15	0	0.767	0.056
380.15	0	0.894	0.063
383.15	0	1.039	0.072
385.15	0	1.146	0.079
387.15	0	1.264	0.086
390.15	0	1.461	0.08
393.15	0	1.684	0.083
397.15	0	2.029	0.088
335.15	0.1706	4.015	0.112
340.15	0.1706	4.925	0.124
345.15	0.1706	5.995	0.137
350.15	0.1706	7.248	0.153
355.15	0.1706	8.706	0.171
360.15	0.1706	10.397	0.193
365.15	0.1706	12.347	0.217
370.15	0.1706	14.589	0.245
375.15	0.1706	17.155	0.278
380.15	0.1706	20.083	0.315
385.15	0.1706	23.414	0.357
390.15	0.1706	27.189	0.404
395.15	0.1706	31.456	0.457
320.15	0.5142	5.971	0.136
323.15	0.5142	6.915	0.148
325.15	0.5142	7.594	0.157
327.15	0.5142	8.348	0.166
330.15	0.5142	9.555	0.181
333.15	0.5142	10.876	0.198
335.15	0.5142	11.847	0.21
337.15	0.5142	12.913	0.223
340.15	0.5142	14.658	0.245
345.15	0.5142	18.279	0.29
350.15	0.5142	22.457	0.342
353.15	0.5142	25.164	0.376
355.15	0.5142	27.248	0.402
317.15	0.7226	6.915	0.148
320.15	0.7226	8.108	0.163
323.15	0.7226	9.466	0.18
325.15	0.7226	10.432	0.192
327.15	0.7226	11.468	0.205
330.15	0.7226	13.166	0.226
333.15	0.7226	15.02	0.25
335.15	0.7226	16.396	0.267
337.15	0.7226	17.928	0.286
340.15	0.7226	20.461	0.318
343.15	0.7226	23.456	0.355
345.15	0.7226	25.667	0.383
347.15	0.7226	28.079	0.413
327.15	0.9006	13.624	0.233
330.15	0.9006	15.829	0.26
333.15	0.9006	18.267	0.291
335.15	0.9006	20.038	0.313
337.15	0.9006	21.953	0.337
340.15	0.9006	25.073	0.376
343.15	0.9006	28.606	0.421
345.15	0.9006	31.174	0.453
347.15	0.9006	33.96	0.488
325.15	1	13.63	0.233
327.15	1	15.02	0.25
330.15	1	17.332	0.279
333.15	1	19.94	0.312
335.15	1	21.859	0.336
337.15	1	23.932	0.362
340.15	1	27.354	0.405
343.15	1	31.181	0.453
345.15	1	33.976	0.489
330.15	0.3005	5.821	0.134
333.15	0.3005	6.603	0.144
335.15	0.3005	7.15	0.151
337.15	0.3005	7.716	0.158
340.15	0.3005	8.603	0.169
343.15	0.3005	9.536	0.181
345.15	0.3005	10.355	0.191
350.15	0.3005	12.592	0.219
352.15	0.3005	13.838	0.235
355.15	0.3005	15.434	0.255
358.15	0.3005	17.185	0.277
360.15	0.3005	18.444	0.292
362.15	0.3005	19.781	0.309
365.15	0.3005	21.942	0.336
367.15	0.3005	23.136	0.351
373.15	0.3005	28.031	0.412
375.15	0.3005	30.115	0.438

System: water + 2-[2-(2-hydroxypropoxy)propoxy]-1-propanol; phases: Liquid, Gas
Property: Vapor or sublimation pressure, kPa (Liquid); method: CCELL:UFactor:4
Temperature, K	Mole fraction of water	Vapor or sublimation pressure, kPa	uncertainty
340.15	0	0.019	0.005
350.15	0	0.04	0.008
355.15	0	0.055	0.01
360.15	0	0.076	0.012
370.15	0	0.141	0.017
375.15	0	0.189	0.02
377.15	0	0.212	0.023
380.15	0	0.251	0.024
385.15	0	0.33	0.029
390.15	0	0.43	0.035
395.15	0	0.556	0.043
400.15	0	0.714	0.052
405.15	0	0.909	0.064
330.15	0.1753	3.066	0.1
335.15	0.1753	3.889	0.111
340.15	0.1753	4.893	0.123
345.15	0.1753	6.11	0.138
350.15	0.1753	7.573	0.157
355.15	0.1753	9.322	0.179
360.15	0.1753	11.399	0.205
365.15	0.1753	13.852	0.236
370.15	0.1753	16.731	0.272
375.15	0.1753	20.092	0.315
380.15	0.1753	23.997	0.364
385.15	0.1753	28.51	0.421
390.15	0.1753	33.703	0.486
310.15	0.2365	1.474	0.08
313.15	0.2365	1.776	0.084
315.15	0.2365	1.927	0.086
317.15	0.2365	2.136	0.089
320.17	0.2365	2.542	0.094
323.15	0.2365	3.006	0.099
325.15	0.2365	3.331	0.103
327.15	0.2365	3.656	0.108
330.15	0.2365	4.202	0.114
333.15	0.2365	4.806	0.122
335.15	0.2365	5.235	0.127
337.15	0.2365	5.688	0.133
340.15	0.2365	6.684	0.146
350.15	0.2365	10.189	0.19
360.15	0.2365	15.523	0.256
363.15	0.2365	17.725	0.283
370.15	0.2365	23.192	0.352
373.15	0.2365	25.177	0.377
375.15	0.2365	26.825	0.398
377.15	0.2365	29.054	0.425
380.15	0.2365	32.78	0.473
310.15	0.5006	3.16	0.101
313.15	0.5006	3.749	0.109
315.15	0.5006	4.176	0.114
317.15	0.5006	4.643	0.12
320.15	0.5006	5.405	0.129
323.15	0.5006	6.217	0.139
325.15	0.5006	6.806	0.147
327.15	0.5006	7.477	0.155
330.15	0.5006	8.574	0.169
333.15	0.5006	9.935	0.186
335.15	0.5006	11.072	0.2
337.15	0.5006	12.19	0.214
340.15	0.5006	13.896	0.235
343.15	0.5006	15.866	0.26
345.15	0.5006	17.166	0.276
347.15	0.5006	18.537	0.293
350.15	0.5006	20.934	0.323
353.15	0.5006	23.727	0.358
357.15	0.5006	28.095	0.413
360.15	0.5006	31.442	0.454
303.15	0.702	3.08	0.1
305.15	0.702	3.461	0.105
307.15	0.702	3.863	0.11
310.15	0.702	4.56	0.119
313.15	0.702	5.343	0.129
315.15	0.702	5.985	0.137
317.15	0.702	6.649	0.145
320.15	0.702	7.792	0.159
323.15	0.702	9.065	0.175
325.15	0.702	10.023	0.187
327.15	0.702	11.078	0.2
330.15	0.702	12.819	0.222
333.15	0.702	14.767	0.246
335.15	0.702	16.247	0.265
337.15	0.702	17.825	0.285
340.15	0.702	20.393	0.317
343.15	0.702	23.266	0.353
345.15	0.702	25.388	0.379
347.15	0.702	27.597	0.407
350.15	0.702	31.265	0.453
307.15	0.9001	4.69	0.121
310.15	0.9001	5.604	0.132
313.15	0.9001	6.649	0.145
315.15	0.9001	7.411	0.155
317.15	0.9001	8.271	0.165
320.15	0.9001	9.674	0.183
323.15	0.9001	11.263	0.203
325.15	0.9001	12.46	0.218
327.15	0.9001	13.799	0.235
330.15	0.9001	15.997	0.262
333.15	0.9001	18.456	0.293
335.15	0.9001	20.274	0.316
337.15	0.9001	22.2	0.34
340.15	0.9001	25.399	0.38
343.15	0.9001	29.044	0.426
345.15	0.9001	31.776	0.46
347.15	0.9001	34.529	0.495
305.15	1	4.761	0.121
307.15	1	5.326	0.129
310.15	1	6.284	0.141
313.15	1	7.386	0.154
315.15	1	8.211	0.165
317.15	1	9.114	0.176
320.15	1	10.627	0.195
323.15	1	12.352	0.217
325.15	1	13.63	0.233
327.15	1	15.02	0.25
330.15	1	17.332	0.279
333.15	1	19.94	0.312
335.15	1	21.859	0.336
337.15	1	23.932	0.362
340.15	1	27.354	0.405
343.15	1	31.181	0.453
345.15	1	33.976	0.489
