Measured thermophysical data. Thermodynamics of Fluconazole Solubility in Various Solvents at Different Temperatures
Source: J. Chem. Eng. Data, 2014, 10.1021/je4010257
Compound 1: 2-(2,4-difluorophenyl)-1,3-di(1H-1,2,4-triazol-1-yl)propan-2-ol, C13H12F2N6O, InChI=1S/C13H12F2N6O/c14-10-1-2-11(12(15)3-10)13(22,4-20-8-16-6-18-20)5-21-9-17-7-19-21/h1-3,6-9,22H,4-5H2, purity 99%
Compound 2: methanol, CH4O, InChI=1S/CH4O/c1-2/h2H,1H3
Compound 3: ethanol, C2H6O, InChI=1S/C2H6O/c1-2-3/h3H,2H2,1H3
Compound 4: propan-1-ol, C3H8O, InChI=1S/C3H8O/c1-2-3-4/h4H,2-3H2,1H3
Compound 5: butan-1-ol, C4H10O, InChI=1S/C4H10O/c1-2-3-4-5/h5H,2-4H2,1H3
Compound 6: trichloromethane, CHCl3, InChI=1S/CHCl3/c2-1(3)4/h1H
Compound 7: tetrahydrofuran, C4H8O, InChI=1S/C4H8O/c1-2-4-5-3-1/h1-4H2
Compound 8: 1,4-dioxane, C4H8O2, InChI=1S/C4H8O2/c1-2-6-4-3-5-1/h1-4H2

System: methanol + 2-(2,4-difluorophenyl)-1,3-di(1H-1,2,4-triazol-1-yl)propan-2-ol; phases: Liquid, Crystal
Fixed: Pressure, kPa = 101
Property: Mole fraction of 2-(2,4-difluorophenyl)-1,3-di(1H-1,2,4-triazol-1-yl)propan-2-ol (Liquid); method: gravimetric method
Temperature, K	Mole fraction of 2-(2,4-difluorophenyl)-1,3-di(1H-1,2,4-triazol-1-yl)propan-2-ol	uncertainty
298.15	0.0141	0.0006
303.15	0.0193	0.0008
308.15	0.0286	0.0011
313.15	0.0422	0.0017
318.15	0.06	0.002
323.15	0.088	0.004

System: ethanol + 2-(2,4-difluorophenyl)-1,3-di(1H-1,2,4-triazol-1-yl)propan-2-ol; phases: Liquid, Crystal
Fixed: Pressure, kPa = 101
Property: Mole fraction of 2-(2,4-difluorophenyl)-1,3-di(1H-1,2,4-triazol-1-yl)propan-2-ol (Liquid); method: gravimetric method
Temperature, K	Mole fraction of 2-(2,4-difluorophenyl)-1,3-di(1H-1,2,4-triazol-1-yl)propan-2-ol	uncertainty
298.15	0.011	0.0004
303.15	0.0147	0.0006
308.15	0.017	0.0007
313.15	0.0231	0.0009
318.15	0.0284	0.0011
323.15	0.0354	0.0014

System: propan-1-ol + 2-(2,4-difluorophenyl)-1,3-di(1H-1,2,4-triazol-1-yl)propan-2-ol; phases: Liquid, Crystal
Fixed: Pressure, kPa = 101
Property: Mole fraction of 2-(2,4-difluorophenyl)-1,3-di(1H-1,2,4-triazol-1-yl)propan-2-ol (Liquid); method: gravimetric method
Temperature, K	Mole fraction of 2-(2,4-difluorophenyl)-1,3-di(1H-1,2,4-triazol-1-yl)propan-2-ol	uncertainty
298.15	0.0115	0.0006
303.15	0.0127	0.0014
308.15	0.0148	0.001
313.15	0.0175	0.0018
318.15	0.021	0.0012
323.15	0.0278	0.0006

System: butan-1-ol + 2-(2,4-difluorophenyl)-1,3-di(1H-1,2,4-triazol-1-yl)propan-2-ol; phases: Liquid, Crystal
Fixed: Pressure, kPa = 101
Property: Mole fraction of 2-(2,4-difluorophenyl)-1,3-di(1H-1,2,4-triazol-1-yl)propan-2-ol (Liquid); method: gravimetric method
Temperature, K	Mole fraction of 2-(2,4-difluorophenyl)-1,3-di(1H-1,2,4-triazol-1-yl)propan-2-ol	uncertainty
298.15	0.0058	0.0002
303.15	0.0066	0.0003
308.15	0.008	0.0003
313.15	0.0102	0.0004
318.15	0.0132	0.0005
323.15	0.016	0.0006

System: trichloromethane + 2-(2,4-difluorophenyl)-1,3-di(1H-1,2,4-triazol-1-yl)propan-2-ol; phases: Liquid, Crystal
Fixed: Pressure, kPa = 101
Property: Mole fraction of 2-(2,4-difluorophenyl)-1,3-di(1H-1,2,4-triazol-1-yl)propan-2-ol (Liquid); method: gravimetric method
Temperature, K	Mole fraction of 2-(2,4-difluorophenyl)-1,3-di(1H-1,2,4-triazol-1-yl)propan-2-ol	uncertainty
298.15	0.0135	0.0005
303.15	0.0136	0.0005
308.15	0.0139	0.0006
313.15	0.0148	0.0006
318.15	0.016	0.0006
323.15	0.0181	0.0007

System: tetrahydrofuran + 2-(2,4-difluorophenyl)-1,3-di(1H-1,2,4-triazol-1-yl)propan-2-ol; phases: Liquid, Crystal
Fixed: Pressure, kPa = 101
Property: Mole fraction of 2-(2,4-difluorophenyl)-1,3-di(1H-1,2,4-triazol-1-yl)propan-2-ol (Liquid); method: gravimetric method
Temperature, K	Mole fraction of 2-(2,4-difluorophenyl)-1,3-di(1H-1,2,4-triazol-1-yl)propan-2-ol	uncertainty
298.15	0.0121	0.0005
303.15	0.0155	0.0006
308.15	0.0197	0.0008
313.15	0.0225	0.0009
318.15	0.0273	0.0011
323.15	0.0331	0.0013

System: 1,4-dioxane + 2-(2,4-difluorophenyl)-1,3-di(1H-1,2,4-triazol-1-yl)propan-2-ol; phases: Liquid, Crystal
Fixed: Pressure, kPa = 101
Property: Mole fraction of 2-(2,4-difluorophenyl)-1,3-di(1H-1,2,4-triazol-1-yl)propan-2-ol (Liquid); method: gravimetric method
Temperature, K	Mole fraction of 2-(2,4-difluorophenyl)-1,3-di(1H-1,2,4-triazol-1-yl)propan-2-ol	uncertainty
298.15	0.0124	0.0005
303.15	0.0165	0.0007
308.15	0.0194	0.0008
313.15	0.0219	0.0009
318.15	0.0257	0.001
323.15	0.0304	0.0012
