Measured thermophysical data. Isobaric Vapor Liquid Equilibrium for the Ternary System (Formaldehyde + 1,3-Dioxolane + Water) at 101.3 kPa
Source: J. Chem. Eng. Data, 2013, 10.1021/je4006163
Compound 1: water, H2O, InChI=1S/H2O/h1H2, purity 99.9%
Compound 2: 1,3-dioxolane, C3H6O2, InChI=1S/C3H6O2/c1-2-5-3-4-1/h1-3H2, purity 99.5%
Compound 3: methanal, CH2O, InChI=1S/CH2O/c1-2/h1H2, purity 98%

System: methanal + 1,3-dioxolane + water; phases: Liquid, Gas
Fixed: Pressure, kPa = 101.33
Property: Mole fraction of methanal (Liquid); method: Titration method
Property: Mole fraction of methanal (Gas); method: Titration method
Property: Mole fraction of 1,3-dioxolane (Gas); method: Titration method
Temperature, K	Mole fraction of 1,3-dioxolane	Mole fraction of methanal	uncertainty	Mole fraction of methanal	uncertainty	Mole fraction of 1,3-dioxolane	uncertainty
361.2	0.0335	0.0891	0.0032	0.0553	0.0032	0.3642	
358.3	0.0473	0.0939	0.0032	0.0541	0.0032	0.4849	
356.5	0.0533	0.0926	0.0032	0.0496	0.0032	0.4953	
359	0.0459	0.0941	0.0032	0.0564	0.0032	0.4477	
356.9	0.0573	0.0962	0.0032	0.0571	0.0032	0.4724	
355.6	0.0592	0.09	0.0032	0.0424	0.0032	0.5507	
355.5	0.0846	0.1792	0.0032	0.0711	0.0032	0.5818	
348.6	0.1852	0.2121	0.0032	0.0446	0.0032	0.6795	
346.8	0.2172	0.1033	0.0032	0.0269	0.0032	0.6758	
345.8	0.2765	0.1252	0.0032	0.0315	0.0032	0.7017	
344.6	0.3939	0.1753	0.0032	0.0451	0.0032	0.7099	
345.5	0.3932	0.107	0.0032	0.0484	0.0032	0.7128	
344.9	0.4463	0.1374	0.0032	0.0419	0.0032	0.7111	
359.2	0.0365	0.0699	0.0032	0.0439	0.0032	0.4582	
356.8	0.0518	0.0917	0.0032	0.0486	0.0032	0.4582	
354.9	0.058	0.0796	0.0032	0.0414	0.0032	0.536	
354.2	0.0709	0.098	0.0032	0.0419	0.0032	0.5734	
358.3	0.0689	0.1787	0.0032	0.0845	0.0032	0.4956	
357.2	0.0434	0.1925	0.0032	0.0865	0.0032	0.4518	
352	0.0784	0.2157	0.0032	0.0846	0.0032	0.6188	
355.9	0.0837	0.2599	0.0032	0.081	0.0032	0.5691	
356.9	0.0678	0.2619	0.0032	0.0841	0.0032	0.5293	
344.9	0.4029	0.0847	0.0032	0.0325	0.0032	0.7033	
356.6	0.0808	0.2779	0.0032	0.0955	0.0032	0.5542	
353.8	0.0726	0.3221	0.0032	0.0853	0.0032	0.5824	
354.8	0.0624	0.0904	0.0032	0.044	0.0032	0.5284	
353.3	0.0767	0.0679	0.0032	0.0341	0.0032	0.5902	
353.3	0.0958	0.0566	0.0032	0.0341	0.0032	0.5902	
349.3	0.1936	0.1118	0.0032	0.0194	0.0032	0.6615	
344.8	0.3492	0.0945	0.0032	0.0228	0.0032	0.7153	
345.1	0.3772	0.0824	0.0032	0.0177	0.0032	0.7138	
344.6	0.5397	0.0614	0.0032	0.0347	0.0032	0.7178	
344.8	0.5462	0.0646	0.0032	0.0361	0.0032	0.7213	
344.9	0.5564	0.0685	0.0032	0.0351	0.0032	0.7322	
344.6	0.5778	0.0639	0.0032	0.0345	0.0032	0.7302	
344.2	0.7453	0.0457	0.0032	0.0369	0.0032	0.7422	
360.9	0.0329	0.0878	0.0032	0.0614	0.0032	0.3473	
