Measured thermophysical data. Solubility of CO2 in Nonaqueous Absorption System of 2-(2-Aminoethylamine)ethanol + Benzyl Alcohol
Source: J. Chem. Eng. Data, 2014, 10.1021/je401028g
Compound 1: benzenemethanol, C7H8O, InChI=1S/C7H8O/c8-6-7-4-2-1-3-5-7/h1-5,8H,6H2, purity 98%
Compound 2: diethylene glycol, C4H10O3, InChI=1S/C4H10O3/c5-1-3-7-4-2-6/h5-6H,1-4H2, purity 98%
Compound 3: triethylene glycol, C6H14O4, InChI=1S/C6H14O4/c7-1-3-9-5-6-10-4-2-8/h7-8H,1-6H2, purity 98%
Compound 4: N-(2-aminoethyl)ethanolamine, C4H12N2O, InChI=1S/C4H12N2O/c5-1-2-6-3-4-7/h6-7H,1-5H2, purity 99%
Compound 5: carbon dioxide, CO2, InChI=1S/CO2/c2-1-3, purity 99.99%
Compound 6: water, H2O, InChI=1S/H2O/h1H2, purity 98%

System: benzenemethanol + carbon dioxide; phases: Liquid, Gas
Property: Molality, mol/kg of carbon dioxide (Liquid); method: Pressure Difference
Temperature, K	Pressure, kPa	Molality, mol/kg of carbon dioxide	uncertainty
303	61	0.02	0.002
303	90.3	0.033	0.002
303	180.32	0.067	0.002
303	378.04	0.147	0.003
303	598.83	0.24	0.003
303	721.27	0.297	0.004
313	53	0.013	0.002
313	103.5	0.033	0.002
313	322.7	0.117	0.003
313	471.87	0.18	0.003
313	692.25	0.273	0.003
313	735.49	0.29	0.003
323	73	0.017	0.002
323	136.71	0.043	0.002
323	370.9	0.13	0.002
323	571.87	0.213	0.003
323	756.38	0.287	0.003

System: N-(2-aminoethyl)ethanolamine + carbon dioxide + water; phases: Liquid, Gas
Fixed: Solvent: Mass fraction of N-(2-aminoethyl)ethanolamine = 0.3
Fixed: Temperature, K = 313
Property: Molality, mol/kg of carbon dioxide (Liquid); method: Pressure Difference
Pressure, kPa	Molality, mol/kg of carbon dioxide	uncertainty
1.42	1.07	0.1
2.23	2.48	0.1
8.82	2.58	0.1
124.63	2.96	0.1
297.29	3.1	0.1
401.55	3.16	0.1
542.9	3.22	0.1
718.9	3.3	0.1

System: benzenemethanol + N-(2-aminoethyl)ethanolamine + carbon dioxide; phases: Liquid, Gas
Fixed: Solvent: Mass fraction of N-(2-aminoethyl)ethanolamine = 0.3
Property: Molality, mol/kg of carbon dioxide (Liquid); method: Pressure Difference
Temperature, K	Pressure, kPa	Molality, mol/kg of carbon dioxide	uncertainty
303	1.01	1.04	0.2
303	2.43	1.74	0.2
303	167.79	2.57	0.02
303	312.8	2.74	0.02
303	498.61	2.98	0.02
303	666.2	3.1	0.02
303	765.61	3.23	0.02
313	1.32	0.79	0.16
313	2.43	1.48	0.26
313	102.34	2.03	0.02
313	241.56	2.34	0.02
313	381.9	2.64	0.03
313	591.13	2.86	0.02
313	724.47	3	0.02
323	0.9	0.82	0.15
323	2.84	1.52	0.15
323	56.64	1.79	0.02
323	119.06	1.96	0.02
323	279.66	2.21	0.02
323	503.08	2.6	0.02
323	685.87	2.74	0.02
323	780.18	2.83	0.02

System: N-(2-aminoethyl)ethanolamine + diethylene glycol + carbon dioxide; phases: Liquid, Gas
Fixed: Solvent: Mass fraction of N-(2-aminoethyl)ethanolamine = 0.3
Fixed: Temperature, K = 313
Property: Molality, mol/kg of carbon dioxide (Liquid); method: Pressure Difference
Pressure, kPa	Molality, mol/kg of carbon dioxide	uncertainty
51.17	0.69	0.1
215.01	1.06	0.1
353.02	1.44	0.1
494.61	1.59	0.1
665.29	1.75	0.1
744.42	1.82	0.1

System: N-(2-aminoethyl)ethanolamine + triethylene glycol + carbon dioxide; phases: Liquid, Gas
Fixed: Solvent: Mass fraction of N-(2-aminoethyl)ethanolamine = 0.3
Fixed: Temperature, K = 313
Property: Molality, mol/kg of carbon dioxide (Liquid); method: Pressure Difference
Pressure, kPa	Molality, mol/kg of carbon dioxide	uncertainty
46.61	0.65	0.1
166.38	1.11	0.1
226.87	1.47	0.1
467.92	1.71	0.1
689.92	1.83	0.1
833.29	1.9	0.1
