Measured thermophysical data. Ionic Liquid-Based Aqueous Biphasic Systems with Controlled Hydrophobicity: The Polar Solvent Effect
Source: J. Chem. Eng. Data, 2014, 10.1021/je400794m
Compound 1: 1-ethyl-3-methylimidazolium chloride, C6H11ClN2, InChI=1S/C6H11N2.ClH/c1-3-8-5-4-7(2)6-8;/h4-6H,3H2,1-2H3;1H/q+1;/p-1, purity 99%
Compound 2: 1-butyl-3-methylimidazolium chloride, C8H15ClN2, InChI=1S/C8H15N2.ClH/c1-3-4-5-10-7-6-9(2)8-10;/h6-8H,3-5H2,1-2H3;1H/q+1;/p-1, purity 99%
Compound 3: 1-hexyl-3-methylimidazolium chloride, C10H19ClN2, InChI=1S/C10H19N2.ClH/c1-3-4-5-6-7-12-9-8-11(2)10-12;/h8-10H,3-7H2,1-2H3;1H/q+1;/p-1, purity 99%
Compound 4: 1-methyl-3-octylimidazolium chloride, C12H23ClN2, InChI=1S/C12H23N2.ClH/c1-3-4-5-6-7-8-9-14-11-10-13(2)12-14;/h10-12H,3-9H2,1-2H3;1H/q+1;/p-1, purity 99%
Compound 5: tripotassium phosphate, K3O4P, InChI=1S/3K.H3O4P/c;;;1-5(2,3)4/h;;;(H3,1,2,3,4)/q3*+1;/p-3, purity 99%
Compound 6: water, H2O, InChI=1S/H2O/h1H2, purity 99.9%

System: water + tripotassium phosphate + 1-methyl-3-octylimidazolium chloride; phases: Liquid mixture 1, Liquid mixture 2
Fixed: Pressure, kPa = 101
Fixed: Temperature, K = 298
Property: Mass fraction of 1-methyl-3-octylimidazolium chloride (Liquid mixture 1); method: Titration method
Mass fraction of tripotassium phosphate	Mass fraction of 1-methyl-3-octylimidazolium chloride	uncertainty
0.0528	0.4169	0.0134
0.0623	0.3837	0.0122
0.0769	0.349	0.011
0.0941	0.3142	0.0099
0.1074	0.2878	0.0092
0.1176	0.2659	0.0085
0.1289	0.2456	0.0078
0.1382	0.2276	0.0073
0.1477	0.2109	0.0068
0.1581	0.1936	0.0062
0.1685	0.1787	0.0057
0.1769	0.1671	0.0053
0.1877	0.1535	0.0049
0.1953	0.142	0.0046
0.2022	0.1335	0.0044
0.2069	0.1257	0.0041
0.2164	0.1148	0.0037
0.2222	0.1075	0.0036
0.2268	0.1003	0.0033
0.2345	0.0921	0.003
0.2409	0.0853	0.0028
0.2477	0.0791	0.0026
0.2527	0.0743	0.0025
0.2566	0.0703	0.0024
0.2631	0.0651	0.0023
0.2657	0.0616	0.0023
0.2701	0.0575	0.0021
0.2757	0.0536	0.002
0.2786	0.0503	0.0019
0.2851	0.0467	0.0018
0.286	0.0441	0.0017
0.2935	0.0401	0.0016
0.3001	0.0368	0.0015
0.302	0.0352	0.0016
0.3045	0.0335	0.0016
0.307	0.0313	0.0015
0.3118	0.0288	0.0014
0.316	0.0263	0.0013
0.3229	0.0231	0.0013
0.3302	0.0199	0.0012
0.3368	0.0173	0.0012
0.3476	0.0135	0.0011
0.3672	0.0083	0.0011

System: water + tripotassium phosphate + 1-ethyl-3-methylimidazolium chloride; phases: Liquid mixture 1, Liquid mixture 2
Fixed: Pressure, kPa = 101
Fixed: Temperature, K = 298
Property: Mass fraction of 1-ethyl-3-methylimidazolium chloride (Liquid mixture 1); method: Titration method
Mass fraction of tripotassium phosphate	Mass fraction of 1-ethyl-3-methylimidazolium chloride	uncertainty
0.0113	0.453	0.0142
0.1043	0.2597	0.0081
0.1257	0.2326	0.0073
0.1448	0.212	0.0067
0.1637	0.1861	0.0059
0.1781	0.1697	0.0054
0.1903	0.1563	0.005
0.2026	0.1396	0.0045
0.2237	0.1195	0.0038
0.2391	0.1054	0.0034
0.2534	0.0936	0.0031
0.2604	0.0842	0.0029
0.29	0.0648	0.0022
0.3006	0.0575	0.002
0.314	0.048	0.0018

System: water + tripotassium phosphate + 1-butyl-3-methylimidazolium chloride; phases: Liquid mixture 1, Liquid mixture 2
Fixed: Pressure, kPa = 101
Fixed: Temperature, K = 298
Property: Mass fraction of 1-butyl-3-methylimidazolium chloride (Liquid mixture 1); method: Titration method
Mass fraction of tripotassium phosphate	Mass fraction of 1-butyl-3-methylimidazolium chloride	uncertainty
0.0401	0.3835	0.0121
0.0525	0.3546	0.0113
0.0571	0.3339	0.0109
0.0666	0.3072	0.0097
0.0831	0.2837	0.009
0.0902	0.2652	0.0084
0.1086	0.2438	0.0077
0.1142	0.2298	0.0073
0.1291	0.2102	0.0066
0.1418	0.1946	0.0062
0.1525	0.1811	0.0058
0.1626	0.168	0.0054
0.1702	0.1559	0.005
0.1846	0.1419	0.0045
0.1928	0.1331	0.0043
0.1998	0.1258	0.004
0.2066	0.118	0.0038
0.2126	0.1124	0.0037
0.2172	0.1052	0.0034
0.2279	0.0975	0.0031
0.2315	0.0933	0.003
0.2374	0.0889	0.0029
0.2401	0.0857	0.0029
0.2426	0.0825	0.0028
0.2462	0.079	0.0026
0.2512	0.0754	0.0025
0.2532	0.0735	0.0026
0.2563	0.0699	0.0024
0.2622	0.0654	0.0022
0.2673	0.0614	0.0021
0.272	0.0578	0.0021
0.275	0.0553	0.0021
0.2782	0.0524	0.002
0.2829	0.0491	0.0019
0.2883	0.0452	0.0017
0.2961	0.041	0.0016
0.3011	0.0379	0.0016
0.3076	0.0342	0.0015
0.3142	0.0307	0.0014
0.3198	0.0277	0.0014
0.3277	0.024	0.0013
0.3351	0.0206	0.0012

System: water + tripotassium phosphate + 1-hexyl-3-methylimidazolium chloride; phases: Liquid mixture 1, Liquid mixture 2
Fixed: Pressure, kPa = 101
Fixed: Temperature, K = 298
Property: Mass fraction of 1-hexyl-3-methylimidazolium chloride (Liquid mixture 1); method: Titration method
Mass fraction of tripotassium phosphate	Mass fraction of 1-hexyl-3-methylimidazolium chloride	uncertainty
0.0885	0.2833	0.0093
0.0942	0.2664	0.0086
0.1079	0.237	0.0075
0.1256	0.2182	0.0069
0.1337	0.2013	0.0065
0.1442	0.1871	0.006
0.1509	0.1766	0.0057
0.1581	0.1657	0.0053
0.1672	0.1527	0.0049
0.1783	0.1424	0.0045
0.1831	0.1355	0.0044
0.1885	0.128	0.0041
0.1945	0.1221	0.0039
0.1993	0.117	0.0038
0.2034	0.1127	0.0037
0.2063	0.1087	0.0038
0.2082	0.1046	0.0035
0.213	0.0993	0.0032
0.2181	0.095	0.0031
0.2197	0.0921	0.0031
0.2233	0.0885	0.0029
0.226	0.0853	0.0028
0.2302	0.0814	0.0027
0.2333	0.0775	0.0027
0.2371	0.0733	0.0024
0.2434	0.069	0.0023
0.2462	0.0659	0.0022
0.2512	0.0629	0.0022
0.2538	0.0593	0.0022
0.2579	0.0564	0.002
0.2598	0.0546	0.0022
0.2614	0.0521	0.0019
0.266	0.0494	0.0018
0.2694	0.0471	0.0018
0.2729	0.0453	0.0018
0.2752	0.0431	0.0018
0.2785	0.0408	0.0016
0.2826	0.0389	0.0016
0.2861	0.0371	0.0016
0.2903	0.0345	0.0015
0.2977	0.0308	0.0014
0.3034	0.0279	0.0014
0.3071	0.0252	0.0014
0.3125	0.0216	0.0012
0.3247	0.0176	0.0012
