Measured thermophysical data. Surface Tension and p ? T Data for 1,1,1,3,3-Pentafluorobutane (HFC-365mfc) and 1,1,1,2,2,3,3-Heptafluoro-3-methoxy-propane (HFE-347mcc)
Source: J. Chem. Eng. Data, 2013, 10.1021/je4004542
Compound 1: 1,1,1,3,3-pentafluorobutane, C4H5F5, InChI=1S/C4H5F5/c1-3(5,6)2-4(7,8)9/h2H2,1H3, purity 99.5%
Compound 2: heptafluoropropyl methyl ether, C4H3F7O, InChI=1S/C4H3F7O/c1-12-4(10,11)2(5,6)3(7,8)9/h1H3, purity 99.9%

System: 1,1,1,3,3-pentafluorobutane; phases: Liquid
Property: Mass density, kg/m3 (Liquid); method: ISOCHOR
Temperature, K	Pressure, kPa	Mass density, kg/m3	uncertainty
298.157	10021	1279.33	1.06
292.962	5455.1	1279.78	1.06
291.349	4070.9	1279.92	1.06
303.854	15147	1278.84	1.06
309.504	20037	1278.36	1.06
315.28	25013	1277.86	1.06
290.216	3193	1280.01	1.06
288.896	2019.2	1280.13	1.06
287.752	1242	1280.22	1.06
321.093	29987	1277.37	1.06
326.985	34967	1276.87	1.06
333.065	40085	1276.36	1.06
309.508	9974.6	1257.8	1.06
315.797	15053	1257.28	1.06
298.575	1157.4	1258.72	1.06
299.692	2006.3	1258.62	1.06
301.02	3084.3	1258.51	1.06
302.237	4081.3	1258.41	1.06
303.466	5080.2	1258.31	1.06
322.042	20055	1256.76	1.06
328.317	25047	1256.24	1.06
334.616	30028	1255.72	1.06
341.51	35426	1255.16	1.06
347.071	39768	1254.7	1.06
322.05	10082	1233.67	1.05
309.961	1066.8	1234.65	1.06
311.31	2069.7	1234.54	1.06
312.57	3017.8	1234.43	1.05
313.887	4006.1	1234.33	1.05
315.229	5013.4	1234.22	1.05
328.8	15073	1233.12	1.05
335.522	20025	1232.59	1.05
342.356	25012	1232.04	1.05
353.15	32850	1231.18	1.05
335.518	10079	1206.32	1.05
322.3	1278.8	1207.34	1.05
323.475	1919.7	1207.25	1.05
325.247	3125.1	1207.12	1.05
326.617	4057.4	1207.01	1.05
327.901	4926.1	1206.91	1.05
353.149	21912	1204.96	1.05
343.049	15153	1205.73	1.05
335.52	1037.9	1175.56	1.05
337.152	2014.4	1175.44	1.05
338.81	3050.5	1175.32	1.05
340.39	4011	1175.2	1.05
342.031	5008.9	1175.08	1.05
353.151	11756	1174.25	1.05
292.959	20092	1309.09	1.06
287.792	15107	1309.56	1.06
297.776	24667	1308.67	1.06
303.224	29830	1308.18	1.06
282.688	10162	1310.01	1.06
308.649	34947	1307.7	1.06
314.063	40001	1307.23	1.06
276.614	3921.9	1309.71	1.06
275.629	2942.2	1309.8	1.06
274.725	2060	1309.88	1.06
273.719	1076.8	1309.97	1.06
277.649	4903.9	1309.61	1.06
277.658	19995	1335.08	1.06
282.338	24894	1334.64	1.06
273.083	15145	1335.5	1.06
260.214	1298.1	1336.72	1.06
261.983	3278.8	1336.55	1.06
261.045	2152.9	1336.64	1.06
268.319	10033	1335.95	1.06
263.744	5132.2	1336.38	1.06
262.731	4030.2	1336.48	1.06
287.063	29792	1334.21	1.06
292.092	35022	1333.75	1.06
296.901	39956	1333.31	1.06
263.719	19989	1359.61	1.07
268.051	24964	1359.2	1.07
272.346	29861	1358.79	1.07
276.834	34914	1358.36	1.07
281.434	40068	1357.92	1.07
259.504	15102	1360.02	1.07
255.265	10152	1360.44	1.07
250.934	5088.8	1360.86	1.07
250.204	4243.7	1360.94	1.07
249.225	3081.2	1361.03	1.07
248.248	1931.8	1361.13	1.07
247.428	956.6	1361.21	1.07
250.924	19991	1381.43	1.07
254.999	25056	1381.02	1.07
258.99	29998	1380.62	1.07
262.974	34873	1380.23	1.07
267.12	39916	1379.82	1.07
247.076	15188	1381.81	1.07
243.116	10185	1382.22	1.07
239.08	5074	1382.22	1.07
238.273	4040.1	1382.71	1.07
237.493	3052.4	1382.79	1.07
239.08	5081.7	1382.63	1.07

System: 1,1,1,3,3-pentafluorobutane; phases: Liquid, Air at 1 atmosphere
Property: Surface tension liquid-gas, N/m (Liquid); method: Ring tensiometer
Temperature, K	Surface tension liquid-gas, N/m	uncertainty
261.94	0.01966	0.00036
268.09	0.01901	0.00034
273.05	0.01841	0.00034
277.76	0.01798	0.00033
282.98	0.01742	0.00034
288.35	0.01688	0.00032
293.54	0.01629	0.00032
297.86	0.01592	0.00033
302.48	0.01541	0.00031
308.31	0.01465	0.0003
261.8	0.01987	0.00036
268.05	0.01919	0.00034
273.05	0.01856	0.00034
277.76	0.01808	0.00033
282.88	0.01757	0.00034
288.32	0.01705	0.00032
293.51	0.0163	0.00032
297.79	0.01581	0.00033
302.55	0.01538	0.00031
308.11	0.01466	0.0003

System: heptafluoropropyl methyl ether; phases: Liquid
Property: Mass density, kg/m3 (Liquid); method: ISOCHOR
Temperature, K	Pressure, kPa	Mass density, kg/m3	uncertainty
298.153	9994.4	1439.7	1.53
291.002	4729.9	1440.38	1.53
289.895	3919.7	1440.48	1.53
288.681	3021.9	1440.6	1.53
287.332	2026	1440.73	1.53
285.948	1083.6	1440.86	1.53
305.452	15319	1439.01	1.53
312.57	20468.8	1438.34	1.53
319.577	25523.3	1437.69	1.53
326.444	30423.8	1437.05	1.53
333.47	35407.9	1436.41	1.53
340.74	40505.7	1435.74	1.53
312.11	10021.9	1406.27	1.53
304.364	4907.1	1406.97	1.53
303.043	4032	1407.09	1.53
301.508	3015.6	1407.24	1.53
300.452	2316.3	1407.33	1.53
298.454	987.1	1407.52	1.53
319.651	14861	1405.59	1.53
327.507	19990	1404.89	1.53
335.24	25016	1404.19	1.53
342.96	29980	1403.51	1.53
353.149	36576	1402.6	1.53
327.486	10016	1368.08	1.53
318.697	4864.6	1368.84	1.53
317.158	3966.3	1368.97	1.53
315.486	2985.1	1369.12	1.53
313.793	1997.3	1369.27	1.53
312.12	1009.6	1369.41	1.53
335.651	14779.3	1367.37	1.53
344.67	20018	1366.6	1.53
353.147	24900.7	1365.87	1.53
327.49	1098.2	1324.67	1.53
329.487	2043	1324.5	1.53
331.484	3053.3	1324.34	1.53
333.432	4045.4	1324.18	1.53
335.368	5030.2	1324.02	1.53
353.148	14072	1322.56	1.53
345.222	10048	1323.21	1.53
298.146	19997	1468.22	1.53
304.429	24980	1467.62	1.53
310.78	29953	1467.01	1.53
317.191	34932	1466.39	1.53
323.779	40025	1465.77	1.53
291.898	15010	1468.83	1.53
285.686	10030	1469.44	1.53
279.441	4996	1470.06	1.53
278.235	4016.2	1470.18	1.53
276.987	3007.5	1470.3	1.53
275.722	1967.2	1470.43	1.53
274.525	994.4	1470.55	1.53
279.435	19959	1507.77	1.54
273.949	14959	1508.34	1.54
268.539	10046	1508.89	1.54
263.07	5031.9	1509.47	1.54
261.921	3946.9	1509.59	1.54
284.957	24913	1507.21	1.54
260.881	2987.6	1509.7	1.54
259.746	1914.3	1509.82	1.54
258.736	1019.7	1509.93	1.54
290.569	29908.3	1506.65	1.54
296.23	34913.1	1506.08	1.54
302.031	40008	1505.49	1.54
263.021	19886	1542.85	1.54
267.967	24863	1542.32	1.54
273.043	29941	1541.78	1.54
278.088	34925	1541.25	1.54
283.225	39964	1540.71	1.54
258.158	14929	1543.37	1.54
253.35	10014	1543.89	1.54
248.528	5046.1	1544.43	1.54
247.389	3900.7	1544.55	1.54
246.512	2962.6	1544.65	1.54
245.592	1998.3	1544.75	1.54
244.631	1009.9	1544.86	1.54
248.467	20022	1574.22	1.54
252.985	25061	1573.71	1.54
257.434	29986	1573.22	1.54
262.001	34997	1572.72	1.54
266.608	40003	1572.21	1.54
244.032	15038	1574.72	1.54
239.679	10109	1575.21	1.54
235.25	5067.3	1575.72	1.54
234.262	3948.9	1575.84	1.54
233.444	3013	1575.94	1.54
232.587	2030.9	1576.04	1.54
231.599	910.5	1576.15	1.54
235.131	20005	1602.69	1.54
239.342	25172	1602.2	1.54
243.192	29834	1601.75	1.54
247.496	35024	1601.26	1.54
251.719	40059	1600.78	1.54
231.145	15085	1603.16	1.54
227.029	9963.9	1603.65	1.54
223.034	4963.4	1604.13	1.54
220.038	1236.5	1604.5	1.54
223	19918	1628.87	1.54
219.534	15297	1629.29	1.54
215.361	9581.3	1629.81	1.54
209.164	1147.7	1630.6	1.54

System: heptafluoropropyl methyl ether; phases: Liquid, Air at 1 atmosphere
Property: Surface tension liquid-gas, N/m (Liquid); method: Ring tensiometer
Temperature, K	Surface tension liquid-gas, N/m	uncertainty
261.89	0.01589	0.00032
267.87	0.01534	0.00031
272.93	0.01486	0.0003
277.82	0.0144	0.0003
282.77	0.01393	0.00031
287.83	0.01347	0.00035
292.56	0.01304	0.00029
297.67	0.01254	0.00029
261.81	0.01599	0.00032
267.86	0.01539	0.00031
272.95	0.01485	0.0003
277.8	0.01435	0.0003
282.63	0.0137	0.00031
287.73	0.01315	0.00035
