Measured thermophysical data. Solubility of CO2 in Aqueous Solutions of CaCl2 or MgCl2 and in a Synthetic Formation Brine at Temperatures up to 423 K and Pressures up to 40 MPa
Source: J. Chem. Eng. Data, 2013, 10.1021/je400396s
Compound 1: carbon dioxide, CO2, InChI=1S/CO2/c2-1-3, purity 99.995%
Compound 2: water, H2O, InChI=1S/H2O/h1H2, purity 98%
Compound 3: calcium chloride, CaCl2, InChI=1S/Ca.2ClH/h;2*1H/q+2;;/p-2, purity 98%
Compound 4: magnesium chloride, Cl2Mg, InChI=1S/2ClH.Mg/h2*1H;/q;;+2/p-2, purity 98%

System: carbon dioxide + water; phases: Liquid, Gas
Property: Mole fraction of carbon dioxide (Liquid); method: PVT analysis
Temperature, K	Pressure, kPa	Mole fraction of carbon dioxide	uncertainty
374.41	7210	0.011	0.0003
374.18	14440	0.0171	0.0003
374.91	18860	0.0192	0.0002
374.15	22340	0.0205	0.0003
374.99	27260	0.0219	0.0003

System: carbon dioxide + water + calcium chloride; phases: Liquid, Gas
Property: Vapor or sublimation pressure, kPa (Liquid); method: Closed cell (Static) method
Temperature, K	Mole fraction of carbon dioxide	Molality, mol/kg of calcium chloride	Vapor or sublimation pressure, kPa	uncertainty
309.67	0.0045	1	1530	310
309.28	0.0104	1	4010	560
309.28	0.0161	1	7670	320
344.67	0.004	1	2580	350
344.35	0.0098	1	7300	810
344.95	0.0151	1	31020	1300
374.7	0.0038	1	3130	400
374.7	0.0093	1	10020	860
374.88	0.0161	1	37380	920
424.13	0.0039	1	4390	420
424.1	0.01	1	12770	740
424.43	0.0158	1	26820	960
309.61	0.0036	3	2730	370
309.63	0.0078	3	6590	3000
309.59	0.0081	3	26000	3000
344.8	0.0032	3	3930	720
344.95	0.0068	3	13910	1770
345.08	0.0078	3	34430	3730
374.65	0.0036	3	5990	810
374.8	0.0064	3	15720	1880
374.8	0.0077	3	33450	3270
424.4	0.0038	3	8290	1040
424.39	0.0081	3	27110	3350
424.38	0.009	3	37990	3350
309.7	0.0031	5	4540	2600
309.74	0.0046	5	23000	2620
308	0.0049	5	24250	2390
344.72	0.0027	5	6120	2170
344.7	0.0036	5	14540	2560
344.96	0.0051	5	34520	5080
374.72	0.0027	5	7610	1590
374.72	0.004	5	16910	2620
374.72	0.0048	5	34250	3430
424.43	0.0014	5	4640	1610
424.42	0.0024	5	10530	2040
424.64	0.0048	5	29410	2150

System: carbon dioxide + water + magnesium chloride; phases: Liquid, Gas
Property: Vapor or sublimation pressure, kPa (Liquid); method: Closed cell (Static) method
Temperature, K	Mole fraction of carbon dioxide	Molality, mol/kg of magnesium chloride	Vapor or sublimation pressure, kPa	uncertainty
309.58	0.0038	1	1250	310
309.83	0.0108	1	4240	460
309.81	0.0175	1	7740	470
343.9	0.0034	1	2040	350
344.2	0.01	1	7620	720
344.93	0.0153	1	30580	1240
374.24	0.0029	1	2640	380
374.22	0.01	1	10250	710
374.91	0.0161	1	34930	1080
424.03	0.0035	1	3950	420
423.95	0.0098	1	12630	660
424.63	0.0131	1	19740	810
424.63	0.0161	1	28370	1000
310	0.0036	3	2840	390
309.91	0.0065	3	6000	1580
309.91	0.0079	3	11200	2190
309.91	0.0092	3	20720	2270
345.06	0.0032	3	4050	610
344.98	0.0068	3	13120	1760
345.01	0.008	3	31250	2800
374.84	0.0033	3	4950	700
374.9	0.0064	3	15160	1240
374.83	0.008	3	26290	2970
424.6	0.0033	3	7600	850
424.65	0.0063	3	19200	1200
424.68	0.0079	3	31710	2630
309.68	0.0027	5	3500	650
309.74	0.0049	5	9000	1710
309.52	0.0056	5	31020	8340
344.68	0.0028	5	5800	1570
344.68	0.0028	5	6000	1560
344.68	0.0037	5	13090	2780
344.98	0.0047	5	31200	2570
374.72	0.0026	5	7550	1570
374.68	0.0038	5	15600	1810
375.02	0.0041	5	20580	2720
424.39	0.0013	5	4700	1440
424.33	0.0023	5	10340	1350
424.49	0.0035	5	16180	1300
