Measured thermophysical data. Partial Molar Volumes and Partial Molar Isentropic Compressions of Selected Branched Diols at Infinite Dilution in Water at Temperatures T = (278 to 318) K and Atmospheric Pressure
Source: J. Chem. Eng. Data, 2013, 10.1021/je400361k
Compound 1: 2-methyl-2-propyl-1,3-propanediol, C7H16O2, InChI=1S/C7H16O2/c1-3-4-7(2,5-8)6-9/h8-9H,3-6H2,1-2H3, purity 98%
Compound 2: 2,2-diethyl-1,3-propanediol, C7H16O2, InChI=1S/C7H16O2/c1-3-7(4-2,5-8)6-9/h8-9H,3-6H2,1-2H3, purity 99%
Compound 3: 2-butyl-2-ethyl-1,3-propanediol, C9H20O2, InChI=1S/C9H20O2/c1-3-5-6-9(4-2,7-10)8-11/h10-11H,3-8H2,1-2H3, purity 99%
Compound 4: 1,5-dihydroxy-3-methylpentane, C6H14O2, InChI=1S/C6H14O2/c1-6(2-4-7)3-5-8/h6-8H,2-5H2,1H3, purity 98%
Compound 5: water, H2O, InChI=1S/H2O/h1H2

System: 2-methyl-2-propyl-1,3-propanediol + water; phases: Liquid
Fixed: Pressure, kPa = 101
Property: Mass density, kg/m3 (Liquid); method: VIBTUB:UFactor:0.5
Temperature, K	Molality, mol/kg of 2-methyl-2-propyl-1,3-propanediol	Mass density, kg/m3	uncertainty
278.15	0.04066	0.071	0.033
278.15	0.04066	0.071	0.033
278.15	0.04066	0.07	0.033
278.15	0.08017	0.149	0.033
278.15	0.08017	0.151	0.033
278.15	0.08017	0.149	0.033
278.15	0.12102	0.24	0.033
278.15	0.12102	0.242	0.033
278.15	0.12102	0.241	0.033
278.15	0.16129	0.332	0.033
278.15	0.16129	0.334	0.033
278.15	0.16129	0.332	0.033
278.15	0.19981	0.433	0.033
278.15	0.19981	0.435	0.033
278.15	0.19981	0.435	0.033
278.15	0.23792	0.546	0.033
278.15	0.23792	0.547	0.033
278.15	0.23792	0.546	0.033
283.15	0.04066	0.055	0.033
283.15	0.04066	0.054	0.033
283.15	0.04066	0.054	0.033
283.15	0.08017	0.116	0.033
283.15	0.08017	0.113	0.033
283.15	0.08017	0.116	0.033
283.15	0.12102	0.188	0.033
283.15	0.12102	0.188	0.033
283.15	0.12102	0.187	0.033
283.15	0.16129	0.26	0.033
283.15	0.16129	0.259	0.033
283.15	0.16129	0.26	0.033
283.15	0.19981	0.339	0.033
283.15	0.19981	0.341	0.033
283.15	0.19981	0.34	0.033
283.15	0.23792	0.432	0.033
283.15	0.23792	0.433	0.033
283.15	0.23792	0.433	0.033
288.15	0.04066	0.038	0.033
288.15	0.04066	0.038	0.033
288.15	0.04066	0.039	0.033
288.15	0.08017	0.084	0.033
288.15	0.08017	0.084	0.033
288.15	0.08017	0.084	0.033
288.15	0.12102	0.138	0.033
288.15	0.12102	0.139	0.033
288.15	0.12102	0.138	0.033
288.15	0.16129	0.192	0.033
288.15	0.16129	0.192	0.033
288.15	0.16129	0.192	0.033
288.15	0.19981	0.254	0.033
288.15	0.19981	0.254	0.033
288.15	0.19981	0.254	0.033
288.15	0.23792	0.327	0.033
288.15	0.23792	0.327	0.033
288.15	0.23792	0.327	0.033
293.15	0.04066	0.024	0.033
293.15	0.04066	0.025	0.033
293.15	0.04066	0.025	0.033
293.15	0.08017	0.055	0.033
293.15	0.08017	0.056	0.033
293.15	0.08017	0.055	0.033
293.15	0.12102	0.093	0.033
293.15	0.12102	0.094	0.033
293.15	0.12102	0.094	0.033
293.15	0.16129	0.128	0.033
293.15	0.16129	0.129	0.033
293.15	0.16129	0.129	0.033
293.15	0.19981	0.174	0.033
293.15	0.19981	0.175	0.033
293.15	0.19981	0.176	0.033
293.15	0.23792	0.229	0.033
293.15	0.23792	0.23	0.033
293.15	0.23792	0.23	0.033
298.15	0.04066	0.009	0.033
298.15	0.04066	0.01	0.033
298.15	0.04066	0.01	0.033
298.15	0.08017	0.025	0.033
298.15	0.08017	0.026	0.033
298.15	0.08017	0.027	0.033
298.15	0.12102	0.048	0.033
298.15	0.12102	0.048	0.033
298.15	0.12102	0.049	0.033
298.15	0.16129	0.067	0.033
298.15	0.16129	0.068	0.033
298.15	0.16129	0.068	0.033
298.15	0.19981	0.096	0.033
298.15	0.19981	0.097	0.033
298.15	0.19981	0.099	0.033
298.15	0.23792	0.135	0.033
298.15	0.23792	0.136	0.033
298.15	0.23792	0.136	0.033
303.15	0.04066	-0.003	0.033
303.15	0.04066	-0.003	0.033
303.15	0.04066	-0.003	0.033
303.15	0.08017	-0.001	0.033
303.15	0.08017	-0.001	0.033
303.15	0.08017	-0.001	0.033
303.15	0.12102	0.007	0.033
303.15	0.12102	0.007	0.033
303.15	0.12102	0.007	0.033
303.15	0.16129	0.009	0.033
303.15	0.16129	0.009	0.033
303.15	0.16129	0.011	0.033
303.15	0.19981	0.023	0.033
303.15	0.19981	0.023	0.033
303.15	0.19981	0.023	0.033
303.15	0.23792	0.045	0.033
303.15	0.23792	0.046	0.033
303.15	0.23792	0.046	0.033
308.15	0.04066	-0.015	0.033
308.15	0.04066	-0.015	0.033
308.15	0.04066	-0.015	0.033
308.15	0.08017	-0.026	0.033
308.15	0.08017	-0.027	0.033
308.15	0.08017	-0.028	0.033
308.15	0.12102	-0.034	0.033
308.15	0.12102	-0.034	0.033
308.15	0.12102	-0.035	0.033
308.15	0.16129	-0.047	0.033
308.15	0.16129	-0.047	0.033
308.15	0.16129	-0.047	0.033
308.15	0.19981	-0.049	0.033
308.15	0.19981	-0.05	0.033
308.15	0.19981	-0.049	0.033
308.15	0.23792	-0.045	0.033
308.15	0.23792	-0.045	0.033
308.15	0.23792	-0.045	0.033
318.15	0.04066	-0.042	0.033
318.15	0.04066	-0.042	0.033
318.15	0.04066	-0.041	0.033
318.15	0.08017	-0.08	0.033
318.15	0.08017	-0.082	0.033
318.15	0.08017	-0.08	0.033
318.15	0.12102	-0.118	0.033
318.15	0.12102	-0.117	0.033
318.15	0.12102	-0.116	0.033
318.15	0.16129	-0.161	0.033
318.15	0.16129	-0.162	0.033
318.15	0.16129	-0.161	0.033
318.15	0.19981	-0.192	0.033
318.15	0.19981	-0.194	0.033
318.15	0.19981	-0.192	0.033
318.15	0.23792	-0.219	0.033
318.15	0.23792	-0.219	0.033
318.15	0.23792	-0.219	0.033

System: 2-methyl-2-propyl-1,3-propanediol + water; phases: Liquid
Fixed: Pressure, kPa = 101
Property: Speed of sound, m/s (Liquid); method: LVPAI:UFactor:0.5
Temperature, K	Molality, mol/kg of 2-methyl-2-propyl-1,3-propanediol	Speed of sound, m/s	uncertainty
278.15	0.04066	5.71	0.21
278.15	0.04066	5.72	0.21
278.15	0.04066	5.72	0.21
278.15	0.08017	11.18	0.21
278.15	0.08017	11.18	0.21
278.15	0.08017	11.19	0.21
278.15	0.12102	16.71	0.21
278.15	0.12102	16.72	0.21
278.15	0.12102	16.73	0.21
278.15	0.16129	22.15	0.22
278.15	0.16129	22.16	0.22
278.15	0.16129	22.15	0.22
278.15	0.19981	27.18	0.22
278.15	0.19981	27.18	0.22
278.15	0.19981	27.18	0.22
278.15	0.23792	32.1	0.22
278.15	0.23792	32.13	0.22
278.15	0.23792	32.14	0.22
283.15	0.04066	5.26	0.21
283.15	0.04066	5.26	0.21
283.15	0.04066	5.27	0.21
283.15	0.08017	10.28	0.21
283.15	0.08017	10.27	0.21
283.15	0.08017	10.29	0.21
283.15	0.12102	15.38	0.21
283.15	0.12102	15.38	0.21
283.15	0.12102	15.37	0.21
283.15	0.16129	20.34	0.22
283.15	0.16129	20.34	0.22
283.15	0.16129	20.36	0.22
283.15	0.19981	24.97	0.22
283.15	0.19981	24.97	0.22
283.15	0.19981	24.99	0.22
283.15	0.23792	29.49	0.22
283.15	0.23792	29.49	0.22
283.15	0.23792	29.52	0.22
288.15	0.04066	4.86	0.21
288.15	0.04066	4.87	0.21
288.15	0.04066	4.87	0.21
288.15	0.08017	9.5	0.21
288.15	0.08017	9.5	0.21
288.15	0.08017	9.51	0.21
288.15	0.12102	14.16	0.21
288.15	0.12102	14.16	0.21
288.15	0.12102	14.18	0.21
288.15	0.16129	18.74	0.22
288.15	0.16129	18.74	0.22
288.15	0.16129	18.76	0.22
288.15	0.19981	22.99	0.22
288.15	0.19981	22.98	0.22
288.15	0.19981	23	0.22
288.15	0.23792	27.11	0.22
288.15	0.23792	27.13	0.22
288.15	0.23792	27.15	0.22
293.15	0.04066	4.48	0.21
293.15	0.04066	4.48	0.21
293.15	0.04066	4.47	0.21
293.15	0.08017	8.75	0.21
293.15	0.08017	8.73	0.21
293.15	0.08017	8.74	0.21
293.15	0.12102	13.03	0.21
293.15	0.12102	13.02	0.21
293.15	0.12102	13.03	0.21
293.15	0.16129	17.21	0.21
293.15	0.16129	17.22	0.21
293.15	0.16129	17.23	0.21
293.15	0.19981	21.12	0.22
293.15	0.19981	21.12	0.22
293.15	0.19981	21.13	0.22
293.15	0.23792	24.92	0.22
293.15	0.23792	24.91	0.22
293.15	0.23792	24.93	0.22
298.15	0.04066	4.11	0.21
298.15	0.04066	4.12	0.21
298.15	0.04066	4.12	0.21
298.15	0.08017	8.02	0.21
298.15	0.08017	8.04	0.21
298.15	0.08017	8.04	0.21
298.15	0.12102	11.96	0.21
298.15	0.12102	11.98	0.21
298.15	0.12102	11.99	0.21
298.15	0.16129	15.81	0.21
298.15	0.16129	15.83	0.21
298.15	0.16129	15.84	0.21
298.15	0.19981	19.37	0.22
298.15	0.19981	19.39	0.22
298.15	0.19981	19.4	0.22
298.15	0.23792	22.83	0.22
298.15	0.23792	22.84	0.22
298.15	0.23792	22.86	0.22
303.15	0.04066	3.79	0.21
303.15	0.04066	3.79	0.21
303.15	0.04066	3.8	0.21
303.15	0.08017	7.38	0.21
303.15	0.08017	7.39	0.21
303.15	0.08017	7.39	0.21
303.15	0.12102	10.99	0.21
303.15	0.12102	11	0.21
303.15	0.12102	11.01	0.21
303.15	0.16129	14.5	0.21
303.15	0.16129	14.51	0.21
303.15	0.16129	14.52	0.21
303.15	0.19981	17.73	0.22
303.15	0.19981	17.75	0.22
303.15	0.19981	17.76	0.22
303.15	0.23792	20.89	0.22
303.15	0.23792	20.9	0.22
303.15	0.23792	20.91	0.22
308.15	0.04066	3.47	0.21
308.15	0.04066	3.46	0.21
308.15	0.04066	3.48	0.21
308.15	0.08017	6.74	0.21
308.15	0.08017	6.75	0.21
308.15	0.08017	6.77	0.21
308.15	0.12102	10.04	0.21
308.15	0.12102	10.04	0.21
308.15	0.12102	10.07	0.21
308.15	0.16129	13.24	0.21
308.15	0.16129	13.25	0.21
308.15	0.16129	13.25	0.21
308.15	0.19981	16.19	0.22
308.15	0.19981	16.21	0.22
308.15	0.19981	16.22	0.22
308.15	0.23792	19.05	0.22
308.15	0.23792	19.07	0.22
308.15	0.23792	19.08	0.22
318.15	0.04066	2.89	0.35
318.15	0.04066	2.91	0.35
318.15	0.04066	2.89	0.35
318.15	0.08017	5.62	0.35
318.15	0.08017	5.64	0.35
318.15	0.08017	5.62	0.35
318.15	0.12102	8.35	0.35
318.15	0.12102	8.37	0.35
318.15	0.12102	8.35	0.35
318.15	0.16129	10.96	0.35
318.15	0.16129	10.99	0.35
318.15	0.16129	10.96	0.35
318.15	0.19981	13.35	0.36
318.15	0.19981	13.35	0.36
318.15	0.19981	13.36	0.36
318.15	0.23792	15.62	0.36
318.15	0.23792	15.63	0.36
318.15	0.23792	15.65	0.36

System: 2,2-diethyl-1,3-propanediol + water; phases: Liquid
Fixed: Pressure, kPa = 101
Property: Mass density, kg/m3 (Liquid); method: VIBTUB:UFactor:0.5
Temperature, K	Molality, mol/kg of 2,2-diethyl-1,3-propanediol	Mass density, kg/m3	uncertainty
278.15	0.05007	0.234	0.033
278.15	0.05007	0.236	0.033
278.15	0.05007	0.235	0.033
278.15	0.10063	0.487	0.033
278.15	0.10063	0.487	0.033
278.15	0.10063	0.487	0.033
278.15	0.1503	0.744	0.033
278.15	0.1503	0.746	0.033
278.15	0.1503	0.746	0.033
278.15	0.19965	1.011	0.033
278.15	0.19965	1.011	0.033
278.15	0.19965	1.011	0.033
278.15	0.25031	1.291	0.033
278.15	0.25031	1.292	0.033
278.15	0.25031	1.293	0.033
278.15	0.30005	1.573	0.033
278.15	0.30005	1.572	0.033
278.15	0.30005	1.575	0.033
283.15	0.05007	0.215	0.033
283.15	0.05007	0.215	0.033
283.15	0.05007	0.214	0.033
283.15	0.10063	0.444	0.033
283.15	0.10063	0.442	0.033
283.15	0.10063	0.444	0.033
283.15	0.1503	0.678	0.033
283.15	0.1503	0.677	0.033
283.15	0.1503	0.678	0.033
283.15	0.19965	0.918	0.033
283.15	0.19965	0.917	0.033
283.15	0.19965	0.917	0.033
283.15	0.25031	1.172	0.033
283.15	0.25031	1.17	0.033
283.15	0.25031	1.171	0.033
283.15	0.30005	1.427	0.033
283.15	0.30005	1.426	0.033
283.15	0.30005	1.426	0.033
288.15	0.05007	0.194	0.033
288.15	0.05007	0.194	0.033
288.15	0.05007	0.196	0.033
288.15	0.10063	0.401	0.033
288.15	0.10063	0.402	0.033
288.15	0.10063	0.403	0.033
288.15	0.1503	0.615	0.033
288.15	0.1503	0.617	0.033
288.15	0.1503	0.616	0.033
288.15	0.19965	0.831	0.033
288.15	0.19965	0.831	0.033
288.15	0.19965	0.832	0.033
288.15	0.25031	1.06	0.033
288.15	0.25031	1.06	0.033
288.15	0.25031	1.061	0.033
288.15	0.30005	1.287	0.033
288.15	0.30005	1.289	0.033
288.15	0.30005	1.29	0.033
293.15	0.05007	0.177	0.033
293.15	0.05007	0.177	0.033
293.15	0.05007	0.177	0.033
293.15	0.10063	0.364	0.033
293.15	0.10063	0.366	0.033
293.15	0.10063	0.366	0.033
293.15	0.1503	0.557	0.033
293.15	0.1503	0.557	0.033
293.15	0.1503	0.558	0.033
293.15	0.19965	0.752	0.033
293.15	0.19965	0.752	0.033
293.15	0.19965	0.753	0.033
293.15	0.25031	0.957	0.033
293.15	0.25031	0.957	0.033
293.15	0.25031	0.958	0.033
293.15	0.30005	1.161	0.033
293.15	0.30005	1.161	0.033
293.15	0.30005	1.162	0.033
298.15	0.05007	0.159	0.033
298.15	0.05007	0.16	0.033
298.15	0.05007	0.159	0.033
298.15	0.10063	0.328	0.033
298.15	0.10063	0.329	0.033
298.15	0.10063	0.33	0.033
298.15	0.1503	0.502	0.033
298.15	0.1503	0.503	0.033
298.15	0.1503	0.502	0.033
298.15	0.19965	0.675	0.033
298.15	0.19965	0.676	0.033
298.15	0.19965	0.676	0.033
298.15	0.25031	0.858	0.033
298.15	0.25031	0.858	0.033
298.15	0.25031	0.858	0.033
298.15	0.30005	1.038	0.033
298.15	0.30005	1.039	0.033
298.15	0.30005	1.039	0.033
303.15	0.05007	0.144	0.033
303.15	0.05007	0.143	0.033
303.15	0.05007	0.144	0.033
303.15	0.10063	0.294	0.033
303.15	0.10063	0.296	0.033
303.15	0.10063	0.295	0.033
303.15	0.1503	0.449	0.033
303.15	0.1503	0.451	0.033
303.15	0.1503	0.45	0.033
303.15	0.19965	0.602	0.033
303.15	0.19965	0.602	0.033
303.15	0.19965	0.604	0.033
303.15	0.25031	0.764	0.033
303.15	0.25031	0.764	0.033
303.15	0.25031	0.764	0.033
303.15	0.30005	0.922	0.033
303.15	0.30005	0.922	0.033
303.15	0.30005	0.923	0.033
308.15	0.05007	0.126	0.033
308.15	0.05007	0.128	0.033
308.15	0.05007	0.129	0.033
308.15	0.10063	0.26	0.033
308.15	0.10063	0.262	0.033
308.15	0.10063	0.263	0.033
308.15	0.1503	0.397	0.033
308.15	0.1503	0.397	0.033
308.15	0.1503	0.398	0.033
308.15	0.19965	0.531	0.033
308.15	0.19965	0.532	0.033
308.15	0.19965	0.532	0.033
308.15	0.25031	0.671	0.033
308.15	0.25031	0.671	0.033
308.15	0.25031	0.672	0.033
308.15	0.30005	0.808	0.033
308.15	0.30005	0.807	0.033
308.15	0.30005	0.809	0.033
318.15	0.05007	0.094	0.033
318.15	0.05007	0.094	0.033
318.15	0.05007	0.096	0.033
318.15	0.10063	0.193	0.033
318.15	0.10063	0.193	0.033
318.15	0.10063	0.194	0.033
318.15	0.1503	0.294	0.033
318.15	0.1503	0.294	0.033
318.15	0.1503	0.293	0.033
318.15	0.19965	0.389	0.033
318.15	0.19965	0.39	0.033
318.15	0.19965	0.391	0.033
318.15	0.25031	0.487	0.033
318.15	0.25031	0.489	0.033
318.15	0.25031	0.49	0.033
318.15	0.30005	0.583	0.033
318.15	0.30005	0.584	0.033
318.15	0.30005	0.586	0.033

System: 2,2-diethyl-1,3-propanediol + water; phases: Liquid
Fixed: Pressure, kPa = 101
Property: Speed of sound, m/s (Liquid); method: LVPAI:UFactor:0.5
Temperature, K	Molality, mol/kg of 2,2-diethyl-1,3-propanediol	Speed of sound, m/s	uncertainty
278.15	0.05007	6.87	0.21
278.15	0.05007	6.9	0.21
278.15	0.05007	6.87	0.21
278.15	0.10063	13.68	0.21
278.15	0.10063	13.7	0.21
278.15	0.10063	13.68	0.21
278.15	0.1503	20.21	0.21
278.15	0.1503	20.22	0.21
278.15	0.1503	20.21	0.21
278.15	0.19965	26.6	0.21
278.15	0.19965	26.62	0.21
278.15	0.19965	26.59	0.21
278.15	0.25031	33.01	0.22
278.15	0.25031	33.02	0.22
278.15	0.25031	33.03	0.22
278.15	0.30005	39.2	0.22
278.15	0.30005	39.21	0.22
278.15	0.30005	39.2	0.22
283.15	0.05007	6.33	0.21
283.15	0.05007	6.34	0.21
283.15	0.05007	6.35	0.21
283.15	0.10063	12.61	0.21
283.15	0.10063	12.6	0.21
283.15	0.10063	12.62	0.21
283.15	0.1503	18.65	0.21
283.15	0.1503	18.65	0.21
283.15	0.1503	18.66	0.21
283.15	0.19965	24.53	0.21
283.15	0.19965	24.53	0.21
283.15	0.19965	24.53	0.21
283.15	0.25031	30.44	0.22
283.15	0.25031	30.45	0.22
283.15	0.25031	30.46	0.22
283.15	0.30005	36.1	0.22
283.15	0.30005	36.11	0.22
283.15	0.30005	36.13	0.22
288.15	0.05007	5.88	0.21
288.15	0.05007	5.88	0.21
288.15	0.05007	5.89	0.21
288.15	0.10063	11.67	0.21
288.15	0.10063	11.67	0.21
288.15	0.10063	11.68	0.21
288.15	0.1503	17.22	0.21
288.15	0.1503	17.22	0.21
288.15	0.1503	17.23	0.21
288.15	0.19965	22.67	0.21
288.15	0.19965	22.65	0.21
288.15	0.19965	22.66	0.21
288.15	0.25031	28.09	0.22
288.15	0.25031	28.09	0.22
288.15	0.25031	28.1	0.22
288.15	0.30005	33.3	0.22
288.15	0.30005	33.29	0.22
288.15	0.30005	33.3	0.22
293.15	0.05007	5.41	0.21
293.15	0.05007	5.41	0.21
293.15	0.05007	5.42	0.21
293.15	0.10063	10.77	0.21
293.15	0.10063	10.77	0.21
293.15	0.10063	10.78	0.21
293.15	0.1503	15.9	0.21
293.15	0.1503	15.9	0.21
293.15	0.1503	15.9	0.21
293.15	0.19965	20.89	0.21
293.15	0.19965	20.88	0.21
293.15	0.19965	20.9	0.21
293.15	0.25031	25.89	0.22
293.15	0.25031	25.89	0.22
293.15	0.25031	25.9	0.22
293.15	0.30005	30.66	0.22
293.15	0.30005	30.67	0.22
293.15	0.30005	30.68	0.22
298.15	0.05007	5.01	0.21
298.15	0.05007	5.01	0.21
298.15	0.05007	5.02	0.21
298.15	0.10063	9.94	0.21
298.15	0.10063	9.95	0.21
298.15	0.10063	9.96	0.21
298.15	0.1503	14.67	0.21
298.15	0.1503	14.68	0.21
298.15	0.1503	14.69	0.21
298.15	0.19965	19.26	0.21
298.15	0.19965	19.27	0.21
298.15	0.19965	19.28	0.21
298.15	0.25031	23.83	0.21
298.15	0.25031	23.84	0.21
298.15	0.25031	23.86	0.21
298.15	0.30005	28.19	0.22
298.15	0.30005	28.19	0.22
298.15	0.30005	28.21	0.22
303.15	0.05007	4.62	0.21
303.15	0.05007	4.63	0.21
303.15	0.05007	4.63	0.21
303.15	0.10063	9.17	0.21
303.15	0.10063	9.18	0.21
303.15	0.10063	9.18	0.21
303.15	0.1503	13.51	0.21
303.15	0.1503	13.52	0.21
303.15	0.1503	13.53	0.21
303.15	0.19965	17.71	0.21
303.15	0.19965	17.72	0.21
303.15	0.19965	17.73	0.21
303.15	0.25031	21.9	0.21
303.15	0.25031	21.91	0.21
303.15	0.25031	21.93	0.21
303.15	0.30005	25.89	0.22
303.15	0.30005	25.9	0.22
303.15	0.30005	25.92	0.22
308.15	0.05007	4.25	0.21
308.15	0.05007	4.25	0.21
308.15	0.05007	4.24	0.21
308.15	0.10063	8.41	0.21
308.15	0.10063	8.42	0.21
308.15	0.10063	8.42	0.21
308.15	0.1503	12.4	0.21
308.15	0.1503	12.41	0.21
308.15	0.1503	12.41	0.21
308.15	0.19965	16.26	0.21
308.15	0.19965	16.27	0.21
308.15	0.19965	16.27	0.21
308.15	0.25031	20.09	0.21
308.15	0.25031	20.1	0.21
308.15	0.25031	20.11	0.21
308.15	0.30005	23.72	0.22
308.15	0.30005	23.72	0.22
308.15	0.30005	23.73	0.22
318.15	0.05007	3.57	0.35
318.15	0.05007	3.56	0.35
318.15	0.05007	3.58	0.35
318.15	0.10063	7.08	0.35
318.15	0.10063	7.07	0.35
318.15	0.10063	7.07	0.35
318.15	0.1503	10.4	0.35
318.15	0.1503	10.39	0.35
318.15	0.1503	10.4	0.35
318.15	0.19965	13.56	0.35
318.15	0.19965	13.55	0.35
318.15	0.19965	13.57	0.35
318.15	0.25031	16.67	0.35
318.15	0.25031	16.67	0.35
318.15	0.25031	16.68	0.35
318.15	0.30005	19.61	0.36
318.15	0.30005	19.61	0.36
318.15	0.30005	19.62	0.36

System: 2-butyl-2-ethyl-1,3-propanediol + water; phases: Liquid
Fixed: Pressure, kPa = 101
Property: Mass density, kg/m3 (Liquid); method: VIBTUB:UFactor:0.5
Temperature, K	Molality, mol/kg of 2-butyl-2-ethyl-1,3-propanediol	Mass density, kg/m3	uncertainty
278.15	0.02882	0.055	0.066
278.15	0.02882	0.057	0.066
278.15	0.02882	0.057	0.066
278.15	0.03112	0.059	0.066
278.15	0.03112	0.062	0.066
278.15	0.03112	0.061	0.066
278.15	0.03298	0.063	0.066
278.15	0.03298	0.065	0.066
278.15	0.03298	0.065	0.066
278.15	0.0341	0.066	0.066
278.15	0.0341	0.067	0.066
278.15	0.0341	0.068	0.066
278.15	0.03433	0.065	0.066
278.15	0.03433	0.068	0.066
278.15	0.03433	0.069	0.066
283.15	0.02882	0.035	0.066
283.15	0.02882	0.035	0.066
283.15	0.02882	0.036	0.066
283.15	0.03112	0.037	0.066
283.15	0.03112	0.039	0.066
283.15	0.03112	0.039	0.066
283.15	0.03298	0.041	0.066
283.15	0.03298	0.04	0.066
283.15	0.03298	0.042	0.066
283.15	0.0341	0.042	0.066
283.15	0.0341	0.043	0.066
283.15	0.0341	0.043	0.066
283.15	0.03433	0.042	0.066
283.15	0.03433	0.043	0.066
283.15	0.03433	0.043	0.066
288.15	0.02882	0.0175	0.0662
288.15	0.02882	0.017	0.0662
288.15	0.02882	0.016	0.0662
288.15	0.03112	0.0195	0.0662
288.15	0.03112	0.018	0.0662
288.15	0.03112	0.017	0.0662
288.15	0.03298	0.0215	0.0662
288.15	0.03298	0.02	0.0662
288.15	0.03298	0.019	0.0662
288.15	0.0341	0.0225	0.0662
288.15	0.0341	0.021	0.0662
288.15	0.0341	0.02	0.0662
288.15	0.03433	0.0225	0.0662
288.15	0.03433	0.02	0.0662
288.15	0.03433	0.02	0.0662
293.15	0.02882	0	0.001
293.15	0.02882	0	0.001
293.15	0.02882	0	0.001
293.15	0.03112	0	0.001
293.15	0.03112	0	0.001
293.15	0.03112	0	0.001
293.15	0.03298	0	0.001
293.15	0.03298	0	0.001
293.15	0.03298	0	0.001
293.15	0.0341	0.001	0.066
293.15	0.0341	0	0.001
293.15	0.0341	0	0.001
293.15	0.03433	0	0.001
293.15	0.03433	-0.001	0.066
293.15	0.03433	0	0.001
298.15	0.02882	-0.018	0.066
298.15	0.02882	-0.019	0.066
298.15	0.02882	-0.019	0.066
298.15	0.03112	-0.02	0.066
298.15	0.03112	-0.019	0.066
298.15	0.03112	-0.02	0.066
298.15	0.03298	-0.02	0.066
298.15	0.03298	-0.02	0.066
298.15	0.03298	-0.021	0.066
298.15	0.0341	-0.021	0.066
298.15	0.0341	-0.021	0.066
298.15	0.0341	-0.022	0.066
298.15	0.03433	-0.022	0.066
298.15	0.03433	-0.022	0.066
298.15	0.03433	-0.022	0.066
303.15	0.02882	-0.035	0.066
303.15	0.02882	-0.035	0.066
303.15	0.02882	-0.035	0.066
303.15	0.03112	-0.036	0.066
303.15	0.03112	-0.037	0.066
303.15	0.03112	-0.036	0.066
303.15	0.03298	-0.039	0.066
303.15	0.03298	-0.04	0.066
303.15	0.03298	-0.039	0.066
303.15	0.0341	-0.039	0.066
303.15	0.0341	-0.04	0.066
303.15	0.0341	-0.04	0.066
303.15	0.03433	-0.04	0.066
303.15	0.03433	-0.041	0.066
303.15	0.03433	-0.04	0.066
308.15	0.02882	-0.052	0.066
308.15	0.02882	-0.048	0.066
308.15	0.02882	-0.049	0.066
308.15	0.03112	-0.056	0.066
308.15	0.03112	-0.052	0.066
308.15	0.03112	-0.053	0.066
308.15	0.03298	-0.057	0.066
308.15	0.03298	-0.055	0.066
308.15	0.03298	-0.056	0.066
308.15	0.0341	-0.059	0.066
308.15	0.0341	-0.057	0.066
308.15	0.0341	-0.058	0.066
308.15	0.03433	-0.061	0.066
308.15	0.03433	-0.058	0.066
308.15	0.03433	-0.058	0.066
318.15	0.02882	-0.078	0.066
318.15	0.02882	-0.08	0.066
318.15	0.02882	-0.077	0.066
318.15	0.03112	-0.087	0.066
318.15	0.03112	-0.086	0.066
318.15	0.03112	-0.083	0.066
318.15	0.03298	-0.09	0.066
318.15	0.03298	-0.09	0.066
318.15	0.03298	-0.087	0.066
318.15	0.0341	-0.094	0.066
318.15	0.0341	-0.093	0.066
318.15	0.0341	-0.091	0.066
318.15	0.03433	-0.096	0.066
318.15	0.03433	-0.096	0.066
318.15	0.03433	-0.092	0.066

System: 2-butyl-2-ethyl-1,3-propanediol + water; phases: Liquid
Fixed: Pressure, kPa = 101
Property: Speed of sound, m/s (Liquid); method: LVPAI:UFactor:0.5
Temperature, K	Molality, mol/kg of 2-butyl-2-ethyl-1,3-propanediol	Speed of sound, m/s	uncertainty
278.15	0.02882	5.21	0.21
278.15	0.02882	5.18	0.21
278.15	0.02882	5.2	0.21
278.15	0.03112	5.61	0.21
278.15	0.03112	5.58	0.21
278.15	0.03112	5.61	0.21
278.15	0.03298	5.94	0.21
278.15	0.03298	5.91	0.21
278.15	0.03298	5.93	0.21
278.15	0.0341	6.14	0.21
278.15	0.0341	6.12	0.21
278.15	0.0341	6.14	0.21
278.15	0.03433	6.17	0.21
278.15	0.03433	6.16	0.21
278.15	0.03433	6.17	0.21
283.15	0.02882	4.78	0.21
283.15	0.02882	4.77	0.21
283.15	0.02882	4.78	0.21
283.15	0.03112	5.16	0.21
283.15	0.03112	5.14	0.21
283.15	0.03112	5.16	0.21
283.15	0.03298	5.46	0.21
283.15	0.03298	5.45	0.21
283.15	0.03298	5.46	0.21
283.15	0.0341	5.63	0.21
283.15	0.0341	5.63	0.21
283.15	0.0341	5.64	0.21
283.15	0.03433	5.68	0.21
283.15	0.03433	5.67	0.21
283.15	0.03433	5.68	0.21
288.15	0.02882	4.44	0.21
288.15	0.02882	4.43	0.21
288.15	0.02882	4.41	0.21
288.15	0.03112	4.77	0.21
288.15	0.03112	4.77	0.21
288.15	0.03112	4.76	0.21
288.15	0.03298	5.04	0.21
288.15	0.03298	5.04	0.21
288.15	0.03298	5.04	0.21
288.15	0.0341	5.22	0.21
288.15	0.0341	5.22	0.21
288.15	0.0341	5.21	0.21
288.15	0.03433	5.25	0.21
288.15	0.03433	5.25	0.21
288.15	0.03433	5.25	0.21
293.15	0.02882	4.05	0.21
293.15	0.02882	4.05	0.21
293.15	0.02882	4.05	0.21
293.15	0.03112	4.36	0.21
293.15	0.03112	4.37	0.21
293.15	0.03112	4.37	0.21
293.15	0.03298	4.62	0.21
293.15	0.03298	4.63	0.21
293.15	0.03298	4.63	0.21
293.15	0.0341	4.77	0.21
293.15	0.0341	4.79	0.21
293.15	0.0341	4.78	0.21
293.15	0.03433	4.8	0.21
293.15	0.03433	4.81	0.21
293.15	0.03433	4.81	0.21
298.15	0.02882	3.76	0.21
298.15	0.02882	3.72	0.21
298.15	0.02882	3.73	0.21
298.15	0.03112	4.05	0.21
298.15	0.03112	4.01	0.21
298.15	0.03112	4.02	0.21
298.15	0.03298	4.29	0.21
298.15	0.03298	4.24	0.21
298.15	0.03298	4.26	0.21
298.15	0.0341	4.43	0.21
298.15	0.0341	4.39	0.21
298.15	0.0341	4.4	0.21
298.15	0.03433	4.46	0.21
298.15	0.03433	4.42	0.21
298.15	0.03433	4.43	0.21
303.15	0.02882	3.42	0.2
303.15	0.02882	3.42	0.2
303.15	0.02882	3.43	0.2
303.15	0.03112	3.68	0.2
303.15	0.03112	3.69	0.2
303.15	0.03112	3.69	0.2
303.15	0.03298	3.89	0.21
303.15	0.03298	3.91	0.21
303.15	0.03298	3.9	0.21
303.15	0.0341	4.03	0.21
303.15	0.0341	4.03	0.21
303.15	0.0341	4.03	0.21
303.15	0.03433	4.06	0.21
303.15	0.03433	4.05	0.21
303.15	0.03433	4.06	0.21
308.15	0.02882	3.12	0.2
308.15	0.02882	3.12	0.2
308.15	0.02882	3.1	0.2
308.15	0.03112	3.36	0.2
308.15	0.03112	3.35	0.2
308.15	0.03112	3.34	0.2
308.15	0.03298	3.55	0.2
308.15	0.03298	3.55	0.2
308.15	0.03298	3.55	0.2
308.15	0.0341	3.68	0.2
308.15	0.0341	3.67	0.2
308.15	0.0341	3.65	0.2
308.15	0.03433	3.7	0.21
308.15	0.03433	3.69	0.21
308.15	0.03433	3.67	0.2
318.15	0.02882	2.57	0.35
318.15	0.02882	2.57	0.35
318.15	0.02882	2.56	0.35
318.15	0.03112	2.77	0.35
318.15	0.03112	2.76	0.35
318.15	0.03112	2.76	0.35
318.15	0.03298	2.93	0.35
318.15	0.03298	2.92	0.35
318.15	0.03298	2.92	0.35
318.15	0.0341	3.02	0.35
318.15	0.0341	3.02	0.35
318.15	0.0341	3.02	0.35
318.15	0.03433	3.04	0.35
318.15	0.03433	3.03	0.35
318.15	0.03433	3.03	0.35

System: 1,5-dihydroxy-3-methylpentane + water; phases: Liquid
Fixed: Pressure, kPa = 101
Property: Mass density, kg/m3 (Liquid); method: VIBTUB:UFactor:0.5
Temperature, K	Molality, mol/kg of 1,5-dihydroxy-3-methylpentane	Mass density, kg/m3	uncertainty
278.15	0.10004	0.02	0.062
278.15	0.10004	0.022	0.062
278.15	0.10004	0.021	0.062
278.15	0.14998	0.05	0.062
278.15	0.14998	0.051	0.062
278.15	0.14998	0.051	0.062
278.15	0.20001	0.089	0.062
278.15	0.20001	0.09	0.062
278.15	0.20001	0.09	0.062
278.15	0.24992	0.137	0.062
278.15	0.24992	0.14	0.062
278.15	0.24992	0.14	0.062
278.15	0.30002	0.196	0.062
278.15	0.30002	0.198	0.062
278.15	0.30002	0.197	0.062
278.15	0.34952	0.261	0.062
278.15	0.34952	0.263	0.062
278.15	0.34952	0.263	0.062
283.15	0.10004	-0.008	0.062
283.15	0.10004	-0.008	0.062
283.15	0.10004	-0.008	0.062
283.15	0.14998	0.005	0.062
283.15	0.14998	0.005	0.062
283.15	0.14998	0.004	0.062
283.15	0.20001	0.027	0.062
283.15	0.20001	0.027	0.062
283.15	0.20001	0.026	0.062
283.15	0.24992	0.057	0.062
283.15	0.24992	0.058	0.062
283.15	0.24992	0.057	0.062
283.15	0.30002	0.096	0.062
283.15	0.30002	0.095	0.062
283.15	0.30002	0.095	0.062
283.15	0.34952	0.141	0.062
283.15	0.34952	0.14	0.062
283.15	0.34952	0.14	0.062
288.15	0.10004	-0.0335	0.0616
288.15	0.10004	-0.034	0.0616
288.15	0.10004	-0.034	0.0616
288.15	0.14998	-0.0355	0.0616
288.15	0.14998	-0.036	0.0616
288.15	0.14998	-0.036	0.0616
288.15	0.20001	-0.0305	0.0616
288.15	0.20001	-0.03	0.0616
288.15	0.20001	-0.031	0.0616
288.15	0.24992	-0.0165	0.0616
288.15	0.24992	-0.017	0.0616
288.15	0.24992	-0.018	0.0616
288.15	0.30002	0.0035	0.0616
288.15	0.30002	0.003	0.0616
288.15	0.30002	0.003	0.0616
288.15	0.34952	0.0295	0.0616
288.15	0.34952	0.03	0.0616
288.15	0.34952	0.03	0.0616
293.15	0.10004	-0.057	0.062
293.15	0.10004	-0.058	0.062
293.15	0.10004	-0.058	0.062
293.15	0.14998	-0.073	0.062
293.15	0.14998	-0.074	0.062
293.15	0.14998	-0.074	0.062
293.15	0.20001	-0.081	0.062
293.15	0.20001	-0.082	0.062
293.15	0.20001	-0.083	0.062
293.15	0.24992	-0.083	0.062
293.15	0.24992	-0.084	0.062
293.15	0.24992	-0.084	0.062
293.15	0.30002	-0.079	0.062
293.15	0.30002	-0.079	0.062
293.15	0.30002	-0.08	0.062
293.15	0.34952	-0.069	0.062
293.15	0.34952	-0.069	0.062
293.15	0.34952	-0.069	0.062
298.15	0.10004	-0.081	0.062
298.15	0.10004	-0.081	0.062
298.15	0.14998	-0.108	0.062
298.15	0.14998	-0.109	0.062
298.15	0.20001	-0.131	0.062
298.15	0.20001	-0.131	0.062
298.15	0.24992	-0.146	0.062
298.15	0.24992	-0.146	0.062
298.15	0.30002	-0.157	0.062
298.15	0.30002	-0.156	0.062
298.15	0.34952	-0.163	0.062
298.15	0.34952	-0.162	0.062
303.15	0.10004	-0.102	0.062
303.15	0.10004	-0.102	0.062
303.15	0.10004	-0.103	0.062
303.15	0.14998	-0.142	0.062
303.15	0.14998	-0.142	0.062
303.15	0.14998	-0.143	0.062
303.15	0.20001	-0.177	0.062
303.15	0.20001	-0.176	0.062
303.15	0.20001	-0.177	0.062
303.15	0.24992	-0.206	0.062
303.15	0.24992	-0.206	0.062
303.15	0.24992	-0.206	0.062
303.15	0.30002	-0.231	0.062
303.15	0.30002	-0.23	0.062
303.15	0.30002	-0.23	0.062
303.15	0.34952	-0.251	0.062
303.15	0.34952	-0.25	0.062
303.15	0.34952	-0.25	0.062
308.15	0.10004	-0.122	0.062
308.15	0.10004	-0.121	0.062
308.15	0.10004	-0.122	0.062
308.15	0.14998	-0.173	0.062
308.15	0.14998	-0.173	0.062
308.15	0.14998	-0.174	0.062
308.15	0.20001	-0.22	0.062
308.15	0.20001	-0.22	0.062
308.15	0.20001	-0.221	0.062
308.15	0.24992	-0.262	0.062
308.15	0.24992	-0.26	0.062
308.15	0.24992	-0.263	0.062
308.15	0.30002	-0.3	0.062
308.15	0.30002	-0.298	0.062
308.15	0.30002	-0.3	0.062
308.15	0.34952	-0.334	0.062
308.15	0.34952	-0.331	0.062
308.15	0.34952	-0.334	0.062
318.15	0.10004	-0.161	0.062
318.15	0.10004	-0.162	0.062
318.15	0.10004	-0.162	0.062
318.15	0.14998	-0.235	0.062
318.15	0.14998	-0.236	0.062
318.15	0.14998	-0.236	0.062
318.15	0.20001	-0.305	0.062
318.15	0.20001	-0.307	0.062
318.15	0.20001	-0.305	0.062
318.15	0.24992	-0.372	0.062
318.15	0.24992	-0.372	0.062
318.15	0.24992	-0.371	0.062
318.15	0.30002	-0.434	0.062
318.15	0.30002	-0.436	0.062
318.15	0.30002	-0.434	0.062
318.15	0.34952	-0.494	0.062
318.15	0.34952	-0.494	0.062
318.15	0.34952	-0.494	0.062

System: 1,5-dihydroxy-3-methylpentane + water; phases: Liquid
Fixed: Pressure, kPa = 101
Property: Speed of sound, m/s (Liquid); method: LVPAI:UFactor:0.5
Temperature, K	Molality, mol/kg of 1,5-dihydroxy-3-methylpentane	Speed of sound, m/s	uncertainty
278.15	0.10004	10.74	0.21
278.15	0.10004	10.74	0.21
278.15	0.10004	10.73	0.21
278.15	0.14998	15.96	0.21
278.15	0.14998	15.97	0.21
278.15	0.14998	15.96	0.21
278.15	0.20001	21.11	0.22
278.15	0.20001	21.12	0.22
278.15	0.20001	21.11	0.22
278.15	0.24992	26.15	0.22
278.15	0.24992	26.17	0.22
278.15	0.24992	26.16	0.22
278.15	0.30002	31.13	0.23
278.15	0.30002	31.15	0.23
278.15	0.30002	31.14	0.23
278.15	0.34952	35.96	0.23
278.15	0.34952	36	0.23
278.15	0.34952	35.99	0.23
283.15	0.10004	9.84	0.21
283.15	0.10004	9.83	0.21
283.15	0.10004	9.83	0.21
283.15	0.14998	14.63	0.21
283.15	0.14998	14.62	0.21
283.15	0.14998	14.62	0.21
283.15	0.20001	19.36	0.22
283.15	0.20001	19.35	0.22
283.15	0.20001	19.35	0.22
283.15	0.24992	23.99	0.22
283.15	0.24992	23.99	0.22
283.15	0.24992	23.99	0.22
283.15	0.30002	28.55	0.23
283.15	0.30002	28.56	0.23
283.15	0.30002	28.56	0.23
283.15	0.34952	32.99	0.23
283.15	0.34952	32.99	0.23
283.15	0.34952	32.98	0.23
288.15	0.10004	9.07	0.21
288.15	0.10004	9.07	0.21
288.15	0.10004	9.07	0.21
288.15	0.14998	13.43	0.21
288.15	0.14998	13.48	0.21
288.15	0.14998	13.47	0.21
288.15	0.20001	17.81	0.22
288.15	0.20001	17.81	0.22
288.15	0.20001	17.8	0.22
288.15	0.24992	22.03	0.22
288.15	0.24992	22.07	0.22
288.15	0.24992	22.08	0.22
288.15	0.30002	26.24	0.23
288.15	0.30002	26.26	0.23
288.15	0.30002	26.27	0.23
288.15	0.34952	30.31	0.23
288.15	0.34952	30.32	0.23
288.15	0.34952	30.33	0.23
293.15	0.10004	8.33	0.21
293.15	0.10004	8.33	0.21
293.15	0.10004	8.32	0.21
293.15	0.14998	12.36	0.21
293.15	0.14998	12.37	0.21
293.15	0.14998	12.36	0.21
293.15	0.20001	16.34	0.22
293.15	0.20001	16.34	0.22
293.15	0.20001	16.34	0.22
293.15	0.24992	20.24	0.22
293.15	0.24992	20.24	0.22
293.15	0.24992	20.24	0.22
293.15	0.30002	24.07	0.22
293.15	0.30002	24.08	0.22
293.15	0.30002	24.08	0.22
293.15	0.34952	27.8	0.23
293.15	0.34952	27.8	0.23
293.15	0.34952	27.81	0.23
298.15	0.10004	7.64	0.21
298.15	0.10004	7.65	0.21
298.15	0.14998	11.37	0.21
298.15	0.14998	11.36	0.21
298.15	0.20001	15.02	0.22
298.15	0.20001	15.02	0.22
298.15	0.24992	18.59	0.22
298.15	0.24992	18.58	0.22
298.15	0.30002	22.12	0.22
298.15	0.30002	22.12	0.22
298.15	0.34952	25.5	0.23
298.15	0.34952	25.49	0.23
303.15	0.10004	7.03	0.21
303.15	0.10004	7.03	0.21
303.15	0.10004	7.04	0.21
303.15	0.14998	10.43	0.21
303.15	0.14998	10.44	0.21
303.15	0.14998	10.45	0.21
303.15	0.20001	13.78	0.21
303.15	0.20001	13.78	0.21
303.15	0.20001	13.79	0.21
303.15	0.24992	17.02	0.22
303.15	0.24992	17.04	0.22
303.15	0.24992	17.05	0.22
303.15	0.30002	20.24	0.22
303.15	0.30002	20.25	0.22
303.15	0.30002	20.25	0.22
303.15	0.34952	23.41	0.23
303.15	0.34952	23.35	0.23
303.15	0.34952	23.35	0.23
308.15	0.10004	6.36	0.21
308.15	0.10004	6.52	0.21
308.15	0.10004	6.31	0.21
308.15	0.14998	9.47	0.21
308.15	0.14998	9.65	0.21
308.15	0.14998	9.42	0.21
308.15	0.20001	12.53	0.21
308.15	0.20001	12.73	0.21
308.15	0.20001	12.59	0.21
308.15	0.24992	15.52	0.22
308.15	0.24992	15.69	0.22
308.15	0.24992	15.6	0.22
308.15	0.30002	18.5	0.22
308.15	0.30002	18.46	0.22
308.15	0.30002	18.53	0.22
308.15	0.34952	21.36	0.23
308.15	0.34952	21.25	0.23
308.15	0.34952	21.37	0.23
318.15	0.10004	5.29	0.35
318.15	0.10004	5.21	0.35
318.15	0.10004	5.39	0.35
318.15	0.14998	7.71	0.35
318.15	0.14998	7.71	0.35
318.15	0.14998	7.96	0.35
318.15	0.20001	10.19	0.35
318.15	0.20001	9.61	0.35
318.15	0.20001	10.77	0.35
318.15	0.24992	12.7	0.36
318.15	0.24992	12.3	0.36
318.15	0.24992	13.18	0.36
318.15	0.30002	15.2	0.36
318.15	0.30002	14.73	0.36
318.15	0.30002	15.48	0.36
318.15	0.34952	17.58	0.36
318.15	0.34952	17.04	0.36
318.15	0.34952	17.55	0.36
