Measured thermophysical data. Isobaric Vapor Liquid Equilibrium and Isothermal Interfacial Tensions for the System Ethanol + 2,5-Dimethylfuran
Source: J. Chem. Eng. Data, 2013, 10.1021/je400683g
Compound 1: ethanol, C2H6O, InChI=1S/C2H6O/c1-2-3/h3H,2H2,1H3, purity 99.9%
Compound 2: 2,5-dimethylfuran, C6H8O, InChI=1S/C6H8O/c1-5-3-4-6(2)7-5/h3-4H,1-2H3, purity 99.7%

System: ethanol; phases: Liquid
Property: Refractive index (Na D-line) (Liquid); method: Standard Abbe refractometry
Temperature, K	Pressure, kPa	Refractive index (Na D-line)	uncertainty
298.15	101.325	1.36068	0.00031

System: ethanol; phases: Liquid
Property: Mass density, kg/m3 (Liquid); method: Vibrating tube method
Temperature, K	Pressure, kPa	Mass density, kg/m3	uncertainty
298.15	101.325	785.06	0.12

System: ethanol; phases: Liquid, Air at 1 atmosphere
Property: Surface tension liquid-gas, N/m (Liquid); method: Maximal bubble pressure
Temperature, K	Surface tension liquid-gas, N/m	uncertainty
298.15	0.0221	0.00026

System: ethanol; phases: Liquid, Gas
Property: Vapor or sublimation pressure, kPa (Liquid); method: Closed cell (Static) method
Temperature, K	Vapor or sublimation pressure, kPa	uncertainty
323.51	30.01	0.08
326.79	35.01	0.09
329.68	40.01	0.1
332.27	45.01	0.1
334.63	50.01	0.11
336.8	55.01	0.11
338.81	60.01	0.12
340.68	65.01	0.13
342.43	70.01	0.14
344.09	75.01	0.14
345.64	80.01	0.15
347.13	85.01	0.16
348.54	90.01	0.16
349.89	95.01	0.17
351.68	102.01	0.18
334.57	50	0.2
344.02	75	0.3375
349.56	94	0.423
351.51	101.325	0.2

System: 2,5-dimethylfuran; phases: Liquid
Property: Refractive index (Na D-line) (Liquid); method: Standard Abbe refractometry
Temperature, K	Pressure, kPa	Refractive index (Na D-line)	uncertainty
298.15	101.325	1.44012	0.00032

System: 2,5-dimethylfuran; phases: Liquid
Property: Mass density, kg/m3 (Liquid); method: Vibrating tube method
Temperature, K	Pressure, kPa	Mass density, kg/m3	uncertainty
298.15	101.325	896.54	0.09

System: 2,5-dimethylfuran; phases: Liquid, Air at 1 atmosphere
Property: Surface tension liquid-gas, N/m (Liquid); method: Maximal bubble pressure
Temperature, K	Surface tension liquid-gas, N/m	uncertainty
298.15	0.0251	0.00027

System: 2,5-dimethylfuran; phases: Liquid, Gas
Property: Vapor or sublimation pressure, kPa (Liquid); method: Closed cell (Static) method
Temperature, K	Vapor or sublimation pressure, kPa	uncertainty
345.2	50	0.25
357.18	75	0.4125
364.36	94	0.564
366.83	101.325	0.6

System: ethanol + 2,5-dimethylfuran; phases: Liquid, Gas
Property: Boiling temperature at pressure P, K (Liquid); method: Closed cell (Static) method
Mole fraction of ethanol	Pressure, kPa	Boiling temperature at pressure P, K	uncertainty
0	50	345.2	0.1
0.047	50	336.7	0.27
0.091	50	333.33	0.14
0.139	50	331.56	0.1
0.179	50	330.69	0.09
0.216	50	330.09	0.09
0.276	50	329.55	0.09
0.319	50	329.2	0.08
0.374	50	328.79	0.08
0.424	50	328.64	0.08
0.478	50	328.61	0.08
0.536	50	328.6	0.08
0.589	50	328.61	0.08
0.643	50	328.69	0.08
0.692	50	328.72	0.08
0.738	50	328.96	0.08
0.787	50	329.24	0.08
0.838	50	329.57	0.08
0.892	50	330.47	0.09
0.943	50	331.44	0.11
1	50	334.57	0.08
0	75	357.18	0.11
0.046	75	348.48	0.3
0.09	75	344.61	0.17
0.132	75	342.55	0.13
0.17	75	341.46	0.11
0.213	75	340.58	0.11
0.268	75	339.86	0.1
0.312	75	339.39	0.1
0.376	75	338.67	0.1
0.421	75	338.64	0.1
0.478	75	338.54	0.1
0.534	75	338.49	0.1
0.588	75	338.5	0.1
0.641	75	338.53	0.1
0.693	75	338.59	0.1
0.739	75	338.74	0.1
0.788	75	338.99	0.1
0.84	75	339.36	0.1
0.891	75	340.39	0.1
0.944	75	341.4	0.12
1	75	344.02	0.09
0	94	364.36	0.12
0.047	94	355.62	0.34
0.085	94	351.43	0.2
0.128	94	349.15	0.14
0.169	94	347.85	0.12
0.211	94	346.78	0.11
0.261	94	345.94	0.11
0.309	94	345.42	0.1
0.367	94	344.89	0.11
0.419	94	344.63	0.1
0.474	94	344.41	0.1
0.533	94	344.32	0.1
0.589	94	344.31	0.1
0.643	94	344.34	0.1
0.692	94	344.42	0.1
0.737	94	344.54	0.1
0.787	94	344.69	0.1
0.851	94	345.17	0.1
0.893	94	345.98	0.1
0.943	94	347.09	0.12
1	94	349.56	0.09

System: ethanol + 2,5-dimethylfuran; phases: Gas, Liquid
Property: Mole fraction of ethanol (Gas); method: Chromatography
Mole fraction of ethanol	Pressure, kPa	Mole fraction of ethanol	uncertainty
0	50	0	
0.047	50	0.307	0.01
0.091	50	0.403	0.005
0.139	50	0.457	0.005
0.179	50	0.487	0.005
0.216	50	0.498	0.005
0.276	50	0.519	0.005
0.319	50	0.525	0.005
0.374	50	0.541	0.004
0.424	50	0.547	0.004
0.478	50	0.557	0.004
0.536	50	0.572	0.004
0.589	50	0.583	0.004
0.643	50	0.6	0.004
0.692	50	0.618	0.004
0.738	50	0.639	0.004
0.787	50	0.668	0.004
0.838	50	0.707	0.004
0.892	50	0.765	0.004
0.943	50	0.841	0.005
1	50	1	
0	75	0	
0.046	75	0.298	0.009
0.09	75	0.397	0.005
0.132	75	0.458	0.005
0.17	75	0.482	0.005
0.213	75	0.51	0.005
0.268	75	0.528	0.005
0.312	75	0.537	0.005
0.376	75	0.564	0.004
0.421	75	0.568	0.004
0.478	75	0.576	0.004
0.534	75	0.59	0.004
0.588	75	0.603	0.004
0.641	75	0.621	0.004
0.693	75	0.639	0.004
0.739	75	0.66	0.004
0.788	75	0.688	0.004
0.84	75	0.727	0.004
0.891	75	0.78	0.004
0.944	75	0.856	0.005
1	75	1	
0	94	0	
0.047	94	0.274	0.01
0.085	94	0.395	0.006
0.128	94	0.451	0.005
0.169	94	0.484	0.005
0.211	94	0.515	0.005
0.261	94	0.536	0.005
0.309	94	0.549	0.004
0.367	94	0.565	0.004
0.419	94	0.576	0.004
0.474	94	0.589	0.004
0.533	94	0.6	0.004
0.589	94	0.615	0.004
0.643	94	0.632	0.004
0.692	94	0.65	0.004
0.737	94	0.672	0.004
0.787	94	0.699	0.004
0.851	94	0.743	0.003
0.893	94	0.788	0.004
0.943	94	0.862	0.005
1	94	1	

System: ethanol + 2,5-dimethylfuran; phases: Liquid, Gas
Property: Azeotropic temperature, K (Liquid); method: By X=Y
Pressure, kPa	Azeotropic temperature, K	uncertainty
50	328.61	0.23
75	338.51	0.23
94	344.32	0.23

System: ethanol + 2,5-dimethylfuran; phases: Liquid, Gas
Property: Azeotropic composition: mole fraction of ethanol (Liquid); method: By X=Y
Pressure, kPa	Azeotropic composition: mole fraction of ethanol	uncertainty
50	0.577	0.005
75	0.611	0.005
94	0.627	0.004

System: ethanol + 2,5-dimethylfuran; phases: Liquid, Air at 1 atmosphere
Fixed: Temperature, K = 298.15
Property: Surface tension liquid-gas, N/m (Liquid); method: Maximal bubble pressure
Mole fraction of ethanol	Surface tension liquid-gas, N/m	uncertainty
0	0.0251	0.00027
0.049	0.02496	0.00027
0.09	0.02489	0.00027
0.176	0.02468	0.00027
0.29	0.02438	0.00027
0.386	0.02422	0.00027
0.492	0.02393	0.00027
0.594	0.02373	0.00026
0.701	0.0234	0.00026
0.804	0.02302	0.00026
0.915	0.02273	0.00026
0.963	0.0225	0.00026
1	0.0221	0.00026
