Measured thermophysical data. Solubility of Cefpiramide Sodium in Binary Ethanol + Water and 2-Propanol + Water Solvent Mixtures
Source: J. Chem. Eng. Data, 2014, 10.1021/je400786n
Compound 1: Cefpiramide sodium, C25H23N8NaO7S2, InChI=1S/C25H24N8O7S2.Na/c1-11-7-16(35)15(8-26-11)20(36)27-17(12-3-5-14(34)6-4-12)21(37)28-18-22(38)33-19(24(39)40)13(9-41-23(18)33)10-42-25-29-30-31-32(25)2;/h3-8,17-18,23,34H,9-10H2,1-2H3,(H,26,35)(H,27,36)(H,28,37)(H,39,40);/q;+1/p-1/t17-,18-,23-;/m1./s1, purity 95%
Compound 2: ethanol, C2H6O, InChI=1S/C2H6O/c1-2-3/h3H,2H2,1H3, purity 99.5%
Compound 3: propan-2-ol, C3H8O, InChI=1S/C3H8O/c1-3(2)4/h3-4H,1-2H3, purity 99.5%
Compound 4: water, H2O, InChI=1S/H2O/h1H2, purity 99.9%

System: ethanol + water + Cefpiramide sodium; phases: Liquid, Crystal
Fixed: Pressure, kPa = 101
Property: Mole fraction of Cefpiramide sodium (Liquid); method: spectrophotometry
Temperature, K	Solvent: Mole fraction of ethanol	Mole fraction of Cefpiramide sodium	uncertainty
278.2	0.4048	0.00366	0.000222
278.2	0.5003	0.0019	0.000114
278.2	0.5972	0.000795	4.8e-05
278.2	0.6969	0.00042	2.5e-05
278.2	0.8062	0.00026	1.6e-05
283.2	0.4048	0.00442	0.000268
283.2	0.5003	0.00211	0.000127
283.2	0.5972	0.000854	5.1e-05
283.2	0.6969	0.00044	2.6e-05
283.2	0.8062	0.000284	1.7e-05
288.2	0.4048	0.0054	0.000327
288.2	0.5003	0.00237	0.000143
288.2	0.5972	0.000929	5.6e-05
288.2	0.6969	0.000464	2.8e-05
288.2	0.8062	0.000312	1.9e-05
293.2	0.4048	0.0066	0.000401
293.2	0.5003	0.00271	0.000164
293.2	0.5972	0.00104	6.3e-05
293.2	0.6969	0.000505	3e-05
293.2	0.8062	0.000348	2.1e-05
298.2	0.4048	0.00836	0.000509
298.2	0.5003	0.0032	0.000193
298.2	0.5972	0.00119	7.2e-05
298.2	0.6969	0.000563	3.4e-05
298.2	0.8062	0.000398	2.4e-05
303.2	0.4048	0.01082	0.000657
303.2	0.5003	0.00384	0.000246
303.2	0.5972	0.00135	8.7e-05
303.2	0.6969	0.000631	3.9e-05
303.2	0.8062	0.000476	2.9e-05

System: propan-2-ol + water + Cefpiramide sodium; phases: Liquid, Crystal
Fixed: Pressure, kPa = 101
Property: Mole fraction of Cefpiramide sodium (Liquid); method: spectrophotometry
Temperature, K	Solvent: Mole fraction of propan-2-ol	Mole fraction of Cefpiramide sodium	uncertainty
278.2	0.3995	0.00254	0.000156
278.2	0.5068	0.000806	4.9e-05
278.2	0.6043	0.000284	1.7e-05
278.2	0.7022	9.6e-05	6e-06
278.2	0.7999	3.2e-05	2e-06
283.2	0.3995	0.00336	0.000205
283.2	0.5068	0.000955	5.8e-05
283.2	0.6043	0.000321	1.9e-05
283.2	0.7022	0.000101	6e-06
283.2	0.7999	3.3e-05	2e-06
288.2	0.3995	0.00446	0.000273
288.2	0.5068	0.00113	6.8e-05
288.2	0.6043	0.000361	2.2e-05
288.2	0.7022	0.000109	7e-06
288.2	0.7999	3.4e-05	2e-06
293.2	0.3995	0.00592	0.000362
293.2	0.5068	0.00136	8.2e-05
293.2	0.6043	0.000408	2.5e-05
293.2	0.7022	0.000119	7e-06
293.2	0.7999	3.6e-05	2e-06
298.2	0.3995	0.00782	0.000477
298.2	0.5068	0.00167	0.000101
298.2	0.6043	0.000483	2.9e-05
298.2	0.7022	0.000132	8e-06
298.2	0.7999	3.8e-05	2e-06
303.2	0.3995	0.01021	0.00062
303.2	0.5068	0.00204	0.000157
303.2	0.6043	0.000567	3.8e-05
303.2	0.7022	0.000147	1e-05
303.2	0.7999	4.2e-05	3e-06
