Measured thermophysical data. Experimental Measurements and Correlation of the Solubility of Three Primary Amides in Supercritical CO2: Acetanilide, Propanamide, and Butanamide
Source: J. Chem. Eng. Data, 2013, 10.1021/je400357t
Compound 1: carbon dioxide, CO2, InChI=1S/CO2/c2-1-3, purity 99.995%
Compound 2: N-phenylethanamide, C8H9NO, InChI=1S/C8H9NO/c1-7(10)9-8-5-3-2-4-6-8/h2-6H,1H3,(H,9,10), purity 99%
Compound 3: propanamide, C3H7NO, InChI=1S/C3H7NO/c1-2-3(4)5/h2H2,1H3,(H2,4,5), purity 98%
Compound 4: butanamide, C4H9NO, InChI=1S/C4H9NO/c1-2-3-4(5)6/h2-3H2,1H3,(H2,5,6), purity 98%

System: N-phenylethanamide + carbon dioxide; phases: Liquid, Crystal
Property: Mole fraction of N-phenylethanamide (Liquid); method: Chromatography
Temperature, K	Pressure, kPa	Mole fraction of N-phenylethanamide	uncertainty
308.2	9000	1.372e-05	1.372e-05
308.2	10000	2.181e-05	2.181e-05
308.2	12000	5.526e-05	3.823e-05
308.2	15000	0.0001278	3.65e-05
308.2	17500	0.0001534	3.15e-05
308.2	20000	0.0001986	2.77e-05
308.2	25000	0.0002461	2.44e-05
308.2	30000	0.000266	5.97e-05
308.2	35000	0.0002716	8.53e-05
308.2	40000	0.0002812	9.09e-05
313.2	9000	1.347e-05	1.347e-05
313.2	10000	2.118e-05	2.118e-05
313.2	12000	5.586e-05	3.845e-05
313.2	15000	0.0001288	5.27e-05
313.2	17500	0.0001944	4.09e-05
313.2	20000	0.000224	3.25e-05
313.2	25000	0.0002875	5.12e-05
313.2	30000	0.0004098	5.23e-05
313.2	35000	0.0004861	4.57e-05
313.2	40000	0.0005083	4.73e-05
323.2	10000	1.98e-05	1.98e-05
323.2	12000	5.466e-05	5.466e-05
323.2	15000	0.0002168	7.73e-05
323.2	17500	0.0002619	5.94e-05
323.2	20000	0.000359	6.75e-05
323.2	25000	0.0005008	5e-05
323.2	30000	0.0005343	3.56e-05
323.2	35000	0.0006107	2.8e-05
323.2	40000	0.0006252	2.45e-05

System: propanamide + carbon dioxide; phases: Liquid, Crystal
Property: Mole fraction of propanamide (Liquid); method: Chromatography
Temperature, K	Pressure, kPa	Mole fraction of propanamide	uncertainty
308.2	9000	0.0004526	0.0003865
308.2	10000	0.0007893	0.0002394
308.2	12000	0.001028	0.000276
308.2	15000	0.001268	0.000141
308.2	17500	0.0014	0.000198
308.2	20000	0.001607	0.000228
308.2	25000	0.00196	0.000164
308.2	30000	0.002099	0.000106
308.2	35000	0.00217	0.000102
308.2	40000	0.00222	0.000142
313.2	9000	0.0003344	0.0003344
313.2	10000	0.0007793	0.0003073
313.2	12000	0.001031	0.000335
313.2	15000	0.001338	0.000278
313.2	17500	0.001787	0.000285
313.2	20000	0.002028	0.000149
313.2	25000	0.002215	0.000104
313.2	30000	0.002318	0.000129
313.2	35000	0.002409	0.000218
313.2	40000	0.002571	0.000556
323.2	9000	0.0002104	0.0002104
323.2	10000	0.0004338	0.0004338
323.2	12000	0.0009231	0.0004892
323.2	15000	0.001677	0.000385
323.2	17500	0.001965	0.000274
323.2	20000	0.002354	0.000167
323.2	25000	0.002607	0.000154
323.2	30000	0.002987	0.000262
323.2	35000	0.003667	0.000638
323.2	40000	0.005685	0.00102

System: carbon dioxide + butanamide; phases: Liquid, Crystal
Property: Mole fraction of carbon dioxide (Liquid); method: Chromatography
Temperature, K	Pressure, kPa	Mole fraction of carbon dioxide	uncertainty
308.2	9000	0.0001659	0.0001659
308.2	10000	0.0002748	0.0001039
308.2	12000	0.0004827	0.0001207
308.2	15000	0.0005216	3.73e-05
308.2	17500	0.0005804	2.52e-05
308.2	20000	0.000582	3.79e-05
308.2	25000	0.0006032	6.18e-05
308.2	30000	0.0007387	0.0001508
308.2	35000	0.000754	0.0001307
308.2	40000	0.0007944	0.0001471
313.2	9000	0.0001443	0.0001443
313.2	10000	0.0002641	0.0001384
313.2	12000	0.0004465	0.0001375
313.2	15000	0.000562	7.93e-05
313.2	17500	0.000579	6.44e-05
313.2	20000	0.0006792	8.04e-05
313.2	25000	0.0007744	0.0001155
313.2	30000	0.001068	0.000116
313.2	35000	0.001088	0.000109
313.2	40000	0.00116	0.000108
323.2	9000	7.895e-05	7.895e-05
323.2	10000	0.0001448	0.0001448
323.2	11000	0.0002906	0.0002906
323.2	12000	0.0005979	0.0002821
323.2	15000	0.0009237	0.0001191
323.2	20000	0.001052	0.000103
323.2	25000	0.001252	0.000127
323.2	30000	0.001466	9.9e-05
323.2	35000	0.001587	0.0001
323.2	40000	0.001625	9.4e-05
