Measured thermophysical data. Densities, Conductivities, and Aggregation Numbers of Aqueous Solutions of Quaternary Ammonium Surfactants with Hydroxyethyl Substituents in the Headgroups
Source: J. Chem. Eng. Data, 2013, 10.1021/je400463n
Compound 1: N,N-bis(2-hydroxyethyl)-N-methyldodecan-1-aminium bromide, C17H38BrNO2, InChI=1S/C17H38NO2.BrH/c1-3-4-5-6-7-8-9-10-11-12-13-18(2,14-16-19)15-17-20;/h19-20H,3-17H2,1-2H3;1H/q+1;/p-1, purity 99.8%
Compound 2: dodecyl(2-hydroxyethyl)dimethylammonium bromide, C16H36BrNO, InChI=1S/C16H36NO.BrH/c1-4-5-6-7-8-9-10-11-12-13-14-17(2,3)15-16-18;/h18H,4-16H2,1-3H3;1H/q+1;/p-1, purity 99.8%
Compound 3: dodecyltrimethylammonium bromide, C15H34BrN, InChI=1S/C15H34N.BrH/c1-5-6-7-8-9-10-11-12-13-14-15-16(2,3)4;/h5-15H2,1-4H3;1H/q+1;/p-1, purity 99%
Compound 4: water, H2O, InChI=1S/H2O/h1H2

System: water; phases: Liquid
Fixed: Pressure, kPa = 100
Property: Mass density, kg/m3 (Liquid); method: Pycnometric method
Temperature, K	Mass density, kg/m3	uncertainty
293.15	998.208	0.235
298.15	997.047	0.248
303.15	995.649	0.259
308.15	994.034	0.269
313.15	992.216	0.28
318.15	990.212	0.29

System: dodecyltrimethylammonium bromide + water; phases: Liquid
Fixed: Pressure, kPa = 100
Property: Mass density, kg/m3 (Liquid); method: Pycnometric method
Temperature, K	Molality, mol/kg of dodecyltrimethylammonium bromide	Mass density, kg/m3	uncertainty
293.15	0	998.208	0.235
293.15	0.00608	998.345	0.234
293.15	0.00707	998.368	0.234
293.15	0.00796	998.388	0.234
293.15	0.00897	998.411	0.234
293.15	0.00999	998.434	0.234
293.15	0.01096	998.456	0.234
293.15	0.01199	998.48	0.234
293.15	0.01299	998.503	0.234
293.15	0.01398	998.524	0.234
293.15	0.01503	998.543	0.234
293.15	0.01596	998.556	0.234
293.15	0.01802	998.592	0.235
293.15	0.02001	998.622	0.235
293.15	0.02494	998.695	0.235
293.15	0.02994	998.775	0.235
293.15	0.03501	998.85	0.235
293.15	0.03995	998.918	0.235
293.15	0.04505	998.991	0.235
293.15	0.04973	999.061	0.235
293.15	0.05498	999.145	0.235
293.15	0.06001	999.217	0.235
298.15	0	997.047	0.248
298.15	0.00608	997.176	0.246
298.15	0.00707	997.197	0.246
298.15	0.00796	997.216	0.246
298.15	0.00897	997.237	0.246
298.15	0.00999	997.259	0.246
298.15	0.01096	997.28	0.246
298.15	0.01199	997.302	0.246
298.15	0.01299	997.324	0.246
298.15	0.01398	997.343	0.246
298.15	0.01503	997.363	0.246
298.15	0.01596	997.376	0.246
298.15	0.01802	997.408	0.246
298.15	0.02001	997.435	0.246
298.15	0.02494	997.505	0.246
298.15	0.02994	997.58	0.246
298.15	0.03501	997.647	0.246
298.15	0.03995	997.712	0.246
298.15	0.04505	997.78	0.246
298.15	0.04973	997.845	0.246
298.15	0.05498	997.923	0.246
298.15	0.06001	997.992	0.246
303.15	0	995.649	0.259
303.15	0.00608	995.77	0.257
303.15	0.00707	995.79	0.257
303.15	0.00796	995.807	0.257
303.15	0.00897	995.827	0.257
303.15	0.00999	995.847	0.257
303.15	0.01096	995.866	0.257
303.15	0.01199	995.886	0.257
303.15	0.01299	995.905	0.257
303.15	0.01398	995.923	0.257
303.15	0.01503	995.942	0.257
303.15	0.01596	995.956	0.257
303.15	0.01802	995.986	0.257
303.15	0.02001	996.013	0.257
303.15	0.02494	996.077	0.257
303.15	0.02994	996.147	0.257
303.15	0.03501	996.212	0.257
303.15	0.03995	996.271	0.257
303.15	0.04505	996.336	0.257
303.15	0.04973	996.396	0.257
303.15	0.05498	996.47	0.258
303.15	0.06001	996.535	0.258
308.15	0	994.034	0.269
308.15	0.00608	994.144	0.268
308.15	0.00707	994.162	0.268
308.15	0.00796	994.178	0.268
308.15	0.00897	994.196	0.268
308.15	0.00999	994.214	0.268
308.15	0.01096	994.232	0.268
308.15	0.01199	994.25	0.268
308.15	0.01299	994.268	0.268
308.15	0.01398	994.286	0.268
308.15	0.01503	994.304	0.268
308.15	0.01596	994.32	0.268
308.15	0.01802	994.345	0.268
308.15	0.02001	994.37	0.268
308.15	0.02494	994.432	0.268
308.15	0.02994	994.498	0.268
308.15	0.03501	994.557	0.268
308.15	0.03995	994.615	0.268
308.15	0.04505	994.675	0.269
308.15	0.04973	994.733	0.269
308.15	0.05498	994.801	0.269
308.15	0.06001	994.86	0.269
313.15	0	992.216	0.28
313.15	0.00608	992.319	0.279
313.15	0.00707	992.336	0.279
313.15	0.00796	992.35	0.279
313.15	0.00897	992.367	0.279
313.15	0.00999	992.383	0.279
313.15	0.01096	992.399	0.279
313.15	0.01199	992.416	0.279
313.15	0.01299	992.432	0.279
313.15	0.01398	992.448	0.279
313.15	0.01503	992.466	0.279
313.15	0.01596	992.48	0.279
313.15	0.01802	992.506	0.279
313.15	0.02001	992.532	0.279
313.15	0.02494	992.587	0.279
313.15	0.02994	992.647	0.279
313.15	0.03501	992.706	0.279
313.15	0.03995	992.76	0.28
313.15	0.04505	992.817	0.28
313.15	0.04973	992.871	0.28
313.15	0.05498	992.935	0.28
313.15	0.06001	992.993	0.28
318.15	0	990.212	0.29
318.15	0.00608	990.306	0.29
318.15	0.00707	990.321	0.29
318.15	0.00796	990.334	0.29
318.15	0.00897	990.349	0.29
318.15	0.00999	990.364	0.29
318.15	0.01096	990.379	0.29
318.15	0.01199	990.394	0.29
318.15	0.01299	990.409	0.29
318.15	0.01398	990.424	0.29
318.15	0.01503	990.44	0.29
318.15	0.01596	990.454	0.29
318.15	0.01802	990.48	0.29
318.15	0.02001	990.503	0.29
318.15	0.02494	990.558	0.29
318.15	0.02994	990.616	0.29
318.15	0.03501	990.671	0.29
318.15	0.03995	990.721	0.291
318.15	0.04505	990.774	0.291
318.15	0.04973	990.824	0.291
318.15	0.05498	990.883	0.291
318.15	0.06001	990.938	0.291

System: dodecyl(2-hydroxyethyl)dimethylammonium bromide + water; phases: Liquid
Fixed: Pressure, kPa = 100
Property: Mass density, kg/m3 (Liquid); method: Pycnometric method
Temperature, K	Molality, mol/kg of dodecyl(2-hydroxyethyl)dimethylammonium bromide	Mass density, kg/m3	uncertainty
293.15	0.00798	998.5	0.234
293.15	0.009	998.537	0.234
293.15	0.01003	998.574	0.234
293.15	0.01099	998.61	0.234
293.15	0.01195	998.646	0.234
293.15	0.013	998.684	0.234
293.15	0.01395	998.716	0.234
293.15	0.01498	998.747	0.234
293.15	0.01595	998.774	0.234
293.15	0.01793	998.831	0.234
293.15	0.01991	998.886	0.234
293.15	0.02489	999.025	0.234
293.15	0.02994	999.159	0.235
293.15	0.03493	999.299	0.235
293.15	0.0399	999.439	0.235
293.15	0.04493	999.582	0.235
293.15	0.04982	999.714	0.235
293.15	0.05488	999.856	0.235
298.15	0.00798	997.328	0.246
298.15	0.009	997.364	0.246
298.15	0.01003	997.4	0.246
298.15	0.01099	997.434	0.246
298.15	0.01195	997.468	0.246
298.15	0.013	997.503	0.246
298.15	0.01395	997.536	0.246
298.15	0.01498	997.566	0.246
298.15	0.01595	997.591	0.246
298.15	0.01793	997.647	0.246
298.15	0.01991	997.7	0.246
298.15	0.02489	997.835	0.246
298.15	0.02994	997.963	0.246
298.15	0.03493	998.101	0.246
298.15	0.0399	998.235	0.246
298.15	0.04493	998.372	0.246
298.15	0.04982	998.5	0.246
298.15	0.05488	998.637	0.246
303.15	0.00798	995.92	0.257
303.15	0.009	995.954	0.257
303.15	0.01003	995.989	0.257
303.15	0.01099	996.02	0.257
303.15	0.01195	996.053	0.257
303.15	0.013	996.087	0.257
303.15	0.01395	996.117	0.257
303.15	0.01498	996.147	0.257
303.15	0.01595	996.174	0.257
303.15	0.01793	996.226	0.257
303.15	0.01991	996.278	0.257
303.15	0.02489	996.408	0.257
303.15	0.02994	996.535	0.257
303.15	0.03493	996.667	0.257
303.15	0.0399	996.795	0.257
303.15	0.04493	996.93	0.257
303.15	0.04982	997.055	0.257
303.15	0.05488	997.186	0.257
308.15	0.00798	994.291	0.268
308.15	0.009	994.324	0.268
308.15	0.01003	994.356	0.268
308.15	0.01099	994.387	0.268
308.15	0.01195	994.418	0.268
308.15	0.013	994.451	0.268
308.15	0.01395	994.481	0.268
308.15	0.01498	994.511	0.268
308.15	0.01595	994.537	0.268
308.15	0.01793	994.588	0.268
308.15	0.01991	994.637	0.268
308.15	0.02489	994.766	0.268
308.15	0.02994	994.888	0.268
308.15	0.03493	995.018	0.268
308.15	0.0399	995.142	0.268
308.15	0.04493	995.274	0.268
308.15	0.04982	995.395	0.268
308.15	0.05488	995.52	0.268
313.15	0.00798	992.462	0.279
313.15	0.009	992.494	0.279
313.15	0.01003	992.525	0.279
313.15	0.01099	992.554	0.279
313.15	0.01195	992.584	0.279
313.15	0.013	992.616	0.279
313.15	0.01395	992.644	0.279
313.15	0.01498	992.676	0.279
313.15	0.01595	992.701	0.279
313.15	0.01793	992.75	0.279
313.15	0.01991	992.8	0.279
313.15	0.02489	992.92	0.279
313.15	0.02994	993.043	0.279
313.15	0.03493	993.17	0.279
313.15	0.0399	993.291	0.279
313.15	0.04493	993.419	0.279
313.15	0.04982	993.537	0.279
313.15	0.05488	993.66	0.279
318.15	0.00798	990.446	0.29
318.15	0.009	990.476	0.29
318.15	0.01003	990.506	0.29
318.15	0.01099	990.534	0.29
318.15	0.01195	990.562	0.29
318.15	0.013	990.593	0.29
318.15	0.01395	990.621	0.29
318.15	0.01498	990.65	0.29
318.15	0.01595	990.679	0.29
318.15	0.01793	990.727	0.29
318.15	0.01991	990.776	0.29
318.15	0.02489	990.893	0.29
318.15	0.02994	991.013	0.29
318.15	0.03493	991.136	0.29
318.15	0.0399	991.254	0.29
318.15	0.04493	991.378	0.29
318.15	0.04982	991.49	0.29
318.15	0.05488	991.613	0.29

System: water + N,N-bis(2-hydroxyethyl)-N-methyldodecan-1-aminium bromide; phases: Liquid
Fixed: Pressure, kPa = 100
Property: Mass density, kg/m3 (Liquid); method: Pycnometric method
Temperature, K	Molality, mol/kg of N,N-bis(2-hydroxyethyl)-N-methyldodecan-1-aminium bromide	Mass density, kg/m3	uncertainty
293.15	0.00497	998.465	0.234
293.15	0.00607	998.521	0.234
293.15	0.00698	998.568	0.234
293.15	0.00805	998.622	0.234
293.15	0.00909	998.675	0.234
293.15	0.01002	998.722	0.234
293.15	0.01109	998.774	0.234
293.15	0.01202	998.818	0.234
293.15	0.01306	998.867	0.234
293.15	0.01414	998.915	0.234
293.15	0.01505	998.953	0.234
293.15	0.01609	998.993	0.234
293.15	0.01815	999.08	0.235
293.15	0.02008	999.16	0.235
293.15	0.02518	999.367	0.235
293.15	0.03023	999.571	0.235
293.15	0.03525	999.778	0.235
293.15	0.04028	999.983	0.235
293.15	0.04512	1000.187	0.235
293.15	0.05025	1000.398	0.235
298.15	0.00497	997.294	0.246
298.15	0.00607	997.349	0.246
298.15	0.00698	997.394	0.246
298.15	0.00805	997.446	0.246
298.15	0.00909	997.498	0.246
298.15	0.01002	997.544	0.246
298.15	0.01109	997.597	0.246
298.15	0.01202	997.641	0.246
298.15	0.01306	997.686	0.246
298.15	0.01414	997.734	0.246
298.15	0.01505	997.771	0.246
298.15	0.01609	997.811	0.246
298.15	0.01815	997.897	0.246
298.15	0.02008	997.976	0.246
298.15	0.02518	998.178	0.246
298.15	0.03023	998.38	0.246
298.15	0.03525	998.58	0.246
298.15	0.04028	998.782	0.246
298.15	0.04512	998.981	0.246
298.15	0.05025	999.187	0.246
303.15	0.00497	995.89	0.257
303.15	0.00607	995.942	0.257
303.15	0.00698	995.986	0.257
303.15	0.00805	996.036	0.257
303.15	0.00909	996.086	0.257
303.15	0.01002	996.13	0.257
303.15	0.01109	996.18	0.257
303.15	0.01202	996.222	0.257
303.15	0.01306	996.268	0.257
303.15	0.01414	996.315	0.257
303.15	0.01505	996.353	0.257
303.15	0.01609	996.394	0.257
303.15	0.01815	996.476	0.257
303.15	0.02008	996.554	0.257
303.15	0.02518	996.752	0.257
303.15	0.03023	996.95	0.257
303.15	0.03525	997.146	0.257
303.15	0.04028	997.344	0.257
303.15	0.04512	997.539	0.257
303.15	0.05025	997.74	0.257
308.15	0.00497	994.266	0.268
308.15	0.00607	994.317	0.268
308.15	0.00698	994.359	0.268
308.15	0.00805	994.408	0.268
308.15	0.00909	994.456	0.268
308.15	0.01002	994.499	0.268
308.15	0.01109	994.548	0.268
308.15	0.01202	994.59	0.268
308.15	0.01306	994.637	0.268
308.15	0.01414	994.681	0.268
308.15	0.01505	994.719	0.268
308.15	0.01609	994.756	0.268
308.15	0.01815	994.837	0.268
308.15	0.02008	994.913	0.268
308.15	0.02518	995.11	0.268
308.15	0.03023	995.305	0.268
308.15	0.03525	995.497	0.268
308.15	0.04028	995.692	0.268
308.15	0.04512	995.884	0.268
308.15	0.05025	996.082	0.269
313.15	0.00497	992.443	0.279
313.15	0.00607	992.492	0.279
313.15	0.00698	992.533	0.279
313.15	0.00805	992.58	0.279
313.15	0.00909	992.626	0.279
313.15	0.01002	992.667	0.279
313.15	0.01109	992.714	0.279
313.15	0.01202	992.755	0.279
313.15	0.01306	992.801	0.279
313.15	0.01414	992.847	0.279
313.15	0.01505	992.884	0.279
313.15	0.01609	992.923	0.279
313.15	0.01815	993.001	0.279
313.15	0.02008	993.076	0.279
313.15	0.02518	993.267	0.279
313.15	0.03023	993.46	0.279
313.15	0.03525	993.649	0.279
313.15	0.04028	993.84	0.279
313.15	0.04512	994.027	0.28
313.15	0.05025	994.223	0.28
318.15	0.00497	990.43	0.29
318.15	0.00607	990.478	0.29
318.15	0.00698	990.518	0.29
318.15	0.00805	990.564	0.29
318.15	0.00909	990.609	0.29
318.15	0.01002	990.649	0.29
318.15	0.01109	990.695	0.29
318.15	0.01202	990.735	0.29
318.15	0.01306	990.78	0.29
318.15	0.01414	990.825	0.29
318.15	0.01505	990.862	0.29
318.15	0.01609	990.9	0.29
318.15	0.01815	990.98	0.29
318.15	0.02008	991.051	0.29
318.15	0.02518	991.242	0.29
318.15	0.03023	991.431	0.29
318.15	0.03525	991.62	0.29
318.15	0.04028	991.807	0.29
318.15	0.04512	991.991	0.291
318.15	0.05025	992.184	0.291
