Measured thermophysical data. Isobaric Vapor Liquid Equilibrium for the Binary System of Hexamethyl Disiloxane + Isopropyl Acetate at Atmospheric Pressure
Source: J. Chem. Eng. Data, 2013, 10.1021/je400245u
Compound 1: hexamethyldisiloxane, C6H18OSi2, InChI=1S/C6H18OSi2/c1-8(2,3)7-9(4,5)6/h1-6H3, purity 99%
Compound 2: 1-methylethyl ethanoate, C5H10O2, InChI=1S/C5H10O2/c1-4(2)7-5(3)6/h4H,1-3H3, purity 99%

System: hexamethyldisiloxane + 1-methylethyl ethanoate; phases: Liquid, Gas
Fixed: Pressure, kPa = 101.3
Property: Boiling temperature at pressure P, K (Liquid); method: Ebulliometric method (Recirculating still)
Mole fraction of hexamethyldisiloxane	Boiling temperature at pressure P, K	uncertainty
0.0291	361.27	0.13
0.0662	361.05	0.13
0.0996	360.95	0.13
0.1374	360.87	0.13
0.1735	360.85	0.13
0.2102	360.9	0.13
0.2532	361	0.13
0.2981	361.05	0.13
0.3411	361.35	0.13
0.3863	361.55	0.13
0.4435	362	0.13
0.5	362.45	0.13
0.553	363.07	0.14
0.6044	363.87	0.14
0.6692	364.75	0.14
0.73	365.8	0.14
0.7983	367.15	0.14
0.8621	368.75	0.14
0.9363	370.85	0.14

System: hexamethyldisiloxane + 1-methylethyl ethanoate; phases: Gas, Liquid
Fixed: Pressure, kPa = 101.3
Property: Mole fraction of hexamethyldisiloxane (Gas); method: CHROM:UFactor:4
Mole fraction of hexamethyldisiloxane	Mole fraction of hexamethyldisiloxane	uncertainty
0.0291	0.0364	0.0032
0.0662	0.0755	0.0038
0.0996	0.108	0.0046
0.1374	0.1416	0.0055
0.1735	0.1707	0.0066
0.2102	0.2023	0.0077
0.2532	0.2282	0.0086
0.2981	0.2613	0.0099
0.3411	0.2929	0.0111
0.3863	0.32	0.0121
0.4435	0.3519	0.0133
0.5	0.3853	0.0146
0.553	0.4372	0.0166
0.6044	0.4868	0.0185
0.6692	0.5319	0.0179
0.73	0.5959	0.0156
0.7983	0.6598	0.0133
0.8621	0.7491	0.0102
0.9363	0.8528	0.0064
