Measured thermophysical data. Solubilities of 1,3,2-Dioxaphosphorinane-2-methanol-a,a-5,5-tetramethyl 2-oxide in Selected Solvents at 273.15 K to 343.15 K
Source: J. Chem. Eng. Data, 2013, 10.1021/je4003114
Compound 1: 2-(2-hydroxypropan-2-yl)-5,5-dimethyl-1,3,2-dioxaphosphinane 2-oxide, C8H17O4P, InChI=1S/C8H17O4P/c1-7(2)5-11-13(10,12-6-7)8(3,4)9/h9H,5-6H2,1-4H3
Compound 2: ethyl acetate, C4H8O2, InChI=1S/C4H8O2/c1-3-6-4(2)5/h3H2,1-2H3, purity 99.5%
Compound 3: trichloromethane, CHCl3, InChI=1S/CHCl3/c2-1(3)4/h1H, purity 99%
Compound 4: acetonitrile, C2H3N, InChI=1S/C2H3N/c1-2-3/h1H3, purity 99%
Compound 5: acetone, C3H6O, InChI=1S/C3H6O/c1-3(2)4/h1-2H3, purity 99%
Compound 6: methanol, CH4O, InChI=1S/CH4O/c1-2/h2H,1H3, purity 99.5%
Compound 7: 1,2-dichloroethane, C2H4Cl2, InChI=1S/C2H4Cl2/c3-1-2-4/h1-2H2, purity 99%
Compound 8: ethanol, C2H6O, InChI=1S/C2H6O/c1-2-3/h3H,2H2,1H3, purity 99.7%
Compound 9: water, H2O, InChI=1S/H2O/h1H2

System: ethyl acetate + 2-(2-hydroxypropan-2-yl)-5,5-dimethyl-1,3,2-dioxaphosphinane 2-oxide; phases: Liquid, Crystal
Fixed: Pressure, kPa = 100
Property: Mole fraction of 2-(2-hydroxypropan-2-yl)-5,5-dimethyl-1,3,2-dioxaphosphinane 2-oxide (Liquid); method: gravimetric method
Temperature, K	Mole fraction of 2-(2-hydroxypropan-2-yl)-5,5-dimethyl-1,3,2-dioxaphosphinane 2-oxide	uncertainty
293.75	0.00129	5e-05
298.35	0.00141	6e-05
303.35	0.00187	8e-05
308.15	0.00231	9e-05
313.35	0.0028	0.00011
318	0.00372	0.00015
322.75	0.00445	0.00018
328.25	0.00563	0.00023
333.55	0.00714	0.00029
337.65	0.00819	0.00033
342.85	0.0102	0.00041

System: trichloromethane + 2-(2-hydroxypropan-2-yl)-5,5-dimethyl-1,3,2-dioxaphosphinane 2-oxide; phases: Liquid, Crystal
Fixed: Pressure, kPa = 100
Property: Mole fraction of 2-(2-hydroxypropan-2-yl)-5,5-dimethyl-1,3,2-dioxaphosphinane 2-oxide (Liquid); method: gravimetric method
Temperature, K	Mole fraction of 2-(2-hydroxypropan-2-yl)-5,5-dimethyl-1,3,2-dioxaphosphinane 2-oxide	uncertainty
278.9	0.0132	0.00053
283.85	0.0139	0.00056
288.55	0.0147	0.00059
293.85	0.0174	0.0007
298.3	0.0212	0.00086
303.25	0.0244	0.00098
308.05	0.03023	0.00122
313.15	0.0364	0.00147
317.75	0.0421	0.0017
322.75	0.0508	0.00205

System: acetonitrile + 2-(2-hydroxypropan-2-yl)-5,5-dimethyl-1,3,2-dioxaphosphinane 2-oxide; phases: Liquid, Crystal
Fixed: Pressure, kPa = 100
Property: Mole fraction of 2-(2-hydroxypropan-2-yl)-5,5-dimethyl-1,3,2-dioxaphosphinane 2-oxide (Liquid); method: gravimetric method
Temperature, K	Mole fraction of 2-(2-hydroxypropan-2-yl)-5,5-dimethyl-1,3,2-dioxaphosphinane 2-oxide	uncertainty
278.65	0.00174	7e-05
283.65	0.00222	9e-05
288.85	0.00295	0.00012
293.75	0.00357	0.00015
298.25	0.00413	0.00017
303.2	0.00513	0.00021
308.15	0.00629	0.00026
312.9	0.00754	0.00031
318.3	0.00901	0.00038
322.8	0.0111	0.00046
328	0.0135	0.00056
332.65	0.0165	0.00069

System: acetone + 2-(2-hydroxypropan-2-yl)-5,5-dimethyl-1,3,2-dioxaphosphinane 2-oxide; phases: Liquid, Crystal
Fixed: Pressure, kPa = 100
Property: Mole fraction of 2-(2-hydroxypropan-2-yl)-5,5-dimethyl-1,3,2-dioxaphosphinane 2-oxide (Liquid); method: gravimetric method
Temperature, K	Mole fraction of 2-(2-hydroxypropan-2-yl)-5,5-dimethyl-1,3,2-dioxaphosphinane 2-oxide	uncertainty
278.15	0.0024	0.0001
283.65	0.00286	0.00012
288.25	0.00329	0.00013
293.75	0.00415	0.00017
298.65	0.00505	0.00021
303.15	0.00596	0.00024
308.05	0.007	0.00029
312.95	0.00821	0.00034
317.75	0.00998	0.00041
322.55	0.0118	0.00048

System: methanol + 2-(2-hydroxypropan-2-yl)-5,5-dimethyl-1,3,2-dioxaphosphinane 2-oxide; phases: Liquid, Crystal
Fixed: Pressure, kPa = 100
Property: Mole fraction of 2-(2-hydroxypropan-2-yl)-5,5-dimethyl-1,3,2-dioxaphosphinane 2-oxide (Liquid); method: gravimetric method
Temperature, K	Mole fraction of 2-(2-hydroxypropan-2-yl)-5,5-dimethyl-1,3,2-dioxaphosphinane 2-oxide	uncertainty
279.05	0.0374	0.00159
283.75	0.0416	0.00177
288.25	0.0472	0.00201
293.75	0.0527	0.00225
298.65	0.0577	0.00246
303.25	0.0653	0.00279
308.45	0.0725	0.0031
312.95	0.0792	0.00339
317.75	0.0862	0.00369
322.65	0.0968	0.00415

System: 1,2-dichloroethane + 2-(2-hydroxypropan-2-yl)-5,5-dimethyl-1,3,2-dioxaphosphinane 2-oxide; phases: Liquid, Crystal
Fixed: Pressure, kPa = 100
Property: Mole fraction of 2-(2-hydroxypropan-2-yl)-5,5-dimethyl-1,3,2-dioxaphosphinane 2-oxide (Liquid); method: gravimetric method
Temperature, K	Mole fraction of 2-(2-hydroxypropan-2-yl)-5,5-dimethyl-1,3,2-dioxaphosphinane 2-oxide	uncertainty
283.65	0.00134	5e-05
288.55	0.00156	6e-05
293.65	0.00196	8e-05
298.25	0.00249	0.0001
303.15	0.00308	0.00013
308.05	0.00418	0.00017
313	0.00519	0.00021
317.8	0.00654	0.00026
322.7	0.00788	0.00032

System: ethanol + 2-(2-hydroxypropan-2-yl)-5,5-dimethyl-1,3,2-dioxaphosphinane 2-oxide; phases: Liquid, Crystal
Fixed: Pressure, kPa = 100
Property: Mole fraction of 2-(2-hydroxypropan-2-yl)-5,5-dimethyl-1,3,2-dioxaphosphinane 2-oxide (Liquid); method: gravimetric method
Temperature, K	Mole fraction of 2-(2-hydroxypropan-2-yl)-5,5-dimethyl-1,3,2-dioxaphosphinane 2-oxide	uncertainty
278.85	0.01987	0.00082
283.75	0.023	0.00095
288.55	0.0265	0.0011
293.65	0.0315	0.0013
298.35	0.0349	0.00144
303.55	0.0403	0.00167
308.55	0.046	0.0019
313.25	0.0528	0.00218
318.05	0.0592	0.00245
323.15	0.065	0.00269

System: water + 2-(2-hydroxypropan-2-yl)-5,5-dimethyl-1,3,2-dioxaphosphinane 2-oxide; phases: Liquid, Crystal
Fixed: Pressure, kPa = 100
Property: Mole fraction of 2-(2-hydroxypropan-2-yl)-5,5-dimethyl-1,3,2-dioxaphosphinane 2-oxide (Liquid); method: gravimetric method
Temperature, K	Mole fraction of 2-(2-hydroxypropan-2-yl)-5,5-dimethyl-1,3,2-dioxaphosphinane 2-oxide	uncertainty
283.55	0.00713	0.00034
288.85	0.00723	0.00034
294.7	0.007	0.00033
298.25	0.00711	0.00033
303.3	0.00736	0.00035
308.25	0.00757	0.00036
313.35	0.00805	0.00038
318.3	0.00861	0.00041
323.15	0.00911	0.00043
328.05	0.0102	0.00048
332.9	0.0112	0.00053
338.15	0.0128	0.0006
343.15	0.0142	0.00067
