Measured thermophysical data. Phase Equilibria and Phase Diagrams for the Aqueous Ternary System (Na2SO4 + Li2SO4 + H2O) at (288 and 308) K
Source: J. Chem. Eng. Data, 2013, 10.1021/je4004146
Compound 1: lithium sulfate, Li2O4S, InChI=1S/2Li.H2O4S/c;;1-5(2,3)4/h;;(H2,1,2,3,4)/q2*+1;/p-2, purity 99%
Compound 2: sodium sulfate, Na2O4S, InChI=1S/2Na.H2O4S/c;;1-5(2,3)4/h;;(H2,1,2,3,4)/q2*+1;/p-2, purity 99%
Compound 3: water, H2O, InChI=1S/H2O/h1H2, purity 99.9%

System: water + sodium sulfate + lithium sulfate; phases: Liquid, Crystal of intercomponent compound 1
Fixed: Temperature, K = 288
Fixed: Pressure, kPa = 101
Property: Mass density, kg/m3 (Liquid); method: Pycnometric method
Mass fraction of lithium sulfate	Mass density, kg/m3	uncertainty
0	1004.9	0.6
0.0337	1005.9	26.2
0.0761	1198	33.5
0.112	1265.4	18.8

System: water + sodium sulfate + lithium sulfate; phases: Liquid, Crystal
Property: Mass density, kg/m3 (Liquid); method: Pycnometric method
Mass fraction of lithium sulfate	Temperature, K	Pressure, kPa	Mass density, kg/m3	uncertainty
0	308	101	1328.7	0.8

System: water + sodium sulfate + lithium sulfate; phases: Liquid, Crystal of intercomponent compound 2
Fixed: Pressure, kPa = 101
Property: Mass density, kg/m3 (Liquid); method: Pycnometric method
Temperature, K	Mass fraction of lithium sulfate	Mass density, kg/m3	uncertainty
288	0.2006	1287.7	0.6
288	0.1958	1285.4	0.6
288	0.2089	1291.4	0.6
308	0.0805	1309.2	0.6

System: water + sodium sulfate + lithium sulfate; phases: Liquid, Crystal of intercomponent compound 3
Fixed: Pressure, kPa = 101
Property: Mass density, kg/m3 (Liquid); method: Pycnometric method
Temperature, K	Mass fraction of lithium sulfate	Mass density, kg/m3	uncertainty
288	0.225	1291.8	0.6
288	0.2262	1292.2	0.6
288	0.2341	1271.8	0.8
288	0.2383	1259.3	0.9
288	0.2635	1237	0.7
288	0.2601	1236.4	0.7
308	0.2029	1305.8	0.7
308	0.2183	1279.7	0.7
308	0.2209	1275.5	1
308	0.225	1257.8	1
308	0.2274	1252.7	0.8
308	0.2385	1236.9	0.6
308	0.2537	1226.2	0.6

System: water + sodium sulfate + lithium sulfate; phases: Liquid, Crystal
Fixed: Pressure, kPa = 101
Property: Mass fraction of sodium sulfate (Liquid); method: No Description
Temperature, K	Mass fraction of lithium sulfate	Mass fraction of sodium sulfate	uncertainty
288	0	0.1174	0.01
288	0.0337	0.1577	0.013
288	0.0599	0.1656	0.0107
288	0.0761	0.1409	0.0104
288	0.112	0.1522	0.0105
308	0	0.3306	0.0101
308	0.03	0.2933	0.016
308	0.0386	0.2948	0.0137

System: water + sodium sulfate + lithium sulfate; phases: Liquid, Crystal of intercomponent compound 1
Fixed: Pressure, kPa = 101
Property: Mass fraction of sodium sulfate (Liquid); method: None described
Temperature, K	Mass fraction of lithium sulfate	Mass fraction of sodium sulfate	uncertainty
288	0.2006	0.1021	0.0105
288	0.1958	0.1039	0.0104
288	0.1985	0.1166	0.0185
288	0.2089	0.1004	0.0124
288	0.22	0.0959	0.0105
308	0.0392	0.3005	0.0195
308	0.0506	0.2815	0.0177
308	0.0805	0.2392	0.0159
308	0.0403	0.2963	0.0175
308	0.0469	0.2863	0.0174
308	0.0459	0.2891	0.0182
308	0.0612	0.2659	0.0173
308	0.0677	0.255	0.0174

System: water + sodium sulfate + lithium sulfate; phases: Liquid, Crystal of intercomponent compound 3
Fixed: Pressure, kPa = 101
Property: Mass fraction of sodium sulfate (Liquid); method: None described
Temperature, K	Mass fraction of lithium sulfate	Mass fraction of sodium sulfate	uncertainty
288	0.2224	0.0947	0.036
288	0.225	0.086	0.0333
288	0.2262	0.0782	0.0301
288	0.2341	0.0542	0.0264
288	0.2383	0.0438	0.0248
288	0.2635	0.0053	0.0053
288	0.2601	0	
308	0.2029	0.1227	0.0267
308	0.2183	0.0845	0.0331
308	0.2209	0.0771	0.0326
308	0.225	0.064	0.029
308	0.2274	0.0552	0.0293
308	0.2325	0.0291	0.0244
308	0.2385	0.0247	0.023
308	0.2537	0	

System: water + sodium sulfate + lithium sulfate; phases: Liquid, Crystal of intercomponent compound 1, Crystal of intercomponent compound 2
Property: Mass density, kg/m3 (Liquid); method: Pycnometric method
Temperature, K	Pressure, kPa	Mass density, kg/m3	uncertainty
288	101	1274.4	0.7

System: water + sodium sulfate + lithium sulfate; phases: Liquid, Crystal of intercomponent compound 3, Crystal of intercomponent compound 2
Property: Mass density, kg/m3 (Liquid); method: Pycnometric method
Temperature, K	Pressure, kPa	Mass density, kg/m3	uncertainty
288	101	1296.6	0.8

System: water + sodium sulfate + lithium sulfate; phases: Liquid, Crystal, Crystal of intercomponent compound 2
Property: Mass density, kg/m3 (Liquid); method: Pycnometric method
Temperature, K	Pressure, kPa	Mass density, kg/m3	uncertainty
308	101	1310.2	0.8

System: water + sodium sulfate + lithium sulfate; phases: Liquid, Crystal of intercomponent compound 1, Crystal of intercomponent compound 2
Property: Mass fraction of lithium sulfate (Liquid); method: None described
Temperature, K	Pressure, kPa	Mass fraction of lithium sulfate	uncertainty
288	101	0.132	0.01

System: water + sodium sulfate + lithium sulfate; phases: Liquid, Crystal of intercomponent compound 3, Crystal of intercomponent compound 2
Property: Mass fraction of lithium sulfate (Liquid); method: None described
Temperature, K	Pressure, kPa	Mass fraction of lithium sulfate	uncertainty
288	101	0.2221	0.01

System: water + sodium sulfate + lithium sulfate; phases: Liquid, Crystal, Crystal of intercomponent compound 2
Property: Mass fraction of lithium sulfate (Liquid); method: None described
Temperature, K	Pressure, kPa	Mass fraction of lithium sulfate	uncertainty
308	101	0.0397	0.01

System: water + sodium sulfate + lithium sulfate; phases: Liquid, Crystal of intercomponent compound 1, Crystal of intercomponent compound 2
Property: Mass fraction of sodium sulfate (Liquid); method: None described
Temperature, K	Pressure, kPa	Mass fraction of sodium sulfate	uncertainty
288	101	0.1533	0.01

System: water + sodium sulfate + lithium sulfate; phases: Liquid, Crystal of intercomponent compound 3, Crystal of intercomponent compound 2
Property: Mass fraction of sodium sulfate (Liquid); method: None described
Temperature, K	Pressure, kPa	Mass fraction of sodium sulfate	uncertainty
288	101	0.0866	0.01

System: water + sodium sulfate + lithium sulfate; phases: Liquid, Crystal, Crystal of intercomponent compound 2
Property: Mass fraction of sodium sulfate (Liquid); method: None described
Temperature, K	Pressure, kPa	Mass fraction of sodium sulfate	uncertainty
308	101	0.301	0.01
