Measured thermophysical data. Physicochemical Studies on the Micellization of Cationic, Anionic, and Nonionic Surfactants in Water Polar Organic Solvent Mixtures
Source: J. Chem. Eng. Data, 2013, 10.1021/je4004788
Compound 1: dodecyltrimethylammonium bromide, C15H34BrN, InChI=1S/C15H34N.BrH/c1-5-6-7-8-9-10-11-12-13-14-15-16(2,3)4;/h5-15H2,1-4H3;1H/q+1;/p-1, purity 99%
Compound 2: sodium [dodecanoyl(methyl)amino]acetate, C15H28NNaO3, InChI=1S/C15H29NO3.Na/c1-3-4-5-6-7-8-9-10-11-12-14(17)16(2)13-15(18)19;/h3-13H2,1-2H3,(H,18,19);/q;+1/p-1, purity 99%
Compound 3: 1,2-ethanediol, C2H6O2, InChI=1S/C2H6O2/c3-1-2-4/h3-4H,1-2H2, purity 99%
Compound 4: dimethyl sulfoxide, C2H6OS, InChI=1S/C2H6OS/c1-4(2)3/h1-2H3, purity 99.5%
Compound 5: water, H2O, InChI=1S/H2O/h1H2

System: 1,2-ethanediol + dodecyltrimethylammonium bromide + water; phases: Liquid
Fixed: Pressure, kPa = 101
Fixed: Temperature, K = 298
Property: Electrical conductivity, S/m (Liquid); method: Direct current cell with electrodes
Solvent: Mass fraction of 1,2-ethanediol	Molality, mol/kg of dodecyltrimethylammonium bromide	Electrical conductivity, S/m	uncertainty
0	0	0	0.0004
0	0.00165478	0.01524	0.0004
0	0.00328614	0.02969	0.00047
0	0.00489456	0.04549	0.00072
0	0.00648053	0.06033	0.00096
0	0.00804451	0.07187	0.00114
0	0.00958696	0.08843	0.00141
0	0.01110832	0.10061	0.0016
0	0.01260901	0.11358	0.00181
0	0.01408946	0.12781	0.00203
0	0.01555008	0.13569	0.00216
0	0.01699125	0.13903	0.00221
0	0.01841337	0.14364	0.00229
0	0.01981681	0.1464	0.00233
0	0.02120194	0.14865	0.00237
0	0.02256911	0.15111	0.0024
0	0.02391867	0.15337	0.00244
0	0.02525095	0.1576	0.00251
0	0.02656629	0.15828	0.00252
0	0.02786501	0.16251	0.00259
0.0553	0	0	0.0004
0.0553	0.00164606	0.01221	0.0004
0.0553	0.00326883	0.0231	0.0004
0.0553	0.0048688	0.0336	0.00053
0.0553	0.00644643	0.0437	0.0007
0.0553	0.00800221	0.0532	0.00085
0.0553	0.00953657	0.0629	0.001
0.0553	0.01104995	0.0712	0.00113
0.0553	0.01254279	0.0802	0.00128
0.0553	0.01401551	0.0887	0.00141
0.0553	0.01546849	0.0971	0.00154
0.0553	0.01690214	0.1045	0.00166
0.0553	0.01831685	0.109	0.00173
0.0553	0.01971297	0.1117	0.00178
0.0553	0.02109089	0.1137	0.00181
0.0553	0.02245095	0.1158	0.00184
0.0553	0.02379349	0.1179	0.00188
0.0553	0.02511886	0.1201	0.00191
0.0553	0.02642738	0.122	0.00194
0.0553	0.02771936	0.1237	0.00197
0.0553	0.02899513	0.1257	0.002
0.0553	0.03025498	0.1273	0.00203
0.0553	0.03149922	0.1292	0.00206
0.0553	0.03272812	0.1308	0.00208
0.0553	0.03394197	0.1327	0.00211
0.11	0	0	0.0004
0.11	0.00163841	0.00961	0.0004
0.11	0.00325364	0.01894	0.0004
0.11	0.00484617	0.02791	0.00044
0.11	0.00641649	0.03671	0.00058
0.11	0.00796506	0.04511	0.00072
0.11	0.00949232	0.05331	0.00085
0.11	0.01099871	0.06121	0.00097
0.11	0.01248465	0.06911	0.0011
0.11	0.01395057	0.07661	0.00122
0.11	0.01539685	0.08381	0.00133
0.11	0.0168239	0.09071	0.00144
0.11	0.01823209	0.09514	0.00151
0.11	0.0196218	0.09697	0.00154
0.11	0.02099338	0.09866	0.00157
0.11	0.02234719	0.10102	0.00161
0.11	0.02368358	0.10288	0.00164
0.11	0.02500287	0.105	0.00167
0.11	0.02630539	0.10706	0.0017
0.11	0.02759147	0.10867	0.00173
0.11	0.0288614	0.11065	0.00176
0.11	0.0301155	0.11264	0.00179
0.11	0.03135405	0.11455	0.00182
0.11	0.03257735	0.11593	0.00184
0.11	0.03378567	0.11723	0.00187
0.2175	0	0	0.0004
0.2175	0.00162634	0.00826	0.0004
0.2175	0.00322968	0.01608	0.0004
0.2175	0.00481051	0.02203	0.0004
0.2175	0.00636929	0.03002	0.00048
0.2175	0.00790649	0.03626	0.00058
0.2175	0.00942255	0.04302	0.00068
0.2175	0.01091791	0.04912	0.00078
0.2175	0.01239298	0.05502	0.00088
0.2175	0.01384817	0.06082	0.00097
0.2175	0.01528389	0.06652	0.00106
0.2175	0.01670053	0.07162	0.00114
0.2175	0.01809845	0.07692	0.00122
0.2175	0.01947803	0.08172	0.0013
0.2175	0.02083963	0.08512	0.00135
0.2175	0.0221836	0.08732	0.00139
0.2175	0.02351027	0.08932	0.00142
0.2175	0.02481998	0.09062	0.00144
0.2175	0.02611306	0.09212	0.00147
0.2175	0.02738981	0.09362	0.00149
0.2175	0.02865055	0.09502	0.00151
0.2175	0.02989556	0.09632	0.00153
0.2175	0.03112516	0.09772	0.00155
0.2175	0.03233961	0.09902	0.00158
0.2175	0.03353921	0.10062	0.0016
0.3228	0	0	0.0004
0.3228	0.00161791	0.00624	0.0004
0.3228	0.00321296	0.01173	0.0004
0.3228	0.00478562	0.01703	0.0004
0.3228	0.00633635	0.02299	0.0004
0.3228	0.00786562	0.02685	0.00043
0.3228	0.00937387	0.03188	0.00051
0.3228	0.01086152	0.03799	0.0006
0.3228	0.012329	0.04269	0.00068
0.3228	0.01377672	0.04699	0.00075
0.3228	0.01520507	0.05129	0.00082
0.3228	0.01661443	0.05559	0.00088
0.3228	0.01800519	0.05979	0.00095
0.3228	0.0193777	0.06379	0.00101
0.3228	0.02073233	0.06759	0.00108
0.3228	0.02206943	0.07099	0.00113
0.3228	0.02338932	0.07419	0.00118
0.3228	0.02469235	0.07669	0.00122
0.3228	0.02597883	0.07879	0.00125
0.3228	0.02724907	0.08059	0.00128
0.3228	0.02850339	0.08199	0.0013
0.3228	0.02974207	0.08264	0.00131
0.3228	0.03096298	0.083952	0.001336
0.3228	0.03217157	0.085153	0.001355
0.3228	0.03336008	0.086463	0.001376
0.3228	0.03454619	0.08809	0.0014
0.3228	0.03571533	0.088974	0.001416
0.3228	0.03686169	0.09039	0.00144
0.3228	0.0379987	0.09129	0.00145
0.3228	0.03912221	0.09239	0.00147
0.4257	0	0	0.0004
0.4257	0.00161334	0.00474	0.0004
0.4257	0.00320388	0.00934	0.0004
0.4257	0.0047721	0.01336	0.0004
0.4257	0.00631847	0.01781	0.0004
0.4257	0.00784344	0.02171	0.0004
0.4257	0.00934744	0.0252	0.0004
0.4257	0.01083092	0.02921	0.00046
0.4257	0.01229428	0.03281	0.00052
0.4257	0.01373793	0.03631	0.00058
0.4257	0.01516228	0.03971	0.00063
0.4257	0.0165677	0.04291	0.00068
0.4257	0.01795456	0.04611	0.00073
0.4257	0.01932324	0.04921	0.00078
0.4257	0.02067409	0.05332	0.00085
0.4257	0.02200745	0.0561	0.00089
0.4257	0.02332367	0.0591	0.00094
0.4257	0.02462307	0.062	0.00099
0.4257	0.02590596	0.06539	0.00104
0.4257	0.02717268	0.06809	0.00108
0.4257	0.0284235	0.0704	0.00112
0.4257	0.02965875	0.07275	0.00116
0.4257	0.0308787	0.07428	0.00118
0.4257	0.03208363	0.07531	0.0012
0.4257	0.03327383	0.07641	0.00122
0.4257	0.03444956	0.07801	0.00124
0.4257	0.03561108	0.07968	0.00127
0.4257	0.03675865	0.08111	0.00129
0.4257	0.03789252	0.08201	0.0013
0.4257	0.03901293	0.08361	0.00133

System: 1,2-ethanediol + dodecyltrimethylammonium bromide + water; phases: Liquid, Air at 1 atmosphere
Fixed: Temperature, K = 298
Property: Surface tension liquid-gas, N/m (Liquid); method: Ring tensiometer
Solvent: Mass fraction of 1,2-ethanediol	Molality, mol/kg of dodecyltrimethylammonium bromide	Surface tension liquid-gas, N/m	uncertainty
0	0	0.0708	0.00097
0	2.5e-05	0.06842	0.00094
0	7.498e-05	0.06718	0.00092
0	0.00017487	0.06485	0.00089
0	0.00042422	0.05806	0.00081
0	0.00092133	0.0517	0.00073
0	0.00190917	0.04654	0.00066
0	0.00385973	0.04071	0.00059
0	0.00672438	0.03636	0.00053
0	0.01043389	0.03275	0.00049
0	0.01224323	0.03187	0.00048
0	0.01402327	0.03075	0.00047
0	0.01577473	0.0304	0.00047
0	0.0200327	0.03054	0.00047
0	0.02806485	0.0304	0.00047
0.0553	0	0.0662	0.00091
0.0553	2.487e-05	0.06474	0.00089
0.0553	7.458e-05	0.06363	0.00088
0.0553	0.00017395	0.06169	0.00085
0.0553	0.00042199	0.05814	0.00081
0.0553	0.00091647	0.05323	0.00075
0.0553	0.00189911	0.04801	0.00068
0.0553	0.00335742	0.0439	0.00063
0.0553	0.0052732	0.04099	0.00059
0.0553	0.00762304	0.03804	0.00055
0.0553	0.01037906	0.03649	0.00053
0.0553	0.01262431	0.03495	0.00052
0.0553	0.01306789	0.03489	0.00051
0.0553	0.02075497	0.03366	0.0005
0.0553	0.02675839	0.03372	0.0005
0.0553	0.03424913	0.03391	0.0005
0.11	0	0.06572	0.0009
0.11	2.475e-05	0.06366	0.00088
0.11	7.423e-05	0.06281	0.00087
0.11	0.00017314	0.06125	0.00085
0.11	0.00042002	0.05873	0.00081
0.11	0.00066638	0.05608	0.00078
0.11	0.00091221	0.05405	0.00076
0.11	0.00115751	0.05274	0.00074
0.11	0.00164654	0.05	0.0007
0.11	0.00237618	0.04775	0.00068
0.11	0.00334181	0.04504	0.00064
0.11	0.00477499	0.04283	0.00061
0.11	0.00665793	0.04105	0.00059
0.11	0.00896779	0.03915	0.00057
0.11	0.01167732	0.0371	0.00054
0.11	0.01344706	0.03616	0.00053
0.11	0.01561929	0.03529	0.00052
0.11	0.01942142	0.03456	0.00051
0.11	0.02349087	0.03466	0.00051
0.11	0.02930841	0.03454	0.00051
0.2175	0	0.06382	0.00088
0.2175	2.457e-05	0.06179	0.00085
0.2175	7.369e-05	0.06096	0.00084
0.2175	0.00017186	0.05986	0.00083
0.2175	0.00041693	0.05829	0.00081
0.2175	0.00090549	0.056	0.00078
0.2175	0.00163441	0.05231	0.00073
0.2175	0.00259908	0.04944	0.0007
0.2175	0.00403078	0.04677	0.00066
0.2175	0.00591171	0.04452	0.00064
0.2175	0.00821899	0.04237	0.00061
0.2175	0.01092533	0.04078	0.00059
0.2175	0.01399983	0.03915	0.00057
0.2175	0.01486236	0.03856	0.00056
0.2175	0.01698861	0.03775	0.00055
0.2175	0.01865937	0.03731	0.00054
0.2175	0.02152052	0.0373	0.00054
0.2175	0.02547505	0.03738	0.00054
0.2175	0.03113127	0.03744	0.00055
0.2175	0.03819997	0.03748	0.00055
0.3228	0	0.0614	0.00085
0.3228	2.444e-05	0.0601	0.00083
0.3228	7.33e-05	0.05977	0.00083
0.3228	0.00017097	0.0592	0.00082
0.3228	0.00041477	0.05811	0.00081
0.3228	0.0009008	0.05661	0.00079
0.3228	0.00234647	0.05154	0.00072
0.3228	0.00518312	0.04684	0.00066
0.3228	0.00975516	0.043	0.00062
0.3228	0.01327947	0.04163	0.0006
0.3228	0.01457182	0.04082	0.00059
0.3228	0.01627087	0.04024	0.00058
0.3228	0.02040208	0.03883	0.00056
0.3228	0.02630427	0.03875	0.00056
0.3228	0.03366921	0.03896	0.00056
0.3228	0.04214961	0.03914	0.00057
0.4257	0	0.05964	0.00083
0.4257	2.437e-05	0.0587	0.00081
0.4257	7.31e-05	0.05851	0.00081
0.4257	0.00017049	0.05821	0.00081
0.4257	0.0004136	0.0576	0.0008
0.4257	0.00089825	0.05651	0.00079
0.4257	0.00186136	0.0539	0.00075
0.4257	0.00329071	0.0508	0.00071
0.4257	0.00563301	0.04792	0.00068
0.4257	0.01017328	0.04476	0.00064
0.4257	0.01324207	0.04309	0.00062
0.4257	0.0162251	0.04192	0.0006
0.4257	0.01830529	0.04156	0.0006
0.4257	0.01994007	0.04102	0.00059
0.4257	0.02194782	0.04053	0.00058
0.4257	0.02391696	0.04004	0.00058
0.4257	0.02584858	0.03972	0.00057
0.4257	0.03322058	0.03975	0.00057
0.4257	0.04170795	0.04	0.00058
0.4257	0.05524606	0.04031	0.00058
0.4257	0.06322183	0.04051	0.00058

System: 1,2-ethanediol + dodecyltrimethylammonium bromide + water; phases: Liquid
Fixed: Pressure, kPa = 101
Fixed: Temperature, K = 298
Property: Viscosity, Pa*s (Liquid); method: Capillary tube (Ostwald; Ubbelohde) method
Solvent: Mass fraction of 1,2-ethanediol	Molality, mol/kg of dodecyltrimethylammonium bromide	Viscosity, Pa*s	uncertainty
0.2175	0.00040877	1.00617	0.0118
0.2175	0.00441738	1.01378	0.01189
0.2175	0.00828747	1.02186	0.01198
0.2175	0.01202609	1.03116	0.01209
0.2175	0.01563983	1.04105	0.01221
0.2175	0.01913484	1.05246	0.01234
0.2175	0.02251687	1.06888	0.01254
0.2175	0.02579133	1.09533	0.01285
0.2175	0.02896326	1.11389	0.01306
0.2175	0.03204619	1.13846	0.01335
0.2175	0.03501821	1.15613	0.01356
0.3228	0.00040665	1.00589	0.0118
0.3228	0.00439452	1.01237	0.01187
0.3228	0.00824464	1.01908	0.01195
0.3228	0.011964	1.03018	0.01208
0.3228	0.01555917	1.03494	0.01214
0.3228	0.01903626	1.04588	0.01226
0.3228	0.022401	1.0597	0.01243
0.3228	0.02565874	1.07483	0.0126
0.3228	0.02881451	1.09918	0.01289
0.3228	0.03187302	1.12546	0.0132
0.3228	0.0348387	1.14457	0.01342
0.4257	0.0004055	1.00602	0.0118
0.4257	0.00438212	1.014	0.01189
0.4257	0.00822138	1.02205	0.01199
0.4257	0.0119303	1.03259	0.01211
0.4257	0.01551539	1.04197	0.01222
0.4257	0.01898276	1.05404	0.01236
0.4257	0.0223381	1.06981	0.01255
0.4257	0.02558677	1.08651	0.01274
0.4257	0.02873377	1.10246	0.01293
0.4257	0.03178379	1.11624	0.01309
0.4257	0.03474126	1.13425	0.0133
0.4257	0.03761032	1.15396	0.01353
0.4257	0.04039488	1.17038	0.01373
0.4257	0.04309862	1.19498	0.01402
0.4257	0.045725	1.21543	0.01426

System: 1,2-ethanediol + sodium [dodecanoyl(methyl)amino]acetate + water; phases: Liquid
Fixed: Pressure, kPa = 101
Fixed: Temperature, K = 298
Property: Electrical conductivity, S/m (Liquid); method: Direct current cell with electrodes
Solvent: Mass fraction of 1,2-ethanediol	Molality, mol/kg of sodium [dodecanoyl(methyl)amino]acetate	Electrical conductivity, S/m	uncertainty
0	0	0	0.0004
0.0553	0	0	0.0004
0.11	0	0	0.0004
0.2175	0	0	0.0004
0.3228	0	0	0.0004
0.4257	0	0	0.0004
0.4257	0.00145211	0.00383	0.0004
0.3228	0.00145623	0.00475	0.0004
0.2175	0.00146381	0.00623	0.0004
0.4257	0.00288391	0.0068	0.0004
0.11	0.00147467	0.00716	0.0004
0.0553	0.00148157	0.00726	0.0004
0.3228	0.00289208	0.0094	0.0004
0.4257	0.0042958	0.00997	0.0004
0	0.00185849	0.01159	0.0004
0.2175	0.00290713	0.01175	0.0004
0.11	0.0029287	0.01316	0.0004
0.3228	0.00430797	0.013428	0.0004
0.4257	0.00568822	0.01383	0.0004
0.0553	0.00294238	0.01475	0.0004
0.2175	0.00433038	0.01649	0.0004
0.4257	0.00706155	0.01651	0.0004
0.3228	0.00570432	0.01719	0.0004
0.4257	0.00841618	0.01993	0.0004
0.11	0.00436249	0.02	0.0004
0.3228	0.00708153	0.02153	0.0004
0	0.00368454	0.02272	0.0004
0.2175	0.00573398	0.02292	0.0004
0.4257	0.0097525	0.02293	0.0004
0.0553	0.00438286	0.02305	0.0004
0.3228	0.00843999	0.02587	0.00041
0.4257	0.01107088	0.02593	0.00041
0.11	0.00577649	0.0262	0.00042
0.2175	0.00711834	0.02822	0.00045
0.4257	0.01237167	0.02873	0.00046
0.0553	0.00580345	0.02905	0.00046
0.3228	0.00978008	0.02972	0.00047
0.4257	0.01365522	0.03163	0.0005
0.11	0.00717108	0.0323	0.00051
0.2175	0.00848384	0.03332	0.00053
0.3228	0.01110217	0.03337	0.00053
0.4257	0.01492188	0.03413	0.00054
0	0.00547898	0.03452	0.00055
0.0553	0.00720454	0.03575	0.00057
0.3228	0.01240662	0.03707	0.00059
0.4257	0.01617197	0.03763	0.0006
0.11	0.00854668	0.038	0.0006
0.2175	0.00983087	0.03822	0.00061
0.4257	0.01740582	0.04039	0.00064
0.3228	0.01369379	0.04067	0.00065
0.0553	0.00858654	0.04195	0.00067
0.2175	0.01115981	0.04292	0.00068
0.4257	0.01862374	0.04298	0.00068
0.11	0.00990366	0.0433	0.00069
0.3228	0.01495619	0.044956	0.000715
0	0.00724264	0.04502	0.00072
0.4257	0.01982604	0.04581	0.00073
0.2175	0.01247101	0.04772	0.00076
0.3228	0.01621761	0.04786	0.00076
0.0553	0.00994983	0.04815	0.00077
0.4257	0.02101302	0.04822	0.00077
0.11	0.01124241	0.0486	0.00077
0.4257	0.02218496	0.0504	0.0008
0.2175	0.01376483	0.05202	0.00083
0.4257	0.02334216	0.0525	0.00084
0.3228	0.0174537	0.052555	0.000836
0.0553	0.01129479	0.05405	0.00086
0.11	0.01256327	0.0541	0.00086
0	0.0089763	0.05432	0.00086
0.3228	0.01867626	0.05506	0.00088
0.4257	0.02448489	0.05517	0.00088
0.2175	0.0150416	0.05592	0.00089
0.4257	0.02561341	0.05647	0.0009
0.4257	0.026728	0.05815	0.00093
0.3228	0.0198831	0.05845	0.00093
0.11	0.01386662	0.0589	0.00094
0.2175	0.01630168	0.060218	0.000958
0.4257	0.0278289	0.06048	0.00096
0.3228	0.02106429	0.060808	0.000967
0.4257	0.02891637	0.06217	0.00099
0.0553	0.01262179	0.06255	0.001
0.3228	0.02224745	0.06305	0.001
0.2175	0.01754537	0.063821	0.001015
0.4257	0.02999066	0.06408	0.00102
0	0.01068071	0.06432	0.00102
0.11	0.0151528	0.06458	0.00103
0.3228	0.02340789	0.06509	0.00104
0.4257	0.031052	0.06598	0.00105
0.3228	0.02456007	0.066703	0.001061
0.2175	0.018773	0.0669	0.00106
0.0553	0.01393119	0.06695	0.00107
0.4257	0.03210062	0.06787	0.00108
0.3228	0.02568549	0.0691	0.0011
0.4257	0.03313675	0.06967	0.00111
0.11	0.01642215	0.06978	0.00111
0.2175	0.01998488	0.069913	0.001112
0.3228	0.02680318	0.0709	0.00113
0.4257	0.03416062	0.07147	0.00114
0.2175	0.02118131	0.072467	0.001153
0.3228	0.02790716	0.0727	0.00116
0.0553	0.01522333	0.07295	0.00116
0.4257	0.03517243	0.07322	0.00116
0.11	0.01767498	0.073603	0.001171
0	0.01235662	0.07429	0.00118
0.3228	0.02899767	0.0743	0.00118
0.2175	0.02236258	0.074891	0.001192
0.4257	0.03617241	0.07492	0.00119
0.3228	0.03007494	0.0759	0.00121
0.11	0.01891163	0.076354	0.001215
0.4257	0.03716075	0.07657	0.00122
0.2175	0.02353459	0.077707	0.001236
0.3228	0.03114594	0.077773	0.001237
0.0553	0.01649855	0.07785	0.00124
0.4257	0.03813767	0.07817	0.00124
0.11	0.02013241	0.079487	0.001265
0.3228	0.03219133	0.079672	0.001268
0.4257	0.03910335	0.07977	0.00127
0.2175	0.02467846	0.079803	0.00127
0.4257	0.04005799	0.08132	0.00129
0.3228	0.03323608	0.081507	0.001297
0.2175	0.02582156	0.0819	0.0013
0.11	0.02133761	0.082009	0.001305
0.0553	0.01775719	0.08255	0.00131
0.3228	0.03425887	0.082751	0.001317
0	0.01400293	0.08277	0.00132
0.4257	0.04100177	0.08282	0.00132
0.4257	0.04193489	0.08432	0.00134
0.3228	0.03528105	0.084782	0.001349
0.2175	0.02694452	0.084782	0.001349
0.11	0.02252754	0.084913	0.001351
0.0553	0.01899956	0.08545	0.00136
0.3228	0.03628133	0.086288	0.001373
0.2175	0.02805133	0.086419	0.001375
0.11	0.02370248	0.087205	0.001387
0	0.01562571	0.08763	0.00139
0.3228	0.03725975	0.088057	0.001401
0.0553	0.02022597	0.08835	0.00141
0.2175	0.02914957	0.088777	0.001412
0.3228	0.0382376	0.089367	0.001422
0.11	0.02486272	0.090644	0.001442
0.2175	0.03023021	0.090808	0.001445
0.0553	0.02143674	0.09145	0.00145
0	0.01722025	0.09196	0.00146
0.11	0.02600852	0.092707	0.001475
0.2175	0.03129995	0.093493	0.001487
0.0553	0.02263913	0.09477	0.00151
0.11	0.02714016	0.095076	0.001513
0.2175	0.03235686	0.095393	0.001518
0	0.01878898	0.09722	0.00155
0.0553	0.02381712	0.09767	0.00155
0.2175	0.03340118	0.097686	0.001554
0.11	0.0282579	0.09798	0.00156
0.2175	0.03443314	0.100306	0.001596
0.11	0.029362	0.100579	0.0016
0	0.02033253	0.10091	0.00161
0.0553	0.02497794	0.10111	0.00161
0.11	0.03045269	0.102795	0.001635
0.0553	0.02612163	0.10363	0.00165
0.11	0.03153022	0.105393	0.001677
0	0.02185149	0.10587	0.00168
0.0553	0.02726455	0.10738	0.00171
0.11	0.03259484	0.108373	0.001724
0	0.02334645	0.11006	0.00175
0.0553	0.02838892	0.11015	0.00175
0.11	0.03364676	0.11036	0.00176
0.0553	0.02949808	0.11245	0.00179
0	0.02481797	0.11416	0.00182
0.0553	0.03059094	0.11555	0.00184
0	0.0262666	0.11826	0.00188
0	0.02769287	0.12226	0.00195

System: 1,2-ethanediol + sodium [dodecanoyl(methyl)amino]acetate + water; phases: Liquid, Air at 1 atmosphere
Fixed: Temperature, K = 298
Property: Surface tension liquid-gas, N/m (Liquid); method: Ring tensiometer
Solvent: Mass fraction of 1,2-ethanediol	Molality, mol/kg of sodium [dodecanoyl(methyl)amino]acetate	Surface tension liquid-gas, N/m	uncertainty
0	0	0.0709	0.00097
0	2.25e-05	0.06952	0.00095
0	6.748e-05	0.06746	0.00092
0	0.00015738	0.06457	0.00089
0	0.00038181	0.05977	0.00083
0	0.00060576	0.05658	0.00079
0	0.00082923	0.05464	0.00076
0	0.00105223	0.0537	0.00075
0	0.00127475	0.05215	0.00073
0	0.00149681	0.05125	0.00072
0	0.00193951	0.04923	0.00069
0	0.00260007	0.04757	0.00067
0	0.00347435	0.0459	0.00065
0	0.00498683	0.04361	0.00062
0	0.00710967	0.04195	0.0006
0	0.01122679	0.03837	0.00056
0	0.01518099	0.03714	0.00054
0	0.01898174	0.03732	0.00054
0	0.02353018	0.03772	0.00055
0	0.02871183	0.03811	0.00055
0	0.03519111	0.03868	0.00056
0	0.04195109	0.03894	0.00056
0.0553	0	0.0662	0.00091
0.0553	2.238e-05	0.06446	0.00089
0.0553	6.712e-05	0.06278	0.00087
0.0553	0.00015655	0.06034	0.00083
0.0553	0.0003798	0.05622	0.00078
0.0553	0.00060256	0.0541	0.00076
0.0553	0.00104668	0.05114	0.00072
0.0553	0.00170934	0.04914	0.00069
0.0553	0.00258637	0.04635	0.00066
0.0553	0.00367234	0.0453	0.00064
0.0553	0.00496057	0.04323	0.00062
0.0553	0.00644334	0.04231	0.00061
0.0553	0.00811188	0.04014	0.00058
0.0553	0.01256246	0.0388	0.00056
0.0553	0.01644153	0.0378	0.00055
0.0553	0.02198254	0.03796	0.00055
0.0553	0.02721518	0.03845	0.00056
0.0553	0.03375523	0.03833	0.00056
0.11	0	0.0658	0.0009
0.11	2.227e-05	0.0632	0.00087
0.11	6.681e-05	0.06199	0.00086
0.11	0.00015582	0.05992	0.00083
0.11	0.00037803	0.05648	0.00079
0.11	0.00082102	0.05252	0.00074
0.11	0.001482	0.04999	0.0007
0.11	0.0023568	0.04783	0.00068
0.11	0.00343999	0.04569	0.00065
0.11	0.00472493	0.044	0.00063
0.11	0.00641341	0.04263	0.00061
0.11	0.00848518	0.04134	0.00059
0.11	0.01011235	0.04058	0.00059
0.11	0.01328877	0.03924	0.00057
0.11	0.01636538	0.0383	0.00056
0.11	0.0218809	0.03835	0.00056
0.11	0.02538583	0.03872	0.00056
0.11	0.03040389	0.03898	0.00057
0.2175	0	0.0638	0.00088
0.2175	2.211e-05	0.06189	0.00085
0.2175	6.632e-05	0.06134	0.00085
0.2175	0.00015468	0.0594	0.00082
0.2175	0.00037524	0.05648	0.00079
0.2175	0.00081497	0.05252	0.00074
0.2175	0.00147108	0.04999	0.0007
0.2175	0.00233944	0.04782	0.00068
0.2175	0.00341466	0.04569	0.00065
0.2175	0.00469015	0.04465	0.00064
0.2175	0.00636622	0.04316	0.00062
0.2175	0.00842279	0.04177	0.0006
0.2175	0.01003803	0.04058	0.00059
0.2175	0.0131912	0.03966	0.00057
0.2175	0.01624533	0.03862	0.00056
0.2175	0.01920501	0.03824	0.00056
0.2175	0.02065079	0.0383	0.00056
0.2175	0.02242711	0.03865	0.00056
0.2175	0.02588042	0.03879	0.00056
0.2175	0.03082551	0.039	0.00057
0.2175	0.03701509	0.03931	0.00057
0.3228	0	0.0614	0.00085
0.3228	2.2e-05	0.06023	0.00083
0.3228	6.597e-05	0.06034	0.00083
0.3228	0.00015387	0.05957	0.00083
0.3228	0.0003733	0.05787	0.0008
0.3228	0.00081075	0.0548	0.00076
0.3228	0.00146346	0.05166	0.00073
0.3228	0.00232732	0.0501	0.00071
0.3228	0.00339698	0.04834	0.00068
0.3228	0.00466588	0.04681	0.00066
0.3228	0.0063333	0.04523	0.00064
0.3228	0.00837925	0.04405	0.00063
0.3228	0.0107799	0.04286	0.00061
0.3228	0.01350821	0.04169	0.0006
0.3228	0.01578697	0.04096	0.00059
0.3228	0.01946772	0.04011	0.00058
0.3228	0.02300919	0.04018	0.00058
0.3228	0.02873172	0.04044	0.00058
0.3228	0.03349276	0.0408	0.00059
0.3228	0.04636062	0.04122	0.00059
0.3228	0.05392684	0.04151	0.0006
0.4257	0	0.05966	0.00083
0.4257	2.193e-05	0.0591	0.00082
0.4257	6.579e-05	0.0591	0.00082
0.4257	0.00015344	0.05905	0.00082
0.4257	0.00037224	0.05846	0.00081
0.4257	0.00080846	0.05684	0.00079
0.4257	0.00145932	0.0544	0.00076
0.4257	0.00232075	0.05282	0.00074
0.4257	0.00338738	0.0512	0.00072
0.4257	0.0046527	0.04997	0.0007
0.4257	0.00631542	0.04879	0.00069
0.4257	0.00835562	0.04769	0.00068
0.4257	0.01074952	0.04652	0.00066
0.4257	0.01347016	0.04577	0.00065
0.4257	0.01977227	0.04419	0.00063
0.4257	0.02634502	0.04391	0.00063
0.4257	0.03246986	0.0441	0.00063
0.4257	0.03992024	0.04413	0.00063
0.4257	0.04543546	0.0443	0.00063
0.4257	0.05183518	0.04442	0.00063
0.4257	0.05887256	0.04452	0.00064

System: 1,2-ethanediol + sodium [dodecanoyl(methyl)amino]acetate + water; phases: Liquid
Fixed: Pressure, kPa = 101
Fixed: Temperature, K = 298
Property: Viscosity, Pa*s (Liquid); method: Capillary tube (Ostwald; Ubbelohde) method
Solvent: Mass fraction of 1,2-ethanediol	Molality, mol/kg of sodium [dodecanoyl(methyl)amino]acetate	Viscosity, Pa*s	uncertainty
0.11	0.00037063	1.00336	0.01177
0.11	0.00400592	1.01063	0.01185
0.11	0.00751675	1.01933	0.01195
0.11	0.01090941	1.02629	0.01203
0.11	0.01418977	1.03693	0.01216
0.11	0.0173633	1.04706	0.01228
0.11	0.02043516	1.05936	0.01242
0.11	0.02341014	1.0691	0.01254
0.11	0.02629275	1.08252	0.01269
0.11	0.02908724	1.09636	0.01286
0.2175	0.0003679	1.00116	0.01174
0.2175	0.00397642	1.01299	0.01188
0.2175	0.00746146	1.02476	0.01202
0.2175	0.01082925	1.03335	0.01212
0.2175	0.01408561	1.04875	0.0123
0.2175	0.01723597	1.06224	0.01246
0.2175	0.02028543	1.07667	0.01263
0.2175	0.02323876	1.09644	0.01286
0.2175	0.02610043	1.10399	0.01295
0.2175	0.02887465	1.11952	0.01313
0.3228	0.00036599	1.00041	0.01173
0.3228	0.00395584	1.0096	0.01184
0.3228	0.00742961	1.02048	0.01197
0.3228	0.01077331	1.02883	0.01206
0.3228	0.01401292	1.04009	0.0122
0.3228	0.01714279	1.04897	0.0123
0.3228	0.02018277	1.05939	0.01242
0.3228	0.02311224	1.08189	0.01269
0.3228	0.02596172	1.11294	0.01305
0.3228	0.02872629	1.13797	0.01335
0.4257	0.00036496	1.00307	0.01176
0.4257	0.00394467	1.01419	0.01189
0.4257	0.00740194	1.02386	0.01201
0.4257	0.01074295	1.03259	0.01211
0.4257	0.01397346	1.04238	0.01222
0.4257	0.01709886	1.0538	0.01236
0.4257	0.02012421	1.06659	0.01251
0.4257	0.02305423	1.08165	0.01268
0.4257	0.02589335	1.09971	0.0129
0.4257	0.0286404	1.12753	0.01322
0.4257	0.03131937	1.14999	0.01349
0.4257	0.03390579	1.17397	0.01377

System: dimethyl sulfoxide + dodecyltrimethylammonium bromide + water; phases: Liquid
Fixed: Pressure, kPa = 101
Fixed: Temperature, K = 298
Property: Electrical conductivity, S/m (Liquid); method: Direct current cell with electrodes
Solvent: Mass fraction of dimethyl sulfoxide	Molality, mol/kg of dodecyltrimethylammonium bromide	Electrical conductivity, S/m	uncertainty
0	0	0	0.0004
0	0.00165478	0.01524	0.0004
0	0.00328614	0.02969	0.00047
0	0.00489456	0.04549	0.00072
0	0.00648053	0.06033	0.00096
0	0.00804451	0.07187	0.00114
0	0.00958696	0.08843	0.00141
0	0.01110832	0.10061	0.0016
0	0.01260901	0.11358	0.00181
0	0.01408946	0.12781	0.00203
0	0.01555008	0.13569	0.00216
0	0.01699125	0.13903	0.00221
0	0.01841337	0.14364	0.00229
0	0.01981681	0.1464	0.00233
0	0.02120194	0.14865	0.00237
0	0.02256911	0.15111	0.0024
0	0.02391867	0.15337	0.00244
0	0.02525095	0.1576	0.00251
0	0.02658332	0.159716	0.002541
0	0.02788182	0.161758	0.002574
0	0.02914742	0.163788	0.002606
0.0547	0	0	0.0004
0.0547	0.00164705	0.01277	0.0004
0.0547	0.00327078	0.02463	0.0004
0.0547	0.0048717	0.03613	0.00057
0.0547	0.00645027	0.04703	0.00075
0.0547	0.00800697	0.05763	0.00092
0.0547	0.00954224	0.06783	0.00108
0.0547	0.01105653	0.07763	0.00124
0.0547	0.01255026	0.08713	0.00139
0.0547	0.01402384	0.09643	0.00153
0.0547	0.01547768	0.10543	0.00168
0.0547	0.01691218	0.11383	0.00181
0.0547	0.01832772	0.12213	0.00194
0.0547	0.01972468	0.12793	0.00204
0.0547	0.0211034	0.13113	0.00209
0.0547	0.02246426	0.13363	0.00213
0.0547	0.0238076	0.13613	0.00217
0.0547	0.02513374	0.13843	0.0022
0.0547	0.02644303	0.14243	0.00227
0.0547	0.02773577	0.14433	0.0023
0.0547	0.02901229	0.14673	0.00233
0.0547	0.03027288	0.14873	0.00237
0.0547	0.03151784	0.15123	0.00241
0.0547	0.03274746	0.15323	0.00244
0.0547	0.03396203	0.155655	0.002476
0.0547	0.03516181	0.157511	0.002506
0.0547	0.03634707	0.159803	0.002542
0.0547	0.03751808	0.16155	0.00257
0.1088	0	0	0.0004
0.1088	0.00164036	0.01134	0.0004
0.1088	0.0032575	0.021157	0.0004
0.1088	0.00485193	0.03194	0.00051
0.1088	0.00642411	0.041026	0.000653
0.1088	0.00797451	0.05084	0.00081
0.1088	0.00950358	0.058712	0.000934
0.1088	0.01101175	0.06874	0.00109
0.1088	0.01249945	0.07694	0.00122
0.1088	0.01396709	0.08534	0.00136
0.1088	0.01541508	0.09344	0.00149
0.1088	0.01684381	0.10114	0.00161
0.1088	0.01825365	0.10884	0.00173
0.1088	0.019645	0.117882	0.001876
0.1088	0.02101819	0.125087	0.00199
0.1088	0.02237359	0.12764	0.00203
0.1088	0.02371154	0.13054	0.00208
0.1088	0.02503238	0.13314	0.00212
0.1088	0.02633643	0.13544	0.00215
0.1088	0.02762401	0.13754	0.00219
0.1088	0.02889543	0.13964	0.00222
0.1088	0.03015099	0.14164	0.00225
0.1088	0.03139099	0.144847	0.002305
0.1088	0.03261571	0.146921	0.002338
0.1088	0.03382544	0.149105	0.002372
0.1088	0.03502044	0.150742	0.002398
0.1088	0.036201	0.153253	0.002438
0.1088	0.03736735	0.156201	0.002485
0.1088	0.03851977	0.158166	0.002516
0.1088	0.0396585	0.16024	0.00255
0.1088	0.04078378	0.162096	0.002579
0.1088	0.04189585	0.164607	0.002619
0.2155	0	0	0.0004
0.2155	0.00162954	0.00852	0.0004
0.2155	0.00323603	0.01811	0.0004
0.2155	0.00481997	0.02529	0.0004
0.2155	0.00638181	0.032047	0.00051
0.2155	0.00792203	0.038581	0.000614
0.2155	0.00944105	0.047189	0.000751
0.2155	0.01093934	0.053412	0.00085
0.2155	0.0124173	0.06202	0.00099
0.2155	0.01387533	0.068657	0.001092
0.2155	0.01531385	0.07571	0.0012
0.2155	0.01673325	0.082969	0.00132
0.2155	0.0181339	0.089814	0.001429
0.2155	0.01951616	0.098319	0.001564
0.2155	0.02088041	0.104127	0.001657
0.2155	0.02222699	0.111075	0.001767
0.2155	0.02355624	0.116261	0.00185
0.2155	0.02486849	0.12435	0.00198
0.2155	0.02616407	0.129225	0.002056
0.2155	0.0274433	0.136277	0.002168
0.2155	0.02870647	0.1425	0.00227
0.2155	0.02995389	0.145197	0.00231
0.2155	0.03118587	0.147789	0.002351
0.2155	0.03240267	0.149967	0.002386
0.2155	0.03360458	0.152249	0.002422
0.2155	0.03479187	0.154012	0.00245
0.2155	0.0359648	0.156605	0.002492
0.2155	0.03712363	0.157953	0.002513
0.2155	0.03883601	0.161479	0.002569
0.2155	0.04051807	0.164591	0.002619
0.2155	0.04217059	0.166976	0.002657
0.2155	0.04379437	0.17071	0.00272
0.2155	0.04539014	0.173717	0.002764
0.2155	0.04695861	0.176621	0.00281
0.2155	0.04850049	0.17889	0.00285
0.2155	0.05001644	0.181807	0.002893
0.2155	0.05150712	0.185229	0.002947
0.2155	0.05297314	0.187407	0.002982
0.2155	0.05440568	0.189247	0.003011
0.2155	0.0558273	0.192522	0.003063
0.2155	0.05721806	0.194978	0.003102
0.32	0	0	0.0004
0.32	0.00282404	0.01215	0.0004
0.32	0.00557894	0.02355	0.0004
0.32	0.00826721	0.03425	0.00054
0.32	0.01089124	0.04465	0.00071
0.32	0.0134533	0.05445	0.00087
0.32	0.01595556	0.06385	0.00102
0.32	0.0184001	0.07295	0.00116
0.32	0.02078888	0.08185	0.0013
0.32	0.0231238	0.09025	0.00144
0.32	0.02540665	0.09855	0.00157
0.32	0.02763915	0.10655	0.0017
0.32	0.02982296	0.11415	0.00182
0.32	0.03195966	0.12195	0.00194
0.32	0.03405073	0.12925	0.00206
0.32	0.03609765	0.13585	0.00216
0.32	0.03810178	0.14155	0.00225
0.32	0.04006446	0.14635	0.00233
0.32	0.04198695	0.15075	0.0024
0.32	0.04387049	0.15485	0.00246
0.32	0.04571624	0.15835	0.00252
0.32	0.04752533	0.15945	0.00254
0.32	0.04929884	0.16185	0.00258
0.32	0.05103781	0.16475	0.00262
0.32	0.05274323	0.16715	0.00266
0.32	0.05441608	0.16895	0.00269
0.32	0.05605727	0.17115	0.00272
0.32	0.05768306	0.173663	0.002763
0.32	0.05926356	0.176242	0.002804
0.32	0.06079965	0.17865	0.00284
0.32	0.0623228	0.17965	0.00286
0.32	0.0638281	0.181523	0.002888
0.32	0.06528727	0.18485	0.00294
0.32	0.06673005	0.18665	0.00297
0.32	0.06814745	0.18875	0.003
0.32	0.06954013	0.19085	0.00304
0.32	0.07090873	0.19285	0.00307
0.32	0.07225388	0.19485	0.0031
0.32	0.07357617	0.19675	0.00313
0.32	0.07487618	0.19865	0.00316
0.4228	0	0	0.0004
0.4228	0.00281632	0.01014	0.0004
0.4228	0.00556369	0.01701	0.0004
0.4228	0.00824464	0.02582	0.00041
0.4228	0.01086152	0.03588	0.00057
0.4228	0.01341662	0.04179	0.00066
0.4228	0.0159121	0.04926	0.00078
0.4228	0.01835001	0.05817	0.00093
0.4228	0.02073233	0.06527	0.00104
0.4228	0.02306094	0.07177	0.00114
0.4228	0.02533764	0.07827	0.00125
0.4228	0.02756413	0.08447	0.00134
0.4228	0.02974207	0.09017	0.00143
0.4228	0.03187302	0.09587	0.00153
0.4228	0.03395849	0.104503	0.001663
0.4228	0.03599992	0.109962	0.001749
0.4228	0.0379987	0.116239	0.001849
0.4228	0.03995613	0.122107	0.001943
0.4228	0.04189443	0.128248	0.00204
0.4228	0.04377398	0.132342	0.002106
0.4228	0.04560062	0.137664	0.00219
0.4228	0.04737451	0.141348	0.002249
0.4228	0.04914644	0.143941	0.00229
0.4228	0.05091641	0.145306	0.002312
0.4228	0.05258343	0.148308	0.00236
0.4228	0.05424872	0.150901	0.002401
0.4228	0.05591227	0.152811	0.002431
0.4228	0.05752376	0.154585	0.002459
0.4228	0.05908333	0.156086	0.002483
0.4228	0.06063632	0.15817	0.00252
0.4228	0.06215545	0.16017	0.00255
0.4228	0.06364715	0.16227	0.00258
0.4228	0.06511213	0.16417	0.00261
0.4228	0.06655112	0.16617	0.00264
0.4228	0.0679648	0.16787	0.00267
0.4228	0.06935383	0.16927	0.00269
0.4228	0.07070666	0.171097	0.002722
0.4228	0.07205386	0.172598	0.002746
0.4228	0.07339992	0.174918	0.002783
0.4228	0.07469505	0.176419	0.002807
0.4228	0.07613837	0.17792	0.00283
0.4228	0.07758037	0.180104	0.002865
0.4228	0.0789714	0.182287	0.0029

System: dimethyl sulfoxide + dodecyltrimethylammonium bromide + water; phases: Liquid, Air at 1 atmosphere
Fixed: Temperature, K = 298
Property: Surface tension liquid-gas, N/m (Liquid); method: Ring tensiometer
Solvent: Mass fraction of dimethyl sulfoxide	Molality, mol/kg of dodecyltrimethylammonium bromide	Surface tension liquid-gas, N/m	uncertainty
0	0	0.0708	0.00095
0	2.5e-05	0.06842	0.00092
0	7.498e-05	0.06718	0.0009
0	0.00017487	0.06485	0.00087
0	0.00042422	0.05806	0.00079
0	0.00092133	0.0517	0.00071
0	0.00190917	0.04654	0.00065
0	0.00385973	0.04071	0.00058
0	0.00672438	0.03636	0.00052
0	0.01043389	0.03275	0.00048
0	0.01224323	0.03187	0.00047
0	0.01402327	0.03075	0.00046
0	0.01577473	0.0304	0.00046
0	0.0200327	0.03054	0.00046
0	0.02806485	0.0304	0.00046
0.0547	0	0.0657	0.00088
0.0547	2.488e-05	0.06011	0.00082
0.0547	7.463e-05	0.05959	0.00081
0.0547	0.00017405	0.0589	0.0008
0.0547	0.00042224	0.05735	0.00078
0.0547	0.00091702	0.0544	0.00074
0.0547	0.00190024	0.04974	0.00069
0.0547	0.0038417	0.04474	0.00063
0.0547	0.00669298	0.04081	0.00058
0.0547	0.01038524	0.03758	0.00054
0.0547	0.0117387	0.03683	0.00053
0.0547	0.01263182	0.0363	0.00052
0.0547	0.0135177	0.03576	0.00052
0.0547	0.01439643	0.03544	0.00051
0.0547	0.01526808	0.03523	0.00051
0.0547	0.01613276	0.03447	0.0005
0.0547	0.0191053	0.03411	0.0005
0.0547	0.02321196	0.03394	0.0005
0.0547	0.03096575	0.03396	0.0005
0.0547	0.03988084	0.03393	0.0005
0.1088	0	0.0642	0.00087
0.1088	4.955e-05	0.05805	0.00079
0.1088	0.0001486	0.05779	0.00079
0.1088	0.00039583	0.05623	0.00077
0.1088	0.00088871	0.05397	0.00074
0.1088	0.00187001	0.05029	0.00069
0.1088	0.00380213	0.0455	0.00064
0.1088	0.00664247	0.0418	0.00059
0.1088	0.01032056	0.03889	0.00055
0.1088	0.01255853	0.03772	0.00054
0.1088	0.01387959	0.03733	0.00053
0.1088	0.01475142	0.03687	0.00053
0.1088	0.01561625	0.03664	0.00053
0.1088	0.01647417	0.03608	0.00052
0.1088	0.01774826	0.03544	0.00051
0.1088	0.01900725	0.03502	0.00051
0.1088	0.02025142	0.03451	0.0005
0.1088	0.02188768	0.03451	0.0005
0.1088	0.02389748	0.03433	0.0005
0.1088	0.02780297	0.03436	0.0005
0.1088	0.03518658	0.0343	0.0005
0.1088	0.04369165	0.03434	0.0005
0.2155	0	0.06276	0.00085
0.2155	4.923e-05	0.05658	0.00077
0.2155	0.00014762	0.0562	0.00077
0.2155	0.00039322	0.05525	0.00076
0.2155	0.00088284	0.05364	0.00074
0.2155	0.00185582	0.05084	0.0007
0.2155	0.00377708	0.04674	0.00065
0.2155	0.00659873	0.04324	0.00061
0.2155	0.01025268	0.041	0.00058
0.2155	0.0137884	0.039	0.00056
0.2155	0.01636602	0.03824	0.00055
0.2155	0.02134021	0.03662	0.00053
0.2155	0.02374097	0.0361	0.00052
0.2155	0.0260868	0.03564	0.00051
0.2155	0.02875667	0.0349	0.00051
0.2155	0.03172311	0.03471	0.0005
0.2155	0.03530971	0.03462	0.0005
0.2155	0.04210505	0.03477	0.0005
0.2155	0.04995629	0.0348	0.0005
0.32	0	0.0612	0.00083
0.32	4.901e-05	0.05466	0.00075
0.32	0.00014696	0.05433	0.00074
0.32	0.00039148	0.05365	0.00074
0.32	0.00087895	0.05274	0.00072
0.32	0.00184764	0.05089	0.0007
0.32	0.00376043	0.04802	0.00067
0.32	0.00703105	0.04458	0.00062
0.32	0.01020759	0.0426	0.0006
0.32	0.01459017	0.04077	0.00058
0.32	0.01879976	0.0394	0.00056
0.32	0.02363699	0.03812	0.00054
0.32	0.02750028	0.03748	0.00054
0.32	0.03117193	0.03667	0.00053
0.32	0.03338646	0.03646	0.00052
0.32	0.0358543	0.03594	0.00052
0.32	0.0385991	0.03558	0.00051
0.32	0.04192169	0.03548	0.00051
0.32	0.04669247	0.03552	0.00051
0.32	0.0526853	0.03548	0.00051
0.32	0.05964099	0.03553	0.00051
0.4228	0	0.0597	0.00081
0.4228	3.91e-05	0.05335	0.00073
0.4228	0.00011725	0.05323	0.00073
0.4228	0.00031234	0.0529	0.00073
0.4228	0.00070127	0.05226	0.00072
0.4228	0.00147424	0.05109	0.0007
0.4228	0.00300081	0.04815	0.00067
0.4228	0.0052435	0.04582	0.00064
0.4228	0.00886059	0.04363	0.00061
0.4228	0.01335006	0.04182	0.00059
0.4228	0.01825308	0.04057	0.00057
0.4228	0.02377805	0.03947	0.00056
0.4228	0.02950136	0.03857	0.00055
0.4228	0.03610647	0.0377	0.00054
0.4228	0.04332532	0.03693	0.00053
0.4228	0.05192396	0.0365	0.00052
0.4228	0.06042509	0.0365	0.00052
0.4228	0.06867651	0.03655	0.00052
0.4228	0.07657117	0.03655	0.00052
0.4228	0.08404034	0.03661	0.00053
0.4228	0.09104596	0.03661	0.00053

System: dimethyl sulfoxide + dodecyltrimethylammonium bromide + water; phases: Liquid
Fixed: Pressure, kPa = 101
Fixed: Temperature, K = 298
Property: Viscosity, Pa*s (Liquid); method: Capillary tube (Ostwald; Ubbelohde) method
Solvent: Mass fraction of dimethyl sulfoxide	Molality, mol/kg of dodecyltrimethylammonium bromide	Viscosity, Pa*s	uncertainty
0.1088	0.00041229	1.00205	0.01142
0.1088	0.00365822	1.01011	0.01151
0.1088	0.00681374	1.01579	0.01158
0.1088	0.00988256	1.02777	0.01171
0.1088	0.01286822	1.0308	0.01175
0.1088	0.01577405	1.03848	0.01183
0.1088	0.01860321	1.04719	0.01193
0.1088	0.0213587	1.059	0.01207
0.1088	0.02404335	1.07116	0.01221
0.1088	0.02665986	1.08307	0.01234
0.1088	0.02921079	1.10158	0.01256
0.1088	0.03169859	1.11745	0.01274
0.2155	0.00040957	1.00292	0.01143
0.2155	0.00442607	1.01037	0.01151
0.2155	0.00830375	1.01776	0.0116
0.2155	0.01204969	1.02525	0.01168
0.2155	0.01567048	1.03455	0.01179
0.2155	0.0191723	1.04479	0.01191
0.2155	0.02256091	1.05482	0.01202
0.2155	0.02584172	1.06299	0.01211
0.2155	0.02901979	1.07886	0.0123
0.2155	0.03209988	1.09624	0.01249
0.2155	0.03508644	1.11974	0.01276
0.2155	0.03798366	1.14034	0.013
0.2155	0.04079551	1.16095	0.01323
0.2155	0.0435257	1.18156	0.01347
0.2155	0.04617774	1.20904	0.01379
0.32	0.00040777	1.00448	0.01145
0.32	0.00440657	1.01211	0.01153
0.32	0.00826721	1.02112	0.01164
0.32	0.01199672	1.03033	0.01174
0.32	0.01560168	1.03982	0.01185
0.32	0.01908821	1.05095	0.01198
0.32	0.02246207	1.06159	0.0121
0.32	0.02572862	1.06892	0.01218
0.32	0.02889291	1.07939	0.0123
0.32	0.03195966	1.0888	0.01241
0.32	0.03493331	1.10091	0.01255
0.32	0.03780849	1.11189	0.01268
0.32	0.04061779	1.14673	0.01308
0.32	0.04333624	1.17374	0.01338
0.32	0.0459769	1.21531	0.01387
0.32	0.04854305	1.25519	0.01434
0.4228	0.0004878	1.00352	0.01144
0.4228	0.00462934	1.01921	0.01161
0.4228	0.00862234	1.02658	0.0117
0.4228	0.01247466	1.0358	0.0118
0.4228	0.01619359	1.04991	0.01197
0.4228	0.01978595	1.06096	0.01209
0.4228	0.0232581	1.0667	0.01216
0.4228	0.02661596	1.08053	0.01231
0.4228	0.02986509	1.08655	0.01238
0.4228	0.03301069	1.10046	0.01254
0.4228	0.03605762	1.10744	0.01262
0.4228	0.03901046	1.1185	0.01275
0.4228	0.0418735	1.13035	0.01288
0.4228	0.04465077	1.1408	0.013
0.4228	0.04734607	1.15429	0.01316
0.4228	0.04996298	1.17886	0.01345
0.4228	0.05250487	1.20281	0.01372
0.4228	0.05497492	1.22616	0.01399
0.4228	0.05737613	1.24499	0.0142
0.4228	0.05971135	1.26714	0.01446

System: dimethyl sulfoxide + sodium [dodecanoyl(methyl)amino]acetate + water; phases: Liquid
Fixed: Pressure, kPa = 101
Fixed: Temperature, K = 298
Property: Electrical conductivity, S/m (Liquid); method: Direct current cell with electrodes
Solvent: Mass fraction of dimethyl sulfoxide	Molality, mol/kg of sodium [dodecanoyl(methyl)amino]acetate	Electrical conductivity, S/m	uncertainty
0	0	0	0.0004
0	0.00185849	0.01159	0.0004
0	0.00368454	0.02272	0.0004
0	0.00547898	0.03452	0.00055
0	0.00724264	0.04502	0.00072
0	0.0089763	0.05432	0.00086
0	0.01068071	0.06432	0.00102
0	0.01235662	0.07429	0.00118
0	0.01400293	0.08277	0.00132
0	0.01562571	0.08763	0.00139
0	0.01722025	0.09196	0.00146
0	0.01878898	0.09722	0.00155
0	0.02033253	0.10091	0.00161
0	0.02185149	0.10587	0.00168
0	0.02334645	0.11006	0.00175
0	0.02481797	0.11416	0.00182
0	0.0262666	0.11826	0.00188
0	0.02769287	0.12226	0.00195
0.0547	0	0	0.0004
0.0547	0.00148245	0.00833	0.0004
0.0547	0.00294413	0.01621	0.0004
0.0547	0.00438548	0.0236	0.0004
0.0547	0.00580691	0.0308	0.00049
0.0547	0.00720883	0.0379	0.0006
0.0547	0.00859165	0.0446	0.00071
0.0547	0.00995575	0.0512	0.00081
0.0547	0.01130151	0.0576	0.00092
0.0547	0.0126293	0.0637	0.00101
0.0547	0.01393947	0.07145	0.00114
0.0547	0.01523238	0.0777	0.00124
0.0547	0.01650836	0.08196	0.0013
0.0547	0.01776774	0.08643	0.00138
0.0547	0.01901084	0.08905	0.00142
0.0547	0.02023798	0.09381	0.00149
0.0547	0.02144946	0.09807	0.00156
0.0547	0.02264559	0.09998	0.00159
0.0547	0.02382664	0.1036	0.00165
0.0547	0.02499291	0.10722	0.00171
0.0547	0.02614467	0.11082	0.00176
0.0547	0.02728219	0.11432	0.00182
0.0547	0.02840573	0.11782	0.00187
0.0547	0.02951554	0.12122	0.00193
0.0547	0.03061189	0.12462	0.00198
0.1088	0	0	0.0004
0.1088	0.00147643	0.00776	0.0004
0.1088	0.00293218	0.01508	0.0004
0.1088	0.00436768	0.02182	0.0004
0.1088	0.00578335	0.02832	0.00045
0.1088	0.0071796	0.03482	0.00055
0.1088	0.00855682	0.04102	0.00065
0.1088	0.00991541	0.04702	0.00075
0.1088	0.01125573	0.05292	0.00084
0.1088	0.01257816	0.05862	0.00093
0.1088	0.01388305	0.06402	0.00102
0.1088	0.01517075	0.07072	0.00113
0.1088	0.01644159	0.07522	0.0012
0.1088	0.0176959	0.08042	0.00128
0.1088	0.018934	0.08352	0.00133
0.1088	0.02015621	0.086698	0.001379
0.1088	0.02136283	0.08992	0.00143
0.1088	0.02255416	0.093985	0.001495
0.1088	0.02373048	0.097505	0.001551
0.1088	0.02489208	0.101272	0.001611
0.1088	0.02603922	0.104956	0.00167
0.1088	0.02717219	0.10672	0.0017
0.1088	0.02829124	0.11032	0.00176
0.1088	0.02939662	0.11392	0.00181
0.1088	0.03048859	0.11742	0.00187
0.1088	0.03156738	0.12092	0.00192
0.1088	0.03263324	0.12432	0.00198
0.2155	0	0	0.0004
0.2155	0.00146669	0.00626	0.0004
0.2155	0.00291285	0.01211	0.0004
0.2155	0.0043389	0.0178	0.0004
0.2155	0.00574525	0.02314	0.0004
0.2155	0.00713233	0.02834	0.00045
0.2155	0.00850051	0.03344	0.00053
0.2155	0.00985018	0.03834	0.00061
0.2155	0.01118172	0.04314	0.00069
0.2155	0.01249548	0.04784	0.00076
0.2155	0.01379183	0.05234	0.00083
0.2155	0.0150711	0.057784	0.000919
0.2155	0.01633363	0.062216	0.00099
0.2155	0.01757975	0.066037	0.001051
0.2155	0.01880977	0.070393	0.00112
0.2155	0.02002401	0.07345	0.00117
0.2155	0.02122277	0.077118	0.001227
0.2155	0.02240633	0.079869	0.001271
0.2155	0.023575	0.082391	0.001311
0.2155	0.02472904	0.085448	0.001359
0.2155	0.02586873	0.088046	0.001401
0.2155	0.02699434	0.091408	0.001454
0.2155	0.02810612	0.094236	0.001499
0.2155	0.02920433	0.097216	0.001547
0.2155	0.03028922	0.099891	0.001589
0.2155	0.03136102	0.102489	0.001631
0.2155	0.03241998	0.105393	0.001677
0.2155	0.03346632	0.107838	0.001716
0.2155	0.03450026	0.110666	0.001761
0.2155	0.03552203	0.113111	0.0018
0.32	0	0	0.0004
0.32	0.00146022	0.00492	0.0004
0.32	0.00290001	0.00978	0.0004
0.32	0.00431978	0.01429	0.0004
0.32	0.00571995	0.01885	0.0004
0.32	0.00710093	0.02309	0.0004
0.32	0.0084631	0.02739	0.00044
0.32	0.00980685	0.03149	0.0005
0.32	0.01113255	0.03549	0.00056
0.32	0.01244055	0.03929	0.00063
0.32	0.01373123	0.04299	0.00068
0.32	0.0150049	0.04659	0.00074
0.32	0.01626191	0.05009	0.0008
0.32	0.01750259	0.05309	0.00084
0.32	0.01872724	0.05709	0.00091
0.32	0.01993619	0.06039	0.00096
0.32	0.02112972	0.06369	0.00101
0.32	0.02230813	0.06669	0.00106
0.32	0.0234717	0.069192	0.001101
0.32	0.02462073	0.071485	0.001137
0.32	0.02575546	0.073515	0.00117
0.32	0.02687618	0.07572	0.0012
0.32	0.02798314	0.07824	0.00124
0.32	0.02907659	0.08094	0.00129
0.32	0.03015677	0.08274	0.00132
0.32	0.03122393	0.08496	0.00135
0.32	0.03227831	0.08734	0.00139
0.32	0.03332012	0.089563	0.001425
0.32	0.03434959	0.09169	0.00146
0.32	0.03536695	0.09301	0.00148
0.32	0.03637239	0.095459	0.001519
0.32	0.03736614	0.097489	0.001551
0.32	0.03834839	0.099061	0.001576
0.32	0.03931934	0.101354	0.001613
0.32	0.04027919	0.103646	0.001649
0.4228	0	0	0.0004
0.4228	0.00145623	0.00401	0.0004
0.4228	0.00289208	0.00797	0.0004
0.4228	0.00430797	0.0109	0.0004
0.4228	0.00570432	0.0155	0.0004
0.4228	0.00708153	0.01795	0.0004
0.4228	0.00843999	0.02171	0.0004
0.4228	0.00978008	0.02569	0.00041
0.4228	0.01110217	0.02879	0.00046
0.4228	0.01240662	0.03189	0.00051
0.4228	0.01369379	0.03489	0.00056
0.4228	0.014964	0.03779	0.0006
0.4228	0.01621761	0.04069	0.00065
0.4228	0.01745492	0.04349	0.00069
0.4228	0.01867626	0.04619	0.00073
0.4228	0.01988193	0.04889	0.00078
0.4228	0.02107223	0.05149	0.00082
0.4228	0.02224745	0.05399	0.00086
0.4228	0.02340789	0.05649	0.0009
0.4228	0.02455381	0.05889	0.00094
0.4228	0.02568549	0.06109	0.00097
0.4228	0.02680318	0.06329	0.00101
0.4228	0.02790716	0.06509	0.00104
0.4228	0.02899767	0.06719	0.00107
0.4228	0.03007494	0.06939	0.0011
0.4228	0.03113924	0.07129	0.00113
0.4228	0.03219078	0.07309	0.00116
0.4228	0.03322979	0.07499	0.00119
0.4228	0.0342565	0.07669	0.00122
0.4228	0.03527113	0.07839	0.00125
0.4228	0.03627388	0.08004	0.00127
0.4228	0.03726497	0.08169	0.0013
0.4228	0.03824459	0.083428	0.001327
0.4228	0.03921294	0.085349	0.001358
0.4228	0.04017023	0.087511	0.001392
0.4228	0.04111662	0.089072	0.001417
0.4228	0.04205232	0.090873	0.001446

System: dimethyl sulfoxide + sodium [dodecanoyl(methyl)amino]acetate + water; phases: Liquid, Air at 1 atmosphere
Fixed: Temperature, K = 298
Property: Surface tension liquid-gas, N/m (Liquid); method: Ring tensiometer
Solvent: Mass fraction of dimethyl sulfoxide	Molality, mol/kg of sodium [dodecanoyl(methyl)amino]acetate	Surface tension liquid-gas, N/m	uncertainty
0	0	0.0709	0.00095
0	2.25e-05	0.06952	0.00093
0	6.748e-05	0.06746	0.00091
0	0.00015738	0.06457	0.00087
0	0.00038181	0.05977	0.00081
0	0.00060576	0.05658	0.00077
0	0.00082923	0.05464	0.00075
0	0.00105223	0.0537	0.00074
0	0.00127475	0.05215	0.00072
0	0.00149681	0.05125	0.00071
0	0.00193951	0.04923	0.00068
0	0.00260007	0.04757	0.00066
0	0.00347435	0.0459	0.00064
0	0.00498683	0.04361	0.00061
0	0.00710967	0.04195	0.00059
0	0.01122679	0.03837	0.00055
0	0.01518099	0.03714	0.00053
0	0.01898174	0.03732	0.00053
0	0.02353018	0.03772	0.00054
0	0.02871183	0.03811	0.00054
0	0.03519111	0.03868	0.00055
0	0.04195109	0.03894	0.00055
0.0547	0	0.0658	0.00089
0.0547	2.239e-05	0.0654	0.00088
0.0547	6.716e-05	0.06534	0.00088
0.0547	0.00015665	0.06383	0.00086
0.0547	0.00038002	0.06085	0.00082
0.0547	0.00082535	0.05647	0.00077
0.0547	0.00148981	0.0531	0.00073
0.0547	0.00193044	0.05145	0.00071
0.0547	0.00258792	0.05008	0.00069
0.0547	0.00324125	0.04844	0.00067
0.0547	0.00410599	0.04758	0.00066
0.0547	0.00538963	0.0457	0.00064
0.0547	0.00707648	0.04388	0.00062
0.0547	0.00914635	0.04276	0.0006
0.0547	0.01157516	0.04136	0.00058
0.0547	0.01355479	0.04042	0.00057
0.0547	0.01511029	0.0398	0.00056
0.0547	0.01814859	0.03926	0.00056
0.0547	0.02036592	0.03936	0.00056
0.0547	0.02324389	0.03942	0.00056
0.0547	0.02672088	0.03944	0.00056
0.0547	0.03170039	0.03962	0.00056
0.0547	0.03793385	0.03972	0.00056
0.1088	0	0.0643	0.00087
0.1088	2.23e-05	0.06453	0.00087
0.1088	6.689e-05	0.06413	0.00086
0.1088	0.00015601	0.06322	0.00085
0.1088	0.00037848	0.06152	0.00083
0.1088	0.000822	0.0577	0.00079
0.1088	0.00148376	0.0544	0.00074
0.1088	0.0019226	0.05288	0.00073
0.1088	0.00257741	0.05118	0.00071
0.1088	0.00322809	0.04998	0.00069
0.1088	0.00408932	0.0486	0.00067
0.1088	0.00536776	0.04724	0.00066
0.1088	0.00704778	0.04566	0.00064
0.1088	0.00910927	0.04411	0.00062
0.1088	0.01152828	0.04294	0.0006
0.1088	0.01349991	0.04197	0.00059
0.1088	0.01504915	0.04131	0.00058
0.1088	0.01657406	0.04082	0.00058
0.1088	0.01807522	0.04064	0.00058
0.1088	0.02028364	0.04078	0.00058
0.1088	0.02315006	0.04084	0.00058
0.1088	0.02661313	0.04096	0.00058
0.1088	0.03157274	0.04116	0.00058
0.2155	0	0.0628	0.00085
0.2155	4.43e-05	0.06272	0.00085
0.2155	0.00013285	0.06186	0.00084
0.2155	0.0003539	0.06034	0.00082
0.2155	0.00079459	0.05814	0.00079
0.2155	0.00145213	0.05504	0.00075
0.2155	0.00232238	0.0525	0.00072
0.2155	0.0036141	0.05018	0.00069
0.2155	0.00531136	0.04822	0.00067
0.2155	0.00739372	0.046	0.00064
0.2155	0.00983677	0.04454	0.00062
0.2155	0.01261286	0.04354	0.00061
0.2155	0.01569181	0.0422	0.00059
0.2155	0.0194067	0.0415	0.00059
0.2155	0.02367945	0.04154	0.00059
0.2155	0.02875569	0.04152	0.00059
0.2155	0.03510457	0.04153	0.00059
0.2155	0.04243515	0.04162	0.00059
0.2155	0.05045121	0.04162	0.00059
0.2155	0.05887491	0.04168	0.00059
0.32	0	0.0611	0.00083
0.32	4.411e-05	0.0612	0.00083
0.32	0.00013227	0.061	0.00083
0.32	0.00035234	0.0602	0.00082
0.32	0.00079236	0.05769	0.00079
0.32	0.00144572	0.05484	0.00075
0.32	0.00231214	0.05258	0.00072
0.32	0.00359817	0.05053	0.0007
0.32	0.00528797	0.04882	0.00068
0.32	0.00736117	0.04728	0.00066
0.32	0.0097935	0.04558	0.00064
0.32	0.01294596	0.04444	0.00062
0.32	0.0167477	0.04317	0.00061
0.32	0.02111786	0.04238	0.0006
0.32	0.02630635	0.0425	0.0006
0.32	0.03184755	0.04248	0.0006
0.32	0.03794705	0.04248	0.0006
0.32	0.0449995	0.04246	0.0006
0.32	0.05272352	0.04257	0.0006
0.32	0.06085394	0.0425	0.0006
0.4228	0	0.0595	0.00081
0.4228	4.399e-05	0.05889	0.0008
0.4228	0.00013191	0.05866	0.0008
0.4228	0.00035138	0.05814	0.00079
0.4228	0.00078892	0.05716	0.00078
0.4228	0.00144177	0.05543	0.00076
0.4228	0.00230582	0.05345	0.00073
0.4228	0.00358833	0.05156	0.00071
0.4228	0.00527351	0.04992	0.00069
0.4228	0.00734106	0.04824	0.00067
0.4228	0.00976677	0.0472	0.00066
0.4228	0.01291065	0.04578	0.00064
0.4228	0.01670208	0.04451	0.00062
0.4228	0.0210604	0.0436	0.00061
0.4228	0.02623489	0.04362	0.00061
0.4228	0.03176117	0.04363	0.00061
0.4228	0.03784432	0.04382	0.00061
0.4228	0.04487794	0.04382	0.00061
0.4228	0.05258141	0.04388	0.00062
0.4228	0.06069031	0.04405	0.00062

System: dimethyl sulfoxide + sodium [dodecanoyl(methyl)amino]acetate + water; phases: Liquid
Fixed: Pressure, kPa = 101
Fixed: Temperature, K = 298
Property: Viscosity, Pa*s (Liquid); method: Capillary tube (Ostwald; Ubbelohde) method
Solvent: Mass fraction of dimethyl sulfoxide	Molality, mol/kg of sodium [dodecanoyl(methyl)amino]acetate	Viscosity, Pa*s	uncertainty
0.1088	0.00037107	1.00427	0.01144
0.1088	0.00329293	1.01421	0.01156
0.1088	0.00613421	1.02132	0.01164
0.1088	0.0088982	1.03012	0.01174
0.1088	0.01158801	1.03702	0.01182
0.1088	0.01420657	1.044	0.0119
0.1088	0.0167567	1.0558	0.01203
0.1088	0.01924103	1.06942	0.01219
0.1088	0.02166209	1.08211	0.01233
0.1088	0.02402225	1.10115	0.01255
0.1088	0.02632378	1.11489	0.01271
0.2155	0.00036862	1.00387	0.01144
0.2155	0.00327123	1.00885	0.0115
0.2155	0.00609381	1.01567	0.01157
0.2155	0.00883965	1.02323	0.01166
0.2155	0.01151181	1.03117	0.01175
0.2155	0.01411323	1.03842	0.01183
0.2155	0.01664669	1.04879	0.01195
0.2155	0.0191148	1.06152	0.0121
0.2155	0.02152007	1.0759	0.01226
0.2155	0.02386487	1.09183	0.01244
0.2155	0.02615144	1.11099	0.01266
0.32	0.000367	1.0003	0.0114
0.32	0.00396669	1.00958	0.01151
0.32	0.00744322	1.0176	0.0116
0.32	0.01080279	1.0271	0.0117
0.32	0.01405122	1.03597	0.01181
0.32	0.01719393	1.04795	0.01194
0.32	0.020236	1.06186	0.0121
0.32	0.02318218	1.07957	0.0123
0.32	0.02603695	1.103	0.01257
0.32	0.02880448	1.12578	0.01283
0.4228	0.00036599	1.00197	0.01142
0.4228	0.00395584	1.00998	0.01151
0.4228	0.00742288	1.01767	0.0116
0.4228	0.01077331	1.02597	0.01169
0.4228	0.01401292	1.03513	0.0118
0.4228	0.0171471	1.04625	0.01192
0.4228	0.02018093	1.05955	0.01207
0.4228	0.02311915	1.06832	0.01218
0.4228	0.02596621	1.09247	0.01245
0.4228	0.02872629	1.11501	0.01271
0.4228	0.03140331	1.14069	0.013
