Measured thermophysical data. Experimental Determination of Vapor Liquid Equilibria. Binary Systems of Methyl Acetate, Ethyl Acetate, and Propyl Acetate with 1-Propanol at 0.6 MPa
Source: J. Chem. Eng. Data, 2013, 10.1021/je400622g
Compound 1: methyl ethanoate, C3H6O2, InChI=1S/C3H6O2/c1-3(4)5-2/h1-2H3, purity 99%
Compound 2: ethyl acetate, C4H8O2, InChI=1S/C4H8O2/c1-3-6-4(2)5/h3H2,1-2H3, purity 99.9%
Compound 3: propyl ethanoate, C5H10O2, InChI=1S/C5H10O2/c1-3-4-7-5(2)6/h3-4H2,1-2H3, purity 99.8%
Compound 4: propan-1-ol, C3H8O, InChI=1S/C3H8O/c1-2-3-4/h4H,2-3H2,1H3, purity 99%

System: methyl ethanoate; phases: Liquid, Gas
Property: Vapor or sublimation pressure, kPa (Liquid); method: Ebulliometric method (Recirculating still)
Temperature, K	Vapor or sublimation pressure, kPa	uncertainty
393.01	600	8.7

System: ethyl acetate; phases: Liquid, Gas
Property: Normal boiling temperature, K (Liquid); method: Ebulliometric method (Recirculating still)
Normal boiling temperature, K	uncertainty
350.19	0.3

System: ethyl acetate; phases: Liquid
Property: Refractive index (Na D-line) (Liquid); method: Standard Abbe refractometry
Temperature, K	Pressure, kPa	Refractive index (Na D-line)	uncertainty
298.15	101.325	1.3698	0.0005

System: ethyl acetate; phases: Liquid, Gas
Property: Mass density, kg/m3 (Liquid); method: Vibrating tube method
Temperature, K	Mass density, kg/m3	uncertainty
298.15	894.5	0.2

System: ethyl acetate; phases: Liquid, Gas
Property: Vapor or sublimation pressure, kPa (Liquid); method: Ebulliometric method (Recirculating still)
Temperature, K	Vapor or sublimation pressure, kPa	uncertainty
417.02	600	8.4

System: propyl ethanoate; phases: Liquid, Gas
Property: Mass density, kg/m3 (Liquid); method: Vibrating tube method
Temperature, K	Mass density, kg/m3	uncertainty
298.15	882.4	0.2

System: propyl ethanoate; phases: Liquid, Gas
Property: Vapor or sublimation pressure, kPa (Liquid); method: Ebulliometric method (Recirculating still)
Temperature, K	Vapor or sublimation pressure, kPa	uncertainty
446.02	600	8.4

System: propan-1-ol; phases: Liquid, Gas
Property: Vapor or sublimation pressure, kPa (Liquid); method: Ebulliometric method (Recirculating still)
Temperature, K	Vapor or sublimation pressure, kPa	uncertainty
427.2	600	8.7

System: propan-1-ol; phases: Liquid, Gas
Property: Mass density, kg/m3 (Liquid); method: Vibrating tube method
Temperature, K	Mass density, kg/m3	uncertainty
298.15	799.6	0.3

System: propan-1-ol + methyl ethanoate; phases: Liquid, Gas
Fixed: Pressure, kPa = 600
Property: Boiling temperature at pressure P, K (Liquid); method: Ebulliometric method (Recirculating still)
Mole fraction of methyl ethanoate	Boiling temperature at pressure P, K	uncertainty
0	427.2	0.29
0.005	426.94	0.38
0.019	426.04	0.42
0.034	424.74	0.41
0.082	421.4	0.36
0.193	415.56	0.35
0.294	411.04	0.33
0.351	408.83	0.32
0.45	405.77	0.31
0.529	403.4	0.3
0.564	402.91	0.3
0.587	402.09	0.3
0.622	401.54	0.3
0.648	400.86	0.31
0.676	400.06	0.3
0.71	399.48	0.3
0.746	398.67	0.3
0.781	397.65	0.3
0.818	396.78	0.3
0.859	395.81	0.3
0.893	395.24	0.3
0.919	394.69	0.3
0.942	394.22	0.3
0.976	393.49	0.3
0.988	393.21	0.3
0.995	393.13	0.29
1	393.01	0.29

System: propan-1-ol + methyl ethanoate; phases: Gas, Liquid
Fixed: Pressure, kPa = 600
Property: Mole fraction of methyl ethanoate (Gas); method: Density calibration data
Mole fraction of methyl ethanoate	Mole fraction of methyl ethanoate	uncertainty
0	0	
0.005	0.016	0.012
0.019	0.055	0.012
0.034	0.097	0.01
0.082	0.209	0.008
0.193	0.393	0.008
0.294	0.524	0.007
0.351	0.585	0.006
0.45	0.665	0.006
0.529	0.724	0.006
0.564	0.738	0.005
0.587	0.759	0.005
0.622	0.772	0.005
0.648	0.791	0.005
0.676	0.808	0.005
0.71	0.827	0.005
0.746	0.85	0.005
0.781	0.873	0.005
0.818	0.897	0.005
0.859	0.919	0.005
0.893	0.936	0.005
0.919	0.95	0.005
0.942	0.962	0.005
0.976	0.985	0.005
0.988	0.993	0.005
0.995	0.997	0.003
1	1	

System: propan-1-ol + ethyl acetate; phases: Liquid, Gas
Fixed: Temperature, K = 298.15
Property: Mass density, kg/m3 (Liquid); method: Vibrating tube method
Mole fraction of ethyl acetate	Mass density, kg/m3	uncertainty
0	799.6	0.3
0.0442	804.5	0.3
0.0911	809.6	0.3
0.1433	815.2	0.3
0.201	821.3	0.3
0.2417	825.5	0.3
0.2986	831.4	0.3
0.3435	835.9	0.3
0.4654	847.6	0.2
0.5534	855.8	0.2
0.6461	864.2	0.2
0.6917	868.2	0.2
0.7647	874.5	0.2
0.8037	877.9	0.2
0.8347	880.5	0.2
0.8535	882.1	0.2
0.9053	886.4	0.2
0.9649	891.4	0.2
1	894.5	0.2

System: propan-1-ol + ethyl acetate; phases: Liquid, Gas
Fixed: Pressure, kPa = 600
Property: Boiling temperature at pressure P, K (Liquid); method: Ebulliometric method (Recirculating still)
Mole fraction of ethyl acetate	Boiling temperature at pressure P, K	uncertainty
0	427.2	0.29
0.004	426.88	0.3
0.006	426.86	0.3
0.027	426.43	0.3
0.048	425.89	0.3
0.056	425.66	0.3
0.081	425.07	0.3
0.102	424.68	0.3
0.125	424.18	0.3
0.129	424.05	0.3
0.157	423.44	0.29
0.178	423.16	0.29
0.194	422.81	0.29
0.224	422.33	0.29
0.26	421.59	0.29
0.293	421.08	0.29
0.305	420.95	0.29
0.322	420.56	0.29
0.345	420.29	0.29
0.392	419.75	0.29
0.493	418.53	0.29
0.542	417.84	0.29
0.605	417.19	0.29
0.628	416.93	0.28
0.699	416.67	0.28
0.716	416.64	0.28
0.75	416.65	0.28
0.777	416.69	0.28
0.851	416.8	0.3
0.871	416.82	0.28
0.929	416.92	0.28
0.96	416.94	0.28
0.979	416.95	0.28
0.998	416.96	0.28
0.999	416.96	0.28
1	417.02	0.28

System: propan-1-ol + ethyl acetate; phases: Gas, Liquid
Fixed: Pressure, kPa = 600
Property: Mole fraction of ethyl acetate (Gas); method: Density calibration data
Mole fraction of ethyl acetate	Mole fraction of ethyl acetate	uncertainty
0	0	
0.004	0.008	0.008
0.006	0.014	0.008
0.027	0.045	0.007
0.048	0.079	0.008
0.056	0.094	0.006
0.081	0.121	0.007
0.102	0.156	0.007
0.125	0.182	0.006
0.129	0.191	0.006
0.157	0.225	0.006
0.178	0.247	0.006
0.194	0.266	0.006
0.224	0.301	0.006
0.26	0.341	0.006
0.293	0.377	0.006
0.305	0.389	0.006
0.322	0.407	0.006
0.345	0.428	0.006
0.392	0.471	0.005
0.493	0.547	0.005
0.542	0.588	0.006
0.605	0.643	0.005
0.628	0.655	0.005
0.699	0.712	0.005
0.716	0.723	0.005
0.75	0.749	0.005
0.777	0.768	0.005
0.851	0.829	0.005
0.871	0.846	0.006
0.929	0.903	0.006
0.96	0.939	0.007
0.979	0.968	0.007
0.998	0.992	0.005
0.999	0.994	0.004
1	1	

System: propan-1-ol + propyl ethanoate; phases: Liquid, Gas
Fixed: Temperature, K = 298.15
Property: Mass density, kg/m3 (Liquid); method: Vibrating tube method
Mole fraction of propyl ethanoate	Mass density, kg/m3	uncertainty
0	799.6	0.3
0.0544	805.9	0.3
0.0997	810.9	0.3
0.1515	816.5	0.3
0.1951	821	0.3
0.2503	826.4	0.3
0.3164	832.6	0.3
0.3481	835.4	0.3
0.4144	841.2	0.3
0.4959	847.9	0.2
0.5463	851.8	0.2
0.6051	856.2	0.2
0.6968	862.8	0.2
0.7528	866.6	0.2
0.7893	869	0.2
0.7984	869.7	0.2
0.8531	873.2	0.2
0.8873	875.4	0.2
0.9521	879.4	0.2
1	882.4	0.2

System: propan-1-ol + propyl ethanoate; phases: Liquid, Gas
Fixed: Pressure, kPa = 600
Property: Boiling temperature at pressure P, K (Liquid); method: Ebulliometric method (Recirculating still)
Mole fraction of propyl ethanoate	Boiling temperature at pressure P, K	uncertainty
0	427.2	0.29
0.002	427.18	0.29
0.014	427.16	0.29
0.045	427.24	0.29
0.053	427.28	0.29
0.063	427.33	0.29
0.075	427.37	0.29
0.089	427.47	0.29
0.105	427.6	0.29
0.128	427.75	0.29
0.171	428.08	0.29
0.192	428.24	0.29
0.241	428.48	0.29
0.263	428.67	0.29
0.365	429.84	0.29
0.414	430.68	0.29
0.493	431.64	0.31
0.508	432.06	0.3
0.586	433.28	0.32
0.594	433.58	0.32
0.627	434.3	0.29
0.697	435.28	0.35
0.71	435.97	0.35
0.799	437.98	0.3
0.83	439.07	0.31
0.877	440.56	0.32
0.91	441.9	0.33
0.977	444.61	0.4
0.99	445.54	0.38
1	446.02	0.28

System: propan-1-ol + propyl ethanoate; phases: Gas, Liquid
Fixed: Pressure, kPa = 600
Property: Mole fraction of propyl ethanoate (Gas); method: Density calibration data
Mole fraction of propyl ethanoate	Mole fraction of propyl ethanoate	uncertainty
0	0	
0.002	0.004	0.004
0.014	0.016	0.005
0.045	0.044	0.005
0.053	0.051	0.005
0.063	0.059	0.005
0.075	0.07	0.005
0.089	0.082	0.005
0.105	0.095	0.005
0.128	0.113	0.005
0.171	0.15	0.005
0.192	0.167	0.005
0.241	0.203	0.005
0.263	0.221	0.005
0.365	0.298	0.005
0.414	0.341	0.005
0.493	0.401	0.005
0.508	0.412	0.005
0.586	0.483	0.005
0.594	0.489	0.005
0.627	0.519	0.006
0.697	0.586	0.006
0.71	0.601	0.006
0.799	0.699	0.006
0.83	0.737	0.007
0.877	0.798	0.007
0.91	0.848	0.007
0.977	0.953	0.008
0.99	0.974	0.009
1	1	
