Measured thermophysical data. Study of Solvation Behavior of Some Biologically Active Compounds in Aqueous Barium Chloride Solution
Source: J. Chem. Eng. Data, 2013, 10.1021/je400077c
Compound 1: 2-aminoacetic acid, C2H5NO2, InChI=1S/C2H5NO2/c3-1-2(4)5/h1,3H2,(H,4,5), purity 99%
Compound 2: (S)-2-aminopropanoic acid, C3H7NO2, InChI=1S/C3H7NO2/c1-2(4)3(5)6/h2H,4H2,1H3,(H,5,6)/t2-/m0/s1, purity 99%
Compound 3: L-valine, C5H11NO2, InChI=1S/C5H11NO2/c1-3(2)4(6)5(7)8/h3-4H,6H2,1-2H3,(H,7,8)/t4-/m0/s1, purity 99%
Compound 4: barium chloride, BaCl2, InChI=1S/Ba.2ClH/h;2*1H/q+2;;/p-2, purity 99%
Compound 5: water, H2O, InChI=1S/H2O/h1H2

System: water + barium chloride; phases: Liquid
Fixed: Pressure, kPa = 101
Fixed: Temperature, K = 298.15
Property: Mass density, kg/m3 (Liquid); method: Vibrating tube method
Mass fraction of barium chloride	Mass density, kg/m3	uncertainty
0.01	997.56	0.04
0.03	998.66	0.04
0.05	999.74	0.05

System: water + barium chloride; phases: Liquid
Fixed: Pressure, kPa = 101
Fixed: Temperature, K = 298.15
Property: Refractive index (Na D-line) (Liquid); method: Standard Abbe refractometry
Mass fraction of barium chloride	Refractive index (Na D-line)	uncertainty
0.01	1.333	0.0008
0.03	1.3337	0.0008
0.05	1.3345	0.0008

System: water + barium chloride; phases: Liquid
Fixed: Pressure, kPa = 101
Fixed: Temperature, K = 298.15
Property: Viscosity, Pa*s (Liquid); method: Capillary tube (Ostwald; Ubbelohde) method
Mass fraction of barium chloride	Viscosity, Pa*s	uncertainty
0.01	0.000909	8e-06
0.03	0.000915	8e-06
0.05	0.000921	8e-06

System: water + barium chloride; phases: Liquid
Fixed: Pressure, kPa = 101
Fixed: Temperature, K = 298.15
Property: Speed of sound, m/s (Liquid); method: Linear variable-path acoustic interferometer
Mass fraction of barium chloride	Speed of sound, m/s	uncertainty
0.01	1516.7	1.6
0.03	1521.4	1.6
0.05	1525.3	1.6

System: 2-aminoacetic acid + water + barium chloride; phases: Liquid
Fixed: Pressure, kPa = 101
Fixed: Temperature, K = 298.15
Property: Mass density, kg/m3 (Liquid); method: Vibrating tube method
Solvent: Mass fraction of barium chloride	Molality, mol/kg of 2-aminoacetic acid	Mass density, kg/m3	uncertainty
0.01	0.1001	997.81	0.13
0.01	0.1584	998.23	0.13
0.01	0.2004	998.68	0.13
0.01	0.2351	999.15	0.13
0.01	0.2653	999.64	0.13
0.01	0.2925	1000.15	0.13
0.03	0.1001	998.86	0.13
0.03	0.1583	999.21	0.13
0.03	0.2003	999.6	0.1
0.03	0.235	1000.02	0.13
0.03	0.2652	1000.46	0.13
0.03	0.2923	1000.94	0.13
0.05	0.1	999.92	0.13
0.05	0.1582	1000.25	0.13
0.05	0.2002	1000.63	0.13
0.05	0.2349	1001.04	0.13
0.05	0.2651	1001.48	0.13
0.05	0.2922	1001.94	0.13

System: 2-aminoacetic acid + water + barium chloride; phases: Liquid
Fixed: Pressure, kPa = 101
Fixed: Temperature, K = 298.15
Property: Refractive index (Na D-line) (Liquid); method: Standard Abbe refractometry
Solvent: Mass fraction of barium chloride	Molality, mol/kg of 2-aminoacetic acid	Refractive index (Na D-line)	uncertainty
0.01	0.1001	1.3331	0.0008
0.01	0.1584	1.3335	0.0008
0.01	0.2004	1.3338	0.0008
0.01	0.2351	1.3341	0.0008
0.01	0.2653	1.3344	0.0008
0.01	0.2925	1.3347	0.0008
0.03	0.1001	1.3342	0.0008
0.03	0.1583	1.3346	0.0008
0.03	0.2003	1.3349	0.0008
0.03	0.235	1.3352	0.0008
0.03	0.2652	1.3355	0.0008
0.03	0.2923	1.3358	0.0008
0.05	0.1	1.3353	0.0008
0.05	0.1582	1.3357	0.0008
0.05	0.2002	1.336	0.0008
0.05	0.2349	1.3363	0.0008
0.05	0.2651	1.3366	0.0008
0.05	0.2922	1.3369	0.0008

System: 2-aminoacetic acid + water + barium chloride; phases: Liquid
Fixed: Pressure, kPa = 101
Fixed: Temperature, K = 298.15
Property: Viscosity, Pa*s (Liquid); method: Capillary tube (Ostwald; Ubbelohde) method
Solvent: Mass fraction of barium chloride	Molality, mol/kg of 2-aminoacetic acid	Viscosity, Pa*s	uncertainty
0.01	0.1001	0.000913	9e-06
0.01	0.1584	0.000916	9e-06
0.01	0.2004	0.000918	9e-06
0.01	0.2351	0.000921	9e-06
0.01	0.2653	0.000923	9e-06
0.01	0.2925	0.000926	9e-06
0.03	0.1001	0.000919	9e-06
0.03	0.1583	0.000923	9e-06
0.03	0.2003	0.000926	9e-06
0.03	0.235	0.000929	9e-06
0.03	0.2652	0.000932	9e-06
0.03	0.2923	0.000935	9e-06
0.05	0.1	0.000926	9e-06
0.05	0.1582	0.000929	9e-06
0.05	0.2002	0.000933	9e-06
0.05	0.2349	0.000937	9e-06
0.05	0.2651	0.00094	9e-06
0.05	0.2922	0.000944	9e-06

System: 2-aminoacetic acid + water + barium chloride; phases: Liquid
Fixed: Pressure, kPa = 101
Fixed: Temperature, K = 298.15
Property: Speed of sound, m/s (Liquid); method: Linear variable-path acoustic interferometer
Solvent: Mass fraction of barium chloride	Molality, mol/kg of 2-aminoacetic acid	Speed of sound, m/s	uncertainty
0.01	0.1001	1521.3	1.7
0.01	0.1584	1535.8	1.7
0.01	0.2004	1555.9	1.7
0.01	0.2351	1582.6	1.8
0.01	0.2653	1613.4	1.8
0.01	0.2925	1651.6	1.9
0.03	0.1001	1526.8	1.7
0.03	0.1583	1542.8	1.7
0.03	0.2003	1565.9	1.8
0.03	0.235	1594.9	1.8
0.03	0.2652	1630.1	1.8
0.03	0.2923	1673.1	1.9
0.05	0.1	1531.2	1.7
0.05	0.1582	1548.9	1.7
0.05	0.2002	1574.9	1.8
0.05	0.2349	1607.3	1.8
0.05	0.2651	1648	1.9
0.05	0.2922	1696.2	1.9

System: (S)-2-aminopropanoic acid + water + barium chloride; phases: Liquid
Fixed: Pressure, kPa = 101
Fixed: Temperature, K = 298.15
Property: Mass density, kg/m3 (Liquid); method: Vibrating tube method
Solvent: Mass fraction of barium chloride	Molality, mol/kg of (S)-2-aminopropanoic acid	Mass density, kg/m3	uncertainty
0.01	0.1002	997.77	0.13
0.01	0.1584	998.15	0.13
0.01	0.2005	998.57	0.13
0.01	0.2352	999.02	0.13
0.01	0.2655	999.51	0.13
0.01	0.2927	1000.03	0.13
0.03	0.1001	998.8	0.1
0.03	0.1584	999.11	0.13
0.03	0.2004	999.49	0.13
0.03	0.2351	999.91	0.13
0.03	0.2654	1000.38	0.13
0.03	0.2925	1000.89	0.13
0.05	0.1001	999.85	0.13
0.05	0.1583	1000.12	0.13
0.05	0.2003	1000.5	0.1
0.05	0.235	1000.92	0.13
0.05	0.2652	1001.4	0.1
0.05	0.2924	1001.91	0.13

System: (S)-2-aminopropanoic acid + water + barium chloride; phases: Liquid
Fixed: Pressure, kPa = 101
Fixed: Temperature, K = 298.15
Property: Refractive index (Na D-line) (Liquid); method: Standard Abbe refractometry
Solvent: Mass fraction of barium chloride	Molality, mol/kg of (S)-2-aminopropanoic acid	Refractive index (Na D-line)	uncertainty
0.01	0.1002	1.3333	0.0008
0.01	0.1584	1.3337	0.0008
0.01	0.2005	1.334	0.0008
0.01	0.2352	1.3343	0.0008
0.01	0.2655	1.3346	0.0008
0.01	0.2927	1.3349	0.0008
0.03	0.1001	1.3343	0.0008
0.03	0.1584	1.3347	0.0008
0.03	0.2004	1.335	0.0008
0.03	0.2351	1.3353	0.0008
0.03	0.2654	1.3356	0.0008
0.03	0.2925	1.3359	0.0008
0.05	0.1001	1.3354	0.0008
0.05	0.1583	1.3358	0.0008
0.05	0.2003	1.3361	0.0008
0.05	0.235	1.3365	0.0008
0.05	0.2652	1.3368	0.0008
0.05	0.2924	1.3371	0.0008

System: (S)-2-aminopropanoic acid + water + barium chloride; phases: Liquid
Fixed: Pressure, kPa = 101
Fixed: Temperature, K = 298.15
Property: Viscosity, Pa*s (Liquid); method: Capillary tube (Ostwald; Ubbelohde) method
Solvent: Mass fraction of barium chloride	Molality, mol/kg of (S)-2-aminopropanoic acid	Viscosity, Pa*s	uncertainty
0.01	0.1002	0.000915	9e-06
0.01	0.1584	0.000922	9e-06
0.01	0.2005	0.000929	9e-06
0.01	0.2352	0.000936	9e-06
0.01	0.2655	0.000942	9e-06
0.01	0.2927	0.000949	9e-06
0.03	0.1001	0.000924	9e-06
0.03	0.1584	0.000931	9e-06
0.03	0.2004	0.000939	9e-06
0.03	0.2351	0.000946	9e-06
0.03	0.2654	0.000954	9e-06
0.03	0.2925	0.000961	9e-06
0.05	0.1001	0.00093	9e-06
0.05	0.1583	0.000938	9e-06
0.05	0.2003	0.000946	9e-06
0.05	0.235	0.000954	9e-06
0.05	0.2652	0.000962	9e-06
0.05	0.2924	0.00097	9e-06

System: (S)-2-aminopropanoic acid + water + barium chloride; phases: Liquid
Fixed: Pressure, kPa = 101
Fixed: Temperature, K = 298.15
Property: Speed of sound, m/s (Liquid); method: Linear variable-path acoustic interferometer
Solvent: Mass fraction of barium chloride	Molality, mol/kg of (S)-2-aminopropanoic acid	Speed of sound, m/s	uncertainty
0.01	0.1002	1520.5	1.7
0.01	0.1584	1533.8	1.7
0.01	0.2005	1553.1	1.7
0.01	0.2352	1577.9	1.8
0.01	0.2655	1608.6	1.8
0.01	0.2927	1645.3	1.8
0.03	0.1001	1525.7	1.7
0.03	0.1584	1540.4	1.7
0.03	0.2004	1561.4	1.8
0.03	0.2351	1588.9	1.8
0.03	0.2654	1621.9	1.8
0.03	0.2925	1663.2	1.9
0.05	0.1001	1530.3	1.7
0.05	0.1583	1546.7	1.7
0.05	0.2003	1571.1	1.8
0.05	0.235	1602.3	1.8
0.05	0.2652	1640.9	1.8
0.05	0.2924	1689.2	1.9

System: L-valine + water + barium chloride; phases: Liquid
Fixed: Pressure, kPa = 101
Fixed: Temperature, K = 298.15
Property: Mass density, kg/m3 (Liquid); method: Vibrating tube method
Solvent: Mass fraction of barium chloride	Molality, mol/kg of L-valine	Mass density, kg/m3	uncertainty
0.01	0.1002	997.69	0.13
0.01	0.1585	997.98	0.13
0.01	0.2006	998.33	0.13
0.01	0.2354	998.72	0.13
0.01	0.2658	999.17	0.13
0.01	0.2931	999.67	0.13
0.03	0.1001	998.73	0.13
0.03	0.1584	998.97	0.13
0.03	0.2005	999.3	0.13
0.03	0.2353	999.68	0.13
0.03	0.2656	1000.14	0.13
0.03	0.2929	1000.65	0.13
0.05	0.1001	999.78	0.13
0.05	0.1583	1000.01	0.13
0.05	0.2004	1000.38	0.13
0.05	0.2352	1000.82	0.13
0.05	0.2655	1001.34	0.13
0.05	0.2927	1001.89	0.13

System: L-valine + water + barium chloride; phases: Liquid
Fixed: Pressure, kPa = 101
Fixed: Temperature, K = 298.15
Property: Refractive index (Na D-line) (Liquid); method: Standard Abbe refractometry
Solvent: Mass fraction of barium chloride	Molality, mol/kg of L-valine	Refractive index (Na D-line)	uncertainty
0.01	0.1002	1.3335	0.0008
0.01	0.1585	1.334	0.0008
0.01	0.2006	1.3344	0.0008
0.01	0.2354	1.3346	0.0008
0.01	0.2658	1.3352	0.0008
0.01	0.2931	1.3356	0.0008
0.03	0.1001	1.3344	0.0008
0.03	0.1584	1.335	0.0008
0.03	0.2005	1.3355	0.0008
0.03	0.2353	1.3359	0.0008
0.03	0.2656	1.3363	0.0008
0.03	0.2929	1.3367	0.0008
0.05	0.1001	1.3355	0.0008
0.05	0.1583	1.3361	0.0008
0.05	0.2004	1.3366	0.0008
0.05	0.2352	1.3371	0.0008
0.05	0.2655	1.3375	0.0008
0.05	0.2927	1.3379	0.0008

System: L-valine + water + barium chloride; phases: Liquid
Fixed: Pressure, kPa = 101
Fixed: Temperature, K = 298.15
Property: Viscosity, Pa*s (Liquid); method: Capillary tube (Ostwald; Ubbelohde) method
Solvent: Mass fraction of barium chloride	Molality, mol/kg of L-valine	Viscosity, Pa*s	uncertainty
0.01	0.1002	0.000919	9e-06
0.01	0.1585	0.000931	9e-06
0.01	0.2006	0.000944	9e-06
0.01	0.2354	0.000956	9e-06
0.01	0.2658	0.000969	9e-06
0.01	0.2931	0.000981	9e-06
0.03	0.1001	0.00093	9e-06
0.03	0.1584	0.000944	9e-06
0.03	0.2005	0.000958	9e-06
0.03	0.2353	0.000973	9e-06
0.03	0.2656	0.000987	9e-06
0.03	0.2929	0.001001	9e-06
0.05	0.1001	0.000937	9e-06
0.05	0.1583	0.000953	9e-06
0.05	0.2004	0.000968	9e-06
0.05	0.2352	0.000984	9e-06
0.05	0.2655	0.001	9e-06
0.05	0.2927	0.001015	1e-05

System: L-valine + water + barium chloride; phases: Liquid
Fixed: Pressure, kPa = 101
Fixed: Temperature, K = 298.15
Property: Speed of sound, m/s (Liquid); method: Linear variable-path acoustic interferometer
Solvent: Mass fraction of barium chloride	Molality, mol/kg of L-valine	Speed of sound, m/s	uncertainty
0.01	0.1002	1519.5	1.7
0.01	0.1585	1532	1.7
0.01	0.2006	1550.3	1.7
0.01	0.2354	1574.2	1.8
0.01	0.2658	1602.9	1.8
0.01	0.2931	1637.6	1.8
0.03	0.1001	1524.8	1.7
0.03	0.1584	1538.3	1.7
0.03	0.2005	1558.1	1.7
0.03	0.2353	1583.9	1.8
0.03	0.2656	1617.6	1.8
0.03	0.2929	1655.2	1.9
0.05	0.1001	1529.5	1.7
0.05	0.1583	1545.5	1.7
0.05	0.2004	1569.1	1.8
0.05	0.2352	1600.2	1.8
0.05	0.2655	1640.1	1.8
0.05	0.2927	1686.3	1.9
