Measured thermophysical data. Thermodynamic and Spectroscopic Study of the Ternary System Dimethyladipate + Tetrahydrofuran +1-Butanol at T = (288.15 to 323.15) K
Source: J. Chem. Eng. Data, 2013, 10.1021/je4003916
Compound 1: dimethyl 1,6-hexanedioate, C8H14O4, InChI=1S/C8H14O4/c1-11-7(9)5-3-4-6-8(10)12-2/h3-6H2,1-2H3, purity 99%
Compound 2: tetrahydrofuran, C4H8O, InChI=1S/C4H8O/c1-2-4-5-3-1/h1-4H2, purity 99.5%
Compound 3: butan-1-ol, C4H10O, InChI=1S/C4H10O/c1-2-3-4-5/h5H,2-4H2,1H3, purity 99.5%

System: dimethyl 1,6-hexanedioate; phases: Liquid
Property: Mass density, kg/m3 (Liquid); method: Vibrating tube method
Temperature, K	Pressure, kPa	Mass density, kg/m3	uncertainty
293.15	101.325	1061.93	0.28

System: butan-1-ol + tetrahydrofuran + dimethyl 1,6-hexanedioate; phases: Liquid
Fixed: Pressure, kPa = 101
Property: Mass density, kg/m3 (Liquid); method: Vibrating tube method
Temperature, K	Mole fraction of dimethyl 1,6-hexanedioate	Mole fraction of tetrahydrofuran	Mass density, kg/m3	uncertainty
288.15	0.09	0.0999	857.94	0.15
288.15	0.08	0.2	861.5	0.15
288.15	0.0701	0.3001	865.01	0.15
288.15	0.06	0.3999	868.62	0.15
288.15	0.0501	0.4998	872.41	0.15
288.15	0.04	0.5999	876.24	0.15
288.15	0.03	0.7003	880.22	0.15
288.15	0.02	0.8001	884.4	0.15
288.15	0.0101	0.8999	888.76	0.14
288.15	0.1799	0.1002	890.75	0.14
288.15	0.1601	0.2	891.05	0.14
288.15	0.14	0.2999	891.56	0.14
288.15	0.1199	0.4001	891.87	0.14
288.15	0.1	0.5001	892.15	0.14
288.15	0.08	0.5999	892.47	0.14
288.15	0.0596	0.702	892.67	0.14
288.15	0.04	0.7999	892.84	0.14
288.15	0.02	0.8998	892.93	0.14
288.15	0.3601	0.1	946.04	0.15
288.15	0.3195	0.2006	941.7	0.14
288.15	0.28	0.2999	937.41	0.14
288.15	0.24	0.4	932.54	0.14
288.15	0.1999	0.5	927.55	0.14
288.15	0.16	0.5998	921.9	0.14
288.15	0.12	0.6999	915.81	0.14
288.15	0.0801	0.8	909.09	0.14
288.15	0.04	0.8999	901.54	0.14
288.15	0.5401	0.0998	990.58	0.16
288.15	0.4801	0.1999	983.57	0.15
288.15	0.4192	0.2993	975.74	0.15
288.15	0.359	0.4017	967.51	0.14
288.15	0.3	0.4999	958.44	0.14
288.15	0.24	0.5999	948.29	0.14
288.15	0.1789	0.702	936.81	0.14
288.15	0.1201	0.8	924.25	0.14
288.15	0.0601	0.9002	909.83	0.14
288.15	0.7201	0.0999	1027.16	0.2
288.15	0.6376	0.2027	1018.09	0.18
288.15	0.5598	0.3	1008.62	0.16
288.15	0.4801	0.4	997.87	0.15
288.15	0.4	0.5	985.73	0.14
288.15	0.3202	0.6	972.19	0.14
288.15	0.24	0.6999	956.41	0.14
288.15	0.16	0.7999	938.39	0.14
288.15	0.0818	0.8978	918.19	0.14
288.15	0.8101	0.0999	1043.06	0.23
288.15	0.7199	0.2001	1033.63	0.2
288.15	0.63	0.2998	1023.15	0.18
288.15	0.54	0.4001	1011.42	0.16
288.15	0.4498	0.5	998.1	0.15
288.15	0.36	0.5998	982.99	0.14
288.15	0.2701	0.7	965.62	0.14
288.15	0.18	0.8001	945.37	0.14
288.15	0.0898	0.9003	921.51	0.14
293.15	0.09	0.0999	853.78	0.15
293.15	0.08	0.2	857.21	0.15
293.15	0.0701	0.3001	860.6	0.15
293.15	0.06	0.3999	864.07	0.15
293.15	0.0501	0.4998	867.73	0.15
293.15	0.04	0.5999	871.42	0.15
293.15	0.03	0.7003	875.25	0.15
293.15	0.02	0.8001	879.28	0.15
293.15	0.0101	0.8999	883.49	0.15
293.15	0.1799	0.1002	886.42	0.15
293.15	0.1601	0.2	886.61	0.15
293.15	0.14	0.2999	887.03	0.14
293.15	0.1199	0.4001	887.23	0.14
293.15	0.1	0.5001	887.39	0.14
293.15	0.08	0.5999	887.59	0.14
293.15	0.0596	0.702	887.66	0.14
293.15	0.04	0.7999	887.71	0.14
293.15	0.02	0.8998	887.66	0.15
293.15	0.3601	0.1	941.46	0.15
293.15	0.3195	0.2006	937.06	0.15
293.15	0.28	0.2999	932.7	0.14
293.15	0.24	0.4	927.76	0.14
293.15	0.1999	0.5	922.68	0.14
293.15	0.16	0.5998	916.94	0.14
293.15	0.12	0.6999	910.75	0.14
293.15	0.0801	0.8	903.92	0.14
293.15	0.04	0.8999	896.25	0.14
293.15	0.5401	0.0998	985.84	0.16
293.15	0.4801	0.1999	978.79	0.15
293.15	0.4192	0.2993	970.92	0.15
293.15	0.359	0.4017	962.62	0.14
293.15	0.3	0.4999	953.5	0.14
293.15	0.24	0.5999	943.27	0.14
293.15	0.1789	0.702	931.71	0.14
293.15	0.1201	0.8	919.06	0.14
293.15	0.0601	0.9002	904.53	0.14
293.15	0.7201	0.0999	1022.33	0.2
293.15	0.6376	0.2027	1013.22	0.18
293.15	0.5598	0.3	1003.72	0.16
293.15	0.4801	0.4	992.91	0.15
293.15	0.4	0.5	980.72	0.14
293.15	0.3202	0.6	967.13	0.14
293.15	0.24	0.6999	951.28	0.14
293.15	0.16	0.7999	933.17	0.14
293.15	0.0818	0.8978	912.88	0.14
293.15	0.8101	0.0999	1038.19	0.22
293.15	0.7199	0.2001	1028.72	0.2
293.15	0.63	0.2998	1018.21	0.18
293.15	0.54	0.4001	1006.45	0.16
293.15	0.4498	0.5	993.07	0.15
293.15	0.36	0.5998	977.9	0.14
293.15	0.2701	0.7	960.47	0.14
293.15	0.18	0.8001	940.14	0.14
293.15	0.0898	0.9003	916.19	0.14
298.15	0.09	0.0999	849.59	0.15
298.15	0.08	0.2	852.9	0.15
298.15	0.0701	0.3001	856.17	0.15
298.15	0.06	0.3999	859.5	0.15
298.15	0.0501	0.4998	863.03	0.15
298.15	0.04	0.5999	866.57	0.15
298.15	0.03	0.7003	870.26	0.15
298.15	0.02	0.8001	874.13	0.15
298.15	0.0101	0.8999	878.19	0.15
298.15	0.1799	0.1002	882.06	0.15
298.15	0.1601	0.2	882.16	0.15
298.15	0.14	0.2999	882.48	0.15
298.15	0.1199	0.4001	882.57	0.15
298.15	0.1	0.5001	882.62	0.15
298.15	0.08	0.5999	882.7	0.15
298.15	0.0596	0.702	882.64	0.15
298.15	0.04	0.7999	882.54	0.15
298.15	0.02	0.8998	882.35	0.15
298.15	0.3601	0.1	936.87	0.15
298.15	0.3195	0.2006	932.4	0.15
298.15	0.28	0.2999	927.97	0.14
298.15	0.24	0.4	922.96	0.14
298.15	0.1999	0.5	917.8	0.14
298.15	0.16	0.5998	911.97	0.14
298.15	0.12	0.6999	905.67	0.14
298.15	0.0801	0.8	898.73	0.14
298.15	0.04	0.8999	890.93	0.15
298.15	0.5401	0.0998	981.1	0.16
298.15	0.4801	0.1999	974	0.15
298.15	0.4192	0.2993	966.07	0.15
298.15	0.359	0.4017	957.72	0.14
298.15	0.3	0.4999	948.53	0.14
298.15	0.24	0.5999	938.24	0.14
298.15	0.1789	0.702	926.59	0.14
298.15	0.1201	0.8	913.84	0.14
298.15	0.0601	0.9002	899.19	0.14
298.15	0.7201	0.0999	1017.49	0.19
298.15	0.6376	0.2027	1008.34	0.18
298.15	0.5598	0.3	998.8	0.16
298.15	0.4801	0.4	987.95	0.15
298.15	0.4	0.5	975.7	0.14
298.15	0.3202	0.6	962.05	0.14
298.15	0.24	0.6999	946.13	0.14
298.15	0.16	0.7999	927.93	0.14
298.15	0.0818	0.8978	907.54	0.14
298.15	0.8101	0.0999	1033.32	0.22
298.15	0.7199	0.2001	1023.82	0.2
298.15	0.63	0.2998	1013.27	0.18
298.15	0.54	0.4001	1001.46	0.16
298.15	0.4498	0.5	988.04	0.15
298.15	0.36	0.5998	972.81	0.14
298.15	0.2701	0.7	955.3	0.14
298.15	0.18	0.8001	934.9	0.14
298.15	0.0898	0.9003	910.84	0.14
303.15	0.09	0.0999	845.38	0.15
303.15	0.08	0.2	848.56	0.15
303.15	0.0701	0.3001	851.7	0.15
303.15	0.06	0.3999	854.91	0.15
303.15	0.0501	0.4998	858.29	0.15
303.15	0.04	0.5999	861.7	0.15
303.15	0.03	0.7003	865.24	0.15
303.15	0.02	0.8001	868.96	0.15
303.15	0.0101	0.8999	872.85	0.15
303.15	0.1799	0.1002	877.69	0.15
303.15	0.1601	0.2	877.69	0.15
303.15	0.14	0.2999	877.9	0.15
303.15	0.1199	0.4001	877.88	0.15
303.15	0.1	0.5001	877.82	0.15
303.15	0.08	0.5999	877.78	0.15
303.15	0.0596	0.702	877.58	0.15
303.15	0.04	0.7999	877.35	0.15
303.15	0.02	0.8998	877.01	0.15
303.15	0.3601	0.1	932.26	0.15
303.15	0.3195	0.2006	927.72	0.15
303.15	0.28	0.2999	923.23	0.14
303.15	0.24	0.4	918.14	0.14
303.15	0.1999	0.5	912.9	0.14
303.15	0.16	0.5998	906.97	0.14
303.15	0.12	0.6999	900.57	0.14
303.15	0.0801	0.8	893.51	0.14
303.15	0.04	0.8999	885.58	0.15
303.15	0.5401	0.0998	976.35	0.16
303.15	0.4801	0.1999	969.2	0.15
303.15	0.4192	0.2993	961.22	0.15
303.15	0.359	0.4017	952.8	0.14
303.15	0.3	0.4999	943.56	0.14
303.15	0.24	0.5999	933.18	0.14
303.15	0.1789	0.702	921.44	0.14
303.15	0.1201	0.8	908.6	0.14
303.15	0.0601	0.9002	893.83	0.14
303.15	0.7201	0.0999	1012.64	0.19
303.15	0.6376	0.2027	1003.46	0.17
303.15	0.5598	0.3	993.88	0.16
303.15	0.4801	0.4	982.98	0.15
303.15	0.4	0.5	970.67	0.15
303.15	0.3202	0.6	956.96	0.14
303.15	0.24	0.6999	940.96	0.14
303.15	0.16	0.7999	922.67	0.14
303.15	0.0818	0.8978	902.18	0.14
303.15	0.8101	0.0999	1028.44	0.22
303.15	0.7199	0.2001	1018.91	0.19
303.15	0.63	0.2998	1008.32	0.17
303.15	0.54	0.4001	996.46	0.16
303.15	0.4498	0.5	982.99	0.15
303.15	0.36	0.5998	967.7	0.14
303.15	0.2701	0.7	950.12	0.14
303.15	0.18	0.8001	929.63	0.14
303.15	0.0898	0.9003	905.47	0.14
308.15	0.09	0.0999	841.14	0.15
308.15	0.08	0.2	844.2	0.15
308.15	0.0701	0.3001	847.21	0.15
308.15	0.06	0.3999	850.28	0.15
308.15	0.0501	0.4998	853.53	0.15
308.15	0.04	0.5999	856.79	0.15
308.15	0.03	0.7003	860.18	0.15
308.15	0.02	0.8001	863.75	0.15
308.15	0.0101	0.8999	867.49	0.15
308.15	0.1799	0.1002	873.28	0.15
308.15	0.1601	0.2	873.18	0.15
308.15	0.14	0.2999	873.3	0.15
308.15	0.1199	0.4001	873.17	0.15
308.15	0.1	0.5001	872.99	0.15
308.15	0.08	0.5999	872.82	0.15
308.15	0.0596	0.702	872.49	0.15
308.15	0.04	0.7999	872.13	0.15
308.15	0.02	0.8998	871.63	0.15
308.15	0.3601	0.1	927.63	0.15
308.15	0.3195	0.2006	923.03	0.15
308.15	0.28	0.2999	918.47	0.15
308.15	0.24	0.4	913.29	0.14
308.15	0.1999	0.5	907.97	0.14
308.15	0.16	0.5998	901.94	0.14
308.15	0.12	0.6999	895.44	0.14
308.15	0.0801	0.8	888.26	0.15
308.15	0.04	0.8999	880.2	0.15
308.15	0.5401	0.0998	971.57	0.16
308.15	0.4801	0.1999	964.38	0.15
308.15	0.4192	0.2993	956.35	0.15
308.15	0.359	0.4017	947.87	0.15
308.15	0.3	0.4999	938.56	0.14
308.15	0.24	0.5999	928.1	0.14
308.15	0.1789	0.702	916.28	0.14
308.15	0.1201	0.8	903.33	0.14
308.15	0.0601	0.9002	888.45	0.15
308.15	0.7201	0.0999	1007.79	0.19
308.15	0.6376	0.2027	998.56	0.17
308.15	0.5598	0.3	988.94	0.16
308.15	0.4801	0.4	977.99	0.15
308.15	0.4	0.5	965.63	0.15
308.15	0.3202	0.6	951.84	0.14
308.15	0.24	0.6999	935.77	0.14
308.15	0.16	0.7999	917.38	0.14
308.15	0.0818	0.8978	896.78	0.14
308.15	0.8101	0.0999	1023.56	0.21
308.15	0.7199	0.2001	1013.99	0.19
308.15	0.63	0.2998	1003.36	0.17
308.15	0.54	0.4001	991.45	0.16
308.15	0.4498	0.5	977.92	0.15
308.15	0.36	0.5998	962.57	0.14
308.15	0.2701	0.7	944.92	0.14
308.15	0.18	0.8001	924.33	0.14
308.15	0.0898	0.9003	900.07	0.14
313.15	0.09	0.0999	836.86	0.15
313.15	0.08	0.2	839.8	0.15
313.15	0.0701	0.3001	842.68	0.15
313.15	0.06	0.3999	845.62	0.15
313.15	0.0501	0.4998	848.73	0.15
313.15	0.04	0.5999	851.85	0.15
313.15	0.03	0.7003	855.09	0.15
313.15	0.02	0.8001	858.51	0.15
313.15	0.0101	0.8999	862.08	0.15
313.15	0.1799	0.1002	868.85	0.15
313.15	0.1601	0.2	868.65	0.15
313.15	0.14	0.2999	868.67	0.15
313.15	0.1199	0.4001	868.43	0.15
313.15	0.1	0.5001	868.13	0.15
313.15	0.08	0.5999	867.84	0.15
313.15	0.0596	0.702	867.38	0.15
313.15	0.04	0.7999	866.87	0.15
313.15	0.02	0.8998	866.23	0.15
313.15	0.3601	0.1	922.98	0.15
313.15	0.3195	0.2006	918.31	0.15
313.15	0.28	0.2999	913.68	0.15
313.15	0.24	0.4	908.43	0.15
313.15	0.1999	0.5	903.01	0.14
313.15	0.16	0.5998	896.89	0.14
313.15	0.12	0.6999	890.28	0.15
313.15	0.0801	0.8	882.98	0.15
313.15	0.04	0.8999	874.78	0.15
313.15	0.5401	0.0998	966.79	0.16
313.15	0.4801	0.1999	959.54	0.16
313.15	0.4192	0.2993	951.46	0.15
313.15	0.359	0.4017	942.92	0.15
313.15	0.3	0.4999	933.54	0.14
313.15	0.24	0.5999	923	0.14
313.15	0.1789	0.702	911.08	0.14
313.15	0.1201	0.8	898.03	0.14
313.15	0.0601	0.9002	883.02	0.15
313.15	0.7201	0.0999	1002.92	0.18
313.15	0.6376	0.2027	993.65	0.17
313.15	0.5598	0.3	983.99	0.16
313.15	0.4801	0.4	972.99	0.15
313.15	0.4	0.5	960.57	0.15
313.15	0.3202	0.6	946.71	0.14
313.15	0.24	0.6999	930.55	0.14
313.15	0.16	0.7999	912.07	0.14
313.15	0.0818	0.8978	891.36	0.15
313.15	0.8101	0.0999	1018.66	0.21
313.15	0.7199	0.2001	1009.06	0.19
313.15	0.63	0.2998	998.39	0.17
313.15	0.54	0.4001	986.43	0.16
313.15	0.4498	0.5	972.85	0.15
313.15	0.36	0.5998	957.43	0.14
313.15	0.2701	0.7	939.7	0.14
313.15	0.18	0.8001	919.02	0.14
313.15	0.0898	0.9003	894.64	0.14
318.15	0.09	0.0999	832.55	0.16
318.15	0.08	0.2	835.36	0.15
318.15	0.0701	0.3001	838.12	0.15
318.15	0.06	0.3999	840.93	0.15
318.15	0.0501	0.4998	843.9	0.15
318.15	0.04	0.5999	846.87	0.15
318.15	0.03	0.7003	849.96	0.15
318.15	0.02	0.8001	853.22	0.15
318.15	0.0101	0.8999	856.64	0.15
318.15	0.1799	0.1002	864.38	0.15
318.15	0.1601	0.2	864.09	0.15
318.15	0.14	0.2999	864	0.15
318.15	0.1199	0.4001	863.65	0.15
318.15	0.1	0.5001	863.24	0.15
318.15	0.08	0.5999	862.82	0.15
318.15	0.0596	0.702	862.22	0.15
318.15	0.04	0.7999	861.58	0.15
318.15	0.02	0.8998	860.78	0.15
318.15	0.3601	0.1	918.3	0.15
318.15	0.3195	0.2006	913.57	0.15
318.15	0.28	0.2999	908.86	0.15
318.15	0.24	0.4	903.53	0.15
318.15	0.1999	0.5	898.03	0.15
318.15	0.16	0.5998	891.81	0.15
318.15	0.12	0.6999	885.09	0.15
318.15	0.0801	0.8	877.66	0.15
318.15	0.04	0.8999	869.32	0.15
318.15	0.5401	0.0998	961.98	0.16
318.15	0.4801	0.1999	954.69	0.16
318.15	0.4192	0.2993	946.55	0.15
318.15	0.359	0.4017	937.94	0.15
318.15	0.3	0.4999	928.49	0.14
318.15	0.24	0.5999	917.88	0.14
318.15	0.1789	0.702	905.86	0.14
318.15	0.1201	0.8	892.7	0.14
318.15	0.0601	0.9002	877.56	0.15
318.15	0.7201	0.0999	998.04	0.18
318.15	0.6376	0.2027	988.73	0.17
318.15	0.5598	0.3	979.02	0.16
318.15	0.4801	0.4	967.97	0.15
318.15	0.4	0.5	955.48	0.15
318.15	0.3202	0.6	941.56	0.14
318.15	0.24	0.6999	925.31	0.14
318.15	0.16	0.7999	906.73	0.14
318.15	0.0818	0.8978	885.9	0.15
318.15	0.8101	0.0999	1013.76	0.21
318.15	0.7199	0.2001	1004.12	0.18
318.15	0.63	0.2998	993.4	0.17
318.15	0.54	0.4001	981.39	0.16
318.15	0.4498	0.5	967.75	0.15
318.15	0.36	0.5998	952.26	0.14
318.15	0.2701	0.7	934.45	0.14
318.15	0.18	0.8001	913.67	0.14
318.15	0.0898	0.9003	889.18	0.14
323.15	0.09	0.0999	828.2	0.16
323.15	0.08	0.2	830.89	0.16
323.15	0.0701	0.3001	833.52	0.16
323.15	0.06	0.3999	836.19	0.16
323.15	0.0501	0.4998	839.03	0.15
323.15	0.04	0.5999	841.85	0.15
323.15	0.03	0.7003	844.79	0.15
323.15	0.02	0.8001	847.89	0.15
323.15	0.0101	0.8999	851.15	0.15
323.15	0.1799	0.1002	859.88	0.15
323.15	0.1601	0.2	859.49	0.15
323.15	0.14	0.2999	859.3	0.15
323.15	0.1199	0.4001	858.84	0.15
323.15	0.1	0.5001	858.3	0.15
323.15	0.08	0.5999	857.76	0.15
323.15	0.0596	0.702	857.03	0.15
323.15	0.04	0.7999	856.24	0.15
323.15	0.02	0.8998	855.29	0.15
323.15	0.3601	0.1	913.6	0.16
323.15	0.3195	0.2006	907.78	0.15
323.15	0.28	0.2999	904.02	0.15
323.15	0.24	0.4	898.6	0.15
323.15	0.1999	0.5	893.01	0.15
323.15	0.16	0.5998	886.69	0.15
323.15	0.12	0.6999	879.86	0.15
323.15	0.0801	0.8	872.31	0.15
323.15	0.04	0.8999	863.83	0.15
323.15	0.5401	0.0998	956.87	0.16
323.15	0.4801	0.1999	949.81	0.16
323.15	0.4192	0.2993	941.62	0.15
323.15	0.359	0.4017	932.95	0.15
323.15	0.3	0.4999	923.42	0.15
323.15	0.24	0.5999	912.72	0.15
323.15	0.1789	0.702	900.6	0.14
323.15	0.1201	0.8	887.33	0.15
323.15	0.0601	0.9002	872.06	0.15
323.15	0.7201	0.0999	993.15	0.18
323.15	0.6376	0.2027	983.17	0.17
323.15	0.5598	0.3	974.04	0.16
323.15	0.4801	0.4	962.93	0.16
323.15	0.4	0.5	950.38	0.15
323.15	0.3202	0.6	936.38	0.15
323.15	0.24	0.6999	920.04	0.14
323.15	0.16	0.7999	901.36	0.14
323.15	0.0818	0.8978	880.12	0.15
323.15	0.8101	0.0999	1008.85	0.2
323.15	0.7199	0.2001	999.16	0.18
323.15	0.63	0.2998	988.4	0.17
323.15	0.54	0.4001	976.34	0.16
323.15	0.4498	0.5	962.64	0.15
323.15	0.36	0.5998	946.17	0.14
323.15	0.2701	0.7	929.18	0.14
323.15	0.18	0.8001	907.85	0.14
323.15	0.0898	0.9003	883.53	0.15

System: butan-1-ol + tetrahydrofuran + dimethyl 1,6-hexanedioate; phases: Liquid
Fixed: Pressure, kPa = 101
Property: Refractive index (Na D-line) (Liquid); method: Standard Abbe refractometry
Temperature, K	Mole fraction of dimethyl 1,6-hexanedioate	Mole fraction of tetrahydrofuran	Refractive index (Na D-line)	uncertainty
288.15	0.09	0.0999	1.4061	0.0003
288.15	0.08	0.2	1.4065	0.0003
288.15	0.0701	0.3001	1.4069	0.0003
288.15	0.06	0.3999	1.4072	0.0003
288.15	0.0501	0.4998	1.4076	0.0003
288.15	0.04	0.5999	1.408	0.0003
288.15	0.03	0.7003	1.4082	0.0003
288.15	0.02	0.8001	1.4088	0.0003
288.15	0.0101	0.8999	1.4093	0.0003
288.15	0.1799	0.1002	1.4098	0.0003
288.15	0.1601	0.2	1.4098	0.0003
288.15	0.14	0.2999	1.4099	0.0003
288.15	0.1199	0.4001	1.4099	0.0003
288.15	0.1	0.5001	1.4099	0.0003
288.15	0.08	0.5999	1.4099	0.0003
288.15	0.0596	0.702	1.4099	0.0003
288.15	0.04	0.7999	1.4099	0.0003
288.15	0.02	0.8998	1.4098	0.0003
288.15	0.3601	0.1	1.4162	0.0003
288.15	0.3195	0.2006	1.4156	0.0003
288.15	0.28	0.2999	1.4152	0.0003
288.15	0.24	0.4	1.4146	0.0003
288.15	0.1999	0.5	1.4141	0.0003
288.15	0.16	0.5998	1.4134	0.0003
288.15	0.12	0.6999	1.4127	0.0003
288.15	0.0801	0.8	1.4118	0.0003
288.15	0.04	0.8999	1.4108	0.0003
288.15	0.5401	0.0998	1.4213	0.0004
288.15	0.4801	0.1999	1.4207	0.0003
288.15	0.4192	0.2993	1.4197	0.0003
288.15	0.359	0.4017	1.4189	0.0003
288.15	0.3	0.4999	1.4178	0.0003
288.15	0.24	0.5999	1.4165	0.0003
288.15	0.1789	0.702	1.4152	0.0003
288.15	0.1201	0.8	1.4137	0.0003
288.15	0.0601	0.9002	1.4119	0.0003
288.15	0.7201	0.0999	1.4257	0.0004
288.15	0.6376	0.2027	1.4247	0.0004
288.15	0.5598	0.3	1.4237	0.0004
288.15	0.4801	0.4	1.4224	0.0003
288.15	0.4	0.5	1.421	0.0003
288.15	0.3202	0.6	1.4194	0.0003
288.15	0.24	0.6999	1.4175	0.0003
288.15	0.16	0.7999	1.4154	0.0003
288.15	0.0818	0.8978	1.4129	0.0003
288.15	0.8101	0.0999	1.4276	0.0004
288.15	0.7199	0.2001	1.4266	0.0004
288.15	0.63	0.2998	1.4254	0.0004
288.15	0.54	0.4001	1.424	0.0004
288.15	0.4498	0.5	1.4225	0.0003
288.15	0.36	0.5998	1.4207	0.0003
288.15	0.2701	0.7	1.4187	0.0003
288.15	0.18	0.8001	1.4163	0.0003
288.15	0.0898	0.9003	1.4132	0.0003
293.15	0.09	0.0999	1.404	0.0003
293.15	0.08	0.2	1.4043	0.0003
293.15	0.0701	0.3001	1.4046	0.0003
293.15	0.06	0.3999	1.4049	0.0003
293.15	0.0501	0.4998	1.4053	0.0003
293.15	0.04	0.5999	1.4056	0.0003
293.15	0.03	0.7003	1.4057	0.0003
293.15	0.02	0.8001	1.4063	0.0003
293.15	0.0101	0.8999	1.4067	0.0003
293.15	0.1799	0.1002	1.4076	0.0003
293.15	0.1601	0.2	1.4076	0.0003
293.15	0.14	0.2999	1.4077	0.0003
293.15	0.1199	0.4001	1.4077	0.0003
293.15	0.1	0.5001	1.4076	0.0003
293.15	0.08	0.5999	1.4075	0.0003
293.15	0.0596	0.702	1.4074	0.0003
293.15	0.04	0.7999	1.4074	0.0003
293.15	0.02	0.8998	1.4072	0.0003
293.15	0.3601	0.1	1.4141	0.0003
293.15	0.3195	0.2006	1.4134	0.0003
293.15	0.28	0.2999	1.413	0.0003
293.15	0.24	0.4	1.4124	0.0003
293.15	0.1999	0.5	1.4118	0.0003
293.15	0.16	0.5998	1.4111	0.0003
293.15	0.12	0.6999	1.4102	0.0003
293.15	0.0801	0.8	1.4093	0.0003
293.15	0.04	0.8999	1.4083	0.0003
293.15	0.5401	0.0998	1.4191	0.0004
293.15	0.4801	0.1999	1.4185	0.0003
293.15	0.4192	0.2993	1.4175	0.0003
293.15	0.359	0.4017	1.4166	0.0003
293.15	0.3	0.4999	1.4155	0.0003
293.15	0.24	0.5999	1.4142	0.0003
293.15	0.1789	0.702	1.4128	0.0003
293.15	0.1201	0.8	1.4112	0.0003
293.15	0.0601	0.9002	1.4094	0.0003
293.15	0.7201	0.0999	1.4236	0.0004
293.15	0.6376	0.2027	1.4225	0.0004
293.15	0.5598	0.3	1.4215	0.0004
293.15	0.4801	0.4	1.4202	0.0003
293.15	0.4	0.5	1.4188	0.0003
293.15	0.3202	0.6	1.4171	0.0003
293.15	0.24	0.6999	1.4152	0.0003
293.15	0.16	0.7999	1.4129	0.0003
293.15	0.0818	0.8978	1.4104	0.0003
293.15	0.8101	0.0999	1.4255	0.0004
293.15	0.7199	0.2001	1.4244	0.0004
293.15	0.63	0.2998	1.4232	0.0004
293.15	0.54	0.4001	1.4218	0.0004
293.15	0.4498	0.5	1.4202	0.0003
293.15	0.36	0.5998	1.4184	0.0003
293.15	0.2701	0.7	1.4163	0.0003
293.15	0.18	0.8001	1.4138	0.0003
293.15	0.0898	0.9003	1.4107	0.0003
298.15	0.09	0.0999	1.4018	0.0003
298.15	0.08	0.2	1.4021	0.0003
298.15	0.0701	0.3001	1.4024	0.0003
298.15	0.06	0.3999	1.4027	0.0003
298.15	0.0501	0.4998	1.4029	0.0003
298.15	0.04	0.5999	1.4032	0.0003
298.15	0.03	0.7003	1.4033	0.0003
298.15	0.02	0.8001	1.4038	0.0003
298.15	0.0101	0.8999	1.4041	0.0003
298.15	0.1799	0.1002	1.4055	0.0003
298.15	0.1601	0.2	1.4054	0.0003
298.15	0.14	0.2999	1.4055	0.0003
298.15	0.1199	0.4001	1.4054	0.0003
298.15	0.1	0.5001	1.4052	0.0003
298.15	0.08	0.5999	1.4051	0.0003
298.15	0.0596	0.702	1.4049	0.0003
298.15	0.04	0.7999	1.4048	0.0003
298.15	0.02	0.8998	1.4046	0.0003
298.15	0.3601	0.1	1.4119	0.0003
298.15	0.3195	0.2006	1.4112	0.0003
298.15	0.28	0.2999	1.4108	0.0003
298.15	0.24	0.4	1.4101	0.0003
298.15	0.1999	0.5	1.4095	0.0003
298.15	0.16	0.5998	1.4087	0.0003
298.15	0.12	0.6999	1.4078	0.0003
298.15	0.0801	0.8	1.4068	0.0003
298.15	0.04	0.8999	1.4057	0.0003
298.15	0.5401	0.0998	1.417	0.0004
298.15	0.4801	0.1999	1.4163	0.0003
298.15	0.4192	0.2993	1.4153	0.0003
298.15	0.359	0.4017	1.4144	0.0003
298.15	0.3	0.4999	1.4132	0.0003
298.15	0.24	0.5999	1.4118	0.0003
298.15	0.1789	0.702	1.4104	0.0003
298.15	0.1201	0.8	1.4087	0.0003
298.15	0.0601	0.9002	1.4068	0.0003
298.15	0.7201	0.0999	1.4215	0.0004
298.15	0.6376	0.2027	1.4204	0.0004
298.15	0.5598	0.3	1.4193	0.0004
298.15	0.4801	0.4	1.418	0.0003
298.15	0.4	0.5	1.4165	0.0003
298.15	0.3202	0.6	1.4147	0.0003
298.15	0.24	0.6999	1.4128	0.0003
298.15	0.16	0.7999	1.4105	0.0003
298.15	0.0818	0.8978	1.4078	0.0003
298.15	0.8101	0.0999	1.4234	0.0004
298.15	0.7199	0.2001	1.4223	0.0004
298.15	0.63	0.2998	1.421	0.0004
298.15	0.54	0.4001	1.4196	0.0004
298.15	0.4498	0.5	1.418	0.0003
298.15	0.36	0.5998	1.4161	0.0003
298.15	0.2701	0.7	1.414	0.0003
298.15	0.18	0.8001	1.4114	0.0003
298.15	0.0898	0.9003	1.4081	0.0003
303.15	0.09	0.0999	1.3997	0.0003
303.15	0.08	0.2	1.3999	0.0003
303.15	0.0701	0.3001	1.4002	0.0003
303.15	0.06	0.3999	1.4004	0.0003
303.15	0.0501	0.4998	1.4005	0.0003
303.15	0.04	0.5999	1.4008	0.0003
303.15	0.03	0.7003	1.4008	0.0003
303.15	0.02	0.8001	1.4012	0.0003
303.15	0.0101	0.8999	1.4015	0.0003
303.15	0.1799	0.1002	1.4033	0.0003
303.15	0.1601	0.2	1.4032	0.0003
303.15	0.14	0.2999	1.4032	0.0003
303.15	0.1199	0.4001	1.4031	0.0003
303.15	0.1	0.5001	1.4029	0.0003
303.15	0.08	0.5999	1.4027	0.0003
303.15	0.0596	0.702	1.4025	0.0003
303.15	0.04	0.7999	1.4023	0.0003
303.15	0.02	0.8998	1.402	0.0003
303.15	0.3601	0.1	1.4098	0.0003
303.15	0.3195	0.2006	1.409	0.0003
303.15	0.28	0.2999	1.4086	0.0003
303.15	0.24	0.4	1.4078	0.0003
303.15	0.1999	0.5	1.4072	0.0003
303.15	0.16	0.5998	1.4063	0.0003
303.15	0.12	0.6999	1.4053	0.0003
303.15	0.0801	0.8	1.4043	0.0003
303.15	0.04	0.8999	1.4031	0.0003
303.15	0.5401	0.0998	1.4148	0.0004
303.15	0.4801	0.1999	1.4142	0.0003
303.15	0.4192	0.2993	1.4131	0.0003
303.15	0.359	0.4017	1.4121	0.0003
303.15	0.3	0.4999	1.4109	0.0003
303.15	0.24	0.5999	1.4095	0.0003
303.15	0.1789	0.702	1.408	0.0003
303.15	0.1201	0.8	1.4062	0.0003
303.15	0.0601	0.9002	1.4042	0.0003
303.15	0.7201	0.0999	1.4194	0.0004
303.15	0.6376	0.2027	1.4182	0.0004
303.15	0.5598	0.3	1.4171	0.0004
303.15	0.4801	0.4	1.4158	0.0003
303.15	0.4	0.5	1.4142	0.0003
303.15	0.3202	0.6	1.4124	0.0003
303.15	0.24	0.6999	1.4104	0.0003
303.15	0.16	0.7999	1.408	0.0003
303.15	0.0818	0.8978	1.4053	0.0003
303.15	0.8101	0.0999	1.4213	0.0004
303.15	0.7199	0.2001	1.4202	0.0004
303.15	0.63	0.2998	1.4189	0.0004
303.15	0.54	0.4001	1.4174	0.0004
303.15	0.4498	0.5	1.4157	0.0003
303.15	0.36	0.5998	1.4137	0.0003
303.15	0.2701	0.7	1.4116	0.0003
303.15	0.18	0.8001	1.4089	0.0003
303.15	0.0898	0.9003	1.4056	0.0003
308.15	0.09	0.0999	1.3975	0.0003
308.15	0.08	0.2	1.3977	0.0003
308.15	0.0701	0.3001	1.3979	0.0003
308.15	0.06	0.3999	1.398	0.0003
308.15	0.0501	0.4998	1.3982	0.0003
308.15	0.04	0.5999	1.3984	0.0003
308.15	0.03	0.7003	1.3983	0.0003
308.15	0.02	0.8001	1.3986	0.0003
308.15	0.0101	0.8999	1.3988	0.0003
308.15	0.1799	0.1002	1.4012	0.0003
308.15	0.1601	0.2	1.401	0.0003
308.15	0.14	0.2999	1.401	0.0003
308.15	0.1199	0.4001	1.4008	0.0003
308.15	0.1	0.5001	1.4005	0.0003
308.15	0.08	0.5999	1.4003	0.0003
308.15	0.0596	0.702	1.4	0.0003
308.15	0.04	0.7999	1.3997	0.0003
308.15	0.02	0.8998	1.3994	0.0003
308.15	0.3601	0.1	1.4076	0.0003
308.15	0.3195	0.2006	1.4068	0.0003
308.15	0.28	0.2999	1.4063	0.0003
308.15	0.24	0.4	1.4055	0.0003
308.15	0.1999	0.5	1.4048	0.0003
308.15	0.16	0.5998	1.4039	0.0003
308.15	0.12	0.6999	1.4029	0.0003
308.15	0.0801	0.8	1.4018	0.0003
308.15	0.04	0.8999	1.4005	0.0003
308.15	0.5401	0.0998	1.4127	0.0004
308.15	0.4801	0.1999	1.412	0.0003
308.15	0.4192	0.2993	1.4109	0.0003
308.15	0.359	0.4017	1.4098	0.0003
308.15	0.3	0.4999	1.4086	0.0003
308.15	0.24	0.5999	1.4071	0.0003
308.15	0.1789	0.702	1.4055	0.0003
308.15	0.1201	0.8	1.4037	0.0003
308.15	0.0601	0.9002	1.4016	0.0003
308.15	0.7201	0.0999	1.4173	0.0004
308.15	0.6376	0.2027	1.4161	0.0004
308.15	0.5598	0.3	1.4149	0.0004
308.15	0.4801	0.4	1.4135	0.0003
308.15	0.4	0.5	1.4119	0.0003
308.15	0.3202	0.6	1.4101	0.0003
308.15	0.24	0.6999	1.408	0.0003
308.15	0.16	0.7999	1.4055	0.0003
308.15	0.0818	0.8978	1.4027	0.0003
308.15	0.8101	0.0999	1.4192	0.0004
308.15	0.7199	0.2001	1.418	0.0004
308.15	0.63	0.2998	1.4167	0.0004
308.15	0.54	0.4001	1.4152	0.0004
308.15	0.4498	0.5	1.4135	0.0003
308.15	0.36	0.5998	1.4114	0.0003
308.15	0.2701	0.7	1.4092	0.0003
308.15	0.18	0.8001	1.4064	0.0003
308.15	0.0898	0.9003	1.403	0.0003
313.15	0.09	0.0999	1.3954	0.0003
313.15	0.08	0.2	1.3955	0.0003
313.15	0.0701	0.3001	1.3956	0.0003
313.15	0.06	0.3999	1.3957	0.0003
313.15	0.0501	0.4998	1.3958	0.0003
313.15	0.04	0.5999	1.3959	0.0003
313.15	0.03	0.7003	1.3958	0.0003
313.15	0.02	0.8001	1.396	0.0003
313.15	0.0101	0.8999	1.3962	0.0003
313.15	0.1799	0.1002	1.399	0.0003
313.15	0.1601	0.2	1.3988	0.0003
313.15	0.14	0.2999	1.3987	0.0003
313.15	0.1199	0.4001	1.3984	0.0003
313.15	0.1	0.5001	1.3981	0.0003
313.15	0.08	0.5999	1.3978	0.0003
313.15	0.0596	0.702	1.3975	0.0003
313.15	0.04	0.7999	1.3972	0.0003
313.15	0.02	0.8998	1.3967	0.0003
313.15	0.3601	0.1	1.4054	0.0003
313.15	0.3195	0.2006	1.4046	0.0003
313.15	0.28	0.2999	1.404	0.0003
313.15	0.24	0.4	1.4032	0.0003
313.15	0.1999	0.5	1.4025	0.0003
313.15	0.16	0.5998	1.4015	0.0003
313.15	0.12	0.6999	1.4004	0.0003
313.15	0.0801	0.8	1.3992	0.0003
313.15	0.04	0.8999	1.3978	0.0003
313.15	0.5401	0.0998	1.4105	0.0004
313.15	0.4801	0.1999	1.4098	0.0003
313.15	0.4192	0.2993	1.4086	0.0003
313.15	0.359	0.4017	1.4075	0.0003
313.15	0.3	0.4999	1.4062	0.0003
313.15	0.24	0.5999	1.4047	0.0003
313.15	0.1789	0.702	1.4031	0.0003
313.15	0.1201	0.8	1.4012	0.0003
313.15	0.0601	0.9002	1.399	0.0003
313.15	0.7201	0.0999	1.4151	0.0004
313.15	0.6376	0.2027	1.4139	0.0004
313.15	0.5598	0.3	1.4127	0.0004
313.15	0.4801	0.4	1.4113	0.0003
313.15	0.4	0.5	1.4096	0.0003
313.15	0.3202	0.6	1.4077	0.0003
313.15	0.24	0.6999	1.4055	0.0003
313.15	0.16	0.7999	1.403	0.0003
313.15	0.0818	0.8978	1.4001	0.0003
313.15	0.8101	0.0999	1.4171	0.0004
313.15	0.7199	0.2001	1.4159	0.0004
313.15	0.63	0.2998	1.4145	0.0004
313.15	0.54	0.4001	1.4129	0.0004
313.15	0.4498	0.5	1.4112	0.0003
313.15	0.36	0.5998	1.4091	0.0003
313.15	0.2701	0.7	1.4068	0.0003
313.15	0.18	0.8001	1.4039	0.0003
313.15	0.0898	0.9003	1.4004	0.0003
318.15	0.09	0.0999	1.3932	0.0003
318.15	0.08	0.2	1.3933	0.0003
318.15	0.0701	0.3001	1.3933	0.0003
318.15	0.06	0.3999	1.3934	0.0003
318.15	0.0501	0.4998	1.3934	0.0003
318.15	0.04	0.5999	1.3934	0.0003
318.15	0.03	0.7003	1.3934	0.0003
318.15	0.02	0.8001	1.3934	0.0003
318.15	0.0101	0.8999	1.3935	0.0003
318.15	0.1799	0.1002	1.3968	0.0003
318.15	0.1601	0.2	1.3966	0.0003
318.15	0.14	0.2999	1.3964	0.0003
318.15	0.1199	0.4001	1.3961	0.0003
318.15	0.1	0.5001	1.3957	0.0003
318.15	0.08	0.5999	1.3954	0.0003
318.15	0.0596	0.702	1.395	0.0003
318.15	0.04	0.7999	1.3946	0.0003
318.15	0.02	0.8998	1.3941	0.0003
318.15	0.3601	0.1	1.4033	0.0003
318.15	0.3195	0.2006	1.4024	0.0003
318.15	0.28	0.2999	1.4018	0.0003
318.15	0.24	0.4	1.4009	0.0003
318.15	0.1999	0.5	1.4001	0.0003
318.15	0.16	0.5998	1.399	0.0003
318.15	0.12	0.6999	1.3979	0.0003
318.15	0.0801	0.8	1.3966	0.0003
318.15	0.04	0.8999	1.3952	0.0003
318.15	0.5401	0.0998	1.4084	0.0004
318.15	0.4801	0.1999	1.4076	0.0003
318.15	0.4192	0.2993	1.4064	0.0003
318.15	0.359	0.4017	1.4052	0.0003
318.15	0.3	0.4999	1.4039	0.0003
318.15	0.24	0.5999	1.4023	0.0003
318.15	0.1789	0.702	1.4006	0.0003
318.15	0.1201	0.8	1.3987	0.0003
318.15	0.0601	0.9002	1.3964	0.0003
318.15	0.7201	0.0999	1.4131	0.0004
318.15	0.6376	0.2027	1.4117	0.0004
318.15	0.5598	0.3	1.4105	0.0004
318.15	0.4801	0.4	1.409	0.0003
318.15	0.4	0.5	1.4073	0.0003
318.15	0.3202	0.6	1.4053	0.0003
318.15	0.24	0.6999	1.4031	0.0003
318.15	0.16	0.7999	1.4004	0.0003
318.15	0.0818	0.8978	1.3975	0.0003
318.15	0.8101	0.0999	1.415	0.0004
318.15	0.7199	0.2001	1.4137	0.0004
318.15	0.63	0.2998	1.4123	0.0004
318.15	0.54	0.4001	1.4107	0.0004
318.15	0.4498	0.5	1.4089	0.0003
318.15	0.36	0.5998	1.4067	0.0003
318.15	0.2701	0.7	1.4043	0.0003
318.15	0.18	0.8001	1.4014	0.0003
318.15	0.0898	0.9003	1.3978	0.0003
323.15	0.09	0.0999	1.3911	0.0003
323.15	0.08	0.2	1.3911	0.0003
323.15	0.0701	0.3001	1.3911	0.0003
323.15	0.06	0.3999	1.391	0.0003
323.15	0.0501	0.4998	1.391	0.0003
323.15	0.04	0.5999	1.3909	0.0003
323.15	0.03	0.7003	1.3909	0.0003
323.15	0.02	0.8001	1.3909	0.0003
323.15	0.0101	0.8999	1.3908	0.0003
323.15	0.1799	0.1002	1.3947	0.0003
323.15	0.1601	0.2	1.3943	0.0003
323.15	0.14	0.2999	1.3941	0.0003
323.15	0.1199	0.4001	1.3937	0.0003
323.15	0.1	0.5001	1.3933	0.0003
323.15	0.08	0.5999	1.3929	0.0003
323.15	0.0596	0.702	1.3924	0.0003
323.15	0.04	0.7999	1.392	0.0003
323.15	0.02	0.8998	1.3914	0.0003
323.15	0.3601	0.1	1.4011	0.0003
323.15	0.3195	0.2006	1.4002	0.0003
323.15	0.28	0.2999	1.3995	0.0003
323.15	0.24	0.4	1.3986	0.0003
323.15	0.1999	0.5	1.3977	0.0003
323.15	0.16	0.5998	1.3966	0.0003
323.15	0.12	0.6999	1.3954	0.0003
323.15	0.0801	0.8	1.394	0.0003
323.15	0.04	0.8999	1.3925	0.0003
323.15	0.5401	0.0998	1.4063	0.0004
323.15	0.4801	0.1999	1.4054	0.0003
323.15	0.4192	0.2993	1.4041	0.0003
323.15	0.359	0.4017	1.4029	0.0003
323.15	0.3	0.4999	1.4015	0.0003
323.15	0.24	0.5999	1.3999	0.0003
323.15	0.1789	0.702	1.3981	0.0003
323.15	0.1201	0.8	1.3961	0.0003
323.15	0.0601	0.9002	1.3937	0.0003
323.15	0.7201	0.0999	1.411	0.0004
323.15	0.6376	0.2027	1.4096	0.0004
323.15	0.5598	0.3	1.4083	0.0004
323.15	0.4801	0.4	1.4068	0.0003
323.15	0.4	0.5	1.405	0.0003
323.15	0.3202	0.6	1.403	0.0003
323.15	0.24	0.6999	1.4006	0.0003
323.15	0.16	0.7999	1.3979	0.0003
323.15	0.0818	0.8978	1.3948	0.0003
323.15	0.8101	0.0999	1.4129	0.0004
323.15	0.7199	0.2001	1.4116	0.0004
323.15	0.63	0.2998	1.4101	0.0004
323.15	0.54	0.4001	1.4085	0.0004
323.15	0.4498	0.5	1.4066	0.0003
323.15	0.36	0.5998	1.4044	0.0003
323.15	0.2701	0.7	1.4019	0.0003
323.15	0.18	0.8001	1.3989	0.0003
323.15	0.0898	0.9003	1.3952	0.0003

System: butan-1-ol + tetrahydrofuran + dimethyl 1,6-hexanedioate; phases: Liquid
Fixed: Pressure, kPa = 101
Property: Viscosity, Pa*s (Liquid); method: CONCYL:UFactor:2
Temperature, K	Mole fraction of dimethyl 1,6-hexanedioate	Mole fraction of tetrahydrofuran	Viscosity, Pa*s	uncertainty
288.15	0.0101	0.8999	0.000583	1.1e-05
293.15	0.0101	0.8999	0.000557	1.1e-05
298.15	0.0101	0.8999	0.000531	1.1e-05
303.15	0.0101	0.8999	0.000506	1.1e-05
308.15	0.0101	0.8999	0.000481	1.1e-05
313.15	0.0101	0.8999	0.000455	1.1e-05
318.15	0.0101	0.8999	0.000429	1e-05
323.15	0.0101	0.8999	0.000367	1e-05
288.15	0.02	0.8998	0.000593	1.2e-05
293.15	0.02	0.8001	0.000623	1.2e-05
293.15	0.02	0.8998	0.000566	1.1e-05
288.15	0.02	0.8001	0.000656	1.2e-05
298.15	0.02	0.8001	0.00059	1.2e-05
298.15	0.02	0.8998	0.000539	1.1e-05
303.15	0.02	0.8998	0.000514	1.1e-05
303.15	0.02	0.8001	0.00056	1.1e-05
308.15	0.02	0.8998	0.000488	1.1e-05
308.15	0.02	0.8001	0.00053	1.1e-05
313.15	0.02	0.8001	0.000501	1.1e-05
313.15	0.02	0.8998	0.000462	1.1e-05
318.15	0.02	0.8001	0.000472	1.1e-05
318.15	0.02	0.8998	0.000436	1.1e-05
323.15	0.02	0.8998	0.000389	1e-05
323.15	0.02	0.8001	0.000427	1e-05
293.15	0.03	0.7003	0.000705	1.2e-05
298.15	0.03	0.7003	0.000667	1.2e-05
303.15	0.03	0.7003	0.00063	1.2e-05
288.15	0.03	0.7003	0.000748	1.3e-05
308.15	0.03	0.7003	0.000595	1.2e-05
313.15	0.03	0.7003	0.000559	1.1e-05
318.15	0.03	0.7003	0.000528	1.1e-05
323.15	0.03	0.7003	0.000501	1.1e-05
293.15	0.04	0.5999	0.000804	1.3e-05
293.15	0.04	0.7999	0.000644	1.2e-05
293.15	0.04	0.8999	0.000589	1.2e-05
298.15	0.04	0.5999	0.000754	1.3e-05
298.15	0.04	0.7999	0.00061	1.2e-05
298.15	0.04	0.8999	0.000561	1.1e-05
303.15	0.04	0.5999	0.000708	1.2e-05
303.15	0.04	0.7999	0.000579	1.1e-05
303.15	0.04	0.8999	0.000534	1.1e-05
288.15	0.04	0.8999	0.000617	1.2e-05
308.15	0.04	0.5999	0.000665	1.2e-05
308.15	0.04	0.7999	0.000548	1.1e-05
308.15	0.04	0.8999	0.000508	1.1e-05
288.15	0.04	0.7999	0.00068	1.2e-05
313.15	0.04	0.5999	0.000624	1.2e-05
313.15	0.04	0.7999	0.000519	1.1e-05
313.15	0.04	0.8999	0.000482	1.1e-05
288.15	0.04	0.5999	0.000858	1.3e-05
318.15	0.04	0.5999	0.000586	1.1e-05
318.15	0.04	0.7999	0.000489	1.1e-05
318.15	0.04	0.8999	0.000455	1.1e-05
323.15	0.04	0.7999	0.000463	1.1e-05
323.15	0.04	0.8999	0.000414	1e-05
323.15	0.04	0.5999	0.000553	1.1e-05
298.15	0.0501	0.4998	0.000865	1.3e-05
303.15	0.0501	0.4998	0.000807	1.3e-05
308.15	0.0501	0.4998	0.000754	1.3e-05
313.15	0.0501	0.4998	0.000705	1.2e-05
318.15	0.0501	0.4998	0.00066	1.2e-05
323.15	0.0501	0.4998	0.000622	1.2e-05
293.15	0.0501	0.4998	0.000929	1.4e-05
288.15	0.0501	0.4998	0.000999	1.4e-05
298.15	0.0596	0.702	0.000691	1.2e-05
288.15	0.0596	0.702	0.000777	1.3e-05
303.15	0.0596	0.702	0.000652	1.2e-05
308.15	0.0596	0.702	0.000615	1.2e-05
313.15	0.0596	0.702	0.00058	1.1e-05
318.15	0.0596	0.702	0.000547	1.1e-05
323.15	0.0596	0.702	0.000519	1.1e-05
293.15	0.0596	0.702	0.000733	1.2e-05
298.15	0.06	0.3999	0.001001	1.4e-05
303.15	0.06	0.3999	0.000928	1.4e-05
293.15	0.06	0.3999	0.001083	1.5e-05
288.15	0.06	0.3999	0.001174	1.5e-05
308.15	0.06	0.3999	0.000861	1.3e-05
313.15	0.06	0.3999	0.000801	1.3e-05
318.15	0.06	0.3999	0.000745	1.3e-05
323.15	0.06	0.3999	0.000702	1.2e-05
298.15	0.0601	0.9002	0.000581	1.1e-05
303.15	0.0601	0.9002	0.000552	1.1e-05
308.15	0.0601	0.9002	0.000523	1.1e-05
293.15	0.0601	0.9002	0.000611	1.2e-05
313.15	0.0601	0.9002	0.000495	1.1e-05
288.15	0.0601	0.9002	0.000642	1.2e-05
318.15	0.0601	0.9002	0.000468	1.1e-05
323.15	0.0601	0.9002	0.000434	1.1e-05
288.15	0.0701	0.3001	0.001403	1.7e-05
298.15	0.0701	0.3001	0.001174	1.5e-05
303.15	0.0701	0.3001	0.00108	1.5e-05
308.15	0.0701	0.3001	0.000996	1.4e-05
313.15	0.0701	0.3001	0.000919	1.4e-05
318.15	0.0701	0.3001	0.000851	1.3e-05
323.15	0.0701	0.3001	0.000796	1.3e-05
293.15	0.0701	0.3001	0.001281	1.6e-05
288.15	0.08	0.5999	0.000899	1.4e-05
298.15	0.08	0.2	0.001405	1.7e-05
298.15	0.08	0.5999	0.000787	1.3e-05
288.15	0.08	0.2	0.001705	1.9e-05
303.15	0.08	0.2	0.001283	1.6e-05
303.15	0.08	0.5999	0.00074	1.3e-05
308.15	0.08	0.2	0.001178	1.5e-05
308.15	0.08	0.5999	0.000694	1.2e-05
313.15	0.08	0.2	0.001084	1.5e-05
313.15	0.08	0.5999	0.000652	1.2e-05
318.15	0.08	0.5999	0.000613	1.2e-05
318.15	0.08	0.2	0.001001	1.4e-05
293.15	0.08	0.5999	0.000841	1.3e-05
293.15	0.08	0.2	0.001544	1.8e-05
323.15	0.08	0.2	0.000934	1.4e-05
323.15	0.08	0.5999	0.00058	1.1e-05
288.15	0.0801	0.8	0.000726	1.2e-05
303.15	0.0801	0.8	0.000616	1.2e-05
308.15	0.0801	0.8	0.000583	1.1e-05
313.15	0.0801	0.8	0.000552	1.1e-05
318.15	0.0801	0.8	0.000523	1.1e-05
298.15	0.0801	0.8	0.00065	1.2e-05
293.15	0.0801	0.8	0.000687	1.2e-05
323.15	0.0801	0.8	0.00049	1.1e-05
293.15	0.0818	0.8978	0.000635	1.2e-05
303.15	0.0818	0.8978	0.000573	1.1e-05
288.15	0.0818	0.8978	0.000669	1.2e-05
308.15	0.0818	0.8978	0.000543	1.1e-05
313.15	0.0818	0.8978	0.000513	1.1e-05
318.15	0.0818	0.8978	0.000485	1.1e-05
323.15	0.0818	0.8978	0.000451	1.1e-05
298.15	0.0818	0.8978	0.000603	1.2e-05
303.15	0.0898	0.9003	0.000593	1.2e-05
293.15	0.0898	0.9003	0.000657	1.2e-05
308.15	0.0898	0.9003	0.000565	1.1e-05
288.15	0.0898	0.9003	0.000691	1.2e-05
313.15	0.0898	0.9003	0.000535	1.1e-05
318.15	0.0898	0.9003	0.000507	1.1e-05
323.15	0.0898	0.9003	0.000465	1.1e-05
298.15	0.0898	0.9003	0.000624	1.2e-05
303.15	0.09	0.0999	0.001516	1.8e-05
298.15	0.09	0.0999	0.001678	1.9e-05
308.15	0.09	0.0999	0.001373	1.7e-05
293.15	0.09	0.0999	0.001871	2e-05
288.15	0.09	0.0999	0.002095	2.2e-05
313.15	0.09	0.0999	0.001248	1.6e-05
318.15	0.09	0.0999	0.001139	1.5e-05
323.15	0.09	0.0999	0.001056	1.5e-05
303.15	0.1	0.5001	0.000841	1.3e-05
298.15	0.1	0.5001	0.000901	1.4e-05
308.15	0.1	0.5001	0.000786	1.3e-05
288.15	0.1	0.5001	0.001043	1.5e-05
313.15	0.1	0.5001	0.000735	1.2e-05
293.15	0.1	0.5001	0.000969	1.4e-05
318.15	0.1	0.5001	0.000687	1.2e-05
323.15	0.1	0.5001	0.00065	1.2e-05
303.15	0.1199	0.4001	0.000962	1.4e-05
298.15	0.1199	0.4001	0.001038	1.4e-05
308.15	0.1199	0.4001	0.000894	1.4e-05
288.15	0.1199	0.4001	0.001219	1.6e-05
313.15	0.1199	0.4001	0.000831	1.3e-05
293.15	0.1199	0.4001	0.001123	1.5e-05
318.15	0.1199	0.4001	0.000775	1.3e-05
323.15	0.1199	0.4001	0.000731	1.2e-05
303.15	0.12	0.6999	0.000707	1.2e-05
308.15	0.12	0.6999	0.000666	1.2e-05
298.15	0.12	0.6999	0.000751	1.3e-05
313.15	0.12	0.6999	0.000628	1.2e-05
318.15	0.12	0.6999	0.000592	1.2e-05
288.15	0.12	0.6999	0.000849	1.3e-05
293.15	0.12	0.6999	0.000798	1.3e-05
323.15	0.12	0.6999	0.000561	1.1e-05
308.15	0.1201	0.8	0.000621	1.2e-05
303.15	0.1201	0.8	0.000656	1.2e-05
313.15	0.1201	0.8	0.000587	1.2e-05
298.15	0.1201	0.8	0.000693	1.2e-05
288.15	0.1201	0.8	0.000777	1.3e-05
318.15	0.1201	0.8	0.000554	1.1e-05
323.15	0.1201	0.8	0.000524	1.1e-05
293.15	0.1201	0.8	0.000734	1.2e-05
308.15	0.14	0.2999	0.00102	1.4e-05
313.15	0.14	0.2999	0.000943	1.4e-05
303.15	0.14	0.2999	0.001106	1.5e-05
318.15	0.14	0.2999	0.000875	1.3e-05
288.15	0.14	0.2999	0.001433	1.7e-05
293.15	0.14	0.2999	0.00131	1.6e-05
298.15	0.14	0.2999	0.0012	1.6e-05
323.15	0.14	0.2999	0.000834	1.3e-05
298.15	0.16	0.7999	0.000737	1.3e-05
288.15	0.16	0.5998	0.000989	1.4e-05
308.15	0.16	0.5998	0.000757	1.3e-05
308.15	0.16	0.7999	0.000656	1.2e-05
293.15	0.16	0.5998	0.000923	1.4e-05
313.15	0.16	0.5998	0.00071	1.2e-05
313.15	0.16	0.7999	0.000619	1.2e-05
318.15	0.16	0.5998	0.000666	1.2e-05
318.15	0.16	0.7999	0.000584	1.2e-05
303.15	0.16	0.5998	0.000808	1.3e-05
303.15	0.16	0.7999	0.000696	1.2e-05
293.15	0.16	0.7999	0.000782	1.3e-05
298.15	0.16	0.5998	0.000862	1.3e-05
323.15	0.16	0.5998	0.000628	1.2e-05
288.15	0.16	0.7999	0.000829	1.3e-05
323.15	0.16	0.7999	0.000553	1.1e-05
308.15	0.1601	0.2	0.001164	1.5e-05
293.15	0.1601	0.2	0.001531	1.8e-05
298.15	0.1601	0.2	0.001391	1.7e-05
303.15	0.1601	0.2	0.001268	1.6e-05
313.15	0.1601	0.2	0.00107	1.5e-05
288.15	0.1601	0.2	0.001692	1.9e-05
318.15	0.1601	0.2	0.000986	1.4e-05
323.15	0.1601	0.2	0.000921	1.4e-05
308.15	0.1789	0.702	0.000728	1.2e-05
313.15	0.1789	0.702	0.000685	1.2e-05
288.15	0.1789	0.702	0.000932	1.4e-05
293.15	0.1789	0.702	0.000874	1.3e-05
303.15	0.1789	0.702	0.000772	1.3e-05
298.15	0.1789	0.702	0.000822	1.3e-05
318.15	0.1789	0.702	0.000646	1.2e-05
323.15	0.1789	0.702	0.000613	1.2e-05
308.15	0.1799	0.1002	0.001341	1.7e-05
288.15	0.1799	0.1002	0.00202	2.1e-05
313.15	0.1799	0.1002	0.001225	1.6e-05
293.15	0.1799	0.1002	0.001808	2e-05
318.15	0.1799	0.1002	0.001121	1.5e-05
303.15	0.1799	0.1002	0.001475	1.7e-05
298.15	0.1799	0.1002	0.001628	1.8e-05
323.15	0.1799	0.1002	0.001043	1.5e-05
308.15	0.18	0.8001	0.000684	1.2e-05
313.15	0.18	0.8001	0.000646	1.2e-05
318.15	0.18	0.8001	0.000611	1.2e-05
303.15	0.18	0.8001	0.000724	1.2e-05
288.15	0.18	0.8001	0.000864	1.3e-05
323.15	0.18	0.8001	0.000579	1.1e-05
298.15	0.18	0.8001	0.000767	1.3e-05
293.15	0.18	0.8001	0.000814	1.3e-05
313.15	0.1999	0.5	0.000805	1.3e-05
288.15	0.1999	0.5	0.001157	1.5e-05
308.15	0.1999	0.5	0.000863	1.3e-05
318.15	0.1999	0.5	0.000753	1.3e-05
323.15	0.1999	0.5	0.000711	1.2e-05
303.15	0.1999	0.5	0.000926	1.4e-05
293.15	0.1999	0.5	0.001071	1.5e-05
298.15	0.1999	0.5	0.000995	1.4e-05
293.15	0.24	0.6999	0.000958	1.4e-05
313.15	0.24	0.4	0.000909	1.4e-05
313.15	0.24	0.5999	0.000783	1.3e-05
313.15	0.24	0.6999	0.000743	1.3e-05
298.15	0.24	0.6999	0.000897	1.4e-05
298.15	0.24	0.4	0.001138	1.5e-05
303.15	0.24	0.5999	0.000893	1.4e-05
308.15	0.24	0.4	0.000978	1.4e-05
303.15	0.24	0.6999	0.000841	1.3e-05
288.15	0.24	0.4	0.001343	1.7e-05
293.15	0.24	0.5999	0.001025	1.4e-05
318.15	0.24	0.4	0.000848	1.3e-05
318.15	0.24	0.5999	0.000735	1.3e-05
318.15	0.24	0.6999	0.000698	1.2e-05
293.15	0.24	0.4	0.001234	1.6e-05
288.15	0.24	0.5999	0.001104	1.5e-05
308.15	0.24	0.5999	0.000836	1.3e-05
323.15	0.24	0.4	0.000825	1.3e-05
303.15	0.24	0.4	0.001053	1.5e-05
323.15	0.24	0.5999	0.000697	1.2e-05
323.15	0.24	0.6999	0.00066	1.2e-05
288.15	0.24	0.6999	0.001027	1.4e-05
308.15	0.24	0.6999	0.000789	1.3e-05
298.15	0.24	0.5999	0.000955	1.4e-05
313.15	0.2701	0.7	0.000772	1.3e-05
293.15	0.2701	0.7	0.000998	1.4e-05
298.15	0.2701	0.7	0.000933	1.4e-05
288.15	0.2701	0.7	0.00107	1.5e-05
318.15	0.2701	0.7	0.000726	1.2e-05
308.15	0.2701	0.7	0.000821	1.3e-05
323.15	0.2701	0.7	0.000688	1.2e-05
303.15	0.2701	0.7	0.000875	1.3e-05
318.15	0.28	0.2999	0.000964	1.4e-05
323.15	0.28	0.2999	0.000902	1.4e-05
313.15	0.28	0.2999	0.001037	1.5e-05
293.15	0.28	0.2999	0.001429	1.7e-05
308.15	0.28	0.2999	0.001118	1.5e-05
288.15	0.28	0.2999	0.001566	1.8e-05
298.15	0.28	0.2999	0.001311	1.6e-05
303.15	0.28	0.2999	0.001209	1.6e-05
303.15	0.3	0.4999	0.001036	1.5e-05
298.15	0.3	0.4999	0.001116	1.5e-05
318.15	0.3	0.4999	0.000841	1.3e-05
293.15	0.3	0.4999	0.001207	1.6e-05
288.15	0.3	0.4999	0.001309	1.6e-05
313.15	0.3	0.4999	0.0009	1.4e-05
323.15	0.3	0.4999	0.000793	1.3e-05
308.15	0.3	0.4999	0.000965	1.4e-05
288.15	0.3195	0.2006	0.001802	2e-05
308.15	0.3195	0.2006	0.001241	1.6e-05
303.15	0.3195	0.2006	0.001352	1.7e-05
318.15	0.3195	0.2006	0.001055	1.5e-05
293.15	0.3195	0.2006	0.001629	1.9e-05
298.15	0.3195	0.2006	0.001479	1.8e-05
313.15	0.3195	0.2006	0.001142	1.5e-05
323.15	0.3195	0.2006	0.000988	1.4e-05
288.15	0.3202	0.6	0.001245	1.6e-05
318.15	0.3202	0.6	0.000819	1.3e-05
298.15	0.3202	0.6	0.001071	1.5e-05
308.15	0.3202	0.6	0.000934	1.4e-05
293.15	0.3202	0.6	0.001153	1.5e-05
313.15	0.3202	0.6	0.000874	1.3e-05
303.15	0.3202	0.6	0.000998	1.4e-05
323.15	0.3202	0.6	0.000773	1.3e-05
288.15	0.359	0.4017	0.001522	1.8e-05
313.15	0.359	0.4017	0.001028	1.5e-05
318.15	0.359	0.4017	0.000961	1.4e-05
303.15	0.359	0.4017	0.001187	1.6e-05
323.15	0.359	0.4017	0.000903	1.4e-05
308.15	0.359	0.4017	0.001103	1.5e-05
293.15	0.359	0.4017	0.001393	1.7e-05
298.15	0.359	0.4017	0.00128	1.6e-05
293.15	0.36	0.5998	0.001208	1.6e-05
303.15	0.36	0.5998	0.001043	1.5e-05
313.15	0.36	0.5998	0.000917	1.4e-05
288.15	0.36	0.5998	0.001308	1.6e-05
318.15	0.36	0.5998	0.000849	1.3e-05
298.15	0.36	0.5998	0.00112	1.5e-05
323.15	0.36	0.5998	0.000804	1.3e-05
308.15	0.36	0.5998	0.000972	1.4e-05
298.15	0.3601	0.1	0.001696	1.9e-05
303.15	0.3601	0.1	0.00154	1.8e-05
318.15	0.3601	0.1	0.001181	1.6e-05
293.15	0.3601	0.1	0.001881	2e-05
323.15	0.3601	0.1	0.001101	1.5e-05
288.15	0.3601	0.1	0.002101	2.2e-05
313.15	0.3601	0.1	0.001285	1.6e-05
308.15	0.3601	0.1	0.001403	1.7e-05
308.15	0.4	0.5	0.001079	1.5e-05
323.15	0.4	0.5	0.000881	1.4e-05
303.15	0.4	0.5	0.001162	1.6e-05
293.15	0.4	0.5	0.001359	1.7e-05
298.15	0.4	0.5	0.001253	1.6e-05
318.15	0.4	0.5	0.000938	1.4e-05
288.15	0.4	0.5	0.001479	1.8e-05
313.15	0.4	0.5	0.001005	1.4e-05
288.15	0.4192	0.2993	0.001775	2e-05
318.15	0.4192	0.2993	0.001076	1.5e-05
298.15	0.4192	0.2993	0.001476	1.8e-05
313.15	0.4192	0.2993	0.001159	1.5e-05
323.15	0.4192	0.2993	0.001008	1.4e-05
308.15	0.4192	0.2993	0.001251	1.6e-05
303.15	0.4192	0.2993	0.001356	1.7e-05
293.15	0.4192	0.2993	0.001614	1.9e-05
293.15	0.4498	0.5	0.001449	1.8e-05
308.15	0.4498	0.5	0.001157	1.6e-05
313.15	0.4498	0.5	0.00107	1.5e-05
323.15	0.4498	0.5	0.000945	1.4e-05
288.15	0.4498	0.5	0.001581	1.8e-05
318.15	0.4498	0.5	0.001001	1.4e-05
298.15	0.4498	0.5	0.001333	1.7e-05
303.15	0.4498	0.5	0.001235	1.6e-05
308.15	0.4801	0.1999	0.001395	1.7e-05
298.15	0.4801	0.4	0.001466	1.8e-05
318.15	0.4801	0.1999	0.001185	1.6e-05
303.15	0.4801	0.1999	0.001522	1.8e-05
318.15	0.4801	0.4	0.001088	1.5e-05
313.15	0.4801	0.1999	0.001283	1.6e-05
298.15	0.4801	0.1999	0.001666	1.9e-05
288.15	0.4801	0.4	0.001749	2e-05
293.15	0.4801	0.1999	0.001838	2e-05
313.15	0.4801	0.4	0.001167	1.6e-05
303.15	0.4801	0.4	0.001355	1.7e-05
288.15	0.4801	0.1999	0.00204	2.2e-05
323.15	0.4801	0.1999	0.001108	1.5e-05
323.15	0.4801	0.4	0.001018	1.5e-05
308.15	0.4801	0.4	0.001255	1.6e-05
293.15	0.4801	0.4	0.001597	1.9e-05
308.15	0.54	0.4001	0.001349	1.7e-05
293.15	0.54	0.4001	0.001708	1.9e-05
318.15	0.54	0.4001	0.001144	1.5e-05
288.15	0.54	0.4001	0.001879	2.1e-05
303.15	0.54	0.4001	0.001449	1.8e-05
298.15	0.54	0.4001	0.001565	1.8e-05
323.15	0.54	0.4001	0.001076	1.5e-05
313.15	0.54	0.4001	0.00123	1.6e-05
323.15	0.5401	0.0998	0.001222	1.6e-05
308.15	0.5401	0.0998	0.00155	1.8e-05
293.15	0.5401	0.0998	0.002082	2.2e-05
288.15	0.5401	0.0998	0.002329	2.4e-05
313.15	0.5401	0.0998	0.001419	1.7e-05
298.15	0.5401	0.0998	0.001874	2.1e-05
303.15	0.5401	0.0998	0.0017	1.9e-05
318.15	0.5401	0.0998	0.001306	1.7e-05
323.15	0.5598	0.3	0.001129	1.5e-05
298.15	0.5598	0.3	0.001681	1.9e-05
303.15	0.5598	0.3	0.001537	1.8e-05
288.15	0.5598	0.3	0.002043	2.2e-05
308.15	0.5598	0.3	0.001413	1.7e-05
293.15	0.5598	0.3	0.001847	2.1e-05
313.15	0.5598	0.3	0.001304	1.7e-05
318.15	0.5598	0.3	0.001208	1.6e-05
298.15	0.63	0.2998	0.001807	2e-05
323.15	0.63	0.2998	0.001209	1.6e-05
313.15	0.63	0.2998	0.001395	1.7e-05
293.15	0.63	0.2998	0.001993	2.2e-05
308.15	0.63	0.2998	0.001514	1.8e-05
288.15	0.63	0.2998	0.002211	2.3e-05
303.15	0.63	0.2998	0.00165	1.9e-05
318.15	0.63	0.2998	0.001289	1.7e-05
293.15	0.6376	0.2027	0.00211	2.3e-05
323.15	0.6376	0.2027	0.001258	1.6e-05
313.15	0.6376	0.2027	0.001456	1.8e-05
298.15	0.6376	0.2027	0.001906	2.1e-05
288.15	0.6376	0.2027	0.002352	2.4e-05
308.15	0.6376	0.2027	0.001586	1.9e-05
303.15	0.6376	0.2027	0.001735	2e-05
318.15	0.6376	0.2027	0.001343	1.7e-05
313.15	0.7199	0.2001	0.001573	1.9e-05
323.15	0.7199	0.2001	0.001353	1.7e-05
308.15	0.7199	0.2001	0.001716	2e-05
298.15	0.7199	0.2001	0.002071	2.2e-05
303.15	0.7199	0.2001	0.001881	2.1e-05
318.15	0.7199	0.2001	0.001449	1.8e-05
293.15	0.7199	0.2001	0.0023	2.4e-05
288.15	0.7199	0.2001	0.002573	2.6e-05
303.15	0.7201	0.0999	0.001965	2.2e-05
298.15	0.7201	0.0999	0.002172	2.3e-05
323.15	0.7201	0.0999	0.001409	1.8e-05
288.15	0.7201	0.0999	0.002719	2.7e-05
318.15	0.7201	0.0999	0.001519	1.8e-05
308.15	0.7201	0.0999	0.001786	2e-05
313.15	0.7201	0.0999	0.001653	1.9e-05
293.15	0.7201	0.0999	0.002422	2.5e-05
288.15	0.8101	0.0999	0.002964	2.9e-05
313.15	0.8101	0.0999	0.001758	2e-05
318.15	0.8101	0.0999	0.001612	1.9e-05
308.15	0.8101	0.0999	0.001927	2.2e-05
303.15	0.8101	0.0999	0.002124	2.3e-05
293.15	0.8101	0.0999	0.00263	2.7e-05
323.15	0.8101	0.0999	0.001501	1.8e-05
298.15	0.8101	0.0999	0.002355	2.5e-05

System: butan-1-ol + tetrahydrofuran; phases: Liquid
Fixed: Pressure, kPa = 101
Property: Mass density, kg/m3 (Liquid); method: Vibrating tube method
Temperature, K	Mole fraction of tetrahydrofuran	Mass density, kg/m3	uncertainty
288.15	0	813.37	0.14
288.15	0.1001	820.7	0.14
288.15	0.2003	828.11	0.13
288.15	0.3	835.61	0.13
288.15	0.4003	843.28	0.13
288.15	0.5	851.03	0.13
288.15	0.6001	858.98	0.12
288.15	0.7003	867.19	0.12
288.15	0.8006	875.64	0.12
288.15	0.9002	884.34	0.12
288.15	1	893.29	0.11
293.15	0	809.57	0.14
293.15	0.1001	816.75	0.14
293.15	0.2003	823.99	0.13
293.15	0.3	831.34	0.13
293.15	0.4003	838.84	0.13
293.15	0.5	846.43	0.13
293.15	0.6001	854.21	0.13
293.15	0.7003	862.27	0.12
293.15	0.8006	870.54	0.12
293.15	0.9002	879.08	0.12
293.15	1	887.86	0.12
298.15	0	805.76	0.14
298.15	0.1001	812.77	0.14
298.15	0.2003	819.86	0.14
298.15	0.3	827.04	0.13
298.15	0.4003	834.38	0.13
298.15	0.5	841.8	0.13
298.15	0.6001	849.43	0.13
298.15	0.7003	857.31	0.13
298.15	0.8006	865.41	0.12
298.15	0.9002	873.78	0.12
298.15	1	882.4	0.12
303.15	0	801.92	0.14
303.15	0.1001	808.76	0.14
303.15	0.2003	815.69	0.14
303.15	0.3	822.71	0.14
303.15	0.4003	829.89	0.13
303.15	0.5	837.15	0.13
303.15	0.6001	844.61	0.13
303.15	0.7003	852.32	0.13
303.15	0.8006	860.26	0.12
303.15	0.9002	868.46	0.12
303.15	1	876.91	0.12
308.15	0	798.05	0.14
308.15	0.1001	804.73	0.14
308.15	0.2003	811.49	0.14
308.15	0.3	818.36	0.14
308.15	0.4003	825.36	0.13
308.15	0.5	832.46	0.13
308.15	0.6001	839.75	0.13
308.15	0.7003	847.3	0.13
308.15	0.8006	855.06	0.13
308.15	0.9002	863.09	0.12
308.15	1	871.38	0.12
313.15	0	794.15	0.14
313.15	0.1001	800.66	0.14
313.15	0.2003	807.26	0.14
313.15	0.3	813.96	0.14
313.15	0.4003	820.81	0.14
313.15	0.5	827.74	0.13
313.15	0.6001	834.86	0.13
313.15	0.7003	842.24	0.13
313.15	0.8006	849.83	0.13
313.15	0.9002	857.7	0.13
313.15	1	865.81	0.12
318.15	0	790.23	0.14
318.15	0.1001	796.55	0.14
318.15	0.2003	802.99	0.14
318.15	0.3	809.53	0.14
318.15	0.4003	816.21	0.14
318.15	0.5	822.98	0.14
318.15	0.6001	829.93	0.13
318.15	0.7003	837.14	0.13
318.15	0.8006	844.56	0.13
318.15	0.9002	852.25	0.13
318.15	1	860.2	0.12
323.15	0	786.24	0.15
323.15	0.1001	792.4	0.14
323.15	0.2003	798.67	0.14
323.15	0.3	805.05	0.14
323.15	0.4003	811.57	0.14
323.15	0.5	818.17	0.14
323.15	0.6001	824.96	0.14
323.15	0.7003	832	0.13
323.15	0.8006	839.25	0.13
323.15	0.9002	846.77	0.13
323.15	1	854.55	0.13

System: butan-1-ol + tetrahydrofuran; phases: Liquid
Fixed: Pressure, kPa = 101
Property: Refractive index (Na D-line) (Liquid); method: Dipping refractometry (monochromatic)
Temperature, K	Mole fraction of tetrahydrofuran	Refractive index (Na D-line)	uncertainty
288.15	0	1.4014	0.0002
288.15	0.1001	1.402	0.0002
288.15	0.2003	1.4028	0.0002
288.15	0.3	1.4036	0.0002
288.15	0.4003	1.4043	0.0002
288.15	0.5	1.4051	0.0002
288.15	0.6001	1.4059	0.0002
288.15	0.7003	1.4068	0.0002
288.15	0.8006	1.4077	0.0002
288.15	0.9002	1.4087	0.0002
288.15	1	1.4096	0.0002
293.15	0	1.3993	0.0002
293.15	0.1001	1.3999	0.0002
293.15	0.2003	1.4006	0.0002
293.15	0.3	1.4013	0.0002
293.15	0.4003	1.4021	0.0002
293.15	0.5	1.4028	0.0002
293.15	0.6001	1.4035	0.0002
293.15	0.7003	1.4044	0.0002
293.15	0.8006	1.4052	0.0002
293.15	0.9002	1.4061	0.0002
293.15	1	1.407	0.0002
298.15	0	1.3973	0.0002
298.15	0.1001	1.3978	0.0002
298.15	0.2003	1.3985	0.0002
298.15	0.3	1.3991	0.0002
298.15	0.4003	1.3998	0.0002
298.15	0.5	1.4004	0.0002
298.15	0.6001	1.4011	0.0002
298.15	0.7003	1.4019	0.0002
298.15	0.8006	1.4027	0.0002
298.15	0.9002	1.4035	0.0002
298.15	1	1.4043	0.0002
303.15	0	1.3952	0.0002
303.15	0.1001	1.3957	0.0002
303.15	0.2003	1.3963	0.0002
303.15	0.3	1.3969	0.0002
303.15	0.4003	1.3974	0.0002
303.15	0.5	1.398	0.0002
303.15	0.6001	1.3987	0.0002
303.15	0.7003	1.3994	0.0002
303.15	0.8006	1.4001	0.0002
303.15	0.9002	1.4009	0.0002
303.15	1	1.4016	0.0002
308.15	0	1.3932	0.0002
308.15	0.1001	1.3936	0.0002
308.15	0.2003	1.3941	0.0002
308.15	0.3	1.3946	0.0002
308.15	0.4003	1.3951	0.0002
308.15	0.5	1.3957	0.0002
308.15	0.6001	1.3962	0.0002
308.15	0.7003	1.3969	0.0002
308.15	0.8006	1.3975	0.0002
308.15	0.9002	1.3983	0.0002
308.15	1	1.399	0.0002
313.15	0	1.3911	0.0002
313.15	0.1001	1.3914	0.0002
313.15	0.2003	1.3919	0.0002
313.15	0.3	1.3923	0.0002
313.15	0.4003	1.3928	0.0002
313.15	0.5	1.3933	0.0002
313.15	0.6001	1.3938	0.0002
313.15	0.7003	1.3943	0.0002
313.15	0.8006	1.3949	0.0002
313.15	0.9002	1.3956	0.0002
313.15	1	1.3963	0.0002
318.15	0	1.389	0.0002
318.15	0.1001	1.3893	0.0002
318.15	0.2003	1.3897	0.0002
318.15	0.3	1.3901	0.0002
318.15	0.4003	1.3905	0.0002
318.15	0.5	1.3909	0.0002
318.15	0.6001	1.3913	0.0002
318.15	0.7003	1.3918	0.0002
318.15	0.8006	1.3923	0.0002
318.15	0.9002	1.3929	0.0002
318.15	1	1.3936	0.0002
323.15	0	1.3869	0.0002
323.15	0.1001	1.3871	0.0002
323.15	0.2003	1.3874	0.0002
323.15	0.3	1.3878	0.0002
323.15	0.4003	1.3881	0.0002
323.15	0.5	1.3885	0.0002
323.15	0.6001	1.3888	0.0002
323.15	0.7003	1.3893	0.0002
323.15	0.8006	1.3897	0.0002
323.15	0.9002	1.3903	0.0002
323.15	1	1.3909	0.0002

System: butan-1-ol + tetrahydrofuran; phases: Liquid
Fixed: Pressure, kPa = 101
Property: Viscosity, Pa*s (Liquid); method: CONCYL:UFactor:2
Temperature, K	Mole fraction of tetrahydrofuran	Viscosity, Pa*s	uncertainty
288.15	0	0.003375	3e-05
288.15	0.1001	0.002377	2.3e-05
288.15	0.2003	0.001788	1.9e-05
288.15	0.3	0.001416	1.7e-05
288.15	0.4003	0.00115	1.5e-05
288.15	0.5	0.000962	1.4e-05
288.15	0.6001	0.000836	1.3e-05
288.15	0.7003	0.000723	1.2e-05
288.15	0.8006	0.000642	1.2e-05
288.15	0.9002	0.000578	1.1e-05
288.15	1	0.000522	1.1e-05
293.15	0	0.002945	2.7e-05
293.15	0.1001	0.002111	2.2e-05
293.15	0.2003	0.001612	1.8e-05
293.15	0.3	0.001292	1.6e-05
293.15	0.4003	0.001061	1.5e-05
293.15	0.5	0.000895	1.3e-05
293.15	0.6001	0.000785	1.3e-05
293.15	0.7003	0.000683	1.2e-05
293.15	0.8006	0.00061	1.2e-05
293.15	0.9002	0.000555	1.1e-05
293.15	1	0.000502	1.1e-05
298.15	0	0.002581	2.5e-05
298.15	0.1001	0.001882	2e-05
298.15	0.2003	0.00146	1.7e-05
298.15	0.3	0.001184	1.5e-05
298.15	0.4003	0.000979	1.4e-05
298.15	0.5	0.000834	1.3e-05
298.15	0.6001	0.000736	1.2e-05
298.15	0.7003	0.000645	1.2e-05
298.15	0.8006	0.000579	1.1e-05
298.15	0.9002	0.000528	1.1e-05
298.15	1	0.00048	1.1e-05
303.15	0	0.002272	2.3e-05
303.15	0.1001	0.001687	1.9e-05
303.15	0.2003	0.001331	1.6e-05
303.15	0.3	0.001087	1.5e-05
303.15	0.4003	0.000908	1.4e-05
303.15	0.5	0.000779	1.3e-05
303.15	0.6001	0.000692	1.2e-05
303.15	0.7003	0.00061	1.2e-05
303.15	0.8006	0.00055	1.1e-05
303.15	0.9002	0.000502	1.1e-05
303.15	1	0.000459	1.1e-05
308.15	0	0.002008	2.1e-05
308.15	0.1001	0.001517	1.8e-05
308.15	0.2003	0.001215	1.6e-05
308.15	0.3	0.001	1.4e-05
308.15	0.4003	0.000843	1.3e-05
308.15	0.5	0.000728	1.2e-05
308.15	0.6001	0.000652	1.2e-05
308.15	0.7003	0.000576	1.1e-05
308.15	0.8006	0.000521	1.1e-05
308.15	0.9002	0.000478	1.1e-05
308.15	1	0.00044	1.1e-05
313.15	0	0.001782	1.9e-05
313.15	0.1001	0.001368	1.7e-05
313.15	0.2003	0.001111	1.5e-05
313.15	0.3	0.000922	1.4e-05
313.15	0.4003	0.000782	1.3e-05
313.15	0.5	0.000681	1.2e-05
313.15	0.6001	0.000608	1.2e-05
313.15	0.7003	0.000543	1.1e-05
313.15	0.8006	0.000494	1.1e-05
313.15	0.9002	0.000454	1.1e-05
313.15	1	0.000418	1e-05
318.15	0	0.001587	1.8e-05
318.15	0.1001	0.001238	1.6e-05
318.15	0.2003	0.001019	1.4e-05
318.15	0.3	0.000852	1.3e-05
318.15	0.4003	0.000727	1.2e-05
318.15	0.5	0.000637	1.2e-05
318.15	0.6001	0.000571	1.1e-05
318.15	0.7003	0.000513	1.1e-05
318.15	0.8006	0.000466	1.1e-05
318.15	0.9002	0.000428	1e-05
318.15	1	0.000396	1e-05
323.15	0	0.001419	1.7e-05
323.15	0.1001	0.001139	1.5e-05
323.15	0.2003	0.000949	1.4e-05
323.15	0.3	0.000795	1.3e-05
323.15	0.4003	0.000683	1.2e-05
323.15	0.5	0.000599	1.2e-05
323.15	0.6001	0.000546	1.1e-05
323.15	0.7003	0.000487	1.1e-05
323.15	0.8006	0.000444	1.1e-05
323.15	0.9002	0.00041	1e-05
323.15	1	0.000384	1e-05

System: butan-1-ol + dimethyl 1,6-hexanedioate; phases: Liquid
Fixed: Pressure, kPa = 101
Property: Viscosity, Pa*s (Liquid); method: stabinger viscometer
Temperature, K	Mole fraction of dimethyl 1,6-hexanedioate	Viscosity, Pa*s	uncertainty
288.15	0	0.003375	9e-06
288.15	0.0999	0.002635	8e-06
288.15	0.2004	0.002426	8e-06
288.15	0.2999	0.002384	8e-06
288.15	0.4003	0.002422	9e-06
288.15	0.4999	0.002519	1e-05
288.15	0.6007	0.00266	1.1e-05
288.15	0.6996	0.002884	1.3e-05
288.15	0.7994	0.00308	1.4e-05
288.15	0.8991	0.003379	1.6e-05
288.15	1	0.003751	1.9e-05
293.15	0	0.002945	8e-06
293.15	0.0999	0.002322	7e-06
293.15	0.2004	0.002147	7e-06
293.15	0.2999	0.002114	8e-06
293.15	0.4003	0.002149	8e-06
293.15	0.4999	0.002237	9e-06
293.15	0.6007	0.002361	1e-05
293.15	0.6996	0.002556	1.1e-05
293.15	0.7994	0.002723	1.3e-05
293.15	0.8991	0.002977	1.5e-05
293.15	1	0.003289	1.7e-05
298.15	0	0.002581	7e-06
298.15	0.0999	0.002057	7e-06
298.15	0.2004	0.001911	7e-06
298.15	0.2999	0.001886	7e-06
298.15	0.4003	0.00192	7e-06
298.15	0.4999	0.002003	8e-06
298.15	0.6007	0.00211	9e-06
298.15	0.6996	0.002287	1e-05
298.15	0.7994	0.002425	1.1e-05
298.15	0.8991	0.002649	1.3e-05
298.15	1	0.00291	1.5e-05
303.15	0	0.002272	7e-06
303.15	0.0999	0.001837	6e-06
303.15	0.2004	0.001716	6e-06
303.15	0.2999	0.001699	6e-06
303.15	0.4003	0.001732	7e-06
303.15	0.4999	0.001805	7e-06
303.15	0.6007	0.001902	8e-06
303.15	0.6996	0.00206	9e-06
303.15	0.7994	0.002183	1e-05
303.15	0.8991	0.002374	1.2e-05
303.15	1	0.002604	1.3e-05
308.15	0	0.002008	6e-06
308.15	0.0999	0.001646	6e-06
308.15	0.2004	0.001546	6e-06
308.15	0.2999	0.001536	6e-06
308.15	0.4003	0.001569	6e-06
308.15	0.4999	0.001636	7e-06
308.15	0.6007	0.001724	8e-06
308.15	0.6996	0.001868	9e-06
308.15	0.7994	0.001975	9e-06
308.15	0.8991	0.002144	1.1e-05
308.15	1	0.002343	1.2e-05
313.15	0	0.001782	5e-06
313.15	0.0999	0.001481	5e-06
313.15	0.2004	0.0014	5e-06
313.15	0.2999	0.001396	5e-06
313.15	0.4003	0.001428	6e-06
313.15	0.4999	0.001491	6e-06
313.15	0.6007	0.001572	7e-06
313.15	0.6996	0.001704	8e-06
313.15	0.7994	0.001797	9e-06
313.15	0.8991	0.001947	1e-05
313.15	1	0.002121	1.1e-05
318.15	0	0.001587	5e-06
318.15	0.0999	0.001338	5e-06
318.15	0.2004	0.001272	5e-06
318.15	0.2999	0.001273	5e-06
318.15	0.4003	0.001306	6e-06
318.15	0.4999	0.001365	6e-06
318.15	0.6007	0.00144	7e-06
318.15	0.6996	0.001562	7e-06
318.15	0.7994	0.001645	8e-06
318.15	0.8991	0.001778	9e-06
318.15	1	0.001933	1e-05
323.15	0	0.001419	5e-06
323.15	0.0999	0.001229	5e-06
323.15	0.2004	0.001176	5e-06
323.15	0.2999	0.001179	5e-06
323.15	0.4003	0.001214	5e-06
323.15	0.4999	0.001268	6e-06
323.15	0.6007	0.001339	6e-06
323.15	0.6996	0.001456	7e-06
323.15	0.7994	0.001528	8e-06
323.15	0.8991	0.001648	8e-06
323.15	1	0.00179	9e-06
