Measured thermophysical data. Electrical Conductance of Some Tetraalkylammonium Bromide Salts in 2-Butoxyethanol (1) + Water (2) mixtures at (298.15, 303.15, 308.15, and 313.15) K
Source: J. Chem. Eng. Data, 2014, 10.1021/je4004405
Compound 1: tetraethylammonium bromide, C8H20BrN, InChI=1S/C8H20N.BrH/c1-5-9(6-2,7-3)8-4;/h5-8H2,1-4H3;1H/q+1;/p-1, purity 99.8%
Compound 2: tetrapropylammonium bromide, C12H28BrN, InChI=1S/C12H28N.BrH/c1-5-9-13(10-6-2,11-7-3)12-8-4;/h5-12H2,1-4H3;1H/q+1;/p-1, purity 99.8%
Compound 3: 2-butoxyethan-1-ol, C6H14O2, InChI=1S/C6H14O2/c1-2-3-5-8-6-4-7/h7H,2-6H2,1H3, purity 99.5%
Compound 4: water, H2O, InChI=1S/H2O/h1H2, purity 99.8%
Compound 5: tetramethylammonium bromide, C4H12BrN, InChI=1S/C4H12N.BrH/c1-5(2,3)4;/h1-4H3;1H/q+1;/p-1, purity 99.8%

System: 2-butoxyethan-1-ol; phases: Liquid
Property: Mass density, kg/m3 (Liquid); method: Pycnometric method
Temperature, K	Pressure, kPa	Mass density, kg/m3	uncertainty
298.15	101.325	896.16	0.55

System: 2-butoxyethan-1-ol; phases: Liquid
Property: Viscosity, Pa*s (Liquid); method: Capillary tube (Ostwald; Ubbelohde) method
Temperature, K	Pressure, kPa	Viscosity, Pa*s	uncertainty
298.15	101.325	0.002782	2.19e-05

System: tetramethylammonium bromide + 2-butoxyethan-1-ol + water; phases: Liquid
Fixed: Pressure, kPa = 101
Property: Molar conductivity, S*m2/mol (Liquid); method: Alternating current cell with electrodes
Temperature, K	Solvent: Mass fraction of 2-butoxyethan-1-ol	Molality, mol/kg of tetramethylammonium bromide	Molar conductivity, S*m2/mol	uncertainty
298.15	0.2	0.00552	0.0069908	4.2e-05
298.15	0.2	0.01105	0.0068158	4.09e-05
298.15	0.2	0.01659	0.0066198	3.97e-05
298.15	0.2	0.02213	0.0064475	3.87e-05
298.15	0.2	0.0299	0.0061742	3.71e-05
298.15	0.2	0.03323	0.0060435	3.63e-05
298.15	0.2	0.03879	0.0059009	3.54e-05
298.15	0.2	0.04435	0.0057108	3.43e-05
303.15	0.2	0.00552	0.0077825	4.67e-05
303.15	0.2	0.01105	0.0076	4.56e-05
303.15	0.2	0.01659	0.0074217	4.45e-05
303.15	0.2	0.02213	0.0072554	4.36e-05
303.15	0.2	0.0299	0.0070059	4.21e-05
303.15	0.2	0.03323	0.0068752	4.13e-05
303.15	0.2	0.03879	0.0067089	4.03e-05
303.15	0.2	0.04435	0.0065188	3.91e-05
308.15	0.2	0.00552	0.0085663	5.14e-05
308.15	0.2	0.01105	0.008391	5.04e-05
308.15	0.2	0.01659	0.0082336	4.94e-05
308.15	0.2	0.02213	0.0080792	4.85e-05
308.15	0.2	0.0299	0.0078415	4.71e-05
308.15	0.2	0.03323	0.0077346	4.64e-05
308.15	0.2	0.03879	0.0075683	4.54e-05
308.15	0.2	0.04435	0.0073782	4.43e-05
313.15	0.2	0.00552	0.0093861	5.63e-05
313.15	0.2	0.01105	0.0092079	5.53e-05
313.15	0.2	0.01659	0.0090415	5.43e-05
313.15	0.2	0.02213	0.0088871	5.33e-05
313.15	0.2	0.0299	0.0086495	5.19e-05
313.15	0.2	0.03323	0.0085307	5.12e-05
313.15	0.2	0.03879	0.0083762	5.03e-05
313.15	0.2	0.04435	0.0082099	4.93e-05
298.15	0.4	0.00266	0.0052198	3.13e-05
298.15	0.4	0.00554	0.0051247	3.08e-05
298.15	0.4	0.00832	0.0050178	3.01e-05
298.15	0.4	0.0111	0.0049346	2.97e-05
298.15	0.4	0.015	0.0047802	2.87e-05
298.15	0.4	0.01667	0.004697	2.82e-05
298.15	0.4	0.01945	0.0046159	2.77e-05
298.15	0.4	0.02224	0.0045188	2.71e-05
303.15	0.4	0.00266	0.005794	3.48e-05
303.15	0.4	0.00554	0.005699	3.42e-05
303.15	0.4	0.00832	0.0056158	3.37e-05
303.15	0.4	0.0111	0.0055445	3.33e-05
303.15	0.4	0.015	0.0054138	3.25e-05
303.15	0.4	0.01667	0.0053544	3.22e-05
303.15	0.4	0.01945	0.0052504	3.15e-05
303.15	0.4	0.02224	0.0051405	3.09e-05
308.15	0.4	0.00266	0.0063049	3.78e-05
308.15	0.4	0.00554	0.0062099	3.73e-05
308.15	0.4	0.00832	0.0061148	3.67e-05
308.15	0.4	0.0111	0.0060316	3.63e-05
308.15	0.4	0.015	0.0058891	3.54e-05
308.15	0.4	0.01667	0.0058178	3.49e-05
308.15	0.4	0.01945	0.0057222	3.44e-05
308.15	0.4	0.02224	0.0056514	3.39e-05
313.15	0.4	0.00266	0.006899	4.14e-05
313.15	0.4	0.00554	0.006792	4.08e-05
313.15	0.4	0.00832	0.0067089	4.03e-05
313.15	0.4	0.0111	0.0066257	3.98e-05
313.15	0.4	0.015	0.006495	3.9e-05
313.15	0.4	0.01667	0.0064356	3.86e-05
313.15	0.4	0.01945	0.0063524	3.81e-05
313.15	0.4	0.02224	0.0062574	3.76e-05
298.15	0.6	0.00105	0.0038128	2.29e-05
298.15	0.6	0.00202	0.0037811	2.27e-05
298.15	0.6	0.00304	0.0037336	2.25e-05
298.15	0.6	0.00405	0.0037019	2.22e-05
298.15	0.6	0.00547	0.0036544	2.2e-05
298.15	0.6	0.00608	0.0036227	2.18e-05
298.15	0.6	0.0071	0.003598	2.16e-05
298.15	0.6	0.00811	0.0035633	2.14e-05
303.15	0.6	0.00105	0.0042128	2.53e-05
303.15	0.6	0.00202	0.0041861	2.51e-05
303.15	0.6	0.00304	0.0041495	2.49e-05
303.15	0.6	0.00405	0.0041099	2.47e-05
303.15	0.6	0.00547	0.0040534	2.44e-05
303.15	0.6	0.00608	0.0040237	2.42e-05
303.15	0.6	0.0071	0.003999	2.4e-05
303.15	0.6	0.00811	0.0039544	2.38e-05
308.15	0.6	0.00105	0.0046455	2.79e-05
308.15	0.6	0.00202	0.0046138	2.77e-05
308.15	0.6	0.00304	0.0045772	2.75e-05
308.15	0.6	0.00405	0.0045346	2.72e-05
308.15	0.6	0.00547	0.0044871	2.7e-05
308.15	0.6	0.00608	0.0044623	2.68e-05
308.15	0.6	0.0071	0.0044237	2.66e-05
308.15	0.6	0.00811	0.0043792	2.64e-05
313.15	0.6	0.00105	0.0050128	3.01e-05
313.15	0.6	0.00202	0.0049782	2.99e-05
313.15	0.6	0.00304	0.0049336	2.96e-05
313.15	0.6	0.00405	0.0049019	2.94e-05
313.15	0.6	0.00547	0.0048505	2.91e-05
313.15	0.6	0.00608	0.0048267	2.9e-05
313.15	0.6	0.0071	0.004799	2.88e-05
313.15	0.6	0.00811	0.0047475	2.86e-05

System: tetraethylammonium bromide + 2-butoxyethan-1-ol + water; phases: Liquid
Fixed: Pressure, kPa = 101
Property: Molar conductivity, S*m2/mol (Liquid); method: Alternating current cell with electrodes
Temperature, K	Solvent: Mass fraction of 2-butoxyethan-1-ol	Molality, mol/kg of tetraethylammonium bromide	Molar conductivity, S*m2/mol	uncertainty
298.15	0.2	0.00509	0.0064752	3.89e-05
298.15	0.2	0.01018	0.0063366	3.8e-05
298.15	0.2	0.01528	0.0062269	3.74e-05
298.15	0.2	0.02039	0.0060124	3.61e-05
298.15	0.2	0.0255	0.0058811	3.53e-05
298.15	0.2	0.03062	0.0057227	3.44e-05
298.15	0.2	0.03574	0.0055841	3.35e-05
298.15	0.2	0.04087	0.0054059	3.25e-05
303.15	0.2	0.00509	0.0072475	4.35e-05
303.15	0.2	0.01018	0.0070693	4.24e-05
303.15	0.2	0.01528	0.006891	4.14e-05
303.15	0.2	0.02039	0.0067326	4.04e-05
303.15	0.2	0.0255	0.0066138	3.97e-05
303.15	0.2	0.03062	0.0064819	3.89e-05
303.15	0.2	0.03574	0.0063168	3.79e-05
303.15	0.2	0.04087	0.0061584	3.7e-05
308.15	0.2	0.00509	0.0080396	4.82e-05
308.15	0.2	0.01018	0.007901	4.74e-05
308.15	0.2	0.01528	0.0078019	4.68e-05
308.15	0.2	0.02039	0.0076435	4.59e-05
308.15	0.2	0.0255	0.0075247	4.52e-05
308.15	0.2	0.03062	0.0073244	4.4e-05
308.15	0.2	0.03574	0.0071919	4.32e-05
308.15	0.2	0.04087	0.0071302	4.28e-05
313.15	0.2	0.00509	0.0088036	5.28e-05
313.15	0.2	0.01018	0.0087128	5.23e-05
313.15	0.2	0.01528	0.0085742	5.15e-05
313.15	0.2	0.02039	0.0084158	5.05e-05
313.15	0.2	0.0255	0.0082772	4.97e-05
313.15	0.2	0.03062	0.0081188	4.87e-05
313.15	0.2	0.03574	0.0079406	4.77e-05
313.15	0.2	0.04087	0.007851	4.71e-05
298.15	0.4	0.00311	0.0045742	2.75e-05
298.15	0.4	0.00649	0.004495	2.7e-05
298.15	0.4	0.00975	0.004396	2.64e-05
298.15	0.4	0.013	0.0042772	2.57e-05
298.15	0.4	0.01626	0.0041584	2.5e-05
298.15	0.4	0.01952	0.0040594	2.44e-05
298.15	0.4	0.02278	0.0039667	2.38e-05
298.15	0.4	0.02604	0.0038613	2.32e-05
303.15	0.4	0.00311	0.0051479	3.09e-05
303.15	0.4	0.00649	0.0050291	3.02e-05
303.15	0.4	0.00975	0.0049301	2.96e-05
303.15	0.4	0.013	0.0048113	2.89e-05
303.15	0.4	0.01626	0.0047047	2.83e-05
303.15	0.4	0.01952	0.0046266	2.78e-05
303.15	0.4	0.02278	0.0045539	2.73e-05
303.15	0.4	0.02604	0.0044747	2.69e-05
308.15	0.4	0.00311	0.0056826	3.41e-05
308.15	0.4	0.00649	0.0055836	3.35e-05
308.15	0.4	0.00975	0.0054846	3.29e-05
308.15	0.4	0.013	0.0053658	3.22e-05
308.15	0.4	0.01626	0.005244	3.15e-05
308.15	0.4	0.01952	0.0052146	3.13e-05
308.15	0.4	0.02278	0.0050407	3.03e-05
308.15	0.4	0.02604	0.0049697	2.98e-05
313.15	0.4	0.00311	0.006198	3.73e-05
313.15	0.4	0.00649	0.006099	3.66e-05
313.15	0.4	0.00975	0.006012	3.61e-05
313.15	0.4	0.013	0.005913	3.55e-05
313.15	0.4	0.01626	0.0058019	3.48e-05
313.15	0.4	0.01952	0.0057029	3.42e-05
313.15	0.4	0.02278	0.0056039	3.36e-05
313.15	0.4	0.02604	0.0055247	3.32e-05
298.15	0.6	0.00118	0.0031683	1.9e-05
298.15	0.6	0.00236	0.0031485	1.89e-05
298.15	0.6	0.00354	0.0031089	1.87e-05
298.15	0.6	0.00472	0.0030693	1.84e-05
298.15	0.6	0.00637	0.0030297	1.82e-05
298.15	0.6	0.00708	0.0030297	1.82e-05
298.15	0.6	0.00826	0.0029995	1.8e-05
298.15	0.6	0.00944	0.0029703	1.78e-05
303.15	0.6	0.00118	0.0035445	2.13e-05
303.15	0.6	0.00236	0.0035049	2.11e-05
303.15	0.6	0.00354	0.0034653	2.08e-05
303.15	0.6	0.00472	0.0034257	2.06e-05
303.15	0.6	0.00637	0.0033861	2.03e-05
303.15	0.6	0.00708	0.0033663	2.02e-05
303.15	0.6	0.00826	0.0033465	2.01e-05
303.15	0.6	0.00944	0.0033267	2e-05
308.15	0.6	0.00118	0.0038811	2.33e-05
308.15	0.6	0.00236	0.0038415	2.31e-05
308.15	0.6	0.00354	0.0038019	2.28e-05
308.15	0.6	0.00472	0.0037821	2.27e-05
308.15	0.6	0.00637	0.0037425	2.25e-05
308.15	0.6	0.00708	0.0037227	2.23e-05
308.15	0.6	0.00826	0.0037029	2.22e-05
308.15	0.6	0.00944	0.0036831	2.21e-05
313.15	0.6	0.00118	0.0042178	2.53e-05
313.15	0.6	0.00236	0.0041782	2.51e-05
313.15	0.6	0.00354	0.0041782	2.51e-05
313.15	0.6	0.00472	0.0041188	2.47e-05
313.15	0.6	0.00637	0.004099	2.46e-05
313.15	0.6	0.00708	0.0040594	2.44e-05
313.15	0.6	0.00826	0.0040396	2.43e-05
313.15	0.6	0.00944	0.004	2.4e-05

System: 2-butoxyethan-1-ol + tetrapropylammonium bromide + water; phases: Liquid
Fixed: Pressure, kPa = 101
Property: Molar conductivity, S*m2/mol (Liquid); method: Alternating current cell with electrodes
Temperature, K	Solvent: Mass fraction of 2-butoxyethan-1-ol	Molality, mol/kg of tetrapropylammonium bromide	Molar conductivity, S*m2/mol	uncertainty
298.15	0.2	0.00537	0.0058316	3.5e-05
298.15	0.2	0.01074	0.0057128	3.43e-05
298.15	0.2	0.01612	0.005594	3.36e-05
298.15	0.2	0.02151	0.0054586	3.28e-05
298.15	0.2	0.02906	0.005301	3.18e-05
298.15	0.2	0.03229	0.0052227	3.14e-05
298.15	0.2	0.03769	0.0050891	3.06e-05
298.15	0.2	0.0431	0.0049554	2.97e-05
303.15	0.2	0.00537	0.0065297	3.92e-05
303.15	0.2	0.01074	0.0064108	3.85e-05
303.15	0.2	0.01612	0.0062772	3.77e-05
303.15	0.2	0.02151	0.0061435	3.69e-05
303.15	0.2	0.02906	0.0059802	3.59e-05
303.15	0.2	0.03229	0.005887	3.53e-05
303.15	0.2	0.03769	0.0057477	3.45e-05
303.15	0.2	0.0431	0.0056089	3.37e-05
308.15	0.2	0.00537	0.0072574	4.36e-05
308.15	0.2	0.01074	0.0071237	4.28e-05
308.15	0.2	0.01612	0.0069901	4.2e-05
308.15	0.2	0.02151	0.0068712	4.12e-05
308.15	0.2	0.02906	0.006693	4.02e-05
308.15	0.2	0.03229	0.0066188	3.97e-05
308.15	0.2	0.03769	0.0064993	3.9e-05
308.15	0.2	0.0431	0.0063811	3.83e-05
313.15	0.2	0.00537	0.0080742	4.85e-05
313.15	0.2	0.01074	0.0079405	4.77e-05
313.15	0.2	0.01612	0.0078069	4.69e-05
313.15	0.2	0.02151	0.0076881	4.61e-05
313.15	0.2	0.02906	0.0075099	4.51e-05
313.15	0.2	0.03229	0.0074532	4.47e-05
313.15	0.2	0.03769	0.0073168	4.39e-05
313.15	0.2	0.0431	0.0071831	4.31e-05
298.15	0.4	0.00273	0.0039712	2.38e-05
298.15	0.4	0.00546	0.0039197	2.35e-05
298.15	0.4	0.0082	0.0038564	2.31e-05
298.15	0.4	0.01093	0.003793	2.28e-05
298.15	0.4	0.01367	0.0037336	2.24e-05
298.15	0.4	0.01641	0.0036742	2.21e-05
298.15	0.4	0.01915	0.0036297	2.18e-05
298.15	0.4	0.02189	0.0035851	2.15e-05
303.15	0.4	0.00273	0.0045217	2.71e-05
303.15	0.4	0.00546	0.0044786	2.69e-05
303.15	0.4	0.0082	0.0043978	2.64e-05
303.15	0.4	0.01093	0.0043435	2.61e-05
303.15	0.4	0.01367	0.0042693	2.56e-05
303.15	0.4	0.01641	0.0042247	2.54e-05
303.15	0.4	0.01915	0.0041801	2.51e-05
303.15	0.4	0.02189	0.0041059	2.47e-05
308.15	0.4	0.00273	0.0050752	3.05e-05
308.15	0.4	0.00546	0.0050156	3.01e-05
308.15	0.4	0.0082	0.0049436	2.97e-05
308.15	0.4	0.01093	0.0048821	2.93e-05
308.15	0.4	0.01367	0.0048079	2.89e-05
308.15	0.4	0.01641	0.0047336	2.84e-05
308.15	0.4	0.01915	0.0046742	2.81e-05
308.15	0.4	0.02189	0.0046148	2.77e-05
313.15	0.4	0.00273	0.0055858	3.35e-05
313.15	0.4	0.00546	0.0055285	3.32e-05
313.15	0.4	0.0082	0.0054814	3.29e-05
313.15	0.4	0.01093	0.0054158	3.25e-05
313.15	0.4	0.01367	0.0053564	3.22e-05
313.15	0.4	0.01641	0.005297	3.18e-05
313.15	0.4	0.01915	0.0052376	3.14e-05
313.15	0.4	0.02189	0.0051633	3.1e-05
298.15	0.6	0.00107	0.0024009	1.44e-05
298.15	0.6	0.00206	0.0023811	1.43e-05
298.15	0.6	0.00309	0.0023564	1.42e-05
298.15	0.6	0.00413	0.0023465	1.41e-05
298.15	0.6	0.00557	0.0023168	1.39e-05
298.15	0.6	0.00619	0.0023069	1.39e-05
298.15	0.6	0.00723	0.0022871	1.37e-05
298.15	0.6	0.00826	0.0022722	1.36e-05
303.15	0.6	0.00107	0.0027386	1.64e-05
303.15	0.6	0.00206	0.0027188	1.63e-05
303.15	0.6	0.00309	0.002694	1.62e-05
303.15	0.6	0.00413	0.0026742	1.61e-05
303.15	0.6	0.00557	0.0026445	1.59e-05
303.15	0.6	0.00619	0.0026346	1.58e-05
303.15	0.6	0.00723	0.0026148	1.57e-05
303.15	0.6	0.00826	0.0026	1.56e-05
308.15	0.6	0.00107	0.0030683	1.85e-05
308.15	0.6	0.00206	0.0030435	1.83e-05
308.15	0.6	0.00309	0.0030237	1.82e-05
308.15	0.6	0.00413	0.0030039	1.8e-05
308.15	0.6	0.00557	0.0029792	1.79e-05
308.15	0.6	0.00619	0.0029643	1.78e-05
308.15	0.6	0.00723	0.0029396	1.77e-05
308.15	0.6	0.00826	0.0029198	1.75e-05
313.15	0.6	0.00107	0.0034237	2.06e-05
313.15	0.6	0.00206	0.0033891	2.04e-05
313.15	0.6	0.00309	0.0033658	2.02e-05
313.15	0.6	0.00413	0.0033514	2.01e-05
313.15	0.6	0.00557	0.0033108	1.99e-05
313.15	0.6	0.00619	0.0032732	1.97e-05
313.15	0.6	0.00723	0.0032732	1.97e-05
313.15	0.6	0.00826	0.0032356	1.95e-05

System: 2-butoxyethan-1-ol + water; phases: Liquid
Fixed: Pressure, kPa = 101
Property: Mass density, kg/m3 (Liquid); method: Pycnometric method
Temperature, K	Mass fraction of 2-butoxyethan-1-ol	Mass density, kg/m3	uncertainty
298.15	0.2	986.46	0.55
303.15	0.2	982.92	0.56
308.15	0.2	980.38	0.56
313.15	0.2	977.64	0.56
298.15	0.4	967.1	0.55
303.15	0.4	964.31	0.56
308.15	0.4	961.45	0.56
313.15	0.4	958.48	0.56
298.15	0.6	948.1	0.55
303.15	0.6	944.74	0.56
308.15	0.6	941.59	0.56
313.15	0.6	937.57	0.56
298.15	1	896.16	0.55
303.15	1	892.74	0.55
308.15	1	888.88	0.56
313.15	1	884.29	0.56

System: 2-butoxyethan-1-ol + water; phases: Liquid
Fixed: Pressure, kPa = 101
Property: Viscosity, Pa*s (Liquid); method: Capillary tube (Ostwald; Ubbelohde) method
Temperature, K	Mass fraction of 2-butoxyethan-1-ol	Viscosity, Pa*s	uncertainty
298.15	0.2	0.0018493	1.81e-05
303.15	0.2	0.0016217	1.75e-05
308.15	0.2	0.0014654	1.71e-05
313.15	0.2	0.0013025	1.67e-05
298.15	0.4	0.0029975	2.2e-05
303.15	0.4	0.0026354	2.07e-05
308.15	0.4	0.0023342	1.97e-05
313.15	0.4	0.0020545	1.88e-05
298.15	0.6	0.0039178	2.58e-05
303.15	0.6	0.0033944	2.37e-05
308.15	0.6	0.0029205	2.19e-05
313.15	0.6	0.0025386	2.05e-05
298.15	1	0.0027817	2.18e-05
303.15	1	0.0024993	2.08e-05
308.15	1	0.0022064	1.97e-05
313.15	1	0.0019459	1.88e-05
