Measured thermophysical data. Measurements of CO2 H2O NaCl Solution Densities over a Wide Range of Temperatures, Pressures, and NaCl Concentrations
Source: J. Chem. Eng. Data, 2013, 10.1021/je400459y
Compound 1: water, H2O, InChI=1S/H2O/h1H2
Compound 2: carbon dioxide, CO2, InChI=1S/CO2/c2-1-3
Compound 3: sodium chloride, ClNa, InChI=1S/ClH.Na/h1H;/q;+1/p-1

System: carbon dioxide + sodium chloride + water; phases: Liquid
Fixed: Molality, mol/kg of sodium chloride = 1
Property: Mass density, kg/m3 (Liquid); method: MSONE:UFactor:8
Temperature, K	Pressure, kPa	Mass fraction of carbon dioxide	Mass density, kg/m3	uncertainty
332.83	10001	0	1025.96	1
332.88	12003	0	1026.78	1
333.11	14007	0	1027.52	1
332.77	16012	0	1028.34	1
332.96	18010	0	1029.12	1
353.2	9995	0	1014.63	0.99
352.65	12002	0	1015.47	0.99
353.2	13999	0	1016.06	0.99
353.32	16005	0	1016.79	0.99
353.28	17998	0	1017.65	0.99
373.16	10001	0	1001.31	0.98
373.03	12005	0	1002.25	0.98
373.03	14001	0	1003.21	0.98
372.96	16007	0	1003.93	0.98
373	18001	0	1004.74	0.98
392.6	10002	0	986.9	0.97
392.65	12008	0	987.5	0.97
392.65	14005	0	988.82	0.97
392.65	16001	0	989.54	0.97
392.65	18001	0	990.45	0.97
413.16	10006	0	970.45	0.96
413.17	12009	0	971.23	0.96
413.18	13998	0	972.24	0.96
413.12	16004	0	973.21	0.96
413.15	18001	0	974.15	0.96
332.93	10007	0.0101	1028.03	1
332.88	12004	0.0101	1028.82	1
333.01	13997	0.0101	1029.53	1
332.97	16002	0.0101	1030.34	1
332.89	18006	0.0101	1031.15	1
353.02	10003	0.0101	1016.16	0.99
353.02	12006	0.0101	1017.01	0.99
352.93	14009	0.0101	1017.87	0.99
352.94	15997	0.0101	1018.65	0.99
353	17999	0.0101	1019.41	0.99
373.02	9996	0.0101	1002.33	0.98
373.2	12001	0.0101	1003.18	0.98
373.18	13997	0.0101	1003.96	0.98
373.22	16002	0.0101	1004.85	0.98
373.12	17996	0.0101	1005.72	0.98
393.1	9999	0.0101	987.55	0.97
393.15	12008	0.0101	988.58	0.97
393.35	14002	0.0101	989.83	0.97
393.43	16008	0.0101	990.65	0.97
393.29	18000	0.0101	991.67	0.97
413.18	10001	0.0101	970.82	0.96
413.2	11997	0.0101	971.61	0.96
413.33	14004	0.0101	972.68	0.96
413.2	16007	0.0101	973.74	0.96
413.17	17998	0.0101	974.56	0.96
332.89	9997	0.0201	1029.33	1
332.98	12004	0.0201	1030.01	1
333.12	13997	0.0201	1030.83	1
333.2	16002	0.0201	1031.56	1
333.23	18006	0.0201	1032.33	1
353.23	10003	0.0201	1017.2	0.99
353.19	12008	0.0201	1018.04	0.99
353.27	14006	0.0201	1018.82	0.99
353.21	15997	0.0201	1019.74	0.99
353.23	18003	0.0201	1020.48	0.99
373.09	9999	0.0201	1003.7	0.98
373.13	12007	0.0201	1004.54	0.98
373.18	14003	0.0201	1005.36	0.98
373.22	15999	0.0201	1006.22	0.98
373.17	17992	0.0201	1007.08	0.98
393.25	9997	0.0201	988.97	0.97
393.14	12006	0.0201	990.02	0.97
393.26	14003	0.0201	990.85	0.97
393.19	16001	0.0201	991.84	0.97
393.25	18003	0.0201	992.65	0.97
413.08	9999	0.0201	971.1	0.96
413.34	12007	0.0201	972.12	0.96
413.24	14005	0.0201	973.17	0.96
413.28	16003	0.0201	974.03	0.96
413.24	18004	0.0201	975.11	0.96
333.19	10003	0.0298	1029.99	1
333.17	12001	0.0298	1030.75	1
333.2	13995	0.0298	1031.8	1
333.11	16002	0.0298	1032.51	1
333.11	17996	0.0298	1033.2	1
353.2	10001	0.0298	1018.56	0.99
353.04	12004	0.0298	1019.49	0.99
353	14002	0.0298	1020.23	0.99
353.28	16008	0.0298	1020.98	0.99
353.11	17997	0.0298	1021.85	0.99
373.18	10003	0.0298	1005.34	0.98
373.46	12001	0.0298	1006.35	0.98
372.96	14001	0.0298	1007.41	0.98
373.03	16001	0.0298	1008.24	0.98
373.16	18003	0.0298	1009.04	0.98
393.2	9996	0.0298	990.94	0.97
393.23	12002	0.0298	991.8	0.97
393.23	14001	0.0298	992.76	0.97
393.13	16003	0.0298	993.74	0.97
393.21	17998	0.0298	994.61	0.97
413.17	10006	0.0298	971.8	0.96
413.2	12005	0.0298	972.7	0.96
413.22	14006	0.0298	973.8	0.96
413.19	16004	0.0298	974.9	0.96
413.1	18001	0.0298	975.95	0.96

System: carbon dioxide + sodium chloride + water; phases: Liquid
Fixed: Molality, mol/kg of sodium chloride = 2
Property: Mass density, kg/m3 (Liquid); method: MSONE:UFactor:8
Temperature, K	Pressure, kPa	Mass fraction of carbon dioxide	Mass density, kg/m3	uncertainty
333.13	10014	0	1060.45	1.02
333.19	12008	0	1061.17	1.03
333.2	14003	0	1061.9	1.03
333.17	15999	0	1062.63	1.03
333.18	18011	0	1063.39	1.03
353.23	9996	0	1049.38	1.02
353.14	12005	0	1050.19	1.02
353.16	14003	0	1050.95	1.02
353.19	16007	0	1051.71	1.02
353.13	18026	0	1052.55	1.02
373.14	9994	0	1037.24	1.01
373.1	11999	0	1038.08	1.01
373.2	14002	0	1038.84	1.01
373.18	15997	0	1039.64	1.01
373.12	18003	0	1040.5	1.01
393.18	10003	0	1023.83	1
393.2	11995	0	1024.64	1
393.22	13999	0	1025.54	1
393.23	16003	0	1026.34	1
393.17	18005	0	1027.22	1
413.14	10008	0	1009.53	0.99
413.18	12003	0	1010.61	0.99
413.12	14007	0	1011.33	0.99
413.14	16003	0	1012.21	0.99
413.11	17998	0	1012.96	0.99
333.23	9997	0.0102	1063.5	1.03
333.26	12004	0.0102	1064	1.03
333.25	14007	0.0102	1064.55	1.03
333.26	16012	0.0102	1065.41	1.03
333.28	18005	0.0102	1066.16	1.03
353.23	10005	0.0102	1052.09	1.02
353.09	12017	0.0102	1052.82	1.02
353.2	14011	0.0102	1053.42	1.02
353.22	16007	0.0102	1054.21	1.02
353.19	18012	0.0102	1055.01	1.02
373.12	9998	0.0102	1039.01	1.01
373.07	12013	0.0102	1039.87	1.01
373.17	14007	0.0102	1040.57	1.01
373.16	16014	0.0102	1041.51	1.01
373.27	18008	0.0102	1042.18	1.01
393.13	10005	0.0102	1025.22	1
393.12	11997	0.0102	1025.82	1
393	13995	0.0102	1026.63	1
393.07	16001	0.0102	1027.3	1
393.07	18011	0.0102	1028.01	1
413.07	10002	0.0102	1010.01	0.99
413.06	12008	0.0102	1011.04	0.99
413.09	14003	0.0102	1011.65	0.99
413.09	16001	0.0102	1013	0.99
413.01	18005	0.0102	1013.83	0.99
333.13	10009	0.0203	1065.18	1.03
333.18	12004	0.0203	1065.86	1.03
333.18	14006	0.0203	1066.55	1.03
333.14	16003	0.0203	1067.28	1.03
333.08	18007	0.0203	1068.04	1.03
353.2	10003	0.0203	1053.63	1.02
353.21	11996	0.0203	1054.27	1.02
353.24	13999	0.0203	1054.95	1.02
353.29	16006	0.0203	1055.64	1.02
353.26	18014	0.0203	1056.27	1.02
373.19	10006	0.0203	1040.21	1.01
373.19	12001	0.0203	1040.95	1.01
373.26	14006	0.0203	1041.47	1.01
373.22	16012	0.0203	1042.05	1.01
373.24	18006	0.0203	1042.78	1.01
393.23	10004	0.0203	1025.73	1
393.11	11999	0.0203	1026.12	1
393.07	14006	0.0203	1027.14	1
393.21	16008	0.0203	1027.72	1
393.14	18011	0.0203	1028.43	1
413.2	10006	0.0203	1010.51	0.99
413.2	12009	0.0203	1011.41	0.99
413.18	14005	0.0203	1012.2	0.99
413.2	16001	0.0203	1013.25	0.99
413.19	18005	0.0203	1014.2	0.99
333.41	9997	0.0299	1067.02	1.03
333.44	12002	0.0299	1067.6	1.03
333.42	14001	0.0299	1068.18	1.03
333.4	16004	0.0299	1068.77	1.03
333.42	18001	0.0299	1069.35	1.03
353.08	9995	0.0299	1054.73	1.02
353.09	12001	0.0299	1055.33	1.02
353.1	14005	0.0299	1055.96	1.02
353.2	16007	0.0299	1056.55	1.02
353.24	18004	0.0299	1057.12	1.02
373.18	9997	0.0299	1040.57	1.01
373.16	12005	0.0299	1041.21	1.01
373.19	14005	0.0299	1041.89	1.01
373.16	15999	0.0299	1042.52	1.01
373.18	18002	0.0299	1043.21	1.01
393.1	10004	0.0299	1026.02	1
393.13	12002	0.0299	1026.59	1
393.14	14003	0.0299	1027.51	1
393.07	15995	0.0299	1028.22	1
393.16	18004	0.0299	1029.02	1
413.17	10004	0.0299	1011	0.99
412.89	12002	0.0299	1011.9	0.99
412.9	14002	0.0299	1012.48	0.99
413.03	16004	0.0299	1013.5	0.99
412.98	18001	0.0299	1014.23	0.99

System: carbon dioxide + sodium chloride + water; phases: Liquid
Fixed: Molality, mol/kg of sodium chloride = 3
Property: Mass density, kg/m3 (Liquid); method: MSONE:UFactor:8
Temperature, K	Pressure, kPa	Mass fraction of carbon dioxide	Mass density, kg/m3	uncertainty
333.19	10002	0	1089.97	1.05
333.13	12007	0	1090.92	1.05
333.13	14002	0	1091.64	1.05
333.21	16006	0	1092.36	1.05
333.16	18002	0	1093.07	1.05
353.23	10007	0	1078.28	1.04
353.27	12003	0	1079.02	1.04
353.16	14002	0	1079.82	1.04
353.23	16008	0	1080.53	1.04
353.28	18002	0	1081.24	1.04
373.11	10005	0	1066.26	1.03
373.17	12008	0	1067.01	1.03
373.16	14004	0	1067.77	1.03
373.22	16005	0	1068.52	1.03
373.11	17997	0	1069.36	1.03
393.17	10001	0	1053.22	1.02
393.24	12008	0	1053.85	1.02
393.09	14006	0	1054.75	1.02
393.17	16002	0	1055.54	1.02
393.26	17997	0	1056.25	1.02
413.23	10007	0	1038.23	1.01
413.2	12005	0	1038.72	1.01
413.16	14001	0	1039.71	1.01
413.17	16001	0	1040.63	1.01
413.14	18004	0	1041.53	1.01
333.19	10002	0.0105	1093.31	1.05
333.06	12004	0.0105	1094.03	1.05
333.13	14002	0.0105	1095.08	1.05
333.21	16006	0.0105	1096.13	1.05
333.16	18002	0.0105	1096.71	1.05
353.23	10002	0.0105	1079.88	1.04
353.23	12012	0.0105	1080.82	1.04
353.17	14005	0.0105	1081.56	1.04
353.18	16001	0.0105	1082.33	1.04
353.26	17997	0.0105	1083.06	1.04
373.14	10007	0.0105	1068.21	1.03
373.14	12003	0.0105	1068.96	1.03
373.16	14004	0.0105	1069.7	1.03
373.11	16008	0.0105	1070.45	1.03
373.12	18002	0.0105	1071.32	1.03
393.23	10009	0.0105	1053.87	1.02
393.16	12007	0.0105	1054.7	1.02
393.09	14006	0.0105	1055.53	1.02
393.09	16005	0.0105	1056.33	1.02
393.13	18010	0.0105	1057.11	1.02
413.2	10002	0.0105	1038.85	1.01
413.12	11999	0.0105	1039.63	1.01
413.23	14008	0.0105	1040.58	1.01
413.2	16007	0.0105	1041.46	1.01
413.17	18004	0.0105	1042.02	1.01
333.37	10002	0.0201	1095.3	1.05
333.35	12004	0.0201	1096.11	1.05
333.18	14020	0.0201	1097.28	1.05
333.21	16005	0.0201	1098.08	1.05
333.39	17999	0.0201	1098.69	1.05
353.36	10005	0.0201	1081.35	1.04
353.37	12006	0.0201	1082.1	1.04
353.4	14002	0.0201	1082.94	1.04
353.39	16008	0.0201	1083.62	1.04
353.42	18002	0.0201	1084.31	1.04
373.22	10007	0.0201	1068.71	1.03
373.18	12004	0.0201	1069.57	1.03
373.27	14001	0.0201	1070.33	1.03
373.31	16007	0.0201	1071.13	1.03
373.32	18001	0.0201	1071.94	1.03
393.17	10001	0.0201	1054.87	1.02
393.24	12008	0.0201	1055.69	1.02
393.36	14005	0.0201	1056.65	1.02
393.4	16002	0.0201	1057.32	1.02
393.41	17997	0.0201	1058.03	1.02
413.23	10007	0.0201	1039.59	1.01
413.2	12005	0.0201	1040.31	1.01
413.16	14001	0.0201	1041.08	1.01
413.17	16001	0.0201	1042.17	1.01
413.14	18004	0.0201	1043.54	1.01
332.35	10001	0.0305	1098.74	1.05
332.36	12010	0.0305	1099.81	1.06
332.46	14006	0.0305	1100.56	1.06
332.4	16001	0.0305	1101.02	1.06
332.51	17993	0.0305	1101.78	1.06
351.98	10003	0.0305	1083.53	1.04
352.93	12007	0.0305	1084.33	1.04
352.88	14011	0.0305	1085	1.04
353.03	15998	0.0305	1086.21	1.04
352.98	18002	0.0305	1087.84	1.05
373.29	9993	0.0305	1069.32	1.03
373.21	12003	0.0305	1070.25	1.03
373.2	14002	0.0305	1071.27	1.03
373.17	15994	0.0305	1072.54	1.03
373.18	18005	0.0305	1072.8	1.03
393.37	9996	0.0305	1055.84	1.02
393.37	11996	0.0305	1056.78	1.02
393.34	13998	0.0305	1057.4	1.02
393.31	16005	0.0305	1058	1.02
393.43	18006	0.0305	1058.98	1.02
413.17	10004	0.0305	1041.24	1.01
413.21	12011	0.0305	1041.73	1.01
413.23	14013	0.0305	1042.33	1.01
413.12	16021	0.0305	1043.21	1.01
413.18	17997	0.0305	1044.31	1.01

System: carbon dioxide + sodium chloride + water; phases: Liquid
Fixed: Molality, mol/kg of sodium chloride = 4
Property: Mass density, kg/m3 (Liquid); method: MSONE:UFactor:8
Temperature, K	Pressure, kPa	Mass fraction of carbon dioxide	Mass density, kg/m3	uncertainty
333.59	10007	0	1120.38	1.07
333.54	12004	0	1121.22	1.07
333.56	14008	0	1122.36	1.07
333.52	15999	0	1123.12	1.07
333.55	18008	0	1124.3	1.07
352.11	10000	0	1109.5	1.06
352.16	12008	0	1109.8	1.06
352.17	14050	0	1111.1	1.06
352.19	16005	0	1111.53	1.06
352.14	18001	0	1112.67	1.07
372.72	10019	0	1097.2	1.05
372.76	12007	0	1098.5	1.05
372.71	14005	0	1099	1.05
372.75	16043	0	1100.12	1.06
372.7	18017	0	1100.7	1.06
392.79	10006	0	1086.96	1.05
392.81	12002	0	1087.71	1.05
392.77	14002	0	1088.52	1.05
392.78	15999	0	1089.3	1.05
392.82	18008	0	1090.43	1.05
412.86	10007	0	1072.35	1.03
412.92	12005	0	1073.15	1.03
412.94	14004	0	1073.97	1.04
413.01	16003	0	1074.76	1.04
413.06	18002	0	1075.53	1.04
332.9	9999	0.0102	1122.57	1.07
332.9	12005	0.0102	1123.29	1.07
332.94	14005	0.0102	1124.26	1.07
332.89	16002	0.0102	1124.92	1.08
332.91	18010	0.0102	1125.81	1.08
353.2	10007	0.0102	1109.55	1.06
353.21	12004	0.0102	1110.26	1.06
353.24	14008	0.0102	1111.41	1.06
353.29	15999	0.0102	1112.45	1.07
353.26	18008	0.0102	1113.21	1.07
373.12	10007	0.0102	1098.46	1.05
373.07	12005	0.0102	1099.17	1.06
373.17	14004	0.0102	1099.44	1.06
373.16	16003	0.0102	1100.6	1.06
373.27	18002	0.0102	1100.71	1.06
392.39	10004	0.0102	1086.83	1.05
392.54	12004	0.0102	1087.65	1.05
392.46	14001	0.0102	1088.47	1.05
392.48	16005	0.0102	1089.2	1.05
392.51	18005	0.0102	1090.31	1.05
412.89	10006	0.0102	1071.71	1.03
412.94	12004	0.0102	1072.49	1.03
412.93	13997	0.0102	1073.37	1.03
412.96	16005	0.0102	1074.16	1.04
412.84	18004	0.0102	1075.04	1.04
333.75	10002	0.0204	1124.07	1.07
333.54	12008	0.0204	1125.04	1.08
333.63	14006	0.0204	1125.68	1.08
333.58	16003	0.0204	1126.38	1.08
333.57	18008	0.0204	1127.05	1.08
353.23	9995	0.0204	1113.27	1.07
353.16	11998	0.0204	1113.88	1.07
353.29	14007	0.0204	1114.45	1.07
353.28	16004	0.0204	1115.13	1.07
353.22	18009	0.0204	1115.91	1.07
373.17	10004	0.0204	1099.59	1.06
373.08	11998	0.0204	1100.31	1.06
373.17	14005	0.0204	1100.94	1.06
373.2	16007	0.0204	1101.63	1.06
373.2	18004	0.0204	1102.38	1.06
393.6	9945	0.0204	1086.71	1.05
393.7	11998	0.0204	1087.51	1.05
393.7	14007	0.0204	1088.38	1.05
393.63	16004	0.0204	1089.1	1.05
393.67	18004	0.0204	1090.2	1.05
414.03	10004	0.0204	1071.14	1.03
414.36	12001	0.0204	1072.05	1.03
414.16	14001	0.0204	1073.05	1.03
414.09	16001	0.0204	1073.86	1.04
414.19	18002	0.0204	1074.57	1.04
332.3	9999	0.0302	1125.41	1.08
332.32	12003	0.0302	1126.25	1.08
332.27	14001	0.0302	1126.97	1.08
332.26	16005	0.0302	1127.67	1.08
332.28	18010	0.0302	1128.55	1.08
352.9	10006	0.0302	1113.56	1.07
352.44	12002	0.0302	1114.43	1.07
352.63	14001	0.0302	1115.33	1.07
352.52	16012	0.0302	1116.11	1.07
352.5	18009	0.0302	1117.03	1.07
372.49	10002	0.0302	1100.31	1.06
372.31	12007	0.0302	1100.67	1.06
372.53	14001	0.0302	1101.27	1.06
372.6	16010	0.0302	1102.01	1.06
372.53	18011	0.0302	1102.92	1.06
392.8	10002	0.0302	1086.69	1.05
392.99	12005	0.0302	1087.45	1.05
392.73	14006	0.0302	1088.25	1.05
392.86	16008	0.0302	1088.97	1.05
392.76	18001	0.0302	1090.17	1.05
412.8	10009	0.0302	1070.55	1.03
412.95	12009	0.0302	1071.64	1.03
413.17	14009	0.0302	1072.63	1.03
412.95	16008	0.0302	1073.53	1.03
413.03	18005	0.0302	1074.28	1.04

System: sodium chloride + water; phases: Liquid
Property: Mass density, kg/m3 (Liquid); method: MSONE:UFactor:8
Temperature, K	Pressure, kPa	Molality, mol/kg of sodium chloride	Mass density, kg/m3	uncertainty
332.83	10001	1	1025.96	1
332.88	12003	1	1026.78	1
333.11	14007	1	1027.52	1
332.77	16012	1	1028.34	1
332.96	18010	1	1029.12	1
353.2	9995	1	1014.63	0.99
352.65	12002	1	1015.47	0.99
353.2	13999	1	1016.06	0.99
353.32	16005	1	1016.79	0.99
353.28	17998	1	1017.65	0.99
373.16	10001	1	1001.31	0.98
373.03	12005	1	1002.25	0.98
373.03	14001	1	1003.21	0.98
372.96	16007	1	1003.93	0.98
373	18001	1	1004.74	0.98
392.6	10002	1	986.9	0.97
392.65	12008	1	987.5	0.97
392.65	14005	1	988.82	0.97
392.65	16001	1	989.54	0.97
392.65	18001	1	990.45	0.97
413.16	10006	1	970.45	0.96
413.17	12009	1	971.23	0.96
413.18	13998	1	972.24	0.96
413.12	16004	1	973.21	0.96
413.15	18001	1	974.15	0.96
333.13	10014	2	1060.45	1.02
333.19	12008	2	1061.17	1.03
333.2	14003	2	1061.9	1.03
333.17	15999	2	1062.63	1.03
333.18	18011	2	1063.39	1.03
353.23	9996	2	1049.38	1.02
353.14	12005	2	1050.19	1.02
353.16	14003	2	1050.95	1.02
353.19	16007	2	1051.71	1.02
353.13	18026	2	1052.55	1.02
373.14	9994	2	1037.24	1.01
373.1	11999	2	1038.08	1.01
373.2	14002	2	1038.84	1.01
373.18	15997	2	1039.64	1.01
373.12	18003	2	1040.5	1.01
393.18	10003	2	1023.83	1
393.2	11995	2	1024.64	1
393.22	13999	2	1025.54	1
393.23	16003	2	1026.34	1
393.17	18005	2	1027.22	1
413.14	10008	2	1009.53	0.99
413.18	12003	2	1010.61	0.99
413.12	14007	2	1011.33	0.99
413.14	16003	2	1012.21	0.99
413.11	17998	2	1012.96	0.99
333.19	10002	3	1089.97	1.05
333.13	12007	3	1090.92	1.05
333.13	14002	3	1091.64	1.05
333.21	16006	3	1092.36	1.05
333.16	18002	3	1093.07	1.05
353.23	10007	3	1078.28	1.04
353.27	12003	3	1079.02	1.04
353.16	14002	3	1079.82	1.04
353.23	16008	3	1080.53	1.04
353.28	18002	3	1081.24	1.04
373.11	10005	3	1066.26	1.03
373.17	12008	3	1067.01	1.03
373.16	14004	3	1067.77	1.03
373.22	16005	3	1068.52	1.03
373.11	17997	3	1069.36	1.03
393.17	10001	3	1053.22	1.02
393.24	12008	3	1053.85	1.02
393.09	14006	3	1054.75	1.02
393.17	16002	3	1055.54	1.02
393.26	17997	3	1056.25	1.02
413.23	10007	3	1038.23	1.01
413.2	12005	3	1038.72	1.01
413.16	14001	3	1039.71	1.01
413.17	16001	3	1040.63	1.01
413.14	18004	3	1041.53	1.01
333.59	10007	4	1120.38	1.07
333.54	12004	4	1121.22	1.07
333.56	14008	4	1122.36	1.07
333.52	15999	4	1123.12	1.07
333.55	18008	4	1124.3	1.07
352.11	10000	4	1109.5	1.06
352.16	12008	4	1109.8	1.06
352.17	14050	4	1111.1	1.06
352.19	16005	4	1111.53	1.06
352.14	18001	4	1112.67	1.07
372.72	10019	4	1097.2	1.05
372.76	12007	4	1098.5	1.05
372.71	14005	4	1099	1.05
372.75	16043	4	1100.12	1.06
372.7	18017	4	1100.7	1.06
392.79	10006	4	1086.96	1.05
392.81	12002	4	1087.71	1.05
392.77	14002	4	1088.52	1.05
392.78	15999	4	1089.3	1.05
392.82	18008	4	1090.43	1.05
412.86	10007	4	1072.35	1.03
412.92	12005	4	1073.15	1.03
412.94	14004	4	1073.97	1.04
413.01	16003	4	1074.76	1.04
413.06	18002	4	1075.53	1.04
