Measured thermophysical data. Densities and Viscosities of Binary Mixtures of 2-Butanol + Isobutanol, 2-Butanol + tert-Butanol, and Isobutanol + tert-Butanol from (308.15 to 343.15) K
Source: J. Chem. Eng. Data, 2013, 10.1021/je400423u
Compound 1: butan-2-ol, C4H10O, InChI=1S/C4H10O/c1-3-4(2)5/h4-5H,3H2,1-2H3, purity 99.5%
Compound 2: 2-methyl-1-propanol, C4H10O, InChI=1S/C4H10O/c1-4(2)3-5/h4-5H,3H2,1-2H3, purity 99.8%
Compound 3: 2-methylpropan-2-ol, C4H10O, InChI=1S/C4H10O/c1-4(2,3)5/h5H,1-3H3, purity 99.8%

System: butan-2-ol; phases: Liquid
Fixed: Pressure, kPa = 101
Property: Mass density, kg/m3 (Liquid); method: Vibrating tube method
Temperature, K	Mass density, kg/m3	uncertainty
308.15	794.05	0.143
313.15	789.65	0.144
318.15	785.15	0.145
323.15	780.55	0.147
328.15	775.83	0.148
333.15	770.99	0.15
338.15	766.03	0.152
343.15	760.96	0.153

System: butan-2-ol; phases: Liquid
Fixed: Pressure, kPa = 101
Property: Viscosity, Pa*s (Liquid); method: Falling or rolling sphere viscometry
Temperature, K	Viscosity, Pa*s	uncertainty
308.15	0.002128	1.74e-05
313.15	0.001822	1.49e-05
318.15	0.001533	1.26e-05
323.15	0.001315	1.08e-05
333.15	0.001025	8.7e-06

System: 2-methyl-1-propanol; phases: Liquid
Fixed: Pressure, kPa = 101
Property: Mass density, kg/m3 (Liquid); method: Vibrating tube method
Temperature, K	Mass density, kg/m3	uncertainty
308.15	790.12	0.118
313.15	786.12	0.12
318.15	782.06	0.121
323.15	777.93	0.123
328.15	773.73	0.124
333.15	769.44	0.126
338.15	765.07	0.128
343.15	760.61	0.13

System: 2-methyl-1-propanol; phases: Liquid
Fixed: Pressure, kPa = 101
Property: Viscosity, Pa*s (Liquid); method: Falling or rolling sphere viscometry
Temperature, K	Viscosity, Pa*s	uncertainty
308.15	0.002382	1.87e-05
313.15	0.002116	1.66e-05
318.15	0.001861	1.46e-05
323.15	0.001602	1.26e-05

System: 2-methylpropan-2-ol; phases: Liquid
Fixed: Pressure, kPa = 101
Property: Mass density, kg/m3 (Liquid); method: Vibrating tube method
Temperature, K	Mass density, kg/m3	uncertainty
308.15	770.36	0.126
313.15	765.07	0.128
318.15	759.67	0.13
323.15	754.19	0.132
328.15	748.62	0.134
333.15	742.95	0.136
338.15	737.19	0.139
343.15	731.31	0.141

System: 2-methylpropan-2-ol; phases: Liquid
Fixed: Pressure, kPa = 101
Property: Viscosity, Pa*s (Liquid); method: Falling or rolling sphere viscometry
Temperature, K	Viscosity, Pa*s	uncertainty
308.15	0.002589	2.03e-05
313.15	0.002089	1.64e-05
318.15	0.00169	1.33e-05
323.15	0.001409	1.11e-05

System: 2-methyl-1-propanol + butan-2-ol; phases: Liquid
Fixed: Pressure, kPa = 101
Property: Mass density, kg/m3 (Liquid); method: Vibrating tube method
Temperature, K	Mole fraction of butan-2-ol	Mass density, kg/m3	uncertainty
303.15	0.1009	794.484	0.118
303.15	0.2	794.891	0.12
303.15	0.3008	795.309	0.122
303.15	0.4	795.723	0.124
303.15	0.5002	796.151	0.126
303.15	0.5999	796.585	0.129
303.15	0.7004	797.029	0.132
303.15	0.8007	797.475	0.135
303.15	0.9005	797.918	0.138
308.15	0.1009	790.501	0.12
308.15	0.2	790.872	0.121
308.15	0.3008	791.253	0.123
308.15	0.4	791.633	0.125
308.15	0.5002	792.024	0.128
308.15	0.5999	792.423	0.13
308.15	0.7004	792.831	0.133
308.15	0.8007	793.242	0.136
308.15	0.9005	793.65	0.139
308.15	1	794.05	0.143
313.15	0.1009	786.45	0.121
313.15	0.2	786.78	0.123
313.15	0.3008	787.122	0.125
313.15	0.4	787.465	0.127
313.15	0.5002	787.818	0.129
313.15	0.5999	788.177	0.132
313.15	0.7004	788.546	0.134
313.15	0.8007	788.917	0.137
313.15	0.9005	789.288	0.141
313.15	1	789.65	0.144
318.15	0.1009	782.34	0.123
318.15	0.2	782.624	0.124
318.15	0.3008	782.922	0.126
318.15	0.4	783.222	0.128
318.15	0.5002	783.533	0.131
318.15	0.5999	783.848	0.133
318.15	0.7004	784.171	0.136
318.15	0.8007	784.497	0.139
318.15	0.9005	784.827	0.142
318.15	1	785.15	0.145
323.15	0.1009	778.155	0.124
323.15	0.2	778.391	0.126
323.15	0.3008	778.641	0.128
323.15	0.4	778.895	0.13
323.15	0.5002	779.158	0.132
323.15	0.5999	779.423	0.135
323.15	0.7004	779.696	0.137
323.15	0.8007	779.974	0.14
323.15	0.9005	780.258	0.144
323.15	1	780.55	0.147
328.15	0.1009	773.896	0.126
328.15	0.2	774.077	0.128
328.15	0.3008	774.275	0.129
328.15	0.4	774.479	0.132
328.15	0.5002	774.689	0.134
328.15	0.5999	774.903	0.136
328.15	0.7004	775.122	0.139
328.15	0.8007	775.348	0.142
328.15	0.9005	775.581	0.145
328.15	1	775.83	0.148
333.15	0.1009	769.551	0.128
333.15	0.2	769.674	0.129
333.15	0.3008	769.816	0.131
333.15	0.4	769.965	0.133
333.15	0.5002	770.119	0.135
333.15	0.5999	770.277	0.138
333.15	0.7004	770.441	0.141
333.15	0.8007	770.611	0.144
333.15	0.9005	770.793	0.147
333.15	1	770.99	0.15
338.15	0.1009	765.116	0.129
338.15	0.2	765.18	0.131
338.15	0.3008	765.264	0.133
338.15	0.4	765.355	0.135
338.15	0.5002	765.452	0.137
338.15	0.5999	765.551	0.14
338.15	0.7004	765.654	0.142
338.15	0.8007	765.765	0.145
338.15	0.9005	765.89	0.148
338.15	1	766.03	0.152
343.15	0.1009	760.581	0.131
343.15	0.2	760.585	0.133
343.15	0.3008	760.608	0.135
343.15	0.4	760.64	0.137
343.15	0.5002	760.676	0.139
343.15	0.5999	760.714	0.141
343.15	0.7004	760.754	0.144
343.15	0.8007	760.802	0.147
343.15	0.9005	760.867	0.15
343.15	1	760.96	0.153

System: 2-methyl-1-propanol + butan-2-ol; phases: Liquid
Fixed: Pressure, kPa = 101
Property: Viscosity, Pa*s (Liquid); method: Falling or rolling sphere viscometry
Temperature, K	Mole fraction of butan-2-ol	Viscosity, Pa*s	uncertainty
308.15	0.1009	0.0024434	1.92e-05
308.15	0.2	0.002386	1.88e-05
308.15	0.3008	0.0023367	1.85e-05
308.15	0.4	0.0022915	1.82e-05
308.15	0.5002	0.0022484	1.79e-05
308.15	0.5999	0.0022061	1.77e-05
308.15	0.7004	0.002168	1.75e-05
308.15	0.8007	0.0021391	1.73e-05
308.15	0.9005	0.0021265	1.73e-05
308.15	1	0.002128	1.74e-05
313.15	0.1009	0.0021069	1.66e-05
313.15	0.2	0.0020525	1.62e-05
313.15	0.3008	0.0020052	1.59e-05
313.15	0.4	0.0019621	1.56e-05
313.15	0.5002	0.0019201	1.53e-05
313.15	0.5999	0.0018809	1.51e-05
313.15	0.7004	0.0018445	1.49e-05
313.15	0.8007	0.0018158	1.47e-05
313.15	0.9005	0.0018044	1.47e-05
313.15	1	0.001822	1.49e-05
318.15	0.1009	0.0018243	1.44e-05
318.15	0.2	0.0017723	1.4e-05
318.15	0.3008	0.0017273	1.37e-05
318.15	0.4	0.0016855	1.34e-05
318.15	0.5002	0.0016456	1.32e-05
318.15	0.5999	0.0016082	1.29e-05
318.15	0.7004	0.0015754	1.27e-05
318.15	0.8007	0.0015509	1.26e-05
318.15	0.9005	0.0015403	1.26e-05
318.15	1	0.001533	1.26e-05
323.15	0.1009	0.0015902	1.25e-05
323.15	0.2	0.0015442	1.22e-05
323.15	0.3008	0.0014999	1.19e-05
323.15	0.4	0.0014597	1.16e-05
323.15	0.5002	0.0014217	1.14e-05
323.15	0.5999	0.0013873	1.11e-05
323.15	0.7004	0.0013575	1.1e-05
323.15	0.8007	0.0013363	1.08e-05
323.15	0.9005	0.0013264	1.08e-05
323.15	1	0.001315	1.08e-05
328.15	0.1009	0.0013927	1.1e-05
328.15	0.2	0.0013503	1.07e-05
328.15	0.3008	0.0013086	1.04e-05
328.15	0.4	0.0012704	1.01e-05
328.15	0.5002	0.0012352	9.9e-06
328.15	0.5999	0.0012041	9.8e-06
328.15	0.7004	0.0011782	9.6e-06
328.15	0.8007	0.0011606	9.5e-06
328.15	0.9005	0.0011524	9.5e-06
333.15	0.1009	0.0012249	9.7e-06
333.15	0.2	0.0011862	9.5e-06
333.15	0.3008	0.0011475	9.3e-06
333.15	0.4	0.0011119	9.1e-06
333.15	0.5002	0.0010795	8.9e-06
333.15	0.5999	0.0010511	8.7e-06
333.15	0.7004	0.0010289	8.6e-06
333.15	0.8007	0.001014	8.6e-06
333.15	0.9005	0.0010061	8.6e-06
333.15	1	0.001025	8.7e-06
338.15	0.1009	0.0010819	8.8e-06
338.15	0.2	0.0010471	8.6e-06
338.15	0.3008	0.0010122	8.4e-06
338.15	0.4	0.0009794	8.2e-06
338.15	0.5002	0.0009497	8.1e-06
338.15	0.5999	0.0009246	7.9e-06
338.15	0.7004	0.0009053	7.8e-06
338.15	0.8007	0.0008922	7.8e-06
338.15	0.9005	0.0008861	7.8e-06
343.15	0.1009	0.0009613	8e-06
343.15	0.2	0.0009301	7.9e-06
343.15	0.3008	0.0008988	7.7e-06
343.15	0.4	0.0008691	7.5e-06
343.15	0.5002	0.0008429	7.4e-06
343.15	0.5999	0.0008207	7.3e-06
343.15	0.7004	0.0008035	7.2e-06
343.15	0.8007	0.0007921	7.2e-06
343.15	0.9005	0.0007862	7.2e-06

System: 2-methylpropan-2-ol + butan-2-ol; phases: Liquid
Fixed: Pressure, kPa = 101
Property: Mass density, kg/m3 (Liquid); method: Vibrating tube method
Temperature, K	Mole fraction of butan-2-ol	Mass density, kg/m3	uncertainty
308.15	0	770.36	0.126
308.15	0.1002	772.862	0.126
308.15	0.2001	775.563	0.127
308.15	0.3008	778.356	0.128
308.15	0.3999	781.092	0.13
308.15	0.5005	783.761	0.131
308.15	0.6004	786.229	0.133
308.15	0.6999	788.492	0.135
308.15	0.8009	790.567	0.137
308.15	0.8998	792.397	0.14
313.15	0	765.07	0.128
313.15	0.1002	767.728	0.128
313.15	0.2001	770.539	0.129
313.15	0.3008	773.423	0.13
313.15	0.3999	776.226	0.131
313.15	0.5005	778.999	0.133
313.15	0.6004	781.558	0.134
313.15	0.6999	783.915	0.136
313.15	0.8009	786.091	0.138
313.15	0.8998	787.978	0.141
318.15	0	759.67	0.13
318.15	0.1002	762.547	0.13
318.15	0.2001	765.501	0.131
318.15	0.3008	768.478	0.132
318.15	0.3999	771.356	0.133
318.15	0.5005	774.194	0.135
318.15	0.6004	776.85	0.136
318.15	0.6999	779.306	0.138
318.15	0.8009	781.558	0.14
318.15	0.8998	783.501	0.142
323.15	0	754.19	0.132
323.15	0.1002	757.329	0.132
323.15	0.2001	760.468	0.133
323.15	0.3008	763.574	0.134
323.15	0.3999	766.546	0.135
323.15	0.5005	769.452	0.136
323.15	0.6004	772.176	0.138
323.15	0.6999	774.689	0.139
323.15	0.8009	776.998	0.141
323.15	0.8998	778.948	0.144
328.15	0	748.62	0.134
328.15	0.1002	752.053	0.134
328.15	0.2001	755.328	0.135
328.15	0.3008	758.481	0.136
328.15	0.3999	761.481	0.137
328.15	0.5005	764.427	0.138
328.15	0.6004	767.214	0.139
328.15	0.6999	769.823	0.141
328.15	0.8009	772.229	0.143
328.15	0.8998	774.252	0.146
333.15	0	742.95	0.136
333.15	0.1002	746.671	0.136
333.15	0.2001	750.068	0.137
333.15	0.3008	753.262	0.138
333.15	0.3999	756.271	0.139
333.15	0.5005	759.241	0.14
333.15	0.6004	762.081	0.141
333.15	0.6999	764.795	0.143
333.15	0.8009	767.312	0.145
333.15	0.8998	769.418	0.147
338.15	0	737.19	0.139
338.15	0.1002	741.149	0.138
338.15	0.2001	744.63	0.139
338.15	0.3008	747.865	0.14
338.15	0.3999	750.893	0.141
338.15	0.5005	753.913	0.142
338.15	0.6004	756.832	0.143
338.15	0.6999	759.643	0.145
338.15	0.8009	762.272	0.146
338.15	0.8998	764.451	0.149
343.15	0	731.31	0.141
343.15	0.1002	735.411	0.141
343.15	0.2001	738.998	0.141
343.15	0.3008	742.315	0.142
343.15	0.3999	745.431	0.143
343.15	0.5005	748.529	0.144
343.15	0.6004	751.539	0.145
343.15	0.6999	754.435	0.146
343.15	0.8009	757.148	0.148
343.15	0.8998	759.383	0.15

System: 2-methylpropan-2-ol + butan-2-ol; phases: Liquid
Fixed: Pressure, kPa = 101
Property: Viscosity, Pa*s (Liquid); method: Falling or rolling sphere viscometry
Temperature, K	Mole fraction of butan-2-ol	Viscosity, Pa*s	uncertainty
308.15	0	0.002589	2.03e-05
308.15	0.1002	0.0025114	1.98e-05
308.15	0.2001	0.0024622	1.94e-05
308.15	0.3008	0.0024141	1.91e-05
308.15	0.3999	0.0023679	1.88e-05
308.15	0.5005	0.0023218	1.85e-05
308.15	0.6004	0.0022777	1.83e-05
308.15	0.6999	0.0022365	1.8e-05
308.15	0.8009	0.0021989	1.78e-05
308.15	0.8998	0.0021678	1.76e-05
313.15	0	0.002089	1.64e-05
313.15	0.1002	0.002032	1.6e-05
313.15	0.2001	0.0020005	1.58e-05
313.15	0.3008	0.0019698	1.56e-05
313.15	0.3999	0.0019406	1.54e-05
313.15	0.5005	0.0019122	1.53e-05
313.15	0.6004	0.0018862	1.51e-05
313.15	0.6999	0.0018628	1.5e-05
313.15	0.8009	0.0018427	1.49e-05
313.15	0.8998	0.0018279	1.49e-05
318.15	0	0.00169	1.33e-05
318.15	0.1002	0.0016708	1.32e-05
318.15	0.2001	0.0016512	1.31e-05
318.15	0.3008	0.0016316	1.29e-05
318.15	0.3999	0.0016133	1.28e-05
318.15	0.5005	0.0015962	1.28e-05
318.15	0.6004	0.0015812	1.27e-05
318.15	0.6999	0.001569	1.27e-05
318.15	0.8009	0.0015596	1.26e-05
318.15	0.8998	0.001554	1.27e-05
323.15	0	0.001409	1.11e-05
323.15	0.1002	0.0013935	1.1e-05
323.15	0.2001	0.0013822	1.09e-05
323.15	0.3008	0.0013706	1.09e-05
323.15	0.3999	0.0013603	1.08e-05
323.15	0.5005	0.0013509	1.08e-05
323.15	0.6004	0.0013434	1.08e-05
323.15	0.6999	0.0013379	1.08e-05
323.15	0.8009	0.0013344	1.08e-05
323.15	0.8998	0.001333	1.09e-05
328.15	0.1002	0.0011779	9.4e-06
328.15	0.2001	0.0011713	9.4e-06
328.15	0.3008	0.0011642	9.4e-06
328.15	0.3999	0.0011584	9.4e-06
328.15	0.5005	0.0011538	9.4e-06
328.15	0.6004	0.0011507	9.4e-06
328.15	0.6999	0.0011496	9.4e-06
328.15	0.8009	0.0011503	9.5e-06
328.15	0.8998	0.0011526	9.5e-06
333.15	0.1002	0.001007	8.3e-06
333.15	0.2001	0.0010033	8.3e-06
333.15	0.3008	0.0009994	8.3e-06
333.15	0.3999	0.0009962	8.3e-06
333.15	0.5005	0.0009947	8.3e-06
333.15	0.6004	0.0009943	8.4e-06
333.15	0.6999	0.000996	8.4e-06
333.15	0.8009	0.0009994	8.5e-06
333.15	0.8998	0.0010035	8.5e-06
338.15	0.1002	0.0008692	7.5e-06
338.15	0.2001	0.0008679	7.5e-06
338.15	0.3008	0.0008665	7.5e-06
338.15	0.3999	0.0008654	7.5e-06
338.15	0.5005	0.0008659	7.5e-06
338.15	0.6004	0.0008678	7.6e-06
338.15	0.6999	0.0008713	7.6e-06
338.15	0.8009	0.000876	7.7e-06
338.15	0.8998	0.0008813	7.7e-06
343.15	0.1002	0.0007586	6.8e-06
343.15	0.2001	0.0007589	6.8e-06
343.15	0.3008	0.0007593	6.8e-06
343.15	0.3999	0.0007601	6.9e-06
343.15	0.5005	0.0007616	6.9e-06
343.15	0.6004	0.0007648	6.9e-06
343.15	0.6999	0.000769	7e-06
343.15	0.8009	0.0007743	7.1e-06
343.15	0.8998	0.0007798	7.1e-06

System: 2-methylpropan-2-ol + 2-methyl-1-propanol; phases: Liquid
Fixed: Pressure, kPa = 101
Property: Mass density, kg/m3 (Liquid); method: Vibrating tube method
Temperature, K	Mole fraction of 2-methyl-1-propanol	Mass density, kg/m3	uncertainty
308.15	0.1038	773.016	0.125
308.15	0.2004	775.321	0.124
308.15	0.3131	777.898	0.123
308.15	0.3971	779.742	0.123
308.15	0.4999	781.894	0.122
308.15	0.6002	783.901	0.121
308.15	0.6999	785.765	0.12
308.15	0.7993	787.468	0.119
308.15	0.8941	788.855	0.119
308.15	1	790.12	0.118
313.15	0.1038	767.906	0.127
313.15	0.2004	770.357	0.126
313.15	0.3131	773.062	0.125
313.15	0.3971	774.993	0.124
313.15	0.4999	777.281	0.124
313.15	0.6002	779.435	0.123
313.15	0.6999	781.451	0.122
313.15	0.7993	783.274	0.121
313.15	0.8941	784.79	0.12
313.15	1	786.12	0.12
318.15	0.1038	762.689	0.129
318.15	0.2004	765.271	0.128
318.15	0.3131	768.112	0.127
318.15	0.3971	770.15	0.126
318.15	0.4999	772.578	0.125
318.15	0.6002	774.881	0.124
318.15	0.6999	777.066	0.123
318.15	0.7993	779.045	0.123
318.15	0.8941	780.694	0.122
318.15	1	782.06	0.121
323.15	0.1038	757.428	0.131
323.15	0.2004	760.154	0.13
323.15	0.3131	763.135	0.129
323.15	0.3971	765.278	0.128
323.15	0.4999	767.832	0.127
323.15	0.6002	770.282	0.126
323.15	0.6999	772.615	0.125
323.15	0.7993	774.761	0.124
323.15	0.8941	776.498	0.123
323.15	1	777.93	0.123
328.15	0.1038	752.049	0.133
328.15	0.2004	754.907	0.132
328.15	0.3131	758.027	0.131
328.15	0.3971	760.272	0.13
328.15	0.4999	762.978	0.129
328.15	0.6002	765.582	0.128
328.15	0.6999	768.076	0.127
328.15	0.7993	770.382	0.126
328.15	0.8941	772.239	0.125
328.15	1	773.73	0.124
333.15	0.1038	746.582	0.135
333.15	0.2004	749.576	0.134
333.15	0.3131	752.825	0.133
333.15	0.3971	755.183	0.132
333.15	0.4999	758.038	0.131
333.15	0.6002	760.796	0.13
333.15	0.6999	763.457	0.129
333.15	0.7993	765.918	0.128
333.15	0.8941	767.911	0.127
333.15	1	769.44	0.126
338.15	0.1038	741.045	0.137
338.15	0.2004	744.179	0.136
338.15	0.3131	747.58	0.135
338.15	0.3971	750.026	0.134
338.15	0.4999	753.002	0.133
338.15	0.6002	755.897	0.132
338.15	0.6999	758.701	0.131
338.15	0.7993	761.298	0.129
338.15	0.8941	763.412	0.128
338.15	1	765.07	0.128
343.15	0.1038	735.409	0.139
343.15	0.2004	738.697	0.138
343.15	0.3131	742.239	0.137
343.15	0.3971	744.793	0.136
343.15	0.4999	747.895	0.135
343.15	0.6002	750.924	0.134
343.15	0.6999	753.891	0.132
343.15	0.7993	756.647	0.131
343.15	0.8941	758.895	0.13
343.15	1	760.61	0.13

System: 2-methylpropan-2-ol + 2-methyl-1-propanol; phases: Liquid
Fixed: Pressure, kPa = 101
Property: Viscosity, Pa*s (Liquid); method: Falling or rolling sphere viscometry
Temperature, K	Mole fraction of 2-methyl-1-propanol	Viscosity, Pa*s	uncertainty
308.15	0.1038	0.0027232	2.14e-05
308.15	0.2004	0.0028024	2.2e-05
308.15	0.3131	0.0028395	2.23e-05
308.15	0.3971	0.0028374	2.23e-05
308.15	0.4999	0.0028121	2.21e-05
308.15	0.6002	0.0027734	2.18e-05
308.15	0.6999	0.0027235	2.14e-05
308.15	0.7993	0.0026665	2.09e-05
308.15	0.8941	0.0026067	2.04e-05
308.15	1	0.002382	1.87e-05
313.15	0.1038	0.0021898	1.72e-05
313.15	0.2004	0.0022626	1.78e-05
313.15	0.3131	0.0023119	1.82e-05
313.15	0.3971	0.0023266	1.83e-05
313.15	0.4999	0.0023295	1.83e-05
313.15	0.6002	0.0023175	1.82e-05
313.15	0.6999	0.0022939	1.8e-05
313.15	0.7993	0.0022639	1.78e-05
313.15	0.8941	0.0022287	1.75e-05
313.15	1	0.002116	1.66e-05
318.15	0.1038	0.0017858	1.4e-05
318.15	0.2004	0.0018517	1.46e-05
318.15	0.3131	0.0019038	1.5e-05
318.15	0.3971	0.0019299	1.52e-05
318.15	0.4999	0.0019487	1.53e-05
318.15	0.6002	0.0019553	1.54e-05
318.15	0.6999	0.0019536	1.53e-05
318.15	0.7993	0.0019397	1.52e-05
318.15	0.8941	0.0019191	1.51e-05
318.15	1	0.001861	1.46e-05
323.15	0.1038	0.0014795	1.16e-05
323.15	0.2004	0.0015362	1.21e-05
323.15	0.3131	0.0015896	1.25e-05
323.15	0.3971	0.0016188	1.27e-05
323.15	0.4999	0.0016435	1.29e-05
323.15	0.6002	0.0016584	1.3e-05
323.15	0.6999	0.0016641	1.31e-05
323.15	0.7993	0.0016625	1.31e-05
323.15	0.8941	0.0016554	1.3e-05
323.15	1	0.001602	1.26e-05
328.15	0.1038	0.0012431	9.8e-06
328.15	0.2004	0.0012935	1.02e-05
328.15	0.3131	0.0013422	1.06e-05
328.15	0.3971	0.0013717	1.08e-05
328.15	0.4999	0.0013996	1.1e-05
328.15	0.6002	0.0014203	1.12e-05
328.15	0.6999	0.0014327	1.13e-05
328.15	0.7993	0.0014376	1.13e-05
328.15	0.8941	0.0014386	1.13e-05
333.15	0.1038	0.0010569	8.6e-06
333.15	0.2004	0.0010994	8.9e-06
333.15	0.3131	0.0011446	9.2e-06
333.15	0.3971	0.0011729	9.4e-06
333.15	0.4999	0.0012023	9.5e-06
333.15	0.6002	0.0012244	9.7e-06
333.15	0.6999	0.0012406	9.8e-06
333.15	0.7993	0.0012506	9.9e-06
333.15	0.8941	0.0012574	9.9e-06
338.15	0.1038	0.0009089	7.7e-06
338.15	0.2004	0.0009461	7.9e-06
338.15	0.3131	0.0009857	8.2e-06
338.15	0.3971	0.0010133	8.3e-06
338.15	0.4999	0.0010424	8.5e-06
338.15	0.6002	0.0010639	8.7e-06
338.15	0.6999	0.0010812	8.8e-06
338.15	0.7993	0.0010942	8.8e-06
338.15	0.8941	0.0011046	8.9e-06
343.15	0.1038	0.0007889	7e-06
343.15	0.2004	0.0008213	7.2e-06
343.15	0.3131	0.0008569	7.4e-06
343.15	0.3971	0.0008812	7.5e-06
343.15	0.4999	0.0009085	7.7e-06
343.15	0.6002	0.0009302	7.8e-06
343.15	0.6999	0.0009494	7.9e-06
343.15	0.7993	0.0009642	8e-06
343.15	0.8941	0.0009753	8.1e-06
