Measured thermophysical data. Determination and Modeling of the Solubility of Na2SiO3*9H2O in the NaCl KCl H2O System
Source: J. Chem. Eng. Data, 2014, 10.1021/je401009p
Compound 1: disodium metasilicate, Na2O3Si, InChI=1S/2Na.O3Si/c;;1-4(2)3/q2*+1;-2, purity 98.5%
Compound 2: sodium chloride, ClNa, InChI=1S/ClH.Na/h1H;/q;+1/p-1, purity 99.5%
Compound 3: water, H2O, InChI=1S/H2O/h1H2, purity 99.9%
Compound 4: potassium chloride, ClK, InChI=1S/ClH.K/h1H;/q;+1/p-1, purity 99%

System: disodium metasilicate + sodium chloride + water; phases: Liquid, Crystal of intercomponent compound 1
Fixed: Pressure, kPa = 100
Property: Molality, mol/kg of disodium metasilicate (Liquid); method: titration
Temperature, K	Molality, mol/kg of sodium chloride	Molality, mol/kg of disodium metasilicate	uncertainty
288.15	0.295	1.1779	0.0404
288.15	0.6008	1.0774	0.0377
288.15	0.8069	1.0024	0.0343
288.15	1.0001	0.942	0.0336
288.15	1.6141	0.891	0.0314
288.15	2.0753	0.8024	0.0285
288.15	2.5245	0.7987	0.0288
288.15	3.4172	0.7057	0.0247
288.15	3.8865	0.6782	0.0244
288.15	4.5029	0.6928	0.0246
293.15	0.2691	1.5565	0.0522
293.15	0.5322	1.4841	0.0501
293.15	0.7555	1.3325	0.0453
293.15	0.9228	1.3467	0.0461
293.15	1.5137	1.2206	0.0416
293.15	1.9384	1.1574	0.0399
293.15	2.3697	1.129	0.0399
293.15	3.2417	0.9872	0.0345
293.15	3.6744	0.9787	0.0362
293.15	4.2852	0.9584	0.0323
298.15	0.2432	2.0001	0.0667
298.15	0.4802	1.9408	0.065
298.15	0.6786	1.824	0.0618
298.15	0.8348	1.8057	0.0612
298.15	1.3757	1.6705	0.0565
298.15	1.7686	1.5954	0.0546
298.15	2.1536	1.5876	0.0555
298.15	2.9759	1.4111	0.0502
298.15	3.3607	1.4209	0.0498
298.15	3.9019	1.4235	0.0487
303.15	0.211	2.553	0.0848
303.15	0.4139	2.524	0.0839
303.15	0.7809	2.3675	0.0794
303.15	0.9747	2.3314	0.0783
303.15	1.1857	2.2916	0.0781
303.15	1.5507	2.1586	0.0736
303.15	1.8884	2.1516	0.0721
303.15	2.5887	2.0301	0.071
303.15	2.9418	2.0125	0.0695
303.15	3.4169	2.0133	0.0684
308.15	0.1734	3.1971	0.1051
308.15	0.3408	3.1674	0.1039
308.15	0.6404	3.0512	0.1009
308.15	0.7933	3.0454	0.1007
308.15	0.97	2.9968	0.0993
308.15	1.2462	2.9459	0.0977
308.15	1.5215	2.932	0.0981
308.15	2.1157	2.7861	0.0933
308.15	2.3801	2.8059	0.0942
308.15	2.8152	2.7449	0.0921

System: disodium metasilicate + sodium chloride + water; phases: Liquid, Crystal of intercomponent compound 1
Fixed: Pressure, kPa = 100
Property: Mass density, kg/m3 (Liquid); method: Pycnometric method
Temperature, K	Molality, mol/kg of sodium chloride	Mass density, kg/m3	uncertainty
288.15	0.295	1159.5	3
288.15	0.6008	1157.6	2.9
288.15	0.8069	1157.5	2.9
288.15	1.0001	1158	2.9
288.15	1.6141	1163.3	2.7
288.15	2.0753	1169.8	2.7
288.15	2.5245	1178.4	2.6
288.15	3.4172	1198	2.5
288.15	3.8865	1209.6	2.5
288.15	4.5029	1226.7	2.4
293.15	0.2691	1198.4	3.2
293.15	0.5322	1195.7	3.1
293.15	0.7555	1194.4	3.1
293.15	0.9228	1193.8	3.1
293.15	1.5137	1194.9	2.9
293.15	1.9384	1198.5	2.9
293.15	2.3697	1204.1	3
293.15	3.2417	1218.9	2.7
293.15	3.6744	1228.4	3
293.15	4.2852	1243	2.4
298.15	0.2432	1246.5	3.6
298.15	0.4802	1242.9	3.6
298.15	0.6786	1240.7	3.5
298.15	0.8348	1239.2	3.5
298.15	1.3757	1236.9	3.4
298.15	1.7686	1237.6	3.3
298.15	2.1536	1240.3	3.8
298.15	2.9759	1249.9	3.5
298.15	3.3607	1257.1	3.2
298.15	3.9019	1268.9	2.9
303.15	0.211	1305.5	4.2
303.15	0.4139	1301.6	4.2
303.15	0.7809	1296.3	4.2
303.15	0.9747	1294.2	4.2
303.15	1.1857	1292.4	4.6
303.15	1.5507	1290.9	4.2
303.15	1.8884	1291.1	3.7
303.15	2.5887	1295.9	4.6
303.15	2.9418	1300.6	4.1
303.15	3.4169	1309.6	3.6
308.15	0.1734	1379	4.6
308.15	0.3408	1375.8	4.6
308.15	0.6404	1371	4.6
308.15	0.7933	1368.9	4.6
308.15	0.97	1366.9	4.6
308.15	1.2462	1364.7	4.6
308.15	1.5215	1363.7	4.6
308.15	2.1157	1365.5	4.7
308.15	2.3801	1368.5	4.8
308.15	2.8152	1375.2	4.8

System: disodium metasilicate + potassium chloride + water; phases: Liquid, Crystal of intercomponent compound 1
Fixed: Pressure, kPa = 100
Property: Molality, mol/kg of disodium metasilicate (Liquid); method: titration
Temperature, K	Molality, mol/kg of potassium chloride	Molality, mol/kg of disodium metasilicate	uncertainty
288.15	0.3422	1.3322	0.0457
288.15	0.6324	1.3433	0.0459
288.15	1.2839	1.4075	0.0478
288.15	1.9435	1.5524	0.0538
288.15	2.4568	1.5892	0.0531
288.15	3.0174	1.6279	0.0539
288.15	3.0989	1.6251	0.0536
288.15	3.0985	1.6387	0.0542
293.15	0.3125	1.7528	0.0583
293.15	0.5778	1.7596	0.0587
293.15	1.1714	1.8247	0.0609
293.15	1.7466	2.02	0.0673
293.15	2.2543	1.9665	0.0638
293.15	2.7861	1.9758	0.0648
293.15	2.8552	1.9823	0.064
293.15	2.8714	1.9707	0.0636
298.15	0.2833	2.1653	0.0715
298.15	0.5218	2.1867	0.0721
298.15	1.0554	2.2547	0.0756
298.15	1.584	2.406	0.0793
298.15	2.0826	2.2866	0.076
298.15	2.5254	2.3681	0.0767
298.15	2.6039	2.3507	0.0756
298.15	2.6208	2.337	0.0752
303.15	0.2465	2.6856	0.0886
303.15	0.4586	2.6688	0.0882
303.15	0.9266	2.7321	0.0896
303.15	1.3923	2.8614	0.0946
303.15	1.8098	2.7949	0.093
303.15	2.1844	2.8811	0.0951
303.15	2.2481	2.8723	0.0948
303.15	2.249	2.8804	0.0949
308.15	0.2022	3.3114	0.1086
308.15	0.3722	3.3283	0.1096
308.15	0.7436	3.4106	0.1127
308.15	1.1133	3.5238	0.116
308.15	1.4703	3.4277	0.1122
308.15	1.764	3.5137	0.1158
308.15	1.8024	3.5256	0.1161
308.15	1.8166	3.5125	0.1158

System: disodium metasilicate + potassium chloride + water; phases: Liquid, Crystal of intercomponent compound 1
Fixed: Pressure, kPa = 100
Property: Mass density, kg/m3 (Liquid); method: Pycnometric method
Temperature, K	Molality, mol/kg of potassium chloride	Mass density, kg/m3	uncertainty
288.15	0.3422	1179.9	3
288.15	0.6324	1193.9	3
288.15	1.2839	1223.6	3
288.15	1.9435	1251.9	2.9
288.15	2.4568	1273	2.9
288.15	3.0174	1295.2	2.8
288.15	3.0989	1298.4	2.8
288.15	3.0985	1298.4	2.8
293.15	0.3125	1217.3	3.2
293.15	0.5778	1229.4	3.2
293.15	1.1714	1255.4	3.1
293.15	1.7466	1279.3	3.2
293.15	2.2543	1299.7	3.2
293.15	2.7861	1320.5	3.2
293.15	2.8552	1323.1	2.8
293.15	2.8714	1323.7	2.8
298.15	0.2833	1263.2	3.6
298.15	0.5218	1273.3	3.6
298.15	1.0554	1295.3	3.9
298.15	1.584	1316.5	3.9
298.15	2.0826	1335.9	3.7
298.15	2.5254	1352.8	3.2
298.15	2.6039	1355.7	3.2
298.15	2.6208	1356.4	3.2
303.15	0.2465	1319.5	4.2
303.15	0.4586	1327.7	4.2
303.15	0.9266	1345.6	3.8
303.15	1.3923	1363.4	4.5
303.15	1.8098	1379.1	4.5
303.15	2.1844	1393.2	3.7
303.15	2.2481	1395.6	3.7
303.15	2.249	1395.6	3.7
308.15	0.2022	1389.7	4.6
308.15	0.3722	1395.8	4.5
308.15	0.7436	1409.2	4.5
308.15	1.1133	1422.8	4.5
308.15	1.4703	1436.3	4.5
308.15	1.764	1447.5	4.5
308.15	1.8024	1448.9	4.5
308.15	1.8166	1449.5	4.5
