Measured thermophysical data. Composition and Temperature Dependence of Density, Surface Tension, and Viscosity of EMIM DEP/MMIM DMP + Water + 1-Propanol/2-Propanol Ternary Mixtures and Their Mathematical Representation Using the Jouyban Acree Model
Source: J. Chem. Eng. Data, 2014, 10.1021/je400576e
Compound 1: 1-ethyl-3-methylimidazolium diethyl phosphate, C10H21N2O4P, InChI=1S/C6H11N2.C4H11O4P/c1-3-8-5-4-7(2)6-8;1-3-7-9(5,6)8-4-2/h4-6H,3H2,1-2H3;3-4H2,1-2H3,(H,5,6)/q+1;/p-1, purity 95.2%
Compound 2: 1,3-dimethylimidazolium dimethylphosphate, C7H15N2O4P, InChI=1S/C5H9N2.C2H7O4P/c1-6-3-4-7(2)5-6;1-5-7(3,4)6-2/h3-5H,1-2H3;1-2H3,(H,3,4)/q+1;/p-1, purity 96.7%
Compound 3: propan-1-ol, C3H8O, InChI=1S/C3H8O/c1-2-3-4/h4H,2-3H2,1H3, purity 98.6%
Compound 4: propan-2-ol, C3H8O, InChI=1S/C3H8O/c1-3(2)4/h3-4H,1-2H3, purity 98.5%
Compound 5: water, H2O, InChI=1S/H2O/h1H2

System: 1-ethyl-3-methylimidazolium diethyl phosphate; phases: Liquid
Fixed: Pressure, kPa = 101
Property: Mass density, kg/m3 (Liquid); method: Vibrating tube method
Temperature, K	Mass density, kg/m3	uncertainty
293.15	1151	10
298.15	1146	9
303.15	1141	9
313.15	1130	9
323.15	1116	9
333.15	1103	9

System: 1-ethyl-3-methylimidazolium diethyl phosphate; phases: Liquid, Air at 1 atmosphere
Property: Surface tension liquid-gas, N/m (Liquid); method: RINGTE:UFactor:2
Temperature, K	Surface tension liquid-gas, N/m	uncertainty
293.15	0.03478	0.00127
298.15	0.03446	0.00126
303.15	0.03419	0.00125
313.15	0.03354	0.00123
323.15	0.03315	0.00122
333.15	0.03281	0.00121

System: 1-ethyl-3-methylimidazolium diethyl phosphate; phases: Liquid
Fixed: Pressure, kPa = 101
Property: Viscosity, Pa*s (Liquid); method: CONPLT:UFactor:3
Temperature, K	Viscosity, Pa*s	uncertainty
293.15	0.53703	0.0991
298.15	0.32089	0.05311
303.15	0.28434	0.0459
313.15	0.15096	0.02164
323.15	0.09002	0.01203
333.15	0.05802	0.00753

System: 1,3-dimethylimidazolium dimethylphosphate; phases: Liquid
Fixed: Pressure, kPa = 101
Property: Mass density, kg/m3 (Liquid); method: Vibrating tube method
Temperature, K	Mass density, kg/m3	uncertainty
293.15	1254	9
298.15	1250	9
303.15	1247	9
313.15	1240	9
323.15	1233	9
333.15	1230	8

System: 1,3-dimethylimidazolium dimethylphosphate; phases: Liquid, Air at 1 atmosphere
Property: Surface tension liquid-gas, N/m (Liquid); method: RINGTE:UFactor:2
Temperature, K	Surface tension liquid-gas, N/m	uncertainty
293.15	0.04778	0.00149
298.15	0.04698	0.00147
303.15	0.04621	0.00145
313.15	0.04489	0.00141
323.15	0.04267	0.00135
333.15	0.04199	0.00133

System: 1,3-dimethylimidazolium dimethylphosphate; phases: Liquid
Fixed: Pressure, kPa = 101
Property: Viscosity, Pa*s (Liquid); method: CONPLT:UFactor:3
Temperature, K	Viscosity, Pa*s	uncertainty
293.15	0.38122	0.06507
298.15	0.33674	0.05599
303.15	0.22141	0.03379
313.15	0.17866	0.02618
323.15	0.14795	0.02098
333.15	0.13373	0.01866

System: propan-1-ol; phases: Liquid
Fixed: Pressure, kPa = 101
Property: Mass density, kg/m3 (Liquid); method: Vibrating tube method
Temperature, K	Mass density, kg/m3	uncertainty
293.15	804	5
298.15	800.1	5.1
303.15	796	5
313.15	788	5
323.15	780	5
333.15	764	5

System: propan-1-ol; phases: Liquid, Air at 1 atmosphere
Property: Surface tension liquid-gas, N/m (Liquid); method: RINGTE:UFactor:2
Temperature, K	Surface tension liquid-gas, N/m	uncertainty
293.15	0.02367	0.00072
298.15	0.02331	0.00072
303.15	0.02281	0.0007
313.15	0.02219	0.00069
323.15	0.02134	0.00067
333.15	0.02066	0.00065

System: propan-1-ol; phases: Liquid
Fixed: Pressure, kPa = 101
Property: Viscosity, Pa*s (Liquid); method: CONPLT:UFactor:3
Temperature, K	Viscosity, Pa*s	uncertainty
293.15	0.0022	0.00028
298.15	0.00199	0.00026
303.15	0.00173	0.00022
313.15	0.00138	0.00018
323.15	0.00112	0.00015
333.15	0.00091	0.00012

System: propan-2-ol; phases: Liquid
Fixed: Pressure, kPa = 101
Property: Mass density, kg/m3 (Liquid); method: Vibrating tube method
Temperature, K	Mass density, kg/m3	uncertainty
293.15	786	5
298.15	781	5
303.15	777	5
313.15	768	5
323.15	759	5
333.15	750	5

System: propan-2-ol; phases: Liquid, Air at 1 atmosphere
Property: Surface tension liquid-gas, N/m (Liquid); method: RINGTE:UFactor:2
Temperature, K	Surface tension liquid-gas, N/m	uncertainty
293.15	0.02128	0.00067
298.15	0.02094	0.00066
303.15	0.02054	0.00065
313.15	0.01997	0.00064
323.15	0.01887	0.00061
333.15	0.01811	0.00059

System: propan-2-ol; phases: Liquid
Fixed: Pressure, kPa = 101
Property: Viscosity, Pa*s (Liquid); method: CONPLT:UFactor:3
Temperature, K	Viscosity, Pa*s	uncertainty
293.15	0.00241	0.00031
298.15	0.00206	0.00027
303.15	0.00179	0.00023
313.15	0.00135	0.00017
323.15	0.00103	0.00013
333.15	0.00082	0.00011

System: propan-1-ol + water + 1-ethyl-3-methylimidazolium diethyl phosphate; phases: Liquid
Fixed: Pressure, kPa = 100
Property: Mass density, kg/m3 (Liquid); method: Vibrating tube method
Temperature, K	Mole fraction of 1-ethyl-3-methylimidazolium diethyl phosphate	Mole fraction of water	Mass density, kg/m3	uncertainty
293.15	0.1033	0.4497	937	6
298.15	0.1033	0.4497	933	6
303.15	0.1033	0.4497	930	6
313.15	0.1033	0.4497	923	6
323.15	0.1033	0.4497	914	6
333.15	0.1033	0.4497	904	6
293.15	0.2025	0.3985	954	6
298.15	0.2025	0.3985	950	6
303.15	0.2025	0.3985	946	6
313.15	0.2025	0.3985	938	6
323.15	0.2025	0.3985	929	6
333.15	0.2025	0.3985	920	6
293.15	0.3039	0.3491	973	7
298.15	0.3039	0.3491	967	7
303.15	0.3039	0.3491	961	7
313.15	0.3039	0.3491	952	7
323.15	0.3039	0.3491	943	6
333.15	0.3039	0.3491	935	6
293.15	0.402	0.304	992	7
298.15	0.402	0.304	988	7
303.15	0.402	0.304	982	7
313.15	0.402	0.304	971	7
323.15	0.402	0.304	962	7
333.15	0.402	0.304	950	7
293.15	0.5051	0.2429	1015	7
298.15	0.5051	0.2429	1009	7
303.15	0.5051	0.2429	1002	7
313.15	0.5051	0.2429	993	7
323.15	0.5051	0.2429	981	7
333.15	0.5051	0.2429	972	7
293.15	0.6056	0.1954	1041	8
298.15	0.6056	0.1954	1033	8
303.15	0.6056	0.1954	1027	7
313.15	0.6056	0.1954	1013	7
323.15	0.6056	0.1954	1001	7
333.15	0.6056	0.1954	991	7
293.15	0.7013	0.1487	1067	8
298.15	0.7013	0.1487	1060	8
303.15	0.7013	0.1487	1053	8
313.15	0.7013	0.1487	1041	8
323.15	0.7013	0.1487	1029	8
333.15	0.7013	0.1487	1018	8
293.15	0.8026	0.0994	1089	8
298.15	0.8026	0.0994	1084	8
303.15	0.8026	0.0994	1079	8
313.15	0.8026	0.0994	1067	8
323.15	0.8026	0.0994	1055	8
333.15	0.8026	0.0994	1043	8
293.15	0.9033	0.0487	1108	9
298.15	0.9033	0.0487	1103	9
303.15	0.9033	0.0487	1098	9
313.15	0.9033	0.0487	1088	9
323.15	0.9033	0.0487	1077	8
333.15	0.9033	0.0487	1065	8

System: propan-1-ol + water + 1-ethyl-3-methylimidazolium diethyl phosphate; phases: Liquid, Air at 1 atmosphere
Property: Surface tension liquid-gas, N/m (Liquid); method: RINGTE:UFactor:2
Temperature, K	Mole fraction of 1-ethyl-3-methylimidazolium diethyl phosphate	Mole fraction of water	Surface tension liquid-gas, N/m	uncertainty
293.15	0.1033	0.4497	0.02275	0.00078
298.15	0.1033	0.4497	0.02245	0.00078
303.15	0.1033	0.4497	0.02214	0.00077
313.15	0.1033	0.4497	0.02171	0.00075
323.15	0.1033	0.4497	0.02131	0.00074
333.15	0.1033	0.4497	0.02107	0.00074
293.15	0.2025	0.3985	0.02415	0.00083
298.15	0.2025	0.3985	0.02377	0.00082
303.15	0.2025	0.3985	0.02349	0.00081
313.15	0.2025	0.3985	0.02306	0.0008
323.15	0.2025	0.3985	0.02263	0.00079
333.15	0.2025	0.3985	0.02225	0.00078
293.15	0.3039	0.3491	0.02537	0.00088
298.15	0.3039	0.3491	0.02508	0.00087
303.15	0.3039	0.3491	0.02476	0.00086
313.15	0.3039	0.3491	0.02416	0.00084
323.15	0.3039	0.3491	0.02377	0.00083
333.15	0.3039	0.3491	0.02357	0.00083
293.15	0.402	0.304	0.02639	0.00092
298.15	0.402	0.304	0.02602	0.00091
303.15	0.402	0.304	0.02576	0.0009
313.15	0.402	0.304	0.02524	0.00089
323.15	0.402	0.304	0.02489	0.00088
333.15	0.402	0.304	0.02449	0.00086
293.15	0.5051	0.2429	0.02751	0.00097
298.15	0.5051	0.2429	0.02712	0.00095
303.15	0.5051	0.2429	0.02678	0.00094
313.15	0.5051	0.2429	0.02632	0.00093
323.15	0.5051	0.2429	0.02589	0.00092
333.15	0.5051	0.2429	0.02537	0.0009
293.15	0.6056	0.1954	0.02847	0.00101
298.15	0.6056	0.1954	0.02817	0.001
303.15	0.6056	0.1954	0.02785	0.00099
313.15	0.6056	0.1954	0.02733	0.00097
323.15	0.6056	0.1954	0.02678	0.00096
333.15	0.6056	0.1954	0.02628	0.00094
293.15	0.7013	0.1487	0.02952	0.00106
298.15	0.7013	0.1487	0.02918	0.00104
303.15	0.7013	0.1487	0.02884	0.00103
313.15	0.7013	0.1487	0.02815	0.00101
323.15	0.7013	0.1487	0.02762	0.001
333.15	0.7013	0.1487	0.02722	0.00098
293.15	0.8026	0.0994	0.03072	0.00111
298.15	0.8026	0.0994	0.03043	0.0011
303.15	0.8026	0.0994	0.03016	0.00109
313.15	0.8026	0.0994	0.02953	0.00107
323.15	0.8026	0.0994	0.02903	0.00105
333.15	0.8026	0.0994	0.02863	0.00104
293.15	0.9033	0.0487	0.03239	0.00118
298.15	0.9033	0.0487	0.03189	0.00116
303.15	0.9033	0.0487	0.03149	0.00115
313.15	0.9033	0.0487	0.03087	0.00113
323.15	0.9033	0.0487	0.03035	0.00111
333.15	0.9033	0.0487	0.02997	0.0011

System: propan-1-ol + water + 1-ethyl-3-methylimidazolium diethyl phosphate; phases: Liquid
Fixed: Pressure, kPa = 100
Property: Viscosity, Pa*s (Liquid); method: CONPLT:UFactor:3
Temperature, K	Mole fraction of 1-ethyl-3-methylimidazolium diethyl phosphate	Mole fraction of water	Viscosity, Pa*s	uncertainty
293.15	0.1033	0.4497	0.04713	0.00608
298.15	0.1033	0.4497	0.03945	0.00509
303.15	0.1033	0.4497	0.02997	0.00387
313.15	0.1033	0.4497	0.02223	0.00287
323.15	0.1033	0.4497	0.01607	0.00207
333.15	0.1033	0.4497	0.01213	0.00157
293.15	0.2025	0.3985	0.06539	0.00847
298.15	0.2025	0.3985	0.05386	0.00693
303.15	0.2025	0.3985	0.04462	0.00576
313.15	0.2025	0.3985	0.03171	0.0041
323.15	0.2025	0.3985	0.02249	0.00292
333.15	0.2025	0.3985	0.01746	0.00226
293.15	0.3039	0.3491	0.08984	0.01193
298.15	0.3039	0.3491	0.07329	0.00956
303.15	0.3039	0.3491	0.06148	0.00794
313.15	0.3039	0.3491	0.04029	0.00523
323.15	0.3039	0.3491	0.02837	0.00368
333.15	0.3039	0.3491	0.02161	0.0028
293.15	0.402	0.304	0.11728	0.01609
298.15	0.402	0.304	0.09803	0.01315
303.15	0.402	0.304	0.07839	0.01028
313.15	0.402	0.304	0.04938	0.00639
323.15	0.402	0.304	0.03328	0.00431
333.15	0.402	0.304	0.02369	0.00307
293.15	0.5051	0.2429	0.15128	0.0216
298.15	0.5051	0.2429	0.12037	0.01659
303.15	0.5051	0.2429	0.10027	0.01349
313.15	0.5051	0.2429	0.06235	0.00807
323.15	0.5051	0.2429	0.04225	0.00547
333.15	0.5051	0.2429	0.03019	0.00391
293.15	0.6056	0.1954	0.19974	0.02999
298.15	0.6056	0.1954	0.15111	0.0217
303.15	0.6056	0.1954	0.12836	0.01789
313.15	0.6056	0.1954	0.07606	0.01019
323.15	0.6056	0.1954	0.05119	0.00669
333.15	0.6056	0.1954	0.03477	0.00452
293.15	0.7013	0.1487	0.24883	0.03902
298.15	0.7013	0.1487	0.18276	0.02701
303.15	0.7013	0.1487	0.15823	0.0228
313.15	0.7013	0.1487	0.0931	0.01245
323.15	0.7013	0.1487	0.05824	0.00754
333.15	0.7013	0.1487	0.04136	0.00537
293.15	0.8026	0.0994	0.30527	0.04996
298.15	0.8026	0.0994	0.22407	0.03465
303.15	0.8026	0.0994	0.19774	0.02979
313.15	0.8026	0.0994	0.11022	0.01542
323.15	0.8026	0.0994	0.06973	0.00926
333.15	0.8026	0.0994	0.04748	0.00617
293.15	0.9033	0.0487	0.37297	0.06366
298.15	0.9033	0.0487	0.27336	0.04375
303.15	0.9033	0.0487	0.24136	0.03768
313.15	0.9033	0.0487	0.13326	0.01871
323.15	0.9033	0.0487	0.08042	0.01062
333.15	0.9033	0.0487	0.05204	0.00673

System: propan-2-ol + water + 1-ethyl-3-methylimidazolium diethyl phosphate; phases: Liquid
Fixed: Pressure, kPa = 100
Property: Mass density, kg/m3 (Liquid); method: Vibrating tube method
Temperature, K	Mole fraction of 1-ethyl-3-methylimidazolium diethyl phosphate	Mole fraction of water	Mass density, kg/m3	uncertainty
293.15	0.1	0.451	939	6
298.15	0.1	0.451	936	6
303.15	0.1	0.451	933	6
313.15	0.1	0.451	925	6
323.15	0.1	0.451	918	6
333.15	0.1	0.451	910	6
293.15	0.2	0.4	958	7
298.15	0.2	0.4	955	7
303.15	0.2	0.4	951	7
313.15	0.2	0.4	944	6
323.15	0.2	0.4	936	6
333.15	0.2	0.4	928	6
293.15	0.3005	0.3505	985	7
298.15	0.3005	0.3505	981	7
303.15	0.3005	0.3505	977	7
313.15	0.3005	0.3505	967	7
323.15	0.3005	0.3505	957	7
333.15	0.3005	0.3505	949	7
293.15	0.401	0.3	1006	7
298.15	0.401	0.3	1002	7
303.15	0.401	0.3	997	7
313.15	0.401	0.3	989	7
323.15	0.401	0.3	979	7
333.15	0.401	0.3	969	7
293.15	0.5013	0.2497	1033	7
298.15	0.5013	0.2497	1028	7
303.15	0.5013	0.2497	1021	7
313.15	0.5013	0.2497	1012	7
323.15	0.5013	0.2497	1001	7
333.15	0.5013	0.2497	990	7
293.15	0.6002	0.2008	1061	8
298.15	0.6002	0.2008	1056	8
303.15	0.6002	0.2008	1050	8
313.15	0.6002	0.2008	1038	8
323.15	0.6002	0.2008	1025	7
333.15	0.6002	0.2008	1012	7
293.15	0.7002	0.1498	1088	8
298.15	0.7002	0.1498	1082	8
303.15	0.7002	0.1498	1076	8
313.15	0.7002	0.1498	1065	8
323.15	0.7002	0.1498	1053	8
333.15	0.7002	0.1498	1040	8
293.15	0.8012	0.0998	1118	9
298.15	0.8012	0.0998	1112	10
303.15	0.8012	0.0998	1106	10
313.15	0.8012	0.0998	1095	9
323.15	0.8012	0.0998	1085	9
333.15	0.8012	0.0998	1071	9
293.15	0.9001	0.0499	1137	9
298.15	0.9001	0.0499	1122	9
303.15	0.9001	0.0499	1116	9
313.15	0.9001	0.0499	1108	9
323.15	0.9001	0.0499	1101	9
333.15	0.9001	0.0499	1092	9

System: propan-2-ol + water + 1-ethyl-3-methylimidazolium diethyl phosphate; phases: Liquid, Air at 1 atmosphere
Property: Surface tension liquid-gas, N/m (Liquid); method: RINGTE:UFactor:2
Temperature, K	Mole fraction of 1-ethyl-3-methylimidazolium diethyl phosphate	Mole fraction of water	Surface tension liquid-gas, N/m	uncertainty
293.15	0.1	0.451	0.02234	0.00077
298.15	0.1	0.451	0.02216	0.00077
303.15	0.1	0.451	0.02203	0.00077
313.15	0.1	0.451	0.02176	0.00076
323.15	0.1	0.451	0.02155	0.00075
333.15	0.1	0.451	0.02122	0.00074
293.15	0.2	0.4	0.02308	0.00081
298.15	0.2	0.4	0.0229	0.0008
303.15	0.2	0.4	0.02274	0.00079
313.15	0.2	0.4	0.02252	0.00079
323.15	0.2	0.4	0.02223	0.00078
333.15	0.2	0.4	0.02192	0.00077
293.15	0.3005	0.3505	0.02411	0.00085
298.15	0.3005	0.3505	0.0239	0.00084
303.15	0.3005	0.3505	0.02366	0.00083
313.15	0.3005	0.3505	0.02341	0.00082
323.15	0.3005	0.3505	0.02305	0.00081
333.15	0.3005	0.3505	0.02285	0.00081
293.15	0.401	0.3	0.02492	0.00088
298.15	0.401	0.3	0.02469	0.00087
303.15	0.401	0.3	0.02445	0.00086
313.15	0.401	0.3	0.02419	0.00086
323.15	0.401	0.3	0.02395	0.00085
333.15	0.401	0.3	0.02366	0.00084
293.15	0.5013	0.2497	0.02585	0.00092
298.15	0.5013	0.2497	0.02568	0.00091
303.15	0.5013	0.2497	0.02542	0.00091
313.15	0.5013	0.2497	0.02518	0.0009
323.15	0.5013	0.2497	0.02492	0.00089
333.15	0.5013	0.2497	0.02472	0.00089
293.15	0.6002	0.2008	0.02688	0.00096
298.15	0.6002	0.2008	0.0266	0.00095
303.15	0.6002	0.2008	0.02638	0.00095
313.15	0.6002	0.2008	0.02606	0.00094
323.15	0.6002	0.2008	0.02574	0.00093
333.15	0.6002	0.2008	0.02557	0.00092
293.15	0.7002	0.1498	0.02792	0.00101
298.15	0.7002	0.1498	0.02775	0.00101
303.15	0.7002	0.1498	0.02757	0.001
313.15	0.7002	0.1498	0.02709	0.00099
323.15	0.7002	0.1498	0.02683	0.00098
333.15	0.7002	0.1498	0.02659	0.00097
293.15	0.8012	0.0998	0.02979	0.00108
298.15	0.8012	0.0998	0.02967	0.00108
303.15	0.8012	0.0998	0.02944	0.00107
313.15	0.8012	0.0998	0.02904	0.00106
323.15	0.8012	0.0998	0.02874	0.00105
333.15	0.8012	0.0998	0.02824	0.00104
293.15	0.9001	0.0499	0.03187	0.00116
298.15	0.9001	0.0499	0.03158	0.00115
303.15	0.9001	0.0499	0.03142	0.00115
313.15	0.9001	0.0499	0.03106	0.00114
323.15	0.9001	0.0499	0.03077	0.00113
333.15	0.9001	0.0499	0.03047	0.00112

System: propan-2-ol + water + 1-ethyl-3-methylimidazolium diethyl phosphate; phases: Liquid
Fixed: Pressure, kPa = 100
Property: Viscosity, Pa*s (Liquid); method: Cone and plate viscometry
Temperature, K	Mole fraction of 1-ethyl-3-methylimidazolium diethyl phosphate	Mole fraction of water	Viscosity, Pa*s	uncertainty
293.15	0.1	0.451	0.04139	0.00532
298.15	0.1	0.451	0.0342	0.00439
303.15	0.1	0.451	0.02635	0.00339
313.15	0.1	0.451	0.01786	0.00229
323.15	0.1	0.451	0.01264	0.00162
333.15	0.1	0.451	0.01012	0.0013
293.15	0.2	0.4	0.05005	0.00654
298.15	0.2	0.4	0.04177	0.00545
303.15	0.2	0.4	0.03123	0.00406
313.15	0.2	0.4	0.02323	0.003
323.15	0.2	0.4	0.01449	0.00186
333.15	0.2	0.4	0.01213	0.00159
293.15	0.3005	0.3505	0.06774	0.00943
298.15	0.3005	0.3505	0.05482	0.0073
303.15	0.3005	0.3505	0.04619	0.00607
313.15	0.3005	0.3505	0.03026	0.0039
323.15	0.3005	0.3505	0.02012	0.0026
333.15	0.3005	0.3505	0.01661	0.00214
293.15	0.401	0.3	0.10154	0.01314
298.15	0.401	0.3	0.07918	0.01022
303.15	0.401	0.3	0.06726	0.00867
313.15	0.401	0.3	0.04183	0.00539
323.15	0.401	0.3	0.02925	0.00377
333.15	0.401	0.3	0.02072	0.00267
293.15	0.5013	0.2497	0.15695	0.02188
298.15	0.5013	0.2497	0.11979	0.01556
303.15	0.5013	0.2497	0.10828	0.01463
313.15	0.5013	0.2497	0.06237	0.00859
323.15	0.5013	0.2497	0.04128	0.00542
333.15	0.5013	0.2497	0.02819	0.00377
293.15	0.6002	0.2008	0.23533	0.03125
298.15	0.6002	0.2008	0.17624	0.0231
303.15	0.6002	0.2008	0.15176	0.02015
313.15	0.6002	0.2008	0.08958	0.01172
323.15	0.6002	0.2008	0.05523	0.00717
333.15	0.6002	0.2008	0.03871	0.00501
293.15	0.7002	0.1498	0.33661	0.04505
298.15	0.7002	0.1498	0.25714	0.03466
303.15	0.7002	0.1498	0.21537	0.02841
313.15	0.7002	0.1498	0.12424	0.01696
323.15	0.7002	0.1498	0.07566	0.01017
333.15	0.7002	0.1498	0.05201	0.00675
293.15	0.8012	0.0998	0.43652	0.06026
298.15	0.8012	0.0998	0.32201	0.04713
303.15	0.8012	0.0998	0.27808	0.03723
313.15	0.8012	0.0998	0.15324	0.02425
323.15	0.8012	0.0998	0.09426	0.01397
333.15	0.8012	0.0998	0.06112	0.00795
293.15	0.9001	0.0499	0.48435	0.06587
298.15	0.9001	0.0499	0.35183	0.04725
303.15	0.9001	0.0499	0.30672	0.04099
313.15	0.9001	0.0499	0.16794	0.02205
323.15	0.9001	0.0499	0.10123	0.01316
333.15	0.9001	0.0499	0.06653	0.00862

System: propan-1-ol + water + 1,3-dimethylimidazolium dimethylphosphate; phases: Liquid
Fixed: Pressure, kPa = 100
Property: Mass density, kg/m3 (Liquid); method: Vibrating tube method
Temperature, K	Mole fraction of 1,3-dimethylimidazolium dimethylphosphate	Mole fraction of water	Mass density, kg/m3	uncertainty
293.15	0.1089	0.4411	965	6
298.15	0.1089	0.4411	960	6
303.15	0.1089	0.4411	953	6
313.15	0.1089	0.4411	942	6
323.15	0.1089	0.4411	934	6
333.15	0.1089	0.4411	925	6
293.15	0.2062	0.3938	988	7
298.15	0.2062	0.3938	980	7
303.15	0.2062	0.3938	974	7
313.15	0.2062	0.3938	963	6
323.15	0.2062	0.3938	952	6
333.15	0.2062	0.3938	941	6
293.15	0.3059	0.3441	1017	7
298.15	0.3059	0.3441	1010	7
303.15	0.3059	0.3441	1002	7
313.15	0.3059	0.3441	989	7
323.15	0.3059	0.3441	976	7
333.15	0.3059	0.3441	964	6
293.15	0.4022	0.2978	1044	7
298.15	0.4022	0.2978	1037	7
303.15	0.4022	0.2978	1030	7
313.15	0.4022	0.2978	1016	7
323.15	0.4022	0.2978	1004	7
333.15	0.4022	0.2978	990	7
293.15	0.5059	0.2451	1071	7
298.15	0.5059	0.2451	1062	7
303.15	0.5059	0.2451	1054	7
313.15	0.5059	0.2451	1042	7
323.15	0.5059	0.2451	1031	7
333.15	0.5059	0.2451	1020	7
293.15	0.6002	0.1998	1096	7
298.15	0.6002	0.1998	1087	7
303.15	0.6002	0.1998	1080	7
313.15	0.6002	0.1998	1067	7
323.15	0.6002	0.1998	1056	7
333.15	0.6002	0.1998	1043	7
293.15	0.7002	0.1498	1123	8
298.15	0.7002	0.1498	1116	8
303.15	0.7002	0.1498	1107	8
313.15	0.7002	0.1498	1094	7
323.15	0.7002	0.1498	1083	7
333.15	0.7002	0.1498	1071	7
293.15	0.8002	0.0998	1148	8
298.15	0.8002	0.0998	1139	8
303.15	0.8002	0.0998	1131	8
313.15	0.8002	0.0998	1117	8
323.15	0.8002	0.0998	1105	8
333.15	0.8002	0.0998	1094	8
293.15	0.9028	0.0472	1193	8
298.15	0.9028	0.0472	1182	8
303.15	0.9028	0.0472	1174	8
313.15	0.9028	0.0472	1162	8
323.15	0.9028	0.0472	1150	8
333.15	0.9028	0.0472	1137	8

System: propan-1-ol + water + 1,3-dimethylimidazolium dimethylphosphate; phases: Liquid, Air at 1 atmosphere
Property: Surface tension liquid-gas, N/m (Liquid); method: RINGTE:UFactor:2
Temperature, K	Mole fraction of 1,3-dimethylimidazolium dimethylphosphate	Mole fraction of water	Surface tension liquid-gas, N/m	uncertainty
293.15	0.1089	0.4411	0.03184	0.00103
298.15	0.1089	0.4411	0.03181	0.00103
303.15	0.1089	0.4411	0.03213	0.00104
313.15	0.1089	0.4411	0.03077	0.001
323.15	0.1089	0.4411	0.02915	0.00095
333.15	0.1089	0.4411	0.02845	0.00093
293.15	0.2062	0.3938	0.03287	0.00106
298.15	0.2062	0.3938	0.0328	0.00106
303.15	0.2062	0.3938	0.03315	0.00108
313.15	0.2062	0.3938	0.03164	0.00103
323.15	0.2062	0.3938	0.02996	0.00098
333.15	0.2062	0.3938	0.02927	0.00096
293.15	0.3059	0.3441	0.034	0.00109
298.15	0.3059	0.3441	0.03393	0.00109
303.15	0.3059	0.3441	0.03428	0.0011
313.15	0.3059	0.3441	0.03279	0.00106
323.15	0.3059	0.3441	0.03116	0.00102
333.15	0.3059	0.3441	0.03034	0.00099
293.15	0.4022	0.2978	0.03511	0.00112
298.15	0.4022	0.2978	0.03504	0.00112
303.15	0.4022	0.2978	0.03521	0.00113
313.15	0.4022	0.2978	0.0337	0.00109
323.15	0.4022	0.2978	0.03201	0.00104
333.15	0.4022	0.2978	0.03126	0.00102
293.15	0.5059	0.2451	0.03619	0.00116
298.15	0.5059	0.2451	0.03603	0.00115
303.15	0.5059	0.2451	0.03628	0.00116
313.15	0.5059	0.2451	0.03472	0.00111
323.15	0.5059	0.2451	0.03311	0.00107
333.15	0.5059	0.2451	0.03226	0.00105
293.15	0.6002	0.1998	0.0374	0.00121
298.15	0.6002	0.1998	0.03729	0.0012
303.15	0.6002	0.1998	0.03748	0.00122
313.15	0.6002	0.1998	0.03584	0.00116
323.15	0.6002	0.1998	0.03408	0.0011
333.15	0.6002	0.1998	0.03332	0.00109
293.15	0.7002	0.1498	0.04041	0.00128
298.15	0.7002	0.1498	0.04022	0.00127
303.15	0.7002	0.1498	0.04028	0.00127
313.15	0.7002	0.1498	0.03848	0.00122
323.15	0.7002	0.1498	0.03656	0.00117
333.15	0.7002	0.1498	0.03567	0.00114
293.15	0.8002	0.0998	0.04352	0.00138
298.15	0.8002	0.0998	0.04329	0.0014
303.15	0.8002	0.0998	0.04341	0.00138
313.15	0.8002	0.0998	0.04161	0.00136
323.15	0.8002	0.0998	0.03971	0.00136
333.15	0.8002	0.0998	0.03868	0.00129
293.15	0.9028	0.0472	0.04555	0.00143
298.15	0.9028	0.0472	0.0449	0.00141
303.15	0.9028	0.0472	0.04461	0.0014
313.15	0.9028	0.0472	0.04274	0.00135
323.15	0.9028	0.0472	0.04051	0.00128
333.15	0.9028	0.0472	0.03957	0.00126

System: propan-1-ol + water + 1,3-dimethylimidazolium dimethylphosphate; phases: Liquid
Fixed: Pressure, kPa = 100
Property: Viscosity, Pa*s (Liquid); method: Cone and plate viscometry
Temperature, K	Mole fraction of 1,3-dimethylimidazolium dimethylphosphate	Mole fraction of water	Viscosity, Pa*s	uncertainty
293.15	0.1089	0.4411	0.03412	0.00438
298.15	0.1089	0.4411	0.03043	0.00391
303.15	0.1089	0.4411	0.02745	0.00352
313.15	0.1089	0.4411	0.0214	0.0027
323.15	0.1089	0.4411	0.01612	0.00207
333.15	0.1089	0.4411	0.01233	0.00158
293.15	0.2062	0.3938	0.04314	0.00554
298.15	0.2062	0.3938	0.03734	0.0048
303.15	0.2062	0.3938	0.03326	0.00429
313.15	0.2062	0.3938	0.02577	0.00331
323.15	0.2062	0.3938	0.01923	0.00247
333.15	0.2062	0.3938	0.01527	0.00198
293.15	0.3059	0.3441	0.05355	0.00697
298.15	0.3059	0.3441	0.04737	0.00614
303.15	0.3059	0.3441	0.04184	0.00542
313.15	0.3059	0.3441	0.03099	0.00399
323.15	0.3059	0.3441	0.02425	0.00311
333.15	0.3059	0.3441	0.01974	0.00253
293.15	0.4022	0.2978	0.07245	0.00937
298.15	0.4022	0.2978	0.06363	0.00819
303.15	0.4022	0.2978	0.05544	0.00712
313.15	0.4022	0.2978	0.04081	0.00524
323.15	0.4022	0.2978	0.03024	0.00388
333.15	0.4022	0.2978	0.02411	0.00311
293.15	0.5059	0.2451	0.10623	0.01384
298.15	0.5059	0.2451	0.08956	0.01163
303.15	0.5059	0.2451	0.07573	0.00981
313.15	0.5059	0.2451	0.05338	0.00686
323.15	0.5059	0.2451	0.04126	0.00532
333.15	0.5059	0.2451	0.03244	0.00419
293.15	0.6002	0.1998	0.15836	0.0206
298.15	0.6002	0.1998	0.13224	0.01716
303.15	0.6002	0.1998	0.11011	0.01422
313.15	0.6002	0.1998	0.07625	0.00981
323.15	0.6002	0.1998	0.05875	0.00754
333.15	0.6002	0.1998	0.04524	0.00582
293.15	0.7002	0.1498	0.21782	0.02857
298.15	0.7002	0.1498	0.17233	0.02246
303.15	0.7002	0.1498	0.14887	0.01934
313.15	0.7002	0.1498	0.10924	0.01411
323.15	0.7002	0.1498	0.08112	0.01044
333.15	0.7002	0.1498	0.06211	0.00797
293.15	0.8002	0.0998	0.27138	0.03595
298.15	0.8002	0.0998	0.21124	0.02769
303.15	0.8002	0.0998	0.16861	0.02197
313.15	0.8002	0.0998	0.12328	0.01596
323.15	0.8002	0.0998	0.10026	0.01293
333.15	0.8002	0.0998	0.08492	0.01098
293.15	0.9028	0.0472	0.34237	0.04559
298.15	0.9028	0.0472	0.26411	0.03486
303.15	0.9028	0.0472	0.20515	0.02687
313.15	0.9028	0.0472	0.15433	0.02007
323.15	0.9028	0.0472	0.12664	0.0164
333.15	0.9028	0.0472	0.10232	0.0132

System: propan-2-ol + water + 1,3-dimethylimidazolium dimethylphosphate; phases: Liquid
Fixed: Pressure, kPa = 100
Property: Mass density, kg/m3 (Liquid); method: Vibrating tube method
Temperature, K	Mole fraction of 1,3-dimethylimidazolium dimethylphosphate	Mole fraction of water	Mass density, kg/m3	uncertainty
293.15	0.1	0.445	955	6
298.15	0.1	0.445	951	6
303.15	0.1	0.445	947	6
313.15	0.1	0.445	942	6
323.15	0.1	0.445	936	6
333.15	0.1	0.445	932	6
293.15	0.2	0.403	975	7
298.15	0.2	0.403	971	7
303.15	0.2	0.403	968	6
313.15	0.2	0.403	960	6
323.15	0.2	0.403	953	6
333.15	0.2	0.403	948	6
293.15	0.3005	0.3525	1003	7
298.15	0.3005	0.3525	999	7
303.15	0.3005	0.3525	995	7
313.15	0.3005	0.3525	988	7
323.15	0.3005	0.3525	979	7
333.15	0.3005	0.3525	974	7
293.15	0.401	0.305	1038	7
298.15	0.401	0.305	1034	7
303.15	0.401	0.305	1030	7
313.15	0.401	0.305	1020	7
323.15	0.401	0.305	1012	7
333.15	0.401	0.305	1003	7
293.15	0.5013	0.2507	1069	7
298.15	0.5013	0.2507	1063	7
303.15	0.5013	0.2507	1058	7
313.15	0.5013	0.2507	1051	7
323.15	0.5013	0.2507	1042	7
333.15	0.5013	0.2507	1034	7
293.15	0.6002	0.1998	1108	8
298.15	0.6002	0.1998	1103	7
303.15	0.6002	0.1998	1098	7
313.15	0.6002	0.1998	1088	7
323.15	0.6002	0.1998	1076	7
333.15	0.6002	0.1998	1067	7
293.15	0.7002	0.1518	1142	8
298.15	0.7002	0.1518	1136	8
303.15	0.7002	0.1518	1129	8
313.15	0.7002	0.1518	1120	8
323.15	0.7002	0.1518	1108	8
333.15	0.7002	0.1518	1098	7
293.15	0.8012	0.0988	1176	8
298.15	0.8012	0.0988	1169	8
303.15	0.8012	0.0988	1165	8
313.15	0.8012	0.0988	1152	8
323.15	0.8012	0.0988	1141	8
333.15	0.8012	0.0988	1130	8
293.15	0.913	0.043	1215	8
298.15	0.913	0.043	1209	8
303.15	0.913	0.043	1203	8
313.15	0.913	0.043	1192	8
323.15	0.913	0.043	1181	8
333.15	0.913	0.043	1171	8

System: propan-2-ol + water + 1,3-dimethylimidazolium dimethylphosphate; phases: Liquid, Air at 1 atmosphere
Property: Surface tension liquid-gas, N/m (Liquid); method: RINGTE:UFactor:2
Temperature, K	Mole fraction of 1,3-dimethylimidazolium dimethylphosphate	Mole fraction of water	Surface tension liquid-gas, N/m	uncertainty
293.15	0.1	0.445	0.02984	0.00098
298.15	0.1	0.445	0.0298	0.00098
303.15	0.1	0.445	0.03016	0.00099
313.15	0.1	0.445	0.02873	0.00094
323.15	0.1	0.445	0.0271	0.0009
333.15	0.1	0.445	0.02628	0.00088
293.15	0.2	0.403	0.03103	0.00101
298.15	0.2	0.403	0.03103	0.00101
303.15	0.2	0.403	0.03129	0.00102
313.15	0.2	0.403	0.02981	0.00098
323.15	0.2	0.403	0.02807	0.00093
333.15	0.2	0.403	0.02718	0.0009
293.15	0.3005	0.3525	0.03253	0.00106
298.15	0.3005	0.3525	0.03251	0.00105
303.15	0.3005	0.3525	0.03274	0.00106
313.15	0.3005	0.3525	0.03126	0.00102
323.15	0.3005	0.3525	0.02945	0.00097
333.15	0.3005	0.3525	0.02855	0.00094
293.15	0.401	0.305	0.03405	0.0011
298.15	0.401	0.305	0.03404	0.0011
303.15	0.401	0.305	0.03424	0.00111
313.15	0.401	0.305	0.03258	0.00106
323.15	0.401	0.305	0.03071	0.001
333.15	0.401	0.305	0.02986	0.00098
293.15	0.5013	0.2507	0.0364	0.00117
298.15	0.5013	0.2507	0.03623	0.00116
303.15	0.5013	0.2507	0.03636	0.00117
313.15	0.5013	0.2507	0.03457	0.00111
323.15	0.5013	0.2507	0.03254	0.00106
333.15	0.5013	0.2507	0.03162	0.00103
293.15	0.6002	0.1998	0.03893	0.00124
298.15	0.6002	0.1998	0.03858	0.00123
303.15	0.6002	0.1998	0.03865	0.00123
313.15	0.6002	0.1998	0.03667	0.00117
323.15	0.6002	0.1998	0.03451	0.00111
333.15	0.6002	0.1998	0.03338	0.00108
293.15	0.7002	0.1518	0.04084	0.00129
298.15	0.7002	0.1518	0.0404	0.00128
303.15	0.7002	0.1518	0.04041	0.00128
313.15	0.7002	0.1518	0.03836	0.00122
323.15	0.7002	0.1518	0.03617	0.00116
333.15	0.7002	0.1518	0.03495	0.00113
293.15	0.8012	0.0988	0.04294	0.00136
298.15	0.8012	0.0988	0.0425	0.00134
303.15	0.8012	0.0988	0.04241	0.00135
313.15	0.8012	0.0988	0.04016	0.00128
323.15	0.8012	0.0988	0.03777	0.00121
333.15	0.8012	0.0988	0.03645	0.00117
293.15	0.913	0.043	0.04716	0.00147
298.15	0.913	0.043	0.04662	0.00146
303.15	0.913	0.043	0.04639	0.00145
313.15	0.913	0.043	0.0439	0.00138
323.15	0.913	0.043	0.04122	0.0013
333.15	0.913	0.043	0.03956	0.00126

System: propan-2-ol + water + 1,3-dimethylimidazolium dimethylphosphate; phases: Liquid
Fixed: Pressure, kPa = 100
Property: Viscosity, Pa*s (Liquid); method: Cone and plate viscometry
Temperature, K	Mole fraction of 1,3-dimethylimidazolium dimethylphosphate	Mole fraction of water	Viscosity, Pa*s	uncertainty
293.15	0.1	0.445	0.04235	0.00544
298.15	0.1	0.445	0.03234	0.00415
303.15	0.1	0.445	0.02543	0.00326
313.15	0.1	0.445	0.01724	0.00221
323.15	0.1	0.445	0.01329	0.00171
333.15	0.1	0.445	0.01091	0.0014
293.15	0.2	0.403	0.05389	0.00692
298.15	0.2	0.403	0.04183	0.00537
303.15	0.2	0.403	0.03283	0.00422
313.15	0.2	0.403	0.02312	0.00297
323.15	0.2	0.403	0.01766	0.00227
333.15	0.2	0.403	0.01512	0.00194
293.15	0.3005	0.3525	0.06353	0.00816
298.15	0.3005	0.3525	0.05128	0.00658
303.15	0.3005	0.3525	0.04214	0.00541
313.15	0.3005	0.3525	0.03062	0.00394
323.15	0.3005	0.3525	0.02488	0.0032
333.15	0.3005	0.3525	0.02027	0.00261
293.15	0.401	0.305	0.07622	0.00981
298.15	0.401	0.305	0.06436	0.00827
303.15	0.401	0.305	0.05419	0.00696
313.15	0.401	0.305	0.03923	0.00504
323.15	0.401	0.305	0.03173	0.00407
333.15	0.401	0.305	0.02692	0.00346
293.15	0.5013	0.2507	0.10018	0.01292
298.15	0.5013	0.2507	0.08256	0.01062
303.15	0.5013	0.2507	0.06914	0.00888
313.15	0.5013	0.2507	0.04862	0.00625
323.15	0.5013	0.2507	0.03882	0.00499
333.15	0.5013	0.2507	0.03166	0.00407
293.15	0.6002	0.1998	0.12372	0.01604
298.15	0.6002	0.1998	0.10392	0.01341
303.15	0.6002	0.1998	0.08737	0.01125
313.15	0.6002	0.1998	0.06234	0.00801
323.15	0.6002	0.1998	0.04655	0.00598
333.15	0.6002	0.1998	0.03715	0.00477
293.15	0.7002	0.1518	0.16176	0.02119
298.15	0.7002	0.1518	0.13019	0.01697
303.15	0.7002	0.1518	0.10924	0.01417
313.15	0.7002	0.1518	0.08052	0.01037
323.15	0.7002	0.1518	0.05848	0.00751
333.15	0.7002	0.1518	0.04419	0.00569
293.15	0.8012	0.0988	0.24862	0.03276
298.15	0.8012	0.0988	0.20284	0.02656
303.15	0.8012	0.0988	0.16364	0.02132
313.15	0.8012	0.0988	0.11305	0.01462
323.15	0.8012	0.0988	0.07962	0.01024
333.15	0.8012	0.0988	0.06073	0.00786
293.15	0.913	0.043	0.35563	0.04743
298.15	0.913	0.043	0.28172	0.03726
303.15	0.913	0.043	0.22557	0.02963
313.15	0.913	0.043	0.15322	0.01992
323.15	0.913	0.043	0.11264	0.01456
333.15	0.913	0.043	0.09171	0.01182
