Measured thermophysical data. Measurement and Correlation of Solubilities of 4-Amino-3,6-dichloropyridazine in Ethanol + Water Mixtures from (303.15 to 323.15) K
Source: J. Chem. Eng. Data, 2014, 10.1021/je401053y
Compound 1: 3,6-dichloropyridazin-4-amine, C4H3Cl2N3, InChI=1S/C4H3Cl2N3/c5-3-1-2(7)4(6)9-8-3/h1H,(H2,7,8)
Compound 2: ethanol, C2H6O, InChI=1S/C2H6O/c1-2-3/h3H,2H2,1H3, purity 99.5%
Compound 3: water, H2O, InChI=1S/H2O/h1H2
Compound 4: urea, CH4N2O, InChI=1S/CH4N2O/c2-1(3)4/h(H4,2,3,4)

System: urea + water; phases: Liquid, Crystal
Fixed: Pressure, kPa = 101
Property: Mass ratio of solute to solvent of urea (Liquid); method: visual method
Temperature, K	Mass ratio of solute to solvent of urea	uncertainty
274.95	0.7021	0.0021
283.45	0.8595	0.0026
288.65	0.9688	0.0029
294.15	1.101	0.003
298.65	1.208	0.004
303.65	1.351	0.004
312.85	1.641	0.005
323.25	2.05	0.006
333.15	2.592	0.008

System: ethanol + 3,6-dichloropyridazin-4-amine + water; phases: Liquid, Crystal
Fixed: Pressure, kPa = 100
Property: Mole fraction of 3,6-dichloropyridazin-4-amine (Liquid); method: Titration method
Temperature, K	Solvent: Mole fraction of ethanol	Mole fraction of 3,6-dichloropyridazin-4-amine	uncertainty
303.15	0.1979	4.9e-05	4.9e-05
305.65	0.1979	0.000118	0.000118
308.15	0.1979	0.000243	0.000243
310.65	0.1979	0.000436	0.000436
313.15	0.1979	0.000695	0.000695
315.65	0.1979	0.000987	0.000987
318.15	0.1979	0.001279	0.001279
320.65	0.1979	0.001439	0.001439
323.15	0.1979	0.001513	0.001513
303.15	0.2854	0.00017	0.00017
305.65	0.2854	0.000339	0.000339
308.15	0.2854	0.000595	0.000595
310.65	0.2854	0.000966	0.000966
313.15	0.2854	0.001475	0.001475
315.65	0.2854	0.002054	0.002003
318.15	0.2854	0.002692	0.002003
320.65	0.2854	0.003305	0.002003
323.15	0.2854	0.003919	0.002004
303.15	0.5007	0.005933	0.002002
305.65	0.5007	0.007473	0.002002
308.15	0.5007	0.009434	0.002003
310.65	0.5007	0.011429	0.002003
313.15	0.5007	0.013338	0.002002
315.65	0.5007	0.014435	0.002002
318.15	0.5007	0.015112	0.002002
320.65	0.5007	0.016135	0.002002
323.15	0.5007	0.016789	0.002004
303.15	0.7018	0.00979	0.002002
305.65	0.7018	0.011645	0.002002
308.15	0.7018	0.013297	0.002001
310.65	0.7018	0.014828	0.002001
313.15	0.7018	0.015964	0.002001
315.65	0.7018	0.017906	0.002001
318.15	0.7018	0.018501	0.002001
320.65	0.7018	0.019305	0.002001
323.15	0.7018	0.020266	0.002001
303.15	0.8119	0.011291	0.002001
305.65	0.8119	0.012901	0.002002
308.15	0.8119	0.014291	0.002001
310.65	0.8119	0.015622	0.002001
313.15	0.8119	0.01704	0.002001
315.65	0.8119	0.018484	0.002001
318.15	0.8119	0.019677	0.002001
320.65	0.8119	0.020733	0.002001
323.15	0.8119	0.02193	0.002001
303.15	1	0.017102	0.002001
305.65	1	0.017887	0.002001
308.15	1	0.018522	0.002001
310.65	1	0.019188	0.002001
313.15	1	0.020248	0.002001
315.65	1	0.02123	0.002001
318.15	1	0.021972	0.002001
320.65	1	0.022957	0.002001
323.15	1	0.023983	0.002001
