Measured thermophysical data. Vapor Pressures of 2-Chloro-3,3,3-trifluoropropene (HCFO-1233xf)
Source: J. Chem. Eng. Data, 2013, 10.1021/je400407z
Compound 1: 2-chloro-3,3,3-trifluoro-1-propene, C3H2ClF3, InChI=1S/C3H2ClF3/c1-2(4)3(5,6)7/h1H2, purity 99.9%
Compound 2: 1,1,1,3,3-pentafluoropropane, C3H3F5, InChI=1S/C3H3F5/c4-2(5)1-3(6,7)8/h2H,1H2, purity 99.9%

System: 2-chloro-3,3,3-trifluoro-1-propene; phases: Liquid, Gas
Property: Vapor or sublimation pressure, kPa (Liquid); method: Closed cell (Static) method
Temperature, K	Vapor or sublimation pressure, kPa	uncertainty
263.25	43.43	2.4
264.27	45.2	2.4
265.23	47.13	2.4
266.27	48.88	2.4
267.22	50.69	2.4
267.16	51.02	2.4
268.2	52.65	2.41
269.08	55.2	2.41
270.04	57.24	2.41
270.94	59.24	2.41
270.95	59.34	2.41
271.9	61.45	2.41
273.85	66.42	2.41
274.8	68.69	2.41
275.39	70.68	2.41
277.03	75.24	2.41
277.96	77.86	2.41
278.77	80.2	2.41
278.99	81.33	2.41
279.8	83.72	2.41
280.56	85.87	2.41
281.62	89.39	2.41
282.8	93.36	2.41
283.65	95.62	2.41
284.51	98.59	2.41
285.1	100.84	2.41
286.15	103.78	2.41
287.18	107.59	2.42
288.59	113.2	2.42
289.24	115.72	2.42
290.31	120.08	2.42
292.2	128.29	2.42
294.48	138.49	2.42
296.12	146.32	2.43
297.41	152.85	2.43
298.46	158.2	2.43
299.53	164.03	2.43
300.22	167.73	2.43
301.38	174.15	2.44
303.03	183.59	2.44
304.22	191.32	2.45
305.36	198.32	2.45
306.37	205.25	2.46
307.38	212.61	2.46
308.45	219.76	2.46
309.44	226.88	2.46
311.14	239.23	2.47
312.65	250.71	2.47
313.32	255.58	2.47
314.65	265.41	2.47
315.41	271.67	2.48
316.41	279.99	2.48
317.54	288.86	2.48
318.54	296.49	2.49
319.54	305.35	2.51
320.2	312.84	2.5
321.51	323.9	2.5
322.39	331.79	2.51
322.28	330.9	2.49
323.27	340.55	2.52
324.4	351.13	2.53
325.16	359.71	2.54
326.17	370.1	2.53
327.54	383.61	2.54
328.16	390.36	2.54
329.38	402.72	2.55
330.27	412.59	2.56
331.36	424.58	2.56
332.28	434.81	2.57
333.37	447.55	2.63
333.1	444.59	2.58
334.34	462.26	2.59
335.18	468.47	2.56
336.2	480.83	2.6
337.33	494.73	2.61
338.3	506.41	2.61
339.24	518.13	2.63
340.43	533.53	2.63
341.35	545.17	2.66
342.53	561.23	2.58
342.25	558.82	2.67
344.38	589.61	2.72
345.78	613.34	2.75
346.77	629.58	2.73
347.88	646.33	2.73
348.77	660.14	2.75
349.98	679.92	2.78
350.86	695.77	2.79
352.84	728.61	2.8
354.89	762.84	2.84
356.87	799.73	2.89
358.89	838.22	2.92
360.78	874.39	2.98
362.63	916.57	3.02
364.64	957.2	3.02
366.88	1003.68	3.07
368.89	1047.81	3.13
370.88	1093	3.17
372.9	1138.94	3.2

System: 1,1,1,3,3-pentafluoropropane; phases: Liquid, Gas
Property: Vapor or sublimation pressure, kPa (Liquid); method: Closed cell (Static) method
Temperature, K	Vapor or sublimation pressure, kPa	uncertainty
260.32	28.52	2.4
272.13	50.91	2.41
281.15	75.62	2.41
293.31	122.98	2.42
305.49	192.78	2.45
313.62	254.28	2.48
321.4	324.38	2.53
333.49	467.72	2.62
345.16	642.26	2.74
351.47	754.32	2.91
364	1028.15	3.17
377.04	1378.24	3.49
