Measured thermophysical data. Density, Viscosity, and Surface Tension of Aqueous Solution of 1,4-Bis-(2-hydroxypropyl)-piperazine Sulfate
Source: J. Chem. Eng. Data, 2013, 10.1021/je400405m
Compound 1: 1,4-bis-(2-hydroxypropyl)-piperazine sulfate, C20H46N4O8S, InChI=1S/2C10H22N2O2.H2O4S/c2*1-9(13)7-11-3-5-12(6-4-11)8-10(2)14;1-5(2,3)4/h2*9-10,13-14H,3-8H2,1-2H3;(H2,1,2,3,4)
Compound 2: water, H2O, InChI=1S/H2O/h1H2
Compound 3: piperazine, C4H10N2, InChI=1S/C4H10N2/c1-2-6-4-3-5-1/h5-6H,1-4H2, purity 99.5%

System: piperazine + water; phases: Liquid
Fixed: Pressure, kPa = 101
Fixed: Mass fraction of piperazine = 0.0516
Property: Mass density, kg/m3 (Liquid); method: Pycnometric method
Temperature, K	Mass density, kg/m3	uncertainty
303.15	998.03	0.4
313.15	994.71	0.44
323.15	990.08	0.47

System: piperazine + water; phases: Liquid
Fixed: Pressure, kPa = 101
Fixed: Mass fraction of piperazine = 0.0516
Property: Viscosity, Pa*s (Liquid); method: Capillary tube (Ostwald; Ubbelohde) method
Temperature, K	Viscosity, Pa*s	uncertainty
303.15	0.000948	9e-06
313.15	0.00075	7e-06
323.15	0.000616	6e-06

System: piperazine + water; phases: Liquid, Air at 1 atmosphere
Fixed: Mass fraction of piperazine = 0.0516
Property: Surface tension liquid-gas, N/m (Liquid); method: Maximal bubble pressure
Temperature, K	Surface tension liquid-gas, N/m	uncertainty
303.15	0.06855	0.00054
313.15	0.06697	0.00053
323.15	0.0651	0.00052

System: water + 1,4-bis-(2-hydroxypropyl)-piperazine sulfate; phases: Liquid
Fixed: Pressure, kPa = 101
Property: Mass density, kg/m3 (Liquid); method: Pycnometric method
Mass fraction of 1,4-bis-(2-hydroxypropyl)-piperazine sulfate	Temperature, K	Mass density, kg/m3	uncertainty
0.062	293.15	1014.1	8.2
0.062	298.15	1012.6	8.2
0.062	303.15	1010.8	8.2
0.062	308.15	1008.5	8.1
0.062	313.15	1007.6	8.1
0.062	318.15	1003.1	8.1
0.062	323.15	1001.9	8.1
0.062	328.15	999.7	8.1
0.062	333.15	995.4	8
0.124	293.15	1030.1	8.3
0.124	298.15	1028.8	8.3
0.124	303.15	1026.6	8.3
0.124	308.15	1025.3	8.3
0.124	313.15	1023.2	8.3
0.124	318.15	1018.1	8.2
0.124	323.15	1016.9	8.2
0.124	328.15	1014.6	8.2
0.124	333.15	1010	8.2
0.186	293.15	1046.9	8.5
0.186	298.15	1044.8	8.4
0.186	303.15	1043.1	8.4
0.186	308.15	1040.9	8.4
0.186	313.15	1038.9	8.4
0.186	318.15	1036.1	8.4
0.186	323.15	1034.2	8.3
0.186	328.15	1031.9	8.3
0.186	333.15	1027.7	8.3
0.248	293.15	1063.9	8.6
0.248	298.15	1062.3	8.6
0.248	303.15	1061.7	8.6
0.248	308.15	1058.1	8.5
0.248	313.15	1055.8	8.5
0.248	318.15	1053.7	8.5
0.248	323.15	1049.8	8.5
0.248	328.15	1049	8.5
0.248	333.15	1044.7	8.4
0.31	293.15	1081.3	8.7
0.31	298.15	1078.7	8.7
0.31	303.15	1076.9	8.7
0.31	308.15	1075	8.7
0.31	313.15	1072.1	8.6
0.31	318.15	1070.2	8.6
0.31	323.15	1066.6	8.6
0.31	328.15	1065.2	8.6
0.31	333.15	1061.8	8.6
0.372	293.15	1097	8.8
0.372	298.15	1094.7	8.8
0.372	303.15	1092	8.8
0.372	308.15	1089.9	8.8
0.372	313.15	1087.2	8.8
0.372	318.15	1084	8.7
0.372	323.15	1081.6	8.7
0.372	328.15	1080.7	8.7
0.372	333.15	1076.7	8.7

System: water + 1,4-bis-(2-hydroxypropyl)-piperazine sulfate; phases: Liquid
Fixed: Pressure, kPa = 101
Property: Viscosity, Pa*s (Liquid); method: Capillary tube (Ostwald; Ubbelohde) method
Mass fraction of 1,4-bis-(2-hydroxypropyl)-piperazine sulfate	Temperature, K	Viscosity, Pa*s	uncertainty
0.062	298.15	0.0011	2.6e-05
0.062	303.15	0.000975	2.3e-05
0.062	308.15	0.000869	2e-05
0.062	313.15	0.000816	2e-05
0.062	318.15	0.000721	1.6e-05
0.062	323.15	0.000665	1.5e-05
0.062	328.15	0.000595	1.3e-05
0.062	333.15	0.000525	1.2e-05
0.124	298.15	0.001382	3.4e-05
0.124	303.15	0.001232	3e-05
0.124	308.15	0.001111	2.6e-05
0.124	313.15	0.001026	2.4e-05
0.124	318.15	0.000906	2.1e-05
0.124	323.15	0.000807	1.8e-05
0.124	328.15	0.000721	1.6e-05
0.124	333.15	0.000639	1.4e-05
0.186	298.15	0.001834	4.7e-05
0.186	303.15	0.001634	4.2e-05
0.186	308.15	0.001434	3.6e-05
0.186	313.15	0.001355	3.2e-05
0.186	318.15	0.001176	2.8e-05
0.186	323.15	0.001025	2.4e-05
0.186	328.15	0.000909	2.1e-05
0.186	333.15	0.000807	1.9e-05
0.248	298.15	0.002454	7e-05
0.248	303.15	0.002221	6.1e-05
0.248	308.15	0.001934	5.1e-05
0.248	313.15	0.001739	4.3e-05
0.248	318.15	0.001513	3.7e-05
0.248	323.15	0.001311	3.2e-05
0.248	328.15	0.001171	2.8e-05
0.248	333.15	0.00104	2.5e-05
0.31	298.15	0.003565	0.000112
0.31	303.15	0.003115	9.1e-05
0.31	308.15	0.002653	7.4e-05
0.31	313.15	0.002327	6.2e-05
0.31	318.15	0.002009	5.1e-05
0.31	323.15	0.001727	4.3e-05
0.31	328.15	0.001525	3.7e-05
0.31	333.15	0.001369	3.4e-05
0.372	298.15	0.00531	0.000145
0.372	303.15	0.00449	0.00012
0.372	308.15	0.003747	0.0001
0.372	313.15	0.003216	8e-05
0.372	318.15	0.002675	6.6e-05
0.372	323.15	0.002282	5.5e-05
0.372	328.15	0.001985	4.7e-05
0.372	333.15	0.001841	4.3e-05

System: water + 1,4-bis-(2-hydroxypropyl)-piperazine sulfate; phases: Liquid, Air at 1 atmosphere
Property: Surface tension liquid-gas, N/m (Liquid); method: Maximal bubble pressure
Mass fraction of 1,4-bis-(2-hydroxypropyl)-piperazine sulfate	Temperature, K	Surface tension liquid-gas, N/m	uncertainty
0.062	303.15	0.06624	0.00089
0.062	308.15	0.06507	0.00088
0.062	313.15	0.06413	0.00086
0.062	318.15	0.06319	0.00085
0.062	323.15	0.06225	0.00084
0.062	328.15	0.06154	0.00083
0.062	333.15	0.0606	0.00082
0.124	303.15	0.0646	0.00088
0.124	308.15	0.06366	0.00086
0.124	313.15	0.06295	0.00085
0.124	318.15	0.06201	0.00084
0.124	323.15	0.06107	0.00083
0.124	328.15	0.06013	0.00081
0.124	333.15	0.05943	0.0008
0.186	303.15	0.06272	0.00085
0.186	308.15	0.06178	0.00084
0.186	313.15	0.06107	0.00083
0.186	318.15	0.06037	0.00083
0.186	323.15	0.05966	0.00081
0.186	328.15	0.05896	0.0008
0.186	333.15	0.0582	0.0008
0.248	303.15	0.06084	0.00083
0.248	308.15	0.0599	0.00082
0.248	313.15	0.05896	0.00081
0.248	318.15	0.05802	0.00079
0.248	323.15	0.05732	0.00078
0.248	328.15	0.05661	0.00078
0.248	333.15	0.05591	0.00077
0.31	303.15	0.06013	0.00082
0.31	308.15	0.05896	0.0008
0.31	313.15	0.05802	0.00079
0.31	318.15	0.05731	0.00078
0.31	323.15	0.05638	0.00077
0.31	328.15	0.05567	0.00076
0.31	333.15	0.05497	0.00075
0.372	303.15	0.05896	0.00081
0.372	308.15	0.05802	0.00079
0.372	313.15	0.05731	0.00078
0.372	318.15	0.05638	0.00077
0.372	323.15	0.05544	0.00076
0.372	328.15	0.05426	0.00075
0.372	333.15	0.0536	0.00074
