Measured thermophysical data. Volumetric Properties of Mixed Electrolyte Aqueous Solutions at Elevated Temperatures and Pressures. The System KCl NaCl H2O to 523.15 K, 40 MPa, and Ionic Strength from (0.1 to 5.8) mol*kg-1
Source: J. Chem. Eng. Data, 2014, 10.1021/je400761c
Compound 1: sodium chloride, ClNa, InChI=1S/ClH.Na/h1H;/q;+1/p-1, purity 99.5%
Compound 2: potassium chloride, ClK, InChI=1S/ClH.K/h1H;/q;+1/p-1, purity 99.5%
Compound 3: water, H2O, InChI=1S/H2O/h1H2

System: potassium chloride + sodium chloride + water; phases: Liquid
Fixed: Pressure, kPa = 100
Property: Mass density, kg/m3 (Liquid); method: Vibrating tube method
Temperature, K	Molality, mol/kg of sodium chloride	Molality, mol/kg of potassium chloride	Mass density, kg/m3	uncertainty
298.2	0.10395	2.06402	90.44	0.39
298.15	0.10518	0	4.34	0.38
298.16	0.10676	1.02732	49.33	0.39
298.21	0.10696	0.65057	33.85	0.38
298.13	0.10756	0.11055	9.51	0.38
298.14	0.10807	3.58389	145.26	0.4
298.15	0.49988	0	20.15	0.38
298.14	0.99975	0.33135	53.31	0.39
298.18	0.99991	0.65012	66.54	0.39
298.19	1.00019	1.03055	81.65	0.39
298.21	1.00035	0.111	44.23	0.39
298.17	1.0009	1.03979	81.88	0.39
298.15	1.00092	0	39.27	0.38
298.17	1.00099	2.23856	125.58	0.4
298.16	1.15326	3.5774	174.63	0.41
298.15	2.99981	0	108.79	0.4
298.18	3.53342	1.0202	161.22	0.41
298.19	3.58016	0.10571	131.26	0.4
298.17	3.58072	2.2366	199.78	0.42
298.15	3.58228	0.33082	139.06	0.4
298.24	3.58557	0.64398	149.9	0.4

System: potassium chloride + sodium chloride + water; phases: Liquid
Fixed: Pressure, kPa = 2000
Property: Mass density, kg/m3 (Liquid); method: Vibrating tube method
Temperature, K	Molality, mol/kg of sodium chloride	Molality, mol/kg of potassium chloride	Mass density, kg/m3	uncertainty
298.18	0.10395	2.06402	90.31	0.4
298.16	0.10676	1.02732	49.29	0.39
298.2	0.10696	0.65057	33.89	0.39
298.1	0.10756	0.11055	9.49	0.38
298.14	0.10807	3.58389	145.11	0.42
298.15	0.99975	0.33135	53.27	0.39
298.15	0.99991	0.65012	66.42	0.39
298.19	1.00019	1.03055	81.57	0.4
298.2	1.00035	0.111	44.18	0.39
298.16	1.0009	1.03979	81.77	0.4
298.18	1.00099	2.23856	125.53	0.41
298.15	1.15326	3.5774	174.45	0.43
298.18	3.53342	1.0202	161.05	0.42
298.19	3.58016	0.10571	131.07	0.41
298.16	3.58072	2.2366	199.57	0.44
298.14	3.58228	0.33082	138.88	0.42
298.24	3.58557	0.64398	149.73	0.42
373.15	0.10039	3.58061	141.33	0.45
373.15	0.10678	2.23885	95.98	0.44
373.15	0.10696	0.65057	32.94	0.43
373.15	0.10713	0.11257	9.69	0.42
373.15	0.10729	1.0451	49.49	0.43
373.15	0.10731	0.65049	32.99	0.43
373.15	0.99975	0.33135	51.74	0.43
373.15	1.00017	1.03075	79.64	0.43
373.15	1.00034	0.11086	42.61	0.43
373.15	1.00035	0.111	42.59	0.43
373.15	1.0007	3.58334	167.15	0.46
373.15	1.00495	0	37.96	0.43
373.15	1.01161	2.24089	124.39	0.45
373.15	3.53342	1.0202	156.69	0.46
373.15	3.58129	0.64988	145.92	0.46
373.15	3.58159	0.11084	126.84	0.45
373.15	3.5817	0	122.7	0.45
373.15	3.58228	0.33082	134.85	0.45
373.15	3.5847	2.24416	194.66	0.48
423.15	0.10678	2.23885	99.5	0.15
423.15	0.10807	3.58389	148.12	0.2
423.15	0.99991	0.65012	67.36	0.13
423.15	1.0007	3.58334	172.79	0.22
423.15	1.0915	0.65123	70.43	0.13
423.15	3.53342	1.0202	162.28	0.21
423.14	3.58159	0.11084	131.83	0.18
423.15	3.5817	0	127.48	0.18
423.13	3.58268	0.11074	131.94	0.18
473.15	0.10518	0	5.14	0.09
473.15	1.00495	0	44.03	0.12
473.15	3.5817	0	137.6	0.2

System: potassium chloride + sodium chloride + water; phases: Liquid
Fixed: Pressure, kPa = 10000
Property: Mass density, kg/m3 (Liquid); method: Vibrating tube method
Temperature, K	Molality, mol/kg of sodium chloride	Molality, mol/kg of potassium chloride	Mass density, kg/m3	uncertainty
298.16	1.00035	0.111	43.83	0.4
298.14	1.0009	1.03979	81.36	0.43
298.15	1.00092	0	38.93	0.4
298.17	1.00099	2.23856	125.11	0.48
298.12	1.15326	3.5774	173.81	0.55
298.15	2.99981	0	108.05	0.46
298.16	3.53342	1.0202	160.32	0.53
298.17	3.58016	0.10571	130.45	0.49
298.15	3.58072	2.2366	198.75	0.59
298.15	3.58228	0.33082	138.2	0.5
298.24	3.58557	0.64398	149.08	0.51
298.17	0.10395	2.06402	90.04	0.44
298.15	0.10518	0	4.31	0.38
298.15	0.10676	1.02732	49.12	0.4
298.19	0.10696	0.65057	33.84	0.39
298.16	0.10756	0.11055	9.65	0.38
298.12	0.10807	3.58389	144.55	0.51
298.15	0.49988	0	20	0.39
298.15	0.99975	0.33135	52.99	0.41
298.16	0.99991	0.65012	66.11	0.42
298.14	1.00019	1.03055	81.12	0.43
373.15	0.09977	0	3.9	0.42
373.15	0.10039	3.58061	140.82	0.53
373.16	0.10678	2.23885	95.61	0.48
373.15	0.10696	0.65057	32.77	0.43
373.15	0.10713	0.11257	9.61	0.42
373.15	0.10729	1.0451	49.32	0.44
373.15	0.10731	0.65049	32.83	0.43
373.15	0.49956	0	19.2	0.43
373.15	0.99975	0.33135	51.45	0.44
373.15	1.00017	1.03075	79.27	0.46
373.15	1.00034	0.11086	42.43	0.44
373.15	1.00035	0.111	42.4	0.44
373.15	1.0007	3.58334	166.53	0.57
373.15	1.00092	0	37.5	0.43
373.15	1.01161	2.24089	123.94	0.51
373.15	2.99981	0	104.47	0.49
373.15	3.53342	1.0202	156	0.55
373.15	3.58129	0.64988	145.37	0.54
373.15	3.58159	0.11084	126.3	0.51
373.15	3.5817	0	122.1	0.51
373.15	3.58228	0.33082	134.23	0.52
373.16	3.5847	2.24416	193.96	0.61
423.15	0.09977	0	4.18	0.24
423.15	0.10678	2.23885	98.92	0.34
423.14	0.10713	0.11257	10.05	0.25
423.14	0.10729	1.0451	51.24	0.28
423.14	0.10731	0.65049	34.28	0.26
423.15	0.10807	3.58389	147.22	0.42
423.15	0.49988	0	20.21	0.25
423.14	0.83	0.08421	36.92	0.27
423.15	0.99991	0.65012	66.91	0.3
423.12	1.00017	1.03075	82	0.32
423.15	1.00034	0.11086	44.36	0.27
423.16	1.0007	3.58334	171.94	0.46
423.15	1.0009	1.03979	82.45	0.32
423.15	1.00495	0	39.52	0.27
423.13	1.01161	2.24089	127.7	0.39
423.15	1.0915	0.65123	69.96	0.3
423.15	2.99853	0	108.43	0.36
423.15	3.53342	1.0202	161.2	0.45
423.12	3.58129	0.64988	149.53	0.42
423.16	3.58159	0.11084	131.13	0.39
423.15	3.5817	0	126.6	0.39
423.15	3.58268	0.11074	131.13	0.39
423.14	3.5847	2.24416	199.04	0.51
473.15	3.58481	1.12327	173.74	0.45
473.14	3.58647	1.04538	171.28	0.45
473.2	3.58656	2.2439	207.15	0.53
473.17	0.01064	0.64745	33.26	0.14
473.18	0.01065	1.04555	51.07	0.17
473.15	0.01065	1.7236	80.17	0.24
473.23	0.01065	0.33261	18.07	0.11
473.17	0.01066	2.2397	101.7	0.29
473.17	0.01071	0.10055	6	0.1
473.16	0.01075	0.64855	32.89	0.14
473.16	0.01094	0.32983	17.71	0.11
473.17	0.01186	3.58435	148.37	0.39
473.18	0.01279	1.16224	56.25	0.18
473.15	0.09977	0	4.74	0.09
473.18	0.10654	3.5855	154.43	0.41
473.25	0.10663	0.33076	21.79	0.12
473.17	0.1067	1.72359	83.96	0.25
473.16	0.10674	0.65159	36.87	0.14
473.17	0.10678	1.04578	54.91	0.18
473.17	0.10685	2.24084	105.22	0.29
473.15	0.10756	0.11055	10.86	0.1
473.18	0.11452	3.57565	152.65	0.4
473.15	0.49988	0	22.47	0.12
473.16	0.7839	0.7682	68.95	0.21
473.15	0.99975	0.33135	58.4	0.19
473.15	0.99991	0.65012	72.47	0.22
473.15	1.00035	0.111	48.45	0.17
473.15	1.00495	0	43.4	0.16
473.22	1.01002	1.04505	87.8	0.25
473.22	1.01027	2.24076	133.95	0.36
473.12	1.01033	0.65054	72.27	0.22
473.16	1.0915	0.65123	75.88	0.23
473.19	1.15332	3.57746	185.89	0.48
473.17	2.2849	2.2393	174.6	0.46
473.15	2.99853	0	117.71	0.32
473.15	3.58159	0.11084	140.35	0.38
473.15	3.5817	0	135.93	0.37
473.17	3.58228	0.33082	148.78	0.4
473.15	3.58268	0.11074	140.57	0.38
523.06	0.01075	0.64855	37.93	0.37
523.11	0.01186	3.58429	165.88	0.54
523.15	0.09977	0	5.84	0.35
523.16	0.10395	2.06402	110.99	0.46
523.15	0.10654	3.5855	171.43	0.55
523.15	0.10676	1.02732	62.26	0.4
523.16	0.10678	2.23885	119.53	0.47
523.15	0.10729	1.0451	63.14	0.4
523.14	0.10731	0.65049	44.05	0.38
523.15	0.10756	0.11055	13.06	0.36
523.16	0.10807	3.58389	174.01	0.56
523.13	0.11451	3.57558	171.57	0.55
523.16	0.49988	0	26.88	0.36
523.16	0.99991	0.65012	83.22	0.42
523.15	1.00035	0.111	56.67	0.39
523.16	1.0007	3.58334	202.38	0.61
523.12	1.0009	1.03979	100.07	0.44
523.15	1.00099	2.23856	151.7	0.52
523.15	1.00495	0	51.01	0.39
523.17	1.01161	2.24089	151.1	0.52
523.15	2.99853	0	132.55	0.49
523.15	3.58159	0.11084	157.49	0.53
523.15	3.5817	0	153.23	0.52
523.15	3.58464	1.12325	194.03	0.59
523.17	3.5847	2.24416	227.7	0.65
523.15	3.58557	0.64398	178.22	0.57

System: potassium chloride + sodium chloride + water; phases: Liquid
Fixed: Pressure, kPa = 20000
Property: Mass density, kg/m3 (Liquid); method: Vibrating tube method
Temperature, K	Molality, mol/kg of sodium chloride	Molality, mol/kg of potassium chloride	Mass density, kg/m3	uncertainty
298.17	0.10395	2.06402	89.59	0.51
298.15	0.10518	0	4.28	0.38
298.14	0.10676	1.02732	48.82	0.43
298.19	0.10696	0.65057	33.59	0.41
298.19	0.10756	0.11055	9.6	0.39
298.12	0.10807	3.58389	143.92	0.66
298.15	0.49988	0	19.8	0.39
298.15	0.99975	0.33135	52.69	0.44
298.16	0.99991	0.65012	65.77	0.46
298.09	1.00019	1.03055	80.6	0.49
298.15	1.00035	0.111	43.61	0.42
298.12	1.0009	1.03979	80.83	0.49
298.15	1.00092	0	38.63	0.41
298.15	1.00099	2.23856	124.37	0.6
298.12	1.15326	3.5774	172.97	0.74
298.15	2.99981	0	107.3	0.56
298.15	3.53342	1.0202	159.41	0.7
298.17	3.58016	0.10571	129.63	0.62
298.13	3.58072	2.2366	197.7	0.82
298.16	3.58228	0.33082	137.36	0.64
298.24	3.58557	0.64398	148.21	0.67
298.13	0.10676	1.02732	48.59	0.43
298.17	0.10696	0.65057	33.27	0.41
298.17	0.10756	0.11055	9.43	0.39
298.11	0.10807	3.58389	143.2	0.66
298.15	0.99975	0.33135	52.37	0.44
373.15	0.09977	0	3.89	0.42
373.15	0.10039	3.58061	140.25	0.67
373.15	0.10678	2.23885	95.16	0.56
373.15	0.10696	0.65057	32.61	0.44
373.15	0.10713	0.11257	9.59	0.43
373.15	0.10729	1.0451	49.08	0.47
373.14	0.10731	0.65049	32.68	0.44
373.16	0.49956	0	19.06	0.43
373.14	0.99975	0.33135	51.15	0.47
373.15	1.00017	1.03075	78.85	0.52
373.15	1.00034	0.11086	42.15	0.46
373.15	1.00035	0.111	42.14	0.46
373.15	1.0007	3.58334	165.81	0.75
373.15	1.00092	0	37.23	0.45
373.14	1.01161	2.24089	123.3	0.63
373.15	2.99981	0	103.78	0.58
373.15	3.53342	1.0202	155.23	0.71
373.15	3.58129	0.64988	144.54	0.68
373.15	3.58159	0.11084	125.56	0.63
373.14	3.5817	0	121.37	0.62
373.16	3.58228	0.33082	133.59	0.65
373.15	3.5847	2.24416	193.03	0.83
423.15	0.10807	3.58389	146.25	0.6
423.15	0.50071	0	20.05	0.26
423.15	0.83	0.08421	36.59	0.29
423.15	0.99991	0.65012	66.35	0.36
423.15	1.00017	1.03075	81.41	0.4
423.15	1.00034	0.11086	43.92	0.31
423.16	1.0007	3.58334	170.83	0.7
423.17	1.0009	1.03979	81.85	0.4
423.15	1.00495	0	39.14	0.3
423.15	1.01161	2.24089	126.83	0.54
423.15	1.0915	0.65123	69.39	0.37
423.15	2.99853	0	107.49	0.48
423.15	3.53342	1.0202	160	0.66
423.14	3.58129	0.64988	148.49	0.61
423.16	3.58159	0.11084	130.03	0.55
423.15	3.5817	0	125.58	0.53
423.15	3.58268	0.11074	130.03	0.55
423.15	3.5847	2.24416	197.82	0.8
423.15	0.09977	0	4.14	0.25
423.14	0.10678	2.23885	98.17	0.45
423.15	0.10713	0.11257	9.93	0.25
423.16	0.10729	1.0451	50.88	0.32
423.16	0.10731	0.65049	34.1	0.29
473.15	0.01064	0.64745	32.7	0.18
473.22	0.01065	1.04555	50.49	0.25
473.22	0.01065	1.7236	79.38	0.36
473.25	0.01065	0.33261	17.86	0.13
473.22	0.01066	2.2397	100.58	0.44
473.17	0.01071	0.10055	5.88	0.1
473.17	0.01075	0.64855	32.46	0.18
473.17	0.01094	0.32983	17.43	0.13
473.2	0.01186	3.58435	146.68	0.62
473.23	0.01279	1.16224	55.63	0.27
473.15	0.09977	0	4.65	0.1
473.19	0.10654	3.5855	152.39	0.64
473.27	0.10663	0.33076	21.49	0.14
473.24	0.1067	1.72359	83.19	0.37
473.22	0.10674	0.65159	36.5	0.19
473.23	0.10678	1.04578	54.31	0.26
473.23	0.10685	2.24084	104.14	0.45
473.16	0.10756	0.11055	10.74	0.11
473.22	0.11452	3.57565	150.95	0.63
473.15	0.49988	0	22.04	0.14
473.22	0.7839	0.7682	68.18	0.31
473.16	0.99975	0.33135	57.49	0.27
473.15	0.99991	0.65012	71.42	0.33
473.15	1.00035	0.111	47.7	0.24
473.15	1.00495	0	42.67	0.22
473.27	1.01002	1.04505	86.81	0.39
473.2	1.01027	2.24076	132.17	0.56
473.16	1.01033	0.65054	71.23	0.33
473.15	1.0915	0.65123	74.82	0.34
473.22	1.15332	3.57746	183.8	0.76
473.2	2.2849	2.2393	172.61	0.72
473.15	2.99853	0	116.03	0.5
473.15	3.58159	0.11084	138.49	0.59
473.15	3.5817	0	134.07	0.57
473.17	3.58228	0.33082	146.8	0.62
473.15	3.58268	0.11074	138.68	0.59
473.19	3.58481	1.12327	171.78	0.71
473.21	3.58647	1.04538	169.12	0.7
473.26	3.58656	2.2439	205.17	0.84
523.17	0.11451	3.57558	167.64	0.75
523.15	0.49988	0	25.93	0.38
523.16	0.99991	0.65012	80.76	0.49
523.17	1.00035	0.111	54.86	0.43
523.16	1.0007	3.58334	198.01	0.85
523.16	1.0009	1.03979	97.32	0.54
523.16	1.00099	2.23856	147.98	0.69
523.16	1.00495	0	49.37	0.42
523.17	1.01161	2.24089	147.44	0.69
523.16	2.99853	0	128.91	0.63
523.16	3.58159	0.11084	153.52	0.7
523.15	3.5817	0	149.26	0.69
523.19	3.58464	1.12325	189.64	0.82
523.19	3.5847	2.24416	222.98	0.94
523.16	3.58557	0.64398	173.89	0.77
523.16	0.01186	3.58429	162.08	0.73
523.15	0.09977	0	5.59	0.35
523.16	0.10395	2.06402	108.1	0.57
523.17	0.10654	3.5855	167.49	0.75
523.16	0.10676	1.02732	60.46	0.45
523.16	0.10678	2.23885	116.47	0.59
523.2	0.10713	0.11257	12.83	0.36
523.15	0.10729	1.0451	61.25	0.45
523.15	0.10731	0.65049	42.39	0.41
523.17	0.10756	0.11055	12.56	0.36
523.16	0.10807	3.58389	170.01	0.76

System: potassium chloride + sodium chloride + water; phases: Liquid
Fixed: Pressure, kPa = 5000
Property: Mass density, kg/m3 (Liquid); method: Vibrating tube method
Temperature, K	Molality, mol/kg of sodium chloride	Molality, mol/kg of potassium chloride	Mass density, kg/m3	uncertainty
298.18	0.10395	2.06402	90.22	0.41
298.15	0.10518	0	4.31	0.38
298.15	0.10676	1.02732	49.24	0.39
298.2	0.10696	0.65057	33.89	0.39
298.1	0.10756	0.11055	9.56	0.38
298.13	0.10807	3.58389	144.89	0.45
298.15	0.49988	0	20.06	0.38
298.16	0.99975	0.33135	53.16	0.39
298.14	0.99991	0.65012	66.27	0.4
298.18	1.00019	1.03055	81.41	0.41
298.18	1.00035	0.111	44.02	0.39
298.22	1.0009	1.03979	81.72	0.41
298.15	1.00092	0	39.09	0.39
298.18	1.00099	2.23856	125.41	0.43
298.14	1.15326	3.5774	174.26	0.47
298.15	2.99981	0	108.44	0.42
298.17	3.53342	1.0202	160.79	0.46
298.17	3.58016	0.10571	130.83	0.44
298.16	3.58072	2.2366	199.3	0.49
298.13	3.58228	0.33082	138.63	0.44
298.24	3.58557	0.64398	149.49	0.45
373.15	0.09977	0	3.95	0.42
373.15	0.10039	3.58061	141.15	0.48
373.15	0.10678	2.23885	95.86	0.45
373.15	0.10696	0.65057	32.93	0.43
373.15	0.10713	0.11257	9.67	0.42
373.15	0.10729	1.0451	49.44	0.43
373.15	0.10731	0.65049	32.95	0.43
373.15	0.49956	0	19.2	0.42
373.15	0.99975	0.33135	51.63	0.43
373.15	1.00017	1.03075	79.51	0.44
373.15	1.00034	0.11086	42.53	0.43
373.15	1.00035	0.111	42.53	0.43
373.15	1.0007	3.58334	166.9	0.5
373.15	1.00092	0	37.62	0.43
373.15	1.01161	2.24089	124.25	0.47
373.15	2.99981	0	104.81	0.46
373.15	3.53342	1.0202	156.45	0.49
373.15	3.58129	0.64988	145.75	0.48
373.15	3.58159	0.11084	126.61	0.47
373.15	3.5817	0	122.47	0.47
373.15	3.58228	0.33082	134.63	0.47
373.15	3.5847	2.24416	194.42	0.52
423.15	0.09977	0	4.18	0.24
423.15	0.10678	2.23885	99.28	0.3
423.15	0.10713	0.11257	10.16	0.25
423.13	0.10729	1.0451	51.44	0.26
423.15	0.10731	0.65049	34.48	0.25
423.15	0.10807	3.58389	147.8	0.34
423.16	0.50071	0	20.35	0.25
423.13	0.83	0.08421	37.09	0.26
423.16	0.99991	0.65012	67.25	0.27
423.13	1.00017	1.03075	82.41	0.28
423.15	1.00034	0.11086	44.53	0.26
423.15	1.0007	3.58334	172.51	0.37
423.15	1.0009	1.03979	82.81	0.28
423.16	1.00495	0	39.77	0.26
423.13	1.01161	2.24089	128.17	0.32
423.16	1.0915	0.65123	70.29	0.27
423.15	2.99853	0	108.86	0.3
423.16	3.53342	1.0202	161.87	0.36
423.13	3.58129	0.64988	150.16	0.34
423.15	3.58159	0.11084	131.62	0.33
423.15	3.5817	0	127.13	0.32
423.14	3.58268	0.11074	131.62	0.33
423.14	3.5847	2.24416	199.73	0.4
473.15	0.01064	0.64745	33.46	0.12
473.16	0.01071	0.10055	6.03	0.09
473.16	0.01094	0.32983	17.86	0.1
473.15	0.09977	0	4.79	0.09
473.15	0.49988	0	22.72	0.11
473.16	0.99975	0.33135	58.94	0.15
473.16	0.99991	0.65012	73.12	0.17
473.15	1.00495	0	43.81	0.13
473.15	2.99853	0	118.57	0.23
473.15	3.5817	0	136.95	0.26
473.17	3.58228	0.33082	149.86	0.28
523.05	0.01075	0.64855	38.74	0.36
523.12	0.01186	3.58429	168.25	0.46
523.15	0.09977	0	5.99	0.35
523.16	0.10395	2.06402	112.61	0.41
523.13	0.10654	3.5855	173.71	0.47
523.16	0.10676	1.02732	63.3	0.38
523.15	0.10678	2.23885	121.2	0.42
523.15	0.10713	0.11257	13.51	0.35
523.13	0.10729	1.0451	64.11	0.38
523.14	0.10731	0.65049	44.67	0.37
523.14	0.10756	0.11055	13.29	0.35
523.16	0.10807	3.58389	176.32	0.47
523.12	0.11451	3.57558	173.97	0.47
523.15	0.49988	0	27.46	0.36
523.15	0.99991	0.65012	84.56	0.39
523.14	1.00035	0.111	57.72	0.37
523.15	1.0007	3.58334	204.91	0.5
523.12	1.0009	1.03979	101.57	0.4
523.16	1.00099	2.23856	153.85	0.45
523.14	1.00495	0	52	0.37
523.13	1.01161	2.24089	153.11	0.45
523.15	2.99853	0	134.61	0.43
523.15	3.58159	0.11084	159.75	0.45
523.16	3.5817	0	155.55	0.45
523.15	3.58464	1.12325	196.61	0.49
523.14	3.5847	2.24416	230.57	0.52
523.18	3.58557	0.64398	180.81	0.47

System: potassium chloride + sodium chloride + water; phases: Liquid
Fixed: Pressure, kPa = 30000
Property: Mass density, kg/m3 (Liquid); method: Vibrating tube method
Temperature, K	Molality, mol/kg of sodium chloride	Molality, mol/kg of potassium chloride	Mass density, kg/m3	uncertainty
298.15	0.99991	0.65012	65.36	0.52
298.19	1.00019	1.03055	80.3	0.57
298.14	1.00035	0.111	43.29	0.45
298.12	1.0009	1.03979	80.36	0.57
298.15	1.00099	2.23856	123.71	0.75
298.17	1.15326	3.5774	172.14	0.96
298.14	3.53342	1.0202	158.48	0.9
298.15	3.58016	0.10571	128.79	0.77
298.16	3.58072	2.2366	196.79	1.1
298.15	3.58228	0.33082	136.54	0.8
298.23	3.58557	0.64398	147.37	0.85
373.15	0.10039	3.58061	139.63	0.83
373.14	0.10678	2.23885	94.72	0.65
373.14	0.10696	0.65057	32.41	0.46
373.15	0.10713	0.11257	9.53	0.43
373.15	0.10729	1.0451	48.83	0.5
373.15	0.10731	0.65049	32.52	0.46
373.14	0.99975	0.33135	50.82	0.51
373.15	1.00017	1.03075	78.47	0.59
373.15	1.00034	0.11086	41.86	0.48
373.14	1.00035	0.111	41.87	0.48
373.15	1.0007	3.58334	165.11	0.94
373.15	1.01161	2.24089	122.74	0.76
373.15	3.53342	1.0202	154.49	0.9
373.15	3.58129	0.64988	143.82	0.85
373.15	3.58159	0.11084	124.87	0.77
373.15	3.5817	0	120.78	0.75
373.15	3.58228	0.33082	132.81	0.8
373.15	3.5847	2.24416	192.17	1.07
423.15	0.10678	2.23885	97.66	0.57
423.15	0.10713	0.11257	9.84	0.25
423.15	0.10729	1.0451	50.49	0.37
423.15	0.10731	0.65049	33.75	0.31
423.15	0.10807	3.58389	145.37	0.82
423.16	0.83	0.08421	36.28	0.32
423.15	0.99991	0.65012	65.84	0.43
423.15	1.00017	1.03075	80.88	0.5
423.15	1.00034	0.11086	43.55	0.35
423.15	1.0007	3.58334	169.83	0.96
423.15	1.0009	1.03979	81.2	0.5
423.16	1.01161	2.24089	126.03	0.72
423.16	1.0915	0.65123	68.91	0.44
423.15	3.53342	1.0202	158.94	0.9
423.16	3.58129	0.64988	147.59	0.84
423.16	3.58159	0.11084	129.12	0.74
423.15	3.5817	0	124.62	0.71
423.15	3.58268	0.11074	129.12	0.74
423.15	3.5847	2.24416	196.59	1.1
473.15	0.01064	0.64745	32.23	0.23
473.22	0.01065	1.04555	49.89	0.32
473.24	0.01065	1.7236	78.54	0.48
473.3	0.01065	0.33261	17.65	0.15
473.24	0.01066	2.2397	99.6	0.59
473.17	0.01071	0.10055	5.78	0.11
473.2	0.01075	0.64855	32.04	0.22
473.17	0.01094	0.32983	17.17	0.15
473.21	0.01186	3.58435	145.21	0.84
473.25	0.01279	1.16224	54.96	0.35
473.23	0.10654	3.5855	151.12	0.87
473.29	0.10663	0.33076	21.16	0.17
473.26	0.1067	1.72359	82.28	0.5
473.22	0.10674	0.65159	36.06	0.25
473.25	0.10678	1.04578	53.7	0.34
473.28	0.10685	2.24084	103.16	0.61
473.16	0.10756	0.11055	10.56	0.12
473.23	0.11452	3.57565	149.43	0.86
473.23	0.7839	0.7682	67.22	0.41
473.16	0.99975	0.33135	56.65	0.36
473.16	0.99991	0.65012	70.47	0.43
473.15	1.00035	0.111	47.05	0.31
473.3	1.01002	1.04505	85.68	0.51
473.27	1.01027	2.24076	131.05	0.76
473.2	1.01033	0.65054	70.37	0.43
473.15	1.0915	0.65123	73.87	0.45
473.23	1.15332	3.57746	182.05	1.04
473.22	2.2849	2.2393	170.8	0.98
473.16	3.58159	0.11084	136.91	0.79
473.15	3.5817	0	132.5	0.77
473.16	3.58228	0.33082	145.04	0.84
473.15	3.58268	0.11074	137.1	0.79
473.21	3.58481	1.12327	169.9	0.97
473.23	3.58647	1.04538	167.51	0.96
473.27	3.58656	2.2439	203.14	1.15
523.14	0.01075	0.64855	35.86	0.42
523.18	0.01186	3.58429	159.06	0.94
523.16	0.10395	2.06402	105.76	0.69
523.18	0.10654	3.5855	164.33	0.97
523.17	0.10676	1.02732	59.01	0.5
523.16	0.10678	2.23885	114.03	0.72
523.2	0.10713	0.11257	12.22	0.37
523.2	0.10729	1.0451	59.79	0.5
523.16	0.10731	0.65049	41.21	0.44
523.16	0.10756	0.11055	12.17	0.37
523.16	0.10807	3.58389	166.75	0.98
523.19	0.11451	3.57558	164.59	0.97
523.17	0.99991	0.65012	78.79	0.58
523.17	1.00035	0.111	53.38	0.48
523.16	1.0007	3.58334	194.33	1.13
523.17	1.0009	1.03979	95.03	0.64
523.16	1.00099	2.23856	144.93	0.87
523.19	1.01161	2.24089	144.43	0.86
523.15	3.58159	0.11084	150.18	0.89
523.16	3.5817	0	145.99	0.87
523.22	3.58464	1.12325	186.04	1.09
523.17	3.5847	2.24416	219.01	1.27
523.16	3.58557	0.64398	170.29	1

System: potassium chloride + sodium chloride + water; phases: Liquid
Fixed: Pressure, kPa = 40000
Property: Mass density, kg/m3 (Liquid); method: Vibrating tube method
Temperature, K	Molality, mol/kg of sodium chloride	Molality, mol/kg of potassium chloride	Mass density, kg/m3	uncertainty
298.15	0.10518	0	4.22	0.38
298.1	0.10676	1.02732	48.28	0.51
298.16	0.10696	0.65057	33.05	0.45
298.15	0.10756	0.11055	9.3	0.39
298.11	0.10807	3.58389	142.62	1.03
298.15	0.49988	0	19.54	0.41
298.16	0.99975	0.33135	52.08	0.52
298.15	0.99991	0.65012	64.99	0.58
298.19	1.00019	1.03055	79.9	0.66
298.13	1.00035	0.111	43.02	0.49
298.2	1.0009	1.03979	79.99	0.66
298.15	1.00092	0	38.11	0.47
298.13	1.00099	2.23856	123.03	0.9
298.19	1.15326	3.5774	171.46	1.23
298.15	2.99981	0	105.93	0.8
298.13	3.53342	1.0202	157.6	1.13
298.15	3.58016	0.10571	128.03	0.93
298.16	3.58072	2.2366	195.84	1.4
298.15	3.58228	0.33082	135.76	0.98
298.23	3.58557	0.64398	146.55	1.05
373.15	0.09977	0	3.84	0.42
373.15	0.10039	3.58061	139.1	1.01
373.15	0.10678	2.23885	94.33	0.76
373.15	0.10696	0.65057	32.31	0.48
373.15	0.10713	0.11257	9.46	0.43
373.15	0.10729	1.0451	48.63	0.54
373.15	0.10731	0.65049	32.37	0.48
373.15	0.49956	0	18.79	0.45
373.15	0.99975	0.33135	50.62	0.55
373.15	1.00017	1.03075	78.04	0.67
373.15	1.00034	0.11086	41.61	0.51
373.15	1.00035	0.111	41.61	0.51
373.15	1.0007	3.58334	164.48	1.18
373.15	1.00092	0	36.78	0.5
373.15	1.01161	2.24089	122.24	0.91
373.15	2.99981	0	102.71	0.8
373.15	3.53342	1.0202	153.75	1.1
373.15	3.58129	0.64988	143.14	1.03
373.15	3.58159	0.11084	124.22	0.92
373.15	3.5817	0	120.08	0.9
373.15	3.58228	0.33082	132.16	0.97
373.15	3.5847	2.24416	191.37	1.37
423.15	0.09977	0	4.04	0.25
423.16	0.10678	2.23885	97.08	0.71
423.16	0.10713	0.11257	9.79	0.26
423.15	0.10729	1.0451	50.16	0.43
423.15	0.10731	0.65049	33.52	0.34
423.15	0.10807	3.58389	144.62	1.04
423.15	0.49988	0	19.64	0.29
423.16	0.83	0.08421	36.01	0.36
423.15	0.99991	0.65012	65.38	0.51
423.15	1.00017	1.03075	80.33	0.6
423.15	1.00034	0.11086	43.25	0.39
423.15	1.0009	1.03979	80.67	0.6
423.15	1.00495	0	38.5	0.37
423.16	1.01161	2.24089	125.32	0.91
423.16	1.0915	0.65123	68.43	0.53
423.15	2.99853	0	105.94	0.77
423.15	3.53342	1.0202	158	1.14
423.17	3.58129	0.64988	146.63	1.06
423.14	3.58159	0.11084	128.21	0.93
423.15	3.5817	0	123.82	0.9
423.15	3.58268	0.11074	128.3	0.93
423.15	3.5847	2.24416	195.55	1.4
473.15	0.01064	0.64745	31.89	0.27
473.17	0.01071	0.10055	5.72	0.11
473.17	0.01094	0.32983	16.98	0.17
473.15	0.09977	0	4.5	0.11
473.16	0.10756	0.11055	10.42	0.13
473.15	0.49988	0	21.42	0.2
473.17	0.99975	0.33135	56.03	0.44
473.16	0.99991	0.65012	69.69	0.54
473.16	1.00035	0.111	46.42	0.37
473.15	1.00495	0	41.49	0.34
473.16	1.0915	0.65123	73.04	0.56
473.15	2.99853	0	113.44	0.84
473.16	3.58159	0.11084	135.5	0.99
473.15	3.5817	0	131.1	0.96
473.16	3.58228	0.33082	143.58	1.05
473.15	3.58268	0.11074	135.66	1
523.15	0.01075	0.64855	35.03	0.45
523.2	0.01186	3.58429	156.59	1.17
523.15	0.09977	0	5.22	0.36
523.17	0.10395	2.06402	103.83	0.81
523.18	0.10654	3.5855	161.68	1.21
523.17	0.10676	1.02732	57.79	0.56
523.16	0.10678	2.23885	111.99	0.86
523.21	0.10729	1.0451	58.6	0.56
523.16	0.10731	0.65049	40.26	0.47
523.16	0.10756	0.11055	11.87	0.37
523.17	0.10807	3.58389	164.06	1.22
523.19	0.11451	3.57558	161.99	1.21
523.15	0.49988	0	24.49	0.41
523.17	0.99991	0.65012	77.16	0.66
523.16	1.00035	0.111	52.1	0.53
523.15	1.0007	3.58334	191.31	1.41
523.19	1.0009	1.03979	93.25	0.75
523.16	1.00099	2.23856	142.41	1.07
523.16	1.00495	0	46.82	0.5
523.2	1.01161	2.24089	142.01	1.07
523.16	2.99853	0	123.53	0.94
523.16	3.58159	0.11084	147.49	1.11
523.15	3.5817	0	143.27	1.08
523.21	3.58464	1.12325	183.07	1.36
523.19	3.5847	2.24416	215.76	1.58
523.16	3.58557	0.64398	167.28	1.25

System: potassium chloride + sodium chloride + water; phases: Liquid
Fixed: Pressure, kPa = 1970
Property: Mass density, kg/m3 (Liquid); method: Vibrating tube method
Temperature, K	Molality, mol/kg of sodium chloride	Molality, mol/kg of potassium chloride	Mass density, kg/m3	uncertainty
473.14	0.01064	0.64745	33.72	0.11
473.15	0.01065	1.04555	51.77	0.12
473.16	0.01065	1.7236	81.38	0.15
473.15	0.01065	0.33261	18.24	0.1
473.18	0.01066	2.2397	102.97	0.16
473.14	0.01071	0.10055	6.08	0.09
473.13	0.01075	0.64855	33.23	0.11
473.14	0.01094	0.32983	17.95	0.1
473.17	0.01186	3.58435	149.83	0.21
473.17	0.01279	1.16224	57.12	0.13
473.17	0.10654	3.5855	155.91	0.22
473.26	0.10663	0.33076	22.08	0.1
473.2	0.1067	1.72359	85.35	0.15
473.15	0.10674	0.65159	37.55	0.11
473.17	0.10678	1.04578	55.75	0.13
473.22	0.10685	2.24084	106.79	0.17
473.14	0.10756	0.11055	11.04	0.09
473.15	0.11411	0.11184	11.57	0.09
473.16	0.11452	3.57565	154.18	0.22
473.15	0.7839	0.7682	69.87	0.14
473.1	0.97791	0.30643	56.07	0.13
473.15	0.99975	0.33135	59.27	0.13
473.15	0.99991	0.65012	73.47	0.14
473.15	1.00035	0.111	49.17	0.12
473.22	1.01002	1.04505	88.88	0.15
473.24	1.01027	2.24076	130.44	0.19
473.14	1.01033	0.65054	73.28	0.14
473.2	1.0106	0.03171	45.07	0.12
473.17	1.0915	0.65123	76.95	0.14
473.16	1.15332	3.57746	187.63	0.25
473.16	2.2849	2.2393	176.25	0.24
473.14	3.58159	0.11084	142.04	0.2
473.15	3.58228	0.33082	150.58	0.21
473.15	3.58268	0.11074	142.26	0.2
473.16	3.58481	1.12327	175.56	0.24
473.16	3.58647	1.04538	173.06	0.24
473.26	3.58656	2.2439	204.45	0.27

System: potassium chloride + sodium chloride + water; phases: Liquid
Fixed: Pressure, kPa = 5840
Property: Mass density, kg/m3 (Liquid); method: Vibrating tube method
Temperature, K	Molality, mol/kg of sodium chloride	Molality, mol/kg of potassium chloride	Mass density, kg/m3	uncertainty
473.15	0.01065	1.04555	51.45	0.15
473.14	0.01065	1.7236	80.82	0.19
473.19	0.01065	0.33261	18.12	0.11
473.18	0.01066	2.2397	102.47	0.22
473.14	0.01075	0.64855	33.11	0.12
473.17	0.01186	3.58435	149.11	0.3
473.16	0.0128	1.1622	56.72	0.15
473.19	0.10654	3.5855	155.17	0.31
473.26	0.10663	0.33076	21.94	0.11
473.19	0.1067	1.72359	84.8	0.19
473.15	0.10674	0.65159	37.33	0.13
473.18	0.10678	1.04578	55.45	0.15
473.21	0.10685	2.24084	106.13	0.23
473.14	0.10756	0.11055	10.93	0.1
473.16	0.11452	3.57565	153.34	0.31
473.15	0.7839	0.7682	69.46	0.17
473.16	1.00035	0.111	48.83	0.14
473.2	1.01002	1.04505	88.35	0.2
473.24	1.01027	2.24076	134.74	0.28
473.14	1.01033	0.65054	72.81	0.17
473.16	1.0915	0.65123	76.42	0.18
473.16	1.15332	3.57746	186.68	0.36
473.16	2.2849	2.2393	175.36	0.34
473.15	3.58159	0.11084	141.22	0.29
473.16	3.58268	0.11074	141.42	0.29
473.15	3.58481	1.12327	174.61	0.34
473.15	3.58647	1.04538	172.23	0.34
473.25	3.58656	2.2439	208.45	0.4

System: potassium chloride + sodium chloride + water; phases: Liquid
Fixed: Pressure, kPa = 39850
Property: Mass density, kg/m3 (Liquid); method: Vibrating tube method
Temperature, K	Molality, mol/kg of sodium chloride	Molality, mol/kg of potassium chloride	Mass density, kg/m3	uncertainty
473.22	0.01065	1.04555	49.42	0.39
473.24	0.01065	1.7236	77.88	0.59
473.29	0.01065	0.33261	17.29	0.17
473.24	0.01066	2.2397	98.74	0.74
473.19	0.01075	0.64855	31.64	0.27
473.21	0.01186	3.58435	144.03	1.05
473.27	0.01279	1.16224	54.52	0.43
473.25	0.10654	3.5855	150.06	1.09
473.36	0.10663	0.33076	20.98	0.2
473.29	0.1067	1.72359	81.7	0.62
473.22	0.10674	0.65159	35.75	0.3
473.24	0.10678	1.04578	53.2	0.42
473.29	0.10685	2.24084	102.31	0.76
473.23	0.11452	3.57565	148.26	1.08
473.23	0.7839	0.7682	66.52	0.51
473.3	1.01002	1.04505	84.76	0.64
473.3	1.01027	2.24076	129.84	0.95
473.24	1.15332	3.57746	180.66	1.3
473.22	2.2849	2.2393	169.41	1.23
473.21	3.58481	1.12327	168.42	1.22
473.23	3.58647	1.04538	165.99	1.2
473.3	3.58656	2.2439	201.48	1.45
