Measured thermophysical data. Determination of the relative permittivity, a, and  Conductance, G, of methylbenzene at temperatures between  (303 and 393) K and pressures below 60 MPa with a  concentric cylinder capacitor at a frequency of 1 kHz
Source: J. Chem. Eng. Data, 2013, 10.1021/je400102p
Compound 1: toluene, C7H8, InChI=1S/C7H8/c1-7-5-3-2-4-6-7/h2-6H,1H3, purity 99.7%

System: toluene; phases: Liquid
Fixed: Frequency, MHz = 0.001
Property: Relative permittivity at various frequencies (Liquid); method: Concentric Cylinder Capacitor
Temperature, K	Pressure, kPa	Relative permittivity at various frequencies	uncertainty
303.15	312	2.37527	0.00084
303.15	1015	2.37634	0.00084
303.15	5058	2.38253	0.00084
303.15	10116	2.38999	0.00084
303.15	20221	2.40447	0.00084
303.15	30317	2.41824	0.00086
303.15	40408	2.43058	0.00086
303.15	50497	2.44313	0.00086
303.15	60603	2.45469	0.00088
333.15	402	2.31204	0.00083
333.15	995	2.3134	0.00082
333.15	5053	2.32081	0.00082
333.15	10114	2.32958	0.00082
333.15	20221	2.34637	0.00082
333.15	30317	2.36168	0.00084
333.15	40419	2.3756	0.00084
333.15	50510	2.38883	0.00084
333.15	60615	2.40129	0.00086
363.15	314	2.24824	0.00081
363.15	1010	2.2498	0.00081
363.15	5053	2.25867	0.00081
363.15	10111	2.26913	0.00081
363.15	10108	2.26912	0.00081
363.15	10109	2.26918	0.00081
363.15	20232	2.28831	0.0008
363.15	20229	2.28839	0.0008
363.15	20231	2.28835	0.0008
363.15	30325	2.30571	0.00082
363.15	30317	2.30557	0.00082
363.15	40408	2.32135	0.00082
363.15	50510	2.33603	0.00084
363.15	50502	2.33608	0.00084
363.15	60624	2.34978	0.00084
363.15	60614	2.3499	0.00084
393.15	1622	2.18753	0.00077
393.15	5063	2.19687	0.00079
393.15	5070	2.19705	0.00079
393.15	10114	2.20937	0.00079
393.15	10123	2.20955	0.00079
393.15	20234	2.23259	0.00079
393.15	20223	2.23281	0.00079
393.15	30331	2.2527	0.00081
393.15	40414	2.27067	0.00081
