Measured thermophysical data. Density, Viscosity, Speed of Sound, Bulk Modulus, Surface Tension, and Flash Point of Direct Sugar to Hydrocarbon Diesel (DSH-76) and Binary Mixtures of N-Hexadecane and 2,2,4,6,6-Pentamethylheptane
Source: J. Chem. Eng. Data, 2013, 10.1021/je400839x
Compound 1: hexadecane, C16H34, InChI=1S/C16H34/c1-3-5-7-9-11-13-15-16-14-12-10-8-6-4-2/h3-16H2,1-2H3, purity 99%
Compound 2: 2,2,4,6,6-pentamethylheptane, C12H26, InChI=1S/C12H26/c1-10(8-11(2,3)4)9-12(5,6)7/h10H,8-9H2,1-7H3, purity 98%

System: hexadecane; phases: Liquid
Fixed: Pressure, kPa = 101
Property: Mass density, kg/m3 (Liquid); method: Vibrating tube method
Temperature, K	Mass density, kg/m3	uncertainty
293.15	773.7	0.3
303.15	766.8	0.3
313.15	759.9	0.3
323.15	752.9	0.3
333.15	746	0.3
343.15	739	0.3
353.15	731.9	0.3
363.15	724.8	0.3
373.15	717.7	0.3

System: hexadecane; phases: Liquid
Fixed: Pressure, kPa = 101
Property: Viscosity, Pa*s (Liquid); method: Concentric cylinders viscometry
Temperature, K	Viscosity, Pa*s	uncertainty
293.15	0.00344	2e-05
303.15	0.00272	2e-05
313.15	0.00221	2e-05
323.15	0.00182	1e-05
333.15	0.00153	1e-05
343.15	0.00131	1e-05
353.15	0.00113	1e-05
363.15	0.00099	9e-06
373.15	0.000876	9e-06

System: 2,2,4,6,6-pentamethylheptane; phases: Liquid
Fixed: Pressure, kPa = 101
Property: Mass density, kg/m3 (Liquid); method: Vibrating tube method
Temperature, K	Mass density, kg/m3	uncertainty
293.15	745.5	0.6
303.15	738.2	0.6
313.15	730.9	0.6
323.15	723.5	0.6
333.15	716.1	0.6
343.15	708.6	0.6
353.15	700.9	0.5
363.15	693.2	0.5
373.15	685.5	0.5

System: 2,2,4,6,6-pentamethylheptane; phases: Liquid
Fixed: Pressure, kPa = 101
Property: Viscosity, Pa*s (Liquid); method: Concentric cylinders viscometry
Temperature, K	Viscosity, Pa*s	uncertainty
293.15	0.00129	2e-05
303.15	0.0011	1e-05
313.15	0.000941	1.2e-05
323.15	0.000827	1.1e-05
333.15	0.000726	1e-05
343.15	0.000643	1e-05
353.15	0.000573	9e-06
363.15	0.000515	9e-06
373.15	0.000467	8e-06

System: 2,2,4,6,6-pentamethylheptane; phases: Liquid
Fixed: Pressure, kPa = 101
Property: Speed of sound, m/s (Liquid); method: Pulse-echo method
Temperature, K	Speed of sound, m/s	uncertainty
293.15	1204	2.2
303.15	1164.9	2.2
313.15	1126.7	2.2
323.15	1089.3	2.2

System: 2,2,4,6,6-pentamethylheptane; phases: Liquid, Air at 1 atmosphere
Property: Surface tension liquid-gas, N/m (Liquid); method: Pendant drop shape
Temperature, K	Surface tension liquid-gas, N/m	uncertainty
294	0.0218	0.0004

System: hexadecane + 2,2,4,6,6-pentamethylheptane; phases: Liquid
Fixed: Pressure, kPa = 101
Property: Mass density, kg/m3 (Liquid); method: Vibrating tube method
Mole fraction of 2,2,4,6,6-pentamethylheptane	Temperature, K	Mass density, kg/m3	uncertainty
0	293.15	773.7	0.3
0	303.15	766.8	0.3
0	313.15	759.9	0.3
0	323.15	752.9	0.3
0	333.15	746	0.3
0	343.15	739	0.3
0	353.15	731.9	0.3
0	363.15	724.8	0.3
0	373.15	717.7	0.3
0.1261	293.15	770.6	0.3
0.1261	303.15	763.8	0.3
0.1261	313.15	756.8	0.3
0.1261	323.15	749.9	0.3
0.1261	333.15	742.9	0.3
0.1261	343.15	735.9	0.3
0.1261	353.15	728.8	0.3
0.1261	363.15	721.7	0.3
0.1261	373.15	714.5	0.3
0.2449	293.15	767.8	0.3
0.2449	303.15	760.9	0.3
0.2449	313.15	754	0.3
0.2449	323.15	747.1	0.3
0.2449	333.15	740.1	0.3
0.2449	343.15	733	0.3
0.2449	353.15	725.9	0.3
0.2449	363.15	718.8	0.3
0.2449	373.15	711.7	0.3
0.4087	293.15	763.6	0.4
0.4087	303.15	756.8	0.4
0.4087	313.15	749.8	0.4
0.4087	323.15	742.9	0.4
0.4087	333.15	735.8	0.4
0.4087	343.15	728.7	0.4
0.4087	353.15	721.5	0.4
0.4087	363.15	714.4	0.4
0.4087	373.15	707.1	0.4
0.562	293.15	759.5	0.4
0.562	303.15	752.6	0.4
0.562	313.15	745.6	0.4
0.562	323.15	738.6	0.4
0.562	333.15	731.5	0.4
0.562	343.15	724.4	0.4
0.562	353.15	717.1	0.4
0.562	363.15	709.8	0.4
0.562	373.15	702.5	0.4
0.7036	293.15	755.3	0.5
0.7036	303.15	748.3	0.5
0.7036	313.15	741.3	0.5
0.7036	323.15	734.2	0.5
0.7036	333.15	727	0.5
0.7036	343.15	719.7	0.5
0.7036	353.15	712.3	0.5
0.7036	363.15	704.9	0.4
0.7036	373.15	697.5	0.4
0.8368	293.15	751	0.5
0.8368	303.15	743.9	0.5
0.8368	313.15	736.8	0.5
0.8368	323.15	729.6	0.5
0.8368	333.15	722.3	0.5
0.8368	343.15	714.9	0.5
0.8368	353.15	707.5	0.5
0.8368	363.15	700	0.5
0.8368	373.15	692.3	0.5
1	293.15	745.5	0.6
1	303.15	738.2	0.6
1	313.15	730.9	0.6
1	323.15	723.5	0.6
1	333.15	716.1	0.6
1	343.15	708.6	0.6
1	353.15	700.9	0.5
1	363.15	693.2	0.5
1	373.15	685.5	0.5

System: hexadecane + 2,2,4,6,6-pentamethylheptane; phases: Liquid
Fixed: Pressure, kPa = 101
Property: Viscosity, Pa*s (Liquid); method: Concentric cylinders viscometry
Mole fraction of 2,2,4,6,6-pentamethylheptane	Temperature, K	Viscosity, Pa*s	uncertainty
0	293.15	0.00344	2e-05
0	303.15	0.00272	2e-05
0	313.15	0.00221	2e-05
0	323.15	0.00182	1e-05
0	333.15	0.00153	1e-05
0	343.15	0.00131	1e-05
0	353.15	0.00113	1e-05
0	363.15	0.00099	9e-06
0	373.15	0.000876	9e-06
0.1261	293.15	0.0031	2e-05
0.1261	303.15	0.00247	2e-05
0.1261	313.15	0.00203	2e-05
0.1261	323.15	0.00168	1e-05
0.1261	333.15	0.00142	1e-05
0.1261	343.15	0.00122	1e-05
0.1261	353.15	0.00106	1e-05
0.1261	363.15	0.000928	1e-05
0.1261	373.15	0.000823	9e-06
0.2449	293.15	0.00279	2e-05
0.2449	303.15	0.00225	2e-05
0.2449	313.15	0.00186	2e-05
0.2449	323.15	0.00155	1e-05
0.2449	333.15	0.00132	1e-05
0.2449	343.15	0.00114	1e-05
0.2449	353.15	0.000988	1e-05
0.2449	363.15	0.00087	1e-05
0.2449	373.15	0.000773	9e-06
0.4087	293.15	0.00241	2e-05
0.4087	303.15	0.00197	2e-05
0.4087	313.15	0.00164	2e-05
0.4087	323.15	0.00138	1e-05
0.4087	333.15	0.00118	1e-05
0.4087	343.15	0.00102	1e-05
0.4087	353.15	0.000894	1e-05
0.4087	363.15	0.000791	9e-06
0.4087	373.15	0.000706	9e-06
0.562	293.15	0.00209	2e-05
0.562	303.15	0.00172	2e-05
0.562	313.15	0.00144	2e-05
0.562	323.15	0.00123	1e-05
0.562	333.15	0.00106	1e-05
0.562	343.15	0.000922	1.1e-05
0.562	353.15	0.00081	1e-05
0.562	363.15	0.000719	9e-06
0.562	373.15	0.000644	9e-06
0.7036	293.15	0.0018	2e-05
0.7036	303.15	0.0015	2e-05
0.7036	313.15	0.00127	1e-05
0.7036	323.15	0.00109	1e-05
0.7036	333.15	0.000944	1.1e-05
0.7036	343.15	0.000827	1e-05
0.7036	353.15	0.00073	1e-05
0.7036	363.15	0.000651	9e-06
0.7036	373.15	0.000585	9e-06
0.8368	293.15	0.00156	2e-05
0.8368	303.15	0.00131	2e-05
0.8368	313.15	0.00111	1e-05
0.8368	323.15	0.000966	1.2e-05
0.8368	333.15	0.000843	1.1e-05
0.8368	343.15	0.000742	1e-05
0.8368	353.15	0.000658	1e-05
0.8368	363.15	0.000589	9e-06
0.8368	373.15	0.000531	9e-06
1	293.15	0.00129	2e-05
1	303.15	0.0011	1e-05
1	313.15	0.000941	1.2e-05
1	323.15	0.000827	1.1e-05
1	333.15	0.000726	1e-05
1	343.15	0.000643	1e-05
1	353.15	0.000573	9e-06
1	363.15	0.000515	9e-06
1	373.15	0.000467	8e-06

System: hexadecane + 2,2,4,6,6-pentamethylheptane; phases: Liquid
Fixed: Pressure, kPa = 101
Property: Speed of sound, m/s (Liquid); method: Pulse-echo method
Mole fraction of 2,2,4,6,6-pentamethylheptane	Temperature, K	Speed of sound, m/s	uncertainty
0.1261	293.15	1342.7	1.4
0.1261	303.15	1305.2	1.4
0.1261	313.15	1268.4	1.4
0.1261	323.15	1232.5	1.4
0.2449	293.15	1327.4	1.5
0.2449	303.15	1290	1.5
0.2449	313.15	1253.3	1.5
0.2449	323.15	1217.2	1.5
0.4087	293.15	1304.9	1.6
0.4087	303.15	1267.4	1.6
0.4087	313.15	1230.7	1.6
0.4087	323.15	1194.6	1.6
0.562	293.15	1282.2	1.8
0.562	303.15	1244.5	1.8
0.562	313.15	1207.5	1.8
0.562	323.15	1171.2	1.8
0.7036	293.15	1259.1	1.9
0.7036	303.15	1221.1	1.9
0.7036	313.15	1183.8	1.9
0.7036	323.15	1147.2	1.9
0.8368	293.15	1235.8	2
0.8368	303.15	1197.4	2
0.8368	313.15	1159.8	2
0.8368	323.15	1122.9	2
1	293.15	1204	2.2
1	303.15	1164.9	2.2
1	313.15	1126.7	2.2
1	323.15	1089.3	2.2

System: hexadecane + 2,2,4,6,6-pentamethylheptane; phases: Liquid, Air at 1 atmosphere
Fixed: Temperature, K = 294
Property: Surface tension liquid-gas, N/m (Liquid); method: Pendant drop shape
Mole fraction of 2,2,4,6,6-pentamethylheptane	Surface tension liquid-gas, N/m	uncertainty
0.1261	0.0259	0.0004
0.2449	0.0253	0.0004
0.4087	0.0243	0.0004
0.562	0.0238	0.0004
0.7036	0.0231	0.0004
0.8368	0.0225	0.0004
1	0.0218	0.0004
