Measured thermophysical data. Densities of Cresols and Linear Alkane Mixtures at High Pressure
Source: J. Chem. Eng. Data, 2013, 10.1021/je400055v
Compound 1: 2-methylphenol, C7H8O, InChI=1S/C7H8O/c1-6-4-2-3-5-7(6)8/h2-5,8H,1H3, purity 99.9%
Compound 2: 3-methylphenol, C7H8O, InChI=1S/C7H8O/c1-6-3-2-4-7(8)5-6/h2-5,8H,1H3, purity 99%
Compound 3: 4-methylphenol, C7H8O, InChI=1S/C7H8O/c1-6-2-4-7(8)5-3-6/h2-5,8H,1H3, purity 99.86%
Compound 4: heptane, C7H16, InChI=1S/C7H16/c1-3-5-7-6-4-2/h3-7H2,1-2H3, purity 99.9%
Compound 5: undecane, C11H24, InChI=1S/C11H24/c1-3-5-7-9-11-10-8-6-4-2/h3-11H2,1-2H3, purity 99.7%

System: 2-methylphenol; phases: Liquid
Property: Mass density, kg/m3 (Liquid); method: Vibrating tube method
Temperature, K	Pressure, kPa	Mass density, kg/m3	uncertainty
313.2	1022	1027.5	0.2
313.2	2031	1028.1	0.2
313.2	3017	1028.7	0.2
313.2	4012	1029.2	0.2
313.2	5018	1029.8	0.2
313.2	6010	1030.4	0.2
313.2	7005	1030.9	0.2
313.2	8006	1031.5	0.2
313.2	9004	1032	0.2
313.2	10005	1032.6	0.2
323.16	1013	1018.7	0.2
323.16	2039	1019.3	0.2
323.16	3007	1019.9	0.2
323.16	4009	1020.5	0.2
323.16	5005	1021.1	0.2
323.16	6004	1021.7	0.2
323.16	6999	1022.2	0.2
323.16	8008	1022.8	0.2
323.16	9002	1023.4	0.2
323.16	10005	1024	0.2
333.1	1010	1009.9	0.2
333.1	2033	1010.5	0.2
333.1	3009	1011.1	0.2
333.1	4014	1011.8	0.2
333.1	5004	1012.4	0.2
333.1	5998	1013	0.2
333.1	7000	1013.6	0.2
333.1	8009	1014.2	0.2
333.1	9004	1014.8	0.2
333.1	10010	1015.4	0.2
343.06	1023	1000.8	0.2
343.06	2024	1001.6	0.2
343.06	3015	1002.2	0.2
343.06	4003	1002.9	0.2
343.06	5009	1003.6	0.2
343.06	6005	1004.2	0.2
343.06	7008	1004.8	0.2
343.06	8003	1005.5	0.2
343.06	8999	1006.1	0.2
343.06	10004	1006.7	0.2
352.99	1043	991.9	0.2
352.99	2000	992.6	0.2
352.99	3034	993.3	0.2
352.99	4015	994	0.2
352.99	5033	994.6	0.2
352.99	6007	995.3	0.2
352.99	7016	996	0.2
352.99	8006	996.7	0.2
352.99	9015	997.3	0.2
352.99	10014	998	0.2

System: 3-methylphenol; phases: Liquid
Property: Mass density, kg/m3 (Liquid); method: Vibrating tube method
Temperature, K	Pressure, kPa	Mass density, kg/m3	uncertainty
313.22	1001	1019.1	0.3
313.22	2012	1019.8	0.3
313.22	3024	1020.3	0.3
313.22	4007	1020.9	0.3
313.22	4992	1021.4	0.3
313.22	6027	1022	0.3
313.22	7013	1022.6	0.3
313.22	8000	1023.1	0.3
313.22	9008	1023.7	0.3
313.22	10014	1024.3	0.3
313.22	11015	1024.8	0.3
313.22	12040	1025.4	0.3
313.22	13022	1026	0.3
313.22	14023	1026.4	0.3
313.22	15002	1026.9	0.3
313.22	16009	1027.5	0.3
313.22	17020	1028	0.3
313.22	18021	1028.5	0.3
313.22	19016	1029	0.3
313.22	20026	1029.6	0.3
313.22	21024	1030.1	0.3
313.22	22026	1030.7	0.3
313.22	23030	1031.1	0.3
313.22	24017	1031.6	0.3
313.22	25019	1032.2	0.3
322.9	1014	1011.2	0.3
322.9	2041	1011.8	0.3
322.9	3002	1012.4	0.3
322.9	4014	1013	0.3
322.9	5012	1013.6	0.3
322.9	6022	1014.2	0.3
322.9	7020	1014.7	0.3
322.9	8018	1015.3	0.3
322.9	9020	1015.9	0.3
322.9	10005	1016.4	0.3
322.9	11018	1017	0.3
322.9	12019	1017.6	0.3
322.9	13017	1018.2	0.3
322.9	14010	1018.7	0.3
322.9	15022	1019.3	0.3
322.9	16000	1019.8	0.3
322.9	17011	1020.4	0.3
322.9	18018	1020.9	0.3
322.9	19018	1021.4	0.3
322.9	20009	1022	0.3
322.9	21019	1022.6	0.3
322.9	22019	1023.1	0.3
322.9	23006	1023.6	0.3
322.9	24012	1024.1	0.3
322.9	25019	1024.7	0.3
332.61	1018	1003.3	0.3
332.61	2014	1004	0.3
332.61	3003	1004.5	0.3
332.61	4030	1005.2	0.3
332.61	5000	1005.8	0.3
332.61	6022	1006.4	0.3
332.61	7020	1006.9	0.3
332.61	8020	1007.5	0.3
332.61	9003	1008.1	0.3
332.61	10014	1008.7	0.3
332.61	11012	1009.3	0.3
332.61	12000	1009.9	0.3
332.61	13000	1010.4	0.3
332.61	14028	1011	0.3
332.61	15028	1011.6	0.3
332.61	16023	1012.2	0.3
332.61	17000	1012.7	0.3
332.61	18008	1013.3	0.3
332.61	19000	1013.9	0.3
332.61	20001	1014.4	0.3
332.61	21013	1014.9	0.3
332.61	22010	1015.5	0.3
332.61	23007	1016	0.3
332.61	24000	1016.6	0.3
332.61	25008	1017.1	0.3
342.27	2018	995.8	0.3
342.27	2999	996.4	0.3
342.27	3998	997	0.3
342.27	4976	997.6	0.3
342.27	5984	998.3	0.3
342.27	7059	998.9	0.3
342.27	8070	999.7	0.3
342.27	8967	1000.2	0.3
342.27	9994	1000.8	0.3
342.27	10921	1001.4	0.3
342.27	11964	1002.1	0.3
342.27	12971	1002.6	0.3
342.27	13954	1003.2	0.3
342.27	14960	1004	0.3
342.27	15941	1004.3	0.3
342.27	16963	1005.1	0.3
342.27	17992	1005.8	0.3
342.27	18963	1006.2	0.3
342.27	19996	1006.7	0.3
342.27	21003	1007.5	0.3
342.27	21974	1008	0.3
342.27	22968	1008.7	0.3
342.27	24051	1009.2	0.3
342.27	24971	1009.7	0.3
352.06	1951	988.5	0.3
352.06	2979	989.1	0.3
352.06	4034	989.8	0.3
352.06	4966	990.3	0.3
352.06	5929	990.9	0.3
352.06	7014	991.6	0.3
352.06	8011	992.2	0.3
352.06	8921	992.8	0.3
352.06	9982	993.4	0.3
352.06	10938	994	0.3
352.06	11975	994.6	0.3
352.06	12999	995.3	0.3
352.06	13907	995.8	0.3
352.06	14981	996.5	0.3
352.06	15966	997.1	0.3
352.06	16996	997.7	0.3
352.06	17984	998.3	0.3
352.06	18991	998.9	0.3
352.06	20005	999.5	0.3
352.06	21038	1000.1	0.3
352.06	22019	1000.6	0.3
352.06	23001	1001.2	0.3
352.06	24029	1001.8	0.3
352.06	24969	1002.3	0.3
361.9	1990	980.5	0.3
361.9	3001	981.2	0.3
361.9	4024	981.8	0.3
361.9	5019	982.5	0.3
361.9	6014	983.1	0.3
361.9	7025	983.7	0.3
361.9	8019	984.4	0.3
361.9	9010	985	0.3
361.9	9978	985.6	0.3
361.9	11019	986.3	0.3
361.9	12038	986.9	0.3
361.9	13020	987.6	0.3
361.9	14021	988.2	0.3
361.9	15006	988.8	0.3
361.9	15970	989.4	0.3
361.9	16988	990.1	0.3
361.9	17991	990.7	0.3
361.9	19016	991.4	0.3
361.9	20042	992	0.3
361.9	20983	992.6	0.3
361.9	22034	993.3	0.3
361.9	23021	993.9	0.3
361.9	24011	994.6	0.3
361.9	24912	995.1	0.3

System: 4-methylphenol; phases: Liquid
Property: Mass density, kg/m3 (Liquid); method: Vibrating tube method
Temperature, K	Pressure, kPa	Mass density, kg/m3	uncertainty
312.9	1002	1019.4	0.2
312.9	2016	1020	0.2
312.9	3017	1020.6	0.2
312.9	4016	1021.1	0.2
312.9	5002	1021.7	0.2
312.9	6010	1022.2	0.2
312.9	7000	1022.8	0.2
312.9	8006	1023.3	0.2
312.9	9001	1023.9	0.2
312.9	10002	1024.4	0.2
312.9	11006	1024.9	0.2
312.9	12002	1025.5	0.2
312.9	13015	1026	0.2
312.9	14007	1026.6	0.2
312.9	15006	1027.1	0.2
312.9	16019	1027.6	0.2
312.9	17004	1028.1	0.2
312.9	18011	1028.6	0.2
312.9	19009	1029.2	0.2
312.9	20005	1029.7	0.2
312.9	21008	1030.2	0.2
312.9	22004	1030.7	0.2
312.9	23023	1031.2	0.2
312.9	24004	1031.7	0.2
312.9	25006	1032.2	0.2
322.78	1019	1011.6	0.2
322.78	2015	1012.2	0.2
322.78	3002	1012.8	0.2
322.78	4013	1013.4	0.2
322.78	5011	1013.9	0.2
322.78	6018	1014.5	0.2
322.78	7022	1015.1	0.2
322.78	8001	1015.7	0.2
322.78	9015	1016.3	0.2
322.78	10006	1016.8	0.2
322.78	11002	1017.4	0.2
322.78	12018	1017.9	0.2
322.78	13002	1018.4	0.2
322.78	14016	1019	0.2
322.78	15001	1019.5	0.2
322.78	16000	1020.1	0.2
322.78	17001	1020.6	0.2
322.78	18029	1021.2	0.2
322.78	19015	1021.7	0.2
322.78	20011	1022.2	0.2
322.78	21022	1022.8	0.2
322.78	22002	1023.3	0.2
322.78	23006	1023.8	0.2
322.78	24010	1024.4	0.2
322.78	25023	1024.9	0.2
332.54	1040	1003.7	0.2
332.54	2019	1004.3	0.2
332.54	3013	1005	0.2
332.54	4019	1005.6	0.2
332.54	5001	1006.2	0.2
332.54	6001	1006.8	0.2
332.54	7002	1007.5	0.2
332.54	8041	1008.1	0.2
332.54	9000	1008.7	0.2
332.54	10001	1009.2	0.2
332.54	11006	1009.7	0.2
332.54	12001	1010.4	0.2
332.54	13008	1010.9	0.2
332.54	14004	1011.5	0.2
332.54	15003	1012.1	0.2
332.54	16015	1012.7	0.2
332.54	17011	1013.3	0.2
332.54	18014	1013.9	0.2
332.54	19014	1014.4	0.2
332.54	20009	1014.9	0.2
332.54	21013	1015.4	0.2
332.54	22007	1016	0.2
332.54	23000	1016.6	0.2
332.54	24001	1017.1	0.2
332.54	25032	1017.7	0.2
342.37	1001	995.7	0.2
342.37	2002	996.4	0.2
342.37	3004	997.1	0.2
342.37	4025	997.7	0.2
342.37	5036	998.2	0.2
342.37	6032	998.8	0.2
342.37	7001	999.3	0.2
342.37	8020	999.9	0.2
342.37	9003	1000.6	0.2
342.37	10002	1001.3	0.2
342.37	11036	1001.9	0.2
342.37	12001	1002.6	0.2
342.37	13020	1003.2	0.2
342.37	14019	1003.9	0.2
342.37	15007	1004.5	0.2
342.37	16000	1005.1	0.2
342.37	17022	1005.6	0.2
342.37	18014	1006.2	0.2
342.37	19033	1006.8	0.2
342.37	20005	1007.4	0.2
342.37	21005	1007.9	0.2
342.37	22010	1008.4	0.2
342.37	22962	1009	0.2
342.37	24021	1009.7	0.2
342.37	25017	1010.2	0.2
352.15	1023	987.9	0.2
352.15	2007	988.5	0.2
352.15	3000	989.1	0.2
352.15	4003	989.8	0.2
352.15	5001	990.4	0.2
352.15	6009	991.1	0.2
352.15	7001	991.7	0.2
352.15	8037	992.4	0.2
352.15	9008	993	0.2
352.15	10040	993.7	0.2
352.15	11006	994.3	0.2
352.15	12001	994.9	0.2
352.15	13001	995.5	0.2
352.15	14009	996.2	0.2
352.15	15000	996.8	0.2
352.15	16010	997.4	0.2
352.15	17028	998	0.2
352.15	18020	998.6	0.2
352.15	19045	999.3	0.2
352.15	20018	1000	0.2
352.15	21038	1000.5	0.2
352.15	22000	1001.1	0.2
352.15	23065	1001.8	0.2
352.15	24024	1002.4	0.2
352.15	25039	1002.9	0.2
361.9	1017	979.6	0.2
361.9	1991	980.3	0.2
361.9	3004	981	0.2
361.9	4027	981.5	0.2
361.9	4992	982.3	0.2
361.9	6000	983.1	0.2
361.9	7033	983.6	0.2
361.9	8010	984.4	0.2
361.9	9001	985	0.2
361.9	9998	985.8	0.2
361.9	10994	986.5	0.2
361.9	11976	987	0.2
361.9	12949	987.7	0.2
361.9	14010	988.3	0.2
361.9	15017	989	0.2
361.9	15992	989.6	0.2
361.9	16992	990.3	0.2
361.9	18007	990.8	0.2
361.9	19034	991.6	0.2
361.9	19992	992.1	0.2
361.9	21000	992.9	0.2
361.9	22059	993.4	0.2
361.9	23020	994.1	0.2
361.9	24014	994.8	0.2
361.9	25002	995.3	0.2

System: undecane; phases: Liquid
Property: Mass density, kg/m3 (Liquid); method: Vibrating tube method
Temperature, K	Pressure, kPa	Mass density, kg/m3	uncertainty
313.15	1000	726.6	0.3
313.15	2001	727.3	0.3
313.15	3001	728	0.3
313.15	4000	728.7	0.3
313.15	5000	729.5	0.3
313.15	6001	730.2	0.3
313.15	7000	731	0.3
313.15	8000	731.8	0.3
313.15	9000	732.6	0.3
313.15	10000	733.4	0.3
313.15	11000	734.1	0.3
313.15	12000	734.9	0.3
313.15	13000	735.7	0.3
313.15	14001	736.4	0.3
313.15	15000	737.2	0.3
313.15	16000	737.9	0.3
313.15	17000	738.7	0.4
313.15	18000	739.4	0.4
313.15	19000	740	0.4
313.15	20000	740.7	0.4
313.15	21001	741.3	0.4
313.15	22000	742	0.4
313.15	23000	742.6	0.4
313.15	24000	743.2	0.4
313.15	25000	743.7	0.4
323.1	1000	719	0.3
323.1	2000	719.8	0.3
323.1	3000	720.6	0.3
323.1	4000	721.4	0.3
323.1	5001	722.2	0.3
323.1	6000	723	0.3
323.1	7000	723.8	0.3
323.1	8000	724.6	0.3
323.1	9000	725.5	0.3
323.1	10001	726.3	0.3
323.1	11000	727.1	0.3
323.1	12000	727.9	0.3
323.1	13000	728.7	0.3
323.1	14000	729.5	0.3
323.1	15001	730.3	0.3
323.1	16000	731.1	0.4
323.1	17000	731.9	0.4
323.1	18000	732.6	0.4
323.1	19000	733.3	0.4
323.1	20000	734	0.4
323.1	21000	734.7	0.4
323.1	22000	735.4	0.4
323.1	23000	736	0.4
323.1	24000	736.7	0.4
323.1	25000	737.3	0.4
333.02	1000	711.3	0.3
333.02	2001	712.1	0.3
333.02	3000	713	0.3
333.02	4000	713.8	0.3
333.02	5000	714.7	0.3
333.02	6000	715.5	0.3
333.02	7000	716.4	0.3
333.02	8001	717.3	0.3
333.02	9000	718.1	0.3
333.02	10000	719	0.3
333.02	11000	719.9	0.3
333.02	12000	720.7	0.3
333.02	13000	721.5	0.3
333.02	14000	722.4	0.3
333.02	15000	723.2	0.4
333.02	16000	724	0.4
333.02	17000	724.8	0.4
333.02	18000	725.6	0.4
333.02	19000	726.3	0.4
333.02	20000	727.1	0.4
333.02	21000	727.8	0.4
333.02	22000	728.5	0.4
333.02	23000	729.2	0.4
333.02	24000	729.9	0.4
333.02	25000	730.5	0.4
342.09	1000	703.9	0.3
342.09	2000	704.8	0.3
342.09	3001	705.8	0.3
342.09	4000	706.7	0.3
342.09	5000	707.6	0.3
342.09	6000	708.5	0.3
342.09	7000	709.4	0.3
342.09	8000	710.4	0.3
342.09	9000	711.2	0.3
342.09	10000	712.2	0.3
342.09	11000	713.1	0.3
342.09	12000	714	0.3
342.09	13000	714.8	0.3
342.09	14000	715.7	0.3
342.09	15000	716.6	0.4
342.09	16000	717.4	0.4
342.09	17000	718.2	0.4
342.09	18000	719.1	0.4
342.09	19000	719.9	0.4
342.09	20000	720.6	0.4
342.09	21000	721.4	0.4
342.09	22000	722.2	0.4
342.09	23000	722.9	0.4
342.09	23999	723.6	0.4
342.09	25000	724.3	0.4
352.93	1000	696.5	0.3
352.93	2000	697.4	0.3
352.93	3001	698.4	0.3
352.93	4000	699.4	0.3
352.93	5000	700.4	0.3
352.93	6000	701.4	0.3
352.93	7001	702.3	0.3
352.93	8000	703.3	0.3
352.93	9000	704.3	0.3
352.93	10001	705.2	0.3
352.93	11000	706.2	0.3
352.93	12000	707.1	0.3
352.93	13000	708	0.3
352.93	14000	709	0.4
352.93	15000	709.8	0.4
352.93	16000	710.7	0.4
352.93	17000	711.6	0.4
352.93	18000	712.5	0.4
352.93	19000	713.3	0.4
352.93	20000	714.1	0.4
352.93	21000	715	0.4
352.93	22000	715.7	0.4
352.93	23000	716.5	0.4
352.93	24000	717.3	0.4
352.93	25000	718	0.4
362.91	1000	688.8	0.3
362.91	2001	689.9	0.3
362.91	3000	691	0.3
362.91	4000	692	0.3
362.91	5001	693.1	0.3
362.91	6001	694.1	0.3
362.91	7001	695.2	0.3
362.91	8000	696.2	0.3
362.91	9000	697.2	0.3
362.91	10000	698.2	0.3
362.91	11000	699.2	0.3
362.91	12001	700.2	0.3
362.91	13000	701.1	0.3
362.91	14001	702.1	0.4
362.91	15001	703	0.4
362.91	16001	704	0.4
362.91	17001	704.9	0.4
362.91	18000	705.8	0.4
362.91	19001	706.6	0.4
362.91	20000	707.5	0.4
362.91	21000	708.4	0.4
362.91	22000	709.2	0.4
362.91	23000	710	0.4
362.91	24000	710.9	0.4
362.91	25000	711.6	0.4

System: 2-methylphenol + 3-methylphenol; phases: Liquid
Fixed: Mole fraction of 3-methylphenol = 0.4891
Property: Mass density, kg/m3 (Liquid); method: Vibrating tube method
Pressure, kPa	Temperature, K	Mass density, kg/m3	uncertainty
103.352	313.19	1023.8	0.5
206.804	313.19	1024.3	0.5
308.94	313.19	1024.9	0.5
406.719	313.19	1025.5	0.5
509.158	313.19	1026	0.5
609.166	313.19	1026.6	0.5
710.694	313.19	1027.1	0.5
813.336	313.19	1027.7	0.5
912.33	313.19	1028.3	0.5
1014.061	313.19	1028.8	0.5
1115.386	313.19	1029.3	0.5
1219.852	313.19	1029.9	0.5
1317.732	313.19	1030.4	0.5
1421.691	313.19	1031	0.5
1522.307	313.19	1031.5	0.5
1625.354	313.19	1032.1	0.5
1723.234	313.19	1032.6	0.5
1824.357	313.19	1033.1	0.5
1926.391	313.19	1033.6	0.5
2026.804	313.19	1034.1	0.5
2129.345	313.19	1034.7	0.5
2229.353	313.19	1035.2	0.5
2333.008	313.19	1035.7	0.5
2433.219	313.19	1036.2	0.5
2532.922	313.19	1036.7	0.5
101.122	323.14	1015.4	0.5
206.5	323.14	1016	0.5
310.865	323.14	1016.6	0.5
408.137	323.14	1017.1	0.5
510.779	323.14	1017.8	0.5
609.673	323.14	1018.3	0.5
712.011	323.14	1018.9	0.5
812.424	323.14	1019.5	0.5
916.789	323.14	1020.1	0.5
1012.24	323.14	1020.6	0.5
1115.892	323.14	1021.2	0.5
1217.93	323.14	1021.8	0.5
1321.075	323.14	1022.4	0.5
1420.171	323.14	1022.9	0.5
1520.078	323.14	1023.5	0.5
1622.517	323.14	1024	0.5
1723.336	323.14	1024.6	0.5
1823.749	323.14	1025.1	0.5
1926.087	323.14	1025.6	0.5
2028.02	323.14	1026.2	0.5
2128.737	323.14	1026.7	0.5
2232.19	323.14	1027.3	0.5
2330.982	323.14	1027.8	0.5
2434.84	323.14	1028.4	0.5
2533.226	323.14	1028.9	0.5
104.061	333.08	1007	0.5
209.135	333.08	1007.6	0.5
305.292	333.08	1008.2	0.5
408.542	333.08	1008.8	0.5
507.942	333.08	1009.4	0.5
610.787	333.08	1010.1	0.5
708.667	333.08	1010.6	0.5
812.424	333.08	1011.3	0.5
913.04	333.08	1011.9	0.5
1015.682	333.08	1012.5	0.5
1115.183	333.08	1013	0.5
1217.724	333.08	1013.7	0.5
1318.036	333.08	1014.2	0.5
1418.955	333.08	1014.8	0.5
1520.89	333.08	1015.4	0.5
1624.949	333.08	1016	0.5
1724.248	333.08	1016.6	0.5
1824.154	333.08	1017.1	0.5
1925.884	333.08	1017.7	0.5
2030.958	333.08	1018.3	0.5
2132.89	333.08	1018.9	0.5
2232.494	333.08	1019.4	0.5
2336.048	333.08	1020	0.5
2437.981	333.08	1020.6	0.5
2536.57	333.08	1021.1	0.5
103.655	343.04	998.4	0.5
208.527	343.04	999	0.5
305.799	343.04	999.7	0.5
406.719	343.04	1000.3	0.5
510.779	343.04	1001	0.5
609.673	343.04	1001.6	0.5
711.403	343.04	1002.3	0.5
812.12	343.04	1002.9	0.5
912.128	343.04	1003.5	0.5
1013.959	343.04	1004.1	0.5
1115.082	343.04	1004.8	0.5
1220.764	343.04	1005.4	0.5
1318.137	343.04	1006	0.5
1420.678	343.04	1006.6	0.5
1520.584	343.04	1007.2	0.5
1621	343.04	1007.9	0.5
1722.221	343.04	1008.4	0.5
1824.559	343.04	1009.1	0.5
1925.884	343.04	1009.7	0.5
2028.324	343.04	1010.2	0.5
2129.953	343.04	1010.8	0.5
2233.912	343.04	1011.4	0.5
2330.576	343.04	1011.9	0.5
2432	343.04	1012.5	0.5
2536.773	343.04	1013.1	0.5
105.783	352.98	990	0.5
204.879	352.98	990.6	0.5
305.292	352.98	991.3	0.5
408.644	352.98	992	0.5
509.158	352.98	992.6	0.5
610.179	352.98	993.3	0.5
707.958	352.98	993.9	0.5
810.803	352.98	994.7	0.5
913.445	352.98	995.3	0.5
1013.453	352.98	996	0.5
1116.703	352.98	996.6	0.5
1217.93	352.98	997.2	0.5
1316.11	352.98	997.9	0.5
1418.043	352.98	998.5	0.5
1519.267	352.98	999.1	0.5
1623.429	352.98	999.8	0.5
1723.336	352.98	1000.4	0.5
1821.82	352.98	1001	0.5
1928.012	352.98	1001.7	0.5
2027.311	352.98	1002.3	0.5
2129.345	352.98	1002.9	0.5
2237.053	352.98	1003.5	0.5
2331.894	352.98	1004.2	0.5
2437.778	352.98	1004.8	0.5
2536.367	352.98	1005.4	0.5
106.695	362.91	981.5	0.5
203.967	362.91	982.2	0.5
305.9	362.91	982.9	0.5
407.529	362.91	983.6	0.5
510.779	362.91	984.3	0.5
608.355	362.91	985	0.5
708.566	362.91	985.7	0.5
811.208	362.91	986.3	0.5
912.33	362.91	987	0.5
1013.149	362.91	987.7	0.5
1114.17	362.91	988.3	0.5
1215.089	362.91	989	0.5
1318.34	362.91	989.7	0.5
1418.651	362.91	990.3	0.5
1520.787	362.91	991	0.5
1622.21	362.91	991.7	0.5
1723.842	362.91	992.3	0.5
1825.775	362.91	993	0.5
1926.087	362.91	993.6	0.5
2030.654	362.91	994.3	0.5
2128.737	362.91	994.9	0.5
2230.062	362.91	995.5	0.5
2332.4	362.91	996.2	0.5
2434.637	362.91	996.8	0.5
2536.063	362.91	997.5	0.5

System: heptane + undecane; phases: Liquid
Property: Mass density, kg/m3 (Liquid); method: Vibrating tube method
Mole fraction of heptane	Pressure, kPa	Temperature, K	Mass density, kg/m3	uncertainty
0.05	1001	313.15	724.3	0.3
0.05	2001	313.15	725.1	0.3
0.05	3000	313.15	726	0.3
0.05	4000	313.15	726.8	0.3
0.05	5000	313.15	727.6	0.3
0.05	6000	313.15	728.4	0.3
0.05	7000	313.15	729.2	0.3
0.05	8001	313.15	730	0.3
0.05	9000	313.15	730.8	0.3
0.05	10000	313.15	731.6	0.3
0.05	11000	313.15	732.3	0.3
0.05	12000	313.15	733.1	0.3
0.05	13000	313.15	733.8	0.3
0.05	14000	313.15	734.5	0.3
0.05	15000	313.15	735.2	0.3
0.05	16000	313.15	735.9	0.4
0.05	17000	313.15	736.6	0.4
0.05	18000	313.15	737.3	0.4
0.05	19000	313.15	738	0.4
0.05	20000	313.15	738.7	0.4
0.05	21000	313.15	739.3	0.4
0.05	22001	313.15	740	0.4
0.05	23000	313.15	740.6	0.4
0.05	24000	313.15	741.3	0.4
0.05	25000	313.15	741.9	0.4
0.05	1001	323.12	716.7	0.3
0.05	2001	323.12	717.6	0.3
0.05	3000	323.12	718.5	0.3
0.05	4000	323.12	719.4	0.3
0.05	5000	323.12	720.3	0.3
0.05	6000	323.12	721.1	0.3
0.05	7000	323.12	722	0.3
0.05	8001	323.12	722.8	0.3
0.05	9000	323.12	723.6	0.3
0.05	10000	323.12	724.5	0.3
0.05	11000	323.12	725.3	0.3
0.05	12000	323.12	726.1	0.3
0.05	13000	323.12	726.8	0.3
0.05	14000	323.12	727.6	0.3
0.05	15000	323.12	728.4	0.3
0.05	16000	323.12	729.1	0.4
0.05	17000	323.12	729.9	0.4
0.05	18000	323.12	730.6	0.4
0.05	19000	323.12	731.3	0.4
0.05	20000	323.12	732	0.4
0.05	21000	323.12	732.7	0.4
0.05	22001	323.12	733.4	0.4
0.05	23000	323.12	734.1	0.4
0.05	24000	323.12	734.8	0.4
0.05	25000	323.12	735.4	0.4
0.05	1001	333.09	709.1	0.3
0.05	2001	333.09	710.1	0.3
0.05	3000	333.09	711	0.3
0.05	4000	333.09	712	0.3
0.05	5000	333.09	712.9	0.3
0.05	6000	333.09	713.8	0.3
0.05	7000	333.09	714.7	0.3
0.05	8001	333.09	715.6	0.3
0.05	9000	333.09	716.5	0.3
0.05	10000	333.09	717.3	0.3
0.05	11000	333.09	718.2	0.3
0.05	12000	333.09	719	0.3
0.05	13000	333.09	719.9	0.3
0.05	14000	333.09	720.7	0.3
0.05	15000	333.09	721.5	0.4
0.05	16000	333.09	722.3	0.4
0.05	17000	333.09	723.1	0.4
0.05	18000	333.09	723.8	0.4
0.05	19000	333.09	724.6	0.4
0.05	20000	333.09	725.4	0.4
0.05	21000	333.09	726.1	0.4
0.05	22001	333.09	726.8	0.4
0.05	23000	333.09	727.6	0.4
0.05	24000	333.09	728.3	0.4
0.05	25000	333.09	729	0.4
0.05	1001	343.02	701.5	0.3
0.05	2001	343.02	702.5	0.3
0.05	3000	343.02	703.6	0.3
0.05	4000	343.02	704.6	0.3
0.05	5000	343.02	705.5	0.3
0.05	6000	343.02	706.5	0.3
0.05	7000	343.02	707.5	0.3
0.05	8001	343.02	708.4	0.3
0.05	9000	343.02	709.3	0.3
0.05	10000	343.02	710.2	0.3
0.05	11000	343.02	711.1	0.3
0.05	12000	343.02	712	0.3
0.05	13000	343.02	712.9	0.3
0.05	14000	343.02	713.8	0.4
0.05	15000	343.02	714.6	0.4
0.05	16000	343.02	715.5	0.4
0.05	17000	343.02	716.3	0.4
0.05	18000	343.02	717.1	0.4
0.05	19000	343.02	717.9	0.4
0.05	20000	343.02	718.7	0.4
0.05	21000	343.02	719.5	0.4
0.05	22001	343.02	720.3	0.4
0.05	23000	343.02	721.1	0.4
0.05	24000	343.02	721.8	0.4
0.05	25000	343.02	722.6	0.4
0.05	1001	352.96	694	0.3
0.05	2001	352.96	695.1	0.3
0.05	3000	352.96	696.1	0.3
0.05	4000	352.96	697.2	0.3
0.05	5000	352.96	698.2	0.3
0.05	6000	352.96	699.2	0.3
0.05	7000	352.96	700.2	0.3
0.05	8001	352.96	701.2	0.3
0.05	9000	352.96	702.2	0.3
0.05	10000	352.96	703.2	0.3
0.05	11000	352.96	704.1	0.3
0.05	12000	352.96	705.1	0.3
0.05	13000	352.96	706	0.4
0.05	14000	352.96	706.9	0.4
0.05	15000	352.96	707.8	0.4
0.05	16000	352.96	708.7	0.4
0.05	17000	352.96	709.6	0.4
0.05	18000	352.96	710.4	0.4
0.05	19000	352.96	711.3	0.4
0.05	20000	352.96	712.1	0.4
0.05	21000	352.96	712.9	0.4
0.05	22001	352.96	713.8	0.4
0.05	23000	352.96	714.6	0.4
0.05	24000	352.96	715.4	0.4
0.05	25000	352.96	716.2	0.4
0.05	1001	362.92	686.5	0.3
0.05	2001	362.92	687.6	0.3
0.05	3000	362.92	688.7	0.3
0.05	4000	362.92	689.8	0.3
0.05	5000	362.92	690.9	0.3
0.05	6000	362.92	692	0.3
0.05	7000	362.92	693	0.3
0.05	8001	362.92	694.1	0.3
0.05	9000	362.92	695.1	0.3
0.05	10000	362.92	696.1	0.3
0.05	11000	362.92	697.1	0.3
0.05	12000	362.92	698.1	0.3
0.05	13000	362.92	699.1	0.4
0.05	14000	362.92	700	0.4
0.05	15000	362.92	701	0.4
0.05	16000	362.92	701.9	0.4
0.05	17000	362.92	702.8	0.4
0.05	18000	362.92	703.7	0.4
0.05	19000	362.92	704.6	0.4
0.05	20000	362.92	705.5	0.4
0.05	21000	362.92	706.4	0.4
0.05	22001	362.92	707.3	0.4
0.05	23000	362.92	708.1	0.4
0.05	24000	362.92	708.9	0.4
0.05	25000	362.92	709.8	0.4
0.2346	1000	313.16	716.5	0.3
0.2346	2001	313.16	717.4	0.3
0.2346	3000	313.16	718.3	0.3
0.2346	4001	313.16	719.2	0.3
0.2346	5000	313.16	720	0.3
0.2346	6000	313.16	720.8	0.3
0.2346	7000	313.16	721.7	0.3
0.2346	8000	313.16	722.5	0.3
0.2346	9000	313.16	723.3	0.3
0.2346	10000	313.16	724.1	0.3
0.2346	11001	313.16	724.8	0.3
0.2346	12000	313.16	725.6	0.3
0.2346	13000	313.16	726.4	0.3
0.2346	14000	313.16	727.1	0.3
0.2346	15000	313.16	727.8	0.3
0.2346	16000	313.16	728.6	0.4
0.2346	17000	313.16	729.3	0.4
0.2346	18000	313.16	730	0.4
0.2346	19000	313.16	730.7	0.4
0.2346	20000	313.16	731.4	0.4
0.2346	21000	313.16	732.1	0.4
0.2346	22000	313.16	732.7	0.4
0.2346	23000	313.16	733.4	0.4
0.2346	24000	313.16	734	0.4
0.2346	25000	313.16	734.7	0.4
0.2346	1000	323.15	708.9	0.3
0.2346	2000	323.15	709.9	0.3
0.2346	3000	323.15	710.8	0.3
0.2346	4001	323.15	711.7	0.3
0.2346	5001	323.15	712.6	0.3
0.2346	6001	323.15	713.5	0.3
0.2346	7001	323.15	714.4	0.3
0.2346	8000	323.15	715.2	0.3
0.2346	9000	323.15	716.1	0.3
0.2346	10000	323.15	716.9	0.3
0.2346	11000	323.15	717.7	0.3
0.2346	12000	323.15	718.5	0.3
0.2346	13000	323.15	719.4	0.3
0.2346	14000	323.15	720.1	0.3
0.2346	15000	323.15	720.9	0.4
0.2346	16001	323.15	721.7	0.4
0.2346	17000	323.15	722.5	0.4
0.2346	18000	323.15	723.2	0.4
0.2346	19000	323.15	724	0.4
0.2346	20000	323.15	724.7	0.4
0.2346	21033	323.15	725.4	0.4
0.2346	22034	323.15	726.1	0.4
0.2346	23036	323.15	726.9	0.4
0.2346	24037	323.15	727.5	0.4
0.2346	25039	323.15	728.2	0.4
0.2346	1004	333.09	701.3	0.3
0.2346	2004	333.09	702.3	0.3
0.2346	3003	333.09	703.3	0.3
0.2346	4003	333.09	704.2	0.3
0.2346	5003	333.09	705.2	0.3
0.2346	6003	333.09	706.1	0.3
0.2346	7003	333.09	707	0.3
0.2346	8002	333.09	708	0.3
0.2346	9002	333.09	708.9	0.3
0.2346	10002	333.09	709.7	0.3
0.2346	11002	333.09	710.6	0.3
0.2346	12002	333.09	711.5	0.3
0.2346	13001	333.09	712.3	0.3
0.2346	14001	333.09	713.2	0.4
0.2346	15002	333.09	714	0.4
0.2346	16002	333.09	714.8	0.4
0.2346	17002	333.09	715.6	0.4
0.2346	18002	333.09	716.4	0.4
0.2346	19001	333.09	717.2	0.4
0.2346	20002	333.09	718	0.4
0.2346	21035	333.09	718.8	0.4
0.2346	22036	333.09	719.5	0.4
0.2346	23038	333.09	720.3	0.4
0.2346	24039	333.09	721	0.4
0.2346	25041	333.09	721.8	0.4
0.2346	1010	343.06	693.6	0.3
0.2346	2010	343.06	694.6	0.3
0.2346	3010	343.06	695.7	0.3
0.2346	4011	343.06	696.7	0.3
0.2346	5011	343.06	697.7	0.3
0.2346	6011	343.06	698.7	0.3
0.2346	7012	343.06	699.7	0.3
0.2346	8012	343.06	700.6	0.3
0.2346	9012	343.06	701.6	0.3
0.2346	10013	343.06	702.5	0.3
0.2346	11013	343.06	703.5	0.3
0.2346	12014	343.06	704.4	0.3
0.2346	13014	343.06	705.3	0.3
0.2346	14014	343.06	706.2	0.4
0.2346	15015	343.06	707	0.4
0.2346	16016	343.06	707.9	0.4
0.2346	17016	343.06	708.8	0.4
0.2346	18017	343.06	709.6	0.4
0.2346	19017	343.06	710.4	0.4
0.2346	20018	343.06	711.3	0.4
0.2346	21051	343.06	712.1	0.4
0.2346	22053	343.06	712.9	0.4
0.2346	23055	343.06	713.7	0.4
0.2346	24057	343.06	714.5	0.4
0.2346	25059	343.06	715.2	0.4
0.2346	1015	352.99	685.9	0.3
0.2346	2016	352.99	687	0.3
0.2346	3016	352.99	688.1	0.3
0.2346	4017	352.99	689.2	0.3
0.2346	5018	352.99	690.2	0.3
0.2346	6019	352.99	691.3	0.3
0.2346	7020	352.99	692.3	0.3
0.2346	8020	352.99	693.3	0.3
0.2346	9021	352.99	694.4	0.3
0.2346	10022	352.99	695.3	0.3
0.2346	11022	352.99	696.3	0.3
0.2346	12023	352.99	697.3	0.3
0.2346	13024	352.99	698.2	0.4
0.2346	14025	352.99	699.2	0.4
0.2346	15026	352.99	700.1	0.4
0.2346	16027	352.99	701	0.4
0.2346	17028	352.99	701.9	0.4
0.2346	18030	352.99	702.8	0.4
0.2346	19030	352.99	703.7	0.4
0.2346	20031	352.99	704.5	0.4
0.2346	21066	352.99	705.4	0.4
0.2346	22068	352.99	706.3	0.4
0.2346	23071	352.99	707.1	0.4
0.2346	24073	352.99	707.9	0.4
0.2346	25076	352.99	708.7	0.4
0.2346	1023	362.91	678.2	0.3
0.2346	2024	362.91	679.4	0.3
0.2346	3026	362.91	680.6	0.3
0.2346	4027	362.91	681.7	0.3
0.2346	5028	362.91	682.8	0.3
0.2346	6029	362.91	683.9	0.3
0.2346	7031	362.91	685	0.3
0.2346	8032	362.91	686.1	0.3
0.2346	9033	362.91	687.1	0.3
0.2346	10035	362.91	688.2	0.3
0.2346	11036	362.91	689.2	0.3
0.2346	12037	362.91	690.2	0.3
0.2346	13038	362.91	691.2	0.4
0.2346	14040	362.91	692.2	0.4
0.2346	15041	362.91	693.2	0.4
0.2346	16043	362.91	694.1	0.4
0.2346	17044	362.91	695.1	0.4
0.2346	18046	362.91	696	0.4
0.2346	19047	362.91	696.9	0.4
0.2346	20049	362.91	697.8	0.4
0.2346	21083	362.91	698.8	0.4
0.2346	22086	362.91	699.6	0.4
0.2346	23089	362.91	700.5	0.4
0.2346	24092	362.91	701.4	0.4
0.2346	25095	362.91	702.2	0.5
0.5063	2001	313.12	703.7	0.3
0.5063	3000	313.12	704.6	0.3
0.5063	4000	313.12	705.6	0.3
0.5063	5000	313.12	706.5	0.3
0.5063	6000	313.12	707.4	0.3
0.5063	7000	313.12	708.2	0.3
0.5063	8001	313.12	709.1	0.3
0.5063	9000	313.12	709.9	0.3
0.5063	10000	313.12	710.8	0.3
0.5063	11000	313.12	711.6	0.3
0.5063	12000	313.12	712.4	0.3
0.5063	13000	313.12	713.2	0.3
0.5063	14000	313.12	714	0.3
0.5063	15000	313.12	714.8	0.4
0.5063	16000	313.12	715.6	0.4
0.5063	17001	313.12	716.3	0.4
0.5063	18000	313.12	717.1	0.4
0.5063	19000	313.12	717.8	0.4
0.5063	20000	313.12	718.5	0.4
0.5063	21001	313.12	719.2	0.4
0.5063	22050	313.12	720	0.4
0.5063	23000	313.12	720.6	0.4
0.5063	24000	313.12	721.3	0.4
0.5063	25000	313.12	722	0.4
0.5063	2001	323.11	695.8	0.3
0.5063	3000	323.11	696.8	0.3
0.5063	4000	323.11	697.8	0.3
0.5063	5000	323.11	698.8	0.3
0.5063	6000	323.11	699.7	0.3
0.5063	7000	323.11	700.7	0.3
0.5063	8001	323.11	701.6	0.3
0.5063	9000	323.11	702.5	0.3
0.5063	10000	323.11	703.4	0.3
0.5063	11000	323.11	704.3	0.3
0.5063	12000	323.11	705.1	0.3
0.5063	13000	323.11	706	0.3
0.5063	14000	323.11	706.8	0.4
0.5063	15000	323.11	707.6	0.4
0.5063	16000	323.11	708.5	0.4
0.5063	17001	323.11	709.3	0.4
0.5063	18000	323.11	710.1	0.4
0.5063	19000	323.11	710.8	0.4
0.5063	20000	323.11	711.6	0.4
0.5063	21001	323.11	712.4	0.4
0.5063	22050	323.11	713.1	0.4
0.5063	23000	323.11	713.9	0.4
0.5063	24000	323.11	714.6	0.4
0.5063	25000	323.11	715.3	0.4
0.5063	2001	333.04	688	0.3
0.5063	3000	333.04	689	0.3
0.5063	4000	333.04	690.1	0.3
0.5063	5000	333.04	691.1	0.3
0.5063	6000	333.04	692.1	0.3
0.5063	7000	333.04	693.1	0.3
0.5063	8001	333.04	694.1	0.3
0.5063	9000	333.04	695	0.3
0.5063	10000	333.04	696	0.3
0.5063	11000	333.04	696.9	0.3
0.5063	12000	333.04	697.8	0.3
0.5063	13000	333.04	698.7	0.4
0.5063	14000	333.04	699.6	0.4
0.5063	15000	333.04	700.5	0.4
0.5063	16000	333.04	701.4	0.4
0.5063	17001	333.04	702.2	0.4
0.5063	18000	333.04	703.1	0.4
0.5063	19000	333.04	703.9	0.4
0.5063	20000	333.04	704.7	0.4
0.5063	21001	333.04	705.6	0.4
0.5063	22050	333.04	706.3	0.4
0.5063	23000	333.04	707.1	0.4
0.5063	24000	333.04	707.9	0.4
0.5063	25000	333.04	708.7	0.4
0.5063	2001	343.01	680.1	0.3
0.5063	3000	343.01	681.2	0.3
0.5063	4000	343.01	682.3	0.3
0.5063	5000	343.01	683.4	0.3
0.5063	6000	343.01	684.5	0.3
0.5063	7000	343.01	685.5	0.3
0.5063	8001	343.01	686.5	0.3
0.5063	9000	343.01	687.6	0.3
0.5063	10000	343.01	688.6	0.3
0.5063	11000	343.01	689.5	0.3
0.5063	12000	343.01	690.5	0.3
0.5063	13000	343.01	691.5	0.4
0.5063	14000	343.01	692.4	0.4
0.5063	15000	343.01	693.4	0.4
0.5063	16000	343.01	694.3	0.4
0.5063	17001	343.01	695.2	0.4
0.5063	18000	343.01	696.1	0.4
0.5063	19000	343.01	697	0.4
0.5063	20000	343.01	697.8	0.4
0.5063	21001	343.01	698.7	0.4
0.5063	22050	343.01	699.5	0.4
0.5063	23000	343.01	700.4	0.4
0.5063	24000	343.01	701.2	0.4
0.5063	25000	343.01	702	0.5
0.5063	2001	352.96	672.2	0.3
0.5063	3000	352.96	673.4	0.3
0.5063	4000	352.96	674.6	0.3
0.5063	5000	352.96	675.7	0.3
0.5063	6000	352.96	676.8	0.3
0.5063	7000	352.96	677.9	0.3
0.5063	8001	352.96	679	0.3
0.5063	9000	352.96	680.1	0.3
0.5063	10000	352.96	681.2	0.3
0.5063	11000	352.96	682.2	0.3
0.5063	12000	352.96	683.2	0.4
0.5063	13000	352.96	684.2	0.4
0.5063	14000	352.96	685.2	0.4
0.5063	15000	352.96	686.2	0.4
0.5063	16000	352.96	687.2	0.4
0.5063	17001	352.96	688.1	0.4
0.5063	18000	352.96	689.1	0.4
0.5063	19000	352.96	690	0.4
0.5063	20000	352.96	690.9	0.4
0.5063	21001	352.96	691.8	0.4
0.5063	22050	352.96	692.7	0.4
0.5063	23000	352.96	693.6	0.4
0.5063	24000	352.96	694.5	0.5
0.5063	25000	352.96	695.3	0.5
0.5063	2001	362.94	664.4	0.3
0.5063	3000	362.94	665.6	0.3
0.5063	4000	362.94	666.8	0.3
0.5063	5000	362.94	668	0.3
0.5063	6000	362.94	669.2	0.3
0.5063	7000	362.94	670.4	0.3
0.5063	8001	362.94	671.5	0.3
0.5063	9000	362.94	672.6	0.3
0.5063	10000	362.94	673.8	0.3
0.5063	11000	362.94	674.8	0.3
0.5063	12000	362.94	675.9	0.4
0.5063	13000	362.94	677	0.4
0.5063	14000	362.94	678	0.4
0.5063	15000	362.94	679.1	0.4
0.5063	16000	362.94	680.1	0.4
0.5063	17001	362.94	681.1	0.4
0.5063	18000	362.94	682.1	0.4
0.5063	19000	362.94	683.1	0.4
0.5063	20000	362.94	684	0.4
0.5063	21001	362.94	685	0.4
0.5063	22050	362.94	685.9	0.4
0.5063	23000	362.94	686.9	0.5
0.5063	24000	362.94	687.8	0.5
0.5063	25000	362.94	688.7	0.5
0.7482	1000	313.15	687.4	0.3
0.7482	2000	313.15	688.4	0.3
0.7482	3000	313.15	689.4	0.3
0.7482	4000	313.15	690.4	0.3
0.7482	5000	313.15	691.3	0.3
0.7482	6000	313.15	692.3	0.3
0.7482	7000	313.15	693.2	0.3
0.7482	8000	313.15	694.1	0.3
0.7482	9000	313.15	695	0.3
0.7482	10000	313.15	695.9	0.3
0.7482	11000	313.15	696.8	0.3
0.7482	12000	313.15	697.6	0.3
0.7482	13000	313.15	698.5	0.4
0.7482	14000	313.15	699.3	0.4
0.7482	15000	313.15	700.1	0.4
0.7482	16000	313.15	700.9	0.4
0.7482	17000	313.15	701.7	0.4
0.7482	18000	313.15	702.5	0.4
0.7482	19000	313.15	703.3	0.4
0.7482	20000	313.15	704	0.4
0.7482	21000	313.15	704.8	0.4
0.7482	22000	313.15	705.5	0.4
0.7482	23000	313.15	706.2	0.4
0.7482	24000	313.15	707	0.4
0.7482	25000	313.15	707.7	0.4
0.7482	1000	323.12	679.1	0.3
0.7482	2000	323.12	680.2	0.3
0.7482	3000	323.12	681.3	0.3
0.7482	4000	323.12	682.3	0.3
0.7482	5000	323.12	683.4	0.3
0.7482	6000	323.12	684.4	0.3
0.7482	7000	323.12	685.4	0.3
0.7482	8000	323.12	686.4	0.3
0.7482	9000	323.12	687.3	0.3
0.7482	10000	323.12	688.3	0.3
0.7482	11000	323.12	689.2	0.3
0.7482	12000	323.12	690.1	0.3
0.7482	13000	323.12	691.1	0.4
0.7482	14000	323.12	691.9	0.4
0.7482	15000	323.12	692.8	0.4
0.7482	16000	323.12	693.7	0.4
0.7482	17000	323.12	694.5	0.4
0.7482	18000	323.12	695.4	0.4
0.7482	19000	323.12	696.2	0.4
0.7482	20000	323.12	697	0.4
0.7482	21000	323.12	697.8	0.4
0.7482	22000	323.12	698.6	0.4
0.7482	23000	323.12	699.4	0.4
0.7482	24000	323.12	700.1	0.4
0.7482	25000	323.12	700.9	0.5
0.7482	1000	333.05	670.8	0.3
0.7482	2000	333.05	672	0.3
0.7482	3000	333.05	673.1	0.3
0.7482	4000	333.05	674.3	0.3
0.7482	5000	333.05	675.4	0.3
0.7482	6000	333.05	676.4	0.3
0.7482	7000	333.05	677.5	0.3
0.7482	8000	333.05	678.6	0.3
0.7482	9000	333.05	679.6	0.3
0.7482	10000	333.05	680.6	0.3
0.7482	11000	333.05	681.6	0.3
0.7482	12000	333.05	682.6	0.4
0.7482	13000	333.05	683.6	0.4
0.7482	14000	333.05	684.5	0.4
0.7482	15000	333.05	685.4	0.4
0.7482	16000	333.05	686.4	0.4
0.7482	17000	333.05	687.3	0.4
0.7482	18000	333.05	688.2	0.4
0.7482	19000	333.05	689	0.4
0.7482	20000	333.05	689.9	0.4
0.7482	21000	333.05	690.8	0.4
0.7482	22000	333.05	691.6	0.4
0.7482	23000	333.05	692.4	0.4
0.7482	24000	333.05	693.2	0.5
0.7482	25000	333.05	694	0.5
0.7482	1000	343.03	662.4	0.3
0.7482	2000	343.03	663.6	0.3
0.7482	3000	343.03	664.9	0.3
0.7482	4000	343.03	666.1	0.3
0.7482	5000	343.03	667.2	0.3
0.7482	6000	343.03	668.4	0.3
0.7482	7000	343.03	669.5	0.3
0.7482	8000	343.03	670.6	0.3
0.7482	9000	343.03	671.7	0.3
0.7482	10000	343.03	672.8	0.3
0.7482	11000	343.03	673.9	0.4
0.7482	12000	343.03	674.9	0.4
0.7482	13000	343.03	675.9	0.4
0.7482	14000	343.03	677	0.4
0.7482	15000	343.03	678	0.4
0.7482	16000	343.03	678.9	0.4
0.7482	17000	343.03	679.9	0.4
0.7482	18000	343.03	680.8	0.4
0.7482	19000	343.03	681.8	0.4
0.7482	20000	343.03	682.7	0.4
0.7482	21000	343.03	683.6	0.4
0.7482	22000	343.03	684.5	0.4
0.7482	23000	343.03	685.4	0.5
0.7482	24000	343.03	686.2	0.5
0.7482	25000	343.03	687.1	0.5
0.7482	1000	352.97	654	0.3
0.7482	2000	352.97	655.3	0.3
0.7482	3000	352.97	656.6	0.3
0.7482	4000	352.97	657.8	0.3
0.7482	5000	352.97	659.1	0.3
0.7482	6000	352.97	660.3	0.3
0.7482	7000	352.97	661.5	0.3
0.7482	8000	352.97	662.7	0.3
0.7482	9000	352.97	663.9	0.3
0.7482	10000	352.97	665	0.3
0.7482	11000	352.97	666.1	0.4
0.7482	12000	352.97	667.2	0.4
0.7482	13000	352.97	668.3	0.4
0.7482	14000	352.97	669.4	0.4
0.7482	15000	352.97	670.5	0.4
0.7482	16000	352.97	671.5	0.4
0.7482	17000	352.97	672.5	0.4
0.7482	18000	352.97	673.5	0.4
0.7482	19000	352.97	674.5	0.4
0.7482	20000	352.97	675.5	0.4
0.7482	21000	352.97	676.5	0.4
0.7482	22000	352.97	677.4	0.5
0.7482	23000	352.97	678.3	0.5
0.7482	24000	352.97	679.2	0.5
0.7482	25000	352.97	680.2	0.5
0.7482	1000	362.91	645.5	0.3
0.7482	2000	362.91	646.9	0.3
0.7482	3000	362.91	648.3	0.3
0.7482	4000	362.91	649.6	0.3
0.7482	5000	362.91	650.9	0.3
0.7482	6000	362.91	652.2	0.3
0.7482	7000	362.91	653.5	0.3
0.7482	8000	362.91	654.7	0.3
0.7482	9000	362.91	656	0.3
0.7482	10000	362.91	657.2	0.4
0.7482	11000	362.91	658.4	0.4
0.7482	12000	362.91	659.5	0.4
0.7482	13000	362.91	660.7	0.4
0.7482	14000	362.91	661.8	0.4
0.7482	15000	362.91	662.9	0.4
0.7482	16000	362.91	664	0.4
0.7482	17000	362.91	665.1	0.4
0.7482	18000	362.91	666.2	0.4
0.7482	19000	362.91	667.2	0.4
0.7482	20000	362.91	668.3	0.4
0.7482	21000	362.91	669.3	0.5
0.7482	22000	362.91	670.3	0.5
0.7482	23000	362.91	671.3	0.5
0.7482	24000	362.91	672.2	0.5
0.7482	25000	362.91	673.2	0.5
0.9511	1001	313.14	671.7	0.3
0.9511	2000	313.14	672.8	0.3
0.9511	3000	313.14	673.9	0.3
0.9511	4000	313.14	674.9	0.3
0.9511	5000	313.14	676	0.3
0.9511	6000	313.14	677	0.3
0.9511	7000	313.14	678	0.3
0.9511	8000	313.14	679	0.3
0.9511	9000	313.14	680	0.3
0.9511	10000	313.14	680.9	0.3
0.9511	11000	313.14	681.8	0.3
0.9511	12000	313.14	682.7	0.4
0.9511	13000	313.14	683.6	0.4
0.9511	14001	313.14	684.5	0.4
0.9511	15001	313.14	685.4	0.4
0.9511	16000	313.14	686.3	0.4
0.9511	17001	313.14	687.1	0.4
0.9511	18001	313.14	687.9	0.4
0.9511	19000	313.14	688.7	0.4
0.9511	20000	313.14	689.5	0.4
0.9511	21001	313.14	690.3	0.4
0.9511	22000	313.14	691.1	0.4
0.9511	23001	313.14	691.9	0.4
0.9511	24000	313.14	692.6	0.5
0.9511	25000	313.14	693.3	0.5
0.9511	1001	323.09	663.1	0.3
0.9511	2000	323.09	664.3	0.3
0.9511	3000	323.09	665.4	0.3
0.9511	4000	323.09	666.6	0.3
0.9511	5000	323.09	667.7	0.3
0.9511	6000	323.09	668.8	0.3
0.9511	7000	323.09	669.9	0.3
0.9511	8000	323.09	670.9	0.3
0.9511	9000	323.09	672	0.3
0.9511	10000	323.09	673	0.3
0.9511	11000	323.09	674	0.4
0.9511	12000	323.09	675	0.4
0.9511	13000	323.09	675.9	0.4
0.9511	14001	323.09	676.9	0.4
0.9511	15001	323.09	677.8	0.4
0.9511	16000	323.09	678.7	0.4
0.9511	17001	323.09	679.6	0.4
0.9511	18001	323.09	680.5	0.4
0.9511	19000	323.09	681.4	0.4
0.9511	20000	323.09	682.3	0.4
0.9511	21001	323.09	683.1	0.4
0.9511	22000	323.09	683.9	0.4
0.9511	23001	323.09	684.8	0.5
0.9511	24000	323.09	685.6	0.5
0.9511	25000	323.09	686.3	0.5
0.9511	1001	333.01	654.4	0.3
0.9511	2000	333.01	655.7	0.3
0.9511	3000	333.01	656.9	0.3
0.9511	4000	333.01	658.2	0.3
0.9511	5000	333.01	659.4	0.3
0.9511	6000	333.01	660.5	0.3
0.9511	7000	333.01	661.7	0.3
0.9511	8000	333.01	662.8	0.3
0.9511	9000	333.01	663.9	0.3
0.9511	10000	333.01	665	0.3
0.9511	11000	333.01	666.1	0.4
0.9511	12000	333.01	667.1	0.4
0.9511	13000	333.01	668.2	0.4
0.9511	14001	333.01	669.2	0.4
0.9511	15001	333.01	670.2	0.4
0.9511	16000	333.01	671.2	0.4
0.9511	17001	333.01	672.1	0.4
0.9511	18001	333.01	673.1	0.4
0.9511	19000	333.01	674	0.4
0.9511	20000	333.01	674.9	0.4
0.9511	21001	333.01	675.8	0.4
0.9511	22000	333.01	676.7	0.5
0.9511	23001	333.01	677.6	0.5
0.9511	24000	333.01	678.5	0.5
0.9511	25000	333.01	679.3	0.5
0.9511	1001	342.97	645.7	0.3
0.9511	2000	342.97	647	0.3
0.9511	3000	342.97	648.4	0.3
0.9511	4000	342.97	649.7	0.3
0.9511	5000	342.97	650.9	0.3
0.9511	6000	342.97	652.2	0.3
0.9511	7000	342.97	653.4	0.3
0.9511	8000	342.97	654.6	0.3
0.9511	9000	342.97	655.8	0.3
0.9511	10000	342.97	657	0.4
0.9511	11000	342.97	658.1	0.4
0.9511	12000	342.97	659.2	0.4
0.9511	13000	342.97	660.3	0.4
0.9511	14001	342.97	661.4	0.4
0.9511	15001	342.97	662.5	0.4
0.9511	16000	342.97	663.5	0.4
0.9511	17001	342.97	664.5	0.4
0.9511	18001	342.97	665.6	0.4
0.9511	19000	342.97	666.6	0.4
0.9511	20000	342.97	667.5	0.4
0.9511	21001	342.97	668.5	0.5
0.9511	22000	342.97	669.4	0.5
0.9511	23001	342.97	670.4	0.5
0.9511	24000	342.97	671.3	0.5
0.9511	25000	342.97	672.2	0.5
0.9511	1001	352.9	636.9	0.3
0.9511	2000	352.9	638.4	0.3
0.9511	3000	352.9	639.8	0.3
0.9511	4000	352.9	641.1	0.3
0.9511	5000	352.9	642.5	0.3
0.9511	6000	352.9	643.8	0.3
0.9511	7000	352.9	645.1	0.3
0.9511	8000	352.9	646.4	0.3
0.9511	9000	352.9	647.7	0.3
0.9511	10000	352.9	648.9	0.4
0.9511	11000	352.9	650.1	0.4
0.9511	12000	352.9	651.3	0.4
0.9511	13000	352.9	652.5	0.4
0.9511	14001	352.9	653.6	0.4
0.9511	15001	352.9	654.8	0.4
0.9511	16000	352.9	655.9	0.4
0.9511	17001	352.9	657	0.4
0.9511	18001	352.9	658	0.4
0.9511	19000	352.9	659.1	0.4
0.9511	20000	352.9	660.1	0.4
0.9511	21001	352.9	661.2	0.5
0.9511	22000	352.9	662.2	0.5
0.9511	23001	352.9	663.2	0.5
0.9511	24000	352.9	664.1	0.5
0.9511	25000	352.9	665.1	0.5
0.9511	1001	362.87	628.1	0.3
0.9511	2000	362.87	629.7	0.3
0.9511	3000	362.87	631.1	0.3
0.9511	4000	362.87	632.6	0.3
0.9511	5000	362.87	634	0.3
0.9511	6000	362.87	635.4	0.3
0.9511	7000	362.87	636.8	0.3
0.9511	8000	362.87	638.2	0.3
0.9511	9000	362.87	639.5	0.4
0.9511	10000	362.87	640.8	0.4
0.9511	11000	362.87	642.1	0.4
0.9511	12000	362.87	643.4	0.4
0.9511	13000	362.87	644.6	0.4
0.9511	14001	362.87	645.8	0.4
0.9511	15001	362.87	647	0.4
0.9511	16000	362.87	648.2	0.4
0.9511	17001	362.87	649.3	0.4
0.9511	18001	362.87	650.5	0.4
0.9511	19000	362.87	651.6	0.4
0.9511	20000	362.87	652.7	0.5
0.9511	21001	362.87	653.8	0.5
0.9511	22000	362.87	654.9	0.5
0.9511	23001	362.87	655.9	0.5
0.9511	24000	362.87	656.9	0.5
0.9511	25000	362.87	658	0.5
