Measured thermophysical data. Densities, Viscosities, and Conductivities of Aqueous Solutions of Tetrabutylphosphonium Bromide and Ethyltributylphosphonium Bromide at Different Temperatures
Source: J. Chem. Eng. Data, 2014, 10.1021/je400101s
Compound 1: ethyltributylphosphonium bromide, C14H32BrP, InChI=1S/C14H32P.BrH/c1-5-9-12-15(8-4,13-10-6-2)14-11-7-3;/h5-14H2,1-4H3;1H/q+1;/p-1, purity 99%
Compound 2: tetrabutylphosphonium bromide, C16H36BrP, InChI=1S/C16H36P.BrH/c1-5-9-13-17(14-10-6-2,15-11-7-3)16-12-8-4;/h5-16H2,1-4H3;1H/q+1;/p-1, purity 99%
Compound 3: water, H2O, InChI=1S/H2O/h1H2

System: tetrabutylphosphonium bromide + water; phases: Liquid
Fixed: Pressure, kPa = 101
Property: Mass density, kg/m3 (Liquid); method: VIBTUB:UFactor:4
Temperature, K	Molality, mol/kg of tetrabutylphosphonium bromide	Mass density, kg/m3	uncertainty
298.15	0.4996	1008.5	0.17
298.15	0.7513	1013.67	0.18
298.15	0.9998	1017.95	0.19
298.15	1.9986	1030.09	0.22
298.15	2.9989	1037.03	0.25
298.15	4.0037	1041.4	0.27
298.15	4.9938	1044.28	0.29
298.15	6.0016	1046.66	0.31
298.15	6.5026	1047.29	0.31
298.15	7.0063	1048.18	0.32
298.15	7.9998	1049.41	0.33
298.15	8.9962	1050.43	0.34
303.15	0.4996	1006.58	0.17
303.15	0.7513	1011.4	0.18
303.15	0.9998	1015.41	0.19
303.15	1.9986	1026.84	0.22
303.15	2.9989	1033.51	0.24
303.15	4.0037	1037.76	0.27
303.15	4.9938	1040.58	0.28
303.15	6.0016	1042.92	0.3
303.15	6.5026	1043.96	0.31
303.15	7.0063	1044.43	0.31
303.15	7.9998	1045.66	0.32
303.15	8.9962	1046.7	0.33
308.15	0.4996	1004.44	0.17
308.15	0.7513	1008.98	0.17
308.15	0.9998	1012.75	0.18
308.15	1.9986	1023.52	0.22
308.15	2.9989	1029.96	0.24
308.15	4.0037	1034.07	0.26
308.15	4.9938	1036.87	0.28
308.15	6.0016	1039.15	0.29
308.15	6.5026	1039.91	0.3
308.15	7.0063	1040.68	0.3
308.15	7.9998	1041.87	0.31
308.15	8.9962	1042.93	0.32

System: tetrabutylphosphonium bromide + water; phases: Liquid
Fixed: Pressure, kPa = 101
Property: Electrical conductivity, S/m (Liquid); method: METLER TOLEDO SevenEasyTM conductivity meter
Temperature, K	Molality, mol/kg of tetrabutylphosphonium bromide	Electrical conductivity, S/m	uncertainty
298.15	0.4996	1.611	0.02
298.15	0.7513	1.81	0.02
298.15	0.9998	1.925	0.02
298.15	1.9986	1.971	0.02
298.15	2.9989	1.841	0.02
298.15	4.0037	1.693	0.02
298.15	4.9938	1.542	0.02
298.15	6.0016	1.43	0.02
298.15	6.5026	1.4	0.02
298.15	7.0063	1.331	0.02
303.15	0.4996	1.652	0.02
303.15	0.7513	1.893	0.02
303.15	0.9998	2.03	0.02
303.15	1.9986	2.08	0.02
303.15	2.9989	1.947	0.02
303.15	4.0037	1.808	0.02
303.15	4.9938	1.656	0.02
303.15	6.0016	1.544	0.02
303.15	6.5026	1.51	0.02
303.15	7.0063	1.44	0.02
308.15	0.4996	1.719	0.02
308.15	0.7513	1.99	0.02
308.15	0.9998	2.15	0.02
308.15	1.9986	2.251	0.02
308.15	2.9989	2.13	0.02
308.15	4.0037	1.998	0.02
308.15	4.9938	1.853	0.02
308.15	6.0016	1.726	0.02
308.15	6.5026	1.68	0.02
308.15	7.0063	1.609	0.02

System: tetrabutylphosphonium bromide + water; phases: Liquid
Fixed: Pressure, kPa = 101
Property: Viscosity, Pa*s (Liquid); method: CAPTUB:UFactor:4
Temperature, K	Molality, mol/kg of tetrabutylphosphonium bromide	Viscosity, Pa*s	uncertainty
298.15	0.4996	0.0014825	0.0001625
298.15	0.7513	0.0018715	0.0001641
298.15	0.9998	0.0022455	0.0001664
298.15	1.9986	0.0038748	0.0001804
298.15	2.9989	0.0056411	0.0001974
298.15	4.0037	0.0073736	0.0002148
298.15	4.9938	0.0090301	0.0002339
298.15	6.0016	0.0106521	0.0002546
298.15	6.5026	0.0114629	0.0002658
298.15	7.0063	0.0122937	0.0002777
298.15	0.4996	0.0014825	0.0001625
298.15	0.7513	0.0018715	0.0001641
303.15	0.4996	0.0012823	0.0001617
303.15	0.7513	0.0016769	0.0001633
303.15	0.9998	0.0019153	0.0001646
303.15	1.9986	0.0031001	0.0001732
303.15	2.9989	0.0045893	0.0001874
303.15	4.0037	0.0060593	0.0002021
303.15	4.9938	0.0074031	0.000217
303.15	6.0016	0.0087096	0.000233
303.15	6.5026	0.0093332	0.000241
303.15	7.0063	0.0099459	0.0002492
303.15	0.4996	0.0012823	0.0001617
303.15	0.7513	0.0016769	0.0001633
308.15	0.4996	0.0011419	0.0001612
308.15	0.7513	0.0014693	0.0001625
308.15	0.9998	0.0016601	0.0001633
308.15	1.9986	0.0026103	0.0001688
308.15	2.9989	0.0038392	0.0001798
308.15	4.0037	0.0050365	0.0001931
308.15	4.9938	0.0060849	0.0002041
308.15	6.0016	0.0071006	0.000216
308.15	6.5026	0.0076179	0.0002219
308.15	7.0063	0.0081702	0.000228
308.15	0.4996	0.0011419	0.0001612
308.15	0.7513	0.0014693	0.0001625

System: ethyltributylphosphonium bromide + water; phases: Liquid
Fixed: Pressure, kPa = 101
Property: Mass density, kg/m3 (Liquid); method: VIBTUB:UFactor:4
Temperature, K	Molality, mol/kg of ethyltributylphosphonium bromide	Mass density, kg/m3	uncertainty
298.15	0.5002	1010.54	0.17
298.15	0.7497	1016.07	0.18
298.15	1.0005	1021.34	0.19
298.15	1.9954	1038.07	0.23
298.15	3.0008	1048.55	0.26
298.15	4.0004	1055.26	0.29
298.15	4.9974	1060.4	0.31
298.15	5.9982	1064.15	0.33
298.15	6.5009	1065.49	0.34
298.15	6.9843	1066.91	0.34
298.15	8.0013	1069.18	0.36
298.15	8.9943	1070.97	0.37
303.15	0.5002	1008.66	0.17
303.15	0.7497	1013.98	0.18
303.15	1.0005	1018.99	0.19
303.15	1.9954	1034.94	0.23
303.15	3.0008	1045.08	0.26
303.15	4.0004	1051.66	0.28
303.15	4.9974	1056.71	0.31
303.15	5.9982	1060.43	0.32
303.15	6.5009	1062.17	0.33
303.15	6.9843	1063.18	0.34
303.15	8.0013	1065.46	0.35
303.15	8.9943	1067.25	0.36
308.15	0.5002	1006.6	0.17
308.15	0.7497	1011.69	0.18
308.15	1.0005	1016.49	0.19
308.15	1.9954	1031.74	0.23
308.15	3.0008	1041.59	0.25
308.15	4.0004	1048.01	0.28
308.15	4.9974	1053	0.3
308.15	5.9982	1056.66	0.32
308.15	6.5009	1058.22	0.33
308.15	6.9843	1059.41	0.33
308.15	8.0013	1061.69	0.34
308.15	8.9943	1063.49	0.35

System: ethyltributylphosphonium bromide + water; phases: Liquid
Fixed: Pressure, kPa = 101
Property: Electrical conductivity, S/m (Liquid); method: METLER TOLEDO SevenEasyTM conductivity meter
Temperature, K	Molality, mol/kg of ethyltributylphosphonium bromide	Electrical conductivity, S/m	uncertainty
298.15	0.5002	1.774	0.02
298.15	0.7497	2.04	0.02
298.15	1.0005	2.21	0.02
298.15	1.9954	2.35	0.02
298.15	3.0008	2.2	0.02
298.15	4.0004	2.03	0.02
298.15	4.9974	1.872	0.02
298.15	5.9982	1.722	0.02
298.15	6.5009	1.654	0.02
298.15	6.9843	1.577	0.02
303.15	0.5002	1.834	0.02
303.15	0.7497	2.14	0.02
303.15	1.0005	2.33	0.02
303.15	1.9954	2.49	0.02
303.15	3.0008	2.36	0.02
303.15	4.0004	2.21	0.02
303.15	4.9974	2.05	0.02
303.15	5.9982	1.9	0.02
303.15	6.5009	1.846	0.02
303.15	6.9843	1.785	0.02
308.15	0.5002	1.887	0.02
308.15	0.7497	2.21	0.02
308.15	1.0005	2.41	0.02
308.15	1.9954	2.63	0.02
308.15	3.0008	2.55	0.02
308.15	4.0004	2.42	0.02
308.15	4.9974	2.25	0.02
308.15	5.9982	2.11	0.02
308.15	6.5009	2.06	0.02
308.15	6.9843	1.977	0.02

System: ethyltributylphosphonium bromide + water; phases: Liquid
Fixed: Pressure, kPa = 101
Property: Viscosity, Pa*s (Liquid); method: CAPTUB:UFactor:4
Temperature, K	Molality, mol/kg of ethyltributylphosphonium bromide	Viscosity, Pa*s	uncertainty
298.15	0.5002	0.0014036	0.0001621
298.15	0.7497	0.0018007	0.0001637
298.15	1.0005	0.0020057	0.0001651
298.15	1.9954	0.0031768	0.0001741
298.15	3.0008	0.0048056	0.0001888
298.15	4.0004	0.0063912	0.0002043
298.15	4.9974	0.0079763	0.0002226
298.15	5.9982	0.0096812	0.0002674
298.15	6.5009	0.0106201	0.000292
298.15	6.9843	0.011579	0.000317
298.15	0.5002	0.0014036	0.0001621
298.15	0.7497	0.0018007	0.0001637
303.15	0.5002	0.0012252	0.0001615
303.15	0.7497	0.0015892	0.0001629
303.15	1.0005	0.0017419	0.0001636
303.15	1.9954	0.002633	0.0001693
303.15	3.0008	0.0039778	0.0001807
303.15	4.0004	0.0052912	0.0001942
303.15	4.9974	0.0065399	0.0002072
303.15	5.9982	0.0078519	0.0002228
303.15	6.5009	0.0085791	0.0002409
303.15	6.9843	0.0093298	0.0002611
303.15	0.5002	0.0012252	0.0001615
303.15	0.7497	0.0015892	0.0001629
308.15	0.5002	0.0010836	0.000161
308.15	0.7497	0.0014264	0.0001624
308.15	1.0005	0.0015243	0.0001626
308.15	1.9954	0.0021901	0.000166
308.15	3.0008	0.0033312	0.000175
308.15	4.0004	0.0044474	0.000186
308.15	4.9974	0.0054413	0.0001965
308.15	5.9982	0.0064586	0.0002078
308.15	6.5009	0.0070046	0.0002147
308.15	6.9843	0.0075612	0.0002222
308.15	0.5002	0.0010836	0.000161
308.15	0.7497	0.0014264	0.0001624
