Measured thermophysical data. Density, Surface Tension, and Viscosity of Ionic Liquids (1-Ethyl-3-methylimidazolium diethylphosphate and 1,3-Dimethylimidazolium dimethylphosphate) Aqueous Ternary Mixtures with MDEA
Source: J. Chem. Eng. Data, 2014, 10.1021/je400562z
Compound 1: 1-ethyl-3-methylimidazolium diethyl phosphate, C10H21N2O4P, InChI=1S/C6H11N2.C4H11O4P/c1-3-8-5-4-7(2)6-8;1-3-7-9(5,6)8-4-2/h4-6H,3H2,1-2H3;3-4H2,1-2H3,(H,5,6)/q+1;/p-1, purity 98%
Compound 2: 1,3-dimethylimidazolium dimethylphosphate, C7H15N2O4P, InChI=1S/C5H9N2.C2H7O4P/c1-6-3-4-7(2)5-6;1-5-7(3,4)6-2/h3-5H,1-2H3;1-2H3,(H,3,4)/q+1;/p-1, purity 98%
Compound 3: N-methyldiethanolamine, C5H13NO2, InChI=1S/C5H13NO2/c1-6(2-4-7)3-5-8/h7-8H,2-5H2,1H3, purity 98%
Compound 4: water, H2O, InChI=1S/H2O/h1H2, purity 99.8%

System: N-methyldiethanolamine; phases: Liquid
Fixed: Pressure, kPa = 101.325
Property: Mass density, kg/m3 (Liquid); method: VIBTUB:UFactor:8
Temperature, K	Mass density, kg/m3	uncertainty
303.15	1033.8	1.5
313.15	1026.7	1.5
323.15	1018.9	1.4

System: N-methyldiethanolamine; phases: Liquid
Fixed: Pressure, kPa = 101.325
Property: Viscosity, Pa*s (Liquid); method: Concentric cylinders viscometry
Temperature, K	Viscosity, Pa*s	uncertainty
303.15	0.0563	0.0013353
313.15	0.0344474	0.0008455
323.15	0.0229255	0.0005526
333.15	0.0149923	0.0003737

System: N-methyldiethanolamine; phases: Liquid, Air at 1 atmosphere
Property: Surface tension liquid-gas, N/m (Liquid); method: Ring tensiometer
Temperature, K	Surface tension liquid-gas, N/m	uncertainty
303.15	0.03733	0.0007
333.15	0.03547	0.00067

System: N-methyldiethanolamine + water + 1-ethyl-3-methylimidazolium diethyl phosphate; phases: Liquid
Fixed: Pressure, kPa = 101
Property: Mass density, kg/m3 (Liquid); method: Vibrating tube method
Temperature, K	Mole fraction of 1-ethyl-3-methylimidazolium diethyl phosphate	Mole fraction of N-methyldiethanolamine	Mass density, kg/m3	uncertainty
293.15	0.0986	0.1944	1091.2	2
293.15	0.2091	0.5412	1100.4	2.1
293.15	0.3666	0.3676	1114.5	2.1
293.15	0.4188	0.2162	1123	2.1
293.15	0.5973	0.2911	1129	2.2
293.15	0.6825	0.2899	1135.3	2.2
293.15	0.8097	0.1903	1139.9	2.3
293.15	0.9134	0.0866	1146	2.3
293.15	1	0	1153	2.3
301.15	0.0986	0.1944	1083.7	2
301.15	0.2091	0.5412	1093.3	2.1
301.15	0.3666	0.3676	1107.4	2.1
301.15	0.4188	0.2162	1116.3	2.1
301.15	0.5973	0.2911	1122.3	2.2
301.15	0.6825	0.2899	1128.7	2.2
301.15	0.8097	0.1903	1133.1	2.2
301.15	0.9134	0.0866	1138.8	2.3
301.15	1	0	1145.2	2.3
303.15	0.0986	0.1944	1081.5	2
303.15	0.2091	0.5412	1091.3	2.1
303.15	0.3666	0.3676	1105.8	2.1
303.15	0.4188	0.2162	1114.2	2.1
303.15	0.5973	0.2911	1120.1	2.2
303.15	0.6825	0.2899	1126.9	2.2
303.15	0.8097	0.1903	1131.4	2.2
303.15	0.9134	0.0866	1136.9	2.3
303.15	1	0	1142.9	2.3
313.15	0.0986	0.1944	1072.3	2
313.15	0.2091	0.5412	1081.4	2.1
313.15	0.3666	0.3676	1096.6	2.1
313.15	0.4188	0.2162	1105.1	2.1
313.15	0.5973	0.2911	1112.4	2.2
313.15	0.6825	0.2899	1119.1	2.2
313.15	0.8097	0.1903	1123.8	2.2
313.15	0.9134	0.0866	1129.2	2.2
313.15	1	0	1134.3	2.2
323.15	0.0986	0.1944	1062.3	2
323.15	0.2091	0.5412	1072.1	2.1
323.15	0.3666	0.3676	1086.3	2.1
323.15	0.4188	0.2162	1096	2.1
323.15	0.5973	0.2911	1103.1	2.2
323.15	0.6825	0.2899	1110.1	2.2
323.15	0.8097	0.1903	1114.7	2.2
323.15	0.9134	0.0866	1120.1	2.2
323.15	1	0	1124.5	2.2
333.15	0.0986	0.1944	1050.1	2
333.15	0.2091	0.5412	1059.7	2.1
333.15	0.3666	0.3676	1074.4	2.1
333.15	0.4188	0.2162	1084.6	2.1
333.15	0.5973	0.2911	1092	2.1
333.15	0.6825	0.2899	1098.7	2.2
333.15	0.8097	0.1903	1103.4	2.2
333.15	0.9134	0.0866	1108.6	2.2
333.15	1	0	1113.4	2.2
343.15	0.0986	0.1944	1034.8	2
343.15	0.2091	0.5412	1043.8	2.1
343.15	0.3666	0.3676	1059.4	2.1
343.15	0.4188	0.2162	1068.9	2.1
343.15	0.5973	0.2911	1076.8	2.1
343.15	0.6825	0.2899	1081.7	2.2
343.15	0.8097	0.1903	1087.8	2.2
343.15	0.9134	0.0866	1092.3	2.2
343.15	1	0	1097.7	2.2

System: N-methyldiethanolamine + water + 1-ethyl-3-methylimidazolium diethyl phosphate; phases: Liquid, Air at 1 atmosphere
Property: Surface tension liquid-gas, N/m (Liquid); method: Ring tensiometer
Temperature, K	Mole fraction of 1-ethyl-3-methylimidazolium diethyl phosphate	Mole fraction of N-methyldiethanolamine	Surface tension liquid-gas, N/m	uncertainty
293.15	0.0986	0.1944	0.03761	0.0003
293.15	0.2091	0.5412	0.03721	0.0003
293.15	0.3666	0.3676	0.03652	0.0003
293.15	0.4188	0.2162	0.03631	0.0003
293.15	0.5973	0.2911	0.03601	0.0003
293.15	0.6825	0.2899	0.03576	0.0003
293.15	0.8097	0.1903	0.03558	0.0003
293.15	0.9134	0.0866	0.03543	0.0003
293.15	1	0	0.03529	0.0003
301.15	0.0986	0.1944	0.03741	0.0003
301.15	0.2091	0.5412	0.03705	0.0003
301.15	0.3666	0.3676	0.03635	0.0003
301.15	0.4188	0.2162	0.03613	0.0003
301.15	0.5973	0.2911	0.03585	0.0003
301.15	0.6825	0.2899	0.03563	0.0003
301.15	0.8097	0.1903	0.03545	0.0003
301.15	0.9134	0.0866	0.0353	0.0003
301.15	1	0	0.03515	0.0003
303.15	0.0986	0.1944	0.03736	0.0003
303.15	0.2091	0.5412	0.03701	0.0003
303.15	0.3666	0.3676	0.03631	0.0003
303.15	0.4188	0.2162	0.03609	0.0003
303.15	0.5973	0.2911	0.03581	0.0003
303.15	0.6825	0.2899	0.0356	0.0003
303.15	0.8097	0.1903	0.03541	0.0003
303.15	0.9134	0.0866	0.03526	0.0003
303.15	1	0	0.03512	0.0003
313.15	0.0986	0.1944	0.03715	0.0003
313.15	0.2091	0.5412	0.03681	0.0003
313.15	0.3666	0.3676	0.03613	0.0003
313.15	0.4188	0.2162	0.03589	0.0003
313.15	0.5973	0.2911	0.03562	0.0003
313.15	0.6825	0.2899	0.03542	0.0003
313.15	0.8097	0.1903	0.03525	0.0003
313.15	0.9134	0.0866	0.03512	0.0003
313.15	1	0	0.03498	0.0003
323.15	0.0986	0.1944	0.03694	0.0003
323.15	0.2091	0.5412	0.03662	0.0003
323.15	0.3666	0.3676	0.03591	0.0003
323.15	0.4188	0.2162	0.03569	0.0003
323.15	0.5973	0.2911	0.03542	0.0003
323.15	0.6825	0.2899	0.03524	0.0003
323.15	0.8097	0.1903	0.03508	0.0003
323.15	0.9134	0.0866	0.03496	0.0003
323.15	1	0	0.03483	0.0003
333.15	0.0986	0.1944	0.03678	0.0003
333.15	0.2091	0.5412	0.03647	0.0003
333.15	0.3666	0.3676	0.03568	0.0003
333.15	0.4188	0.2162	0.03548	0.0003
333.15	0.5973	0.2911	0.03524	0.0003
333.15	0.6825	0.2899	0.03508	0.0003
333.15	0.8097	0.1903	0.03491	0.0003
333.15	0.9134	0.0866	0.03478	0.0003
333.15	1	0	0.03464	0.0003
343.15	0.0986	0.1944	0.03663	0.0003
343.15	0.2091	0.5412	0.03629	0.0003
343.15	0.3666	0.3676	0.03547	0.0003
343.15	0.4188	0.2162	0.03525	0.0003
343.15	0.5973	0.2911	0.03505	0.0003
343.15	0.6825	0.2899	0.03489	0.0003
343.15	0.8097	0.1903	0.03472	0.0003
343.15	0.9134	0.0866	0.03457	0.0003
343.15	1	0	0.03443	0.0003

System: N-methyldiethanolamine + water + 1-ethyl-3-methylimidazolium diethyl phosphate; phases: Liquid, Air at 1 atmosphere
Property: Viscosity, Pa*s (Liquid); method: Concentric cylinders viscometry
Temperature, K	Mole fraction of 1-ethyl-3-methylimidazolium diethyl phosphate	Mole fraction of N-methyldiethanolamine	Viscosity, Pa*s	uncertainty
293.15	0.0986	0.1944	0.0414339	0.002511
301.15	0.0986	0.1944	0.0296484	0.0018077
303.15	0.0986	0.1944	0.0270616	0.0016491
313.15	0.0986	0.1944	0.0178278	0.0010834
323.15	0.0986	0.1944	0.0121118	0.0007347
333.15	0.0986	0.1944	0.0087245	0.0005281
343.15	0.0986	0.1944	0.0065644	0.0003976
293.15	0.2091	0.5412	0.072	0.004398
301.15	0.2091	0.5412	0.0523037	0.0032017
303.15	0.2091	0.5412	0.0482755	0.0029523
313.15	0.2091	0.5412	0.0319723	0.0019542
323.15	0.2091	0.5412	0.0225031	0.0013711
333.15	0.2091	0.5412	0.0178281	0.001084
343.15	0.2091	0.5412	0.013504	0.0008229
293.15	0.3666	0.3676	0.0968	0.0059561
303.15	0.3666	0.3676	0.0631407	0.0038446
313.15	0.3666	0.3676	0.0402889	0.0024685
301.15	0.3666	0.3676	0.0671318	0.004127
323.15	0.3666	0.3676	0.0256371	0.0015669
333.15	0.3666	0.3676	0.019243	0.0011712
343.15	0.3666	0.3676	0.0140211	0.0008556
303.15	0.4188	0.2162	0.0696294	0.0042228
293.15	0.4188	0.2162	0.1143	0.0071177
313.15	0.4188	0.2162	0.0483817	0.0029485
323.15	0.4188	0.2162	0.032202	0.0019622
301.15	0.4188	0.2162	0.0781407	0.0048074
333.15	0.4188	0.2162	0.0237283	0.0014431
343.15	0.4188	0.2162	0.0163701	0.0010051
313.15	0.5973	0.2911	0.0680464	0.0041817
293.15	0.5973	0.2911	0.1653006	0.0104082
323.15	0.5973	0.2911	0.0423307	0.0026021
333.15	0.5973	0.2911	0.0281679	0.0017237
301.15	0.5973	0.2911	0.1127113	0.0070465
303.15	0.5973	0.2911	0.1034241	0.0064121
343.15	0.5973	0.2911	0.0216359	0.0013211
301.15	0.6825	0.2899	0.1352498	0.0085734
303.15	0.6825	0.2899	0.1201645	0.0075727
323.15	0.6825	0.2899	0.0522512	0.0032023
293.15	0.6825	0.2899	0.2075924	0.0132617
333.15	0.6825	0.2899	0.0356182	0.0021831
313.15	0.6825	0.2899	0.0757333	0.0046708
343.15	0.6825	0.2899	0.0269558	0.0016501
323.15	0.8097	0.1903	0.0555458	0.0034068
303.15	0.8097	0.1903	0.1418077	0.0090655
333.15	0.8097	0.1903	0.0388716	0.0023886
293.15	0.8097	0.1903	0.258136	0.016721
301.15	0.8097	0.1903	0.162832	0.0104526
313.15	0.8097	0.1903	0.081908	0.0050815
343.15	0.8097	0.1903	0.0236362	0.0014714
323.15	0.9134	0.0866	0.0612818	0.0037776
333.15	0.9134	0.0866	0.0413168	0.0025373
301.15	0.9134	0.0866	0.2015538	0.0130928
303.15	0.9134	0.0866	0.1805538	0.011544
293.15	0.9134	0.0866	0.3278395	0.0215757
313.15	0.9134	0.0866	0.1005176	0.0062905
343.15	0.9134	0.0866	0.0285453	0.0017571
293.15	1	0	0.5772231	0.0397014
333.15	1	0	0.0581505	0.0035724
313.15	1	0	0.151915	0.0096673
301.15	1	0	0.3202527	0.0216802
303.15	1	0	0.281282	0.0185437
323.15	1	0	0.0890253	0.0055329
343.15	1	0	0.0401934	0.0024739

System: N-methyldiethanolamine + water + 1,3-dimethylimidazolium dimethylphosphate; phases: Liquid
Fixed: Pressure, kPa = 101
Property: Mass density, kg/m3 (Liquid); method: Vibrating tube method
Temperature, K	Mole fraction of 1,3-dimethylimidazolium dimethylphosphate	Mole fraction of N-methyldiethanolamine	Mass density, kg/m3	uncertainty
293.15	0.0774	0.2789	1107.1	2
293.15	0.1998	0.4346	1128.4	2.1
293.15	0.3247	0.6054	1148.6	2.2
293.15	0.3753	0.3888	1167.3	2.1
293.15	0.4772	0.2393	1186.3	2.1
293.15	0.6367	0.3295	1204.8	2.3
293.15	0.6866	0.3126	1218.5	2.3
293.15	0.8238	0.1565	1239.8	2.3
293.15	0.9305	0.0695	1247.3	2.4
293.15	1	0	1252.5	2.4
301.15	0.0774	0.2789	1100.6	2
301.15	0.1998	0.4346	1122.1	2.1
301.15	0.3247	0.6054	1142.1	2.2
301.15	0.3753	0.3888	1160.6	2.1
301.15	0.4772	0.2393	1179.9	2.1
301.15	0.6367	0.3295	1197.1	2.3
301.15	0.6866	0.3126	1210.9	2.3
301.15	0.8238	0.1565	1233.6	2.3
301.15	0.9305	0.0695	1240.8	2.4
301.15	1	0	1246.1	2.4
303.15	0.0774	0.2789	1098.6	2
303.15	0.1998	0.4346	1120.7	2.1
303.15	0.3247	0.6054	1140.1	2.2
303.15	0.3753	0.3888	1158.7	2.1
303.15	0.4772	0.2393	1177.8	2.1
303.15	0.6367	0.3295	1194.8	2.3
303.15	0.6866	0.3126	1209.1	2.3
303.15	0.8238	0.1565	1232.1	2.3
303.15	0.9305	0.0695	1239.2	2.4
303.15	1	0	1244.1	2.4
313.15	0.0774	0.2789	1091.9	2
313.15	0.1998	0.4346	1112.4	2.1
313.15	0.3247	0.6054	1129.5	2.2
313.15	0.3753	0.3888	1148.1	2.1
313.15	0.4772	0.2393	1168.3	2.1
313.15	0.6367	0.3295	1187.1	2.3
313.15	0.6866	0.3126	1199.6	2.3
313.15	0.8238	0.1565	1223.8	2.3
313.15	0.9305	0.0695	1231.3	2.3
313.15	1	0	1236.8	2.4
323.15	0.0774	0.2789	1085.2	2
323.15	0.1998	0.4346	1104.9	2.1
323.15	0.3247	0.6054	1120.1	2.2
323.15	0.3753	0.3888	1139.6	2.1
323.15	0.4772	0.2393	1160.2	2.1
323.15	0.6367	0.3295	1179.3	2.3
323.15	0.6866	0.3126	1191.8	2.3
323.15	0.8238	0.1565	1215.7	2.3
323.15	0.9305	0.0695	1222.6	2.3
323.15	1	0	1227.4	2.3
333.15	0.0774	0.2789	1076.6	2
333.15	0.1998	0.4346	1095.8	2.1
333.15	0.3247	0.6054	1108.8	2.2
333.15	0.3753	0.3888	1128.7	2.1
333.15	0.4772	0.2393	1148.9	2.1
333.15	0.6367	0.3295	1168.9	2.3
333.15	0.6866	0.3126	1181.3	2.3
333.15	0.8238	0.1565	1205.2	2.3
333.15	0.9305	0.0695	1212	2.3
333.15	1	0	1217.2	2.3
343.15	0.0774	0.2789	1066.3	2
343.15	0.1998	0.4346	1082.9	2.1
343.15	0.3247	0.6054	1096.7	2.2
343.15	0.3753	0.3888	1114.5	2.1
343.15	0.4772	0.2393	1136.7	2.1
343.15	0.6367	0.3295	1156.1	2.2
343.15	0.6866	0.3126	1169.1	2.3
343.15	0.8238	0.1565	1191.5	2.3
343.15	0.9305	0.0695	1198.7	2.3
343.15	1	0	1203.4	2.3

System: N-methyldiethanolamine + water + 1,3-dimethylimidazolium dimethylphosphate; phases: Liquid, Air at 1 atmosphere
Property: Surface tension liquid-gas, N/m (Liquid); method: Ring tensiometer
Temperature, K	Mole fraction of 1,3-dimethylimidazolium dimethylphosphate	Mole fraction of N-methyldiethanolamine	Surface tension liquid-gas, N/m	uncertainty
293.15	0.0774	0.2789	0.04043	0.0003
293.15	0.1998	0.4346	0.04097	0.0003
293.15	0.3247	0.6054	0.04197	0.0003
293.15	0.3753	0.3888	0.04297	0.0003
293.15	0.4772	0.2393	0.04359	0.0003
293.15	0.6367	0.3295	0.04416	0.0003
293.15	0.6866	0.3126	0.04476	0.0003
293.15	0.8238	0.1565	0.04524	0.0003
293.15	0.9305	0.0695	0.04577	0.0003
293.15	1	0	0.04623	0.0003
301.15	0.0774	0.2789	0.04029	0.0003
301.15	0.1998	0.4346	0.04082	0.0003
301.15	0.3247	0.6054	0.04175	0.0003
301.15	0.3753	0.3888	0.04271	0.0003
301.15	0.4772	0.2393	0.04328	0.0003
301.15	0.6367	0.3295	0.04391	0.0003
301.15	0.6866	0.3126	0.04441	0.0003
301.15	0.8238	0.1565	0.04494	0.0003
301.15	0.9305	0.0695	0.04552	0.0003
301.15	1	0	0.04595	0.0003
303.15	0.0774	0.2789	0.04024	0.0003
303.15	0.1998	0.4346	0.04079	0.0003
303.15	0.3247	0.6054	0.04168	0.0003
303.15	0.3753	0.3888	0.04263	0.0003
303.15	0.4772	0.2393	0.04319	0.0003
303.15	0.6367	0.3295	0.04382	0.0003
303.15	0.6866	0.3126	0.04432	0.0003
303.15	0.8238	0.1565	0.04485	0.0003
303.15	0.9305	0.0695	0.04544	0.0003
303.15	1	0	0.04587	0.0003
313.15	0.0774	0.2789	0.04001	0.0003
313.15	0.1998	0.4346	0.04058	0.0003
313.15	0.3247	0.6054	0.04141	0.0003
313.15	0.3753	0.3888	0.04235	0.0003
313.15	0.4772	0.2393	0.04285	0.0003
313.15	0.6367	0.3295	0.04353	0.0003
313.15	0.6866	0.3126	0.04393	0.0003
313.15	0.8238	0.1565	0.04445	0.0003
313.15	0.9305	0.0695	0.04506	0.0003
313.15	1	0	0.04556	0.0003
323.15	0.0774	0.2789	0.03975	0.0003
323.15	0.1998	0.4346	0.04034	0.0003
323.15	0.3247	0.6054	0.04108	0.0003
323.15	0.3753	0.3888	0.04201	0.0003
323.15	0.4772	0.2393	0.04255	0.0003
323.15	0.6367	0.3295	0.04321	0.0003
323.15	0.6866	0.3126	0.04356	0.0003
323.15	0.8238	0.1565	0.04398	0.0003
323.15	0.9305	0.0695	0.04463	0.0003
323.15	1	0	0.04512	0.0003
333.15	0.0774	0.2789	0.03938	0.0003
333.15	0.1998	0.4346	0.03996	0.0003
333.15	0.3247	0.6054	0.04069	0.0003
333.15	0.3753	0.3888	0.04158	0.0003
333.15	0.4772	0.2393	0.04213	0.0003
333.15	0.6367	0.3295	0.04278	0.0003
333.15	0.6866	0.3126	0.04315	0.0003
333.15	0.8238	0.1565	0.04361	0.0003
333.15	0.9305	0.0695	0.04426	0.0003
333.15	1	0	0.04481	0.0003
343.15	0.0774	0.2789	0.03904	0.0003
343.15	0.1998	0.4346	0.0396	0.0003
343.15	0.3247	0.6054	0.04033	0.0003
343.15	0.3753	0.3888	0.04121	0.0003
343.15	0.4772	0.2393	0.04172	0.0003
343.15	0.6367	0.3295	0.04239	0.0003
343.15	0.6866	0.3126	0.04281	0.0003
343.15	0.8238	0.1565	0.04325	0.0003
343.15	0.9305	0.0695	0.04386	0.0003
343.15	1	0	0.04445	0.0003

System: N-methyldiethanolamine + water + 1,3-dimethylimidazolium dimethylphosphate; phases: Liquid, Air at 1 atmosphere
Property: Viscosity, Pa*s (Liquid); method: Concentric cylinders viscometry
Temperature, K	Mole fraction of 1,3-dimethylimidazolium dimethylphosphate	Mole fraction of N-methyldiethanolamine	Viscosity, Pa*s	uncertainty
293.15	0.0774	0.2789	0.0466395	0.0028423
301.15	0.0774	0.2789	0.0291966	0.0018101
303.15	0.0774	0.2789	0.025269	0.0015717
313.15	0.0774	0.2789	0.0164867	0.0010025
323.15	0.0774	0.2789	0.01147	0.0006958
333.15	0.0774	0.2789	0.008236	0.0004981
343.15	0.0774	0.2789	0.00698	0.0004212
293.15	0.1998	0.4346	0.0856484	0.0052632
301.15	0.1998	0.4346	0.0538526	0.0033389
303.15	0.1998	0.4346	0.0484783	0.0029791
313.15	0.1998	0.4346	0.0301093	0.0018414
323.15	0.1998	0.4346	0.020469	0.001248
333.15	0.1998	0.4346	0.0138367	0.0008422
343.15	0.1998	0.4346	0.010654	0.0006473
293.15	0.3247	0.6054	0.094109	0.0058195
303.15	0.3247	0.6054	0.0558309	0.0034432
313.15	0.3247	0.6054	0.035591	0.0021852
323.15	0.3247	0.6054	0.0254991	0.0015612
301.15	0.3247	0.6054	0.0617733	0.0038348
333.15	0.3247	0.6054	0.0172703	0.0010572
343.15	0.3247	0.6054	0.0132983	0.0008125
303.15	0.3753	0.3888	0.0624302	0.0038534
293.15	0.3753	0.3888	0.1058037	0.0065405
313.15	0.3753	0.3888	0.0404197	0.0024735
323.15	0.3753	0.3888	0.0277074	0.0016923
333.15	0.3753	0.3888	0.0190643	0.0011632
301.15	0.3753	0.3888	0.0698091	0.0043245
343.15	0.3753	0.3888	0.0141079	0.0008606
313.15	0.4772	0.2393	0.0461001	0.0028206
293.15	0.4772	0.2393	0.121833	0.0075567
303.15	0.4772	0.2393	0.073544	0.0045293
323.15	0.4772	0.2393	0.0325985	0.0019871
333.15	0.4772	0.2393	0.0228632	0.0013936
301.15	0.4772	0.2393	0.0813819	0.0050415
343.15	0.4772	0.2393	0.0164012	0.0010013
313.15	0.6367	0.3295	0.0588255	0.0036132
301.15	0.6367	0.3295	0.0998808	0.0062456
323.15	0.6367	0.3295	0.040429	0.002479
293.15	0.6367	0.3295	0.149478	0.009392
303.15	0.6367	0.3295	0.0911669	0.0056512
333.15	0.6367	0.3295	0.0279771	0.0017144
343.15	0.6367	0.3295	0.020282	0.001244
313.15	0.6866	0.3126	0.0631879	0.0038935
323.15	0.6866	0.3126	0.04136	0.0025424
301.15	0.6866	0.3126	0.1096022	0.0068754
333.15	0.6866	0.3126	0.0289264	0.0017734
293.15	0.6866	0.3126	0.1633437	0.0103085
303.15	0.6866	0.3126	0.099741	0.0062065
343.15	0.6866	0.3126	0.0211065	0.0012949
293.15	0.8238	0.1565	0.1803391	0.0114386
313.15	0.8238	0.1565	0.0685343	0.0042252
333.15	0.8238	0.1565	0.0309817	0.001897
301.15	0.8238	0.1565	0.1179302	0.0074312
323.15	0.8238	0.1565	0.0423108	0.0026026
303.15	0.8238	0.1565	0.1068806	0.0066683
343.15	0.8238	0.1565	0.0217677	0.0013378
313.15	0.9305	0.0695	0.0722165	0.0044608
301.15	0.9305	0.0695	0.1280987	0.0081307
333.15	0.9305	0.0695	0.030365	0.0018635
303.15	0.9305	0.0695	0.1152849	0.0072282
293.15	0.9305	0.0695	0.202504	0.0129401
323.15	0.9305	0.0695	0.0451552	0.0027815
343.15	0.9305	0.0695	0.0221353	0.0013581
323.15	1	0	0.0472535	0.002911
333.15	1	0	0.033686	0.0020646
301.15	1	0	0.1387974	0.0088971
313.15	1	0	0.0776727	0.0048019
303.15	1	0	0.1216571	0.0077137
293.15	1	0	0.2295487	0.0147912
343.15	1	0	0.0239578	0.001472
