Measured thermophysical data. Ionic Liquids as Promising Solvents for Biomass Derived Mannitol and Xylitol
Source: J. Chem. Eng. Data, 2014, 10.1021/je400279d
Compound 1: 1-ethyl-3-methylimidazolium trifluoromethanesulfonate, C7H11F3N2O3S, InChI=1S/C6H11N2.CHF3O3S/c1-3-8-5-4-7(2)6-8;2-1(3,4)8(5,6)7/h4-6H,3H2,1-2H3;(H,5,6,7)/q+1;/p-1, purity 99%
Compound 2: 1-butyl-3-methylimidazolium trifluoromethanesulfonate, C9H15F3N2O3S, InChI=1S/C8H15N2.CHF3O3S/c1-3-4-5-10-7-6-9(2)8-10;2-1(3,4)8(5,6)7/h6-8H,3-5H2,1-2H3;(H,5,6,7)/q+1;/p-1, purity 99%
Compound 3: 1-hexyl-3-methylimidazolium trifluoromethanesulfonate, C11H19F3N2O3S, InChI=1S/C10H19N2.CHF3O3S/c1-3-4-5-6-7-12-9-8-11(2)10-12;2-1(3,4)8(5,6)7/h8-10H,3-7H2,1-2H3;(H,5,6,7)/q+1;/p-1, purity 99%
Compound 4: 1-octyl-3-methylimidazolium trifluoromethanesulfonate, C13H23F3N2O3S, InChI=1S/C12H23N2.CHF3O3S/c1-3-4-5-6-7-8-9-14-11-10-13(2)12-14;2-1(3,4)8(5,6)7/h10-12H,3-9H2,1-2H3;(H,5,6,7)/q+1;/p-1, purity 99%
Compound 5: xylitol, C5H12O5, InChI=1S/C5H12O5/c6-1-3(8)5(10)4(9)2-7/h3-10H,1-2H2/t3-,4+,5+, purity 99%
Compound 6: D-mannitol, C6H14O6, InChI=1S/C6H14O6/c7-1-3(9)5(11)6(12)4(10)2-8/h3-12H,1-2H2/t3-,4-,5-,6-/m1/s1, purity 99%
Compound 7: 1-decyl-3-methylimidazolium trifluoromethansulfate, C15H27F3N2O3S, InChI=1S/C14H27N2.CHF3O3S/c1-3-4-5-6-7-8-9-10-11-16-13-12-15(2)14-16;2-1(3,4)8(5,6)7/h12-14H,3-11H2,1-2H3;(H,5,6,7)/q+1;/p-1, purity 99%

System: D-mannitol + 1-ethyl-3-methylimidazolium trifluoromethanesulfonate; phases: Liquid, Crystal
Fixed: Pressure, kPa = 101
Property: Solid-liquid equilibrium temperature, K (Liquid); method: VISOBS
Mole fraction of D-mannitol	Solid-liquid equilibrium temperature, K	uncertainty
0.0305	340.96	0.45
0.0543	351.02	0.37
0.0802	357.59	0.26
0.1183	364.42	0.21
0.1728	370.62	0.19
0.2176	375.57	0.19

System: D-mannitol + 1-butyl-3-methylimidazolium trifluoromethanesulfonate; phases: Liquid, Crystal
Fixed: Pressure, kPa = 101
Property: Solid-liquid equilibrium temperature, K (Liquid); method: VISOBS
Mole fraction of D-mannitol	Solid-liquid equilibrium temperature, K	uncertainty
0.0274	364.69	6.32
0.0489	378.28	5.01
0.0721	387.14	3.13
0.1062	396.37	2.1
0.1549	404.73	1.71
0.1947	411.42	1.69

System: D-mannitol + 1-hexyl-3-methylimidazolium trifluoromethanesulfonate; phases: Liquid, Crystal
Fixed: Pressure, kPa = 101
Property: Solid-liquid equilibrium temperature, K (Liquid); method: VISOBS
Mole fraction of D-mannitol	Solid-liquid equilibrium temperature, K	uncertainty
0.0273	373.84	0.72
0.0485	388.79	0.58
0.0716	398.54	0.38
0.1055	408.69	0.34

System: D-mannitol + 1-octyl-3-methylimidazolium trifluoromethanesulfonate; phases: Liquid, Crystal
Fixed: Pressure, kPa = 101
Property: Solid-liquid equilibrium temperature, K (Liquid); method: VISOBS
Mole fraction of D-mannitol	Solid-liquid equilibrium temperature, K	uncertainty
0.0258	386.2	0.85
0.046	402.99	0.68
0.0678	413.93	0.53

System: xylitol + 1-ethyl-3-methylimidazolium trifluoromethanesulfonate; phases: Liquid mixture 1, Crystal, Liquid mixture 2, Air at 1 atmosphere
Property: Quadruple (quintuple) point temperature, K (Liquid mixture 1); method: visual
Quadruple (quintuple) point temperature, K	uncertainty
363.19	0.2

System: xylitol + 1-ethyl-3-methylimidazolium trifluoromethanesulfonate; phases: Liquid, Crystal
Fixed: Pressure, kPa = 101
Property: Solid-liquid equilibrium temperature, K (Liquid); method: VISOBS
Mole fraction of xylitol	Solid-liquid equilibrium temperature, K	uncertainty
0.0354	318.71	0.61
0.0628	334.94	0.5
0.0863	342.82	0.29
0.1145	347.54	0.2
0.1544	351.4	0.18
0.1929	354.25	0.18
0.245	358.79	0.17
0.3079	363.19	0.17
0.9876	364.33	0.19
0.9951	365.16	0.19

System: xylitol + 1-ethyl-3-methylimidazolium trifluoromethanesulfonate; phases: Liquid mixture 1, Liquid mixture 2
Fixed: Pressure, kPa = 101
Property: Liquid-liquid equilibrium temperature, K (Liquid mixture 1); method: VISOBS
Mole fraction of xylitol	Liquid-liquid equilibrium temperature, K	uncertainty
0.3079	364.17	0.17
0.3317	365.89	0.17
0.3652	368.04	0.16
0.4196	370.3	0.16
0.4812	372.28	0.16
0.6111	374.13	0.16
0.7873	373.14	0.16
0.8838	369.93	0.16
0.927	366.32	0.18
0.9588	363.83	0.17

System: xylitol + 1-butyl-3-methylimidazolium trifluoromethanesulfonate; phases: Liquid mixture 1, Crystal, Liquid mixture 2, Air at 1 atmosphere
Property: Quadruple (quintuple) point temperature, K (Liquid mixture 1); method: visual
Quadruple (quintuple) point temperature, K	uncertainty
363.18	0.2

System: xylitol + 1-butyl-3-methylimidazolium trifluoromethanesulfonate; phases: Liquid, Crystal
Fixed: Pressure, kPa = 101
Property: Solid-liquid equilibrium temperature, K (Liquid); method: VISOBS
Mole fraction of xylitol	Solid-liquid equilibrium temperature, K	uncertainty
0.0319	334.65	0.9
0.0565	356.57	0.9

System: xylitol + 1-butyl-3-methylimidazolium trifluoromethanesulfonate; phases: Liquid mixture 1, Liquid mixture 2
Fixed: Pressure, kPa = 101
Property: Liquid-liquid equilibrium temperature, K (Liquid mixture 1); method: VISOBS
Mole fraction of xylitol	Liquid-liquid equilibrium temperature, K	uncertainty
0.0896	365.1	0.2
0.1304	370.11	0.21
0.1701	376.47	0.22

System: xylitol + 1-hexyl-3-methylimidazolium trifluoromethanesulfonate; phases: Liquid mixture 1, Crystal, Liquid mixture 2, Air at 1 atmosphere
Property: Quadruple (quintuple) point temperature, K (Liquid mixture 1); method: visual
Quadruple (quintuple) point temperature, K	uncertainty
363.19	0.2

System: xylitol + 1-hexyl-3-methylimidazolium trifluoromethanesulfonate; phases: Liquid, Crystal
Fixed: Pressure, kPa = 101
Property: Solid-liquid equilibrium temperature, K (Liquid); method: VISOBS
Mole fraction of xylitol	Solid-liquid equilibrium temperature, K	uncertainty
0.0317	340.8	0.93
0.0562	363.16	0.93

System: xylitol + 1-hexyl-3-methylimidazolium trifluoromethanesulfonate; phases: Liquid mixture 1, Liquid mixture 2
Fixed: Pressure, kPa = 101
Property: Liquid-liquid equilibrium temperature, K (Liquid mixture 1); method: VISOBS
Mole fraction of xylitol	Liquid-liquid equilibrium temperature, K	uncertainty
0.0562	364.91	0.32
0.0892	374.3	0.25
0.1294	379.8	0.22
0.1685	386.8	0.24

System: xylitol + 1-octyl-3-methylimidazolium trifluoromethanesulfonate; phases: Liquid mixture 1, Crystal, Liquid mixture 2, Air at 1 atmosphere
Property: Quadruple (quintuple) point temperature, K (Liquid mixture 1); method: visual
Quadruple (quintuple) point temperature, K	uncertainty
363.18	0.2

System: xylitol + 1-octyl-3-methylimidazolium trifluoromethanesulfonate; phases: Liquid, Crystal
Property: Solid-liquid equilibrium temperature, K (Liquid); method: VISOBS
Mole fraction of xylitol	Pressure, kPa	Solid-liquid equilibrium temperature, K	uncertainty
0.0173	101	340.66	0.16

System: xylitol + 1-octyl-3-methylimidazolium trifluoromethanesulfonate; phases: Liquid mixture 1, Liquid mixture 2
Fixed: Pressure, kPa = 101
Property: Liquid-liquid equilibrium temperature, K (Liquid mixture 1); method: VISOBS
Mole fraction of xylitol	Liquid-liquid equilibrium temperature, K	uncertainty
0.0275	366.7	0.92
0.0493	386.48	0.64
0.0771	398.07	0.33
0.1121	404.87	0.25
0.146	411.9	0.26

System: xylitol + 1-decyl-3-methylimidazolium trifluoromethansulfate; phases: Liquid, Crystal
Property: Mole fraction of xylitol (Liquid); method: Titration method
Temperature, K	Pressure, kPa	Mole fraction of xylitol	uncertainty
363.15	101	0.0146	0.001

System: D-mannitol + 1-decyl-3-methylimidazolium trifluoromethansulfate; phases: Liquid, Crystal
Property: Mole fraction of D-mannitol (Liquid); method: Titration method
Temperature, K	Pressure, kPa	Mole fraction of D-mannitol	uncertainty
363.15	101	0.0079	0.001
