Measured thermophysical data. Solubility of a New Cardioactive Prototype Drug in Ionic Liquids
Source: J. Chem. Eng. Data, 2014, 10.1021/je4009624
Compound 1: LASSBio-294, C13H10N2O3S, InChI=1S/C13H10N2O3S/c16-13(15-14-7-10-2-1-5-19-10)9-3-4-11-12(6-9)18-8-17-11/h1-7H,8H2,(H,15,16)/b14-7+, purity 99.96%
Compound 2: water, H2O, InChI=1S/H2O/h1H2, purity 99.99%
Compound 3: 1-ethyl-3-methylimidazolium methyl phosphonate, C7H15N2O3P, InChI=1S/C6H11N2.CH5O3P/c1-3-8-5-4-7(2)6-8;1-4-5(2)3/h4-6H,3H2,1-2H3;5H,1H3,(H,2,3)/q+1;/p-1, purity 98%
Compound 4: 1-ethyl-3-methylimidazolium acetate, C8H14N2O2, InChI=1S/C6H11N2.C2H4O2/c1-3-8-5-4-7(2)6-8;1-2(3)4/h4-6H,3H2,1-2H3;1H3,(H,3,4)/q+1;/p-1, purity 98%
Compound 5: 1,3-dimethylimidazolium methyl phosphonate, C6H13N2O3P, InChI=1S/C5H9N2.CH5O3P/c1-6-3-4-7(2)5-6;1-4-5(2)3/h3-5H,1-2H3;5H,1H3,(H,2,3)/q+1;/p-1, purity 98%
Compound 6: 1-butyl-3-methylimidazolium acetate, C10H18N2O2, InChI=1S/C8H15N2.C2H4O2/c1-3-4-5-10-7-6-9(2)8-10;1-2(3)4/h6-8H,3-5H2,1-2H3;1H3,(H,3,4)/q+1;/p-1, purity 98%
Compound 7: 3-ethyl-1-methyl-1H-imidazol-3-ium ethyl phosphonate, C8H17N2O3P, InChI=1S/C6H11N2.C2H7O3P/c1-3-8-5-4-7(2)6-8;1-2-5-6(3)4/h4-6H,3H2,1-2H3;6H,2H2,1H3,(H,3,4)/q+1;/p-1, purity 98%

System: 1-ethyl-3-methylimidazolium methyl phosphonate + LASSBio-294; phases: Liquid, Crystal
Fixed: Pressure, kPa = 101
Property: Mass fraction of LASSBio-294 (Liquid); method: Chromatography
Temperature, K	Mass fraction of LASSBio-294	uncertainty
288.15	0.233	0.005
298.15	0.254	0.005
308.15	0.302	0.005

System: LASSBio-294 + 3-ethyl-1-methyl-1H-imidazol-3-ium ethyl phosphonate; phases: Liquid, Crystal
Fixed: Pressure, kPa = 101
Property: Mass fraction of LASSBio-294 (Liquid); method: Chromatography
Temperature, K	Mass fraction of LASSBio-294	uncertainty
288.15	0.475	0.002
298.15	0.474	0.006
308.15	0.508	0.016

System: 1-ethyl-3-methylimidazolium acetate + LASSBio-294; phases: Liquid, Crystal
Fixed: Pressure, kPa = 101
Property: Mass fraction of LASSBio-294 (Liquid); method: Chromatography
Temperature, K	Mass fraction of LASSBio-294	uncertainty
288.15	0.437	0.016
298.15	0.457	0.014
308.15	0.641	0.019

System: LASSBio-294 + 1,3-dimethylimidazolium methyl phosphonate; phases: Liquid, Crystal
Property: Mass fraction of LASSBio-294 (Liquid); method: Chromatography
Temperature, K	Pressure, kPa	Mass fraction of LASSBio-294	uncertainty
298	101	0.367	0.004

System: 1-butyl-3-methylimidazolium acetate + LASSBio-294; phases: Liquid, Crystal
Property: Mass fraction of LASSBio-294 (Liquid); method: Chromatography
Temperature, K	Pressure, kPa	Mass fraction of LASSBio-294	uncertainty
298.15	101	0.473	0.012

System: water + 1-ethyl-3-methylimidazolium methyl phosphonate + LASSBio-294; phases: Liquid, Crystal
Fixed: Pressure, kPa = 101
Property: Mass fraction of LASSBio-294 (Liquid); method: Chromatography
Solvent: Mass ratio of component to other component of binary solvent of water	Temperature, K	Mass fraction of LASSBio-294	uncertainty
0	298.15	0.254	0.005
0.02	298.15	0.16	0.014
0.05	298.15	0.085	0.004
0.05	288.15	0.062	0.003
0.05	298.15	0.085	0.004
0.05	308.15	0.122	0.004
0.11	298.15	0.033	0.014
0.18	298.15	0.0107	0.00304
0.25	298.15	0.00566	0.003
0.43	298.15	0.0012396	0.0012396
0.67	298.15	0.0003062	6.15e-05
1	288.15	0.000172	8e-05
1	298.15	0.000211	2e-05
1	298.15	0.0002106	8.6e-06
1	308.15	0.000253	6e-05
1.5	298.15	2.1e-05	7.7e-06
2.3	298.15	1.17e-05	1.17e-05
4	298.15	3.6e-06	3.6e-06
9	298.15	1.2e-06	4e-07

System: water + LASSBio-294 + 3-ethyl-1-methyl-1H-imidazol-3-ium ethyl phosphonate; phases: Liquid, Crystal
Fixed: Pressure, kPa = 101
Property: Mass fraction of LASSBio-294 (Liquid); method: Chromatography
Solvent: Mass ratio of component to other component of binary solvent of water	Temperature, K	Mass fraction of LASSBio-294	uncertainty
1	298.15	0.000243	2.3e-05
0.67	298.15	0.000553	1.3e-05
0.43	298.15	0.001323	0.001323
0.25	298.15	0.008661	0.008661
0.11	298.15	0.105	0.003
0.05	298.15	0.315	0.01
0	298.15	0.474	0.007
1	288.15	0.00028	0.00016
0.05	288.15	0.264	0.006
1	298.15	0.000243	2.1e-05
0.05	298.15	0.314	0.01
1	308.15	0.000377	0.000101
0.05	308.15	0.318	0.006

System: water + 1-ethyl-3-methylimidazolium acetate + LASSBio-294; phases: Liquid, Crystal
Fixed: Pressure, kPa = 101
Property: Mass fraction of LASSBio-294 (Liquid); method: Chromatography
Solvent: Mass ratio of component to other component of binary solvent of water	Temperature, K	Mass fraction of LASSBio-294	uncertainty
1	298.15	0.000254	2.8e-05
0.05	298.15	0.258	0.013
0	298.15	0.457	0.011
1	288.15	0.000226	2e-05
0.05	288.15	0.217	0.007
1	298.15	0.000254	4e-05
0.05	298.15	0.258	0.013
1	308.15	0.000256	2e-05
0.05	308.15	0.312	0.006
