Measured thermophysical data. Thermophysical Properties of the Binary Mixture of Water + Diethylmethylammonium Trifluoromethanesulfonate and the Ternary Mixture of Water + Diethylmethylammonium Trifluoromethanesulfonate + Diethylmethylammonium Methanesulfonate
Source: J. Chem. Eng. Data, 2014, 10.1021/je400097b
Compound 1: diethylmethylammonium trifluoromethanesulfonate, C6H14F3NO3S, InChI=1S/C5H13N.CHF3O3S/c1-4-6(3)5-2;2-1(3,4)8(5,6)7/h4-5H2,1-3H3;(H,5,6,7)
Compound 2: diethylmethylammonium methanesulfonate, C6H17NO3S, InChI=1S/C5H13N.CH4O3S/c1-4-6(3)5-2;1-5(2,3)4/h4-5H2,1-3H3;1H3,(H,2,3,4)
Compound 3: water, H2O, InChI=1S/H2O/h1H2, purity 99.8%

System: water + diethylmethylammonium trifluoromethanesulfonate; phases: Liquid, Gas
Property: Vapor or sublimation pressure, kPa (Liquid); method: Ebulliometric method (Recirculating still)
Temperature, K	Mole fraction of water	Vapor or sublimation pressure, kPa	uncertainty
293.15	0.128	0.186	0.195
293.15	1	2.374	0.208
303.15	0.15	0.468	0.196
313.15	0.127	0.691	0.196
313.15	1	7.501	1.16
323.15	0.127	1.161	0.197
323.15	1	12.429	1.879
333.15	0.126	1.746	0.2
333.15	1	19.791	2.999
343.15	0.126	2.538	0.204
343.15	1	30.914	4.768
353.15	0.125	3.869	0.665
353.15	1	47.166	7.529
293.15	0.15	0.241	0.196
293.15	0.172	0.302	0.196
303.15	0.172	0.56	0.196
303.15	0.24	0.843	0.196
303.15	0.326	1.123	0.197
303.15	0.398	1.459	0.2
303.15	0.506	1.92	0.201
293.15	0.24	0.425	0.196
313.15	0.15	0.861	0.197
313.15	0.172	0.995	0.197
313.15	0.239	1.384	0.198
313.15	0.326	1.876	0.201
313.15	0.448	2.675	0.209
293.15	0.327	0.632	0.196
323.15	0.149	1.362	0.198
323.15	0.171	1.581	0.2
323.15	0.238	2.154	0.204
323.15	0.325	2.875	0.547
323.15	0.446	4.722	0.778
293.15	0.449	0.994	0.197
333.15	0.148	1.997	0.202
333.15	0.171	2.342	0.205
333.15	0.237	3.332	0.601
333.15	0.323	5.002	0.815
333.15	0.444	7.698	1.188
343.15	0.148	2.83	0.212
343.15	0.17	3.568	0.631
343.15	0.235	5.428	0.873
343.15	0.321	7.89	1.216
343.15	0.441	11.857	1.794
353.15	0.146	4.562	0.893
353.15	0.168	5.576	0.759
353.15	0.233	8.152	1.252
353.15	0.318	11.74	1.775
353.15	0.437	17.682	2.671
303.15	0.693	2.776	0.211
293.15	0.399	0.835	0.197
323.15	0.396	3.906	0.674
323.15	0.503	5.571	0.892
323.15	0.554	6.36	1.001
323.15	0.619	7.566	1.171
293.15	0.506	1.128	0.198
303.15	0.448	1.677	0.201
333.15	0.394	6.559	1.03
303.15	0.556	2.132	0.205
333.15	0.501	8.94	1.369
333.15	0.551	10.175	1.548
333.15	0.619	12.01	1.818
293.15	0.557	1.254	0.198
293.15	0.623	1.459	0.201
313.15	0.398	2.356	0.206
303.15	0.622	2.463	0.207
313.15	0.505	3.142	0.58
313.15	0.555	3.67	0.643
343.15	0.392	10.119	1.542
313.15	0.621	4.468	0.745
343.15	0.498	13.838	2.093
343.15	0.548	15.611	2.36
343.15	0.614	18.446	2.792
353.15	0.388	15.031	2.275
353.15	0.494	20.601	3.125
353.15	0.544	23.352	3.556
353.15	0.61	27.207	4.168
333.15	0.855	17.346	2.626
323.15	0.856	10.873	1.651
293.15	0.858	2.044	0.205
343.15	0.853	26.848	4.12
303.15	0.92	3.823	0.663
313.15	0.857	6.516	1.024
353.15	0.85	40.715	6.421
333.15	0.689	13.676	2.085
343.15	0.686	21.066	3.226
293.15	0.694	1.67	0.204
313.15	0.692	5.164	0.844
323.15	0.691	8.691	1.342
303.15	0.752	3.068	0.573
353.15	0.681	31.382	4.89
333.15	0.748	15.051	2.317
343.15	0.745	23.205	3.6
293.15	0.753	1.82	0.208
323.15	0.75	9.428	1.461
313.15	0.751	5.604	0.91
303.15	0.804	3.369	2.771
353.15	0.741	34.902	5.527
333.15	0.8	16.445	3.496
323.15	0.802	10.3	5.323
313.15	0.803	6.16	3.173
303.15	0.808	3.243	2.156
343.15	0.797	25.327	4.117
353.15	0.794	38.171	6.24
293.15	0.804	1.963	0.498
313.15	0.807	6.145	4.223
333.15	0.804	16.378	4.841
323.15	0.806	10.213	5.931
303.15	0.858	3.6	0.663
293.15	0.808	1.893	0.796
353.15	0.798	37.866	6.847
343.15	0.801	25.109	4.52
323.15	0.918	11.502	1.802
313.15	0.919	6.931	1.119
303.15	1	4.214	0.712
293.15	0.92	2.108	0.234
333.15	0.917	18.369	2.868
353.15	0.913	43.571	7.172
343.15	0.916	28.66	4.556

System: water + diethylmethylammonium trifluoromethanesulfonate; phases: Liquid
Fixed: Pressure, kPa = 101
Property: Mass density, kg/m3 (Liquid); method: Pycnometric method
Temperature, K	Mole fraction of water	Mass density, kg/m3	uncertainty
293.15	0.037	1294.1	4.2
293.15	0.434	1278	3.2
293.15	0.586	1259.2	3
293.15	0.759	1226.7	2.9
293.15	0.844	1195.9	2.8
293.15	0.925	1135	2.6
293.15	0.972	1062.8	2.5
293.15	1	997.1	2.3
313.15	0.037	1277.4	4.2
313.15	0.434	1261.5	3.2
313.15	0.586	1243.3	3
313.15	0.759	1211.9	2.9
313.15	0.844	1180.8	2.8
313.15	0.925	1122	2.6
313.15	0.972	1053	2.5
313.15	1	990.4	2.3
333.15	0.037	1261.4	4.1
333.15	0.434	1245.6	3.2
333.15	0.586	1227.3	3
333.15	0.759	1195.6	2.9
333.15	0.844	1165.3	2.8
333.15	0.925	1107.7	2.6
333.15	0.972	1041.1	2.5
333.15	1	980.9	2.3
353.15	0.037	1245.5	4.1
353.15	0.434	1229.4	3.2
353.15	0.586	1210.6	3
353.15	0.759	1177	2.9
353.15	0.844	1147.3	2.9
353.15	0.925	1091	2.7
353.15	0.972	1027.3	2.5
353.15	1	970.1	2.3

System: water + diethylmethylammonium trifluoromethanesulfonate; phases: Liquid
Fixed: Pressure, kPa = 101
Property: Viscosity, Pa*s (Liquid); method: Falling or rolling sphere viscometry
Temperature, K	Mole fraction of water	Viscosity, Pa*s	uncertainty
293.15	0.037	0.05328	0.00376
293.15	0.434	0.02231	0.00156
293.15	0.586	0.01449	0.00101
293.15	0.759	0.00765	0.00053
293.15	0.844	0.00499	0.00035
293.15	0.925	0.00286	0.0002
293.15	0.972	0.00169	0.00012
293.15	1	0.0012	8e-05
313.15	0.037	0.02583	0.00184
313.15	0.434	0.0121	0.00085
313.15	0.586	0.00798	0.00056
313.15	0.759	0.00438	0.00031
313.15	0.844	0.00289	0.0002
313.15	0.925	0.00175	0.00012
313.15	0.972	0.0012	8e-05
313.15	1	0.00098	7e-05
333.15	0.037	0.01462	0.00104
333.15	0.434	0.00733	0.00051
333.15	0.586	0.00497	0.00035
333.15	0.759	0.00281	0.0002
333.15	0.844	0.00194	0.00013
333.15	0.925	0.00128	9e-05
333.15	0.972	0.00101	7e-05
333.15	1	0.00088	6e-05
353.15	0.037	0.00918	0.00065
353.15	0.434	0.00489	0.00034
353.15	0.586	0.00338	0.00024
353.15	0.759	0.00201	0.00014
353.15	0.844	0.00145	0.0001
353.15	0.925	0.00108	8e-05
353.15	0.972	0.00091	6e-05
353.15	1	0.00082	6e-05

System: water + diethylmethylammonium trifluoromethanesulfonate; phases: Liquid
Fixed: Pressure, kPa = 101
Property: Molar heat capacity at constant pressure, J/K/mol (Liquid); method: Small sample (50 mg) DSC
Temperature, K	Mole fraction of water	Molar heat capacity at constant pressure, J/K/mol	uncertainty
293.15	0.026	351.943273998208	19.2179550933232
293.15	0.289	276.477355500504	14.4324657273848
293.15	0.4	246.759179304	12.41273447408
293.15	0.588	195.00567587136	9.1002648739968
293.15	0.684	168.471183308448	7.419715327056
293.15	0.757	148.990360426952	6.059416572388
293.15	0.808	135.2401111872	5.1691775831552
293.15	0.843	125.316777332808	4.5617404301064
293.15	0.893	109.487364537408	3.6495788179136
293.15	0.929	100.405223481784	3.022230807144
293.15	0.952	91.32204486656	2.6255087899136
293.15	0.975	85.9951248084	2.2321138953
293.15	0.992	79.274050245568	1.9373708040064
293.15	1	75.1237176	1.78351272
303.15	0.026	354.258690274512	19.2179550933232
303.15	0.289	279.955058085416	14.4324657273848
303.15	0.4	249.7501996592	12.41273447408
303.15	0.588	198.255770469216	9.1002648739968
303.15	0.684	171.089906365056	7.419715327056
303.15	0.757	151.128978040736	6.059416572388
303.15	0.808	137.043312669696	5.1691775831552
303.15	0.843	126.889791274224	4.5617404301064
303.15	0.893	110.731539134424	3.6495788179136
303.15	0.929	101.076830327816	3.0558111494456
303.15	0.952	91.892807646976	2.6255087899136
303.15	0.975	85.9951248084	2.2321138953
303.15	0.992	79.274050245568	1.9373708040064
303.15	1	74.9435648	1.78351272
313.15	0.026	358.88952282712	19.2179550933232
313.15	0.289	283.432760670328	14.4324657273848
313.15	0.4	252.7412200144	12.41273447408
313.15	0.588	200.42250020112	9.1002648739968
313.15	0.684	173.708629421664	7.419715327056
313.15	0.757	153.26759565452	6.1307038261808
313.15	0.808	138.846514152192	5.1691775831552
333.15	0.026	365.835771656032	19.2179550933232
333.15	0.289	290.388165840152	14.4324657273848
333.15	0.4	260.2187709024	12.56228549184
333.15	0.588	205.83932453088	9.1002648739968
333.15	0.684	178.073167849344	7.419715327056
333.15	0.757	157.544830882088	6.1307038261808
333.15	0.808	142.452917117184	5.2292842992384
333.15	0.843	131.084495118	4.5617404301064
333.15	0.893	113.219888328456	3.6910513044808
333.15	0.929	102.755847442896	3.0558111494456
333.15	0.952	93.034333207808	2.6255087899136
333.15	0.975	86.4650435232	2.2321138953
333.15	0.992	79.471741143936	1.9373708040064
333.15	1	74.9435648	1.78351272
343.15	0.026	370.46660420864	19.2179550933232
343.15	0.289	293.865868425064	14.4324657273848
343.15	0.4	261.71428108	12.56228549184
343.15	0.588	209.089419128736	9.208601360592
343.15	0.684	180.691890905952	7.419715327056
343.15	0.757	158.970575957944	6.1307038261808
343.15	0.808	143.655051438848	5.2292842992384
343.15	0.843	132.657509059416	4.6141742281536
343.15	0.893	114.0493380598	3.6910513044808
343.15	0.929	103.427454288928	3.0558111494456
343.15	0.952	93.319714598016	2.6255087899136
343.15	0.975	86.4650435232	2.2321138953
343.15	0.992	79.471741143936	1.9373708040064
343.15	1	74.9435648	1.78351272
353.15	0.026	372.782020484944	19.2179550933232
353.15	0.289	297.343571009976	14.6063508566304
353.15	0.4	264.7053014352	12.56228549184
353.15	0.588	211.25614886064	9.208601360592
353.15	0.684	182.437706277024	7.419715327056
353.15	0.757	160.3963210338	6.1307038261808
353.15	0.808	144.857185760512	5.2292842992384
313.15	0.843	128.46280521564	4.5617404301064
313.15	0.893	111.560988865768	3.6910513044808
313.15	0.929	101.748437173848	3.0558111494456
313.15	0.952	92.178189037184	2.6255087899136
313.15	0.975	86.2300841658	2.2321138953
313.15	0.992	79.274050245568	1.9373708040064
313.15	1	74.9435648	1.78351272
323.15	0.026	363.520355379728	19.2179550933232
323.15	0.289	286.91046325524	14.4324657273848
323.15	0.4	255.7322403696	12.56228549184
323.15	0.588	203.672594798976	9.1002648739968
323.15	0.684	176.327352478272	7.419715327056
323.15	0.757	155.406213268304	6.1307038261808
323.15	0.808	140.649715634688	5.2292842992384
323.15	0.843	130.035819157056	4.5617404301064
323.15	0.893	112.390438597112	3.6910513044808
323.15	0.929	102.42004401988	3.0558111494456
323.15	0.952	92.7489518176	2.6255087899136
323.15	0.975	86.2300841658	2.2321138953
323.15	0.992	79.274050245568	1.9373708040064
323.15	1	74.9435648	1.78351272
353.15	0.843	133.181847039888	4.6141742281536
353.15	0.893	114.878787791144	3.6910513044808
353.15	0.929	103.763257711944	3.0558111494456
353.15	0.952	93.319714598016	2.6255087899136
353.15	0.975	86.4650435232	2.2321138953
353.15	0.992	79.471741143936	1.9373708040064
353.15	1	75.1237176	1.78351272
363.15	0.026	377.412853037552	19.2179550933232
363.15	0.289	300.821273594888	14.6063508566304
363.15	0.4	267.6963217904	12.56228549184
363.15	0.588	213.422878592544	9.208601360592
363.15	0.684	184.183521648096	7.419715327056
363.15	0.757	161.822066109656	6.1307038261808
363.15	0.808	146.059320082176	5.2292842992384
363.15	0.843	134.230523000832	4.6141742281536
363.15	0.893	115.293512656816	3.6910513044808
363.15	0.929	104.09906113496	3.0558111494456
363.15	0.952	93.605095988224	2.6540469289344
363.15	0.975	86.7000028806	2.25560983104
363.15	0.992	79.471741143936	1.9373708040064
363.15	1	75.1237176	1.78351272

System: water + diethylmethylammonium trifluoromethanesulfonate; phases: Liquid
Fixed: Pressure, kPa = 101
Property: Binary diffusion coefficient, m2/s (Liquid); method: NMR spin-echo technique
Temperature, K	Mole fraction of water	Binary diffusion coefficient, m2/s	uncertainty
288	0.638	2.4e-10	0.05
288	0.745	3.6e-10	0.05
288	0.84	4e-10	0.06
293	0.638	2.5e-10	0.06
293	0.745	4e-10	0.08
293	0.84	5.8e-10	0.09
298	0.638	2.7e-10	0.08
298	0.745	4.5e-10	0.09
298	0.84	6.6e-10	0.11
303	0.638	2.8e-10	0.1
303	0.745	5.3e-10	0.11
303	0.84	7.4e-10	0.22
308	0.638	2.7e-10	0.1
313	0.638	2.9e-10	0.24
313	0.745	9.2e-10	0.35
313	0.84	2e-09	0.5

System: water + diethylmethylammonium methanesulfonate; phases: Liquid
Fixed: Pressure, kPa = 101
Property: Binary diffusion coefficient, m2/s (Liquid); method: NMR spin-echo technique
Temperature, K	Mole fraction of water	Binary diffusion coefficient, m2/s	uncertainty
288	0.69	1.3e-10	0.02
288	0.812	2.7e-10	0.02
293	0.69	1.6e-10	0.02
293	0.812	3.2e-10	0.02
298	0.69	1.9e-10	0.02
298	0.812	3.6e-10	0.02
303	0.69	2.3e-10	0.02
303	0.812	4.3e-10	0.03
313	0.69	3.4e-10	0.02
313	0.812	6.3e-10	0.04

System: water + diethylmethylammonium trifluoromethanesulfonate + diethylmethylammonium methanesulfonate; phases: Liquid, Gas
Fixed: Solvent: Mass ratio of component to other component of binary solvent of diethylmethylammonium trifluoromethanesulfonate = 2.33333
Property: Vapor or sublimation pressure, kPa (Liquid); method: Ebulliometric method (Recirculating still)
Temperature, K	Mole fraction of water	Vapor or sublimation pressure, kPa	uncertainty
293.15	0.151	0.113	0.051
293.15	0.184	0.191	0.051
293.15	0.245	0.274	0.052
293.15	0.326	0.362	0.052
293.15	0.409	0.564	0.053
293.15	0.489	0.713	0.054
293.15	0.564	0.918	0.056
293.15	0.649	1.145	0.057
293.15	0.729	1.397	0.059
293.15	0.808	1.681	0.062
293.15	0.887	1.913	0.065
293.15	0.946	2.226	0.068
293.15	1	2.216	0.069
303.15	0.151	0.27	0.051
303.15	0.184	0.377	0.052
303.15	0.245	0.524	0.053
303.15	0.326	0.723	0.054
303.15	0.409	1.037	0.056
303.15	0.488	1.301	0.058
303.15	0.564	1.651	0.06
303.15	0.649	1.997	0.063
303.15	0.729	2.381	0.067
303.15	0.807	2.988	0.072
303.15	0.887	3.581	0.077
303.15	0.946	3.968	0.08
303.15	1	4.257	0.083
313.15	0.151	0.499	0.053
313.15	0.184	0.655	0.054
313.15	0.244	0.949	0.055
313.15	0.325	1.283	0.058
313.15	0.408	1.757	0.061
313.15	0.488	2.152	0.064
313.15	0.564	2.726	0.069
313.15	0.648	3.6	0.077
313.15	0.728	4.515	0.085
313.15	0.807	5.458	0.093
313.15	0.886	6.432	0.101
313.15	0.945	7.055	0.107
313.15	1	7.362	0.11
323.15	0.151	0.805	0.054
323.15	0.184	1.091	0.056
323.15	0.244	1.492	0.059
323.15	0.325	2.039	0.063
323.15	0.408	2.868	0.07
333.15	0.15	1.259	0.057
333.15	0.183	1.712	0.06
333.15	0.243	2.277	0.064
333.15	0.324	3.386	0.073
333.15	0.406	4.946	0.086
333.15	0.486	6.332	0.097
333.15	0.561	8.072	0.113
333.15	0.646	9.944	0.129
333.15	0.725	12.125	0.147
333.15	0.804	14.381	0.169
333.15	0.884	16.743	0.19
333.15	0.944	18.273	0.203
333.15	1	19.391	0.213
343.15	0.15	1.896	0.061
343.15	0.183	2.508	0.066
343.15	0.242	3.733	0.075
343.15	0.322	5.465	0.089
343.15	0.405	7.7	0.107
343.15	0.484	9.875	0.125
343.15	0.559	12.641	0.151
343.15	0.644	15.497	0.175
343.15	0.723	18.697	0.204
343.15	0.802	22.393	0.237
343.15	0.883	25.927	0.27
343.15	0.943	28.195	0.287
343.15	1	29.862	0.309
353.15	0.181	4.073	0.076
353.15	0.241	5.776	0.088
353.15	0.321	8.294	0.108
353.15	0.403	11.659	0.133
353.15	0.481	14.748	0.161
353.15	0.556	19.288	0.193
353.15	0.641	23.333	0.23
353.15	0.721	28.316	0.269
353.15	0.8	33.756	0.312
353.15	0.88	39.439	0.355
353.15	0.941	42.15	0.382
353.15	1	46.268	0.42
323.15	0.487	3.8	0.077
323.15	0.563	4.918	0.087
323.15	0.647	6.214	0.098
323.15	0.727	7.674	0.11
323.15	0.806	9.071	0.123
323.15	0.885	10.516	0.136
323.15	0.945	11.534	0.145
323.15	1	12.204	0.152

System: water + diethylmethylammonium trifluoromethanesulfonate + diethylmethylammonium methanesulfonate; phases: Liquid
Fixed: Pressure, kPa = 101
Property: Viscosity, Pa*s (Liquid); method: Capillary tube (Ostwald; Ubbelohde) method
Temperature, K	Mole fraction of water	Mole fraction of diethylmethylammonium methanesulfonate	Viscosity, Pa*s	uncertainty
293.15	0.027	0	0.05328	0.00379
293.15	0.05	0.233	0.07807	0.00559
293.15	0.07	0.432	0.10171	0.00736
293.15	0.089	0.602	0.11675	0.0085
293.15	0.107	0.75	0.12517	0.00914
293.15	0.114	0.817	0.12831	0.00938
313.15	0.027	0	0.02583	0.00183
313.15	0.05	0.233	0.03401	0.00241
313.15	0.07	0.432	0.04086	0.00289
313.15	0.089	0.602	0.04436	0.00314
313.15	0.107	0.75	0.04578	0.00324
313.15	0.114	0.817	0.04613	0.00326
313.15	0.121	0.879	0.04652	0.00329
333.15	0.027	0	0.01462	0.00103
333.15	0.05	0.233	0.01787	0.00126
333.15	0.07	0.432	0.02035	0.00144
333.15	0.089	0.602	0.02141	0.00151
333.15	0.107	0.75	0.02156	0.00152
333.15	0.114	0.817	0.02166	0.00153
333.15	0.121	0.879	0.02164	0.00153
353.15	0.027	0	0.00918	0.00065
353.15	0.05	0.233	0.0107	0.00076
353.15	0.07	0.432	0.01174	0.00083
353.15	0.089	0.602	0.01207	0.00085
353.15	0.107	0.75	0.01203	0.00085
353.15	0.114	0.817	0.01206	0.00085
353.15	0.121	0.879	0.01205	0.00085

System: water + diethylmethylammonium trifluoromethanesulfonate + diethylmethylammonium methanesulfonate; phases: Liquid
Fixed: Pressure, kPa = 101
Property: Mass density, kg/m3 (Liquid); method: Pycnometric method
Temperature, K	Mole fraction of water	Mole fraction of diethylmethylammonium trifluoromethanesulfonate	Mass density, kg/m3	uncertainty
293.15	0.027	0	1294.1	5.3
293.15	0.05	0.233	1258.2	5.2
293.15	0.07	0.432	1224.8	4.3
293.15	0.089	0.602	1194.3	5.5
293.15	0.107	0.75	1164.7	5.1
293.15	0.114	0.817	1151.4	5.1
313.15	0.027	0	1277.4	5.2
313.15	0.05	0.233	1242.3	5.2
313.15	0.07	0.432	1209.5	4.9
313.15	0.089	0.602	1178.9	5.7
313.15	0.107	0.75	1150.5	5.1
313.15	0.114	0.817	1137.2	6.3
313.15	0.121	0.879	1124.2	5
333.15	0.027	0	1261.4	5.1
333.15	0.05	0.233	1226.8	5.1
333.15	0.07	0.432	1194.8	4.1
333.15	0.089	0.602	1165.9	5.5
333.15	0.107	0.75	1136.8	5
333.15	0.114	0.817	1124.1	6.3
333.15	0.121	0.879	1110.7	5
353.15	0.027	0	1245.5	5
353.15	0.05	0.233	1211.9	5
353.15	0.07	0.432	1180.2	4.1
353.15	0.089	0.602	1151.5	5.3
353.15	0.107	0.75	1123.6	5
353.15	0.114	0.817	1110.6	5
353.15	0.121	0.879	1097.6	4.9

System: water + diethylmethylammonium trifluoromethanesulfonate + diethylmethylammonium methanesulfonate; phases: Liquid
Fixed: Pressure, kPa = 101
Property: Molar heat capacity at constant pressure, J/K/mol (Liquid); method: Small sample (50 mg) DSC
Temperature, K	Mole fraction of water	Mole fraction of diethylmethylammonium methanesulfonate	Molar heat capacity at constant pressure, J/K/mol	uncertainty
293.15	0.035	0	348.485121994152	10.33058662038
293.15	0.049	0.22	342.757272664247	9.8727830573296
293.15	0.081	0.416	331.013906040384	9.2605080856536
293.15	0.088	0.57	326.077854041014	8.7977377381904
293.15	0.101	0.748	318.88053630602	8.3869949275008
293.15	0.071	0.929	324.03344279404	8.23377726528
303.15	0.035	0	352.158219459176	10.560155211944
303.15	0.049	0.22	345.762032725174	9.8727830573296
303.15	0.081	0.416	333.969387344316	9.2605080856536
303.15	0.088	0.57	328.698456771539	8.7977377381904
303.15	0.101	0.748	321.501472220864	8.3869949275008
303.15	0.071	0.929	326.43496116308	8.23377726528
313.15	0.035	0	355.8313169242	10.560155211944
313.15	0.049	0.22	349.410669942013	9.8727830573296
313.15	0.081	0.416	337.121900735177	9.2605080856536
313.15	0.088	0.57	331.69343132071	8.7977377381904
313.15	0.101	0.748	324.297137196698	8.3869949275008
313.15	0.071	0.929	329.17955358484	8.23377726528
323.15	0.035	0	359.733982980788	10.560155211944
323.15	0.049	0.22	353.059307158852	9.8727830573296
323.15	0.081	0.416	340.471446212966	9.2605080856536
323.15	0.088	0.57	334.875591779205	8.7977377381904
323.15	0.101	0.748	327.267531233521	8.3869949275008
323.15	0.071	0.929	332.09568303296	8.23377726528
333.15	0.035	0	363.407080445812	10.560155211944
333.15	0.049	0.22	356.493318657054	9.8727830573296
333.15	0.081	0.416	343.623959603827	9.2605080856536
333.15	0.088	0.57	337.870566328376	8.7977377381904
333.15	0.101	0.748	330.063196209354	8.3869949275008
333.15	0.071	0.929	335.01181248108	8.40531429164
343.15	0.035	0	367.080177910836	10.560155211944
343.15	0.049	0.22	359.927330155255	10.0874087759672
343.15	0.081	0.416	346.579440907759	9.2605080856536
343.15	0.088	0.57	340.865540877547	8.9849236475136
343.15	0.101	0.748	332.858861185188	8.3869949275008
343.15	0.071	0.929	337.9279419292	8.40531429164
353.15	0.035	0	370.294138192732	10.560155211944
353.15	0.049	0.22	363.146715934819	10.0874087759672
353.15	0.081	0.416	349.534922211691	9.2605080856536
353.15	0.088	0.57	343.673329517395	8.9849236475136
353.15	0.101	0.748	335.654526161022	8.3869949275008
353.15	0.071	0.929	340.67253435096	8.40531429164
363.15	0.035	0	374.19680424932	10.560155211944
363.15	0.049	0.22	366.580727433021	10.0874087759672
363.15	0.081	0.416	352.687435602552	9.2605080856536
363.15	0.088	0.57	346.85548997589	8.9849236475136
363.15	0.101	0.748	338.624920197845	8.5617239884904
363.15	0.071	0.929	343.76020082544	8.40531429164
