Measured thermophysical data. Water Activity in Aqueous Amino Acid Solutions Containing Ammonium Sulfate at 298.2 K
Source: J. Chem. Eng. Data, 2014, 10.1021/je401034k
Compound 1: 2-aminoacetic acid, C2H5NO2, InChI=1S/C2H5NO2/c3-1-2(4)5/h1,3H2,(H,4,5), purity 99.7%
Compound 2: DL-2-aminopropanoic acid, C3H7NO2, InChI=1S/C3H7NO2/c1-2(4)3(5)6/h2H,4H2,1H3,(H,5,6), purity 99%
Compound 3: L-serine, C3H7NO3, InChI=1S/C3H7NO3/c4-2(1-5)3(6)7/h2,5H,1,4H2,(H,6,7)/t2-/m0/s1, purity 99%
Compound 4: ammonium sulfate, H8N2O4S, InChI=1S/2H3N.H2O4S/c;;1-5(2,3)4/h2*1H3;(H2,1,2,3,4), purity 99.5%
Compound 5: water, H2O, InChI=1S/H2O/h1H2

System: DL-2-aminopropanoic acid + water + ammonium sulfate; phases: Liquid
Fixed: Pressure, kPa = 101
Fixed: Temperature, K = 298.2
Property: (Relative) activity of water (Liquid); method: resistive-electrolytic method
Molality, mol/kg of ammonium sulfate	Molality, mol/kg of DL-2-aminopropanoic acid	(Relative) activity of water	uncertainty
0.5	0.1996	0.979	0.002
0.5	0.3998	0.975	0.002
0.5	0.5997	0.972	0.002
0.5	0.799	0.968	0.002
0.5	0.9945	0.965	0.002
0.5	1.1992	0.961	0.002
0.5	1.3858	0.957	0.002
0.5	1.6058	0.953	0.002
0.5	1.8154	0.949	0.002
1	0.1	0.964	0.002
1	0.2994	0.96	0.002
1	0.5012	0.957	0.002
1	0.7	0.953	0.002
1	0.8987	0.95	0.002
1	1.0986	0.946	0.002
1	1.2965	0.942	0.002
1	1.4967	0.938	0.002
1	1.7959	0.933	0.002
2	0.1996	0.93	0.002
2	0.4004	0.926	0.002
2	0.5999	0.922	0.002
2	0.8014	0.918	0.002
2	1.0029	0.913	0.002
2	1.1951	0.91	0.002
2	1.4034	0.905	0.002
2	1.5949	0.9	0.002
2	1.7899	0.896	0.002
3.5	0.1001	0.881	0.002
3.5	0.2943	0.877	0.002
3.5	0.4994	0.874	0.002
3.5	0.6985	0.87	0.002
3.5	0.8997	0.864	0.002
3.5	1.1015	0.859	0.002
3.5	1.2975	0.855	0.002
3.5	1.495	0.851	0.002
3.5	1.7498	0.846	0.002
5	0.1996	0.829	0.002
5	0.396	0.824	0.002
5	0.5993	0.82	0.002
5	0.7979	0.815	0.002
5	1.0022	0.811	0.002
5	1.2033	0.807	0.002
5	1.3968	0.803	0.002

System: 2-aminoacetic acid + water + ammonium sulfate; phases: Liquid
Fixed: Pressure, kPa = 101
Fixed: Temperature, K = 298.2
Property: (Relative) activity of water (Liquid); method: resistive-electrolytic method
Molality, mol/kg of ammonium sulfate	Molality, mol/kg of 2-aminoacetic acid	(Relative) activity of water	uncertainty
0.5	0.4	0.976	0.002
0.5	0.8025	0.97	0.002
0.5	1.1984	0.964	0.002
0.5	1.202	0.964	0.002
0.5	1.5973	0.958	0.002
0.5	2.001	0.953	0.002
0.5	2.3922	0.947	0.002
0.5	2.8027	0.941	0.002
0.5	2.9947	0.938	0.002
0.5	3.296	0.933	0.002
1	0.3006	0.961	0.002
1	0.7022	0.955	0.002
1	1.0962	0.95	0.002
1	1.4961	0.944	0.002
1	1.8979	0.938	0.002
1	2.3001	0.932	0.002
1	2.6966	0.926	0.002
1	3.097	0.919	0.002
1	3.5998	0.911	0.002
2	0.1997	0.931	0.002
2	0.5993	0.925	0.002
2	0.9731	0.919	0.002
2	1.4013	0.912	0.002
2	1.7953	0.906	0.002
2	2.1997	0.899	0.002
2	2.6075	0.893	0.002
2	2.9981	0.886	0.002
2	3.4087	0.88	0.002
2	3.7085	0.874	0.002
3.5	0.3988	0.877	0.002
3.5	0.7986	0.872	0.002
3.5	1.2025	0.865	0.002
3.5	1.6012	0.858	0.002
3.5	1.9955	0.852	0.002
3.5	2.3927	0.846	0.002
3.5	2.804	0.84	0.002
3.5	3.2023	0.834	0.002
3.5	3.5953	0.828	0.002
5	0.1992	0.83	0.002
5	0.599	0.824	0.002
5	0.9984	0.817	0.002
5	1.3944	0.811	0.002
5	1.7863	0.804	0.002
5	2.1962	0.797	0.002
5	2.5897	0.791	0.002
5	2.9829	0.785	0.002
5	3.3931	0.779	0.002
5	3.7044	0.775	0.002

System: L-serine + water + ammonium sulfate; phases: Liquid
Fixed: Pressure, kPa = 101
Fixed: Temperature, K = 298.2
Property: (Relative) activity of water (Liquid); method: resistive-electrolytic method
Molality, mol/kg of ammonium sulfate	Molality, mol/kg of L-serine	(Relative) activity of water	uncertainty
0.5	0.3999	0.977	0.002
0.5	0.7975	0.971	0.002
0.5	1.2014	0.965	0.002
0.5	1.5951	0.96	0.002
0.5	1.996	0.955	0.002
0.5	2.4001	0.95	0.002
0.5	2.7977	0.944	0.002
0.5	3.1933	0.939	0.002
0.5	3.5957	0.933	0.002
0.5	3.9959	0.927	0.002
0.5	4.4061	0.921	0.002
1	0.2996	0.962	0.002
1	0.7003	0.956	0.002
1	1.1022	0.951	0.002
1	1.4987	0.945	0.002
1	1.8965	0.94	0.002
1	2.3012	0.935	0.002
1	2.6872	0.93	0.002
1	3.0511	0.925	0.002
1	3.5001	0.918	0.002
1	3.8938	0.912	0.002
1	4.2887	0.907	0.002
1	4.7829	0.899	0.002
2	0.1997	0.931	0.002
2	0.5994	0.926	0.002
2	0.9995	0.919	0.002
2	1.4028	0.914	0.002
2	1.7981	0.908	0.002
2	2.2009	0.901	0.002
2	2.6069	0.896	0.002
2	2.9959	0.891	0.002
2	3.3833	0.884	0.002
2	3.7923	0.878	0.002
2	4.2088	0.872	0.002
2	4.6998	0.864	0.002
2	5.2113	0.857	0.002
3.5	0.3995	0.878	0.002
3.5	0.7986	0.873	0.002
3.5	1.1981	0.866	0.002
3.5	1.5992	0.86	0.002
3.5	2.0055	0.854	0.002
3.5	2.3782	0.848	0.002
3.5	2.8098	0.843	0.002
3.5	3.2024	0.836	0.002
3.5	3.6066	0.832	0.002
3.5	4.0062	0.826	0.002
3.5	4.3992	0.821	0.002
3.5	4.7857	0.815	0.002
3.5	5.2139	0.809	0.002
3.5	5.6114	0.805	0.002
5	0.1994	0.83	0.002
5	0.5984	0.824	0.002
5	0.9975	0.818	0.002
5	1.4023	0.811	0.002
5	1.8069	0.805	0.002
5	2.2025	0.799	0.002
5	2.6037	0.793	0.002
5	2.9998	0.788	0.002
5	3.3962	0.783	0.002
5	3.786	0.778	0.002
5	4.1868	0.772	0.002
5	4.5913	0.767	0.002
5	4.9543	0.762	0.002
5	5.3816	0.758	0.002
5	5.6957	0.754	0.002
