Measured thermophysical data. Isobaric Vapor-Liquid Equilibria for Water + Acetic Acid + 1- Ethyl-3-methylimidazolium Diethylphosphate at 101.32 kPa
Source: J. Chem. Eng. Data, 2014, 10.1021/je400282h
Compound 1: 1-ethyl-3-methylimidazolium diethyl phosphate, C10H21N2O4P, InChI=1S/C6H11N2.C4H11O4P/c1-3-8-5-4-7(2)6-8;1-3-7-9(5,6)8-4-2/h4-6H,3H2,1-2H3;3-4H2,1-2H3,(H,5,6)/q+1;/p-1, purity 99%
Compound 2: acetic acid, C2H4O2, InChI=1S/C2H4O2/c1-2(3)4/h1H3,(H,3,4), purity 99.8%
Compound 3: water, H2O, InChI=1S/H2O/h1H2

System: acetic acid; phases: Liquid, Gas
Property: Vapor or sublimation pressure, kPa (Liquid); method: Ebulliometric method (Recirculating still)
Temperature, K	Vapor or sublimation pressure, kPa	uncertainty
391.03	101.32	0.46

System: water; phases: Liquid, Gas
Property: Vapor or sublimation pressure, kPa (Liquid); method: Ebulliometric method (Recirculating still)
Temperature, K	Vapor or sublimation pressure, kPa	uncertainty
373.15	101.32	0.46

System: acetic acid + water; phases: Liquid, Gas
Fixed: Pressure, kPa = 101.32
Property: Boiling temperature at pressure P, K (Liquid); method: Ebulliometric method (Recirculating still)
Mole fraction of water	Boiling temperature at pressure P, K	uncertainty
0	391.03	0.09
0.141	385.52	0.11
0.303	380.97	0.1
0.452	378.12	0.09
0.609	376.19	0.09
0.695	375.34	0.09
0.81	374.21	0.09
0.9	373.65	0.09
1	373.15	0.09

System: acetic acid + water; phases: Gas, Liquid
Fixed: Pressure, kPa = 101.32
Property: Mole fraction of water (Gas); method: Chromatography
Mole fraction of water	Mole fraction of water	uncertainty
0	0	
0.141	0.24	0.004
0.303	0.454	0.005
0.452	0.608	0.004
0.609	0.732	0.003
0.695	0.797	0.003
0.81	0.877	0.003
0.9	0.935	0.003
1	1	

System: water + 1-ethyl-3-methylimidazolium diethyl phosphate; phases: Liquid, Gas
Fixed: Pressure, kPa = 101.32
Property: Boiling temperature at pressure P, K (Liquid); method: Ebulliometric method (Recirculating still)
Mole fraction of 1-ethyl-3-methylimidazolium diethyl phosphate	Boiling temperature at pressure P, K	uncertainty
0	373.15	0.09
0.004	373.33	0.13
0.008	373.52	0.13
0.012	373.72	0.14
0.017	374.02	0.14
0.023	374.32	0.17
0.029	374.9	0.2
0.037	375.62	0.2
0.046	376.46	0.24
0.057	377.81	0.27
0.068	379.27	0.29
0.082	381.23	0.3
0.1	383.87	0.37
0.113	386.86	0.47
0.053	376.61	0.3
0.028	374.75	0.3
0.012	373.7	0.3

System: acetic acid + 1-ethyl-3-methylimidazolium diethyl phosphate; phases: Liquid, Gas
Fixed: Pressure, kPa = 101.32
Property: Boiling temperature at pressure P, K (Liquid); method: Ebulliometric method (Recirculating still)
Mole fraction of 1-ethyl-3-methylimidazolium diethyl phosphate	Boiling temperature at pressure P, K	uncertainty
0	391.03	0.09
0.012	391.9	0.17
0.025	392.9	0.2
0.039	394.37	0.26
0.055	396.55	0.29
0.072	398.98	0.33
0.091	402.27	0.38
0.112	406.32	0.41
0.134	410.95	0.41
0.157	415.4	0.44
0.185	421.85	0.47
0.157	415.4	0.3
0.089	402.27	0.3
0.039	393.55	0.3

System: acetic acid + water + 1-ethyl-3-methylimidazolium diethyl phosphate; phases: Liquid, Gas
Fixed: Pressure, kPa = 101.32
Property: Mole fraction of acetic acid (Liquid); method: Chromatography
Property: Mole fraction of acetic acid (Gas); method: Chromatography
Property: Mole fraction of water (Gas); method: Chromatography
Temperature, K	Mole fraction of water	Mole fraction of acetic acid	uncertainty	Mole fraction of acetic acid	uncertainty	Mole fraction of water	uncertainty
376.61	0.947	0		0		1	
376.97	0.879	0.061	0.002	0.012	0.002	0.988	
377.11	0.842	0.093	0.002	0.023	0.002	0.977	
377.86	0.773	0.155	0.002	0.041	0.002	0.959	
379.83	0.636	0.277	0.003	0.087	0.002	0.913	
383.08	0.472	0.423	0.004	0.167	0.003	0.833	
387.69	0.327	0.552	0.004	0.276	0.003	0.724	
392.35	0.235	0.634	0.003	0.381	0.004	0.619	
397.62	0.158	0.702	0.003	0.509	0.005	0.491	
401.43	0.114	0.742	0.003	0.606	0.004	0.394	
407.52	0.059	0.791	0.003	0.762	0.003	0.238	
414.1	0.012	0.833	0.002	0.958	0.002	0.042	
415.4	0	0.843	0.002	1		0	
374.75	0.972	0		0		1	
374.89	0.939	0.031	0.002	0.008	0.002	0.992	
375.18	0.869	0.096	0.002	0.031	0.002	0.969	
375.76	0.771	0.189	0.002	0.067	0.002	0.933	
376.44	0.7	0.254	0.003	0.099	0.002	0.901	
377.36	0.618	0.332	0.003	0.141	0.002	0.859	
378.65	0.534	0.41	0.004	0.191	0.003	0.809	
380.28	0.458	0.482	0.004	0.252	0.003	0.748	
384.57	0.304	0.626	0.003	0.413	0.004	0.587	
387.72	0.234	0.692	0.003	0.516	0.005	0.484	
390.43	0.178	0.745	0.003	0.608	0.004	0.392	
393.05	0.13	0.789	0.003	0.693	0.003	0.307	
395.21	0.094	0.823	0.002	0.767	0.003	0.233	
397.45	0.061	0.854	0.002	0.842	0.002	0.158	
399.29	0.034	0.88	0.002	0.91	0.002	0.09	
402.27	0	0.911	0.002	1		0	
373.7	0.988	0		0		1	
374.07	0.887	0.098	0.002	0.043	0.002	0.957	
375.06	0.755	0.227	0.003	0.11	0.002	0.89	
376.18	0.646	0.333	0.003	0.176	0.003	0.824	
377.13	0.556	0.421	0.004	0.242	0.003	0.758	
378.41	0.459	0.515	0.004	0.325	0.003	0.675	
380.83	0.34	0.631	0.003	0.451	0.004	0.549	
382.98	0.256	0.712	0.003	0.559	0.004	0.441	
387.19	0.133	0.832	0.002	0.755	0.003	0.245	
389.9	0.07	0.893	0.002	0.862	0.002	0.138	
392.66	0.014	0.948	0.002	0.97	0.002	0.03	
393.55	0	0.961	0.002	1		0	
