Measured thermophysical data. Isobaric Heat Capacity Measurements of Liquid Methane + Propane, Methane + Butane, and a Mixed Refrigerant by Differential Scanning Calorimetry at High Pressures and Low Temperatures
Source: J. Chem. Eng. Data, 2014, 10.1021/je4007019
Compound 1: methane, CH4, InChI=1S/CH4/h1H4, purity 99.995%
Compound 2: propane, C3H8, InChI=1S/C3H8/c1-3-2/h3H2,1-2H3, purity 99.99%
Compound 3: butane, C4H10, InChI=1S/C4H10/c1-3-4-2/h3-4H2,1-2H3, purity 99.99%

System: methane + propane; phases: Liquid
Property: Molar heat capacity at constant pressure, J/K/mol (Liquid); method: Large sample (1 g) DSC
Mole fraction of methane	Pressure, kPa	Temperature, K	Molar heat capacity at constant pressure, J/K/mol	uncertainty
0.82	5200	108.15	59.2053248416	1.4553499872
0.82	5200	118.15	59.5217052736	1.4553499872
0.82	5200	128.15	60.0490059936	1.476442016
0.82	5200	143.15	61.3567117792	1.4975340448
0.82	5200	153.15	62.8964298816	1.5397181024
0.82	5200	163.15	63.9721233504	1.5608101312
0.81	6000	108.15	57.5349325968	1.4105889864
0.81	6000	118.15	58.6035606168	1.4319615468
0.81	6000	128.15	59.0523843852	1.4533341072
0.81	6000	143.15	60.804934338	1.496079228
0.81	6000	153.15	62.5574842908	1.5388243488
0.81	6000	163.15	63.4123867068	1.5601969092
0.81	4700	108.15	59.4584630328	1.4533341072
0.81	4700	118.15	59.6935611972	1.4533341072
0.81	4700	128.15	60.4629733716	1.4747066676
0.81	4700	143.15	61.4674837104	1.496079228
0.81	4700	153.15	62.9635629384	1.5388243488
0.81	4700	163.15	63.6261123108	1.5601969092

System: methane + butane; phases: Liquid
Property: Molar heat capacity at constant pressure, J/K/mol (Liquid); method: Large sample (1 g) DSC
Mole fraction of methane	Pressure, kPa	Temperature, K	Molar heat capacity at constant pressure, J/K/mol	uncertainty
0.95	5050	148.15	62.441924127	1.524301548
0.95	5050	158.15	64.492472638	1.578740889
0.95	5050	168.15	67.904004674	1.669473124
0.95	5050	178.15	73.384231668	1.8146447
0.88	5150	118.15	61.8418284416	2.3623072256
0.88	5150	128.15	62.6011414784	2.4888593984
0.88	5150	138.15	63.487006688	2.5521354848
0.88	5150	148.15	64.9212646464	2.6786876576
0.88	5150	158.15	66.545350864	2.847423888
0.88	5150	168.15	68.3170812832	3.0794362048
0.6	5150	118.15	76.465752056	3.418933024
0.6	5150	128.15	76.367128988	3.517556092
0.6	5150	138.15	77.2547366	3.649053516
0.6	5150	148.15	77.846475008	3.846299652
0.6	5150	158.15	78.208092924	4.142168856
0.6	5150	168.15	78.339590348	4.470912416
