Measured thermophysical data. Measurements and Correlations of the Solid Liquid Equilibrium of RbCl/CsCl + [Cnmim]Cl (n = 2, 4, 6, 8) + H2O Ternary Systems at T = (288.15, 298.15, and 308.15) K
Source: J. Chem. Eng. Data, 2014, 10.1021/je4007986
Compound 1: rubidium chloride, ClRb, InChI=1S/ClH.Rb/h1H;/q;+1/p-1, purity 99.5%
Compound 2: cesium chloride, ClCs, InChI=1S/ClH.Cs/h1H;/q;+1/p-1, purity 99.5%
Compound 3: 1-ethyl-3-methylimidazolium chloride, C6H11ClN2, InChI=1S/C6H11N2.ClH/c1-3-8-5-4-7(2)6-8;/h4-6H,3H2,1-2H3;1H/q+1;/p-1, purity 99%
Compound 4: 1-butyl-3-methylimidazolium chloride, C8H15ClN2, InChI=1S/C8H15N2.ClH/c1-3-4-5-10-7-6-9(2)8-10;/h6-8H,3-5H2,1-2H3;1H/q+1;/p-1, purity 99%
Compound 5: 1-hexyl-3-methylimidazolium chloride, C10H19ClN2, InChI=1S/C10H19N2.ClH/c1-3-4-5-6-7-12-9-8-11(2)10-12;/h8-10H,3-7H2,1-2H3;1H/q+1;/p-1, purity 99%
Compound 6: 1-methyl-3-octylimidazolium chloride, C12H23ClN2, InChI=1S/C12H23N2.ClH/c1-3-4-5-6-7-8-9-14-11-10-13(2)12-14;/h10-12H,3-9H2,1-2H3;1H/q+1;/p-1, purity 99%
Compound 7: water, H2O, InChI=1S/H2O/h1H2

System: water + rubidium chloride + 1-ethyl-3-methylimidazolium chloride; phases: Liquid, Crystal
Fixed: Pressure, kPa = 101
Property: Mass fraction of rubidium chloride (Liquid); method: Index of refraction calibration data
Temperature, K	Mass fraction of 1-ethyl-3-methylimidazolium chloride	Mass fraction of rubidium chloride	uncertainty
288.15	0	0.4681	0.0014
288.15	0.0688	0.407	0.0017
288.15	0.1373	0.3285	0.0016
288.15	0.2198	0.2613	0.0014
288.15	0.3189	0.1774	0.0013
288.15	0.4334	0.0983	0.0012
288.15	0.5546	0.0411	0.0011
288.15	0.6639	0.0097	0.001
288.15	0.7632	0.0023	0.001
298.15	0	0.4858	0.0014
298.15	0.0572	0.4268	0.0017
298.15	0.1305	0.3518	0.0016
298.15	0.2161	0.2701	0.0015
298.15	0.3164	0.1879	0.0013
298.15	0.4253	0.1098	0.0012
298.15	0.5471	0.0507	0.0011
298.15	0.6667	0.0121	0.001
298.15	0.7686	0.0031	0.001
308.15	0	0.5035	0.0015
308.15	0.0644	0.4376	0.0017
308.15	0.1307	0.3702	0.0016
308.15	0.2115	0.2931	0.0015
308.15	0.3113	0.2139	0.0013
308.15	0.4251	0.1275	0.0012
308.15	0.5461	0.0633	0.0011
308.15	0.6717	0.0137	0.001
308.15	0.7622	0.0045	0.001

System: water + rubidium chloride + 1-ethyl-3-methylimidazolium chloride; phases: Liquid
Fixed: Pressure, kPa = 101
Property: Mass density, kg/m3 (Liquid); method: Vibrating tube method
Temperature, K	Mass fraction of 1-ethyl-3-methylimidazolium chloride	Mass fraction of rubidium chloride	Mass density, kg/m3	uncertainty
288.15	0	0.4681	1480.46	0.3
288.15	0.0688	0.407	1412.88	0.88
288.15	0.1373	0.3285	1342.58	0.71
288.15	0.2198	0.2613	1271.84	0.89
288.15	0.3189	0.1774	1206.76	1.07
288.15	0.4334	0.0983	1150.03	1.18
288.15	0.5546	0.0411	1119.87	1.43
288.15	0.6639	0.0097	1120.16	0.92
288.15	0.7632	0.0023	1131.15	0.78
298.15	0	0.4858	1496.52	0.31
298.15	0.0572	0.4268	1428.33	1.08
298.15	0.1305	0.3518	1356.13	1.05
298.15	0.2161	0.2701	1283.85	1.01
298.15	0.3164	0.1879	1214.59	1.05
298.15	0.4253	0.1098	1155.47	1.02
298.15	0.5471	0.0507	1120.39	0.88
298.15	0.6667	0.0121	1115.32	0.97
298.15	0.7686	0.0031	1125.65	2.72
308.15	0	0.5035	1517.55	0.32
308.15	0.0644	0.4376	1443.78	2.37
308.15	0.1307	0.3702	1369.68	3.96
308.15	0.2115	0.2931	1295.86	1.14
308.15	0.3113	0.2139	1222.42	6.85
308.15	0.4251	0.1275	1160.91	0.95
308.15	0.5461	0.0633	1120.91	1.92
308.15	0.6717	0.0137	1110.11	0.98
308.15	0.7622	0.0045	1120.15	2.2
298.15	0.0117	0	998.54	0.59
298.15	0.0234	0	999.88	0.6
298.15	0.0351	0	1001.24	0.6
298.15	0.0471	0	1002.62	0.22
298.15	0.0589	0	1004.01	0.23
298.15	0.0708	0	1005.45	0.22
298.15	0.0822	0	1006.79	0.23
298.15	0.0941	0	1008.12	0.22
298.15	0.1061	0	1009.76	0.22
298.15	0.1171	0	1011.04	0.23
298.15	0.0119	0.03	1021.31	0.81
298.15	0.0235	0.03	1022.47	0.81
298.15	0.0353	0.03	1023.84	0.8
298.15	0.0472	0.03	1025.79	0.81
298.15	0.0589	0.03	1026.92	0.81
298.15	0.0707	0.03	1028.42	0.81
298.15	0.0824	0.03	1029.44	0.81
298.15	0.0942	0.03	1031.71	0.81
298.15	0.106	0.03	1033.1	0.81
298.15	0.1179	0.03	1034.16	0.81
298.15	0.0119	0.06	1044.96	0.82
298.15	0.0235	0.06	1046.33	0.82
298.15	0.0353	0.06	1047.27	0.82
298.15	0.0472	0.06	1049.18	0.81
298.15	0.0587	0.06	1051	0.82
298.15	0.0706	0.06	1052.03	0.82
298.15	0.0825	0.06	1053.75	0.83
298.15	0.0943	0.06	1054.62	0.8
298.15	0.106	0.06	1056.18	0.8
298.15	0.1178	0.06	1058.03	0.83

System: water + rubidium chloride + 1-ethyl-3-methylimidazolium chloride; phases: Liquid
Fixed: Pressure, kPa = 101
Property: Refractive index (Na D-line) (Liquid); method: Standard Abbe refractometry
Temperature, K	Mass fraction of 1-ethyl-3-methylimidazolium chloride	Mass fraction of rubidium chloride	Refractive index (Na D-line)	uncertainty
288.15	0	0.4681	1.38745	0.00033
288.15	0.0688	0.407	1.39321	0.00036
288.15	0.1373	0.3285	1.39971	0.00034
288.15	0.2198	0.2613	1.40817	0.00034
288.15	0.3189	0.1774	1.41937	0.00039
288.15	0.4334	0.0983	1.43333	0.00045
288.15	0.5546	0.0411	1.45228	0.00053
288.15	0.6639	0.0097	1.47362	0.00062
288.15	0.7632	0.0023	1.4979	0.00069
298.15	0	0.4858	1.38846	0.00033
298.15	0.0572	0.4268	1.39338	0.00042
298.15	0.1305	0.3518	1.39959	0.00046
298.15	0.2161	0.2701	1.40771	0.00044
298.15	0.3164	0.1879	1.41827	0.00048
298.15	0.4253	0.1098	1.43208	0.00047
298.15	0.5471	0.0507	1.45001	0.00051
298.15	0.6667	0.0121	1.47088	0.00063
298.15	0.7686	0.0031	1.49501	0.00635
308.15	0	0.5035	1.38941	0.00033
308.15	0.0644	0.4376	1.39355	0.00074
308.15	0.1307	0.3702	1.39947	0.00045
308.15	0.2115	0.2931	1.40725	0.00034
308.15	0.3113	0.2139	1.41717	0.00164
308.15	0.4251	0.1275	1.43083	0.00047
308.15	0.5461	0.0633	1.44772	0.00061
308.15	0.6717	0.0137	1.46814	0.0007
308.15	0.7622	0.0045	1.49212	0.00524
298.15	0.0117	0	1.33452	0.00105
298.15	0.0234	0	1.3365	0.00116
298.15	0.0351	0	1.33844	0.00114
298.15	0.0471	0	1.34042	0.00164
298.15	0.0589	0	1.34236	0.00156
298.15	0.0708	0	1.34442	0.00153
298.15	0.0822	0	1.34628	0.00178
298.15	0.0941	0	1.34816	0.00126
298.15	0.1061	0	1.35038	0.00121
298.15	0.1171	0	1.35212	0.00161
298.15	0.0119	0.03	1.33744	0.00184
298.15	0.0235	0.03	1.33931	0.00176
298.15	0.0353	0.03	1.34129	0.00141
298.15	0.0472	0.03	1.34351	0.00142
298.15	0.0589	0.03	1.34543	0.00157
298.15	0.0707	0.03	1.34747	0.00164
298.15	0.0824	0.03	1.34928	0.00118
298.15	0.0942	0.03	1.35175	0.00102
298.15	0.106	0.03	1.35378	0.00166
298.15	0.1179	0.03	1.35556	0.00177
298.15	0.0119	0.06	1.34029	0.00154
298.15	0.0235	0.06	1.34229	0.00163
298.15	0.0353	0.06	1.34423	0.00148
298.15	0.0472	0.06	1.34638	0.00143
298.15	0.0587	0.06	1.34837	0.00125
298.15	0.0706	0.06	1.35062	0.00122
298.15	0.0825	0.06	1.35269	0.00151
298.15	0.0943	0.06	1.35454	0.00166
298.15	0.106	0.06	1.3566	0.00127
298.15	0.1178	0.06	1.35888	0.00094

System: water + rubidium chloride + 1-butyl-3-methylimidazolium chloride; phases: Liquid, Crystal
Fixed: Pressure, kPa = 101
Property: Mass fraction of rubidium chloride (Liquid); method: Index of refraction calibration data
Temperature, K	Mass fraction of 1-butyl-3-methylimidazolium chloride	Mass fraction of rubidium chloride	uncertainty
288.15	0.076	0.4019	0.0016
288.15	0.1459	0.3356	0.0015
288.15	0.2297	0.2659	0.0014
288.15	0.3278	0.1866	0.0013
288.15	0.4455	0.1106	0.0012
288.15	0.569	0.0493	0.0011
288.15	0.6838	0.0134	0.001
288.15	0.7918	0.0035	0.001
298.15	0.0571	0.4287	0.0017
298.15	0.1285	0.3576	0.0015
298.15	0.217	0.2874	0.0014
298.15	0.3168	0.207	0.0013
298.15	0.4432	0.1137	0.0012
298.15	0.5634	0.0599	0.0011
298.15	0.6894	0.0154	0.001
298.15	0.8001	0.0043	0.001
308.15	0.0478	0.4494	0.0017
308.15	0.1183	0.3826	0.0016
308.15	0.1935	0.3119	0.0015
308.15	0.3093	0.2235	0.0013
308.15	0.4408	0.1275	0.0012
308.15	0.5659	0.0705	0.0011
308.15	0.6951	0.0174	0.001
308.15	0.7758	0.0076	0.001

System: water + rubidium chloride + 1-butyl-3-methylimidazolium chloride; phases: Liquid
Fixed: Pressure, kPa = 101
Property: Mass density, kg/m3 (Liquid); method: Vibrating tube method
Temperature, K	Mass fraction of 1-butyl-3-methylimidazolium chloride	Mass fraction of rubidium chloride	Mass density, kg/m3	uncertainty
288.15	0.076	0.4019	1401.16	0.98
288.15	0.1459	0.3356	1335.13	1.35
288.15	0.2297	0.2659	1268.72	4.56
288.15	0.3278	0.1866	1199.83	1.62
288.15	0.4455	0.1106	1146.24	0.66
288.15	0.569	0.0493	1101.68	1.2
288.15	0.6838	0.0134	1084.88	0.85
288.15	0.7918	0.0035	1085.19	1.06
298.15	0.0571	0.4287	1428.98	2.43
298.15	0.1285	0.3576	1357.46	1.04
298.15	0.217	0.2874	1285.11	1.04
298.15	0.3168	0.207	1215.35	1.08
298.15	0.4432	0.1137	1151.38	0.94
298.15	0.5634	0.0599	1103.34	0.98
298.15	0.6894	0.0154	1080.76	0.86
298.15	0.8001	0.0043	1079.2	0.64
308.15	0.0478	0.4494	1454.59	1.06
308.15	0.1183	0.3826	1376.37	3.46
308.15	0.1935	0.3119	1312.39	0.82
308.15	0.3093	0.2235	1229.83	1.29
308.15	0.4408	0.1275	1156.52	0.54
308.15	0.5659	0.0705	1102.5	1.93
308.15	0.6951	0.0174	1076.64	0.58
308.15	0.7758	0.0076	1073.21	0.98
298.15	0.0119	0	998.01	0.58
298.15	0.0236	0	998.85	0.49
298.15	0.0354	0	999.49	0.45
298.15	0.0473	0	1000.69	0.45
298.15	0.0591	0	1001.65	0.46
298.15	0.0709	0	1002.62	0.45
298.15	0.0827	0	1003.62	0.44
298.15	0.0945	0	1004.61	0.45
298.15	0.1063	0	1005.64	0.18
298.15	0.1182	0	1006.72	0.18
298.15	0.0119	0.03	1018.26	0.88
298.15	0.0236	0.03	1020.54	0.88
298.15	0.0354	0.03	1022.13	0.88
298.15	0.0473	0.03	1023.09	0.79
298.15	0.0591	0.03	1024.02	0.79
298.15	0.0709	0.03	1025.05	0.79
298.15	0.0827	0.03	1026.19	0.79
298.15	0.0945	0.03	1027.12	0.79
298.15	0.1063	0.03	1028.14	0.79
298.15	0.1182	0.03	1029.32	0.79
298.15	0.0118	0.06	1042.84	0.84
298.15	0.0237	0.06	1044.38	0.81
298.15	0.0355	0.06	1045.5	0.8
298.15	0.0474	0.06	1046.39	0.8
298.15	0.059	0.06	1047.28	0.8
298.15	0.0709	0.06	1048.32	0.8
298.15	0.0827	0.06	1049.32	0.8
298.15	0.0945	0.06	1050.52	0.8
298.15	0.1065	0.06	1051.51	0.81
298.15	0.1183	0.06	1052.73	0.8

System: water + rubidium chloride + 1-butyl-3-methylimidazolium chloride; phases: Liquid
Fixed: Pressure, kPa = 101
Property: Refractive index (Na D-line) (Liquid); method: Standard Abbe refractometry
Temperature, K	Mass fraction of 1-butyl-3-methylimidazolium chloride	Mass fraction of rubidium chloride	Refractive index (Na D-line)	uncertainty
288.15	0.076	0.4019	1.39344	0.00041
288.15	0.1459	0.3356	1.40081	0.00039
288.15	0.2297	0.2659	1.40892	0.00088
288.15	0.3278	0.1866	1.41954	0.00035
288.15	0.4455	0.1106	1.43291	0.00042
288.15	0.569	0.0493	1.44928	0.0005
288.15	0.6838	0.0134	1.46813	0.00051
288.15	0.7918	0.0035	1.48684	0.00058
298.15	0.0571	0.4287	1.39375	0.00062
298.15	0.1285	0.3576	1.40059	0.0004
298.15	0.217	0.2874	1.40886	0.0004
298.15	0.3168	0.207	1.41915	0.00038
298.15	0.4432	0.1137	1.43183	0.00045
298.15	0.5634	0.0599	1.44739	0.00052
298.15	0.6894	0.0154	1.46618	0.00051
298.15	0.8001	0.0043	1.48472	0.00264
308.15	0.0478	0.4494	1.39406	0.00039
308.15	0.1183	0.3826	1.40037	0.00036
308.15	0.1935	0.3119	1.4084	0.00041
308.15	0.3093	0.2235	1.41876	0.00042
308.15	0.4408	0.1275	1.43075	0.00043
308.15	0.5659	0.0705	1.4455	0.00073
308.15	0.6951	0.0174	1.46423	0.00054
308.15	0.7758	0.0076	1.47915	0.0018
298.15	0.0119	0	1.33458	0.00106
298.15	0.0236	0	1.33648	0.00112
298.15	0.0354	0	1.33844	0.00103
298.15	0.0473	0	1.34041	0.00098
298.15	0.0591	0	1.34243	0.001
298.15	0.0709	0	1.34443	0.00084
298.15	0.0827	0	1.34648	0.00077
298.15	0.0945	0	1.34847	0.00077
298.15	0.1063	0	1.35061	0.00122
298.15	0.1182	0	1.35261	0.00137
298.15	0.0119	0.03	1.33745	0.00113
298.15	0.0236	0.03	1.33931	0.00106
298.15	0.0354	0.03	1.34132	0.00101
298.15	0.0473	0.03	1.34335	0.00139
298.15	0.0591	0.03	1.34532	0.00119
298.15	0.0709	0.03	1.34747	0.0011
298.15	0.0827	0.03	1.34954	0.00116
298.15	0.0945	0.03	1.35161	0.00112
298.15	0.1063	0.03	1.35367	0.00104
298.15	0.1182	0.03	1.35588	0.00094
298.15	0.0118	0.06	1.34021	0.00147
298.15	0.0237	0.06	1.34222	0.0014
298.15	0.0355	0.06	1.34423	0.00124
298.15	0.0474	0.06	1.34636	0.00102
298.15	0.059	0.06	1.3485	0.00114
298.15	0.0709	0.06	1.35048	0.00122
298.15	0.0827	0.06	1.3526	0.00099
298.15	0.0945	0.06	1.35479	0.00104
298.15	0.1065	0.06	1.35687	0.00101
298.15	0.1183	0.06	1.35906	0.00091

System: water + rubidium chloride + 1-hexyl-3-methylimidazolium chloride; phases: Liquid, Crystal
Fixed: Pressure, kPa = 101
Property: Mass fraction of rubidium chloride (Liquid); method: Index of refraction calibration data
Temperature, K	Mass fraction of 1-hexyl-3-methylimidazolium chloride	Mass fraction of rubidium chloride	uncertainty
288.15	0.0642	0.411	0.0016
288.15	0.1326	0.3561	0.0015
288.15	0.2101	0.2974	0.0014
288.15	0.3066	0.2242	0.0013
288.15	0.4165	0.1513	0.0012
288.15	0.5423	0.0769	0.0011
288.15	0.6639	0.0249	0.0011
288.15	0.7737	0.0051	0.001
298.15	0.0564	0.437	0.0017
298.15	0.1262	0.3693	0.0015
298.15	0.2084	0.3056	0.0014
298.15	0.3074	0.2319	0.0013
298.15	0.4182	0.1507	0.0012
298.15	0.5457	0.0803	0.0011
298.15	0.6784	0.0309	0.001
298.15	0.8003	0.0047	0.001
308.15	0.0609	0.4435	0.0017
308.15	0.1162	0.3903	0.0016
308.15	0.2057	0.3156	0.0015
308.15	0.2999	0.2419	0.0013
308.15	0.4274	0.1586	0.0012
308.15	0.5574	0.0863	0.0011
308.15	0.6597	0.0359	0.0011
308.15	0.7737	0.0081	0.001

System: water + rubidium chloride + 1-hexyl-3-methylimidazolium chloride; phases: Liquid
Fixed: Pressure, kPa = 101
Property: Mass density, kg/m3 (Liquid); method: Vibrating tube method
Temperature, K	Mass fraction of 1-hexyl-3-methylimidazolium chloride	Mass fraction of rubidium chloride	Mass density, kg/m3	uncertainty
288.15	0.0642	0.411	1421.58	1.03
288.15	0.1326	0.3561	1354.14	3.46
288.15	0.2101	0.2974	1288.6	0.88
288.15	0.3066	0.2242	1213.52	2.92
288.15	0.4165	0.1513	1155.65	1.49
288.15	0.5423	0.0769	1102.25	0.76
288.15	0.6639	0.0249	1065.41	0.67
288.15	0.7737	0.0051	1049.61	0.7
298.15	0.0564	0.437	1441.43	1.31
298.15	0.1262	0.3693	1366.33	1.05
298.15	0.2084	0.3056	1295.75	1.01
298.15	0.3074	0.2319	1220.36	0.94
298.15	0.4182	0.1507	1159.96	0.92
298.15	0.5457	0.0803	1103.07	0.99
298.15	0.6784	0.0309	1063.18	0.98
298.15	0.8003	0.0047	1042.05	1.05
308.15	0.0609	0.4435	1445.28	1.24
308.15	0.1162	0.3903	1378.52	2.77
308.15	0.2057	0.3156	1302.9	0.84
308.15	0.2999	0.2419	1227.2	2.64
308.15	0.4274	0.1586	1164.27	0.46
308.15	0.5574	0.0863	1103.89	0.81
308.15	0.6597	0.0359	1060.95	0.85
308.15	0.7737	0.0081	1036.73	0.84
298.15	0.0168	0	998.06	0.53
298.15	0.0339	0	998.85	0.52
298.15	0.0509	0	999.77	0.53
298.15	0.0678	0	1000.65	0.52
298.15	0.0848	0	1001.66	0.52
298.15	0.1018	0	1002.5	0.53
298.15	0.1186	0	1003.65	0.52
298.15	0.1356	0	1004.6	0.16
298.15	0.1526	0	1005.64	0.16
298.15	0.1695	0	1006.59	0.16
298.15	0.0169	0.03	1020.31	0.91
298.15	0.0339	0.03	1021.2	0.91
298.15	0.051	0.03	1022.04	0.91
298.15	0.0679	0.03	1023.01	0.91
298.15	0.0839	0.03	1023.97	0.91
298.15	0.1017	0.03	1024.91	0.78
298.15	0.1187	0.03	1025.97	0.77
298.15	0.1356	0.03	1026.99	0.77
298.15	0.162	0.03	1028.39	0.77
298.15	0.1695	0.03	1028.85	0.77
298.15	0.0168	0.06	1043.3	0.91
298.15	0.0342	0.06	1044.2	0.91
298.15	0.0509	0.06	1045.15	0.79
298.15	0.0679	0.06	1046.2	0.79
298.15	0.0841	0.06	1046.7	0.79
298.15	0.1017	0.06	1048.24	0.78
298.15	0.1187	0.06	1049.06	0.79
298.15	0.1356	0.06	1050.12	0.79
298.15	0.1526	0.06	1051.12	0.79
298.15	0.1697	0.06	1052	0.79

System: water + rubidium chloride + 1-hexyl-3-methylimidazolium chloride; phases: Liquid
Fixed: Pressure, kPa = 101
Property: Refractive index (Na D-line) (Liquid); method: Standard Abbe refractometry
Temperature, K	Mass fraction of 1-hexyl-3-methylimidazolium chloride	Mass fraction of rubidium chloride	Refractive index (Na D-line)	uncertainty
288.15	0.0642	0.411	1.3929	0.00042
288.15	0.1326	0.3561	1.40002	0.00059
288.15	0.2101	0.2974	1.40924	0.00037
288.15	0.3066	0.2242	1.419	0.00042
288.15	0.4165	0.1513	1.42857	0.00073
288.15	0.5423	0.0769	1.44408	0.00051
288.15	0.6639	0.0249	1.46301	0.00061
288.15	0.7737	0.0051	1.47741	0.00055
298.15	0.0564	0.437	1.39467	0.00036
298.15	0.1262	0.3693	1.40154	0.00042
298.15	0.2084	0.3056	1.41041	0.00041
298.15	0.3074	0.2319	1.42008	0.00041
298.15	0.4182	0.1507	1.42938	0.00041
298.15	0.5457	0.0803	1.44336	0.0005
298.15	0.6784	0.0309	1.4592	0.00061
298.15	0.8003	0.0047	1.47679	0.00051
308.15	0.0609	0.4435	1.39574	0.00035
308.15	0.1162	0.3903	1.40276	0.00058
308.15	0.2057	0.3156	1.41158	0.00037
308.15	0.2999	0.2419	1.42116	0.0005
308.15	0.4274	0.1586	1.43019	0.00059
308.15	0.5574	0.0863	1.44265	0.00062
308.15	0.6597	0.0359	1.45513	0.00042
308.15	0.7737	0.0081	1.47176	0.00042
298.15	0.0168	0	1.33539	0.00111
298.15	0.0339	0	1.33829	0.0011
298.15	0.0509	0	1.34112	0.00106
298.15	0.0678	0	1.34402	0.00098
298.15	0.0848	0	1.34687	0.00071
298.15	0.1018	0	1.34978	0.00086
298.15	0.1186	0	1.35277	0.00076
298.15	0.1356	0	1.35557	0.00094
298.15	0.1526	0	1.35856	0.00085
298.15	0.1695	0	1.36149	0.00087
298.15	0.0169	0.03	1.33825	0.00112
298.15	0.0339	0.03	1.34113	0.00109
298.15	0.051	0.03	1.34405	0.00099
298.15	0.0679	0.03	1.34696	0.00093
298.15	0.0839	0.03	1.3499	0.00086
298.15	0.1017	0.03	1.35285	0.00098
298.15	0.1187	0.03	1.35584	0.0008
298.15	0.1356	0.03	1.35888	0.00084
298.15	0.162	0.03	1.36341	0.00084
298.15	0.1695	0.03	1.36472	0.00067
298.15	0.0168	0.06	1.34107	0.00111
298.15	0.0342	0.06	1.34406	0.00103
298.15	0.0509	0.06	1.347	0.00111
298.15	0.0679	0.06	1.35002	0.00108
298.15	0.0841	0.06	1.35286	0.00104
298.15	0.1017	0.06	1.35611	0.00075
298.15	0.1187	0.06	1.35905	0.0008
298.15	0.1356	0.06	1.36209	0.00058
298.15	0.1526	0.06	1.36534	0.00072
298.15	0.1697	0.06	1.36814	0.00104

System: water + rubidium chloride + 1-methyl-3-octylimidazolium chloride; phases: Liquid, Crystal
Fixed: Pressure, kPa = 101
Property: Mass fraction of rubidium chloride (Liquid); method: Index of refraction calibration data
Temperature, K	Mass fraction of 1-methyl-3-octylimidazolium chloride	Mass fraction of rubidium chloride	uncertainty
288.15	0.0653	0.4152	0.0015
288.15	0.1311	0.3667	0.0015
288.15	0.2067	0.3097	0.0014
288.15	0.3071	0.2309	0.0013
288.15	0.4156	0.1592	0.0012
288.15	0.5436	0.0864	0.0011
288.15	0.6635	0.0329	0.0011
288.15	0.7737	0.0077	0.001
298.15	0.0556	0.4395	0.0016
298.15	0.1262	0.3811	0.0015
298.15	0.2049	0.3195	0.0014
298.15	0.3022	0.2467	0.0013
298.15	0.412	0.1697	0.0012
298.15	0.5387	0.0949	0.0011
298.15	0.6653	0.0415	0.0011
298.15	0.7756	0.0082	0.001
308.15	0.0512	0.4556	0.0016
308.15	0.1149	0.4044	0.0016
308.15	0.1959	0.3326	0.0015
308.15	0.2943	0.2598	0.0013
308.15	0.421	0.1792	0.0012
308.15	0.5527	0.1007	0.0012
308.15	0.6537	0.0498	0.0011
308.15	0.7607	0.0108	0.0011

System: water + rubidium chloride + 1-methyl-3-octylimidazolium chloride; phases: Liquid
Fixed: Pressure, kPa = 101
Property: Mass density, kg/m3 (Liquid); method: Vibrating tube method
Temperature, K	Mass fraction of 1-methyl-3-octylimidazolium chloride	Mass fraction of rubidium chloride	Mass density, kg/m3	uncertainty
288.15	0.0653	0.4152	1424.04	1.06
288.15	0.1311	0.3667	1356.95	1.05
288.15	0.2067	0.3097	1297.14	0.83
288.15	0.3071	0.2309	1229.18	0.66
288.15	0.4156	0.1592	1163.64	0.75
288.15	0.5436	0.0864	1094.8	0.84
288.15	0.6635	0.0329	1042.3	1.17
288.15	0.7737	0.0077	1021.68	1.09
298.15	0.0556	0.4395	1445.44	1.91
298.15	0.1262	0.3811	1376.93	1.06
298.15	0.2049	0.3195	1305.65	1.02
298.15	0.3022	0.2467	1236.19	0.79
298.15	0.412	0.1697	1167.81	0.98
298.15	0.5387	0.0949	1101.89	1.01
298.15	0.6653	0.0415	1043.87	1.08
298.15	0.7756	0.0082	1016.08	1.18
308.15	0.0512	0.4556	1454.76	0.99
308.15	0.1149	0.4044	1394.71	0.98
308.15	0.1959	0.3326	1318.16	1.6
308.15	0.2943	0.2598	1247.2	1.39
308.15	0.421	0.1792	1173.56	0.72
308.15	0.5527	0.1007	1100.58	1.07
308.15	0.6537	0.0498	1039.36	2.55
308.15	0.7607	0.0108	1011.28	2.55
298.15	0.0087	0	997.27	0.53
298.15	0.0173	0	997.52	0.53
298.15	0.026	0	997.76	0.53
298.15	0.0347	0	998.01	0.53
298.15	0.0433	0	998.22	0.53
298.15	0.0521	0	998.46	0.54
298.15	0.0607	0	998.65	0.54
298.15	0.0694	0	998.84	0.55
298.15	0.078	0	998.98	0.55
298.15	0.0867	0	999.1	0.55
298.15	0.0087	0.03	1019.56	0.91
298.15	0.0173	0.03	1019.79	0.91
298.15	0.026	0.03	1020.01	0.91
298.15	0.0348	0.03	1020.26	0.91
298.15	0.0434	0.03	1020.43	0.91
298.15	0.052	0.03	1020.6	0.91
298.15	0.0607	0.03	1020.71	0.91
298.15	0.0696	0.03	1020.83	0.91
298.15	0.0781	0.03	1020.92	0.91
298.15	0.0868	0.03	1021	0.92
298.15	0.0087	0.06	1042.65	0.91
298.15	0.0175	0.06	1042.85	0.91
298.15	0.026	0.06	1043.02	0.91
298.15	0.0347	0.06	1043.29	0.91
298.15	0.0434	0.06	1043.51	0.91
298.15	0.0521	0.06	1043.73	0.81
298.15	0.0607	0.06	1043.95	0.81
298.15	0.0694	0.06	1044.13	0.81
298.15	0.0781	0.06	1044.3	0.81
298.15	0.0867	0.06	1044.5	0.82

System: water + rubidium chloride + 1-methyl-3-octylimidazolium chloride; phases: Liquid
Fixed: Pressure, kPa = 101
Property: Refractive index (Na D-line) (Liquid); method: Standard Abbe refractometry
Temperature, K	Mass fraction of 1-methyl-3-octylimidazolium chloride	Mass fraction of rubidium chloride	Refractive index (Na D-line)	uncertainty
288.15	0.0653	0.4152	1.39358	0.00042
288.15	0.1311	0.3667	1.40112	0.00038
288.15	0.2067	0.3097	1.40991	0.00035
288.15	0.3071	0.2309	1.41887	0.00035
288.15	0.4156	0.1592	1.42895	0.00034
288.15	0.5436	0.0864	1.44068	0.00046
288.15	0.6635	0.0329	1.45474	0.00055
288.15	0.7737	0.0077	1.47294	0.00051
298.15	0.0556	0.4395	1.39506	0.00039
298.15	0.1262	0.3811	1.40234	0.0004
298.15	0.2049	0.3195	1.41048	0.0004
298.15	0.3022	0.2467	1.41908	0.00035
298.15	0.412	0.1697	1.42879	0.00045
298.15	0.5387	0.0949	1.44021	0.00048
298.15	0.6653	0.0415	1.45395	0.00046
298.15	0.7756	0.0082	1.47134	0.00054
308.15	0.0512	0.4556	1.3968	0.0004
308.15	0.1149	0.4044	1.40362	0.00042
308.15	0.1959	0.3326	1.41105	0.00037
308.15	0.2943	0.2598	1.41929	0.00037
308.15	0.421	0.1792	1.42863	0.00069
308.15	0.5527	0.1007	1.43974	0.00081
308.15	0.6537	0.0498	1.45116	0.00057
308.15	0.7607	0.0108	1.46774	0.00053
298.15	0.0087	0	1.33395	0.0013
298.15	0.0173	0	1.33536	0.00132
298.15	0.026	0	1.33687	0.00118
298.15	0.0347	0	1.33837	0.00124
298.15	0.0433	0	1.33977	0.00116
298.15	0.0521	0	1.34125	0.00083
298.15	0.0607	0	1.34269	0.00105
298.15	0.0694	0	1.34418	0.00096
298.15	0.078	0	1.34559	0.00089
298.15	0.0867	0	1.34703	0.00092
298.15	0.0087	0.03	1.33668	0.00122
298.15	0.0173	0.03	1.33809	0.00111
298.15	0.026	0.03	1.33966	0.00109
298.15	0.0348	0.03	1.34112	0.00107
298.15	0.0434	0.03	1.34263	0.00109
298.15	0.052	0.03	1.34431	0.0011
298.15	0.0607	0.03	1.34561	0.00109
298.15	0.0696	0.03	1.34717	0.00104
298.15	0.0781	0.03	1.34864	0.00107
298.15	0.0868	0.03	1.35005	0.001
298.15	0.0087	0.06	1.33962	0.00102
298.15	0.0175	0.06	1.34111	0.00094
298.15	0.026	0.06	1.34261	0.00097
298.15	0.0347	0.06	1.34416	0.00098
298.15	0.0434	0.06	1.34549	0.00106
298.15	0.0521	0.06	1.34698	0.00138
298.15	0.0607	0.06	1.34844	0.00114
298.15	0.0694	0.06	1.35002	0.00131
298.15	0.0781	0.06	1.35139	0.0014
298.15	0.0867	0.06	1.35289	0.00119

System: cesium chloride + water + 1-ethyl-3-methylimidazolium chloride; phases: Liquid, Crystal
Fixed: Pressure, kPa = 101
Property: Mass fraction of cesium chloride (Liquid); method: Index of refraction calibration data
Temperature, K	Mass fraction of 1-ethyl-3-methylimidazolium chloride	Mass fraction of cesium chloride	uncertainty
288.15	0	0.6481	0.0019
288.15	0.039	0.5887	0.0018
288.15	0.0993	0.5078	0.0015
288.15	0.1711	0.4201	0.0013
288.15	0.2791	0.3132	0.0009
288.15	0.4123	0.2023	0.0006
288.15	0.5662	0.0914	0.0003
288.15	0.6831	0.0213	0.0001
288.15	0.8003	0.0041	0.0001
298.15	0	0.6551	0.002
298.15	0.0424	0.5934	0.0018
298.15	0.0988	0.5168	0.0016
298.15	0.1716	0.4274	0.0013
298.15	0.2656	0.3308	0.001
298.15	0.3968	0.2284	0.0007
298.15	0.5513	0.1064	0.0003
298.15	0.6951	0.0353	0.0001
298.15	0.8003	0.0067	0.0001
308.15	0	0.6679	0.002
308.15	0.0395	0.6026	0.0018
308.15	0.0929	0.5319	0.0016
308.15	0.1644	0.4418	0.0013
308.15	0.2622	0.3483	0.001
308.15	0.3902	0.2393	0.0007
308.15	0.5449	0.1174	0.0004
308.15	0.6875	0.0385	0.0001
308.15	0.7998	0.0072	0.0001

System: cesium chloride + water + 1-ethyl-3-methylimidazolium chloride; phases: Liquid
Fixed: Pressure, kPa = 101
Property: Mass density, kg/m3 (Liquid); method: Vibrating tube method
Temperature, K	Mass fraction of 1-ethyl-3-methylimidazolium chloride	Mass fraction of cesium chloride	Mass density, kg/m3	uncertainty
288.15	0	0.6481	1894.01	0.52
288.15	0.039	0.5887	1806.8	1.88
288.15	0.0993	0.5078	1690.93	1.24
288.15	0.1711	0.4201	1562.28	2.71
288.15	0.2791	0.3132	1429.45	1.75
288.15	0.4123	0.2023	1300.71	3.09
288.15	0.5662	0.0914	1199.65	1.16
288.15	0.6831	0.0213	1144.45	0.94
288.15	0.8003	0.0041	1137.37	1.52
298.15	0	0.6551	1920.79	0.54
298.15	0.0424	0.5934	1817.6	1.51
298.15	0.0988	0.5168	1702.03	1.47
298.15	0.1716	0.4274	1577.04	1.43
298.15	0.2656	0.3308	1444.98	1.41
298.15	0.3968	0.2284	1313.92	1.4
298.15	0.5513	0.1064	1202.8	1.21
298.15	0.6951	0.0353	1144.39	1.18
298.15	0.8003	0.0067	1132.97	0.28
308.15	0	0.6679	1946.39	0.56
308.15	0.0395	0.6026	1828.4	2.96
308.15	0.0929	0.5319	1713.13	3.2
308.15	0.1644	0.4418	1591.8	1.24
308.15	0.2622	0.3483	1460.51	2.35
308.15	0.3902	0.2393	1318.13	7.33
308.15	0.5449	0.1174	1205.95	1.3
308.15	0.6875	0.0385	1144.33	1.16
308.15	0.7998	0.0072	1128.57	0.29
298.15	0.012	0	998.38	1.74
298.15	0.024	0	999.7	1.73
298.15	0.0361	0	1001.08	1.73
298.15	0.0482	0	1002.48	1.73
298.15	0.0602	0	1003.84	1.72
298.15	0.0721	0	1005.28	1.72
298.15	0.0844	0	1006.65	1.71
298.15	0.0964	0	1008.2	0.44
298.15	0.1084	0	1009.68	0.44
298.15	0.1205	0	1011.2	0.44
298.15	0.012	0.03	1021.81	1.87
298.15	0.0243	0.03	1023.21	1.87
298.15	0.0361	0.03	1024.58	1.87
298.15	0.0482	0.03	1026.02	1.87
298.15	0.0602	0.03	1027.47	1.86
298.15	0.0723	0.03	1028.92	1.05
298.15	0.0843	0.03	1030.42	0.92
298.15	0.0963	0.03	1031.86	0.92
298.15	0.1084	0.03	1033.41	0.91
298.15	0.1204	0.03	1035.01	0.9
298.15	0.012	0.06	1046.17	1.84
298.15	0.0241	0.06	1047.59	1.05
298.15	0.0361	0.06	1048.94	1.05
298.15	0.0482	0.06	1050.47	1.05
298.15	0.0603	0.06	1052.03	1.05
298.15	0.0722	0.06	1053.43	1.05
298.15	0.0844	0.06	1055.08	1.05
298.15	0.0963	0.06	1056.64	1.05
298.15	0.1084	0.06	1058.27	1.05
298.15	0.1206	0.06	1059.85	0.93

System: cesium chloride + water + 1-ethyl-3-methylimidazolium chloride; phases: Liquid
Fixed: Pressure, kPa = 101
Property: Refractive index (Na D-line) (Liquid); method: Standard Abbe refractometry
Temperature, K	Mass fraction of 1-ethyl-3-methylimidazolium chloride	Mass fraction of cesium chloride	Refractive index (Na D-line)	uncertainty
288.15	0	0.6481	1.41806	0.00036
288.15	0.039	0.5887	1.42031	0.00033
288.15	0.0993	0.5078	1.42309	0.00032
288.15	0.1711	0.4201	1.42624	0.00034
288.15	0.2791	0.3132	1.43205	0.00037
288.15	0.4123	0.2023	1.4411	0.00048
288.15	0.5662	0.0914	1.45486	0.00051
288.15	0.6831	0.0213	1.47421	0.00063
288.15	0.8003	0.0041	1.49679	0.00046
298.15	0	0.6551	1.41973	0.00044
298.15	0.0424	0.5934	1.42084	0.00041
298.15	0.0988	0.5168	1.42315	0.00043
298.15	0.1716	0.4274	1.42664	0.00043
298.15	0.2656	0.3308	1.43209	0.00046
298.15	0.3968	0.2284	1.44066	0.00043
298.15	0.5513	0.1064	1.45391	0.00043
298.15	0.6951	0.0353	1.47257	0.00054
298.15	0.8003	0.0067	1.49489	0.00044
308.15	0	0.6679	1.42053	0.00044
308.15	0.0395	0.6026	1.42187	0.00034
308.15	0.0929	0.5319	1.42321	0.00035
308.15	0.1644	0.4418	1.42604	0.00033
308.15	0.2622	0.3483	1.43023	0.00088
308.15	0.3902	0.2393	1.44022	0.00036
308.15	0.5449	0.1174	1.45296	0.00047
308.15	0.6875	0.0385	1.47093	0.00049
308.15	0.7998	0.0072	1.49299	0.00044
298.15	0.012	0	1.33458	0.00344
298.15	0.024	0	1.33648	0.00321
298.15	0.0361	0	1.33865	0.00287
298.15	0.0482	0	1.34054	0.0034
298.15	0.0602	0	1.34256	0.00321
298.15	0.0721	0	1.34457	0.00279
298.15	0.0844	0	1.34646	0.00282
298.15	0.0964	0	1.34853	0.00202
298.15	0.1084	0	1.35055	0.00191
298.15	0.1205	0	1.35276	0.00172
298.15	0.012	0.03	1.33695	0.00323
298.15	0.0243	0.03	1.3391	0.00314
298.15	0.0361	0.03	1.3412	0.00322
298.15	0.0482	0.03	1.34297	0.00301
298.15	0.0602	0.03	1.34505	0.00296
298.15	0.0723	0.03	1.3472	0.00248
298.15	0.0843	0.03	1.34917	0.00204
298.15	0.0963	0.03	1.3513	0.00197
298.15	0.1084	0.03	1.35333	0.00185
298.15	0.1204	0.03	1.35545	0.00148
298.15	0.012	0.06	1.33953	0.00302
298.15	0.0241	0.06	1.34155	0.00268
298.15	0.0361	0.06	1.34358	0.00271
298.15	0.0482	0.06	1.34566	0.00231
298.15	0.0603	0.06	1.34783	0.00229
298.15	0.0722	0.06	1.34989	0.00243
298.15	0.0844	0.06	1.35196	0.00229
298.15	0.0963	0.06	1.35407	0.0019
298.15	0.1084	0.06	1.35655	0.00187
298.15	0.1206	0.06	1.35856	0.00202

System: cesium chloride + water + 1-butyl-3-methylimidazolium chloride; phases: Liquid, Crystal
Fixed: Pressure, kPa = 101
Property: Mass fraction of cesium chloride (Liquid); method: Index of refraction calibration data
Temperature, K	Mass fraction of 1-butyl-3-methylimidazolium chloride	Mass fraction of cesium chloride	uncertainty
288.15	0.0413	0.5889	0.0018
288.15	0.0993	0.5127	0.0015
288.15	0.1711	0.4302	0.0013
288.15	0.2658	0.3351	0.001
288.15	0.3902	0.2321	0.0007
288.15	0.5564	0.1184	0.0004
288.15	0.689	0.0369	0.0001
288.15	0.7999	0.0077	0.0001
298.15	0.041	0.5987	0.0018
298.15	0.0963	0.5196	0.0016
298.15	0.1654	0.4386	0.0013
298.15	0.262	0.3446	0.001
298.15	0.3815	0.2475	0.0007
298.15	0.5249	0.1361	0.0004
298.15	0.6717	0.0434	0.0001
298.15	0.799	0.0078	0.0001
308.15	0.0382	0.606	0.0018
308.15	0.0929	0.5386	0.0016
308.15	0.1644	0.4583	0.0014
308.15	0.2573	0.3612	0.0011
308.15	0.3769	0.2581	0.0008
308.15	0.5182	0.1494	0.0005
308.15	0.6711	0.0527	0.0002
308.15	0.7994	0.0081	0.0001

System: cesium chloride + water + 1-butyl-3-methylimidazolium chloride; phases: Liquid
Fixed: Pressure, kPa = 101
Property: Mass density, kg/m3 (Liquid); method: Vibrating tube method
Temperature, K	Mass fraction of 1-butyl-3-methylimidazolium chloride	Mass fraction of cesium chloride	Mass density, kg/m3	uncertainty
288.15	0.0413	0.5889	1796.57	2.03
288.15	0.0993	0.5127	1682.31	2.01
288.15	0.1711	0.4302	1561.69	2.37
288.15	0.2658	0.3351	1432.61	2.1
288.15	0.3902	0.2321	1306.6	2.58
288.15	0.5564	0.1184	1195.17	1.07
288.15	0.689	0.0369	1118.87	0.93
288.15	0.7999	0.0077	1090.14	1.39
298.15	0.041	0.5987	1819.07	1.58
298.15	0.0963	0.5196	1699.72	1.46
298.15	0.1654	0.4386	1580.21	1.43
298.15	0.262	0.3446	1451.46	1.38
298.15	0.3815	0.2475	1323.12	1.4
298.15	0.5249	0.1361	1205.62	1.26
298.15	0.6717	0.0434	1121.05	1.2
298.15	0.799	0.0078	1087.55	28.19
308.15	0.0382	0.606	1837.77	5.56
308.15	0.0929	0.5386	1717.13	6.25
308.15	0.1644	0.4583	1597.73	3.97
308.15	0.2573	0.3612	1466.84	1.93
308.15	0.3769	0.2581	1338.58	2.38
308.15	0.5182	0.1494	1216.07	2
308.15	0.6711	0.0527	1123.23	0.72
308.15	0.7994	0.0081	1069.36	24.59
298.15	0.0105	0	997.84	1.49
298.15	0.0209	0	998.6	1.49
298.15	0.0314	0	999.36	1.49
298.15	0.0419	0	1000.19	1.48
298.15	0.0523	0	1001.01	1.48
298.15	0.0627	0	1001.83	1.48
298.15	0.0732	0	1002.7	1.48
298.15	0.0836	0	1003.53	1.51
298.15	0.0941	0	1004.41	1.5
298.15	0.1045	0	1005.32	1.48
298.15	0.0104	0.03	1021.27	1.66
298.15	0.0209	0.03	1022.07	1.66
298.15	0.0313	0.03	1022.83	1.65
298.15	0.0418	0.03	1023.77	1.65
298.15	0.0522	0.03	1024.56	1.65
298.15	0.0627	0.03	1025.4	1.65
298.15	0.0732	0.03	1026.27	1.64
298.15	0.0837	0.03	1026.8	1.64
298.15	0.0942	0.03	1027.8	0.9
298.15	0.1045	0.03	1028.95	0.89
298.15	0.0104	0.06	1045.71	1.63
298.15	0.0209	0.06	1046.51	1.63
298.15	0.0313	0.06	1047.4	1.62
298.15	0.042	0.06	1048.34	1.62
298.15	0.0512	0.06	1049.17	1.62
298.15	0.0627	0.06	1050.08	1.62
298.15	0.0731	0.06	1050.99	0.92
298.15	0.083	0.06	1051.84	0.93
298.15	0.0941	0.06	1052.78	0.93
298.15	0.1045	0.06	1053.67	0.92

System: cesium chloride + water + 1-butyl-3-methylimidazolium chloride; phases: Liquid
Fixed: Pressure, kPa = 101
Property: Refractive index (Na D-line) (Liquid); method: Standard Abbe refractometry
Temperature, K	Mass fraction of 1-butyl-3-methylimidazolium chloride	Mass fraction of cesium chloride	Refractive index (Na D-line)	uncertainty
288.15	0.0413	0.5889	1.42046	0.00034
288.15	0.0993	0.5127	1.42348	0.00034
288.15	0.1711	0.4302	1.42551	0.00063
288.15	0.2658	0.3351	1.43245	0.00039
288.15	0.3902	0.2321	1.43977	0.00042
288.15	0.5564	0.1184	1.45336	0.0006
288.15	0.689	0.0369	1.47045	0.00042
288.15	0.7999	0.0077	1.48968	0.00056
298.15	0.041	0.5987	1.42142	0.00036
298.15	0.0963	0.5196	1.42416	0.00042
298.15	0.1654	0.4386	1.42811	0.00042
298.15	0.262	0.3446	1.43374	0.00042
298.15	0.3815	0.2475	1.44148	0.00041
298.15	0.5249	0.1361	1.45247	0.00042
298.15	0.6717	0.0434	1.46797	0.00045
298.15	0.799	0.0078	1.48558	0.00392
308.15	0.0382	0.606	1.42188	0.00033
308.15	0.0929	0.5386	1.42484	0.00046
308.15	0.1644	0.4583	1.42769	0.00081
308.15	0.2573	0.3612	1.43348	0.00033
308.15	0.3769	0.2581	1.44119	0.00038
308.15	0.5182	0.1494	1.45158	0.00047
308.15	0.6711	0.0527	1.46649	0.00048
308.15	0.7994	0.0081	1.48375	0.00348
298.15	0.0105	0	1.33431	0.00348
298.15	0.0209	0	1.33603	0.00338
298.15	0.0314	0	1.33767	0.00305
298.15	0.0419	0	1.33941	0.00254
298.15	0.0523	0	1.34118	0.00293
298.15	0.0627	0	1.34291	0.00302
298.15	0.0732	0	1.34476	0.00288
298.15	0.0836	0	1.34658	0.00201
298.15	0.0941	0	1.34821	0.00273
298.15	0.1045	0	1.35001	0.00174
298.15	0.0104	0.03	1.33666	0.00316
298.15	0.0209	0.03	1.33842	0.00303
298.15	0.0313	0.03	1.34028	0.00293
298.15	0.0418	0.03	1.34226	0.00289
298.15	0.0522	0.03	1.3438	0.00261
298.15	0.0627	0.03	1.34555	0.0027
298.15	0.0732	0.03	1.34744	0.00275
298.15	0.0837	0.03	1.34964	0.00273
298.15	0.0942	0.03	1.35103	0.00177
298.15	0.1045	0.03	1.35329	0.00129
298.15	0.0104	0.06	1.33939	0.00278
298.15	0.0209	0.06	1.34122	0.00272
298.15	0.0313	0.06	1.34294	0.00288
298.15	0.042	0.06	1.34477	0.00305
298.15	0.0512	0.06	1.34663	0.00255
298.15	0.0627	0.06	1.34847	0.00232
298.15	0.0731	0.06	1.35031	0.00186
298.15	0.083	0.06	1.35198	0.00207
298.15	0.0941	0.06	1.35394	0.00176
298.15	0.1045	0.06	1.35575	0.00205

System: cesium chloride + water + 1-hexyl-3-methylimidazolium chloride; phases: Liquid, Crystal
Fixed: Pressure, kPa = 101
Property: Mass fraction of cesium chloride (Liquid); method: Index of refraction calibration data
Temperature, K	Mass fraction of 1-hexyl-3-methylimidazolium chloride	Mass fraction of cesium chloride	uncertainty
288.15	0.0413	0.5909	0.0018
288.15	0.096	0.5247	0.0016
288.15	0.1657	0.4429	0.0013
288.15	0.2604	0.3522	0.0011
288.15	0.3787	0.2595	0.0008
288.15	0.5249	0.1534	0.0005
288.15	0.6742	0.0494	0.0002
288.15	0.8	0.0102	0.0001
298.15	0.0406	0.5977	0.0018
298.15	0.0917	0.5405	0.0016
298.15	0.1632	0.4562	0.0014
298.15	0.255	0.3633	0.0011
298.15	0.3629	0.2745	0.0008
298.15	0.5032	0.1625	0.0005
298.15	0.6593	0.0594	0.0002
298.15	0.7968	0.0133	0.0001
308.15	0.0382	0.6089	0.0018
308.15	0.0898	0.5424	0.0016
308.15	0.1591	0.4741	0.0014
308.15	0.2475	0.3858	0.0012
308.15	0.3569	0.2957	0.0009
308.15	0.4964	0.1813	0.0005
308.15	0.6542	0.0768	0.0002
308.15	0.7901	0.0165	0.0001

System: cesium chloride + water + 1-hexyl-3-methylimidazolium chloride; phases: Liquid
Fixed: Pressure, kPa = 101
Property: Mass density, kg/m3 (Liquid); method: Vibrating tube method
Temperature, K	Mass fraction of 1-hexyl-3-methylimidazolium chloride	Mass fraction of cesium chloride	Mass density, kg/m3	uncertainty
288.15	0.0413	0.5909	1798.38	3.6
288.15	0.096	0.5247	1686.4	3.6
288.15	0.1657	0.4429	1563.65	1.8
288.15	0.2604	0.3522	1432.55	2.17
288.15	0.3787	0.2595	1311.36	5.02
288.15	0.5249	0.1534	1198.75	1.18
288.15	0.6742	0.0494	1092.93	1.02
288.15	0.8	0.0102	1052.07	1.2
298.15	0.0406	0.5977	1819.87	6.52
298.15	0.0917	0.5405	1719.27	1.52
298.15	0.1632	0.4562	1589.15	1.4
298.15	0.255	0.3633	1457.26	1.34
298.15	0.3629	0.2745	1344.96	1.65
298.15	0.5032	0.1625	1207.18	1.34
298.15	0.6593	0.0594	1097.67	1.24
298.15	0.7968	0.0133	1048.36	1.37
308.15	0.0382	0.6089	1836.56	1.52
308.15	0.0898	0.5424	1728.14	1.51
308.15	0.1591	0.4741	1612.65	1.72
308.15	0.2475	0.3858	1489.02	1.3
308.15	0.3569	0.2957	1360.12	1.22
308.15	0.4964	0.1813	1215.61	2.17
308.15	0.6542	0.0768	1103.41	1.29
308.15	0.7901	0.0165	1044.45	1.29
298.15	0.0108	0	997.58	1.5
298.15	0.0215	0	998.11	1.49
298.15	0.0323	0	998.68	1.49
298.15	0.0432	0	999.25	1.49
298.15	0.0533	0	999.8	1.49
298.15	0.0647	0	1000.19	1.49
298.15	0.0756	0	1001.01	1.48
298.15	0.0859	0	1001.6	1.49
298.15	0.0969	0	1002.23	1.48
298.15	0.1078	0	1002.87	1.48
298.15	0.0108	0.03	1021.06	1.66
298.15	0.0215	0.03	1021.61	1.66
298.15	0.0323	0.03	1022.16	1.66
298.15	0.043	0.03	1022.74	1.66
298.15	0.0431	0.03	1022.82	1.66
298.15	0.054	0.03	1023.34	1.66
298.15	0.0647	0.03	1023.9	1.65
298.15	0.0755	0.03	1024.58	1.66
298.15	0.0864	0.03	1025.2	1.65
298.15	0.097	0.03	1025.87	1.66
298.15	0.0108	0.06	1045.52	1.63
298.15	0.0216	0.06	1045.94	1.63
298.15	0.0323	0.06	1046.73	1.63
298.15	0.0432	0.06	1047.13	1.63
298.15	0.0539	0.06	1047.71	1.64
298.15	0.0647	0.06	1048.41	1.63
298.15	0.0755	0.06	1049.07	1.63
298.15	0.0863	0.06	1049.79	0.9
298.15	0.0971	0.06	1050.31	0.9
298.15	0.1078	0.06	1051.1	0.89

System: cesium chloride + water + 1-hexyl-3-methylimidazolium chloride; phases: Liquid
Fixed: Pressure, kPa = 101
Property: Refractive index (Na D-line) (Liquid); method: Standard Abbe refractometry
Temperature, K	Mass fraction of 1-hexyl-3-methylimidazolium chloride	Mass fraction of cesium chloride	Refractive index (Na D-line)	uncertainty
288.15	0.0413	0.5909	1.42094	0.00033
288.15	0.096	0.5247	1.42356	0.00039
288.15	0.1657	0.4429	1.42717	0.00037
288.15	0.2604	0.3522	1.43185	0.00038
288.15	0.3787	0.2595	1.43992	0.00037
288.15	0.5249	0.1534	1.44958	0.00057
288.15	0.6742	0.0494	1.46374	0.0004
288.15	0.8	0.0102	1.48136	0.00043
298.15	0.0406	0.5977	1.42163	0.00089
298.15	0.0917	0.5405	1.42569	0.00045
298.15	0.1632	0.4562	1.42862	0.00041
298.15	0.255	0.3633	1.43301	0.00041
298.15	0.3629	0.2745	1.44032	0.00037
298.15	0.5032	0.1625	1.44961	0.00042
298.15	0.6593	0.0594	1.46238	0.00049
298.15	0.7968	0.0133	1.48006	0.00059
308.15	0.0382	0.6089	1.42342	0.00042
308.15	0.0898	0.5424	1.42716	0.00037
308.15	0.1591	0.4741	1.43054	0.00039
308.15	0.2475	0.3858	1.43552	0.00045
308.15	0.3569	0.2957	1.44144	0.00036
308.15	0.4964	0.1813	1.44964	0.00035
308.15	0.6542	0.0768	1.46002	0.00082
308.15	0.7901	0.0165	1.47791	0.00055
298.15	0.0108	0	1.33441	0.00292
298.15	0.0215	0	1.33623	0.00292
298.15	0.0323	0	1.33808	0.00291
298.15	0.0432	0	1.33994	0.00291
298.15	0.0533	0	1.34167	0.00291
298.15	0.0647	0	1.34362	0.00291
298.15	0.0756	0	1.34548	0.00292
298.15	0.0859	0	1.34724	0.00291
298.15	0.0969	0	1.34912	0.00291
298.15	0.1078	0	1.35098	0.00291
298.15	0.0108	0.03	1.33707	0.00278
298.15	0.0215	0.03	1.33889	0.00276
298.15	0.0323	0.03	1.34074	0.00276
298.15	0.043	0.03	1.34257	0.00276
298.15	0.0431	0.03	1.34259	0.00276
298.15	0.054	0.03	1.34445	0.00277
298.15	0.0647	0.03	1.34628	0.00276
298.15	0.0755	0.03	1.34812	0.00277
298.15	0.0864	0.03	1.34999	0.00276
298.15	0.097	0.03	1.3518	0.00279
298.15	0.0108	0.06	1.33989	0.00262
298.15	0.0216	0.06	1.34173	0.00261
298.15	0.0323	0.06	1.34356	0.00262
298.15	0.0432	0.06	1.34542	0.00262
298.15	0.0539	0.06	1.34725	0.00262
298.15	0.0647	0.06	1.3491	0.00263
298.15	0.0755	0.06	1.35094	0.00261
298.15	0.0863	0.06	1.35279	0.00188
298.15	0.0971	0.06	1.35463	0.00189
298.15	0.1078	0.06	1.35646	0.00188

System: cesium chloride + water + 1-methyl-3-octylimidazolium chloride; phases: Liquid, Crystal
Fixed: Pressure, kPa = 101
Property: Mass fraction of cesium chloride (Liquid); method: Index of refraction calibration data
Temperature, K	Mass fraction of 1-methyl-3-octylimidazolium chloride	Mass fraction of cesium chloride	uncertainty
288.15	0.0422	0.6004	0.0018
288.15	0.0916	0.5336	0.0016
288.15	0.1604	0.4592	0.0014
288.15	0.2511	0.3719	0.0011
288.15	0.3711	0.279	0.0008
288.15	0.5173	0.1689	0.0005
288.15	0.6689	0.0639	0.0002
288.15	0.7938	0.0124	0.0001
298.15	0.0404	0.6074	0.0018
298.15	0.0867	0.5427	0.0016
298.15	0.1506	0.4843	0.0015
298.15	0.2611	0.3781	0.0011
298.15	0.3578	0.3008	0.0009
298.15	0.4942	0.1879	0.0006
298.15	0.6524	0.0786	0.0002
298.15	0.7889	0.0158	0.0001
308.15	0.0391	0.6127	0.0018
308.15	0.0848	0.5608	0.0017
308.15	0.1524	0.4984	0.0015
308.15	0.2377	0.4132	0.0012
308.15	0.3449	0.3205	0.001
308.15	0.4813	0.2172	0.0007
308.15	0.6408	0.0983	0.0003
308.15	0.7804	0.0195	0.0001

System: cesium chloride + water + 1-methyl-3-octylimidazolium chloride; phases: Liquid
Fixed: Pressure, kPa = 101
Property: Mass density, kg/m3 (Liquid); method: Vibrating tube method
Temperature, K	Mass fraction of 1-methyl-3-octylimidazolium chloride	Mass fraction of cesium chloride	Mass density, kg/m3	uncertainty
288.15	0.0422	0.6004	1815.06	3.05
288.15	0.0916	0.5336	1693.89	3.06
288.15	0.1604	0.4592	1576.52	2.96
288.15	0.2511	0.3719	1450.72	1.93
288.15	0.3711	0.279	1326.35	1.08
288.15	0.5173	0.1689	1204.31	1.45
288.15	0.6689	0.0639	1090.67	1.11
288.15	0.7938	0.0124	1035.18	1.11
298.15	0.0404	0.6074	1832.12	1.45
298.15	0.0867	0.5427	1720.28	1.53
298.15	0.1506	0.4843	1608.33	1.47
298.15	0.2611	0.3781	1464.66	1.37
298.15	0.3578	0.3008	1354.17	3.89
298.15	0.4942	0.1879	1213.25	1.25
298.15	0.6524	0.0786	1094.21	1.15
298.15	0.7889	0.0158	1034.09	1.38
308.15	0.0391	0.6127	1836.22	1.81
308.15	0.0848	0.5608	1756.67	1.24
308.15	0.1524	0.4984	1649.81	1.65
308.15	0.2377	0.4132	1513.6	3.35
308.15	0.3449	0.3205	1385.78	2.4
308.15	0.4813	0.2172	1256.28	1
308.15	0.6408	0.0983	1119.3	1.35
308.15	0.7804	0.0195	1032.99	0.66
298.15	0.0087	0	997.27	1.55
298.15	0.0173	0	997.52	1.55
298.15	0.026	0	997.76	1.55
298.15	0.0347	0	998.01	1.55
298.15	0.0433	0	998.22	1.56
298.15	0.0521	0	998.46	1.56
298.15	0.0607	0	998.65	1.56
298.15	0.0694	0	998.84	1.56
298.15	0.078	0	998.98	1.57
298.15	0.0867	0	999.1	1.56
298.15	0.0087	0.03	1020.65	1.71
298.15	0.0173	0.03	1020.93	1.7
298.15	0.026	0.03	1021.11	1.7
298.15	0.0348	0.03	1021.36	1.7
298.15	0.0434	0.03	1021.51	1.7
298.15	0.052	0.03	1021.7	1.69
298.15	0.0607	0.03	1021.84	1.69
298.15	0.0693	0.03	1022.08	1.69
298.15	0.0781	0.03	1022.15	1.68
298.15	0.0868	0.03	1022.3	1.69
298.15	0.0086	0.06	1045.01	1.68
298.15	0.0173	0.06	1045.29	1.68
298.15	0.026	0.06	1045.56	1.67
298.15	0.0347	0.06	1045.89	1.67
298.15	0.0433	0.06	1046.19	1.66
298.15	0.052	0.06	1046.51	1.65
298.15	0.0607	0.06	1046.83	1.64
298.15	0.0694	0.06	1047.11	1.64
298.15	0.078	0.06	1047.4	1.63
298.15	0.0867	0.06	1047.8	1.62

System: cesium chloride + water + 1-methyl-3-octylimidazolium chloride; phases: Liquid
Fixed: Pressure, kPa = 101
Property: Refractive index (Na D-line) (Liquid); method: Standard Abbe refractometry
Temperature, K	Mass fraction of 1-methyl-3-octylimidazolium chloride	Mass fraction of cesium chloride	Refractive index (Na D-line)	uncertainty
288.15	0.0422	0.6004	1.42117	0.00036
288.15	0.0916	0.5336	1.42278	0.00036
288.15	0.1604	0.4592	1.42583	0.00037
288.15	0.2511	0.3719	1.43095	0.00035
288.15	0.3711	0.279	1.43885	0.00036
288.15	0.5173	0.1689	1.44766	0.00042
288.15	0.6689	0.0639	1.45828	0.00043
288.15	0.7938	0.0124	1.4732	0.00046
298.15	0.0404	0.6074	1.42257	0.00034
298.15	0.0867	0.5427	1.42416	0.00041
298.15	0.1506	0.4843	1.42704	0.00041
298.15	0.2611	0.3781	1.4318	0.00042
298.15	0.3578	0.3008	1.4392	0.00036
298.15	0.4942	0.1879	1.44711	0.00043
298.15	0.6524	0.0786	1.45709	0.00045
298.15	0.7889	0.0158	1.47137	0.00046
308.15	0.0391	0.6127	1.42336	0.00034
308.15	0.0848	0.5608	1.42615	0.00051
308.15	0.1524	0.4984	1.42872	0.00036
308.15	0.2377	0.4132	1.43235	0.00044
308.15	0.3449	0.3205	1.43955	0.00044
308.15	0.4813	0.2172	1.44656	0.00034
308.15	0.6408	0.0983	1.4559	0.00054
308.15	0.7804	0.0195	1.46954	0.00038
298.15	0.0087	0	1.33395	0.00365
298.15	0.0173	0	1.33536	0.00317
298.15	0.026	0	1.33687	0.003
298.15	0.0347	0	1.33837	0.00311
298.15	0.0433	0	1.33977	0.00314
298.15	0.0521	0	1.34125	0.00332
298.15	0.0607	0	1.34269	0.0032
298.15	0.0694	0	1.34418	0.0029
298.15	0.078	0	1.34559	0.00325
298.15	0.0867	0	1.34703	0.00278
298.15	0.0087	0.03	1.33622	0.00328
298.15	0.0173	0.03	1.33789	0.00305
298.15	0.026	0.03	1.33945	0.00323
298.15	0.0348	0.03	1.34089	0.00302
298.15	0.0434	0.03	1.34232	0.00327
298.15	0.052	0.03	1.34366	0.00306
298.15	0.0607	0.03	1.34519	0.00324
298.15	0.0693	0.03	1.34678	0.00309
298.15	0.0781	0.03	1.34807	0.00303
298.15	0.0868	0.03	1.34974	0.00312
298.15	0.0086	0.06	1.33879	0.00296
298.15	0.0173	0.06	1.34045	0.00324
298.15	0.026	0.06	1.34181	0.00319
298.15	0.0347	0.06	1.34353	0.00323
298.15	0.0433	0.06	1.34467	0.00309
298.15	0.052	0.06	1.34635	0.00307
298.15	0.0607	0.06	1.34765	0.00306
298.15	0.0694	0.06	1.34926	0.00333
298.15	0.078	0.06	1.35074	0.00288
298.15	0.0867	0.06	1.35215	0.00327

System: water + rubidium chloride; phases: Liquid, Crystal
Fixed: Pressure, kPa = 101
Property: Mass fraction of rubidium chloride (Liquid); method: Index of refraction calibration data
Temperature, K	Mass fraction of rubidium chloride	uncertainty
288.15	0.4681	0.0014
298.15	0.4858	0.0014
308.15	0.5035	0.0015

System: water + rubidium chloride; phases: Liquid
Fixed: Pressure, kPa = 101
Property: Mass density, kg/m3 (Liquid); method: Vibrating tube method
Temperature, K	Mass fraction of rubidium chloride	Mass density, kg/m3	uncertainty
288.15	0.4681	1480.46	0.3
298.15	0.4858	1496.52	0.31
308.15	0.5035	1517.55	0.32

System: water + rubidium chloride; phases: Liquid
Fixed: Pressure, kPa = 101
Property: Refractive index (Na D-line) (Liquid); method: Standard Abbe refractometry
Temperature, K	Mass fraction of rubidium chloride	Refractive index (Na D-line)	uncertainty
288.15	0.4681	1.38745	0.00033
298.15	0.4858	1.38846	0.00033
308.15	0.5035	1.38941	0.00033

System: water + 1-ethyl-3-methylimidazolium chloride; phases: Liquid
Fixed: Temperature, K = 298.15
Fixed: Pressure, kPa = 101
Property: Mass density, kg/m3 (Liquid); method: Vibrating tube method
Mass fraction of 1-ethyl-3-methylimidazolium chloride	Mass density, kg/m3	uncertainty
0.0117	998.54	0.59
0.0234	999.88	0.6
0.0351	1001.24	0.6
0.0471	1002.62	0.22
0.0589	1004.01	0.23
0.0708	1005.45	0.22
0.0822	1006.79	0.23
0.0941	1008.12	0.22
0.1061	1009.76	0.22
0.1171	1011.04	0.23
0.012	998.38	1.74
0.024	999.7	1.73
0.0361	1001.08	1.73
0.0482	1002.48	1.73
0.0602	1003.84	1.72
0.0721	1005.28	1.72
0.0844	1006.65	1.71
0.0964	1008.2	0.44
0.1084	1009.68	0.44
0.1205	1011.2	0.44

System: water + 1-ethyl-3-methylimidazolium chloride; phases: Liquid
Fixed: Temperature, K = 298.15
Fixed: Pressure, kPa = 101
Property: Refractive index (Na D-line) (Liquid); method: Standard Abbe refractometry
Mass fraction of 1-ethyl-3-methylimidazolium chloride	Refractive index (Na D-line)	uncertainty
0.0117	1.33452	0.00105
0.0234	1.3365	0.00116
0.0351	1.33844	0.00114
0.0471	1.34042	0.00164
0.0589	1.34236	0.00156
0.0708	1.34442	0.00153
0.0822	1.34628	0.00178
0.0941	1.34816	0.00126
0.1061	1.35038	0.00121
0.1171	1.35212	0.00161
0.012	1.33458	0.00344
0.024	1.33648	0.00321
0.0361	1.33865	0.00287
0.0482	1.34054	0.0034
0.0602	1.34256	0.00321
0.0721	1.34457	0.00279
0.0844	1.34646	0.00282
0.0964	1.34853	0.00202
0.1084	1.35055	0.00191
0.1205	1.35276	0.00172

System: water + 1-butyl-3-methylimidazolium chloride; phases: Liquid
Fixed: Temperature, K = 298.15
Fixed: Pressure, kPa = 101
Property: Mass density, kg/m3 (Liquid); method: Vibrating tube method
Mass fraction of 1-butyl-3-methylimidazolium chloride	Mass density, kg/m3	uncertainty
0.0119	998.01	0.58
0.0236	998.85	0.49
0.0354	999.49	0.45
0.0473	1000.69	0.45
0.0591	1001.65	0.46
0.0709	1002.62	0.45
0.0827	1003.62	0.44
0.0945	1004.61	0.45
0.1063	1005.64	0.18
0.1182	1006.72	0.18
0.0105	997.84	1.49
0.0209	998.6	1.49
0.0314	999.36	1.49
0.0419	1000.19	1.48
0.0523	1001.01	1.48
0.0627	1001.83	1.48
0.0732	1002.7	1.48
0.0836	1003.53	1.51
0.0941	1004.41	1.5
0.1045	1005.32	1.48

System: water + 1-butyl-3-methylimidazolium chloride; phases: Liquid
Fixed: Temperature, K = 298.15
Fixed: Pressure, kPa = 101
Property: Refractive index (Na D-line) (Liquid); method: Standard Abbe refractometry
Mass fraction of 1-butyl-3-methylimidazolium chloride	Refractive index (Na D-line)	uncertainty
0.0119	1.33458	0.00106
0.0236	1.33648	0.00112
0.0354	1.33844	0.00103
0.0473	1.34041	0.00098
0.0591	1.34243	0.001
0.0709	1.34443	0.00084
0.0827	1.34648	0.00077
0.0945	1.34847	0.00077
0.1063	1.35061	0.00122
0.1182	1.35261	0.00137
0.0105	1.33431	0.00348
0.0209	1.33603	0.00338
0.0314	1.33767	0.00305
0.0419	1.33941	0.00254
0.0523	1.34118	0.00293
0.0627	1.34291	0.00302
0.0732	1.34476	0.00288
0.0836	1.34658	0.00201
0.0941	1.34821	0.00273
0.1045	1.35001	0.00174

System: water + 1-hexyl-3-methylimidazolium chloride; phases: Liquid
Fixed: Temperature, K = 298.15
Fixed: Pressure, kPa = 101
Property: Mass density, kg/m3 (Liquid); method: Vibrating tube method
Mass fraction of 1-hexyl-3-methylimidazolium chloride	Mass density, kg/m3	uncertainty
0.0168	998.06	0.53
0.0339	998.85	0.52
0.0509	999.77	0.53
0.0678	1000.65	0.52
0.0848	1001.66	0.52
0.1018	1002.5	0.53
0.1186	1003.65	0.52
0.1356	1004.6	0.16
0.1526	1005.64	0.16
0.1695	1006.59	0.16
0.0108	997.58	1.5
0.0215	998.11	1.49
0.0323	998.68	1.49
0.0432	999.25	1.49
0.0533	999.8	1.49
0.0647	1000.19	1.49
0.0756	1001.01	1.48
0.0859	1001.6	1.49
0.0969	1002.23	1.48
0.1078	1002.87	1.48

System: water + 1-hexyl-3-methylimidazolium chloride; phases: Liquid
Fixed: Temperature, K = 298.15
Fixed: Pressure, kPa = 101
Property: Refractive index (Na D-line) (Liquid); method: Standard Abbe refractometry
Mass fraction of 1-hexyl-3-methylimidazolium chloride	Refractive index (Na D-line)	uncertainty
0.0168	1.33539	0.00111
0.0339	1.33829	0.0011
0.0509	1.34112	0.00106
0.0678	1.34402	0.00098
0.0848	1.34687	0.00071
0.1018	1.34978	0.00086
0.1186	1.35277	0.00076
0.1356	1.35557	0.00094
0.1526	1.35856	0.00085
0.1695	1.36149	0.00087
0.0108	1.33441	0.00292
0.0215	1.33623	0.00292
0.0323	1.33808	0.00291
0.0432	1.33994	0.00291
0.0533	1.34167	0.00291
0.0647	1.34362	0.00291
0.0756	1.34548	0.00292
0.0859	1.34724	0.00291
0.0969	1.34912	0.00291
0.1078	1.35098	0.00291

System: water + 1-methyl-3-octylimidazolium chloride; phases: Liquid
Fixed: Temperature, K = 298.15
Fixed: Pressure, kPa = 101
Property: Mass density, kg/m3 (Liquid); method: Vibrating tube method
Mass fraction of 1-methyl-3-octylimidazolium chloride	Mass density, kg/m3	uncertainty
0.0087	997.27	0.53
0.0173	997.52	0.53
0.026	997.76	0.53
0.0347	998.01	0.53
0.0433	998.22	0.53
0.0521	998.46	0.54
0.0607	998.65	0.54
0.0694	998.84	0.55
0.078	998.98	0.55
0.0867	999.1	0.55

System: water + 1-methyl-3-octylimidazolium chloride; phases: Liquid
Fixed: Temperature, K = 298.15
Fixed: Pressure, kPa = 101
Property: Refractive index (Na D-line) (Liquid); method: Standard Abbe refractometry
Mass fraction of 1-methyl-3-octylimidazolium chloride	Refractive index (Na D-line)	uncertainty
0.0087	1.33395	0.0013
0.0173	1.33536	0.00132
0.026	1.33687	0.00118
0.0347	1.33837	0.00124
0.0433	1.33977	0.00116
0.0521	1.34125	0.00083
0.0607	1.34269	0.00105
0.0694	1.34418	0.00096
0.078	1.34559	0.00089
0.0867	1.34703	0.00092

System: cesium chloride + water; phases: Liquid, Crystal
Fixed: Pressure, kPa = 101
Property: Mass fraction of cesium chloride (Liquid); method: Index of refraction calibration data
Temperature, K	Mass fraction of cesium chloride	uncertainty
288.15	0.6481	0.0019
298.15	0.6551	0.002
308.15	0.6679	0.002

System: cesium chloride + water; phases: Liquid
Fixed: Pressure, kPa = 101
Property: Mass density, kg/m3 (Liquid); method: Vibrating tube method
Temperature, K	Mass fraction of cesium chloride	Mass density, kg/m3	uncertainty
288.15	0.6481	1894.01	0.52
298.15	0.6551	1920.79	0.54
308.15	0.6679	1946.39	0.56

System: cesium chloride + water; phases: Liquid
Fixed: Pressure, kPa = 101
Property: Refractive index (Na D-line) (Liquid); method: Standard Abbe refractometry
Temperature, K	Mass fraction of cesium chloride	Refractive index (Na D-line)	uncertainty
288.15	0.6481	1.41806	0.00036
298.15	0.6551	1.41973	0.00044
308.15	0.6679	1.42053	0.00044
