Measured thermophysical data. Solubility of 3,4-Dichloronitrobenzene in Methanol, Ethanol, and Liquid Mixtures (Methanol + Water, Ethanol + Water): Experimental Measurement and Thermodynamic Modeling
Source: J. Chem. Eng. Data, 2013, 10.1021/je400507u
Compound 1: 3,4-dichloro-1-nitrobenzene, C6H3Cl2NO2, InChI=1S/C6H3Cl2NO2/c7-5-2-1-4(9(10)11)3-6(5)8/h1-3H
Compound 2: methanol, CH4O, InChI=1S/CH4O/c1-2/h2H,1H3
Compound 3: ethanol, C2H6O, InChI=1S/C2H6O/c1-2-3/h3H,2H2,1H3
Compound 4: water, H2O, InChI=1S/H2O/h1H2

System: methanol + 3,4-dichloro-1-nitrobenzene + water; phases: Liquid, Crystal
Fixed: Pressure, kPa = 101
Property: Mole fraction of 3,4-dichloro-1-nitrobenzene (Liquid); method: gravimetric
Temperature, K	Solvent: Mole fraction of methanol	Mole fraction of 3,4-dichloro-1-nitrobenzene	uncertainty
278.15	1	0.02083	0.00088
280.65	1	0.02512	0.00106
283.15	1	0.02956	0.00124
285.65	1	0.03532	0.00149
288.15	1	0.04223	0.00178
290.65	1	0.05048	0.00212
293.15	1	0.06111	0.00257
295.65	1	0.07243	0.00305
298.15	1	0.08732	0.00367
300.65	1	0.1047	0.0044
303.15	1	0.1247	0.0052
278.15	0.8767	0.006509	0.000274
280.65	0.8767	0.008035	0.000338
283.15	0.8767	0.009912	0.000417
285.65	0.8767	0.01187	0.0005
288.15	0.8767	0.01433	0.0006
290.65	0.8767	0.01693	0.00071
293.15	0.8767	0.01994	0.00084
295.65	0.8767	0.02299	0.00097
298.15	0.8767	0.02621	0.0011
300.65	0.8767	0.02994	0.00126
303.15	0.8767	0.03353	0.00143
278.15	0.7595	0.002222	9.3e-05
280.65	0.7595	0.00285	0.00012
283.15	0.7595	0.003477	0.000146
285.65	0.7595	0.00429	0.000181
288.15	0.7595	0.005145	0.000217
290.65	0.7595	0.006252	0.000263
293.15	0.7595	0.007506	0.000316
295.65	0.7595	0.008883	0.000374
298.15	0.7595	0.01045	0.00044
300.65	0.7595	0.01218	0.00051
303.15	0.7595	0.01401	0.00059
278.15	0.6483	0.0007819	3.3e-05
280.65	0.6483	0.001048	4.4e-05
283.15	0.6483	0.001383	5.8e-05
285.65	0.6483	0.001766	7.4e-05
288.15	0.6483	0.002195	9.2e-05
290.65	0.6483	0.002753	0.000116
293.15	0.6483	0.003354	0.000141
295.65	0.6483	0.004065	0.000171
298.15	0.6483	0.004857	0.000204
300.65	0.6483	0.005741	0.000242
303.15	0.6483	0.006658	0.00028

System: ethanol + 3,4-dichloro-1-nitrobenzene + water; phases: Liquid, Crystal
Fixed: Pressure, kPa = 101
Property: Mole fraction of 3,4-dichloro-1-nitrobenzene (Liquid); method: gravimetric
Temperature, K	Solvent: Mole fraction of ethanol	Mole fraction of 3,4-dichloro-1-nitrobenzene	uncertainty
278.15	1	0.02003	0.00084
280.65	1	0.02712	0.00114
283.15	1	0.03525	0.00148
285.65	1	0.04436	0.00187
288.15	1	0.05487	0.00231
290.65	1	0.06614	0.00278
293.15	1	0.07692	0.00324
295.65	1	0.08881	0.00374
298.15	1	0.09967	0.00419
300.65	1	0.1105	0.0046
303.15	1	0.1192	0.005
278.15	0.8769	0.006812	0.000287
280.65	0.8769	0.008438	0.000355
283.15	0.8769	0.01001	0.00042
285.65	0.8769	0.01184	0.0005
288.15	0.8769	0.01394	0.00059
290.65	0.8769	0.01587	0.00067
293.15	0.8769	0.01795	0.00076
295.65	0.8769	0.02004	0.00084
298.15	0.8769	0.02194	0.00092
300.65	0.8769	0.02378	0.001
303.15	0.8769	0.02557	0.0011
278.15	0.7598	0.002747	0.000116
280.65	0.7598	0.003368	0.000142
283.15	0.7598	0.004172	0.000176
285.65	0.7598	0.00508	0.000214
288.15	0.7598	0.006049	0.000255
290.65	0.7598	0.007051	0.000297
293.15	0.7598	0.008233	0.000346
295.65	0.7598	0.009414	0.000396
298.15	0.7598	0.01056	0.00044
300.65	0.7598	0.01186	0.0005
303.15	0.7598	0.01309	0.00055
278.15	0.6486	0.001055	4.4e-05
280.65	0.6486	0.001335	5.6e-05
283.15	0.6486	0.001721	7.2e-05
285.65	0.6486	0.002118	8.9e-05
288.15	0.6486	0.002531	0.000107
290.65	0.6486	0.00302	0.000127
293.15	0.6486	0.003466	0.000146
295.65	0.6486	0.003984	0.000168
298.15	0.6486	0.004423	0.000186
300.65	0.6486	0.004871	0.000205
303.15	0.6486	0.00523	0.00022

System: methanol + 3,4-dichloro-1-nitrobenzene; phases: Liquid, Crystal
Fixed: Pressure, kPa = 101
Property: Mole fraction of 3,4-dichloro-1-nitrobenzene (Liquid); method: gravimetric
Temperature, K	Mole fraction of 3,4-dichloro-1-nitrobenzene	uncertainty
278.15	0.02083	0.00088
280.65	0.02512	0.00106
283.15	0.02956	0.00124
285.65	0.03532	0.00149
288.15	0.04223	0.00178
290.65	0.05048	0.00212
293.15	0.06111	0.00257
295.65	0.07243	0.00305
298.15	0.08732	0.00367
300.65	0.1047	0.0044
303.15	0.1247	0.0052

System: ethanol + 3,4-dichloro-1-nitrobenzene; phases: Liquid, Crystal
Fixed: Pressure, kPa = 101
Property: Mole fraction of 3,4-dichloro-1-nitrobenzene (Liquid); method: gravimetric
Temperature, K	Mole fraction of 3,4-dichloro-1-nitrobenzene	uncertainty
278.15	0.02003	0.00084
280.65	0.02712	0.00114
283.15	0.03525	0.00148
285.65	0.04436	0.00187
288.15	0.05487	0.00231
290.65	0.06614	0.00278
293.15	0.07692	0.00324
295.65	0.08881	0.00374
298.15	0.09967	0.00419
300.65	0.1105	0.0046
303.15	0.1192	0.005
