Measured thermophysical data. New Vapor Liquid Liquid Equilibrium Data for Ethane and Propane in Alkanolamine Aqueous Solutions
Source: J. Chem. Eng. Data, 2013, 10.1021/je400340s
Compound 1: ethane, C2H6, InChI=1S/C2H6/c1-2/h1-2H3
Compound 2: propane, C3H8, InChI=1S/C3H8/c1-3-2/h3H2,1-2H3
Compound 3: diethanolamine, C4H11NO2, InChI=1S/C4H11NO2/c6-3-1-5-2-4-7/h5-7H,1-4H2
Compound 4: N-methyldiethanolamine, C5H13NO2, InChI=1S/C5H13NO2/c1-6(2-4-7)3-5-8/h7-8H,2-5H2,1H3
Compound 5: water, H2O, InChI=1S/H2O/h1H2, purity 99.8%

System: ethane + N-methyldiethanolamine + water; phases: Liquid mixture 1, Liquid mixture 2, Gas
Property: Vapor or sublimation pressure, kPa (Liquid mixture 1); method: Closed cell (Static) method
Temperature, K	Solvent: Mass fraction of N-methyldiethanolamine	Vapor or sublimation pressure, kPa	uncertainty
283.15	0.25	3021	10
288.15	0.25	3377	11
293.15	0.25	3767	13
298.15	0.25	4191	14
303.15	0.25	4712	16
305.15	0.25	5036	17
283.15	0.5	3017	10
288.15	0.5	3377	11
293.15	0.5	3766	13
298.15	0.5	4191	14

System: ethane + N-methyldiethanolamine + water; phases: Liquid, Gas
Fixed: Temperature, K = 283.15
Property: Mole fraction of ethane (Liquid); method: Chromatography
Pressure, kPa	Solvent: Mass fraction of N-methyldiethanolamine	Mole fraction of ethane	uncertainty
1243	0.25	0.000759	0.00012
1325	0.25	0.000779	0.00012
1539	0.25	0.000876	0.00012
1994	0.25	0.001073	0.00012
2503	0.25	0.001269	0.00012
2945	0.25	0.001397	0.00012
1429	0.5	0.001157	0.00012
1992	0.5	0.001505	0.00012
2504	0.5	0.001823	0.000121

System: ethane + N-methyldiethanolamine + water; phases: Liquid mixture 1, Liquid mixture 2, Gas
Property: Mole fraction of ethane (Liquid mixture 1); method: Chromatography
Temperature, K	Solvent: Mass fraction of N-methyldiethanolamine	Mole fraction of ethane	uncertainty
283.15	0.25	0.00142	0.00018
288.15	0.25	0.00138	0.00018
293.15	0.25	0.00134	0.00018
298.15	0.25	0.00131	0.00018
303.15	0.25	0.00129	0.00018
305.15	0.25	0.00128	0.00018
283.15	0.5	0.00199	0.00018
288.15	0.5	0.00209	0.00018
293.15	0.5	0.00223	0.00018
298.15	0.5	0.00233	0.00018

System: ethane + N-methyldiethanolamine + water; phases: Liquid mixture 1, Liquid mixture 2, Gas
Property: Vapor or sublimation pressure, kPa (Liquid mixture 1); method: Closed cell (Static) method
Temperature, K	Solvent: Mass fraction of N-methyldiethanolamine	Vapor or sublimation pressure, kPa	uncertainty
283.15	0.25	3021	10
288.15	0.25	3377	11
293.15	0.25	3767	12
298.15	0.25	4191	14
303.15	0.25	4712	15
305.15	0.25	5036	16
283.15	0.5	3017	10
288.15	0.5	3377	11
293.15	0.5	3766	12
298.15	0.5	4191	14

System: propane + N-methyldiethanolamine + water; phases: Liquid mixture 1, Liquid mixture 2, Gas
Property: Vapor or sublimation pressure, kPa (Liquid mixture 1); method: Closed cell (Static) method
Temperature, K	Solvent: Mass fraction of N-methyldiethanolamine	Vapor or sublimation pressure, kPa	uncertainty
298.15	0.25	955	3
303.15	0.25	1082	4
308.15	0.25	1223	4
313.15	0.25	1377	5
323.15	0.25	1725	6
333.15	0.25	2137	7
298.15	0.5	952	3
303.15	0.5	1080	4
313.15	0.5	1376	5
323.15	0.5	1722	6
333.15	0.5	2133	7

System: propane + N-methyldiethanolamine + water; phases: Liquid, Gas
Fixed: Temperature, K = 283.15
Property: Mole fraction of propane (Liquid); method: Chromatography
Pressure, kPa	Solvent: Mass fraction of N-methyldiethanolamine	Mole fraction of propane	uncertainty
355	0.25	0.000159	4e-05
545	0.25	0.000227	4e-05
742	0.25	0.000302	4e-05
875	0.25	0.000345	4e-05
368	0.5	0.000362	4e-05
554	0.5	0.000524	4e-05
699	0.5	0.000645	4e-05
851	0.5	0.000759	4e-05

System: propane + N-methyldiethanolamine + water; phases: Liquid mixture 1, Liquid mixture 2, Gas
Property: Mole fraction of propane (Liquid mixture 1); method: Chromatography
Temperature, K	Solvent: Mass fraction of N-methyldiethanolamine	Mole fraction of propane	uncertainty
298.15	0.25	0.00386	0.00018
303.15	0.25	0.00392	0.00018
308.15	0.25	0.00394	0.00018
313.15	0.25	0.00406	0.00018
323.15	0.25	0.00427	0.00018
333.15	0.25	0.00472	0.00018
298.15	0.5	0.00827	0.00019
303.15	0.5	0.00888	0.00019
313.15	0.5	0.01048	0.00019
323.15	0.5	0.01198	0.0002
333.15	0.5	0.01452	0.00021

System: propane + N-methyldiethanolamine + water; phases: Liquid mixture 1, Liquid mixture 2, Gas
Property: Vapor or sublimation pressure, kPa (Liquid mixture 1); method: Closed cell (Static) method
Temperature, K	Solvent: Mass fraction of N-methyldiethanolamine	Vapor or sublimation pressure, kPa	uncertainty
298.15	0.25	955	3
303.15	0.25	1082	4
308.15	0.25	1223	4
313.15	0.25	1377	5
323.15	0.25	1725	6
333.15	0.25	2137	7
298.15	0.5	952	3
303.15	0.5	1080	4
313.15	0.5	1376	4
323.15	0.5	1722	6
333.15	0.5	2133	7

System: ethane + diethanolamine + water; phases: Liquid mixture 1, Liquid mixture 2, Gas
Fixed: Solvent: Mass fraction of diethanolamine = 0.35
Property: Vapor or sublimation pressure, kPa (Liquid mixture 1); method: Closed cell (Static) method
Temperature, K	Vapor or sublimation pressure, kPa	uncertainty
283.15	3023	10
288.15	3381	11
293.15	3770	13
298.15	4195	14
303.15	4662	15
305.15	4891	16

System: ethane + diethanolamine + water; phases: Liquid, Gas
Fixed: Solvent: Mass fraction of diethanolamine = 0.35
Fixed: Temperature, K = 283.15
Property: Mole fraction of ethane (Liquid); method: Chromatography
Pressure, kPa	Mole fraction of ethane	uncertainty
1.243	0.000407	0.00012
1.325	0.000693	0.00012
1.539	0.001099	0.00012
1.994	0.001346	0.00012
2.503	0.001458	0.00012
2.945	0.001586	0.000121

System: ethane + diethanolamine + water; phases: Liquid mixture 1, Liquid mixture 2, Gas
Fixed: Solvent: Mass fraction of diethanolamine = 0.35
Property: Mole fraction of ethane (Liquid mixture 1); method: Chromatography
Temperature, K	Mole fraction of ethane	uncertainty
283.15	0.0016	0.00018
288.15	0.00157	0.00018
293.15	0.00153	0.00018
298.15	0.0015	0.00018
303.15	0.00154	0.00018
305.15	0.00144	0.00018

System: ethane + diethanolamine + water; phases: Liquid mixture 1, Liquid mixture 2, Gas
Property: Vapor or sublimation pressure, kPa (Liquid mixture 1); method: Closed cell (Static) method
Temperature, K	Solvent: Mass fraction of diethanolamine	Vapor or sublimation pressure, kPa	uncertainty
283.15	0.25	3021	10
288.15	0.25	3377	11
293.15	0.25	3767	12
298.15	0.25	4191	14
303.15	0.25	4712	15
305.15	0.25	5036	16
283.15	0.5	3017	10
288.15	0.5	3377	11
293.15	0.5	3766	12
298.15	0.5	4191	14
283.15	0.35	3023	10
288.15	0.35	3381	11
293.15	0.35	3770	12
298.15	0.35	4195	14
303.15	0.35	4662	15
305.15	0.35	4891	16

System: propane + diethanolamine + water; phases: Liquid mixture 1, Liquid mixture 2, Gas
Fixed: Solvent: Mass fraction of diethanolamine = 0.35
Property: Vapor or sublimation pressure, kPa (Liquid mixture 1); method: Closed cell (Static) method
Temperature, K	Vapor or sublimation pressure, kPa	uncertainty
298.15	961	3
303.15	1087	4
313.15	1381	5
323.15	1728	6
333.15	2140	7

System: propane + diethanolamine + water; phases: Liquid, Gas
Fixed: Solvent: Mass fraction of diethanolamine = 0.35
Fixed: Temperature, K = 283.15
Property: Mole fraction of propane (Liquid); method: Chromatography
Pressure, kPa	Mole fraction of propane	uncertainty
515	0.00025	4e-05
660	0.000315	4e-05
803	0.000367	4e-05

System: propane + diethanolamine + water; phases: Liquid mixture 1, Liquid mixture 2, Gas
Fixed: Solvent: Mass fraction of diethanolamine = 0.35
Property: Mole fraction of propane (Liquid mixture 1); method: Chromatography
Temperature, K	Mole fraction of propane	uncertainty
298.15	0.00414	0.00018
303.15	0.00451	0.00018
313.15	0.00473	0.00018
323.15	0.00497	0.00018
333.15	0.00525	0.00018

System: propane + diethanolamine + water; phases: Liquid mixture 1, Liquid mixture 2, Gas
Fixed: Solvent: Mass fraction of diethanolamine = 0.35
Property: Vapor or sublimation pressure, kPa (Liquid mixture 1); method: Closed cell (Static) method
Temperature, K	Vapor or sublimation pressure, kPa	uncertainty
298.15	961	3
303.15	1087	4
313.15	1381	5
323.15	1728	6
333.15	2140	7
