Measured thermophysical data. Vapor Liquid Equilibrium for Several Compounds Relevant to the Biofuels Industry Modeled with the Wilson Equation
Source: J. Chem. Eng. Data, 2014, 10.1021/je400885z
Compound 1: 1-methoxy-2-propanol, C4H10O2, InChI=1S/C4H10O2/c1-4(5)3-6-2/h4-5H,3H2,1-2H3, purity 98%
Compound 2: 2-furaldehyde, C5H4O2, InChI=1S/C5H4O2/c6-4-5-2-1-3-7-5/h1-4H, purity 99%
Compound 3: 2-propenol, C3H6O, InChI=1S/C3H6O/c1-2-3-4/h2,4H,1,3H2, purity 99%
Compound 4: butyl ethanoate, C6H12O2, InChI=1S/C6H12O2/c1-3-4-5-8-6(2)7/h3-5H2,1-2H3, purity 99.5%
Compound 5: carbon dioxide, CO2, InChI=1S/CO2/c2-1-3, purity 99.99%
Compound 6: carbon disulfide, CS2, InChI=1S/CS2/c2-1-3, purity 99.9%
Compound 7: carbonyl sulfide, COS, InChI=1S/COS/c2-1-3, purity 99%
Compound 8: 2-aminoethan-1-ol, C2H7NO, InChI=1S/C2H7NO/c3-1-2-4/h4H,1-3H2, purity 99%
Compound 9: ethyl acetate, C4H8O2, InChI=1S/C4H8O2/c1-3-6-4(2)5/h3H2,1-2H3, purity 99.8%
Compound 10: butan-1-ol, C4H10O, InChI=1S/C4H10O/c1-2-3-4-5/h5H,2-4H2,1H3, purity 99.5%
Compound 11: pentane, C5H12, InChI=1S/C5H12/c1-3-5-4-2/h3-5H2,1-2H3, purity 99%
Compound 12: 2-methylpropan-2-ol, C4H10O, InChI=1S/C4H10O/c1-4(2,3)5/h5H,1-3H3, purity 99.5%

System: 1-methoxy-2-propanol; phases: Liquid, Gas
Property: Vapor or sublimation pressure, kPa (Liquid); method: CCELL:UFactor:8
Temperature, K	Vapor or sublimation pressure, kPa	uncertainty
373.15	50.45	1.2
423.15	232.93	3.01
373.15	48.26	1.19
423.15	230.6	2.98
373.15	48.55	1.19
423.15	232.13	3
423.15	231.95	2.99
473.15	739.81	9.36

System: 2-furaldehyde; phases: Liquid, Gas
Property: Vapor or sublimation pressure, kPa (Liquid); method: CCELL:UFactor:8
Temperature, K	Vapor or sublimation pressure, kPa	uncertainty
373.15	14.62	1.03
423.15	77.51	1.37
373.15	14.65	1.03
423.15	76.13	1.36

System: 2-propenol; phases: Liquid, Gas
Property: Vapor or sublimation pressure, kPa (Liquid); method: CCELL:UFactor:8
Temperature, K	Vapor or sublimation pressure, kPa	uncertainty
373.15	113.1	1.72
423.15	520.67	6.55
373.15	109.94	1.69
423.15	518.64	6.52
373.15	109.95	1.69
423.15	518.11	6.52

System: butyl ethanoate; phases: Liquid, Gas
Property: Vapor or sublimation pressure, kPa (Liquid); method: CCELL:UFactor:8
Temperature, K	Vapor or sublimation pressure, kPa	uncertainty
373.15	44.71	1.16
423.15	195.63	2.5
373.15	42.55	1.15
423.15	188.81	2.43
423.15	191.33	2.45
473.15	583.23	7.31

System: carbon dioxide; phases: Liquid, Gas
Property: Vapor or sublimation pressure, kPa (Liquid); method: CCELL:UFactor:8
Temperature, K	Vapor or sublimation pressure, kPa	uncertainty
248.15	1672.6	21.1
273.15	3485.1	43.4

System: carbon disulfide; phases: Liquid, Gas
Property: Vapor or sublimation pressure, kPa (Liquid); method: CCELL:UFactor:8
Temperature, K	Vapor or sublimation pressure, kPa	uncertainty
248.15	4.5	1.01
273.15	17.3	1.03

System: carbonyl sulfide; phases: Liquid, Gas
Property: Vapor or sublimation pressure, kPa (Liquid); method: CCELL:UFactor:8
Temperature, K	Vapor or sublimation pressure, kPa	uncertainty
248.15	282.15	3.64
273.15	638.23	8.03
248.15	287.13	3.7
273.15	651.42	8.19

System: 2-aminoethan-1-ol; phases: Liquid, Gas
Property: Vapor or sublimation pressure, kPa (Liquid); method: CCELL:UFactor:8
Temperature, K	Vapor or sublimation pressure, kPa	uncertainty
373.15	6.16	1.01
423.15	50.62	1.18
373.15	6.17	1.01
423.15	52.71	1.2
373.15	6.64	1.01
423.15	51.97	1.19

System: ethyl acetate; phases: Liquid, Gas
Property: Vapor or sublimation pressure, kPa (Liquid); method: CCELL:UFactor:8
Temperature, K	Vapor or sublimation pressure, kPa	uncertainty
373.15	202.9	2.62
423.15	687.53	8.6

System: butan-1-ol; phases: Liquid, Gas
Property: Vapor or sublimation pressure, kPa (Liquid); method: CCELL:UFactor:8
Temperature, K	Vapor or sublimation pressure, kPa	uncertainty
333.15	8.39	1.01
393.15	110.26	1.65

System: pentane; phases: Liquid, Gas
Property: Vapor or sublimation pressure, kPa (Liquid); method: CCELL:UFactor:8
Temperature, K	Vapor or sublimation pressure, kPa	uncertainty
333.15	215.21	2.8
393.15	917.75	11.49

System: 2-methylpropan-2-ol; phases: Liquid, Gas
Property: Vapor or sublimation pressure, kPa (Liquid); method: CCELL:UFactor:8
Temperature, K	Vapor or sublimation pressure, kPa	uncertainty
373.15	192.46	2.53
423.15	818.16	10.23
373.15	191.18	2.52
423.15	816.37	10.21

System: carbon dioxide + carbonyl sulfide; phases: Liquid, Gas
Property: Vapor or sublimation pressure, kPa (Liquid); method: CCELL:UFactor:8
Temperature, K	Mole fraction of carbonyl sulfide	Vapor or sublimation pressure, kPa	uncertainty
248.15	1	282.15	7.18
248.15	0.979	340.21	8.62
248.15	0.9573	394.78	9.97
248.15	0.933	462.16	11.65
248.15	0.9096	515.73	12.98
248.15	0.8638	613.55	15.41
248.15	0.8209	696.2	17.47
248.15	0.7716	782.76	19.62
248.15	0.7138	875.57	21.92
248.15	0.6664	944.79	23.64
248.15	0.6178	1008.5	25.2
248.15	0.5625	1079.2	27
248.15	0.5121	1125	28.1
248.15	0.511	1141.8	28.5
248.15	0.4636	1180.5	29.5
248.15	0.4586	1205	30.1
248.15	0.4146	1234.4	30.8
248.15	0.4082	1254.8	31.3
248.15	0.3621	1291.7	32.3
248.15	0.3114	1344.3	33.6
248.15	0.2602	1397.8	34.9
248.15	0.21	1451.2	36.2
248.15	0.1629	1501.5	37.5
248.15	0.106	1562.7	39
248.15	0.0833	1584.9	39.6
248.15	0.0568	1619.2	40.4
248.15	0.0459	1629.8	40.7
248.15	0.0281	1648.8	41.1
248.15	0.0121	1666.3	41.6
248.15	0	1672.6	41.7
273.15	1	638.23	16.01
273.15	0.9803	728.7	18.26
273.15	0.9598	816.82	20.45
273.15	0.9367	929.52	23.25
273.15	0.9144	1018.9	25.5
273.15	0.8701	1187.5	29.7
273.15	0.8281	1338.8	33.4
273.15	0.7793	1501.9	37.5
273.15	0.7215	1680.7	41.9
273.15	0.6736	1821.8	45.4
273.15	0.6244	1957.7	48.8
273.15	0.568	2106.9	52.4
273.15	0.5152	2239.8	55.7
273.15	0.514	2207.6	54.9
273.15	0.4666	2315.5	57.6
273.15	0.4615	2373.5	59
273.15	0.4185	2431.2	60.5
273.15	0.4099	2497.7	62.1
273.15	0.3669	2558.2	63.6
273.15	0.3167	2677.1	66.6
273.15	0.2658	2801.8	69.6
273.15	0.2155	2926.5	72.7
273.15	0.1679	3042.6	75.6
273.15	0.1098	3203.7	79.6
273.15	0.0866	3265.3	81.1
273.15	0.0592	3348.9	83.2
273.15	0.0478	3372.7	83.8
273.15	0.0294	3420.9	85
273.15	0.0127	3462.3	86
273.15	0	3485.1	86.6

System: carbon disulfide + carbonyl sulfide; phases: Liquid, Gas
Property: Vapor or sublimation pressure, kPa (Liquid); method: CCELL:UFactor:8
Temperature, K	Mole fraction of carbon disulfide	Vapor or sublimation pressure, kPa	uncertainty
248.15	1	4.5	1.02
248.15	0.9724	19.18	1.14
248.15	0.945	32.03	1.31
248.15	0.9203	42.78	1.48
248.15	0.8938	53.61	1.67
248.15	0.8346	76.24	2.1
248.15	0.7772	97.5	2.55
248.15	0.7246	114.28	2.97
248.15	0.6675	131.34	3.39
248.15	0.6158	146.95	3.78
248.15	0.5663	162.97	4.18
248.15	0.5597	161.49	4.15
248.15	0.51	172.75	4.43
248.15	0.4595	184.23	4.71
248.15	0.4585	188.64	4.82
248.15	0.4094	195.02	4.99
248.15	0.3592	206.46	5.27
248.15	0.3085	216.76	5.53
248.15	0.2582	226.4	5.77
248.15	0.2071	240.15	6.12
248.15	0.1552	251.27	6.4
248.15	0.1064	263.3	6.7
248.15	0.0786	270.58	6.88
248.15	0.0516	277.26	7.05
248.15	0.0265	283.84	7.22
248.15	0	287.13	7.3
273.15	1	17.3	1.12
273.15	0.9731	43.06	1.48
273.15	0.9464	67.04	1.91
273.15	0.9221	88.45	2.34
273.15	0.8961	110.3	2.86
273.15	0.8377	155.79	3.99
273.15	0.7807	198.63	5.05
273.15	0.7283	233.59	5.92
273.15	0.6711	269.52	6.81
273.15	0.6192	302.46	7.63
273.15	0.5692	337.5	8.5
273.15	0.5612	348.36	8.77
273.15	0.5216	365.73	9.21
273.15	0.512	375.1	9.44
273.15	0.4618	401.48	10.09
273.15	0.4604	394.26	9.92
273.15	0.412	426.58	10.72
273.15	0.3621	453.14	11.38
273.15	0.3115	477.63	11.99
273.15	0.2612	502.33	12.61
273.15	0.21	529.45	13.29
273.15	0.1578	559.53	14.04
273.15	0.1083	586.91	14.72
273.15	0.0801	603.7	15.14
273.15	0.0527	621.84	15.6
273.15	0.0271	638.15	16.01
273.15	0	651.42	16.34

System: butan-1-ol + pentane; phases: Liquid, Gas
Property: Vapor or sublimation pressure, kPa (Liquid); method: CCELL:UFactor:8
Temperature, K	Mole fraction of butan-1-ol	Vapor or sublimation pressure, kPa	uncertainty
333.15	1	8.39	1.05
333.15	0.9762	24.62	1.21
333.15	0.9549	40.81	1.45
333.15	0.9328	58.61	1.76
333.15	0.9094	71.93	2.02
333.15	0.863	94.64	2.48
333.15	0.8165	113.67	2.96
333.15	0.7671	130.08	3.37
333.15	0.7168	145.09	3.74
333.15	0.6673	155.61	4
333.15	0.6145	164.9	4.24
333.15	0.5819	172.69	4.43
333.15	0.5661	172.34	4.42
333.15	0.5291	178.66	4.58
333.15	0.5131	178.55	4.58
333.15	0.4767	184.72	4.73
333.15	0.4604	184.4	4.73
333.15	0.4242	189.32	4.85
333.15	0.3718	193.21	4.95
333.15	0.318	197.04	5.04
333.15	0.2648	200.69	5.14
333.15	0.2116	202.71	5.19
333.15	0.1585	206.26	5.28
333.15	0.1057	210.17	5.38
333.15	0.1034	209.66	5.36
333.15	0.0893	210.55	5.39
333.15	0.0762	211.17	5.4
333.15	0.0631	211.59	5.41
333.15	0.0502	212.46	5.44
333.15	0.0372	213.23	5.46
333.15	0.0245	214.55	5.49
333.15	0.0124	214.65	5.49
333.15	0	215.21	5.51
393.15	1	110.26	2.86
393.15	0.9811	151.4	3.88
393.15	0.9629	193.56	4.93
393.15	0.944	236.37	5.99
393.15	0.9251	275.62	6.96
393.15	0.8844	350.33	8.82
393.15	0.8392	422.89	10.62
393.15	0.7928	485.71	12.18
393.15	0.7434	543.21	13.61
393.15	0.6927	593.62	14.86
393.15	0.6394	637.92	15.96
393.15	0.5852	675.28	16.89
393.15	0.5772	681.64	17.05
393.15	0.5275	710.62	17.77
393.15	0.5211	713.4	17.84
393.15	0.4777	736.53	18.42
393.15	0.4672	741.86	18.55
393.15	0.4263	761.51	19.04
393.15	0.3734	783.47	19.59
393.15	0.3203	804.63	20.12
393.15	0.2668	824.77	20.62
393.15	0.2109	844.78	21.12
393.15	0.1574	863.52	21.59
393.15	0.1066	882.78	22.08
393.15	0.0808	892.24	22.31
393.15	0.0538	901.62	22.55
393.15	0.0264	912.5	22.82
393.15	0	917.75	22.95

System: 2-propenol + 2-aminoethan-1-ol; phases: Liquid, Gas
Property: Vapor or sublimation pressure, kPa (Liquid); method: CCELL:UFactor:8
Temperature, K	Mole fraction of 2-aminoethan-1-ol	Vapor or sublimation pressure, kPa	uncertainty
373.15	1	6.16	1.03
373.15	0.9755	8.17	1.04
373.15	0.9522	10.24	1.06
373.15	0.9286	12.34	1.08
373.15	0.9059	14	1.09
373.15	0.8584	18.23	1.13
373.15	0.8097	22.67	1.19
373.15	0.7601	26.98	1.24
373.15	0.7117	31.55	1.31
373.15	0.6609	37.1	1.39
373.15	0.6107	42.17	1.48
373.15	0.5705	44.73	1.52
373.15	0.5593	47.48	1.57
373.15	0.5191	49.54	1.6
373.15	0.5089	52.89	1.66
373.15	0.4679	56.02	1.72
373.15	0.4573	59.16	1.78
373.15	0.4159	61.9	1.83
373.15	0.3646	67.49	1.94
373.15	0.3126	74.4	2.08
373.15	0.2605	81.08	2.22
373.15	0.2073	88.06	2.36
373.15	0.1547	95.59	2.52
373.15	0.1032	102.47	2.7
373.15	0.0774	105.82	2.78
373.15	0.0513	109.24	2.87
373.15	0.0258	112.18	2.94
373.15	0	113.1	2.96
423.15	1	50.62	1.61
423.15	0.9758	59.82	1.78
423.15	0.9528	70.54	1.99
423.15	0.9295	77.8	2.13
423.15	0.9071	87.66	2.33
423.15	0.86	108.22	2.82
423.15	0.8116	128.21	3.31
423.15	0.7622	148.41	3.82
423.15	0.7138	169.45	4.34
423.15	0.6629	192.07	4.9
423.15	0.6125	214.96	5.47
423.15	0.5715	225.31	5.73
423.15	0.5609	239.03	6.07
423.15	0.5204	249.11	6.32
423.15	0.5102	262.69	6.66
423.15	0.4695	273.06	6.92
423.15	0.4583	288.59	7.3
423.15	0.4178	299.05	7.56
423.15	0.3667	324.77	8.2
423.15	0.3148	351.06	8.86
423.15	0.2628	379.51	9.57
423.15	0.2095	409.11	10.3
423.15	0.1566	438.75	11.04
423.15	0.1047	468.37	11.78
423.15	0.0786	483.19	12.15
423.15	0.0522	498.02	12.51
423.15	0.0263	513.42	12.9
423.15	0	520.67	13.08

System: 2-methylpropan-2-ol + 2-aminoethan-1-ol; phases: Liquid, Gas
Property: Vapor or sublimation pressure, kPa (Liquid); method: CCELL:UFactor:8
Temperature, K	Mole fraction of 2-aminoethan-1-ol	Vapor or sublimation pressure, kPa	uncertainty
373.15	1	6.17	1.03
373.15	0.9784	13.75	1.09
373.15	0.9568	22.11	1.18
373.15	0.9375	29.11	1.27
373.15	0.916	36.16	1.37
373.15	0.8669	48.6	1.58
373.15	0.8178	58.39	1.76
373.15	0.7717	67.4	1.94
373.15	0.7211	73.75	2.06
373.15	0.6707	85.58	2.3
373.15	0.6201	92.48	2.45
373.15	0.5735	99.56	2.62
373.15	0.567	101.12	2.66
373.15	0.5218	107.09	2.81
373.15	0.5148	108.69	2.85
373.15	0.4712	114.26	2.99
373.15	0.4617	116.04	3.03
373.15	0.4193	122.38	3.19
373.15	0.3664	129.72	3.37
373.15	0.3142	135.54	3.52
373.15	0.2611	144.9	3.75
373.15	0.2089	154.76	4
373.15	0.1556	163.52	4.22
373.15	0.1055	173.14	4.46
373.15	0.0822	177.13	4.56
373.15	0.0623	181.01	4.65
373.15	0.0424	185.36	4.76
373.15	0	192.46	4.94
423.15	1	52.71	1.65
423.15	0.9798	79.21	2.16
423.15	0.9593	105.91	2.76
423.15	0.941	132.56	3.42
423.15	0.9204	159.74	4.1
423.15	0.8728	211.99	5.4
423.15	0.8246	258.65	6.56
423.15	0.7787	297.64	7.52
423.15	0.728	338.1	8.53
423.15	0.6771	374.24	9.43
423.15	0.6258	408.93	10.29
423.15	0.5763	432.11	10.86
423.15	0.5717	443.46	11.14
423.15	0.5252	463.89	11.65
423.15	0.5185	476.7	11.97
423.15	0.4752	494.48	12.41
423.15	0.4643	508.8	12.76
423.15	0.4238	525.54	13.18
423.15	0.3712	559.51	14.02
423.15	0.319	591.77	14.82
423.15	0.2658	626.39	15.68
423.15	0.2133	662.39	16.57
423.15	0.1594	701.12	17.53
423.15	0.1084	739.46	18.48
423.15	0.0846	759.47	18.98
423.15	0.0642	776.76	19.4
423.15	0.0437	793.62	19.82
423.15	0	818.16	20.43

System: 1-methoxy-2-propanol + 2-aminoethan-1-ol; phases: Liquid, Gas
Property: Vapor or sublimation pressure, kPa (Liquid); method: CCELL:UFactor:8
Temperature, K	Mole fraction of 2-aminoethan-1-ol	Vapor or sublimation pressure, kPa	uncertainty
373.15	1	6.64	1.04
373.15	0.9755	7.72	1.04
373.15	0.9501	9.41	1.05
373.15	0.9271	10.59	1.06
373.15	0.9039	12.81	1.08
373.15	0.8564	15.55	1.11
373.15	0.8077	18.12	1.13
373.15	0.759	20.32	1.16
373.15	0.7089	23.04	1.19
373.15	0.6581	25.49	1.22
373.15	0.6073	27.78	1.25
373.15	0.57	30.32	1.29
373.15	0.5575	30.24	1.29
373.15	0.5203	32.2	1.32
373.15	0.5071	32.85	1.33
373.15	0.4692	33.95	1.34
373.15	0.4557	34.9	1.36
373.15	0.4181	35.76	1.37
373.15	0.3661	37.51	1.4
373.15	0.3148	39.17	1.43
373.15	0.2629	40.93	1.46
373.15	0.2109	42.72	1.49
373.15	0.1582	44.7	1.52
373.15	0.1058	46.67	1.56
373.15	0.0791	47.77	1.58
373.15	0.0532	48.49	1.59
373.15	0.0273	50.07	1.62
373.15	0	50.45	1.63
423.15	1	51.97	1.64
423.15	0.9759	58.49	1.76
423.15	0.9508	66.05	1.9
423.15	0.928	72.22	2.02
423.15	0.905	78.71	2.15
423.15	0.8577	90.05	2.38
423.15	0.8092	97.46	2.55
423.15	0.7605	107.11	2.79
423.15	0.7103	117.09	3.04
423.15	0.6594	127.24	3.3
423.15	0.6084	136.45	3.53
423.15	0.5706	141.03	3.64
423.15	0.5584	146.1	3.77
423.15	0.5209	152.74	3.94
423.15	0.5078	153.12	3.95
423.15	0.4699	160.7	4.14
423.15	0.4562	162.07	4.17
423.15	0.4189	167.43	4.31
423.15	0.367	174.1	4.48
423.15	0.3157	182.52	4.69
423.15	0.2638	191.31	4.91
423.15	0.2117	198.86	5.11
423.15	0.1589	207.68	5.33
423.15	0.1064	215.96	5.54
423.15	0.0795	221.36	5.68
423.15	0.0535	225.12	5.77
423.15	0.0275	229.28	5.88
423.15	0	232.93	5.97

System: 1-methoxy-2-propanol + ethyl acetate; phases: Liquid, Gas
Property: Vapor or sublimation pressure, kPa (Liquid); method: CCELL:UFactor:8
Temperature, K	Mole fraction of 1-methoxy-2-propanol	Vapor or sublimation pressure, kPa	uncertainty
373.15	1	48.26	1.59
373.15	0.9819	51.68	1.65
373.15	0.9546	58.01	1.77
373.15	0.9278	63.45	1.87
373.15	0.9049	67.89	1.96
373.15	0.856	77.81	2.15
373.15	0.8072	87.48	2.35
373.15	0.7554	96.61	2.55
373.15	0.7065	105.76	2.78
373.15	0.6556	114.41	2.99
373.15	0.6061	122.43	3.19
373.15	0.5739	127.65	3.32
373.15	0.5549	128.44	3.34
373.15	0.5237	132.24	3.43
373.15	0.5029	136.67	3.54
373.15	0.4721	139.93	3.62
373.15	0.4527	145.28	3.75
373.15	0.4207	147.19	3.8
373.15	0.3681	154.78	3.99
373.15	0.3164	161.22	4.15
373.15	0.2634	168.82	4.33
373.15	0.2106	175.68	4.5
373.15	0.158	182.91	4.68
373.15	0.1046	189.53	4.85
373.15	0.0782	193.64	4.95
373.15	0.0527	197.19	5.04
373.15	0.0268	201.06	5.13
373.15	0	202.9	5.18
423.15	1	230.6	5.92
423.15	0.9822	237.77	6.09
423.15	0.9553	253.31	6.48
423.15	0.9288	268.87	6.87
423.15	0.9061	281.52	7.18
423.15	0.8576	307.91	7.83
423.15	0.8091	333.81	8.47
423.15	0.7573	359.6	9.11
423.15	0.7084	383.36	9.7
423.15	0.6574	408.58	10.32
423.15	0.6076	431.36	10.88
423.15	0.5753	439.48	11.08
423.15	0.5561	455.85	11.48
423.15	0.5256	461.45	11.62
423.15	0.5038	478.01	12.02
423.15	0.4744	484.04	12.17
423.15	0.4532	500.47	12.58
423.15	0.4234	506.37	12.72
423.15	0.3711	529.03	13.27
423.15	0.3196	551.32	13.82
423.15	0.2665	573.97	14.38
423.15	0.2136	597.93	14.97
423.15	0.1606	620.58	15.52
423.15	0.1065	644.89	16.12
423.15	0.0797	656.59	16.41
423.15	0.0538	668.62	16.71
423.15	0.0274	680.44	17
423.15	0	687.53	17.17

System: 2-furaldehyde + 2-propenol; phases: Liquid, Gas
Property: Vapor or sublimation pressure, kPa (Liquid); method: CCELL:UFactor:8
Temperature, K	Mole fraction of 2-furaldehyde	Vapor or sublimation pressure, kPa	uncertainty
373.15	1	14.62	1.1
373.15	0.9759	17.83	1.13
373.15	0.9527	22.27	1.18
373.15	0.9289	26.63	1.23
373.15	0.906	30.63	1.29
373.15	0.858	38.08	1.4
373.15	0.8097	45.13	1.52
373.15	0.76	51.49	1.63
373.15	0.7096	57.79	1.75
373.15	0.6597	62.78	1.85
373.15	0.6096	67.56	1.94
373.15	0.5681	73.19	2.05
373.15	0.5588	72.98	2.05
373.15	0.517	76.54	2.12
373.15	0.5076	77.5	2.14
373.15	0.4651	79.57	2.18
373.15	0.4569	82.23	2.24
373.15	0.4084	83.3	2.26
373.15	0.3573	85.98	2.31
373.15	0.3059	89.25	2.38
373.15	0.254	92.5	2.45
373.15	0.2014	95.98	2.53
373.15	0.1514	98.96	2.61
373.15	0.098	103.28	2.72
373.15	0.0769	104.92	2.76
373.15	0.0508	107.04	2.81
373.15	0.0296	108.74	2.86
373.15	0	109.94	2.89
423.15	1	77.51	2.12
423.15	0.9764	87.27	2.32
423.15	0.9537	100.85	2.63
423.15	0.9303	115.73	3
423.15	0.9077	132.21	3.41
423.15	0.8602	157.63	4.05
423.15	0.8123	185.59	4.74
423.15	0.7627	212.77	5.42
423.15	0.7124	239.23	6.08
423.15	0.6623	264.9	6.71
423.15	0.612	285.61	7.23
423.15	0.5693	307.98	7.79
423.15	0.5609	310.07	7.84
423.15	0.5188	326.03	8.23
423.15	0.5093	331.67	8.38
423.15	0.4673	343.97	8.68
423.15	0.4582	352.6	8.9
423.15	0.4109	363.4	9.16
423.15	0.36	380.73	9.6
423.15	0.3087	399.84	10.07
423.15	0.2568	424.5	10.68
423.15	0.2039	439.35	11.05
423.15	0.1535	459.14	11.55
423.15	0.0996	480.74	12.08
423.15	0.0782	490.57	12.33
423.15	0.0517	500.84	12.58
423.15	0.0301	509.29	12.79
423.15	0	518.64	13.03

System: 2-furaldehyde + 1-methoxy-2-propanol; phases: Liquid, Gas
Property: Vapor or sublimation pressure, kPa (Liquid); method: CCELL:UFactor:8
Temperature, K	Mole fraction of 2-furaldehyde	Vapor or sublimation pressure, kPa	uncertainty
373.15	1	14.65	1.1
373.15	0.9751	16.15	1.11
373.15	0.9509	17.99	1.13
373.15	0.9264	19.47	1.15
373.15	0.9024	20.99	1.16
373.15	0.8527	23.7	1.2
373.15	0.8022	26.3	1.23
373.15	0.7528	28.39	1.26
373.15	0.7022	30.63	1.29
373.15	0.6514	32.65	1.32
373.15	0.6011	34.54	1.35
373.15	0.5496	36.53	1.38
373.15	0.5124	38.62	1.42
373.15	0.4996	38.51	1.41
373.15	0.4612	39.4	1.43
373.15	0.4102	40.07	1.44
373.15	0.359	40.79	1.45
373.15	0.3075	41.85	1.47
373.15	0.2553	42.79	1.49
373.15	0.2046	44.06	1.51
373.15	0.1517	45.13	1.53
373.15	0.1011	46.3	1.55
373.15	0.0753	47.02	1.56
373.15	0.0529	47.43	1.57
373.15	0.032	48.22	1.59
373.15	0	48.55	1.59
423.15	1	76.13	2.1
423.15	0.9754	80.88	2.19
423.15	0.9515	84.63	2.27
423.15	0.9272	94.29	2.47
423.15	0.9034	102.14	2.67
423.15	0.854	111.63	2.9
423.15	0.8037	119.25	3.09
423.15	0.7542	130.12	3.37
423.15	0.7036	138.4	3.57
423.15	0.6527	147.3	3.8
423.15	0.6022	155.79	4.01
423.15	0.5639	163.61	4.21
423.15	0.5506	163.59	4.21
423.15	0.5131	172.27	4.43
423.15	0.5004	171.78	4.41
423.15	0.462	176.45	4.53
423.15	0.4491	179.57	4.61
423.15	0.4111	184.75	4.74
423.15	0.36	188.06	4.83
423.15	0.3085	193.56	4.97
423.15	0.2562	200.78	5.15
423.15	0.2055	206.34	5.29
423.15	0.1525	212.74	5.46
423.15	0.1017	220.39	5.65
423.15	0.0757	222.71	5.71
423.15	0.0532	225.6	5.79
423.15	0.0322	228.83	5.87
423.15	0	232.13	5.95

System: 2-propenol + butyl ethanoate; phases: Liquid, Gas
Property: Vapor or sublimation pressure, kPa (Liquid); method: CCELL:UFactor:8
Temperature, K	Mole fraction of butyl ethanoate	Vapor or sublimation pressure, kPa	uncertainty
373.15	1	44.71	1.51
373.15	0.9748	46.42	1.54
373.15	0.9493	49.15	1.59
373.15	0.9235	51.69	1.64
373.15	0.8999	53.96	1.68
373.15	0.8512	58.96	1.77
373.15	0.8018	63.77	1.86
373.15	0.7435	69.27	1.97
373.15	0.7012	72.99	2.04
373.15	0.6521	76.99	2.13
373.15	0.6014	80.67	2.2
373.15	0.5505	84.41	2.28
373.15	0.4997	88.26	2.36
373.15	0.472	91.11	2.42
373.15	0.4498	91.71	2.43
373.15	0.4196	93.27	2.46
373.15	0.3681	95.81	2.52
373.15	0.3147	98.25	2.59
373.15	0.2621	100.46	2.64
373.15	0.2089	102.39	2.69
373.15	0.1556	104.77	2.75
373.15	0.1042	106.88	2.81
373.15	0.0779	107.83	2.83
373.15	0.0527	108.86	2.86
373.15	0.0264	109.47	2.87
373.15	0	109.95	2.89
423.15	1	195.63	4.98
423.15	0.9754	201.76	5.13
423.15	0.9504	211.77	5.38
423.15	0.925	222.49	5.65
423.15	0.9017	231.83	5.88
423.15	0.8536	252.88	6.4
423.15	0.8047	270.74	6.85
423.15	0.7465	295.15	7.45
423.15	0.7043	310.13	7.83
423.15	0.6552	328.42	8.28
423.15	0.6042	343.55	8.66
423.15	0.576	357.84	9.01
423.15	0.553	361.98	9.12
423.15	0.526	373.71	9.41
423.15	0.5018	379.37	9.55
423.15	0.475	389.11	9.79
423.15	0.4516	395.91	9.96
423.15	0.4228	403.63	10.15
423.15	0.3715	418.72	10.53
423.15	0.3182	433.25	10.89
423.15	0.2654	447.77	11.26
423.15	0.212	462.5	11.62
423.15	0.1581	477.27	11.99
423.15	0.1061	491.21	12.34
423.15	0.0793	497.99	12.51
423.15	0.0537	505.66	12.7
423.15	0.0269	513.29	12.89
423.15	0	518.11	13.01

System: 2-methylpropan-2-ol + butyl ethanoate; phases: Liquid, Gas
Property: Vapor or sublimation pressure, kPa (Liquid); method: CCELL:UFactor:8
Temperature, K	Mole fraction of butyl ethanoate	Vapor or sublimation pressure, kPa	uncertainty
373.15	1	42.55	1.48
373.15	0.9769	46.24	1.54
373.15	0.9521	50.95	1.62
373.15	0.9275	55.84	1.71
373.15	0.9033	60.97	1.81
373.15	0.8555	69.86	1.98
373.15	0.8062	78.05	2.14
373.15	0.7561	86.31	2.31
373.15	0.7061	94.64	2.49
373.15	0.6552	102.39	2.68
373.15	0.6052	110.1	2.87
373.15	0.5545	117.93	3.07
373.15	0.5035	125.28	3.25
373.15	0.4793	127.13	3.3
373.15	0.4524	133.15	3.45
373.15	0.4259	134.05	3.47
373.15	0.3726	141.36	3.66
373.15	0.3204	148.18	3.83
373.15	0.2612	156.25	4.03
373.15	0.2067	163.15	4.2
373.15	0.1582	168.62	4.34
373.15	0.1053	175.97	4.53
373.15	0.0781	179.22	4.61
373.15	0.0519	184.75	4.75
373.15	0.0257	188.7	4.84
373.15	0	191.18	4.91
423.15	1	188.81	4.81
423.15	0.9777	199.48	5.07
423.15	0.9538	213.9	5.43
423.15	0.9299	228.6	5.8
423.15	0.9063	242.64	6.15
423.15	0.8596	271.54	6.86
423.15	0.8111	302.28	7.63
423.15	0.7615	333.22	8.39
423.15	0.7118	365.64	9.2
423.15	0.6608	397.06	9.98
423.15	0.6105	430.18	10.8
423.15	0.5868	444.87	11.16
423.15	0.5593	462.12	11.59
423.15	0.5364	473.01	11.86
423.15	0.5076	494.86	12.41
423.15	0.4849	504.07	12.63
423.15	0.4557	526.64	13.19
423.15	0.4323	535.34	13.41
423.15	0.3796	568.61	14.24
423.15	0.3277	600.31	15.02
423.15	0.2686	638.99	15.98
423.15	0.2136	674.38	16.86
423.15	0.1643	707.68	17.69
423.15	0.11	745.37	18.62
423.15	0.0819	764.67	19.1
423.15	0.0545	784.35	19.59
423.15	0.0271	804	20.08
423.15	0	816.37	20.39

System: 1-methoxy-2-propanol + butyl ethanoate; phases: Liquid, Gas
Property: Vapor or sublimation pressure, kPa (Liquid); method: CCELL:UFactor:8
Temperature, K	Mole fraction of butyl ethanoate	Vapor or sublimation pressure, kPa	uncertainty
423.15	1	191.33	4.89
423.15	0.9694	193.81	4.95
423.15	0.9416	195.37	4.99
423.15	0.9138	198.87	5.08
423.15	0.8878	201.06	5.13
423.15	0.8615	204.14	5.21
423.15	0.8048	208.57	5.32
423.15	0.7523	213.12	5.44
423.15	0.6947	217.87	5.56
423.15	0.6439	221	5.64
423.15	0.5955	223.73	5.71
423.15	0.5437	226.11	5.77
423.15	0.5097	228.79	5.84
423.15	0.4921	228.62	5.84
423.15	0.4599	231.6	5.91
423.15	0.4413	231.39	5.91
423.15	0.4086	233.18	5.96
423.15	0.3568	234.28	5.99
423.15	0.3027	235.24	6.02
423.15	0.2514	236.06	6.04
423.15	0.2019	236.53	6.06
423.15	0.153	236.09	6.05
423.15	0.1048	235.79	6.05
423.15	0.0779	234.74	6.03
423.15	0.0474	234.14	6.02
423.15	0.0188	233.33	6
423.15	0	231.95	5.97
473.15	1	583.23	14.6
473.15	0.9734	589.5	14.76
473.15	0.9487	596.47	14.93
473.15	0.9249	604.12	15.12
473.15	0.9007	609.08	15.25
473.15	0.85	625.35	15.66
473.15	0.7986	638.18	15.98
473.15	0.7478	650.93	16.3
473.15	0.6949	662.66	16.6
473.15	0.6436	672.38	16.85
473.15	0.5914	683.27	17.13
473.15	0.5726	684.93	17.18
473.15	0.5387	693.13	17.39
473.15	0.5227	692.3	17.37
473.15	0.4709	700.71	17.59
473.15	0.4198	707.06	17.76
473.15	0.3668	713.47	17.93
473.15	0.3152	718.92	18.08
473.15	0.261	724.85	18.25
473.15	0.2084	729.53	18.38
473.15	0.1543	734.08	18.51
473.15	0.1021	736.5	18.59
473.15	0.0762	739.12	18.66
473.15	0.0499	738.57	18.66
473.15	0.0244	739.81	18.7
473.15	0	739.81	18.7
