Measured thermophysical data. Diffusion Coefficients of CO2 and N2 in Water at Temperatures between 298.15 K and 423.15 K at Pressures up to 45 MPa
Source: J. Chem. Eng. Data, 2014, 10.1021/je401008s
Compound 1: water, H2O, InChI=1S/H2O/h1H2
Compound 2: carbon dioxide, CO2, InChI=1S/CO2/c2-1-3, purity 99.995%
Compound 3: nitrogen, N2, InChI=1S/N2/c1-2, purity 99.998%

System: nitrogen + water; phases: Liquid
Fixed: Mole fraction of nitrogen = 0
Property: Binary diffusion coefficient, m2/s (Liquid); method: Taylor dispersion method
Temperature, K	Pressure, kPa	Binary diffusion coefficient, m2/s	uncertainty
298	12000	1.989e-09	0.098
298	25000	2e-09	0.099
298	44600	1.979e-09	0.098
323	14600	3.278e-09	0.16
323	25100	3.468e-09	0.169
323	45000	3.203e-09	0.156
373	14800	6.619e-09	0.321
373	45000	6.425e-09	0.311
423	26900	1.073e-08	0.52
423	45900	1.042e-08	0.5

System: carbon dioxide + water; phases: Liquid
Fixed: Mole fraction of carbon dioxide = 0
Property: Binary diffusion coefficient, m2/s (Liquid); method: Taylor dispersion method
Temperature, K	Pressure, kPa	Binary diffusion coefficient, m2/s	uncertainty
298	14000	2.233e-09	0.11
298	31600	2.256e-09	0.111
298	47700	2.218e-09	0.109
323	14200	3.643e-09	0.178
323	31800	3.718e-09	0.181
323	48600	3.938e-09	0.192
348	14900	5.391e-09	0.262
348	31800	5.306e-09	0.258
348	49300	5.366e-09	0.26
373	14900	7.416e-09	0.359
373	31000	7.521e-09	0.364
373	48500	7.681e-09	0.372
398	14300	9.949e-09	0.481
398	30900	1.006e-08	0.49
398	48000	1.017e-08	0.49
423	14300	1.233e-08	0.6
423	48000	1.221e-08	0.59
