Measured thermophysical data. Measurement of Vapor Pressures of Selected PBDEs, Hexabromobenzene, and 1,2-Bis(2,4,6-tribromophenoxy)ethane at Elevated Temperatures
Source: J. Chem. Eng. Data, 2014, 10.1021/je400520e
Compound 1: 2,2',4,4'-tetrabromodiphenyl ether, C12H6Br4O, InChI=1S/C12H6Br4O/c13-7-1-3-11(9(15)5-7)17-12-4-2-8(14)6-10(12)16/h1-6H, purity 99.9%
Compound 2: 2,2',4,4',5-pentabromodiphenyl ether, C12H5Br5O, InChI=1S/C12H5Br5O/c13-6-1-2-11(9(16)3-6)18-12-5-8(15)7(14)4-10(12)17/h1-5H, purity 98.3%
Compound 3: 2,2',4,4',5,5'-hexabromodiphenyl ether, C12H4Br6O, InChI=1S/C12H4Br6O/c13-5-1-9(17)11(3-7(5)15)19-12-4-8(16)6(14)2-10(12)18/h1-4H, purity 99.3%
Compound 4: hexabromobenzene, C6Br6, InChI=1S/C6Br6/c7-1-2(8)4(10)6(12)5(11)3(1)9, purity 98%
Compound 5: 1,2-bis(2,4,6-tribromophenoxy)ethane, C14H8Br6O2, InChI=1S/C14H8Br6O2/c15-7-3-9(17)13(10(18)4-7)21-1-2-22-14-11(19)5-8(16)6-12(14)20/h3-6H,1-2H2, purity 95%
Compound 6: anthracene, C14H10, InChI=1S/C14H10/c1-2-6-12-10-14-8-4-3-7-13(14)9-11(12)5-1/h1-10H, purity 99%
Compound 7: pyrene, C16H10, InChI=1S/C16H10/c1-3-11-7-9-13-5-2-6-14-10-8-12(4-1)15(11)16(13)14/h1-10H, purity 99%

System: 2,2',4,4'-tetrabromodiphenyl ether; phases: Crystal, Gas
Property: Vapor or sublimation pressure, kPa (Crystal); method: Transpiration method
Temperature, K	Vapor or sublimation pressure, kPa	uncertainty
313.54	2.54e-07	8.8e-08
323.6	9.18e-07	1.2e-07
333.47	3.16e-06	2.4e-07
343.36	8.63e-06	6.1e-07
353.37	2.42e-05	1.9e-06

System: 2,2',4,4'-tetrabromodiphenyl ether; phases: Liquid, Gas
Property: Vapor or sublimation pressure, kPa (Liquid); method: Transpiration method
Temperature, K	Vapor or sublimation pressure, kPa	uncertainty
363.45	7.18e-05	6.5e-06

System: 2,2',4,4',5-pentabromodiphenyl ether; phases: Crystal, Gas
Property: Vapor or sublimation pressure, kPa (Crystal); method: Transpiration method
Temperature, K	Vapor or sublimation pressure, kPa	uncertainty
323.6	1.32e-07	8.3e-08
333.51	5.35e-07	9.9e-08
343.46	1.82e-06	1.7e-07
353.5	4.86e-06	2.7e-07

System: 2,2',4,4',5-pentabromodiphenyl ether; phases: Liquid, Gas
Property: Vapor or sublimation pressure, kPa (Liquid); method: Transpiration method
Temperature, K	Vapor or sublimation pressure, kPa	uncertainty
363.39	1.29e-05	9e-07
373.56	4.24e-05	2.7e-06

System: 2,2',4,4',5,5'-hexabromodiphenyl ether; phases: Crystal, Gas
Property: Vapor or sublimation pressure, kPa (Crystal); method: Transpiration method
Temperature, K	Vapor or sublimation pressure, kPa	uncertainty
343.44	2.25e-08	1e-08
353.11	1.29e-07	6e-08
363.19	4.26e-07	9.4e-08
373.17	1.37e-06	1.5e-07
383.16	4.43e-06	2.9e-07
392.81	1.5e-05	7e-07

System: hexabromobenzene; phases: Crystal, Gas
Property: Vapor or sublimation pressure, kPa (Crystal); method: Transpiration method
Temperature, K	Vapor or sublimation pressure, kPa	uncertainty
363.28	2.33e-06	2.1e-07
373.39	7.39e-06	5.6e-07
383.22	1.78e-05	1.2e-06
392.95	4.48e-05	3.9e-06
402.92	0.000116	1e-05
412.93	0.000255	1.8e-05

System: 1,2-bis(2,4,6-tribromophenoxy)ethane; phases: Crystal, Liquid, Air at 1 atmosphere
Property: Molar enthalpy of transition or fusion, kJ/mol (Crystal); method: DSC
Molar enthalpy of transition or fusion, kJ/mol	uncertainty
36.8	3.7

System: 1,2-bis(2,4,6-tribromophenoxy)ethane; phases: Crystal, Liquid, Air at 1 atmosphere
Property: Normal melting temperature, K (Crystal); method: DTA
Normal melting temperature, K	uncertainty
500.4	1.1

System: 1,2-bis(2,4,6-tribromophenoxy)ethane; phases: Crystal, Gas
Property: Vapor or sublimation pressure, kPa (Crystal); method: Transpiration method
Temperature, K	Vapor or sublimation pressure, kPa	uncertainty
373.38	2.09e-08	1e-08
383.23	7.87e-08	3e-08
392.86	2.38e-07	8.7e-08
403.16	8.68e-07	1.14e-07
412.64	3.44e-06	2.5e-07
422.81	1.1e-05	1.1e-06

System: anthracene; phases: Crystal, Gas
Property: Vapor or sublimation pressure, kPa (Crystal); method: Transpiration method
Temperature, K	Vapor or sublimation pressure, kPa	uncertainty
308.62	2.79e-06	2.6e-07
313.7	5.41e-06	3.2e-07
323.59	1.83e-05	1e-06
333.63	5.99e-05	4.2e-06
343.6	0.000164	1.1e-05

System: pyrene; phases: Crystal, Gas
Property: Vapor or sublimation pressure, kPa (Crystal); method: Transpiration method
Temperature, K	Vapor or sublimation pressure, kPa	uncertainty
313.61	3.64e-06	4.5e-07
323.81	1.41e-05	8e-07
333.53	4.56e-05	3.4e-06
343.36	0.000121	1.1e-05
353.24	0.000329	1.6e-05
363.63	0.000827	3.6e-05
