Measured thermophysical data. Solubility and Transfer Processes of Some Hydrazones in Biologically Relevant Solvents
Source: J. Chem. Eng. Data, 2013, 10.1021/je400557z
Compound 1: 2-pyridinecarboxaldehyde, 2-(2-quinolinyl)hydrazone, C15H12N4, InChI=1S/C15H12N4/c1-2-7-14-12(5-1)8-9-15(18-14)19-17-11-13-6-3-4-10-16-13/h1-11H,(H,18,19)/b17-11+
Compound 2: 2-pyridinecarboxaldehyde, 2-(2-pyridinyl)hydrazone, C11H10N4, InChI=1S/C11H10N4/c1-3-7-12-10(5-1)9-14-15-11-6-2-4-8-13-11/h1-9H,(H,13,15)/b14-9+
Compound 3: 2-pyridinecarboxaldehyde, 2-(6-chloro-4-pyrimidinyl)hydrazone, C10H8ClN5, InChI=1S/C10H8ClN5/c11-9-5-10(14-7-13-9)16-15-6-8-3-1-2-4-12-8/h1-7H,(H,13,14,16)/b15-6+
Compound 4: ethanone, 1-(2-pyridinyl)-, O-(6-chloro-4-pyrimidinyl)oxime, C11H9ClN4O, InChI=1S/C11H9ClN4O/c1-8(9-4-2-3-5-13-9)16-17-11-6-10(12)14-7-15-11/h2-7H,1H3/b16-8+
Compound 5: benzaldehyde, 2-(2-pyridinyl)hydrazone, C12H11N3, InChI=1S/C12H11N3/c1-2-6-11(7-3-1)10-14-15-12-8-4-5-9-13-12/h1-10H,(H,13,15)/b14-10+
Compound 6: 2-pyridinecarboxaldehyde, 2-phenylhydrazone, C12H11N3, InChI=1S/C12H11N3/c1-2-6-11(7-3-1)15-14-10-12-8-4-5-9-13-12/h1-10,15H/b14-10+
Compound 7: 3-pyridinecarboxaldehyde, 2-(2-pyridinyl)hydrazone, C11H10N4, InChI=1S/C11H10N4/c1-2-7-13-11(5-1)15-14-9-10-4-3-6-12-8-10/h1-9H,(H,13,15)/b14-9+
Compound 8: 2,6-pyridinedicarboxaldehyde, 2,6-bis[2-(2-pyridinyl)hydrazone], C17H15N7, InChI=1S/C17H15N7/c1-3-10-18-16(8-1)23-20-12-14-6-5-7-15(22-14)13-21-24-17-9-2-4-11-19-17/h1-13H,(H,18,23)(H,19,24)/b20-12+,21-13+
Compound 9: ethanone, 1-(2-pyridinyl)-, 2-(2-quinolinyl)hydrazone, C16H14N4, InChI=1S/C16H14N4/c1-12(14-7-4-5-11-17-14)19-20-16-10-9-13-6-2-3-8-15(13)18-16/h2-11H,1H3,(H,18,20)/b19-12+
Compound 10: 2-pyridinecarboxaldehyde, 5-(phenylmethoxy)-, 2-(1-phthalazinyl)hydrazone, C21H17N5O, InChI=1S/C21H17N5O/c1-2-6-16(7-3-1)15-27-19-11-10-18(22-14-19)13-24-26-21-20-9-5-4-8-17(20)12-23-25-21/h1-14H,15H2,(H,25,26)/b24-13+
Compound 11: benzophenone, 2-quinolylhydrazone, C22H17N3, InChI=1S/C22H17N3/c1-3-10-18(11-4-1)22(19-12-5-2-6-13-19)25-24-21-16-15-17-9-7-8-14-20(17)23-21/h1-16H,(H,23,24)
Compound 12: 1-propanone, 1-(2-pyridinyl)-, 2-(1-phthalazinyl)hydrazone, C16H15N5, InChI=1S/C16H15N5/c1-2-14(15-9-5-6-10-17-15)19-21-16-13-8-4-3-7-12(13)11-18-20-16/h3-11H,2H2,1H3,(H,20,21)/b19-14-
Compound 13: ethanone, 1-(2-pyridinyl)-, 2-(1-phthalazinyl)hydrazone, C15H13N5, InChI=1S/C15H13N5/c1-11(14-8-4-5-9-16-14)18-20-15-13-7-3-2-6-12(13)10-17-19-15/h2-10H,1H3,(H,19,20)/b18-11+
Compound 14: methanone, phenyl-2-pyridinyl-, 2-(6-chloro-3-pyridazinyl)hydrazone, C16H12ClN5, InChI=1S/C16H12ClN5/c17-14-9-10-15(20-19-14)21-22-16(12-6-2-1-3-7-12)13-8-4-5-11-18-13/h1-11H,(H,20,21)/b22-16-
Compound 15: methanone, phenyl-2-pyridinyl-, 2-(6-chloro-4-pyrimidinyl)hydrazone, C16H12ClN5, InChI=1S/C16H12ClN5/c17-14-10-15(20-11-19-14)21-22-16(12-6-2-1-3-7-12)13-8-4-5-9-18-13/h1-11H,(H,19,20,21)/b22-16-
Compound 16: 2-pyridinecarboxaldehyde, 5-(phenylmethoxy)-, 2-(6-chloro-4-pyrimidinyl)hydrazone, C17H14ClN5O, InChI=1S/C17H14ClN5O/c18-16-8-17(21-12-20-16)23-22-9-14-6-7-15(10-19-14)24-11-13-4-2-1-3-5-13/h1-10,12H,11H2,(H,20,21,23)/b22-9+
Compound 17: ethanone, 1-(2-pyridinyl)-, 2-(6-chloro-4-pyrimidinyl)hydrazone, C11H10ClN5, InChI=1S/C11H10ClN5/c1-8(9-4-2-3-5-13-9)16-17-11-6-10(12)14-7-15-11/h2-7H,1H3,(H,14,15,17)/b16-8+
Compound 18: 1-propanone, 1-(2-pyridinyl)-, 2-(6-chloro-4-pyrimidinyl)hydrazone, C12H12ClN5, InChI=1S/C12H12ClN5/c1-2-9(10-5-3-4-6-14-10)17-18-12-7-11(13)15-8-16-12/h3-8H,2H2,1H3,(H,15,16,18)/b17-9-
Compound 19: 2-pyridinecarboxaldehyde, 5-(phenylmethoxy)-, 2-(2-pyridinyl)hydrazone, C18H16N4O, InChI=1S/C18H16N4O/c1-2-6-15(7-3-1)14-23-17-10-9-16(20-13-17)12-21-22-18-8-4-5-11-19-18/h1-13H,14H2,(H,19,22)/b21-12+
Compound 20: 2-pyridinecarboxaldehyde, 5-(phenylmethoxy)-, 2-(4-quinazolinyl)hydrazone, C21H17N5O, InChI=1S/C21H17N5O/c1-2-6-16(7-3-1)14-27-18-11-10-17(22-13-18)12-25-26-21-19-8-4-5-9-20(19)23-15-24-21/h1-13,15H,14H2,(H,23,24,26)/b25-12+
Compound 21: water, H2O, InChI=1S/H2O/h1H2
Compound 22: octan-1-ol, C8H18O, InChI=1S/C8H18O/c1-2-3-4-5-6-7-8-9/h9H,2-8H2,1H3
Compound 23: hexane, C6H14, InChI=1S/C6H14/c1-3-5-6-4-2/h3-6H2,1-2H3

System: 2-pyridinecarboxaldehyde, 2-(2-quinolinyl)hydrazone; phases: Crystal, Liquid, Air at 1 atmosphere
Property: Normal melting temperature, K (Crystal); method: DTA
Normal melting temperature, K	uncertainty
475.4	1.1

System: 2-pyridinecarboxaldehyde, 2-(2-quinolinyl)hydrazone; phases: Crystal, Liquid, Air at 1 atmosphere
Property: Molar enthalpy of transition or fusion, kJ/mol (Crystal); method: DSC
Molar enthalpy of transition or fusion, kJ/mol	uncertainty
38	2

System: 2-pyridinecarboxaldehyde, 2-(2-pyridinyl)hydrazone; phases: Crystal, Liquid, Air at 1 atmosphere
Property: Normal melting temperature, K (Crystal); method: DTA
Normal melting temperature, K	uncertainty
455.3	1.1

System: 2-pyridinecarboxaldehyde, 2-(2-pyridinyl)hydrazone; phases: Crystal, Liquid, Air at 1 atmosphere
Property: Molar enthalpy of transition or fusion, kJ/mol (Crystal); method: DSC
Molar enthalpy of transition or fusion, kJ/mol	uncertainty
28	2

System: 2-pyridinecarboxaldehyde, 2-(6-chloro-4-pyrimidinyl)hydrazone; phases: Crystal, Liquid, Air at 1 atmosphere
Property: Normal melting temperature, K (Crystal); method: DTA
Normal melting temperature, K	uncertainty
525.6	1.1

System: 2-pyridinecarboxaldehyde, 2-(6-chloro-4-pyrimidinyl)hydrazone; phases: Crystal, Liquid, Air at 1 atmosphere
Property: Molar enthalpy of transition or fusion, kJ/mol (Crystal); method: DSC
Molar enthalpy of transition or fusion, kJ/mol	uncertainty
50	2

System: ethanone, 1-(2-pyridinyl)-, O-(6-chloro-4-pyrimidinyl)oxime; phases: Crystal, Liquid, Air at 1 atmosphere
Property: Normal melting temperature, K (Crystal); method: DTA
Normal melting temperature, K	uncertainty
370.5	1.1

System: ethanone, 1-(2-pyridinyl)-, O-(6-chloro-4-pyrimidinyl)oxime; phases: Crystal, Liquid, Air at 1 atmosphere
Property: Molar enthalpy of transition or fusion, kJ/mol (Crystal); method: DSC
Molar enthalpy of transition or fusion, kJ/mol	uncertainty
29	2

System: benzaldehyde, 2-(2-pyridinyl)hydrazone; phases: Crystal, Liquid, Air at 1 atmosphere
Property: Normal melting temperature, K (Crystal); method: DTA
Normal melting temperature, K	uncertainty
424.6	1.1

System: benzaldehyde, 2-(2-pyridinyl)hydrazone; phases: Crystal, Liquid, Air at 1 atmosphere
Property: Molar enthalpy of transition or fusion, kJ/mol (Crystal); method: DSC
Molar enthalpy of transition or fusion, kJ/mol	uncertainty
29	2

System: 2-pyridinecarboxaldehyde, 2-phenylhydrazone; phases: Crystal, Liquid, Air at 1 atmosphere
Property: Normal melting temperature, K (Crystal); method: DTA
Normal melting temperature, K	uncertainty
448	1.1

System: 2-pyridinecarboxaldehyde, 2-phenylhydrazone; phases: Crystal, Liquid, Air at 1 atmosphere
Property: Molar enthalpy of transition or fusion, kJ/mol (Crystal); method: DSC
Molar enthalpy of transition or fusion, kJ/mol	uncertainty
34	2

System: 3-pyridinecarboxaldehyde, 2-(2-pyridinyl)hydrazone; phases: Crystal, Liquid, Air at 1 atmosphere
Property: Normal melting temperature, K (Crystal); method: DTA
Normal melting temperature, K	uncertainty
449	1.1

System: 3-pyridinecarboxaldehyde, 2-(2-pyridinyl)hydrazone; phases: Crystal, Liquid, Air at 1 atmosphere
Property: Molar enthalpy of transition or fusion, kJ/mol (Crystal); method: DSC
Molar enthalpy of transition or fusion, kJ/mol	uncertainty
34	2

System: ethanone, 1-(2-pyridinyl)-, 2-(2-quinolinyl)hydrazone; phases: Crystal, Liquid, Air at 1 atmosphere
Property: Normal melting temperature, K (Crystal); method: DTA
Normal melting temperature, K	uncertainty
416.6	1.1

System: ethanone, 1-(2-pyridinyl)-, 2-(2-quinolinyl)hydrazone; phases: Crystal, Liquid, Air at 1 atmosphere
Property: Molar enthalpy of transition or fusion, kJ/mol (Crystal); method: DSC
Molar enthalpy of transition or fusion, kJ/mol	uncertainty
31	2

System: 2-pyridinecarboxaldehyde, 5-(phenylmethoxy)-, 2-(1-phthalazinyl)hydrazone; phases: Crystal, Liquid, Air at 1 atmosphere
Property: Normal melting temperature, K (Crystal); method: DTA
Normal melting temperature, K	uncertainty
433.2	1.1

System: 2-pyridinecarboxaldehyde, 5-(phenylmethoxy)-, 2-(1-phthalazinyl)hydrazone; phases: Crystal, Liquid, Air at 1 atmosphere
Property: Molar enthalpy of transition or fusion, kJ/mol (Crystal); method: DSC
Molar enthalpy of transition or fusion, kJ/mol	uncertainty
40	2

System: benzophenone, 2-quinolylhydrazone; phases: Crystal, Liquid, Air at 1 atmosphere
Property: Normal melting temperature, K (Crystal); method: DTA
Normal melting temperature, K	uncertainty
416.8	1.1

System: benzophenone, 2-quinolylhydrazone; phases: Crystal, Liquid, Air at 1 atmosphere
Property: Molar enthalpy of transition or fusion, kJ/mol (Crystal); method: DSC
Molar enthalpy of transition or fusion, kJ/mol	uncertainty
35	2

System: 1-propanone, 1-(2-pyridinyl)-, 2-(1-phthalazinyl)hydrazone; phases: Crystal, Liquid, Air at 1 atmosphere
Property: Normal melting temperature, K (Crystal); method: DTA
Normal melting temperature, K	uncertainty
415	1.1

System: 1-propanone, 1-(2-pyridinyl)-, 2-(1-phthalazinyl)hydrazone; phases: Crystal, Liquid, Air at 1 atmosphere
Property: Molar enthalpy of transition or fusion, kJ/mol (Crystal); method: DSC
Molar enthalpy of transition or fusion, kJ/mol	uncertainty
34	2

System: ethanone, 1-(2-pyridinyl)-, 2-(1-phthalazinyl)hydrazone; phases: Crystal, Liquid, Air at 1 atmosphere
Property: Normal melting temperature, K (Crystal); method: DTA
Normal melting temperature, K	uncertainty
484.7	1.1

System: ethanone, 1-(2-pyridinyl)-, 2-(1-phthalazinyl)hydrazone; phases: Crystal, Liquid, Air at 1 atmosphere
Property: Molar enthalpy of transition or fusion, kJ/mol (Crystal); method: DSC
Molar enthalpy of transition or fusion, kJ/mol	uncertainty
42	2

System: methanone, phenyl-2-pyridinyl-, 2-(6-chloro-3-pyridazinyl)hydrazone; phases: Crystal, Liquid, Air at 1 atmosphere
Property: Normal melting temperature, K (Crystal); method: DTA
Normal melting temperature, K	uncertainty
440.3	1.1

System: methanone, phenyl-2-pyridinyl-, 2-(6-chloro-3-pyridazinyl)hydrazone; phases: Crystal, Liquid, Air at 1 atmosphere
Property: Molar enthalpy of transition or fusion, kJ/mol (Crystal); method: DSC
Molar enthalpy of transition or fusion, kJ/mol	uncertainty
35	2

System: methanone, phenyl-2-pyridinyl-, 2-(6-chloro-4-pyrimidinyl)hydrazone; phases: Crystal, Liquid, Air at 1 atmosphere
Property: Normal melting temperature, K (Crystal); method: DTA
Normal melting temperature, K	uncertainty
456.3	1.1

System: methanone, phenyl-2-pyridinyl-, 2-(6-chloro-4-pyrimidinyl)hydrazone; phases: Crystal, Liquid, Air at 1 atmosphere
Property: Molar enthalpy of transition or fusion, kJ/mol (Crystal); method: DSC
Molar enthalpy of transition or fusion, kJ/mol	uncertainty
41	2

System: 2-pyridinecarboxaldehyde, 5-(phenylmethoxy)-, 2-(6-chloro-4-pyrimidinyl)hydrazone; phases: Crystal, Liquid, Air at 1 atmosphere
Property: Normal melting temperature, K (Crystal); method: DTA
Normal melting temperature, K	uncertainty
471.9	1.1

System: 2-pyridinecarboxaldehyde, 5-(phenylmethoxy)-, 2-(6-chloro-4-pyrimidinyl)hydrazone; phases: Crystal, Liquid, Air at 1 atmosphere
Property: Molar enthalpy of transition or fusion, kJ/mol (Crystal); method: DSC
Molar enthalpy of transition or fusion, kJ/mol	uncertainty
41	2

System: ethanone, 1-(2-pyridinyl)-, 2-(6-chloro-4-pyrimidinyl)hydrazone; phases: Crystal, Liquid, Air at 1 atmosphere
Property: Normal melting temperature, K (Crystal); method: DTA
Normal melting temperature, K	uncertainty
394.9	1.1

System: ethanone, 1-(2-pyridinyl)-, 2-(6-chloro-4-pyrimidinyl)hydrazone; phases: Crystal, Liquid, Air at 1 atmosphere
Property: Molar enthalpy of transition or fusion, kJ/mol (Crystal); method: DSC
Molar enthalpy of transition or fusion, kJ/mol	uncertainty
35	2

System: 1-propanone, 1-(2-pyridinyl)-, 2-(6-chloro-4-pyrimidinyl)hydrazone; phases: Crystal, Liquid, Air at 1 atmosphere
Property: Normal melting temperature, K (Crystal); method: DTA
Normal melting temperature, K	uncertainty
384.4	1.1

System: 1-propanone, 1-(2-pyridinyl)-, 2-(6-chloro-4-pyrimidinyl)hydrazone; phases: Crystal, Liquid, Air at 1 atmosphere
Property: Molar enthalpy of transition or fusion, kJ/mol (Crystal); method: DSC
Molar enthalpy of transition or fusion, kJ/mol	uncertainty
37	2

System: 2-pyridinecarboxaldehyde, 5-(phenylmethoxy)-, 2-(2-pyridinyl)hydrazone; phases: Crystal, Liquid, Air at 1 atmosphere
Property: Normal melting temperature, K (Crystal); method: DTA
Normal melting temperature, K	uncertainty
433.7	1.1

System: 2-pyridinecarboxaldehyde, 5-(phenylmethoxy)-, 2-(2-pyridinyl)hydrazone; phases: Crystal, Liquid, Air at 1 atmosphere
Property: Molar enthalpy of transition or fusion, kJ/mol (Crystal); method: DSC
Molar enthalpy of transition or fusion, kJ/mol	uncertainty
38	2

System: 2-pyridinecarboxaldehyde, 5-(phenylmethoxy)-, 2-(4-quinazolinyl)hydrazone; phases: Crystal, Liquid, Air at 1 atmosphere
Property: Normal melting temperature, K (Crystal); method: DTA
Normal melting temperature, K	uncertainty
458.3	1.1

System: 2-pyridinecarboxaldehyde, 5-(phenylmethoxy)-, 2-(4-quinazolinyl)hydrazone; phases: Crystal, Liquid, Air at 1 atmosphere
Property: Molar enthalpy of transition or fusion, kJ/mol (Crystal); method: DSC
Molar enthalpy of transition or fusion, kJ/mol	uncertainty
41	2

System: 2-pyridinecarboxaldehyde, 2-(2-quinolinyl)hydrazone + water; phases: Liquid, Crystal
Property: Molality, mol/kg of 2-pyridinecarboxaldehyde, 2-(2-quinolinyl)hydrazone (Liquid); method: Spectroscopy
Temperature, K	Pressure, kPa	Molality, mol/kg of 2-pyridinecarboxaldehyde, 2-(2-quinolinyl)hydrazone	uncertainty
298	101	1.14e-05	9e-07

System: 2-pyridinecarboxaldehyde, 2-(2-pyridinyl)hydrazone + water; phases: Liquid, Crystal
Property: Molality, mol/kg of 2-pyridinecarboxaldehyde, 2-(2-pyridinyl)hydrazone (Liquid); method: Spectroscopy
Temperature, K	Pressure, kPa	Molality, mol/kg of 2-pyridinecarboxaldehyde, 2-(2-pyridinyl)hydrazone	uncertainty
298	101	0.00107	9e-05

System: water + 2-pyridinecarboxaldehyde, 2-(6-chloro-4-pyrimidinyl)hydrazone; phases: Liquid, Crystal
Property: Molality, mol/kg of 2-pyridinecarboxaldehyde, 2-(6-chloro-4-pyrimidinyl)hydrazone (Liquid); method: Spectroscopy
Temperature, K	Pressure, kPa	Molality, mol/kg of 2-pyridinecarboxaldehyde, 2-(6-chloro-4-pyrimidinyl)hydrazone	uncertainty
298	101	3.62e-05	2.9e-06

System: water + ethanone, 1-(2-pyridinyl)-, O-(6-chloro-4-pyrimidinyl)oxime; phases: Liquid, Crystal
Property: Molality, mol/kg of ethanone, 1-(2-pyridinyl)-, O-(6-chloro-4-pyrimidinyl)oxime (Liquid); method: Spectroscopy
Temperature, K	Pressure, kPa	Molality, mol/kg of ethanone, 1-(2-pyridinyl)-, O-(6-chloro-4-pyrimidinyl)oxime	uncertainty
298	101	0.000625	5e-05

System: benzaldehyde, 2-(2-pyridinyl)hydrazone + water; phases: Liquid, Crystal
Property: Molality, mol/kg of benzaldehyde, 2-(2-pyridinyl)hydrazone (Liquid); method: Spectroscopy
Temperature, K	Pressure, kPa	Molality, mol/kg of benzaldehyde, 2-(2-pyridinyl)hydrazone	uncertainty
298	101	8.3e-05	6.6e-06

System: 2-pyridinecarboxaldehyde, 2-phenylhydrazone + water; phases: Liquid, Crystal
Property: Molality, mol/kg of 2-pyridinecarboxaldehyde, 2-phenylhydrazone (Liquid); method: Spectroscopy
Temperature, K	Pressure, kPa	Molality, mol/kg of 2-pyridinecarboxaldehyde, 2-phenylhydrazone	uncertainty
298	101	8.04e-05	6.4e-06

System: water + 3-pyridinecarboxaldehyde, 2-(2-pyridinyl)hydrazone; phases: Liquid, Crystal
Property: Molality, mol/kg of 3-pyridinecarboxaldehyde, 2-(2-pyridinyl)hydrazone (Liquid); method: Spectroscopy
Temperature, K	Pressure, kPa	Molality, mol/kg of 3-pyridinecarboxaldehyde, 2-(2-pyridinyl)hydrazone	uncertainty
298	101	0.0007	5.6e-05

System: water + 2,6-pyridinedicarboxaldehyde, 2,6-bis[2-(2-pyridinyl)hydrazone]; phases: Liquid, Crystal
Property: Molality, mol/kg of 2,6-pyridinedicarboxaldehyde, 2,6-bis[2-(2-pyridinyl)hydrazone] (Liquid); method: Spectroscopy
Temperature, K	Pressure, kPa	Molality, mol/kg of 2,6-pyridinedicarboxaldehyde, 2,6-bis[2-(2-pyridinyl)hydrazone]	uncertainty
298	101	0	1

System: water + ethanone, 1-(2-pyridinyl)-, 2-(2-quinolinyl)hydrazone; phases: Liquid, Crystal
Property: Molality, mol/kg of ethanone, 1-(2-pyridinyl)-, 2-(2-quinolinyl)hydrazone (Liquid); method: Spectroscopy
Temperature, K	Pressure, kPa	Molality, mol/kg of ethanone, 1-(2-pyridinyl)-, 2-(2-quinolinyl)hydrazone	uncertainty
298	101	3.04e-05	2.4e-06

System: water + 2-pyridinecarboxaldehyde, 5-(phenylmethoxy)-, 2-(1-phthalazinyl)hydrazone; phases: Liquid, Crystal
Property: Molality, mol/kg of 2-pyridinecarboxaldehyde, 5-(phenylmethoxy)-, 2-(1-phthalazinyl)hydrazone (Liquid); method: Spectroscopy
Temperature, K	Pressure, kPa	Molality, mol/kg of 2-pyridinecarboxaldehyde, 5-(phenylmethoxy)-, 2-(1-phthalazinyl)hydrazone	uncertainty
298	101	1.1e-05	9e-07

System: water + benzophenone, 2-quinolylhydrazone; phases: Liquid, Crystal
Property: Molality, mol/kg of benzophenone, 2-quinolylhydrazone (Liquid); method: Spectroscopy
Temperature, K	Pressure, kPa	Molality, mol/kg of benzophenone, 2-quinolylhydrazone	uncertainty
298	101	5.82e-05	4.7e-06

System: water + 1-propanone, 1-(2-pyridinyl)-, 2-(1-phthalazinyl)hydrazone; phases: Liquid, Crystal
Property: Molality, mol/kg of 1-propanone, 1-(2-pyridinyl)-, 2-(1-phthalazinyl)hydrazone (Liquid); method: Spectroscopy
Temperature, K	Pressure, kPa	Molality, mol/kg of 1-propanone, 1-(2-pyridinyl)-, 2-(1-phthalazinyl)hydrazone	uncertainty
298	101	3.26e-05	2.6e-06

System: water + ethanone, 1-(2-pyridinyl)-, 2-(1-phthalazinyl)hydrazone; phases: Liquid, Crystal
Property: Molality, mol/kg of ethanone, 1-(2-pyridinyl)-, 2-(1-phthalazinyl)hydrazone (Liquid); method: Spectroscopy
Temperature, K	Pressure, kPa	Molality, mol/kg of ethanone, 1-(2-pyridinyl)-, 2-(1-phthalazinyl)hydrazone	uncertainty
298	101	0.000234	1.9e-05

System: water + methanone, phenyl-2-pyridinyl-, 2-(6-chloro-3-pyridazinyl)hydrazone; phases: Liquid, Crystal
Property: Molality, mol/kg of methanone, phenyl-2-pyridinyl-, 2-(6-chloro-3-pyridazinyl)hydrazone (Liquid); method: Spectroscopy
Temperature, K	Pressure, kPa	Molality, mol/kg of methanone, phenyl-2-pyridinyl-, 2-(6-chloro-3-pyridazinyl)hydrazone	uncertainty
298	101	1.27e-05	1e-06

System: water + methanone, phenyl-2-pyridinyl-, 2-(6-chloro-4-pyrimidinyl)hydrazone; phases: Liquid, Crystal
Property: Molality, mol/kg of methanone, phenyl-2-pyridinyl-, 2-(6-chloro-4-pyrimidinyl)hydrazone (Liquid); method: Spectroscopy
Temperature, K	Pressure, kPa	Molality, mol/kg of methanone, phenyl-2-pyridinyl-, 2-(6-chloro-4-pyrimidinyl)hydrazone	uncertainty
298	101	2.66e-05	2.1e-06

System: water + 2-pyridinecarboxaldehyde, 5-(phenylmethoxy)-, 2-(6-chloro-4-pyrimidinyl)hydrazone; phases: Liquid, Crystal
Property: Molality, mol/kg of 2-pyridinecarboxaldehyde, 5-(phenylmethoxy)-, 2-(6-chloro-4-pyrimidinyl)hydrazone (Liquid); method: Spectroscopy
Temperature, K	Pressure, kPa	Molality, mol/kg of 2-pyridinecarboxaldehyde, 5-(phenylmethoxy)-, 2-(6-chloro-4-pyrimidinyl)hydrazone	uncertainty
298	101	3.39e-06	2.7e-07

System: water + ethanone, 1-(2-pyridinyl)-, 2-(6-chloro-4-pyrimidinyl)hydrazone; phases: Liquid, Crystal
Property: Molality, mol/kg of ethanone, 1-(2-pyridinyl)-, 2-(6-chloro-4-pyrimidinyl)hydrazone (Liquid); method: Spectroscopy
Temperature, K	Pressure, kPa	Molality, mol/kg of ethanone, 1-(2-pyridinyl)-, 2-(6-chloro-4-pyrimidinyl)hydrazone	uncertainty
298	101	0.000172	1.4e-05

System: water + 1-propanone, 1-(2-pyridinyl)-, 2-(6-chloro-4-pyrimidinyl)hydrazone; phases: Liquid, Crystal
Property: Molality, mol/kg of 1-propanone, 1-(2-pyridinyl)-, 2-(6-chloro-4-pyrimidinyl)hydrazone (Liquid); method: Spectroscopy
Temperature, K	Pressure, kPa	Molality, mol/kg of 1-propanone, 1-(2-pyridinyl)-, 2-(6-chloro-4-pyrimidinyl)hydrazone	uncertainty
298	101	5.29e-05	4.2e-06

System: water + 2-pyridinecarboxaldehyde, 5-(phenylmethoxy)-, 2-(2-pyridinyl)hydrazone; phases: Liquid, Crystal
Property: Molality, mol/kg of 2-pyridinecarboxaldehyde, 5-(phenylmethoxy)-, 2-(2-pyridinyl)hydrazone (Liquid); method: Spectroscopy
Temperature, K	Pressure, kPa	Molality, mol/kg of 2-pyridinecarboxaldehyde, 5-(phenylmethoxy)-, 2-(2-pyridinyl)hydrazone	uncertainty
298	101	1.17e-05	9e-07

System: water + 2-pyridinecarboxaldehyde, 5-(phenylmethoxy)-, 2-(4-quinazolinyl)hydrazone; phases: Liquid, Crystal
Property: Molality, mol/kg of 2-pyridinecarboxaldehyde, 5-(phenylmethoxy)-, 2-(4-quinazolinyl)hydrazone (Liquid); method: Spectroscopy
Temperature, K	Pressure, kPa	Molality, mol/kg of 2-pyridinecarboxaldehyde, 5-(phenylmethoxy)-, 2-(4-quinazolinyl)hydrazone	uncertainty
298	101	2.28e-05	1.8e-06

System: octan-1-ol + 2-pyridinecarboxaldehyde, 2-(2-quinolinyl)hydrazone; phases: Liquid, Crystal
Property: Molality, mol/kg of 2-pyridinecarboxaldehyde, 2-(2-quinolinyl)hydrazone (Liquid); method: Spectroscopy
Temperature, K	Pressure, kPa	Molality, mol/kg of 2-pyridinecarboxaldehyde, 2-(2-quinolinyl)hydrazone	uncertainty
298	101	0.0435	0.0035

System: octan-1-ol + 2-pyridinecarboxaldehyde, 2-(2-pyridinyl)hydrazone; phases: Liquid, Crystal
Property: Molality, mol/kg of 2-pyridinecarboxaldehyde, 2-(2-pyridinyl)hydrazone (Liquid); method: Spectroscopy
Temperature, K	Pressure, kPa	Molality, mol/kg of 2-pyridinecarboxaldehyde, 2-(2-pyridinyl)hydrazone	uncertainty
298	101	0.262	0.021

System: octan-1-ol + 2-pyridinecarboxaldehyde, 2-(6-chloro-4-pyrimidinyl)hydrazone; phases: Liquid, Crystal
Property: Molality, mol/kg of 2-pyridinecarboxaldehyde, 2-(6-chloro-4-pyrimidinyl)hydrazone (Liquid); method: Spectroscopy
Temperature, K	Pressure, kPa	Molality, mol/kg of 2-pyridinecarboxaldehyde, 2-(6-chloro-4-pyrimidinyl)hydrazone	uncertainty
298	101	0.002	0.00016

System: octan-1-ol + ethanone, 1-(2-pyridinyl)-, O-(6-chloro-4-pyrimidinyl)oxime; phases: Liquid, Crystal
Property: Molality, mol/kg of ethanone, 1-(2-pyridinyl)-, O-(6-chloro-4-pyrimidinyl)oxime (Liquid); method: Spectroscopy
Temperature, K	Pressure, kPa	Molality, mol/kg of ethanone, 1-(2-pyridinyl)-, O-(6-chloro-4-pyrimidinyl)oxime	uncertainty
298	101	0.134	0.011

System: octan-1-ol + benzaldehyde, 2-(2-pyridinyl)hydrazone; phases: Liquid, Crystal
Property: Molality, mol/kg of benzaldehyde, 2-(2-pyridinyl)hydrazone (Liquid); method: Spectroscopy
Temperature, K	Pressure, kPa	Molality, mol/kg of benzaldehyde, 2-(2-pyridinyl)hydrazone	uncertainty
298	101	0.142	0.011

System: octan-1-ol + 2-pyridinecarboxaldehyde, 2-phenylhydrazone; phases: Liquid, Crystal
Property: Molality, mol/kg of 2-pyridinecarboxaldehyde, 2-phenylhydrazone (Liquid); method: Spectroscopy
Temperature, K	Pressure, kPa	Molality, mol/kg of 2-pyridinecarboxaldehyde, 2-phenylhydrazone	uncertainty
298	101	0.138	0.011

System: octan-1-ol + 3-pyridinecarboxaldehyde, 2-(2-pyridinyl)hydrazone; phases: Liquid, Crystal
Property: Molality, mol/kg of 3-pyridinecarboxaldehyde, 2-(2-pyridinyl)hydrazone (Liquid); method: Spectroscopy
Temperature, K	Pressure, kPa	Molality, mol/kg of 3-pyridinecarboxaldehyde, 2-(2-pyridinyl)hydrazone	uncertainty
298	101	0.0872	0.007

System: octan-1-ol + 2,6-pyridinedicarboxaldehyde, 2,6-bis[2-(2-pyridinyl)hydrazone]; phases: Liquid, Crystal
Property: Molality, mol/kg of 2,6-pyridinedicarboxaldehyde, 2,6-bis[2-(2-pyridinyl)hydrazone] (Liquid); method: Spectroscopy
Temperature, K	Pressure, kPa	Molality, mol/kg of 2,6-pyridinedicarboxaldehyde, 2,6-bis[2-(2-pyridinyl)hydrazone]	uncertainty
298	101	0	1

System: octan-1-ol + ethanone, 1-(2-pyridinyl)-, 2-(2-quinolinyl)hydrazone; phases: Liquid, Crystal
Property: Molality, mol/kg of ethanone, 1-(2-pyridinyl)-, 2-(2-quinolinyl)hydrazone (Liquid); method: Spectroscopy
Temperature, K	Pressure, kPa	Molality, mol/kg of ethanone, 1-(2-pyridinyl)-, 2-(2-quinolinyl)hydrazone	uncertainty
298	101	0.0764	0.0061

System: octan-1-ol + 2-pyridinecarboxaldehyde, 5-(phenylmethoxy)-, 2-(1-phthalazinyl)hydrazone; phases: Liquid, Crystal
Property: Molality, mol/kg of 2-pyridinecarboxaldehyde, 5-(phenylmethoxy)-, 2-(1-phthalazinyl)hydrazone (Liquid); method: Spectroscopy
Temperature, K	Pressure, kPa	Molality, mol/kg of 2-pyridinecarboxaldehyde, 5-(phenylmethoxy)-, 2-(1-phthalazinyl)hydrazone	uncertainty
298	101	0.0245	0.002

System: octan-1-ol + benzophenone, 2-quinolylhydrazone; phases: Liquid, Crystal
Property: Molality, mol/kg of benzophenone, 2-quinolylhydrazone (Liquid); method: Spectroscopy
Temperature, K	Pressure, kPa	Molality, mol/kg of benzophenone, 2-quinolylhydrazone	uncertainty
298	101	0.0486	0.0039

System: octan-1-ol + 1-propanone, 1-(2-pyridinyl)-, 2-(1-phthalazinyl)hydrazone; phases: Liquid, Crystal
Property: Molality, mol/kg of 1-propanone, 1-(2-pyridinyl)-, 2-(1-phthalazinyl)hydrazone (Liquid); method: Spectroscopy
Temperature, K	Pressure, kPa	Molality, mol/kg of 1-propanone, 1-(2-pyridinyl)-, 2-(1-phthalazinyl)hydrazone	uncertainty
298	101	0.0642	0.0051

System: octan-1-ol + ethanone, 1-(2-pyridinyl)-, 2-(1-phthalazinyl)hydrazone; phases: Liquid, Crystal
Property: Molality, mol/kg of ethanone, 1-(2-pyridinyl)-, 2-(1-phthalazinyl)hydrazone (Liquid); method: Spectroscopy
Temperature, K	Pressure, kPa	Molality, mol/kg of ethanone, 1-(2-pyridinyl)-, 2-(1-phthalazinyl)hydrazone	uncertainty
298	101	0.0477	0.0038

System: octan-1-ol + methanone, phenyl-2-pyridinyl-, 2-(6-chloro-3-pyridazinyl)hydrazone; phases: Liquid, Crystal
Property: Molality, mol/kg of methanone, phenyl-2-pyridinyl-, 2-(6-chloro-3-pyridazinyl)hydrazone (Liquid); method: Spectroscopy
Temperature, K	Pressure, kPa	Molality, mol/kg of methanone, phenyl-2-pyridinyl-, 2-(6-chloro-3-pyridazinyl)hydrazone	uncertainty
298	101	0.0128	0.001

System: octan-1-ol + methanone, phenyl-2-pyridinyl-, 2-(6-chloro-4-pyrimidinyl)hydrazone; phases: Liquid, Crystal
Property: Molality, mol/kg of methanone, phenyl-2-pyridinyl-, 2-(6-chloro-4-pyrimidinyl)hydrazone (Liquid); method: Spectroscopy
Temperature, K	Pressure, kPa	Molality, mol/kg of methanone, phenyl-2-pyridinyl-, 2-(6-chloro-4-pyrimidinyl)hydrazone	uncertainty
298	101	0.0127	0.001

System: octan-1-ol + 2-pyridinecarboxaldehyde, 5-(phenylmethoxy)-, 2-(6-chloro-4-pyrimidinyl)hydrazone; phases: Liquid, Crystal
Property: Molality, mol/kg of 2-pyridinecarboxaldehyde, 5-(phenylmethoxy)-, 2-(6-chloro-4-pyrimidinyl)hydrazone (Liquid); method: Spectroscopy
Temperature, K	Pressure, kPa	Molality, mol/kg of 2-pyridinecarboxaldehyde, 5-(phenylmethoxy)-, 2-(6-chloro-4-pyrimidinyl)hydrazone	uncertainty
298	101	0.0114	0.0009

System: octan-1-ol + ethanone, 1-(2-pyridinyl)-, 2-(6-chloro-4-pyrimidinyl)hydrazone; phases: Liquid, Crystal
Property: Molality, mol/kg of ethanone, 1-(2-pyridinyl)-, 2-(6-chloro-4-pyrimidinyl)hydrazone (Liquid); method: Spectroscopy
Temperature, K	Pressure, kPa	Molality, mol/kg of ethanone, 1-(2-pyridinyl)-, 2-(6-chloro-4-pyrimidinyl)hydrazone	uncertainty
298	101	0.0798	0.0064

System: octan-1-ol + 1-propanone, 1-(2-pyridinyl)-, 2-(6-chloro-4-pyrimidinyl)hydrazone; phases: Liquid, Crystal
Property: Molality, mol/kg of 1-propanone, 1-(2-pyridinyl)-, 2-(6-chloro-4-pyrimidinyl)hydrazone (Liquid); method: Spectroscopy
Temperature, K	Pressure, kPa	Molality, mol/kg of 1-propanone, 1-(2-pyridinyl)-, 2-(6-chloro-4-pyrimidinyl)hydrazone	uncertainty
298	101	0.144	0.012

System: octan-1-ol + 2-pyridinecarboxaldehyde, 5-(phenylmethoxy)-, 2-(2-pyridinyl)hydrazone; phases: Liquid, Crystal
Property: Molality, mol/kg of 2-pyridinecarboxaldehyde, 5-(phenylmethoxy)-, 2-(2-pyridinyl)hydrazone (Liquid); method: Spectroscopy
Temperature, K	Pressure, kPa	Molality, mol/kg of 2-pyridinecarboxaldehyde, 5-(phenylmethoxy)-, 2-(2-pyridinyl)hydrazone	uncertainty
298	101	0.0232	0.0019

System: octan-1-ol + 2-pyridinecarboxaldehyde, 5-(phenylmethoxy)-, 2-(4-quinazolinyl)hydrazone; phases: Liquid, Crystal
Property: Molality, mol/kg of 2-pyridinecarboxaldehyde, 5-(phenylmethoxy)-, 2-(4-quinazolinyl)hydrazone (Liquid); method: Spectroscopy
Temperature, K	Pressure, kPa	Molality, mol/kg of 2-pyridinecarboxaldehyde, 5-(phenylmethoxy)-, 2-(4-quinazolinyl)hydrazone	uncertainty
298	101	0.0308	0.0025

System: hexane + 2-pyridinecarboxaldehyde, 2-(2-quinolinyl)hydrazone; phases: Liquid, Crystal
Property: Molality, mol/kg of 2-pyridinecarboxaldehyde, 2-(2-quinolinyl)hydrazone (Liquid); method: Spectrsocopy
Temperature, K	Pressure, kPa	Molality, mol/kg of 2-pyridinecarboxaldehyde, 2-(2-quinolinyl)hydrazone	uncertainty
298	101	0.000403	3.2e-05

System: hexane + 2-pyridinecarboxaldehyde, 2-(2-pyridinyl)hydrazone; phases: Liquid, Crystal
Property: Molality, mol/kg of 2-pyridinecarboxaldehyde, 2-(2-pyridinyl)hydrazone (Liquid); method: Spectrsocopy
Temperature, K	Pressure, kPa	Molality, mol/kg of 2-pyridinecarboxaldehyde, 2-(2-pyridinyl)hydrazone	uncertainty
298	101	0.00205	0.00016

System: hexane + 2-pyridinecarboxaldehyde, 2-(6-chloro-4-pyrimidinyl)hydrazone; phases: Liquid, Crystal
Property: Molality, mol/kg of 2-pyridinecarboxaldehyde, 2-(6-chloro-4-pyrimidinyl)hydrazone (Liquid); method: Spectrsocopy
Temperature, K	Pressure, kPa	Molality, mol/kg of 2-pyridinecarboxaldehyde, 2-(6-chloro-4-pyrimidinyl)hydrazone	uncertainty
298	101	0.000969	7.8e-05

System: hexane + ethanone, 1-(2-pyridinyl)-, O-(6-chloro-4-pyrimidinyl)oxime; phases: Liquid, Crystal
Property: Molality, mol/kg of ethanone, 1-(2-pyridinyl)-, O-(6-chloro-4-pyrimidinyl)oxime (Liquid); method: Spectrsocopy
Temperature, K	Pressure, kPa	Molality, mol/kg of ethanone, 1-(2-pyridinyl)-, O-(6-chloro-4-pyrimidinyl)oxime	uncertainty
298	101	0.035	0.0028

System: hexane + benzaldehyde, 2-(2-pyridinyl)hydrazone; phases: Liquid, Crystal
Property: Molality, mol/kg of benzaldehyde, 2-(2-pyridinyl)hydrazone (Liquid); method: Spectrsocopy
Temperature, K	Pressure, kPa	Molality, mol/kg of benzaldehyde, 2-(2-pyridinyl)hydrazone	uncertainty
298	101	0.00651	0.00052

System: hexane + 2-pyridinecarboxaldehyde, 2-phenylhydrazone; phases: Liquid, Crystal
Property: Molality, mol/kg of 2-pyridinecarboxaldehyde, 2-phenylhydrazone (Liquid); method: Spectrsocopy
Temperature, K	Pressure, kPa	Molality, mol/kg of 2-pyridinecarboxaldehyde, 2-phenylhydrazone	uncertainty
298	101	0	1

System: hexane + 3-pyridinecarboxaldehyde, 2-(2-pyridinyl)hydrazone; phases: Liquid, Crystal
Property: Molality, mol/kg of 3-pyridinecarboxaldehyde, 2-(2-pyridinyl)hydrazone (Liquid); method: Spectrsocopy
Temperature, K	Pressure, kPa	Molality, mol/kg of 3-pyridinecarboxaldehyde, 2-(2-pyridinyl)hydrazone	uncertainty
298	101	0.000343	2.7e-05

System: hexane + 2,6-pyridinedicarboxaldehyde, 2,6-bis[2-(2-pyridinyl)hydrazone]; phases: Liquid, Crystal
Property: Molality, mol/kg of 2,6-pyridinedicarboxaldehyde, 2,6-bis[2-(2-pyridinyl)hydrazone] (Liquid); method: Spectrsocopy
Temperature, K	Pressure, kPa	Molality, mol/kg of 2,6-pyridinedicarboxaldehyde, 2,6-bis[2-(2-pyridinyl)hydrazone]	uncertainty
298	101	0	1

System: hexane + ethanone, 1-(2-pyridinyl)-, 2-(2-quinolinyl)hydrazone; phases: Liquid, Crystal
Property: Molality, mol/kg of ethanone, 1-(2-pyridinyl)-, 2-(2-quinolinyl)hydrazone (Liquid); method: Spectrsocopy
Temperature, K	Pressure, kPa	Molality, mol/kg of ethanone, 1-(2-pyridinyl)-, 2-(2-quinolinyl)hydrazone	uncertainty
298	101	0.000681	5.5e-05

System: hexane + 2-pyridinecarboxaldehyde, 5-(phenylmethoxy)-, 2-(1-phthalazinyl)hydrazone; phases: Liquid, Crystal
Property: Molality, mol/kg of 2-pyridinecarboxaldehyde, 5-(phenylmethoxy)-, 2-(1-phthalazinyl)hydrazone (Liquid); method: Spectrsocopy
Temperature, K	Pressure, kPa	Molality, mol/kg of 2-pyridinecarboxaldehyde, 5-(phenylmethoxy)-, 2-(1-phthalazinyl)hydrazone	uncertainty
298	101	0.00025	2e-05

System: hexane + benzophenone, 2-quinolylhydrazone; phases: Liquid, Crystal
Property: Molality, mol/kg of benzophenone, 2-quinolylhydrazone (Liquid); method: Spectrsocopy
Temperature, K	Pressure, kPa	Molality, mol/kg of benzophenone, 2-quinolylhydrazone	uncertainty
298	101	0.00209	0.00017

System: hexane + 1-propanone, 1-(2-pyridinyl)-, 2-(1-phthalazinyl)hydrazone; phases: Liquid, Crystal
Property: Molality, mol/kg of 1-propanone, 1-(2-pyridinyl)-, 2-(1-phthalazinyl)hydrazone (Liquid); method: Spectrsocopy
Temperature, K	Pressure, kPa	Molality, mol/kg of 1-propanone, 1-(2-pyridinyl)-, 2-(1-phthalazinyl)hydrazone	uncertainty
298	101	0.00749	0.0006

System: hexane + ethanone, 1-(2-pyridinyl)-, 2-(1-phthalazinyl)hydrazone; phases: Liquid, Crystal
Property: Molality, mol/kg of ethanone, 1-(2-pyridinyl)-, 2-(1-phthalazinyl)hydrazone (Liquid); method: Spectrsocopy
Temperature, K	Pressure, kPa	Molality, mol/kg of ethanone, 1-(2-pyridinyl)-, 2-(1-phthalazinyl)hydrazone	uncertainty
298	101	0.000358	2.9e-05

System: hexane + methanone, phenyl-2-pyridinyl-, 2-(6-chloro-3-pyridazinyl)hydrazone; phases: Liquid, Crystal
Property: Molality, mol/kg of methanone, phenyl-2-pyridinyl-, 2-(6-chloro-3-pyridazinyl)hydrazone (Liquid); method: Spectrsocopy
Temperature, K	Pressure, kPa	Molality, mol/kg of methanone, phenyl-2-pyridinyl-, 2-(6-chloro-3-pyridazinyl)hydrazone	uncertainty
298	101	0.00039	3.1e-05

System: hexane + methanone, phenyl-2-pyridinyl-, 2-(6-chloro-4-pyrimidinyl)hydrazone; phases: Liquid, Crystal
Property: Molality, mol/kg of methanone, phenyl-2-pyridinyl-, 2-(6-chloro-4-pyrimidinyl)hydrazone (Liquid); method: Spectrsocopy
Temperature, K	Pressure, kPa	Molality, mol/kg of methanone, phenyl-2-pyridinyl-, 2-(6-chloro-4-pyrimidinyl)hydrazone	uncertainty
298	101	0.00194	0.00016

System: hexane + 2-pyridinecarboxaldehyde, 5-(phenylmethoxy)-, 2-(6-chloro-4-pyrimidinyl)hydrazone; phases: Liquid, Crystal
Property: Molality, mol/kg of 2-pyridinecarboxaldehyde, 5-(phenylmethoxy)-, 2-(6-chloro-4-pyrimidinyl)hydrazone (Liquid); method: Spectrsocopy
Temperature, K	Pressure, kPa	Molality, mol/kg of 2-pyridinecarboxaldehyde, 5-(phenylmethoxy)-, 2-(6-chloro-4-pyrimidinyl)hydrazone	uncertainty
298	101	0.000124	1e-05

System: hexane + ethanone, 1-(2-pyridinyl)-, 2-(6-chloro-4-pyrimidinyl)hydrazone; phases: Liquid, Crystal
Property: Molality, mol/kg of ethanone, 1-(2-pyridinyl)-, 2-(6-chloro-4-pyrimidinyl)hydrazone (Liquid); method: Spectrsocopy
Temperature, K	Pressure, kPa	Molality, mol/kg of ethanone, 1-(2-pyridinyl)-, 2-(6-chloro-4-pyrimidinyl)hydrazone	uncertainty
298	101	0.00478	0.00038

System: hexane + 1-propanone, 1-(2-pyridinyl)-, 2-(6-chloro-4-pyrimidinyl)hydrazone; phases: Liquid, Crystal
Property: Molality, mol/kg of 1-propanone, 1-(2-pyridinyl)-, 2-(6-chloro-4-pyrimidinyl)hydrazone (Liquid); method: Spectrsocopy
Temperature, K	Pressure, kPa	Molality, mol/kg of 1-propanone, 1-(2-pyridinyl)-, 2-(6-chloro-4-pyrimidinyl)hydrazone	uncertainty
298	101	0.0081	0.00065

System: hexane + 2-pyridinecarboxaldehyde, 5-(phenylmethoxy)-, 2-(2-pyridinyl)hydrazone; phases: Liquid, Crystal
Property: Molality, mol/kg of 2-pyridinecarboxaldehyde, 5-(phenylmethoxy)-, 2-(2-pyridinyl)hydrazone (Liquid); method: Spectrsocopy
Temperature, K	Pressure, kPa	Molality, mol/kg of 2-pyridinecarboxaldehyde, 5-(phenylmethoxy)-, 2-(2-pyridinyl)hydrazone	uncertainty
298	101	0.000463	3.7e-05

System: hexane + 2-pyridinecarboxaldehyde, 5-(phenylmethoxy)-, 2-(4-quinazolinyl)hydrazone; phases: Liquid, Crystal
Property: Molality, mol/kg of 2-pyridinecarboxaldehyde, 5-(phenylmethoxy)-, 2-(4-quinazolinyl)hydrazone (Liquid); method: Spectrsocopy
Temperature, K	Pressure, kPa	Molality, mol/kg of 2-pyridinecarboxaldehyde, 5-(phenylmethoxy)-, 2-(4-quinazolinyl)hydrazone	uncertainty
298	101	0.000458	3.7e-05
