Measured thermophysical data. Vapor Liquid Equilibrium at 350 K, Excess Molar Enthalpies at 298 K, and Excess Molar Volumes at 298 K of Binary Mixtures Containing Ethyl Acetate, Butyl Acetate, and 2-Butanol
Source: J. Chem. Eng. Data, 2013, 10.1021/je400036b
Compound 1: ethyl acetate, C4H8O2, InChI=1S/C4H8O2/c1-3-6-4(2)5/h3H2,1-2H3, purity 99.8%
Compound 2: butyl ethanoate, C6H12O2, InChI=1S/C6H12O2/c1-3-4-5-8-6(2)7/h3-5H2,1-2H3, purity 99.5%
Compound 3: butan-2-ol, C4H10O, InChI=1S/C4H10O/c1-3-4(2)5/h4-5H,3H2,1-2H3, purity 99.5%

System: ethyl acetate; phases: Liquid
Property: Mass density, kg/m3 (Liquid); method: Vibrating tube method
Temperature, K	Pressure, kPa	Mass density, kg/m3	uncertainty
298.4	101.325	893.9	0.4

System: ethyl acetate; phases: Liquid, Gas
Property: Vapor or sublimation pressure, kPa (Liquid); method: Ebulliometric method (Recirculating still)
Temperature, K	Vapor or sublimation pressure, kPa	uncertainty
350.02	100.68	0.27
345.08	85.33	0.26
343.35	80.41	0.24
341.41	75.18	0.23
337.13	64.61	0.21
339.47	70.22	0.22
334.64	58.96	0.2
332.5	54.49	0.19
330.08	49.73	0.18
327.66	45.34	0.17
323.99	39.28	0.15
316.23	28.59	0.14
308.33	20.29	0.13

System: butyl ethanoate; phases: Liquid
Property: Mass density, kg/m3 (Liquid); method: Vibrating tube method
Temperature, K	Pressure, kPa	Mass density, kg/m3	uncertainty
298.4	101.325	875.6	0.4

System: butyl ethanoate; phases: Liquid, Gas
Property: Vapor or sublimation pressure, kPa (Liquid); method: Ebulliometric method (Recirculating still)
Temperature, K	Vapor or sublimation pressure, kPa	uncertainty
400.14	104.28	0.25
396.2	92.99	0.24
392.05	82.23	0.23
389.51	76.01	0.21
386.64	69.55	0.2
384.68	65.36	0.19
382.1	60.18	0.18
379.41	55.17	0.18
376.29	49.75	0.16
369.5	39.45	0.16
367.04	36.18	0.14
362.03	30.2	0.13
350.12	19.17	0.12
347.83	17.44	0.12

System: butan-2-ol; phases: Liquid
Property: Mass density, kg/m3 (Liquid); method: Vibrating tube method
Temperature, K	Pressure, kPa	Mass density, kg/m3	uncertainty
298.4	101.325	801.7	0.4

System: butan-2-ol; phases: Liquid, Gas
Property: Vapor or sublimation pressure, kPa (Liquid); method: Ebulliometric method (Recirculating still)
Temperature, K	Vapor or sublimation pressure, kPa	uncertainty
350.15	40.99	0.19

System: butan-2-ol + ethyl acetate; phases: Liquid
Fixed: Pressure, kPa = 101
Fixed: Temperature, K = 298.15
Property: Excess molar enthalpy (molar enthalpy of mixing), kJ/mol (Liquid); method: Flow calorimetry
Mole fraction of ethyl acetate	Excess molar enthalpy (molar enthalpy of mixing), kJ/mol	uncertainty
0.9008	0.7842	0.0219
0.8007	1.3512	0.0375
0.7017	1.7404	0.0475
0.6019	1.9598	0.0528
0.5012	2.0236	0.0543
0.4017	1.9591	0.0529
0.3014	1.7319	0.0475
0.2003	1.3194	0.0379
0.1005	0.6983	0.0213

System: butan-2-ol + ethyl acetate; phases: Liquid
Fixed: Pressure, kPa = 101
Fixed: Temperature, K = 298
Property: Mass density, kg/m3 (Liquid); method: Vibrating tube method
Mole fraction of ethyl acetate	Mass density, kg/m3	uncertainty
0.9008	883.1	0.4
0.8007	873.1	0.5
0.7017	862.8	0.5
0.6019	853	0.5
0.5012	843.7	0.5
0.4017	834.5	0.5
0.3014	825.8	0.5
0.2003	817.2	0.5
0.1005	809.2	0.4

System: butan-2-ol + ethyl acetate; phases: Gas, Liquid
Property: Mole fraction of ethyl acetate (Gas); method: Chromatography
Mole fraction of ethyl acetate	Temperature, K	Mole fraction of ethyl acetate	uncertainty
0	350.15	0	
0.016	350.09	0.064	0.005
0.025	350.08	0.084	0.009
0.042	350.07	0.137	0.006
0.069	350.08	0.207	0.006
0.107	350.07	0.297	0.005
0.152	350.08	0.371	0.005
0.215	350.08	0.459	0.005
0.253	350.07	0.49	0.005
0.341	350.08	0.589	0.005
0.425	350.07	0.656	0.004
0.479	350.08	0.69	0.004
0.497	350.08	0.703	0.004
0.577	350.08	0.753	0.003
0.688	350.07	0.817	0.003
0.787	350.07	0.874	0.003
0.85	350.08	0.909	0.003
0.901	350.08	0.939	0.002
0.941	350.08	0.963	0.002
0.968	350.08	0.98	0.002
0.982	350.07	0.988	0.002
1	350.02	1	

System: butan-2-ol + ethyl acetate; phases: Liquid, Gas
Property: Vapor or sublimation pressure, kPa (Liquid); method: Ebulliometric method (Recirculating still)
Mole fraction of ethyl acetate	Temperature, K	Vapor or sublimation pressure, kPa	uncertainty
0	350.15	40.99	0.44
0.016	350.09	42.77	0.49
0.025	350.08	43.66	0.51
0.042	350.07	45.52	0.5
0.069	350.08	48.32	0.51
0.107	350.07	52.09	0.51
0.152	350.08	55.86	0.53
0.215	350.08	61.14	0.55
0.253	350.07	64.03	0.55
0.341	350.08	70.13	0.58
0.425	350.07	75.22	0.6
0.479	350.08	77.8	0.62
0.497	350.08	79.09	0.63
0.577	350.08	82.86	0.64
0.688	350.07	88.18	0.66
0.787	350.07	92.71	0.69
0.85	350.08	95.4	0.7
0.901	350.08	97.52	0.71
0.941	350.08	99.02	0.72
0.968	350.08	100.09	0.72
0.982	350.07	100.48	0.72
1	350.02	100.68	0.72

System: butan-2-ol + butyl ethanoate; phases: Liquid
Fixed: Pressure, kPa = 101
Fixed: Temperature, K = 298.15
Property: Excess molar enthalpy (molar enthalpy of mixing), kJ/mol (Liquid); method: Flow calorimetry
Mole fraction of butyl ethanoate	Excess molar enthalpy (molar enthalpy of mixing), kJ/mol	uncertainty
0.9003	0.7454	0.0211
0.8013	1.2726	0.0355
0.7011	1.6213	0.0445
0.6004	1.8187	0.0492
0.502	1.8733	0.0504
0.4004	1.8033	0.0491
0.3004	1.601	0.046
0.2008	1.2509	0.0408
0.1008	0.7097	0.0274

System: butan-2-ol + butyl ethanoate; phases: Liquid
Fixed: Pressure, kPa = 101
Fixed: Temperature, K = 298
Property: Mass density, kg/m3 (Liquid); method: Vibrating tube method
Mole fraction of butyl ethanoate	Mass density, kg/m3	uncertainty
0.9003	868.9	0.4
0.8013	862.1	0.4
0.7011	855.4	0.5
0.6004	848.3	0.5
0.502	841.2	0.6
0.4004	833.7	0.6
0.3004	826	0.6
0.2008	818.1	0.6
0.1008	810	0.5

System: butan-2-ol + butyl ethanoate; phases: Gas, Liquid
Property: Mole fraction of butan-2-ol (Gas); method: Chromatography
Mole fraction of butan-2-ol	Temperature, K	Mole fraction of butan-2-ol	uncertainty
0	350.12	0	
0.034	350.08	0.095	0.006
0.048	350.09	0.134	0.006
0.119	350.08	0.282	0.005
0.158	350.08	0.363	0.006
0.315	350.08	0.529	0.005
0.386	350.07	0.593	0.004
0.436	350.07	0.634	0.004
0.518	350.08	0.691	0.004
0.616	350.08	0.752	0.003
0.704	350.08	0.805	0.003
0.833	350.08	0.883	0.003
0.898	350.08	0.927	0.003
0.935	350.08	0.954	0.003
0.973	350.08	0.98	0.003
0.99	350.08	0.993	0.003
1	350.15	1	

System: butan-2-ol + butyl ethanoate; phases: Liquid, Gas
Property: Vapor or sublimation pressure, kPa (Liquid); method: Ebulliometric method (Recirculating still)
Mole fraction of butan-2-ol	Temperature, K	Vapor or sublimation pressure, kPa	uncertainty
0	350.12	19.17	0.37
0.034	350.08	20.55	0.38
0.048	350.09	21.03	0.38
0.119	350.08	23.94	0.38
0.158	350.08	25.12	0.39
0.315	350.08	29.36	0.4
0.386	350.07	31.04	0.4
0.436	350.07	32.15	0.41
0.518	350.08	33.83	0.41
0.616	350.08	35.54	0.42
0.704	350.08	36.94	0.42
0.833	350.08	38.61	0.43
0.898	350.08	39.42	0.43
0.935	350.08	39.9	0.4
0.973	350.08	40.33	0.43
0.99	350.08	40.5	0.4
1	350.15	40.99	0.44

System: butyl ethanoate + ethyl acetate; phases: Liquid
Fixed: Pressure, kPa = 101
Fixed: Temperature, K = 298.15
Property: Excess molar enthalpy (molar enthalpy of mixing), kJ/mol (Liquid); method: Flow calorimetry
Mole fraction of ethyl acetate	Excess molar enthalpy (molar enthalpy of mixing), kJ/mol	uncertainty
0.0991	0.0232	0.0011
0.1982	0.0437	0.0016
0.2993	0.0594	0.002
0.3993	0.07	0.0022
0.4982	0.076	0.0024
0.5994	0.0747	0.0024
0.6985	0.067	0.0022
0.7988	0.0524	0.0018
0.8995	0.03	0.0012

System: butyl ethanoate + ethyl acetate; phases: Liquid
Fixed: Pressure, kPa = 101
Fixed: Temperature, K = 298
Property: Mass density, kg/m3 (Liquid); method: Vibrating tube method
Mole fraction of ethyl acetate	Mass density, kg/m3	uncertainty
0.0991	876.9	0.4
0.1982	878.2	0.4
0.2993	879.7	0.4
0.3993	881.3	0.4
0.4982	882.9	0.4
0.5994	884.8	0.4
0.6985	886.7	0.4
0.7988	888.9	0.4
0.8995	891.3	0.4

System: butyl ethanoate + ethyl acetate; phases: Gas, Liquid
Property: Mole fraction of ethyl acetate (Gas); method: Chromatography
Mole fraction of ethyl acetate	Temperature, K	Mole fraction of ethyl acetate	uncertainty
0	350.12	0	
0.053	350.07	0.221	0.074
0.094	350.03	0.346	0.006
0.138	350.06	0.449	0.005
0.176	350.07	0.518	0.006
0.222	350.12	0.594	0.005
0.265	350.05	0.648	0.004
0.313	350.11	0.697	0.004
0.349	350.14	0.73	0.004
0.382	350.12	0.755	0.003
0.434	350.11	0.795	0.004
0.476	350.1	0.822	0.003
0.519	350.08	0.85	0.008
0.599	350.04	0.882	0.002
0.658	350.1	0.905	0.002
0.715	350.06	0.926	0.002
0.777	350.08	0.945	0.002
0.819	350.12	0.957	0.002
0.873	350.11	0.971	0.002
0.931	350.05	0.985	0.002
0.985	350.06	0.997	0.002
1	350.02	1	

System: butyl ethanoate + ethyl acetate; phases: Liquid, Gas
Property: Vapor or sublimation pressure, kPa (Liquid); method: Ebulliometric method (Recirculating still)
Mole fraction of ethyl acetate	Temperature, K	Vapor or sublimation pressure, kPa	uncertainty
0	350.12	19.17	0.37
0.053	350.07	23.36	0.38
0.094	350.03	26.72	0.42
0.138	350.06	30.07	0.43
0.176	350.07	33.11	0.44
0.222	350.12	36.83	0.45
0.265	350.05	40.48	0.47
0.313	350.11	44	0.48
0.349	350.14	47.33	0.49
0.382	350.12	50.03	0.5
0.434	350.11	54.38	0.5
0.476	350.1	58.26	0.54
0.519	350.08	62.19	0.92
0.599	350.04	67.8	0.57
0.658	350.1	72.6	0.6
0.715	350.06	77.09	0.62
0.777	350.08	82.25	0.65
0.819	350.12	85.95	0.67
0.873	350.11	90.33	0.69
0.931	350.05	94.87	0.71
0.985	350.06	99.46	0.74
1	350.02	100.68	0.72
