Measured thermophysical data. (p, rho, T) Behavior for the Binary Mixtures Carbon Dioxide + Heptane and Carbon Dioxide + Tridecane
Source: J. Chem. Eng. Data, 2013, 10.1021/je400056z
Compound 1: carbon dioxide, CO2, InChI=1S/CO2/c2-1-3, purity 99.995%
Compound 2: heptane, C7H16, InChI=1S/C7H16/c1-3-5-7-6-4-2/h3-7H2,1-2H3, purity 99.9%
Compound 3: tridecane, C13H28, InChI=1S/C13H28/c1-3-5-7-9-11-13-12-10-8-6-4-2/h3-13H2,1-2H3, purity 99.2%

System: carbon dioxide + heptane; phases: Liquid
Property: Mass density, kg/m3 (Liquid); method: Vibrating tube method
Mole fraction of carbon dioxide	Temperature, K	Pressure, kPa	Mass density, kg/m3	uncertainty
0.0218	313.08	2007	670.88	0.27
0.0218	313.08	3009	671.95	0.28
0.0218	313.08	4008	673.02	0.28
0.0218	313.08	5014	674.05	0.29
0.0218	313.08	6010	675.07	0.3
0.0218	313.08	7005	676.19	0.31
0.0218	313.08	8174	677.13	0.31
0.0218	313.08	9005	678.13	0.32
0.0218	313.08	10008	679.18	0.33
0.0218	313.08	11000	680.15	0.34
0.0218	313.08	12009	681.11	0.35
0.0218	313.08	13002	682.02	0.35
0.0218	313.08	14006	683	0.36
0.0218	313.08	15004	683.85	0.37
0.0218	313.08	16007	684.89	0.38
0.0218	313.08	17002	685.71	0.39
0.0218	313.08	18005	686.44	0.4
0.0218	313.08	19010	687.37	0.41
0.0218	313.08	20009	688.24	0.42
0.0218	313.08	21004	689.1	0.42
0.0218	313.08	22010	689.97	0.43
0.0218	313.08	23003	690.81	0.44
0.0218	313.08	24007	691.63	0.45
0.0218	313.08	24906	692.41	0.46
0.0218	322.94	3016	663.11	0.28
0.0218	322.94	4008	664.28	0.29
0.0218	322.94	5006	665.41	0.29
0.0218	322.94	6002	666.44	0.3
0.0218	322.94	7003	667.61	0.31
0.0218	322.94	8006	668.67	0.32
0.0218	322.94	8995	669.76	0.33
0.0218	322.94	10002	670.79	0.33
0.0218	322.94	11002	671.78	0.34
0.0218	322.94	11999	672.82	0.35
0.0218	322.94	13000	673.79	0.36
0.0218	322.94	14001	674.79	0.37
0.0218	322.94	15002	675.77	0.38
0.0218	322.94	15998	676.69	0.39
0.0218	322.94	17002	677.65	0.4
0.0218	322.94	18003	678.53	0.4
0.0218	322.94	18995	679.45	0.41
0.0218	322.94	20009	680.41	0.42
0.0218	322.94	20999	681.28	0.43
0.0218	322.94	22005	682.14	0.44
0.0218	322.94	23011	683.03	0.45
0.0218	322.94	24009	683.94	0.46
0.0218	322.94	24961	684.87	0.47
0.0218	332.8	3011	654.41	0.28
0.0218	332.8	4004	655.67	0.29
0.0218	332.8	5003	656.85	0.3
0.0218	332.8	6000	658.03	0.3
0.0218	332.8	7004	659.2	0.31
0.0218	332.8	8007	660.37	0.32
0.0218	332.8	9001	661.51	0.33
0.0218	332.8	10004	662.62	0.34
0.0218	332.8	10998	663.71	0.35
0.0218	332.8	12002	664.82	0.36
0.0218	332.8	12996	665.83	0.37
0.0218	332.8	13999	666.94	0.37
0.0218	332.8	15004	667.94	0.38
0.0218	332.8	16005	668.95	0.39
0.0218	332.8	16998	669.95	0.4
0.0218	332.8	18005	670.91	0.41
0.0218	332.8	19003	671.91	0.42
0.0218	332.8	20002	672.83	0.43
0.0218	332.8	21008	673.8	0.44
0.0218	332.8	21997	674.76	0.45
0.0218	332.8	22998	675.69	0.46
0.0218	332.8	24009	676.63	0.47
0.0218	332.8	25003	677.55	0.48
0.0218	342.68	4004	646.95	0.29
0.0218	342.68	5003	648.26	0.3
0.0218	342.68	6004	649.55	0.31
0.0218	342.68	7009	650.86	0.32
0.0218	342.68	7996	652.09	0.33
0.0218	342.68	9017	653.32	0.33
0.0218	342.68	9997	654.54	0.34
0.0218	342.68	11003	655.71	0.35
0.0218	342.68	11998	656.85	0.36
0.0218	342.68	13010	657.99	0.37
0.0218	342.68	14002	659.11	0.38
0.0218	342.68	15008	660.22	0.39
0.0218	342.68	16006	661.28	0.4
0.0218	342.68	17003	662.36	0.41
0.0218	342.68	18003	663.38	0.42
0.0218	342.68	19002	664.4	0.43
0.0218	342.68	20005	665.4	0.44
0.0218	342.68	21007	666.43	0.45
0.0218	342.68	22003	667.43	0.45
0.0218	342.68	23010	668.42	0.46
0.0218	342.68	24005	669.41	0.47
0.0218	342.68	25003	670.37	0.48
0.0218	352.44	4005	638.36	0.29
0.0218	352.44	5013	639.84	0.3
0.0218	352.44	6005	641.24	0.31
0.0218	352.44	7000	642.57	0.32
0.0218	352.44	8008	643.95	0.33
0.0218	352.44	9006	645.27	0.34
0.0218	352.44	10002	646.56	0.35
0.0218	352.44	11002	647.79	0.36
0.0218	352.44	12000	649.14	0.37
0.0218	352.44	13002	650.25	0.38
0.0218	352.44	13998	651.46	0.39
0.0218	352.44	15011	652.7	0.39
0.0218	352.44	16006	653.84	0.4
0.0218	352.44	17009	654.98	0.41
0.0218	352.44	17993	656.08	0.42
0.0218	352.44	18998	657.17	0.43
0.0218	352.44	20004	658.27	0.44
0.0218	352.44	21002	659.34	0.45
0.0218	352.44	22002	660.39	0.46
0.0218	352.44	23003	661.43	0.47
0.0218	352.44	23998	662.47	0.48
0.0218	352.44	25014	663.51	0.49
0.0218	362.38	4014	629.41	0.3
0.0218	362.38	5003	630.95	0.31
0.0218	362.38	6009	632.44	0.32
0.0218	362.38	7003	633.95	0.32
0.0218	362.38	8010	635.37	0.33
0.0218	362.38	9008	636.85	0.34
0.0218	362.38	10010	638.18	0.35
0.0218	362.38	11002	639.5	0.36
0.0218	362.38	12004	640.84	0.37
0.0218	362.38	13001	642.13	0.38
0.0218	362.38	14009	643.41	0.39
0.0218	362.38	15004	644.62	0.4
0.0218	362.38	16005	645.88	0.41
0.0218	362.38	16999	647.06	0.42
0.0218	362.38	18001	648.25	0.43
0.0218	362.38	18994	649.38	0.44
0.0218	362.38	19999	650.56	0.45
0.0218	362.38	21006	651.69	0.46
0.0218	362.38	22002	652.83	0.47
0.0218	362.38	23003	653.91	0.48
0.0218	362.38	23995	655.01	0.49
0.0218	362.38	25005	656.12	0.5
0.3148	312.94	5011	693.37	0.29
0.3148	312.94	6008	694.74	0.29
0.3148	312.94	7004	696.16	0.3
0.3148	312.94	8002	697.62	0.31
0.3148	312.94	8997	699.03	0.31
0.3148	312.94	9991	700.6	0.32
0.3148	312.94	11000	701.81	0.33
0.3148	312.94	12009	703.08	0.33
0.3148	312.94	13002	704.39	0.34
0.3148	312.94	13992	705.63	0.35
0.3148	312.94	15009	706.99	0.36
0.3148	312.94	16009	708.23	0.36
0.3148	312.94	16997	709.2	0.37
0.3148	312.94	18018	710.45	0.38
0.3148	312.94	19015	711.73	0.39
0.3148	312.94	20006	712.83	0.39
0.3148	312.94	21008	713.93	0.4
0.3148	312.94	22010	715.06	0.41
0.3148	312.94	23004	716.14	0.42
0.3148	312.94	24017	717.34	0.42
0.3148	312.94	24997	718.41	0.44
0.3148	322.85	5012	682.49	0.29
0.3148	322.85	6012	684.11	0.3
0.3148	322.85	7008	685.75	0.3
0.3148	322.85	8009	687.35	0.31
0.3148	322.85	8996	688.86	0.32
0.3148	322.85	10005	690.36	0.33
0.3148	322.85	11012	691.87	0.33
0.3148	322.85	11996	693.32	0.34
0.3148	322.85	13003	694.75	0.35
0.3148	322.85	14006	696.09	0.36
0.3148	322.85	15010	697.48	0.36
0.3148	322.85	16003	698.79	0.37
0.3148	322.85	17009	700.14	0.38
0.3148	322.85	18001	701.39	0.39
0.3148	322.85	19012	702.67	0.39
0.3148	322.85	20007	703.86	0.4
0.3148	322.85	21000	705.12	0.41
0.3148	322.85	22017	706.33	0.42
0.3148	322.85	23010	707.55	0.42
0.3148	322.85	23985	708.71	0.43
0.3148	322.85	25004	709.93	0.44
0.3148	332.72	5013	672.27	0.29
0.3148	332.72	6004	673.82	0.3
0.3148	332.72	7000	675.27	0.31
0.3148	332.72	8008	676.79	0.32
0.3148	332.72	9003	678.48	0.32
0.3148	332.72	10007	680.17	0.33
0.3148	332.72	11008	681.84	0.34
0.3148	332.72	11995	683.4	0.35
0.3148	332.72	12994	684.97	0.35
0.3148	332.72	14002	686.5	0.36
0.3148	332.72	15009	688.01	0.37
0.3148	332.72	16005	689.47	0.38
0.3148	332.72	16994	690.88	0.39
0.3148	332.72	17996	692.28	0.39
0.3148	332.72	19002	693.66	0.4
0.3148	332.72	20001	695.02	0.41
0.3148	332.72	21004	696.34	0.42
0.3148	332.72	22014	697.64	0.43
0.3148	332.72	22998	698.95	0.43
0.3148	332.72	24000	700.22	0.44
0.3148	332.72	25010	701.53	0.45
0.3148	342.59	5015	660.43	0.3
0.3148	342.59	6006	662.35	0.31
0.3148	342.59	7008	664.12	0.31
0.3148	342.59	8003	665.96	0.32
0.3148	342.59	9023	667.75	0.33
0.3148	342.59	10000	669.58	0.34
0.3148	342.59	11004	671.39	0.35
0.3148	342.59	12012	673.16	0.35
0.3148	342.59	13009	674.92	0.36
0.3148	342.59	14006	676.58	0.37
0.3148	342.59	15007	678.19	0.38
0.3148	342.59	16000	679.78	0.39
0.3148	342.59	17008	681.37	0.39
0.3148	342.59	18004	682.88	0.4
0.3148	342.59	19000	684.38	0.41
0.3148	342.59	20000	685.86	0.42
0.3148	342.59	21018	687.3	0.43
0.3148	342.59	22006	688.68	0.43
0.3148	342.59	23014	690.13	0.44
0.3148	342.59	24010	691.48	0.45
0.3148	342.59	25016	692.87	0.46
0.3148	351.97	7006	652.07	0.32
0.3148	351.97	8006	654.34	0.33
0.3148	351.97	9004	656.45	0.34
0.3148	351.97	10010	658.6	0.35
0.3148	351.97	11002	660.62	0.35
0.3148	351.97	12003	662.65	0.36
0.3148	351.97	13003	664.59	0.37
0.3148	351.97	14001	666.48	0.38
0.3148	351.97	15008	668.29	0.39
0.3148	351.97	15998	670.12	0.39
0.3148	351.97	17018	671.87	0.4
0.3148	351.97	17988	673.47	0.41
0.3148	351.97	19003	675.21	0.42
0.3148	351.97	20004	676.85	0.43
0.3148	351.97	21004	678.45	0.44
0.3148	351.97	22002	680.02	0.44
0.3148	351.97	22992	681.54	0.45
0.3148	351.97	23999	683.05	0.46
0.3148	351.97	25008	684.53	0.47
0.3148	362.19	7007	638.82	0.33
0.3148	362.19	8020	641.6	0.34
0.3148	362.19	9013	644.14	0.35
0.3148	362.19	10009	646.61	0.36
0.3148	362.19	11005	648.99	0.36
0.3148	362.19	12009	651.27	0.37
0.3148	362.19	12998	653.42	0.38
0.3148	362.19	13999	655.52	0.39
0.3148	362.19	15011	657.61	0.4
0.3148	362.19	16007	659.59	0.4
0.3148	362.19	17005	661.48	0.41
0.3148	362.19	18002	663.3	0.42
0.3148	362.19	18999	665.1	0.43
0.3148	362.19	20006	666.9	0.44
0.3148	362.19	21004	668.62	0.45
0.3148	362.19	22001	670.29	0.45
0.3148	362.19	23006	671.94	0.46
0.3148	362.19	24001	673.55	0.47
0.3148	362.19	25007	675.13	0.48
0.5085	313.03	5011	706.14	0.29
0.5085	313.03	6005	708.31	0.29
0.5085	313.03	7004	710.37	0.3
0.5085	313.03	8011	712.42	0.31
0.5085	313.03	8996	714.37	0.31
0.5085	313.03	10001	716.4	0.32
0.5085	313.03	11006	718.29	0.32
0.5085	313.03	11994	720.05	0.33
0.5085	313.03	13000	721.92	0.34
0.5085	313.03	14002	723.71	0.34
0.5085	313.03	15010	725.36	0.35
0.5085	313.03	16006	727.16	0.36
0.5085	313.03	17002	728.84	0.36
0.5085	313.03	18023	730.55	0.37
0.5085	313.03	19009	732.08	0.37
0.5085	313.03	20003	733.69	0.38
0.5085	313.03	21000	735.25	0.39
0.5085	313.03	22016	736.75	0.39
0.5085	313.03	23006	738.31	0.4
0.5085	313.03	24019	739.74	0.41
0.5085	313.03	25004	741.18	0.42
0.5085	322.94	5006	691.2	0.3
0.5085	322.94	6004	693.82	0.3
0.5085	322.94	7005	696.6	0.3
0.5085	322.94	8009	698.81	0.31
0.5085	322.94	9010	701.04	0.32
0.5085	322.94	10006	703.24	0.32
0.5085	322.94	10997	705.29	0.33
0.5085	322.94	12001	707.34	0.34
0.5085	322.94	12998	709.37	0.34
0.5085	322.94	14004	711.26	0.35
0.5085	322.94	15009	713.17	0.36
0.5085	322.94	16004	715.02	0.36
0.5085	322.94	17009	716.84	0.37
0.5085	322.94	18003	718.61	0.37
0.5085	322.94	19009	720.34	0.38
0.5085	322.94	20004	722.03	0.39
0.5085	322.94	21007	723.66	0.39
0.5085	322.94	21995	725.31	0.4
0.5085	322.94	23002	726.96	0.41
0.5085	322.94	24002	728.57	0.41
0.5085	322.94	25011	730.19	0.42
0.5085	332.83	6993	682.63	0.32
0.5085	332.83	8019	685.45	0.32
0.5085	332.83	9012	688	0.32
0.5085	332.83	10004	690.4	0.33
0.5085	332.83	11006	692.81	0.34
0.5085	332.83	12005	695.15	0.34
0.5085	332.83	13003	697.36	0.35
0.5085	332.83	13999	699.53	0.36
0.5085	332.83	15005	701.72	0.36
0.5085	332.83	16003	703.82	0.37
0.5085	332.83	17000	706.1	0.38
0.5085	332.83	18006	708.26	0.38
0.5085	332.83	19000	710.51	0.39
0.5085	332.83	20000	712.6	0.4
0.5085	332.83	20991	714.75	0.4
0.5085	332.83	22000	716.83	0.41
0.5085	332.83	23003	718.86	0.41
0.5085	332.83	24000	720.81	0.42
0.5085	332.83	25002	722.78	0.43
0.5085	342.73	8002	670.04	0.33
0.5085	342.73	9011	673.34	0.34
0.5085	342.73	10003	676.47	0.34
0.5085	342.73	11006	679.46	0.34
0.5085	342.73	12005	682.3	0.35
0.5085	342.73	13011	685.03	0.36
0.5085	342.73	14001	687.62	0.37
0.5085	342.73	15001	690.13	0.37
0.5085	342.73	16006	692.58	0.38
0.5085	342.73	17007	694.92	0.39
0.5085	342.73	17999	697.18	0.39
0.5085	342.73	19004	699.4	0.4
0.5085	342.73	20003	701.54	0.41
0.5085	342.73	21007	703.69	0.41
0.5085	342.73	22001	705.73	0.42
0.5085	342.73	23008	707.8	0.43
0.5085	342.73	23998	709.81	0.43
0.5085	342.73	25003	711.79	0.44
0.5085	352.51	9000	656.72	0.35
0.5085	352.51	10004	660.28	0.35
0.5085	352.51	11004	663.66	0.36
0.5085	352.51	12007	666.9	0.37
0.5085	352.51	13000	670.03	0.37
0.5085	352.51	14003	673	0.38
0.5085	352.51	15002	675.9	0.39
0.5085	352.51	15998	678.62	0.39
0.5085	352.51	17010	681.33	0.4
0.5085	352.51	18003	683.88	0.41
0.5085	352.51	19006	686.38	0.41
0.5085	352.51	20013	688.8	0.42
0.5085	352.51	21004	691.17	0.43
0.5085	352.51	22004	693.46	0.43
0.5085	352.51	23002	695.71	0.44
0.5085	352.51	24007	697.91	0.45
0.5085	352.51	25011	700.05	0.45
0.5085	362.38	9009	638.92	0.36
0.5085	362.38	10008	643.09	0.37
0.5085	362.38	10998	646.98	0.37
0.5085	362.38	12009	650.8	0.4
0.5085	362.38	13001	654.31	0.41
0.5085	362.38	14002	657.71	0.41
0.5085	362.38	15013	660.97	0.42
0.5085	362.38	16008	664.05	0.42
0.5085	362.38	17005	667.09	0.42
0.5085	362.38	18005	670.02	0.43
0.5085	362.38	19006	672.76	0.43
0.5085	362.38	20009	675.44	0.44
0.5085	362.38	21006	678.11	0.45
0.5085	362.38	22010	680.57	0.45
0.5085	362.38	23002	683.07	0.46
0.5085	362.38	23997	685.41	0.46
0.5085	362.38	25008	687.82	0.47
0.7514	312.98	7014	729.2	0.32
0.7514	312.98	8012	733.47	0.33
0.7514	312.98	8996	737.34	0.33
0.7514	312.98	10005	741.22	0.33
0.7514	312.98	10989	744.88	0.31
0.7514	312.98	12007	748.38	0.32
0.7514	312.98	12994	751.74	0.33
0.7514	312.98	14005	754.92	0.34
0.7514	312.98	14990	758	0.34
0.7514	312.98	16009	761.15	0.35
0.7514	312.98	17002	764.01	0.36
0.7514	312.98	17990	766.8	0.36
0.7514	312.98	19008	769.54	0.37
0.7514	312.98	20006	772.19	0.37
0.7514	312.98	21018	774.69	0.38
0.7514	312.98	21997	777.23	0.38
0.7514	312.98	23004	779.67	0.39
0.7514	312.98	23994	782.07	0.4
0.7514	312.98	24571	783.46	0.6
0.7514	322.91	8013	707.83	0.34
0.7514	322.91	8994	712.85	0.34
0.7514	322.91	10015	717.65	0.35
0.7514	322.91	10996	722.08	0.37
0.7514	322.91	12005	726.29	0.35
0.7514	322.91	13025	730.31	0.35
0.7514	322.91	13986	733.99	0.35
0.7514	322.91	15009	737.66	0.36
0.7514	322.91	16002	741.14	0.36
0.7514	322.91	17007	744.51	0.36
0.7514	322.91	17997	747.63	0.36
0.7514	322.91	19009	750.74	0.37
0.7514	322.91	20004	753.71	0.37
0.7514	322.91	21008	756.6	0.37
0.7514	322.91	22022	759.49	0.38
0.7514	322.91	23010	762.14	0.38
0.7514	322.91	23983	764.78	0.39
0.7514	322.91	24907	767.21	0.4
0.7514	332.73	9976	687.42	0.38
0.7514	332.73	11027	694.77	0.41
0.7514	332.73	12005	701.07	0.39
0.7514	332.73	13004	706.72	0.39
0.7514	332.73	14002	712.07	0.38
0.7514	332.73	15007	716.96	0.38
0.7514	332.73	16008	721.73	0.38
0.7514	332.73	17006	726.16	0.38
0.7514	332.73	17992	730.25	0.38
0.7514	332.73	19005	734.18	0.39
0.7514	332.73	19992	737.97	0.39
0.7514	332.73	21048	741.67	0.39
0.7514	332.73	21991	745.02	0.39
0.7514	332.73	22997	748.43	0.4
0.7514	332.73	23997	751.86	0.4
0.7514	332.73	24860	754.69	0.4
0.7514	342.59	11999	668.27	0.41
0.7514	342.59	13078	677.39	0.41
0.7514	342.59	14002	684.02	0.42
0.7514	342.59	14980	690.44	0.41
0.7514	342.59	16000	696.41	0.41
0.7514	342.59	17006	701.98	0.41
0.7514	342.59	18003	707.17	0.41
0.7514	342.59	18988	711.38	0.41
0.7514	342.59	20006	716.85	0.42
0.7514	342.59	21010	721.31	0.42
0.7514	342.59	22004	725.37	0.42
0.7514	342.59	23009	729.36	0.42
0.7514	342.59	24006	733.15	0.43
0.7514	342.59	24951	736.71	0.43
0.7514	352.3	12013	641.2	0.43
0.7514	352.3	13001	649.87	0.48
0.7514	352.3	14004	657.71	0.47
0.7514	352.3	15036	665.3	0.5
0.7514	352.3	16003	671.66	0.47
0.7514	352.3	17017	677.97	0.46
0.7514	352.3	18016	683.63	0.45
0.7514	352.3	18998	689.01	0.45
0.7514	352.3	20004	694.21	0.45
0.7514	352.3	21007	699.11	0.45
0.7514	352.3	22009	703.64	0.45
0.7514	352.3	22989	707.97	0.45
0.7514	352.3	24025	712.39	0.45
0.7514	352.3	24893	715.94	0.48
0.7514	362.09	12975	586.38	0.62
0.7514	362.09	14000	602.3	0.59
0.7514	362.09	14863	613.15	0.56
0.7514	362.09	16010	625.83	0.54
0.7514	362.09	17009	635.46	0.59
0.7514	362.09	18017	644.3	0.58
0.7514	362.09	19007	652.35	0.56
0.7514	362.09	20005	659.83	0.55
0.7514	362.09	21006	666.86	0.53
0.7514	362.09	22003	672.93	0.52
0.7514	362.09	22995	679.37	0.52
0.7514	362.09	24000	685.55	0.51
0.7514	362.09	24866	690.92	0.51
0.9496	312.02	10986	729.05	0.62
0.9496	312.02	12001	747.88	0.6
0.9496	312.02	13001	763.05	0.54
0.9496	312.02	13981	776.11	0.5
0.9496	312.02	15000	787.02	0.47
0.9496	312.02	16006	797.48	0.45
0.9496	312.02	16997	806.48	0.43
0.9496	312.02	18005	814.74	0.41
0.9496	312.02	19001	822.53	0.4
0.9496	312.02	19995	829.62	0.39
0.9496	312.02	20996	836.32	0.39
0.9496	312.02	22002	842.78	0.38
0.9496	312.02	23003	848.74	0.37
0.9496	312.02	24007	854.47	0.37
0.9496	312.02	24361	856.44	0.37
0.9496	322.96	12028	666.43	0.92
0.9496	322.96	13010	691.64	0.69
0.9496	322.96	13994	711.79	0.61
0.9496	322.96	14997	728.42	0.56
0.9496	322.96	16006	742.98	0.52
0.9496	322.96	17008	755.69	0.49
0.9496	322.96	17999	766.84	0.47
0.9496	322.96	19001	777.08	0.45
0.9496	322.96	20001	786.26	0.44
0.9496	322.96	20994	794.84	0.43
0.9496	322.96	21997	802.85	0.42
0.9496	322.96	23019	810.46	0.41
0.9496	322.96	23997	817.33	0.4
0.9496	322.96	24395	820.02	0.39
0.9496	332.7	12055	554.72	1.12
0.9496	332.7	13001	599.39	0.97
0.9496	332.7	14003	633.33	0.81
0.9496	332.7	14995	659.11	0.71
0.9496	332.7	16003	680.52	0.64
0.9496	332.7	16980	697.86	0.59
0.9496	332.7	18002	713.39	0.55
0.9496	332.7	19004	727.03	0.53
0.9496	332.7	19979	738.9	0.51
0.9496	332.7	20995	749.98	0.49
0.9496	332.7	22006	760	0.48
0.9496	332.7	23011	769.32	0.46
0.9496	332.7	24046	778.17	0.46
0.9496	332.7	24505	781.98	0.45
0.9496	342.71	13106	500.65	1.1
0.9496	342.71	13985	541.93	1
0.9496	342.71	15012	579.95	0.85
0.9496	342.71	16000	609.5	0.75
0.9496	342.71	17009	634.13	0.69
0.9496	342.71	17984	654.42	0.64
0.9496	342.71	18996	672.31	0.6
0.9496	342.71	19994	687.85	0.57
0.9496	342.71	20999	701.79	0.55
0.9496	342.71	22001	714.18	0.53
0.9496	342.71	23009	725.67	0.51
0.9496	342.71	23985	735.74	0.5
0.9496	342.71	24518	740.87	0.5
0.9496	352.54	15235	511.88	0.9
0.9496	352.54	15989	538.42	0.85
0.9496	352.54	17004	568.84	0.77
0.9496	352.54	18001	594.2	0.71
0.9496	352.54	18993	616.18	0.67
0.9496	352.54	20006	635.42	0.63
0.9496	352.54	20999	652.26	0.61
0.9496	352.54	22018	667.75	0.58
0.9496	352.54	22994	681.03	0.57
0.9496	352.54	24034	693.84	0.55
0.9496	362.25	17354	518.07	0.81
0.9496	362.25	17995	536.06	0.78
0.9496	362.25	19006	561.22	0.74
0.9496	362.25	20005	583.24	0.7
0.9496	362.25	21002	602.87	0.67
0.9496	362.25	21997	620.08	0.64
0.9496	362.25	22998	635.9	0.62
0.9496	362.25	24005	650.25	0.6
0.9496	362.25	24186	652.75	0.6

System: carbon dioxide + tridecane; phases: Liquid
Property: Mass density, kg/m3 (Liquid); method: Vibrating tube method
Mole fraction of carbon dioxide	Temperature, K	Pressure, kPa	Mass density, kg/m3	uncertainty
0.0955	313.15	9000	750.6	0.3
0.0955	313.15	10000	751.4	0.3
0.0955	313.15	11000	752.2	0.3
0.0955	313.15	12000	753	0.3
0.0955	313.15	13000	753.7	0.4
0.0955	313.15	14000	754.5	0.4
0.0955	313.15	15000	755.2	0.4
0.0955	313.15	16000	756	0.4
0.0955	313.15	17000	756.6	0.4
0.0955	313.15	18000	757.3	0.4
0.0955	313.15	19000	758	0.4
0.0955	313.15	20000	758.7	0.4
0.0955	313.15	21000	759.3	0.4
0.0955	313.15	22000	759.9	0.4
0.0955	313.15	23000	760.5	0.4
0.0955	313.15	24000	761.1	0.4
0.0955	313.15	25000	761.7	0.4
0.0955	323.16	9000	743.8	0.3
0.0955	323.16	10000	744.6	0.3
0.0955	323.16	11000	745.4	0.3
0.0955	323.16	12000	746.2	0.3
0.0955	323.16	13000	746.9	0.4
0.0955	323.16	14000	747.7	0.4
0.0955	323.16	15000	748.5	0.4
0.0955	323.16	16000	749.2	0.4
0.0955	323.16	17000	750	0.4
0.0955	323.16	18000	750.7	0.4
0.0955	323.16	19000	751.4	0.4
0.0955	323.16	20000	752.1	0.4
0.0955	323.16	21000	752.8	0.4
0.0955	323.16	22000	753.4	0.4
0.0955	323.16	23000	754.1	0.4
0.0955	323.16	24000	754.7	0.4
0.0955	323.16	25000	755.3	0.4
0.0955	333.3	9000	736.6	0.3
0.0955	333.3	10000	737.4	0.3
0.0955	333.3	11000	738.3	0.3
0.0955	333.3	12000	739.1	0.4
0.0955	333.3	13000	739.9	0.4
0.0955	333.3	14000	740.8	0.4
0.0955	333.3	15000	741.6	0.4
0.0955	333.3	16000	742.3	0.4
0.0955	333.3	17000	743.1	0.4
0.0955	333.3	18000	743.9	0.4
0.0955	333.3	19000	744.6	0.4
0.0955	333.3	20000	745.3	0.4
0.0955	333.3	21000	746.1	0.4
0.0955	333.3	22000	746.7	0.4
0.0955	333.3	23000	747.4	0.4
0.0955	333.3	24000	748.1	0.4
0.0955	333.3	25000	748.7	0.4
0.0955	343.14	9000	729.8	0.3
0.0955	343.14	10000	730.6	0.3
0.0955	343.14	11000	731.5	0.3
0.0955	343.14	12000	732.4	0.4
0.0955	343.14	13000	733.2	0.4
0.0955	343.14	14000	734.1	0.4
0.0955	343.14	15000	734.9	0.4
0.0955	343.14	16000	735.7	0.4
0.0955	343.14	17000	736.5	0.4
0.0955	343.14	18000	737.3	0.4
0.0955	343.14	19000	738.1	0.4
0.0955	343.14	20000	738.9	0.4
0.0955	343.14	21000	739.6	0.4
0.0955	343.14	22000	740.4	0.4
0.0955	343.14	23000	741.1	0.4
0.0955	343.14	24000	741.8	0.4
0.0955	343.14	25000	742.5	0.5
0.0955	353.12	9000	722.6	0.3
0.0955	353.12	10000	723.6	0.3
0.0955	353.12	11000	724.5	0.4
0.0955	353.12	12000	725.4	0.4
0.0955	353.12	13000	726.3	0.4
0.0955	353.12	14000	727.2	0.4
0.0955	353.12	15000	728.1	0.4
0.0955	353.12	16000	729	0.4
0.0955	353.12	17000	729.9	0.4
0.0955	353.12	18000	730.7	0.4
0.0955	353.12	19000	731.5	0.4
0.0955	353.12	20000	732.3	0.4
0.0955	353.12	21000	733.1	0.4
0.0955	353.12	22000	733.9	0.4
0.0955	353.12	23000	734.6	0.4
0.0955	353.12	24000	735.4	0.5
0.0955	353.12	25000	736.1	0.5
0.0955	363.11	9000	715.7	0.3
0.0955	363.11	10000	716.7	0.3
0.0955	363.11	11000	717.7	0.4
0.0955	363.11	12000	718.7	0.4
0.0955	363.11	13000	719.6	0.4
0.0955	363.11	14000	720.5	0.4
0.0955	363.11	15000	721.5	0.4
0.0955	363.11	16000	722.4	0.4
0.0955	363.11	17000	723.3	0.4
0.0955	363.11	18000	724.1	0.4
0.0955	363.11	19000	725	0.4
0.0955	363.11	20000	725.8	0.4
0.0955	363.11	21000	726.6	0.4
0.0955	363.11	22000	727.5	0.4
0.0955	363.11	23000	728.3	0.4
0.0955	363.11	24000	729.1	0.5
0.0955	363.11	25000	729.9	0.5
0.2526	313.15	9000	754.3	0.3
0.2526	313.15	10000	755.1	0.3
0.2526	313.15	11000	756	0.3
0.2526	313.15	12000	756.8	0.3
0.2526	313.15	13000	757.6	0.3
0.2526	313.15	14000	758.4	0.3
0.2526	313.15	15000	759.2	0.4
0.2526	313.15	16000	759.9	0.4
0.2526	313.15	17000	760.7	0.4
0.2526	313.15	18000	761.4	0.4
0.2526	313.15	19000	762.1	0.4
0.2526	313.15	20000	762.8	0.4
0.2526	313.15	21000	763.5	0.4
0.2526	313.15	22000	764.2	0.4
0.2526	313.15	23000	764.8	0.4
0.2526	313.15	24000	765.4	0.4
0.2526	313.15	25000	766	0.4
0.2526	323.16	9000	747	0.3
0.2526	323.16	10000	747.9	0.3
0.2526	323.16	11000	748.7	0.3
0.2526	323.16	12000	749.6	0.3
0.2526	323.16	13000	750.4	0.3
0.2526	323.16	14000	751.2	0.3
0.2526	323.16	15000	752.1	0.4
0.2526	323.16	16000	752.9	0.4
0.2526	323.16	17000	753.7	0.4
0.2526	323.16	18000	754.4	0.4
0.2526	323.16	19000	755.2	0.4
0.2526	323.16	20000	755.9	0.4
0.2526	323.16	21000	756.6	0.4
0.2526	323.16	22000	757.3	0.4
0.2526	323.16	23000	758	0.4
0.2526	323.16	24000	758.7	0.4
0.2526	323.16	25000	759.3	0.4
0.2526	333.3	9000	739.5	0.3
0.2526	333.3	10000	740.4	0.3
0.2526	333.3	11000	741.4	0.3
0.2526	333.3	12000	742.3	0.3
0.2526	333.3	13000	743.1	0.3
0.2526	333.3	14000	744	0.4
0.2526	333.3	15000	744.9	0.4
0.2526	333.3	16000	745.7	0.4
0.2526	333.3	17000	746.5	0.4
0.2526	333.3	18000	747.3	0.4
0.2526	333.3	19000	748.1	0.4
0.2526	333.3	20000	748.9	0.4
0.2526	333.3	21000	749.7	0.4
0.2526	333.3	22000	750.5	0.4
0.2526	333.3	23000	751.2	0.4
0.2526	333.3	24000	751.9	0.4
0.2526	333.3	25000	752.6	0.4
0.2526	343.14	9000	732.2	0.3
0.2526	343.14	10000	733.2	0.3
0.2526	343.14	11000	734.1	0.3
0.2526	343.14	12000	735	0.3
0.2526	343.14	13000	736	0.3
0.2526	343.14	14000	736.9	0.4
0.2526	343.14	15000	737.8	0.4
0.2526	343.14	16000	738.6	0.4
0.2526	343.14	17000	739.5	0.4
0.2526	343.14	18000	740.4	0.4
0.2526	343.14	19000	741.2	0.4
0.2526	343.14	20000	742	0.4
0.2526	343.14	21000	742.8	0.4
0.2526	343.14	22000	743.6	0.4
0.2526	343.14	23000	744.4	0.4
0.2526	343.14	24000	745.1	0.4
0.2526	343.14	25000	745.9	0.4
0.2526	353.12	9000	724.8	0.3
0.2526	353.12	10000	725.8	0.3
0.2526	353.12	11000	726.8	0.3
0.2526	353.12	12000	727.8	0.3
0.2526	353.12	13000	728.8	0.4
0.2526	353.12	14000	729.7	0.4
0.2526	353.12	15000	730.7	0.4
0.2526	353.12	16000	731.6	0.4
0.2526	353.12	17000	732.5	0.4
0.2526	353.12	18000	733.4	0.4
0.2526	353.12	19000	734.3	0.4
0.2526	353.12	20000	735.2	0.4
0.2526	353.12	21000	736	0.4
0.2526	353.12	22000	736.8	0.4
0.2526	353.12	23000	737.6	0.4
0.2526	353.12	24000	738.5	0.4
0.2526	353.12	25000	739.2	0.4
0.2526	363.11	9000	717.4	0.3
0.2526	363.11	10000	718.4	0.3
0.2526	363.11	11000	719.5	0.3
0.2526	363.11	12000	720.5	0.4
0.2526	363.11	13000	721.5	0.4
0.2526	363.11	14000	722.6	0.4
0.2526	363.11	15000	723.6	0.4
0.2526	363.11	16000	724.6	0.4
0.2526	363.11	17000	725.5	0.4
0.2526	363.11	18000	726.4	0.4
0.2526	363.11	19000	727.4	0.4
0.2526	363.11	20000	728.3	0.4
0.2526	363.11	21000	729.2	0.4
0.2526	363.11	22000	730.1	0.4
0.2526	363.11	23000	731	0.4
0.2526	363.11	24000	731.8	0.4
0.2526	363.11	25000	732.7	0.4
0.5259	313.16	8000	768.4	0.3
0.5259	313.16	9000	769.6	0.3
0.5259	313.16	10000	770.7	0.3
0.5259	313.16	11000	771.9	0.3
0.5259	313.16	12000	773	0.3
0.5259	313.16	13000	774.1	0.3
0.5259	313.16	14000	775.1	0.3
0.5259	313.16	15000	776.2	0.3
0.5259	313.16	16000	777.2	0.3
0.5259	313.16	17000	778.2	0.3
0.5259	313.16	18000	779.2	0.3
0.5259	313.16	19000	780.2	0.4
0.5259	313.16	20000	781.1	0.4
0.5259	313.16	21000	782	0.4
0.5259	313.16	23000	783.8	0.4
0.5259	313.16	24000	784.6	0.4
0.5259	313.16	25000	785.5	0.4
0.5259	323.19	8000	758.8	0.3
0.5259	323.19	9000	760.1	0.3
0.5259	323.19	10000	761.4	0.3
0.5259	323.19	11000	762.6	0.3
0.5259	323.19	12000	763.8	0.3
0.5259	323.19	13000	764.9	0.3
0.5259	323.19	14000	766	0.3
0.5259	323.19	15000	767.2	0.3
0.5259	323.19	16000	768.2	0.3
0.5259	323.19	17000	769.3	0.3
0.5259	323.19	18000	770.4	0.3
0.5259	323.19	19000	771.4	0.4
0.5259	323.19	20000	772.4	0.4
0.5259	323.19	21000	773.3	0.4
0.5259	323.19	22000	774.3	0.4
0.5259	323.19	23000	775.3	0.4
0.5259	323.19	24000	776.2	0.4
0.5259	323.19	25000	777	0.4
0.5259	333.16	8000	749	0.3
0.5259	333.16	9000	750.4	0.3
0.5259	333.16	10000	751.7	0.3
0.5259	333.16	11000	753	0.3
0.5259	333.16	12000	754.2	0.3
0.5259	333.16	13000	755.5	0.3
0.5259	333.16	14000	756.7	0.3
0.5259	333.16	15000	757.9	0.3
0.5259	333.16	16000	759	0.3
0.5259	333.16	17000	760.2	0.3
0.5259	333.16	18000	761.3	0.4
0.5259	333.16	19000	762.4	0.4
0.5259	333.16	20000	763.4	0.4
0.5259	333.16	21000	764.5	0.4
0.5259	333.16	22000	765.5	0.4
0.5259	333.16	23000	766.5	0.4
0.5259	333.16	24000	767.5	0.4
0.5259	333.16	25000	768.5	0.4
0.5259	343.02	8000	739.5	0.3
0.5259	343.02	9000	740.9	0.3
0.5259	343.02	10000	742.3	0.3
0.5259	343.02	11000	743.7	0.3
0.5259	343.02	12000	745.1	0.3
0.5259	343.02	13000	746.4	0.3
0.5259	343.02	14000	747.6	0.3
0.5259	343.02	15000	748.9	0.3
0.5259	343.02	16000	750.1	0.3
0.5259	343.02	17000	751.3	0.4
0.5259	343.02	18000	752.5	0.4
0.5259	343.02	19000	753.7	0.4
0.5259	343.02	20000	754.8	0.4
0.5259	343.02	21000	755.9	0.4
0.5259	343.02	22000	757	0.4
0.5259	343.02	23000	758.1	0.4
0.5259	343.02	24000	759.2	0.4
0.5259	343.02	25000	760.2	0.4
0.5259	353.15	8000	729.7	0.3
0.5259	353.15	9000	731.2	0.3
0.5259	353.15	10000	732.7	0.3
0.5259	353.15	11000	734.2	0.3
0.5259	353.15	12000	735.6	0.3
0.5259	353.15	13000	737	0.3
0.5259	353.15	14000	738.3	0.3
0.5259	353.15	15000	739.7	0.3
0.5259	353.15	16000	741	0.4
0.5259	353.15	17000	742.3	0.4
0.5259	353.15	18000	743.6	0.4
0.5259	353.15	19000	744.9	0.4
0.5259	353.15	20000	746	0.4
0.5259	353.15	21000	747.3	0.4
0.5259	353.15	22000	748.4	0.4
0.5259	353.15	23000	749.6	0.4
0.5259	353.15	24000	750.6	0.4
0.5259	353.15	25000	751.8	0.4
0.5259	363.11	10000	723	0.3
0.5259	363.11	11000	724.6	0.3
0.5259	363.11	12000	726.2	0.3
0.5259	363.11	13000	727.6	0.3
0.5259	363.11	14000	729.2	0.3
0.5259	363.11	15000	730.6	0.4
0.5259	363.11	16000	732	0.4
0.5259	363.11	17000	733.4	0.4
0.5259	363.11	18000	734.7	0.4
0.5259	363.11	19000	736	0.4
0.5259	363.11	20000	737.3	0.4
0.5259	363.11	21000	738.6	0.4
0.5259	363.11	22000	739.9	0.4
0.5259	363.11	23000	741.1	0.4
0.5259	363.11	24000	742.3	0.4
0.5259	363.11	25000	743.4	0.4
0.7549	313.15	9000	791.4	0.3
0.7549	313.15	10000	794.4	0.3
0.7549	313.15	11000	797.7	0.3
0.7549	313.15	12000	800.8	0.3
0.7549	313.15	13000	803.7	0.3
0.7549	313.15	14000	806.6	0.3
0.7549	313.15	15000	809.4	0.3
0.7549	313.15	16000	812.1	0.3
0.7549	313.15	17000	814.8	0.3
0.7549	313.15	18000	817.4	0.3
0.7549	313.15	19000	819.8	0.3
0.7549	313.15	20000	822.2	0.3
0.7549	313.15	21000	824.6	0.3
0.7549	313.15	22000	826.9	0.3
0.7549	313.15	23000	829.1	0.3
0.7549	313.15	24000	831.2	0.3
0.7549	313.15	25000	833.3	0.3
0.7549	323.16	11000	778.8	0.4
0.7549	323.16	12000	781.9	0.3
0.7549	323.16	13000	785.1	0.3
0.7549	323.16	14000	788.1	0.3
0.7549	323.16	15000	791.5	0.3
0.7549	323.16	16000	794.6	0.3
0.7549	323.16	17000	798.1	0.3
0.7549	323.16	18000	801.2	0.3
0.7549	323.16	19000	804.1	0.3
0.7549	323.16	20000	807	0.3
0.7549	323.16	21000	809.5	0.3
0.7549	323.16	22000	812.4	0.3
0.7549	323.16	23000	815	0.3
0.7549	323.16	24000	817.5	0.3
0.7549	323.16	25000	820	0.3
0.7549	333.28	12000	762.3	0.3
0.7549	333.28	13000	766.5	0.3
0.7549	333.28	14000	769.6	0.3
0.7549	333.28	15000	772.6	0.3
0.7549	333.28	16000	775.6	0.3
0.7549	333.28	17000	778.6	0.3
0.7549	333.28	18000	781.5	0.3
0.7549	333.28	19000	784.5	0.3
0.7549	333.28	20000	787.4	0.4
0.7549	333.28	21000	790.4	0.4
0.7549	333.28	22000	793.1	0.4
0.7549	333.28	23000	795.7	0.4
0.7549	333.28	24000	798.4	0.4
0.7549	333.28	25000	800.8	0.4
0.7549	343.32	14000	752.1	0.4
0.7549	343.32	15000	755.2	0.3
0.7549	343.32	16000	758	0.3
0.7549	343.32	17000	760.9	0.4
0.7549	343.32	18000	763.8	0.4
0.7549	343.32	19000	766.7	0.4
0.7549	343.32	20000	769.6	0.4
0.7549	343.32	21000	772.4	0.4
0.7549	343.32	22000	775.2	0.4
0.7549	343.32	23000	777.9	0.4
0.7549	343.32	24000	780.7	0.4
0.7549	343.32	25000	783.5	0.4
0.7549	353.35	16000	739.7	0.5
0.7549	353.35	17000	742.7	0.4
0.7549	353.35	18000	745.7	0.4
0.7549	353.35	19000	748.7	0.4
0.7549	353.35	20000	751.8	0.4
0.7549	353.35	21000	754.9	0.4
0.7549	353.35	22000	757.9	0.4
0.7549	353.35	23000	760.8	0.4
0.7549	353.35	24000	763.8	0.4
0.7549	353.35	25000	766.7	0.4
0.7549	363.34	16000	720.1	0.4
0.7549	363.34	17000	724.7	0.4
0.7549	363.34	18000	728.3	0.4
0.7549	363.34	19000	730.8	0.4
0.7549	363.34	20000	734.2	0.4
0.7549	363.34	21000	737.3	0.4
0.7549	363.34	22000	740.5	0.4
0.7549	363.34	23000	743.8	0.4
0.7549	363.34	24000	746.9	0.4
0.7549	363.34	25000	750.1	0.5
0.8978	313.15	9000	790.8	0.3
0.8978	313.15	10000	795.2	0.3
0.8978	313.15	11000	799.4	0.3
0.8978	313.15	12000	803.7	0.3
0.8978	313.15	13000	807.9	0.3
0.8978	313.15	14000	812	0.3
0.8978	313.15	15000	815.9	0.3
0.8978	313.15	16000	819.5	0.3
0.8978	313.15	17000	823.1	0.3
0.8978	313.15	18000	826.6	0.3
0.8978	313.15	19000	830.1	0.3
0.8978	313.15	20000	833.3	0.3
0.8978	313.15	21000	836.4	0.3
0.8978	313.15	22000	839.5	0.3
0.8978	313.15	23000	842.6	0.3
0.8978	313.15	24000	845.4	0.3
0.8978	313.15	25000	848.2	0.3
0.8978	323.14	11000	772.5	0.3
0.8978	323.14	12000	777.9	0.3
0.8978	323.14	13000	782.8	0.4
0.8978	323.14	14000	787.3	0.4
0.8978	323.14	15000	791.5	0.4
0.8978	323.14	16000	795.7	0.4
0.8978	323.14	17000	799.7	0.4
0.8978	323.14	18000	803.4	0.3
0.8978	323.14	19000	807.2	0.3
0.8978	323.14	20000	810.7	0.3
0.8978	323.14	21000	814	0.3
0.8978	323.14	22000	817.5	0.3
0.8978	323.14	23000	820.7	0.3
0.8978	323.14	24000	823.8	0.3
0.8978	323.14	25000	826.7	0.3
0.8978	333.14	13000	737.1	0.4
0.8978	333.14	14000	745.4	0.4
0.8978	333.14	15000	754	0.4
0.8978	333.14	16000	761.2	0.4
0.8978	333.14	17000	767.9	0.4
0.8978	333.14	18000	774.1	0.4
0.8978	333.14	19000	779.5	0.4
0.8978	333.14	20000	784.8	0.4
0.8978	333.14	21000	789.8	0.4
0.8978	333.14	22000	794.7	0.4
0.8978	333.14	23000	799.2	0.4
0.8978	333.14	24000	803.5	0.4
0.8978	333.14	25000	807.8	0.4
0.8978	343.13	15000	710.8	0.5
0.8978	343.13	16000	723.5	0.5
0.8978	343.13	17000	733.2	0.5
0.8978	343.13	18000	741.1	0.5
0.8978	343.13	19000	748	0.4
0.8978	343.13	20000	755	0.4
0.8978	343.13	21000	761.4	0.4
0.8978	343.13	22000	767.3	0.4
0.8978	343.13	23000	772.8	0.4
0.8978	343.13	24000	778	0.4
0.8978	343.13	25000	782.8	0.4
0.8978	353.13	17000	677.4	0.6
0.8978	353.13	18000	689.5	0.5
0.8978	353.13	19000	702.3	0.5
0.8978	353.13	20000	712.3	0.5
0.8978	353.13	21000	721.9	0.5
0.8978	353.13	22000	730.6	0.5
0.8978	353.13	23000	738.3	0.5
0.8978	353.13	24000	745.5	0.4
0.8978	353.13	25000	752.2	0.4
0.8978	363.07	19000	671.9	0.5
0.8978	363.07	20000	681	0.5
0.8978	363.07	21000	691.1	0.5
0.8978	363.07	22000	700.8	0.5
0.8978	363.07	23000	709.5	0.5
0.8978	363.07	24000	717.3	0.5
0.8978	363.07	25000	724.8	0.5
