Measured thermophysical data. Isothermal Vapor Liquid Equilibrium Data for the 1,1,2,2-Tetrafluoroethene + 1,1,2,3,3,3-Hexafluoroprop-1-ene Binary System: Measurement and Modeling from (248 to 283) K
Source: J. Chem. Eng. Data, 2014, 10.1021/je400828j
Compound 1: tetrafluoroethene, C2F4, InChI=1S/C2F4/c3-1(4)2(5)6, purity 99.8%
Compound 2: hexafluoropropene, C3F6, InChI=1S/C3F6/c4-1(2(5)6)3(7,8)9, purity 99.9%

System: tetrafluoroethene; phases: Liquid, Gas
Property: Vapor or sublimation pressure, kPa (Liquid); method: Ebulliometric method (Recirculating still)
Temperature, K	Vapor or sublimation pressure, kPa	uncertainty
248.2	864	5
253.34	1017	5
263.18	1367	6
273.14	1804	7
283.19	2340	7

System: hexafluoropropene; phases: Liquid, Gas
Property: Vapor or sublimation pressure, kPa (Liquid); method: Ebulliometric method (Recirculating still)
Temperature, K	Vapor or sublimation pressure, kPa	uncertainty
248.14	120	4
253.27	150	4
263.01	225	4
282.92	452	4
292.76	617	5
303.07	832	5
313.38	1099	5
323.06	1408	6
334.96	1863	6
345.26	2345	7
352.78	2757	7

System: tetrafluoroethene + hexafluoropropene; phases: Liquid, Gas
Property: Vapor or sublimation pressure, kPa (Liquid); method: Ebulliometric method (Recirculating still)
Mole fraction of tetrafluoroethene	Temperature, K	Vapor or sublimation pressure, kPa	uncertainty
0	248.14	120.2	4.1
0.218	248.14	258.1	8.5
0.27	248.14	300.4	9.3
0.338	248.14	348.4	9.6
0.403	248.14	394.4	10.6
0.492	248.14	461.6	10.2
0.543	248.14	489.9	10.1
0.602	248.14	536.5	11.5
0.648	248.14	573.4	11.2
0.703	248.14	620	10.7
0	263.01	224.6	4.2
0.12	263.01	340.2	7.3
0.229	263.01	440.8	11.1
0.331	263.01	545.9	14.9
0.422	263.01	645.3	17.2
0.5	263.01	757.6	15.7
0.568	263.01	807.8	13
0.627	263.01	886.3	17.3
0.713	263.01	986.6	15.7
0.785	263.01	1075.5	9.8
0	282.89	456.1	4.5
0.071	282.89	551	7.6
0.144	282.89	671	12.1
0.263	282.89	854.7	17.4
0.367	282.89	1041.4	21.6
0.443	282.89	1165.9	23.2
0.507	282.89	1282.1	24.5
0.57	282.89	1396.5	25.8
0.626	282.89	1509.4	28.4
0.677	282.89	1622	27.8
0.739	282.89	1759.9	23.8
0.79	282.89	1873.6	21
0.832	282.89	1956.4	16.6

System: tetrafluoroethene + hexafluoropropene; phases: Gas, Liquid
Property: Mole fraction of tetrafluoroethene (Gas); method: Chromatography
Mole fraction of tetrafluoroethene	Temperature, K	Mole fraction of tetrafluoroethene	uncertainty
0	248.14	0	
0.218	248.14	0.62	0.016
0.27	248.14	0.671	0.016
0.338	248.14	0.735	0.014
0.403	248.14	0.782	0.012
0.492	248.14	0.833	0.011
0.543	248.14	0.858	0.009
0.602	248.14	0.884	0.008
0.648	248.14	0.9	0.007
0.703	248.14	0.919	0.006
0	263.01	0	
0.12	263.01	0.391	0.02
0.229	263.01	0.558	0.019
0.331	263.01	0.679	0.017
0.422	263.01	0.752	0.014
0.5	263.01	0.802	0.011
0.568	263.01	0.825	0.01
0.627	263.01	0.868	0.009
0.713	263.01	0.904	0.007
0.785	263.01	0.931	0.005
0	282.89	0	
0.071	282.89	0.22	0.014
0.144	282.89	0.381	0.018
0.263	282.89	0.557	0.019
0.367	282.89	0.663	0.017
0.443	282.89	0.72	0.014
0.507	282.89	0.757	0.013
0.57	282.89	0.801	0.013
0.626	282.89	0.838	0.01
0.677	282.89	0.86	0.009
0.739	282.89	0.889	0.008
0.79	282.89	0.913	0.006
0.832	282.89	0.928	0.005
