Measured thermophysical data. Measurements of the Viscosity of Bis(2-ethylhexyl) Sebacate, Squalane, and Bis(2-ethylhexyl) Phthalate between (283 and 363) K at 0.1 MPa
Source: J. Chem. Eng. Data, 2013, 10.1021/je4005245
Compound 1: bis(2-ethylhexyl) decanedioate, C26H50O4, InChI=1S/C26H50O4/c1-5-9-17-23(7-3)21-29-25(27)19-15-13-11-12-14-16-20-26(28)30-22-24(8-4)18-10-6-2/h23-24H,5-22H2,1-4H3, purity 98%
Compound 2: 2,6,10,15,19,23-hexamethyltetracosane, C30H62, InChI=1S/C30H62/c1-25(2)15-11-19-29(7)23-13-21-27(5)17-9-10-18-28(6)22-14-24-30(8)20-12-16-26(3)4/h25-30H,9-24H2,1-8H3, purity 99%
Compound 3: bis(2-ethylhexyl) 1,2-benzenedicarboxylate, C24H38O4, InChI=1S/C24H38O4/c1-5-9-13-19(7-3)17-27-23(25)21-15-11-12-16-22(21)24(26)28-18-20(8-4)14-10-6-2/h11-12,15-16,19-20H,5-10,13-14,17-18H2,1-4H3, purity 99.5%

System: bis(2-ethylhexyl) decanedioate; phases: Liquid
Fixed: Pressure, kPa = 101.325
Property: Viscosity, Pa*s (Liquid); method: Vibrating wire viscometry
Temperature, K	Viscosity, Pa*s	uncertainty
284.06	0.03195	0.00059
288.71	0.02584	0.00048
293.37	0.02114	0.00039
298.26	0.01742	0.00032
303.1	0.01455	0.00027
307.9	0.01237	0.00023
313.24	0.0104	0.00019
318.26	0.009023	0.000167
323.17	0.007865	0.000145
328.26	0.006878	0.000127
333.2	0.006067	0.000112
338.16	0.005435	0.000101
342.81	0.004883	9.1e-05
348.07	0.00438	8.1e-05
352.98	0.003987	7.4e-05
358.09	0.003626	6.7e-05

System: 2,6,10,15,19,23-hexamethyltetracosane; phases: Liquid
Fixed: Pressure, kPa = 101.325
Property: Viscosity, Pa*s (Liquid); method: Vibrating wire viscometry
Temperature, K	Viscosity, Pa*s	uncertainty
283.77	0.0602	0.00098
288.47	0.0461	0.00075
293.29	0.03559	0.00058
298.12	0.02795	0.00046
303.07	0.02245	0.00037
308.09	0.0183	0.0003
313.13	0.015	0.00024
318.17	0.0125	0.0002
323.19	0.01057	0.00017
328.26	0.00899	0.00015
333.2	0.0078	0.00013
338.18	0.00681	0.00011
343.07	0.006	0.0001
348.08	0.00532	9e-05
353.083	0.00472	8e-05
358.132	0.0042	7e-05
362.978	0.00378	6e-05

System: bis(2-ethylhexyl) 1,2-benzenedicarboxylate; phases: Liquid
Fixed: Pressure, kPa = 101.325
Property: Viscosity, Pa*s (Liquid); method: Vibrating wire viscometry
Temperature, K	Viscosity, Pa*s	uncertainty
288.53	0.1107	0.0022
293.38	0.07873	0.00134
298.29	0.05794	0.0009
303.33	0.04327	0.00068
308.23	0.03317	0.00052
313.18	0.02613	0.00041
317.99	0.02108	0.00033
323.02	0.01696	0.00027
328.12	0.01391	0.00022
333.19	0.01162	0.00018
337.71	0.009903	0.000156
343.53	0.008268	0.00013
348.48	0.007158	0.000113
353.68	0.006199	9.8e-05
