Measured thermophysical data. Experimental Densities and Speeds of Sound of Substituted Phenols and Their Modeling with the Prigogine Flory Patterson Model
Source: J. Chem. Eng. Data, 2013, 10.1021/je4003256
Compound 1: phenol, C6H6O, InChI=1S/C6H6O/c7-6-4-2-1-3-5-6/h1-5,7H, purity 99%
Compound 2: 2-methylphenol, C7H8O, InChI=1S/C7H8O/c1-6-4-2-3-5-7(6)8/h2-5,8H,1H3, purity 99%
Compound 3: 3-methylphenol, C7H8O, InChI=1S/C7H8O/c1-6-3-2-4-7(8)5-6/h2-5,8H,1H3, purity 99%
Compound 4: 4-methylphenol, C7H8O, InChI=1S/C7H8O/c1-6-2-4-7(8)5-3-6/h2-5,8H,1H3, purity 98%
Compound 5: 2-methoxyphenol, C7H8O2, InChI=1S/C7H8O2/c1-9-7-5-3-2-4-6(7)8/h2-5,8H,1H3, purity 99%
Compound 6: 2-hydroxy-5-allylanisole, C10H12O2, InChI=1S/C10H12O2/c1-3-4-8-5-6-9(11)10(7-8)12-2/h3,5-7,11H,1,4H2,2H3, purity 99%
Compound 7: methyl 2-hydroxybenzoate, C8H8O3, InChI=1S/C8H8O3/c1-11-8(10)6-4-2-3-5-7(6)9/h2-5,9H,1H3, purity 99%

System: phenol; phases: Liquid
Fixed: Pressure, kPa = 101.325
Property: Mass density, kg/m3 (Liquid); method: Vibrating tube method
Temperature, K	Mass density, kg/m3	uncertainty
318.15	1054.097	0.273
323.15	1049.814	0.269
328.15	1045.499	0.266
333.15	1041.158	0.262
338.15	1036.792	0.259
343.15	1032.398	0.255

System: phenol; phases: Liquid
Fixed: Pressure, kPa = 101.325
Property: Speed of sound, m/s (Liquid); method: Pulse-echo method
Temperature, K	Speed of sound, m/s	uncertainty
318.15	1437.19	1.26
323.15	1422.09	1.26
328.15	1406.77	1.25
333.15	1391.42	1.25
338.15	1376.06	1.25
343.15	1360.57	1.25

System: 2-methylphenol; phases: Liquid
Fixed: Pressure, kPa = 101.325
Property: Mass density, kg/m3 (Liquid); method: Vibrating tube method
Temperature, K	Mass density, kg/m3	uncertainty
293.15	1045.771	0.266
298.15	1041.409	0.262
303.15	1037.046	0.259
308.15	1032.642	0.255
313.15	1028.246	0.252
318.15	1023.825	0.248
323.15	1019.387	0.245
328.15	1014.933	0.241
333.15	1010.461	0.238
338.15	1005.972	0.234
343.15	1001.464	0.231

System: 2-methylphenol; phases: Liquid
Fixed: Pressure, kPa = 101.325
Property: Speed of sound, m/s (Liquid); method: Pulse-echo method
Temperature, K	Speed of sound, m/s	uncertainty
293.15	1522.59	1.28
298.15	1505.46	1.27
303.15	1488.19	1.27
308.15	1470.21	1.27
313.15	1452.65	1.26
318.15	1435.18	1.26
323.15	1417.7	1.26
328.15	1400.25	1.25
333.15	1382.83	1.25
338.15	1365.31	1.25
343.15	1347.7	1.24

System: 3-methylphenol; phases: Liquid
Fixed: Pressure, kPa = 101.325
Property: Mass density, kg/m3 (Liquid); method: Vibrating tube method
Temperature, K	Mass density, kg/m3	uncertainty
293.15	1033.835	0.256
298.15	1029.907	0.253
303.15	1025.959	0.25
308.15	1021.988	0.247
313.15	1017.999	0.243
318.15	1013.993	0.24
323.15	1009.965	0.237
328.15	1005.91	0.234
333.15	1001.842	0.231
338.15	997.743	0.229
343.15	993.626	0.229

System: 3-methylphenol; phases: Liquid
Fixed: Pressure, kPa = 101.325
Property: Speed of sound, m/s (Liquid); method: Pulse-echo method
Temperature, K	Speed of sound, m/s	uncertainty
293.15	1497.87	1.27
298.15	1481.93	1.27
303.15	1466.16	1.26
308.15	1450.55	1.26
313.15	1434.97	1.26
318.15	1419.45	1.26
323.15	1403.91	1.25
328.15	1388.4	1.25
333.15	1372.86	1.25
338.15	1357.32	1.24
343.15	1341.83	1.24

System: 4-methylphenol; phases: Liquid
Fixed: Pressure, kPa = 101.325
Property: Mass density, kg/m3 (Liquid); method: Vibrating tube method
Temperature, K	Mass density, kg/m3	uncertainty
293.15	1034.087	0.907
298.15	1030.253	0.899
303.15	1026.39	0.891
308.15	1022.504	0.883
313.15	1018.593	0.875
318.15	1014.661	0.867
323.15	1010.701	0.859
328.15	1006.716	0.851
333.15	1002.702	0.843
338.15	998.659	0.836
343.15	994.587	0.831

System: 4-methylphenol; phases: Liquid
Fixed: Pressure, kPa = 101.325
Property: Speed of sound, m/s (Liquid); method: Pulse-echo method
Temperature, K	Speed of sound, m/s	uncertainty
293.15	1502.88	2.15
298.15	1487.15	2.15
303.15	1471.38	2.15
308.15	1455.63	2.14
313.15	1439.97	2.14
318.15	1424.29	2.14
323.15	1408.66	2.14
328.15	1393.05	2.14
333.15	1377.44	2.14
338.15	1361.85	2.13
343.15	1346.22	2.13

System: 2-methoxyphenol; phases: Liquid
Fixed: Pressure, kPa = 101.325
Property: Mass density, kg/m3 (Liquid); method: Vibrating tube method
Temperature, K	Mass density, kg/m3	uncertainty
288.15	1138.641	0.343
293.15	1133.806	0.339
298.15	1128.959	0.335
303.15	1124.107	0.331
308.15	1119.248	0.327
313.15	1114.383	0.323
318.15	1109.511	0.319
323.15	1104.63	0.315
328.15	1099.743	0.31
333.15	1094.844	0.306
338.15	1089.939	0.302
343.15	1085.019	0.298

System: 2-methoxyphenol; phases: Liquid
Fixed: Pressure, kPa = 101.325
Property: Speed of sound, m/s (Liquid); method: Pulse-echo method
Temperature, K	Speed of sound, m/s	uncertainty
288.15	1567.56	1.28
293.15	1548.28	1.28
298.15	1528.74	1.28
303.15	1509.31	1.27
308.15	1489.95	1.27
313.15	1470.68	1.27
318.15	1451.52	1.26
323.15	1432.41	1.26
328.15	1413.46	1.26
333.15	1394.57	1.25
338.15	1375.81	1.25
343.15	1357.08	1.25

System: 2-hydroxy-5-allylanisole; phases: Liquid
Fixed: Pressure, kPa = 101.325
Property: Mass density, kg/m3 (Liquid); method: Vibrating tube method
Temperature, K	Mass density, kg/m3	uncertainty
288.15	1070.898	0.286
293.15	1066.485	0.283
298.15	1062.062	0.279
303.15	1057.638	0.276
308.15	1053.211	0.272
313.15	1048.784	0.268
318.15	1044.353	0.265
323.15	1039.92	0.261
328.15	1035.483	0.258
333.15	1031.042	0.254
338.15	1026.602	0.251
343.15	1022.153	0.247

System: 2-hydroxy-5-allylanisole; phases: Liquid
Fixed: Pressure, kPa = 101.325
Property: Speed of sound, m/s (Liquid); method: Pulse-echo method
Temperature, K	Speed of sound, m/s	uncertainty
288.15	1515.33	1.27
293.15	1497.05	1.27
298.15	1478.65	1.27
303.15	1460.34	1.26
308.15	1442.15	1.26
313.15	1424.07	1.26
318.15	1406.08	1.25
323.15	1388.22	1.25
328.15	1370.45	1.25
333.15	1352.82	1.24
338.15	1335.25	1.24
343.15	1317.75	1.24

System: methyl 2-hydroxybenzoate; phases: Liquid
Fixed: Pressure, kPa = 101.325
Property: Mass density, kg/m3 (Liquid); method: Vibrating tube method
Temperature, K	Mass density, kg/m3	uncertainty
288.15	1189.318	0.386
293.15	1184.327	0.382
298.15	1179.336	0.378
303.15	1174.35	0.374
308.15	1169.367	0.369
313.15	1164.384	0.365
318.15	1159.405	0.361
323.15	1154.425	0.357
328.15	1149.447	0.352
333.15	1144.464	0.348
338.15	1139.475	0.344
343.15	1134.488	0.34

System: methyl 2-hydroxybenzoate; phases: Liquid
Fixed: Pressure, kPa = 101.325
Property: Speed of sound, m/s (Liquid); method: Pulse-echo method
Temperature, K	Speed of sound, m/s	uncertainty
288.15	1447.56	1.26
293.15	1429.11	1.26
298.15	1410.63	1.26
303.15	1392.27	1.25
308.15	1374.05	1.25
313.15	1356.03	1.25
318.15	1338.11	1.24
323.15	1320.36	1.24
328.15	1302.78	1.24
333.15	1285.37	1.23
338.15	1268.07	1.23
343.15	1250.88	1.23
