Measured thermophysical data. Liquid Liquid Equilibria for Ternary Mixtures of Methylphenyl Carbonate, Dimethyl Carbonate, Diphenyl Carbonate, Anisole, Methanol, Phenol, and Water at Several Temperatures
Source: J. Chem. Eng. Data, 2014, 10.1021/je400776b
Compound 1: water, H2O, InChI=1S/H2O/h1H2, purity 99.9%
Compound 2: anisole, C7H8O, InChI=1S/C7H8O/c1-8-7-5-3-2-4-6-7/h2-6H,1H3, purity 99.9%
Compound 3: methyl phenyl carbonate, C8H8O3, InChI=1S/C8H8O3/c1-10-8(9)11-7-5-3-2-4-6-7/h2-6H,1H3
Compound 4: methanol, CH4O, InChI=1S/CH4O/c1-2/h2H,1H3, purity 99.9%
Compound 5: dimethyl carbonate, C3H6O3, InChI=1S/C3H6O3/c1-5-3(4)6-2/h1-2H3, purity 99.5%
Compound 6: phenol, C6H6O, InChI=1S/C6H6O/c7-6-4-2-1-3-5-6/h1-5,7H, purity 99.5%
Compound 7: diphenyl carbonate, C13H10O3, InChI=1S/C13H10O3/c14-13(15-11-7-3-1-4-8-11)16-12-9-5-2-6-10-12/h1-10H, purity 99.5%

System: anisole; phases: Liquid
Property: Mass density, kg/m3 (Liquid); method: Vibrating tube method
Temperature, K	Pressure, kPa	Mass density, kg/m3	uncertainty
298.15	101.325	989.42	0.05

System: methyl phenyl carbonate; phases: Liquid
Property: Mass density, kg/m3 (Liquid); method: Vibrating tube method
Temperature, K	Pressure, kPa	Mass density, kg/m3	uncertainty
298.15	101.325	1143.24	0.3

System: methanol; phases: Liquid
Property: Mass density, kg/m3 (Liquid); method: Vibrating tube method
Temperature, K	Pressure, kPa	Mass density, kg/m3	uncertainty
298.15	101.325	786.59	0.12

System: dimethyl carbonate; phases: Liquid
Property: Mass density, kg/m3 (Liquid); method: Vibrating tube method
Temperature, K	Pressure, kPa	Mass density, kg/m3	uncertainty
298.15	101.325	1063.26	0.06

System: phenol; phases: Liquid
Property: Mass density, kg/m3 (Liquid); method: Vibrating tube method
Temperature, K	Pressure, kPa	Mass density, kg/m3	uncertainty
313.15	101.325	1058.51	0.06

System: diphenyl carbonate; phases: Liquid
Property: Mass density, kg/m3 (Liquid); method: Vibrating tube method
Temperature, K	Pressure, kPa	Mass density, kg/m3	uncertainty
358.15	101.325	1113.14	0.09

System: anisole + water + methyl phenyl carbonate; phases: Liquid mixture 1, Liquid mixture 2
Fixed: Temperature, K = 308.15
Fixed: Pressure, kPa = 101
Property: Mole fraction of water (Liquid mixture 1); method: Chromatography
Property: Mole fraction of water (Liquid mixture 2); method: Chromatography
Property: Mole fraction of anisole (Liquid mixture 2); method: Chromatography
Mole fraction of anisole	Mole fraction of water	uncertainty	Mole fraction of water	uncertainty	Mole fraction of anisole	uncertainty
0	0.9995	0.0005	0.121	0.0022	0	
0.0002	0.9998	0.0002	0.0603	0.002	0.7639	
0.0002	0.9998	0.0002	0.0551	0.002	0.8798	
0.0002	0.9998	0.0002	0.0537	0.002	0.9456	
0.0002	0.9997	0.0003	0.1107	0.0022	0.0635	
0.0002	0.9998	0.0002	0.0995	0.0021	0.1953	
0.0002	0.9998	0.0002	0.0835	0.0021	0.3604	
0.0002	0.9998	0.0002	0.0758	0.0021	0.4888	
0.0002	0.9998	0.0002	0.0691	0.0021	0.5796	
0.0002	0.9998	0.0002	0.0625	0.0021	0.6986	

System: methanol + water + methyl phenyl carbonate; phases: Liquid mixture 2, Liquid mixture 1
Fixed: Pressure, kPa = 101
Fixed: Temperature, K = 308.15
Property: Mole fraction of water (Liquid mixture 2); method: Chromatography
Property: Mole fraction of water (Liquid mixture 1); method: Chromatography
Property: Mole fraction of methanol (Liquid mixture 1); method: Chromatography
Mole fraction of methanol	Mole fraction of water	uncertainty	Mole fraction of water	uncertainty	Mole fraction of methanol	uncertainty
0	0.121	0.0022	0.9995	0.0005	0	
0.0297	0.1167	0.0022	0.9562	0.0029	0.0437	
0.1006	0.1149	0.0022	0.8525	0.0031	0.1461	
0.1341	0.1118	0.0022	0.8011	0.0032	0.1895	
0.2015	0.1125	0.0022	0.715	0.0035	0.2765	
0.2623	0.1141	0.0022	0.63	0.004	0.3567	
0.34	0.1263	0.0022	0.5374	0.0046	0.4332	
0.4175	0.1359	0.0023	0.4516	0.0047	0.4979	
0.4974	0.159	0.0024	0.3545	0.0045	0.5606	

System: dimethyl carbonate + water + methyl phenyl carbonate; phases: Liquid mixture 2, Liquid mixture 1
Fixed: Pressure, kPa = 101
Fixed: Temperature, K = 308.15
Property: Mole fraction of water (Liquid mixture 2); method: Chromatography
Property: Mole fraction of water (Liquid mixture 1); method: Chromatography
Property: Mole fraction of dimethyl carbonate (Liquid mixture 1); method: Chromatography
Mole fraction of dimethyl carbonate	Mole fraction of water	uncertainty	Mole fraction of water	uncertainty	Mole fraction of dimethyl carbonate	uncertainty
0	0.121	0.0022	0.9995	0.0005	0	
0.0835	0.1052	0.0021	0.9983	0.0017	0.0017	
0.2555	0.102	0.0021	0.9946	0.0028	0.0054	
0.4206	0.1063	0.0021	0.9905	0.0028	0.0095	
0.5888	0.1087	0.0021	0.9858	0.0028	0.0142	
0.6787	0.1234	0.0022	0.9819	0.0028	0.0181	
0.7653	0.1291	0.0022	0.9783	0.0028	0.0217	
0.8467	0.1533	0.0024	0.9733	0.0028	0.0267	

System: phenol + water + methyl phenyl carbonate; phases: Liquid mixture 2, Liquid mixture 1
Fixed: Pressure, kPa = 101
Fixed: Temperature, K = 318.15
Property: Mole fraction of phenol (Liquid mixture 2); method: Chromatography
Property: Mole fraction of phenol (Liquid mixture 1); method: Chromatography
Property: Mole fraction of water (Liquid mixture 1); method: Chromatography
Mole fraction of water	Mole fraction of phenol	uncertainty	Mole fraction of phenol	uncertainty	Mole fraction of water	uncertainty
0.1341	0		0		0.9994	
0.145	0.051	0.006	0.0002	0.0002	0.999	
0.1834	0.1443	0.0044	0.0015	0.0015	0.998	
0.2393	0.2302	0.0035	0.0024	0.0024	0.9973	
0.3301	0.3193	0.0033	0.0054	0.0029	0.9942	
0.4468	0.3829	0.0034	0.0078	0.0029	0.992	
0.4737	0.3859	0.0034	0.0099	0.0028	0.9899	
0.5762	0.3752	0.0034	0.0265	0.0028	0.9724	
0.6791	0.3209	0.0032	0.0437	0.0029	0.9563	

System: diphenyl carbonate + water + methyl phenyl carbonate; phases: Liquid mixture 2, Liquid mixture 1
Fixed: Pressure, kPa = 101
Fixed: Temperature, K = 358.15
Property: Mole fraction of water (Liquid mixture 2); method: Chromatography
Property: Mole fraction of diphenyl carbonate (Liquid mixture 1); method: Chromatography
Property: Mole fraction of water (Liquid mixture 1); method: Chromatography
Mole fraction of diphenyl carbonate	Mole fraction of water	uncertainty	Mole fraction of diphenyl carbonate	uncertainty	Mole fraction of water	uncertainty
0	0.2341	0.0026	0		0.999	
0.7888	0.1392	0.0022	0.0001	0.0001	0.9995	
0.8653	0.1347	0.0022	0.0001	0.0001	0.9999	
0.0836	0.2031	0.0025	0.0001	0.0001	0.9995	
0.1995	0.1695	0.0024	0.0001	0.0001	0.9994	
0.3189	0.1495	0.0023	0.0001	0.0001	0.9995	
0.4292	0.1349	0.0022	0.0001	0.0001	0.9994	
0.5421	0.1319	0.0022	0.0001	0.0001	0.9997	
0.6429	0.1311	0.0022	0.0001	0.0001	0.9995	
0.7188	0.1299	0.0022	0.0001	0.0001	0.9995	
