Measured thermophysical data. Physicochemical Properties of Aqueous Solutions of Sodium l-Prolinate as an Absorbent for CO2 Removal
Source: J. Chem. Eng. Data, 2014, 10.1021/je400830w
Compound 1: sodium L-prolinate, C5H8NNaO2, InChI=1S/C5H9NO2.Na/c7-5(8)4-2-1-3-6-4;/h4,6H,1-3H2,(H,7,8);/q;+1/p-1/t4-;/m0./s1, purity 98%
Compound 2: 2-aminoethan-1-ol, C2H7NO, InChI=1S/C2H7NO/c3-1-2-4/h4H,1-3H2, purity 99%
Compound 3: water, H2O, InChI=1S/H2O/h1H2, purity 99%

System: 2-aminoethan-1-ol; phases: Liquid
Fixed: Pressure, kPa = 100
Property: Mass density, kg/m3 (Liquid); method: Vibrating tube method
Temperature, K	Mass density, kg/m3	uncertainty
298.15	1012.38	0.25
303.15	1009.35	0.25
313.15	1002.16	0.24
323.15	994.4	0.24
333.15	986.24	0.24

System: 2-aminoethan-1-ol; phases: Liquid
Fixed: Pressure, kPa = 100
Property: Viscosity, Pa*s (Liquid); method: Falling or rolling sphere viscometry
Temperature, K	Viscosity, Pa*s	uncertainty
298.15	0.018887	0.0001768
303.15	0.01510583	0.00014124
313.15	0.01002841	9.394e-05
323.15	0.0069833	6.524e-05
333.15	0.0049724	4.661e-05

System: 2-aminoethan-1-ol; phases: Liquid
Fixed: Pressure, kPa = 100
Property: Refractive index (Na D-line) (Liquid); method: Standard Abbe refractometry
Temperature, K	Refractive index (Na D-line)	uncertainty
298.15	1.45406	0.00037
303.15	1.45241	0.00037
313.15	1.449	0.001
323.15	1.44522	0.00037
333.15	1.44198	0.00037

System: water + sodium L-prolinate; phases: Liquid
Fixed: Pressure, kPa = 100
Property: Mass density, kg/m3 (Liquid); method: Vibrating tube method
Temperature, K	Mass fraction of sodium L-prolinate	Mass density, kg/m3	uncertainty
298.15	0.05	1015.28	0.79
303.15	0.05	1013.73	0.79
308.15	0.05	1011.98	0.78
313.15	0.05	1010.05	0.78
318.15	0.05	1007.96	0.77
323.15	0.05	1005.72	0.77
328.15	0.05	1003.32	0.76
333.15	0.05	1000.79	0.76
338.15	0.05	998.13	0.76
343.15	0.05	995.35	0.75
298.15	0.1	1033.9	0.81
303.15	0.1	1032.18	0.8
308.15	0.1	1030.28	0.8
313.15	0.1	1028.22	0.79
318.15	0.1	1026.01	0.78
323.15	0.1	1023.66	0.78
328.15	0.1	1021.18	0.78
333.15	0.1	1018.58	0.77
338.15	0.1	1015.87	0.77
343.15	0.1	1013.04	0.77
298.15	0.2	1071.61	0.85
303.15	0.2	1069.51	0.84
308.15	0.2	1067.29	0.83
313.15	0.2	1064.94	0.83
318.15	0.2	1062.47	0.82
323.15	0.2	1059.89	0.82
328.15	0.2	1057.21	0.81
333.15	0.2	1054.42	0.81
338.15	0.2	1051.56	0.81
343.15	0.2	1048.61	0.81
298.15	0.3	1109.81	0.91
303.15	0.3	1106.73	0.9
308.15	0.3	1104.08	0.9
313.15	0.3	1101.95	0.89
318.15	0.3	1099.31	0.88
323.15	0.3	1096.7	0.88
328.15	0.3	1092.78	0.87
333.15	0.3	1090.33	0.86
338.15	0.3	1088.2	0.86
343.15	0.3	1085.34	0.85
298.15	0.4	1148.69	0.98
303.15	0.4	1145.79	0.99
308.15	0.4	1142.83	0.98
313.15	0.4	1139.8	0.96
318.15	0.4	1136.71	0.95
323.15	0.4	1133.56	0.94
328.15	0.4	1130.34	0.95
333.15	0.4	1127.09	0.93
338.15	0.4	1123.8	0.91
343.15	0.4	1120.46	0.9

System: water + sodium L-prolinate; phases: Liquid
Fixed: Pressure, kPa = 100
Property: Viscosity, Pa*s (Liquid); method: SPHERE:UFactor:2
Temperature, K	Mass fraction of sodium L-prolinate	Viscosity, Pa*s	uncertainty
298.15	0.05	0.0011603	2.546e-05
303.15	0.05	0.0010199	2.301e-05
308.15	0.05	0.00090282	2.127e-05
313.15	0.05	0.00080621	1.989e-05
318.15	0.05	0.00072447	1.883e-05
323.15	0.05	0.00065559	1.797e-05
328.15	0.05	0.0005983	1.732e-05
333.15	0.05	0.00054542	1.678e-05
338.15	0.05	0.00050077	1.638e-05
343.15	0.05	0.00046168	1.603e-05
298.15	0.1	0.0014562	3.047e-05
303.15	0.1	0.001267	2.719e-05
308.15	0.1	0.0011136	2.462e-05
313.15	0.1	0.00098398	2.255e-05
318.15	0.1	0.00087844	2.101e-05
323.15	0.1	0.00078743	1.976e-05
328.15	0.1	0.00071178	1.876e-05
333.15	0.1	0.00064713	1.793e-05
338.15	0.1	0.00059299	1.732e-05
343.15	0.1	0.0005426	1.678e-05
298.15	0.2	0.0022921	4.498e-05
303.15	0.2	0.0019668	3.933e-05
308.15	0.2	0.0017022	3.49e-05
313.15	0.2	0.0014822	3.091e-05
318.15	0.2	0.0013095	2.794e-05
323.15	0.2	0.0011636	2.558e-05
328.15	0.2	0.0010377	2.347e-05
333.15	0.2	0.00092208	2.184e-05
338.15	0.2	0.00083454	2.057e-05
343.15	0.2	0.00075245	1.94e-05
298.15	0.3	0.00378667	7.178e-05
303.15	0.3	0.0033265	6.289e-05
308.15	0.3	0.0029233	5.537e-05
313.15	0.3	0.0025092	4.709e-05
318.15	0.3	0.0021933	4.074e-05
323.15	0.3	0.0019403	3.634e-05
328.15	0.3	0.0016904	3.229e-05
333.15	0.3	0.0015186	2.95e-05
338.15	0.3	0.0013609	2.705e-05
343.15	0.3	0.0012032	2.481e-05
298.15	0.4	0.0055601	0.00010127
303.15	0.4	0.0048015	8.748e-05
308.15	0.4	0.0042103	7.617e-05
313.15	0.4	0.0035301	6.403e-05
318.15	0.4	0.0029967	5.393e-05
323.15	0.4	0.0025809	4.609e-05
328.15	0.4	0.0022414	3.999e-05
333.15	0.4	0.0019602	3.534e-05
338.15	0.4	0.0017285	3.174e-05
343.15	0.4	0.0015361	2.892e-05

System: water + sodium L-prolinate; phases: Liquid
Fixed: Pressure, kPa = 100
Property: Refractive index (Na D-line) (Liquid); method: Standard Abbe refractometry
Temperature, K	Mass fraction of sodium L-prolinate	Refractive index (Na D-line)	uncertainty
298.15	0.05	1.34005	0.00048
303.15	0.05	1.33942	0.00048
308.15	0.05	1.33879	0.00048
313.15	0.05	1.33802	0.00048
318.15	0.05	1.33724	0.00049
323.15	0.05	1.33642	0.00049
328.15	0.05	1.33569	0.00049
333.15	0.05	1.33497	0.00049
338.15	0.05	1.33424	0.0005
343.15	0.05	1.33349	0.00051
298.15	0.1	1.34767	0.00049
303.15	0.1	1.34706	0.00049
308.15	0.1	1.34633	0.00049
313.15	0.1	1.3456	0.00049
318.15	0.1	1.34502	0.00049
323.15	0.1	1.34433	0.00049
328.15	0.1	1.34373	0.00049
333.15	0.1	1.34306	0.00049
338.15	0.1	1.34256	0.0005
343.15	0.1	1.34213	0.0005
298.15	0.2	1.36337	0.0005
303.15	0.2	1.36278	0.0005
308.15	0.2	1.36201	0.0005
313.15	0.2	1.36125	0.0005
318.15	0.2	1.36042	0.0005
323.15	0.2	1.35984	0.0005
328.15	0.2	1.35931	0.0005
333.15	0.2	1.35882	0.0005
338.15	0.2	1.35866	0.0005
343.15	0.2	1.35842	0.0005
298.15	0.3	1.37937	0.00052
303.15	0.3	1.37869	0.00052
308.15	0.3	1.37768	0.00052
313.15	0.3	1.37678	0.00051
318.15	0.3	1.37586	0.00051
323.15	0.3	1.37526	0.00051
328.15	0.3	1.37439	0.0005
333.15	0.3	1.37364	0.0005
338.15	0.3	1.37322	0.00049
343.15	0.3	1.37279	0.00049
298.15	0.4	1.39604	0.00053
303.15	0.4	1.39498	0.00053
308.15	0.4	1.39387	0.00053
313.15	0.4	1.39268	0.00053
318.15	0.4	1.39154	0.00052
323.15	0.4	1.39048	0.00052
328.15	0.4	1.38912	0.00051
333.15	0.4	1.38795	0.00051
338.15	0.4	1.38677	0.0005
343.15	0.4	1.38566	0.00049
