Measured thermophysical data. Solubilities of CO2 in, and Densities and Viscosities of, the Piperazine + 1-Ethyl-3-methyl-imidazolium Acetate + H2O System
Source: J. Chem. Eng. Data, 2014, 10.1021/je400491p
Compound 1: piperazine, C4H10N2, InChI=1S/C4H10N2/c1-2-6-4-3-5-1/h5-6H,1-4H2, purity 98%
Compound 2: water, H2O, InChI=1S/H2O/h1H2, purity 99.8%
Compound 3: 1-ethyl-3-methylimidazolium acetate, C8H14N2O2, InChI=1S/C6H11N2.C2H4O2/c1-3-8-5-4-7(2)6-8;1-2(3)4/h4-6H,3H2,1-2H3;1H3,(H,3,4)/q+1;/p-1, purity 97%
Compound 4: carbon dioxide, CO2, InChI=1S/CO2/c2-1-3, purity 99.999%
Compound 5: 1,2-ethanediol, C2H6O2, InChI=1S/C2H6O2/c3-1-2-4/h3-4H,1-2H2, purity 98%

System: 1,2-ethanediol; phases: Liquid
Fixed: Pressure, kPa = 101.325
Property: Mass density, kg/m3 (Liquid); method: Pycnometric method
Temperature, K	Mass density, kg/m3	uncertainty
313.15	1098.9	1.3
323.15	1091.7	1.3
333.15	1084.2	1.3
343.15	1078.1	1.3

System: 1,2-ethanediol; phases: Liquid
Fixed: Pressure, kPa = 101.325
Property: Viscosity, Pa*s (Liquid); method: Capillary tube (Ostwald; Ubbelohde) method
Temperature, K	Viscosity, Pa*s	uncertainty
313.15	0.009309	0.000106
323.15	0.006818	7.9e-05
333.15	0.005027	5.9e-05
343.15	0.003915	4.6e-05

System: piperazine + water + 1-ethyl-3-methylimidazolium acetate; phases: Liquid
Fixed: Pressure, kPa = 100
Property: Mass density, kg/m3 (Liquid); method: PYCNOM:UFactor:4
Temperature, K	Mass fraction of piperazine	Mass fraction of 1-ethyl-3-methylimidazolium acetate	Mass density, kg/m3	uncertainty
313.15	0	0.3	1035.2	1.4
323.15	0	0.3	1027.8	1.5
333.15	0	0.3	1019.8	1.6
343.15	0	0.3	1011.1	1.6
313.15	0.1	0.3	1040.6	1.5
323.15	0.1	0.3	1033.4	1.6
333.15	0.1	0.3	1025.2	1.7
343.15	0.1	0.3	1016.3	1.7
323.15	0.2	0.3	1037.9	1.7
313.15	0.2	0.3	1045.8	1.6
333.15	0.2	0.3	1028.9	1.8
343.15	0.2	0.3	1021.6	1.8
323.15	0.3	0.1	1023.5	1.5
313.15	0.3	0.2	1040.5	1.5
333.15	0.3	0.3	1035.2	1.9
333.15	0.3	0.2	1024.9	1.7
333.15	0.3	0.1	1015.5	1.5
333.15	0.3	0	1003.4	1.4
323.15	0.3	0	1011.2	1.3
313.15	0.3	0.3	1051.4	1.7
313.15	0.3	0.1	1031.4	1.4
343.15	0.3	0.3	1027.1	2
343.15	0.3	0.2	1016.7	1.8
343.15	0.3	0.1	1007.5	1.6
343.15	0.3	0	995.3	1.5
323.15	0.3	0.2	1032.6	1.6
323.15	0.3	0.3	1043.3	1.8
313.15	0.3	0	1019.1	1.3

System: piperazine + water + 1-ethyl-3-methylimidazolium acetate; phases: Liquid
Fixed: Pressure, kPa = 100
Property: Viscosity, Pa*s (Liquid); method: CAPTUB:UFactor:2
Temperature, K	Mass fraction of piperazine	Mass fraction of 1-ethyl-3-methylimidazolium acetate	Viscosity, Pa*s	uncertainty
313.15	0.3	0.3	0.008633	0.00012
313.15	0.3	0.2	0.006104	8.5e-05
313.15	0.3	0.1	0.004174	5.6e-05
313.15	0.3	0	0.002909	3.5e-05
313.15	0.2	0.3	0.004687	7.3e-05
313.15	0.1	0.3	0.002552	4.2e-05
313.15	0	0.3	0.001432	2e-05
323.15	0.3	0.3	0.006059	8.8e-05
323.15	0.3	0.2	0.004407	6.3e-05
323.15	0.3	0.1	0.003133	4.4e-05
323.15	0.3	0	0.00214	2.7e-05
323.15	0.2	0.3	0.003558	5.4e-05
323.15	0.1	0.3	0.001987	3.5e-05
323.15	0	0.3	0.001143	1.8e-05
333.15	0.3	0.3	0.004189	6.2e-05
333.15	0.3	0.2	0.00323	4.6e-05
333.15	0.3	0.1	0.002328	3.5e-05
333.15	0.3	0	0.001593	2.2e-05
333.15	0.2	0.3	0.002634	3.9e-05
333.15	0.1	0.3	0.001537	3e-05
333.15	0	0.3	0.000939	1.7e-05
343.15	0.3	0.3	0.002871	4.3e-05
343.15	0.3	0.2	0.00234	3.3e-05
343.15	0.3	0.1	0.001768	3e-05
343.15	0.3	0	0.001221	2.1e-05
343.15	0.2	0.3	0.002017	3e-05
343.15	0.1	0.3	0.001258	2.7e-05
343.15	0	0.3	0.000792	1.9e-05

System: piperazine + carbon dioxide + water; phases: Liquid, Gas
Fixed: Temperature, K = 313.15
Fixed: Solvent: Mass fraction of piperazine = 0.3
Property: Molality, mol/kg of carbon dioxide (Liquid); method: pressure drop on dissolution
Pressure, kPa	Molality, mol/kg of carbon dioxide	uncertainty
27.2	3.164	0.015
92.2	3.394	0.015
169.1	3.518	0.015
338.7	3.65	0.015
578.9	3.795	0.016
860.3	3.942	0.017

System: carbon dioxide + water + 1-ethyl-3-methylimidazolium acetate; phases: Liquid, Gas
Fixed: Temperature, K = 313.15
Fixed: Solvent: Mass fraction of 1-ethyl-3-methylimidazolium acetate = 0.3
Property: Molality, mol/kg of carbon dioxide (Liquid); method: pressure drop on dissolution
Pressure, kPa	Molality, mol/kg of carbon dioxide	uncertainty
28.9	0.0169	0.002
57.8	0.0286	0.002
158.6	0.0929	0.0021
373.8	0.1801	0.0023
598.1	0.2697	0.0043
874.2	0.3516	0.0046
