Measured thermophysical data. Solubility of CO2 in and Density, Viscosity, and Surface Tension of Aqueous 2-Amino-1,3-propanediol (Serinol) Solutions
Source: J. Chem. Eng. Data, 2014, 10.1021/je4008298
Compound 1: 2-amino-1,3-propanediol, C3H9NO2, InChI=1S/C3H9NO2/c4-3(1-5)2-6/h3,5-6H,1-2,4H2, purity 99%
Compound 2: water, H2O, InChI=1S/H2O/h1H2, purity 99.9%
Compound 3: carbon dioxide, CO2, InChI=1S/CO2/c2-1-3, purity 99.9%

System: 2-amino-1,3-propanediol + water; phases: Liquid
Fixed: Pressure, kPa = 101.3
Property: Mass density, kg/m3 (Liquid); method: PYCNOM:UFactor:3
Temperature, K	Molality, mol/kg of 2-amino-1,3-propanediol	Mass density, kg/m3	uncertainty
293.2	0.953	1012.63	0.72
293.2	2.052	1026.97	0.74
293.2	3.464	1041.67	0.76
293.2	4.693	1052.77	0.79
300.2	0.953	1010.28	0.77
300.2	2.052	1024.18	0.79
300.2	3.464	1038.8	0.81
300.2	4.693	1050.01	0.83
307.2	0.953	1008.07	0.82
307.2	2.052	1021.61	0.84
307.2	3.464	1036.8	0.86
307.2	4.693	1047.38	0.88
313.2	0.953	1005.49	0.86
313.2	2.052	1019.22	0.88
313.2	3.464	1033.49	0.91
313.2	4.693	1044.53	0.92

System: 2-amino-1,3-propanediol + water; phases: Liquid
Fixed: Pressure, kPa = 101.3
Property: Viscosity, Pa*s (Liquid); method: Capillary tube (Ostwald; Ubbelohde) method
Temperature, K	Molality, mol/kg of 2-amino-1,3-propanediol	Viscosity, Pa*s	uncertainty
293.2	0.953	0.001244	1.8e-05
293.2	2.052	0.001606	2e-05
293.2	3.464	0.002157	2.4e-05
293.2	4.693	0.002784	2.7e-05
300.2	0.953	0.001056	1.8e-05
300.2	2.052	0.001335	1.9e-05
300.2	3.464	0.001769	2.1e-05
300.2	4.693	0.002261	2.4e-05
307.2	0.953	0.000896	1.7e-05
307.2	2.052	0.001118	1.8e-05
307.2	3.464	0.001458	2e-05
307.2	4.693	0.001845	2.2e-05
313.2	0.953	0.0008	1.7e-05
313.2	2.052	0.000983	1.7e-05
313.2	3.464	0.001275	1.8e-05
313.2	4.693	0.001588	2e-05

System: 2-amino-1,3-propanediol + water; phases: Liquid, Air at 1 atmosphere
Property: Surface tension liquid-gas, N/m (Liquid); method: Pendant drop shape
Temperature, K	Molality, mol/kg of 2-amino-1,3-propanediol	Surface tension liquid-gas, N/m	uncertainty
298.2	0.959	0.0717	0.0006
298.2	2.151	0.0713	0.0006
298.2	3.459	0.0708	0.0006
298.2	4.745	0.0704	0.0006
313.2	0.959	0.0694	0.0006
313.2	2.151	0.069	0.0006
313.2	3.459	0.0686	0.0006
313.2	4.745	0.0683	0.0006

System: carbon dioxide + 2-amino-1,3-propanediol + water; phases: Liquid, Gas
Property: Molality, mol/kg of carbon dioxide (Liquid); method: pressure drop
Temperature, K	Pressure, kPa of carbon dioxide	Solvent: Molality, mol/kg of 2-amino-1,3-propanediol	Molality, mol/kg of carbon dioxide	uncertainty
313.15	1.346	0.953	0.207	0.002
313.15	5.063	0.953	0.375	0.006
313.15	34.47	0.953	0.519	0.008
313.15	77.24	0.953	0.614	0.01
313.15	174.2	0.953	0.717	0.014
313.15	326.4	0.953	0.805	0.016
313.15	590.9	0.953	0.9	0.02
313.15	1.5	2.097	0.457	0.006
313.15	7.628	2.097	0.873	0.008
313.15	26.32	2.097	1.123	0.01
313.15	67.95	2.097	1.3	0.014
313.15	144.6	2.097	1.447	0.016
313.15	346.1	2.097	1.65	0.02
313.15	0.5239	3.464	0.356	0.002
313.15	1.276	3.464	0.745	0.006
313.15	3.06	3.464	1.176	0.008
313.15	10.675	3.464	1.578	0.012
313.15	47.42	3.464	1.928	0.014
313.15	105.59	3.464	2.131	0.018
313.15	227.2	3.464	2.35	0.02
313.15	464.8	3.464	2.6	0.02
313.15	0.8511	4.704	0.647	0.004
313.15	2.254	4.704	1.315	0.006
313.15	7.475	4.704	1.994	0.011
313.15	68.42	4.704	2.678	0.015
313.15	186.3	4.704	3.006	0.017
313.15	413.6	4.704	3.33	0.02
343.15	2.439	4.704	0.68	0.004
343.15	13.17	4.704	1.409	0.006
343.15	51.99	4.704	1.982	0.01
343.15	95.95	4.704	2.2	0.013
343.15	202.4	4.704	2.786	0.017
373.15	4.038	4.704	0.289	0.002
373.15	14.95	4.704	0.628	0.006
373.15	32.99	4.704	0.923	0.008
373.15	59.16	4.704	1.174	0.012
373.15	111.39	4.704	1.46	0.014
373.15	202.7	4.704	1.738	0.018
