Measured thermophysical data. Measurement and Correlation of Solubility of Azithromycin Monohydrate in Five Pure Solvents
Source: J. Chem. Eng. Data, 2014, 10.1021/je400899e
Compound 1: Azithromycin monohydrate, C38H74N2O13, InChI=1S/C38H72N2O12.H2O/c1-15-27-38(10,46)31(42)24(6)40(13)19-20(2)17-36(8,45)33(52-35-29(41)26(39(11)12)16-21(3)48-35)22(4)30(23(5)34(44)50-27)51-28-18-37(9,47-14)32(43)25(7)49-28;/h20-33,35,41-43,45-46H,15-19H2,1-14H3;1H2/t20-,21-,22+,23-,24-,25+,26+,27-,28+,29-,30+,31-,32+,33-,35+,36-,37-,38-;/m1./s1
Compound 2: ethanol, C2H6O, InChI=1S/C2H6O/c1-2-3/h3H,2H2,1H3
Compound 3: propan-2-ol, C3H8O, InChI=1S/C3H8O/c1-3(2)4/h3-4H,1-2H3
Compound 4: butan-1-ol, C4H10O, InChI=1S/C4H10O/c1-2-3-4-5/h5H,2-4H2,1H3
Compound 5: ethyl acetate, C4H8O2, InChI=1S/C4H8O2/c1-3-6-4(2)5/h3H2,1-2H3
Compound 6: acetone, C3H6O, InChI=1S/C3H6O/c1-3(2)4/h1-2H3

System: Azithromycin monohydrate; phases: Crystal, Liquid, Air at 1 atmosphere
Property: Normal melting temperature, K (Crystal); method: DTA
Normal melting temperature, K	uncertainty
386.15	1.06

System: Azithromycin monohydrate; phases: Crystal, Liquid, Air at 1 atmosphere
Property: Molar enthalpy of transition or fusion, kJ/mol (Crystal); method: DSC
Molar enthalpy of transition or fusion, kJ/mol	uncertainty
17.1	0.41

System: ethanol + Azithromycin monohydrate; phases: Liquid, Crystal
Fixed: Pressure, kPa = 100
Property: Mole fraction of Azithromycin monohydrate (Liquid); method: laser monitering system
Temperature, K	Mole fraction of Azithromycin monohydrate	uncertainty
278.15	0.0299	0.0018
283.15	0.0325	0.002
288.15	0.0348	0.0021
293.15	0.0371	0.0022
298.15	0.0406	0.0024
303.15	0.0451	0.0027
308.15	0.0491	0.0029
313.15	0.0538	0.0032
318.15	0.0573	0.0034
323.15	0.0588	0.0035

System: propan-2-ol + Azithromycin monohydrate; phases: Liquid, Crystal
Fixed: Pressure, kPa = 100
Property: Mole fraction of Azithromycin monohydrate (Liquid); method: laser monitering system
Temperature, K	Mole fraction of Azithromycin monohydrate	uncertainty
278.15	0.0281	0.0017
283.15	0.0303	0.0018
288.15	0.0327	0.002
293.15	0.0349	0.0021
298.15	0.0388	0.0023
303.15	0.0433	0.0026
308.15	0.0459	0.0028
313.15	0.0507	0.003
318.15	0.0542	0.0033
323.15	0.0575	0.0035

System: butan-1-ol + Azithromycin monohydrate; phases: Liquid, Crystal
Fixed: Pressure, kPa = 100
Property: Mole fraction of Azithromycin monohydrate (Liquid); method: laser monitering system
Temperature, K	Mole fraction of Azithromycin monohydrate	uncertainty
278.15	0.0249	0.0015
283.15	0.0254	0.0015
288.15	0.0274	0.0016
293.15	0.0282	0.0017
298.15	0.0301	0.0018
303.15	0.0324	0.0019
308.15	0.0356	0.0021
313.15	0.0386	0.0023
318.15	0.0422	0.0025
323.15	0.0466	0.0028

System: ethyl acetate + Azithromycin monohydrate; phases: Liquid, Crystal
Fixed: Pressure, kPa = 100
Property: Mole fraction of Azithromycin monohydrate (Liquid); method: laser monitering system
Temperature, K	Mole fraction of Azithromycin monohydrate	uncertainty
278.15	0.0324	0.0019
283.15	0.0341	0.002
288.15	0.0366	0.0022
293.15	0.0396	0.0024
298.15	0.0436	0.0026
303.15	0.0521	0.0031
308.15	0.0593	0.0036
313.15	0.0671	0.004
318.15	0.0743	0.0045
323.15	0.081	0.005

System: acetone + Azithromycin monohydrate; phases: Liquid, Crystal
Fixed: Pressure, kPa = 100
Property: Mole fraction of Azithromycin monohydrate (Liquid); method: laser monitering system
Temperature, K	Mole fraction of Azithromycin monohydrate	uncertainty
278.15	0.0305	0.0018
283.15	0.0329	0.002
288.15	0.0353	0.0021
293.15	0.0386	0.0023
298.15	0.0424	0.0025
303.15	0.0464	0.0028
308.15	0.0512	0.0031
313.15	0.0569	0.0034
318.15	0.063	0.004
323.15	0.0721	0.0043
