Measured thermophysical data. Physical Properties of Ionic Liquids Consisting of 1-Butyl-3-propanenitrile- and 1-Decyl-3-propanenitrile Imidazolium-Based Cations: Temperature Dependence and Influence of the Anion
Source: J. Chem. Eng. Data, 2014, 10.1021/je400849a
Compound 1: 1-butyl-3-propanenitrile imidazolium dioctysulfosuccinate, C30H53N3O7S, InChI=1S/C20H38O7S.C10H16N3/c1-3-5-7-9-11-13-15-26-19(21)17-18(28(23,24)25)20(22)27-16-14-12-10-8-6-4-2;1-2-3-6-12-8-9-13(10-12)7-4-5-11/h18H,3-17H2,1-2H3,(H,23,24,25);8-10H,2-4,6-7H2,1H3/q;+1/p-1, purity 98.2%
Compound 2: 1-butyl-3-(2-cyanoethyl)-1H-imidazol-3-ium dodecyl sulfate, C22H41N3O4S, InChI=1S/C12H26O4S.C10H16N3/c1-2-3-4-5-6-7-8-9-10-11-12-16-17(13,14)15;1-2-3-6-12-8-9-13(10-12)7-4-5-11/h2-12H2,1H3,(H,13,14,15);8-10H,2-4,6-7H2,1H3/q;+1/p-1, purity 97.5%
Compound 3: 1-butyl-3-(2-cyanoethyl)-1H-imidazolium benzenesulfonate, C16H21N3O3S, InChI=1S/C10H16N3.C6H6O3S/c1-2-3-6-12-8-9-13(10-12)7-4-5-11;7-10(8,9)6-4-2-1-3-5-6/h8-10H,2-4,6-7H2,1H3;1-5H,(H,7,8,9)/q+1;/p-1, purity 97.4%
Compound 4: 1-butyl-3-propanenitrile imidazolium trifluoromethanesulfonate, C11H16F3N3O3S, InChI=1S/C10H16N3.CHF3O3S/c1-2-3-6-12-8-9-13(10-12)7-4-5-11;2-1(3,4)8(5,6)7/h8-10H,2-4,6-7H2,1H3;(H,5,6,7)/q+1;/p-1, purity 97%
Compound 5: 3-(2-cyanoethyl)-1-decylimidazolium 3-sulfobenzoate, C23H33N3O5S, InChI=1S/C16H28N3.C7H6O5S/c1-2-3-4-5-6-7-8-9-12-18-14-15-19(16-18)13-10-11-17;8-7(9)5-2-1-3-6(4-5)13(10,11)12/h14-16H,2-10,12-13H2,1H3;1-4H,(H,8,9)(H,10,11,12)/q+1;/p-1, purity 96.8%
Compound 6: 1-decyl-3-propanenitrile imidazolium dioctysulfosuccinate, C36H65N3O7S, InChI=1S/C20H38O7S.C16H28N3/c1-3-5-7-9-11-13-15-26-19(21)17-18(28(23,24)25)20(22)27-16-14-12-10-8-6-4-2;1-2-3-4-5-6-7-8-9-12-18-14-15-19(16-18)13-10-11-17/h18H,3-17H2,1-2H3,(H,23,24,25);14-16H,2-10,12-13H2,1H3/q;+1/p-1, purity 96.9%
Compound 7: 3-(2-cyanoethyl)-1-decylimidazolium dodecylsulfate, C28H53N3O4S, InChI=1S/C16H28N3.C12H26O4S/c1-2-3-4-5-6-7-8-9-12-18-14-15-19(16-18)13-10-11-17;1-2-3-4-5-6-7-8-9-10-11-12-16-17(13,14)15/h14-16H,2-10,12-13H2,1H3;2-12H2,1H3,(H,13,14,15)/q+1;/p-1, purity 97%

System: 1-butyl-3-propanenitrile imidazolium dioctysulfosuccinate; phases: Liquid
Fixed: Pressure, kPa = 101.325
Property: Mass density, kg/m3 (Liquid); method: Vibrating tube method
Temperature, K	Mass density, kg/m3	uncertainty
293.15	1114.6	1.3
298.15	1110.5	1.3
303.15	1107.1	1.3
308.15	1103.7	1.3
313.15	1099.2	1.3
318.15	1096.3	1.3
323.15	1093.1	1.3
328.15	1088.6	1.3
333.15	1084.2	1.3
338.15	1080.4	1.3
343.15	1076.1	1.2
348.15	1072.6	1.2
353.15	1068.9	1.2

System: 1-butyl-3-propanenitrile imidazolium dioctysulfosuccinate; phases: Liquid
Fixed: Pressure, kPa = 101.325
Property: Viscosity, Pa*s (Liquid); method: CONCYL:UFactor:2
Temperature, K	Viscosity, Pa*s	uncertainty
293.15	19.758	3.185
298.15	12.006	1.775
303.15	7.458	1.007
308.15	4.462	0.541
313.15	2.843	0.31
318.15	1.829	0.178
323.15	1.203	0.104
328.15	0.786	0.059
333.15	0.497	0.031
338.15	0.333	0.017
343.15	0.238	0.01
348.15	0.154	0.005
353.15	0.102	0.002

System: 1-butyl-3-propanenitrile imidazolium dioctysulfosuccinate; phases: Liquid
Fixed: Pressure, kPa = 101.325
Property: Refractive index (Na D-line) (Liquid); method: Standard Abbe refractometry
Temperature, K	Refractive index (Na D-line)	uncertainty
298.15	1.48048	0.00048
303.15	1.47926	0.00048
308.15	1.47792	0.00048
313.15	1.47653	0.00048
318.15	1.47504	0.00048
323.15	1.47361	0.00048
328.15	1.47216	0.00048
333.15	1.4707	0.00048

System: 1-butyl-3-(2-cyanoethyl)-1H-imidazol-3-ium dodecyl sulfate; phases: Liquid
Fixed: Pressure, kPa = 101.325
Property: Mass density, kg/m3 (Liquid); method: Vibrating tube method
Temperature, K	Mass density, kg/m3	uncertainty
293.15	1128.9	1.9
298.15	1123.2	1.8
303.15	1119.8	1.8
308.15	1116.1	1.8
313.15	1112.2	1.8
318.15	1108.9	1.8
323.15	1105	1.8
328.15	1101.9	1.8
333.15	1097.7	1.8
338.15	1093.6	1.8
343.15	1089.7	1.8
348.15	1086.3	1.7
353.15	1082.2	1.7

System: 1-butyl-3-(2-cyanoethyl)-1H-imidazol-3-ium dodecyl sulfate; phases: Liquid
Fixed: Pressure, kPa = 101.325
Property: Viscosity, Pa*s (Liquid); method: CONCYL:UFactor:2
Temperature, K	Viscosity, Pa*s	uncertainty
293.15	13.007	1.954
298.15	7.875	1.077
303.15	4.746	0.585
308.15	2.938	0.324
313.15	1.74	0.168
318.15	1.144	0.098
323.15	0.768	0.057
328.15	0.485	0.03
333.15	0.338	0.018
338.15	0.235	0.01
343.15	0.162	0.006
348.15	0.114	0.003
353.15	0.076	0.001

System: 1-butyl-3-(2-cyanoethyl)-1H-imidazol-3-ium dodecyl sulfate; phases: Liquid
Fixed: Pressure, kPa = 101.325
Property: Refractive index (Na D-line) (Liquid); method: Standard Abbe refractometry
Temperature, K	Refractive index (Na D-line)	uncertainty
298.15	1.48791	0.00059
303.15	1.48619	0.00059
308.15	1.48443	0.00059
313.15	1.48232	0.00059
318.15	1.48009	0.00059
323.15	1.47842	0.00059
328.15	1.47695	0.00059
333.15	1.47487	0.00059

System: 1-butyl-3-(2-cyanoethyl)-1H-imidazolium benzenesulfonate; phases: Liquid
Fixed: Pressure, kPa = 101.325
Property: Mass density, kg/m3 (Liquid); method: Vibrating tube method
Temperature, K	Mass density, kg/m3	uncertainty
293.15	1240.3	2.3
298.15	1236.8	2.3
303.15	1233.4	2.3
308.15	1230.2	2.3
313.15	1226.3	2.2
318.15	1223.7	2.2
323.15	1220.3	2.2
328.15	1217.1	2.2
333.15	1213.5	2.2
338.15	1210.1	2.2
343.15	1207.1	2.2
348.15	1204.4	2.2
353.15	1201.3	2.2

System: 1-butyl-3-(2-cyanoethyl)-1H-imidazolium benzenesulfonate; phases: Liquid
Fixed: Pressure, kPa = 101.325
Property: Viscosity, Pa*s (Liquid); method: CONCYL:UFactor:3
Temperature, K	Viscosity, Pa*s	uncertainty
293.15	4.612	0.845
298.15	2.752	0.447
303.15	1.806	0.263
308.15	1.203	0.155
313.15	0.792	0.089
318.15	0.505	0.048
323.15	0.321	0.025
328.15	0.214	0.013
333.15	0.152	0.007
338.15	0.109	0.004
343.15	0.078	0.002
348.15	0.054	0.001
353.15	0.038	0.001

System: 1-butyl-3-(2-cyanoethyl)-1H-imidazolium benzenesulfonate; phases: Liquid
Fixed: Pressure, kPa = 101.325
Property: Refractive index (Na D-line) (Liquid); method: Standard Abbe refractometry
Temperature, K	Refractive index (Na D-line)	uncertainty
298.15	1.53378	0.00061
303.15	1.53237	0.00061
308.15	1.53113	0.00061
313.15	1.52975	0.00061
318.15	1.52824	0.00061
323.15	1.52684	0.00061
328.15	1.52544	0.00061
333.15	1.52403	0.00061

System: 1-butyl-3-propanenitrile imidazolium trifluoromethanesulfonate; phases: Liquid
Fixed: Pressure, kPa = 101.325
Property: Mass density, kg/m3 (Liquid); method: Vibrating tube method
Temperature, K	Mass density, kg/m3	uncertainty
293.15	1336.3	3.5
298.15	1332.4	3.5
303.15	1328.6	3.4
308.15	1325	3.4
313.15	1321.3	3.4
318.15	1317.7	3.4
323.15	1314.1	3.4
328.15	1310.5	3.3
333.15	1308.6	3.3
338.15	1303.2	3.3
343.15	1299.6	3.3
348.15	1295.9	3.3
353.15	1292.2	3.2

System: 1-butyl-3-propanenitrile imidazolium trifluoromethanesulfonate; phases: Liquid
Fixed: Pressure, kPa = 101.325
Property: Viscosity, Pa*s (Liquid); method: CONCYL:UFactor:4
Temperature, K	Viscosity, Pa*s	uncertainty
293.15	1.097	0.183
298.15	0.719	0.104
303.15	0.489	0.061
308.15	0.336	0.035
313.15	0.227	0.019
318.15	0.161	0.011
323.15	0.119	0.006
328.15	0.085	0.003
333.15	0.061	0.002
338.15	0.046	0.002
343.15	0.035	0.002
348.15	0.025	0.002
353.15	0.019	0.002

System: 1-butyl-3-propanenitrile imidazolium trifluoromethanesulfonate; phases: Liquid
Fixed: Pressure, kPa = 101.325
Property: Refractive index (Na D-line) (Liquid); method: Standard Abbe refractometry
Temperature, K	Refractive index (Na D-line)	uncertainty
298.15	1.53523	0.00068
303.15	1.53357	0.00068
308.15	1.53216	0.00068
313.15	1.53072	0.00068
318.15	1.52925	0.00068
323.15	1.52795	0.00068
328.15	1.52652	0.00068
333.15	1.52515	0.00068

System: 3-(2-cyanoethyl)-1-decylimidazolium 3-sulfobenzoate; phases: Liquid
Fixed: Pressure, kPa = 101.325
Property: Mass density, kg/m3 (Liquid); method: Vibrating tube method
Temperature, K	Mass density, kg/m3	uncertainty
293.15	1136.6	2.8
298.15	1133.5	2.8
303.15	1129.9	2.8
308.15	1126.3	2.8
313.15	1123.2	2.8
318.15	1119.8	2.7
323.15	1116.2	2.7
328.15	1112.7	2.7
333.15	1109.5	2.7
338.15	1105.9	2.7
343.15	1102.6	2.6
348.15	1099.3	2.6
353.15	1095.8	2.6

System: 3-(2-cyanoethyl)-1-decylimidazolium 3-sulfobenzoate; phases: Liquid
Fixed: Pressure, kPa = 101.325
Property: Viscosity, Pa*s (Liquid); method: CONCYL:UFactor:2
Temperature, K	Viscosity, Pa*s	uncertainty
298.15	17.65	2.801
303.15	11.449	1.685
308.15	7.159	0.964
313.15	4.606	0.566
318.15	3.028	0.338
323.15	1.977	0.198
328.15	1.431	0.131
333.15	0.944	0.076
338.15	0.623	0.044
343.15	0.431	0.026
348.15	0.294	0.015
353.15	0.198	0.008

System: 3-(2-cyanoethyl)-1-decylimidazolium 3-sulfobenzoate; phases: Liquid
Fixed: Pressure, kPa = 101.325
Property: Refractive index (Na D-line) (Liquid); method: Standard Abbe refractometry
Temperature, K	Refractive index (Na D-line)	uncertainty
298.15	1.51306	0.00071
303.15	1.51163	0.00071
308.15	1.50998	0.00071
313.15	1.50871	0.00071
318.15	1.50706	0.00071
323.15	1.50582	0.00071
328.15	1.5045	0.00071
333.15	1.50322	0.00071

System: 1-decyl-3-propanenitrile imidazolium dioctysulfosuccinate; phases: Liquid
Fixed: Pressure, kPa = 101.325
Property: Mass density, kg/m3 (Liquid); method: Vibrating tube method
Temperature, K	Mass density, kg/m3	uncertainty
293.15	1039.2	2.2
298.15	1035.8	2.2
303.15	1032.7	2.2
308.15	1029.7	2.2
313.15	1027.1	2.2
318.15	1024.6	2.2
323.15	1022.3	2.2
328.15	1020.1	2.2
333.15	1017.9	2.2
338.15	1015.8	2.1
343.15	1013.6	2.1
348.15	1011.4	2.1
353.15	1009	2

System: 1-decyl-3-propanenitrile imidazolium dioctysulfosuccinate; phases: Liquid
Fixed: Pressure, kPa = 101.325
Property: Viscosity, Pa*s (Liquid); method: CONCYL:UFactor:2
Temperature, K	Viscosity, Pa*s	uncertainty
308.15	13.807	2.1
313.15	8.495	1.182
318.15	5.339	0.676
323.15	3.536	0.409
328.15	2.355	0.247
333.15	1.548	0.145
338.15	1.178	0.102
343.15	0.811	0.062
348.15	0.537	0.035
353.15	0.389	0.022

System: 1-decyl-3-propanenitrile imidazolium dioctysulfosuccinate; phases: Liquid
Fixed: Pressure, kPa = 101.325
Property: Refractive index (Na D-line) (Liquid); method: Standard Abbe refractometry
Temperature, K	Refractive index (Na D-line)	uncertainty
298.15	1.4761	0.00069
303.15	1.47476	0.00069
308.15	1.47345	0.00069
313.15	1.47203	0.00069
318.15	1.47055	0.00069
323.15	1.46909	0.00069
328.15	1.46761	0.00069
333.15	1.46601	0.00069

System: 3-(2-cyanoethyl)-1-decylimidazolium dodecylsulfate; phases: Liquid
Fixed: Pressure, kPa = 101.325
Property: Mass density, kg/m3 (Liquid); method: Vibrating tube method
Temperature, K	Mass density, kg/m3	uncertainty
293.15	1053	2.2
298.15	1050.4	2.2
303.15	1046.9	2.1
308.15	1043.3	2.1
313.15	1041.8	2.1
318.15	1038.6	2.1
323.15	1036.1	2.1
328.15	1034.3	2.1
333.15	1032.5	2.1
338.15	1029.9	2.1
343.15	1027.3	2.1
348.15	1025.8	2.1
353.15	1023.9	2.1

System: 3-(2-cyanoethyl)-1-decylimidazolium dodecylsulfate; phases: Liquid
Fixed: Pressure, kPa = 101.325
Property: Viscosity, Pa*s (Liquid); method: CONCYL:UFactor:2
Temperature, K	Viscosity, Pa*s	uncertainty
303.15	16.145	2.522
308.15	10.417	1.505
313.15	6.231	0.815
318.15	3.951	0.469
323.15	2.583	0.277
328.15	1.757	0.17
333.15	1.252	0.11
338.15	0.904	0.072
343.15	0.588	0.04
348.15	0.418	0.025
353.15	0.296	0.015

System: 3-(2-cyanoethyl)-1-decylimidazolium dodecylsulfate; phases: Liquid
Fixed: Pressure, kPa = 101.325
Property: Refractive index (Na D-line) (Liquid); method: Standard Abbe refractometry
Temperature, K	Refractive index (Na D-line)	uncertainty
298.15	1.47447	0.00068
303.15	1.47296	0.00068
308.15	1.47142	0.00068
313.15	1.46972	0.00068
318.15	1.46813	0.00068
323.15	1.46678	0.00068
328.15	1.46532	0.00068
333.15	1.46391	0.00068
