Measured thermophysical data. Fructose solubility in mixed (ethanol + water) solvent:  experimental data and comparison among different  thermodynamic models.
Source: J. Chem. Eng. Data, 2013, 10.1021/je400471m
Compound 1: D-fructose, C6H12O6, InChI=1S/C6H12O6/c7-1-3(9)5(11)6(12)4(10)2-8/h3,5-9,11-12H,1-2H2/t3-,5-,6-/m1/s1, purity 99.49%
Compound 2: ethanol, C2H6O, InChI=1S/C2H6O/c1-2-3/h3H,2H2,1H3, purity 99.4%
Compound 3: water, H2O, InChI=1S/H2O/h1H2, purity 99.9%

System: water; phases: Liquid
Property: Refractive index (Na D-line) (Liquid); method: Standard Abbe refractometry
Temperature, K	Pressure, kPa	Refractive index (Na D-line)	uncertainty
338.15	98	1.323	0.0096

System: D-fructose + ethanol + water; phases: Liquid
Fixed: Temperature, K = 338.15
Fixed: Pressure, kPa = 98
Property: Refractive index (Na D-line) (Liquid); method: Standard Abbe refractometry
Solvent: Mass fraction of ethanol	Mass fraction of D-fructose	Refractive index (Na D-line)	uncertainty
0	0	1.323	0.0096
0	0.2189	1.3687	0.0096
0	0.3592	1.3945	0.0096
0	0.4567	1.4159	0.0096
0	0.5286	1.4339	0.0096
0	0.5759	1.4393	0.0097
0	0.579	1.4413	0.0096
0	0.5836	1.4428	0.0096
0.2	0	1.3363	0.0096
0.2	0.1774	1.3686	0.0096
0.2	0.3013	1.3874	0.0096
0.2	0.3929	1.4045	0.0096
0.2	0.4632	1.4217	0.0096
0.2	0.519	1.4341	0.0096
0.2	0.576	1.4427	0.0096
0.4	0	1.3415	0.0096
0.4	0.2448	1.3839	0.0096
0.4	0.3272	1.3957	0.0096
0.4	0.3934	1.4059	0.0096
0.4	0.4476	1.4162	0.0096
0.4	0.4976	1.4262	0.0096
0.6	0	1.3569	0.0096
0.6	0.1151	1.3675	0.0096
0.6	0.2065	1.3792	0.0096
0.6	0.2807	1.3874	0.0096
0.6	0.3422	1.3961	0.0096
0.6	0.3941	1.4035	0.0096
0.6	0.4446	1.4078	0.0096
0.9	0	1.3587	0.0096
0.9	0.0815	1.3667	0.0096
0.9	0.1509	1.3747	0.0096
0.9	0.2105	1.3819	0.0096
0.9	0.2621	1.3892	0.0096
0.9	0.3075	1.3957	0.0096
0.9	0.3477	1.4021	0.0096
0.9	0.348	1.4021	0.0096

System: D-fructose + ethanol + water; phases: Liquid, Crystal
Fixed: Pressure, kPa = 98
Property: Mass fraction of D-fructose (Liquid); method: Index of refraction calibration data
Temperature, K	Solvent: Mass fraction of ethanol	Mass fraction of D-fructose	uncertainty
298.15	0	0.799	0.02
298.15	0.2	0.768	0.02
298.15	0.4	0.726	0.02
298.15	0.6	0.612	0.021
298.15	0.9	0.097	0.021
303.15	0	0.816	0.02
303.15	0.2	0.784	0.02
303.15	0.4	0.744	0.02
303.15	0.6	0.645	0.021
303.15	0.9	0.134	0.021
313.15	0	0.842	0.02
313.15	0.2	0.821	0.02
313.15	0.4	0.788	0.02
313.15	0.6	0.712	0.021
313.15	0.9	0.209	0.021
323.15	0	0.866	0.02
323.15	0.2	0.867	0.02
323.15	0.4	0.844	0.02
323.15	0.6	0.812	0.021
323.15	0.9	0.314	0.021
333.15	0	0.896	0.02
333.15	0.2	0.901	0.02
333.15	0.4	0.899	0.02
333.15	0.6	0.874	0.02
333.15	0.9	0.532	0.021

System: D-fructose + water; phases: Liquid
Fixed: Temperature, K = 338.15
Fixed: Pressure, kPa = 98
Property: Refractive index (Na D-line) (Liquid); method: Standard Abbe refractometry
Mass fraction of D-fructose	Refractive index (Na D-line)	uncertainty
0.2189	1.3687	0.0096
0.3592	1.3945	0.0096
0.4567	1.4159	0.0096
0.5286	1.4339	0.0096
0.5759	1.4393	0.0096
0.579	1.4413	0.0096
0.5836	1.4428	0.0096

System: D-fructose + water; phases: Liquid, Crystal
Fixed: Pressure, kPa = 98
Property: Mass fraction of D-fructose (Liquid); method: Index of refraction calibration data
Temperature, K	Mass fraction of D-fructose	uncertainty
298.15	0.799	0.02
303.15	0.816	0.02
313.15	0.842	0.02
323.15	0.866	0.02
333.15	0.896	0.02

System: ethanol + water; phases: Liquid
Fixed: Temperature, K = 338.15
Fixed: Pressure, kPa = 98
Property: Refractive index (Na D-line) (Liquid); method: Standard Abbe refractometry
Mass fraction of ethanol	Refractive index (Na D-line)	uncertainty
0.2	1.3363	0.0096
0.4	1.3415	0.0096
0.6	1.3569	0.0096
0.9	1.3587	0.0096
