Measured thermophysical data. Binary Diffusion Coefficients of Platinum(II) Acetylacetonate in Supercritical Carbon Dioxide
Source: J. Chem. Eng. Data, 2013, 10.1021/je400313n
Compound 1: platinum acetylacetonate, C10H14O4Pt, InChI=1S/2C5H7O2.Pt/c2*1-4(6)3-5(2)7;/h2*3H,1-2H3;/q2*-1;+2, purity 99%
Compound 2: ethanol, C2H6O, InChI=1S/C2H6O/c1-2-3/h3H,2H2,1H3, purity 99.5%
Compound 3: carbon dioxide, CO2, InChI=1S/CO2/c2-1-3, purity 99.99%

System: carbon dioxide + platinum acetylacetonate; phases: Fluid (supercritical or subcritical phases)
Fixed: Mole fraction of platinum acetylacetonate = 0
Property: Binary diffusion coefficient, m2/s (Fluid (supercritical or subcritical phases)); method: chromatographic impulse response method
Temperature, K	Pressure, kPa	Binary diffusion coefficient, m2/s	uncertainty
308.15	8510	9.98e-09	0.21
308.15	9000	9.23e-09	0.2
308.15	10000	8.69e-09	0.18
308.15	11000	8.14e-09	0.17
308.15	12000	7.83e-09	0.16
308.15	15000	7.01e-09	0.15
308.15	20000	6.43e-09	0.14
308.15	25000	5.96e-09	0.13
308.15	30000	5.55e-09	0.12
308.15	35000	5.26e-09	0.11
308.15	40000	5.07e-09	0.11
313.15	9000	1.296e-08	0.28
313.15	9500	1.126e-08	0.24
313.15	9710	1.096e-08	0.23
313.15	10000	1.034e-08	0.22
313.15	10500	9.91e-09	0.21
313.15	11000	9.35e-09	0.2
313.15	12000	8.83e-09	0.19
313.15	12500	8.6e-09	0.18
313.15	14000	8.32e-09	0.17
313.15	15050	8.04e-09	0.17
313.15	16000	7.68e-09	0.16
313.15	17500	7.67e-09	0.16
313.15	19520	7.17e-09	0.15
313.15	20000	7.03e-09	0.15
313.15	25000	6.5e-09	0.14
313.15	29140	5.91e-09	0.12
313.15	30000	6e-09	0.13
313.15	35000	5.64e-09	0.12
313.15	40000	5.38e-09	0.11
323.15	10500	1.559e-08	0.34
323.15	11000	1.366e-08	0.29
323.15	12000	1.242e-08	0.26
323.15	13000	1.124e-08	0.24
323.15	15000	9.99e-09	0.21
323.15	18000	9.3e-09	0.2
323.15	20000	8.66e-09	0.18
323.15	25000	7.86e-09	0.17
323.15	30000	7.26e-09	0.15
323.15	35000	6.98e-09	0.15
323.15	38000	6.83e-09	0.14
333.15	13000	1.417e-08	0.3
333.15	14000	1.301e-08	0.27
333.15	15000	1.222e-08	0.26
333.15	16000	1.183e-08	0.25
333.15	17000	1.111e-08	0.23
333.15	18000	1.069e-08	0.22
333.15	20000	1.004e-08	0.21
333.15	22000	9.53e-09	0.2
333.15	24000	9.16e-09	0.19
333.15	25000	8.93e-09	0.19
333.15	26000	8.64e-09	0.18
333.15	28000	8.33e-09	0.18
333.15	30000	8.14e-09	0.17
333.15	35000	7.81e-09	0.16
333.15	38000	7.5e-09	0.16
343.15	16000	1.417e-08	0.3
343.15	18000	1.264e-08	0.27
343.15	20000	1.182e-08	0.25
343.15	25000	1.056e-08	0.22
343.15	30000	9.39e-09	0.2
343.15	35000	8.83e-09	0.19

System: ethanol + platinum acetylacetonate; phases: Fluid (supercritical or subcritical phases)
Fixed: Pressure, kPa = 100
Fixed: Mole fraction of platinum acetylacetonate = 0
Property: Binary diffusion coefficient, m2/s (Fluid (supercritical or subcritical phases)); method: Taylor dispersion method
Temperature, K	Binary diffusion coefficient, m2/s	uncertainty
298.15	7.35e-10	0.035
303.15	8.21e-10	0.039
313.15	9.79e-10	0.046
323.15	1.24e-09	0.06
333.15	1.42e-09	0.07
