Measured thermophysical data. Molar Heat Capacity (Cp) of Aqueous Cyclic Amine Solutions from (298.15 to 353.15) K
Source: J. Chem. Eng. Data, 2013, 10.1021/je400178k
Compound 1: 1,4-dimethylpiperazine, C6H14N2, InChI=1S/C6H14N2/c1-7-3-5-8(2)6-4-7/h3-6H2,1-2H3, purity 98%
Compound 2: N-(2-hydroxyethyl)piperazine, C6H14N2O, InChI=1S/C6H14N2O/c9-6-5-8-3-1-7-2-4-8/h7,9H,1-6H2, purity 98%
Compound 3: N-methylpiperazine, C5H12N2, InChI=1S/C5H12N2/c1-7-4-2-6-3-5-7/h6H,2-5H2,1H3, purity 99%
Compound 4: N-(3-aminopropyl)morpholine, C7H16N2O, InChI=1S/C7H16N2O/c8-2-1-3-9-4-6-10-7-5-9/h1-8H2, purity 97%
Compound 5: 4-morpholineethanol, C6H13NO2, InChI=1S/C6H13NO2/c8-4-1-7-2-5-9-6-3-7/h8H,1-6H2, purity 99%
Compound 6: water, H2O, InChI=1S/H2O/h1H2, purity 99.8%

System: 1,4-dimethylpiperazine; phases: Liquid
Fixed: Pressure, kPa = 101
Property: Molar heat capacity at constant pressure, J/K/mol (Liquid); method: Small sample (50 mg) DSC
Temperature, K	Molar heat capacity at constant pressure, J/K/mol	uncertainty
298.15	216.5	3.7
303.15	221.7	3.7
308.15	222.1	3.7
313.15	223.4	3.7
318.15	224.6	3.8
323.15	225.3	3.8
328.15	225.7	3.8
333.15	227.5	3.8
338.15	228.5	3.8
343.15	229.6	3.8
348.15	231.7	3.8
353.15	235.9	3.9

System: N-(2-hydroxyethyl)piperazine; phases: Liquid
Fixed: Pressure, kPa = 101
Property: Molar heat capacity at constant pressure, J/K/mol (Liquid); method: Small sample (50 mg) DSC
Temperature, K	Molar heat capacity at constant pressure, J/K/mol	uncertainty
298.15	285	4.5
303.15	289.9	4.6
308.15	292.9	4.6
313.15	296	4.6
318.15	298.9	4.7
323.15	301.7	4.7
328.15	305	4.8
333.15	308.1	4.8
338.15	311	4.8
343.15	313.9	4.9
348.15	316.5	4.9
353.15	319	4.9

System: N-methylpiperazine; phases: Liquid
Fixed: Pressure, kPa = 101
Property: Molar heat capacity at constant pressure, J/K/mol (Liquid); method: Small sample (50 mg) DSC
Temperature, K	Molar heat capacity at constant pressure, J/K/mol	uncertainty
298.15	213.9	3.6
303.15	214.4	3.6
308.15	215	3.6
313.15	215.7	3.6
318.15	216.4	3.7
323.15	216.9	3.7
328.15	217.3	3.7
333.15	217.2	3.7
338.15	215.5	3.6
343.15	216.2	3.7
348.15	217.6	3.7
353.15	218	3.7

System: N-(3-aminopropyl)morpholine; phases: Liquid
Fixed: Pressure, kPa = 101
Property: Molar heat capacity at constant pressure, J/K/mol (Liquid); method: Small sample (50 mg) DSC
Temperature, K	Molar heat capacity at constant pressure, J/K/mol	uncertainty
298.15	296.2	4.6
303.15	298.2	4.7
308.15	299.6	4.7
313.15	301.2	4.7
318.15	302.8	4.7
323.15	304.5	4.7
328.15	306.1	4.8
333.15	307.9	4.8
338.15	309.6	4.8
343.15	311.3	4.8
348.15	312.7	4.9
353.15	313.4	4.9

System: 4-morpholineethanol; phases: Liquid
Fixed: Pressure, kPa = 101
Property: Molar heat capacity at constant pressure, J/K/mol (Liquid); method: Small sample (50 mg) DSC
Temperature, K	Molar heat capacity at constant pressure, J/K/mol	uncertainty
298.15	263.9	4.2
303.15	265.3	4.3
308.15	267.1	4.3
313.15	269.2	4.3
318.15	270.8	4.3
323.15	272.6	4.3
328.15	274.3	4.4
333.15	276.2	4.4
338.15	278.7	4.4
343.15	281	4.4
348.15	283.2	4.5
353.15	284.9	4.5

System: 1,4-dimethylpiperazine + water; phases: Liquid
Fixed: Pressure, kPa = 101
Property: Molar heat capacity at constant pressure, J/K/mol (Liquid); method: Small sample (50 mg) DSC
Temperature, K	Mole fraction of 1,4-dimethylpiperazine	Molar heat capacity at constant pressure, J/K/mol	uncertainty
298.15	0.1	108.6	2.5
303.15	0.1	110.2	2.5
308.15	0.1	111.1	2.5
313.15	0.1	112	2.6
318.15	0.1	113	2.6
323.15	0.1	114.3	2.6
328.15	0.1	115.5	2.6
333.15	0.1	116.4	2.6
338.15	0.1	117.4	2.6
343.15	0.1	118.4	2.6
348.15	0.1	119.5	2.6
353.15	0.1	120.8	2.6
298.15	0.2007	122.7	2.6
303.15	0.2007	124.5	2.7
308.15	0.2007	125.9	2.7
313.15	0.2007	127.8	2.7
318.15	0.2007	129.8	2.7
323.15	0.2007	132.1	2.7
328.15	0.2007	134.5	2.8
333.15	0.2007	136.4	2.8
338.15	0.2007	137.7	2.8
343.15	0.2007	139.3	2.8
348.15	0.2007	141	2.8
353.15	0.2007	142.4	2.8
298.15	0.2992	135.3	2.8
303.15	0.2992	137.6	2.8
308.15	0.2992	139.7	2.8
313.15	0.2992	141.9	2.8
318.15	0.2992	144.1	2.9
323.15	0.2992	146.3	2.9
328.15	0.2992	148.7	2.9
333.15	0.2992	151.5	2.9
338.15	0.2992	153.5	3
343.15	0.2992	156.2	3
348.15	0.2992	157.8	3
353.15	0.2992	159.4	3
298.15	0.4011	148.5	2.9
303.15	0.4011	150.9	2.9
308.15	0.4011	152.3	2.9
313.15	0.4011	154.4	3
318.15	0.4011	156.5	3
323.15	0.4011	158.2	3
328.15	0.4011	160.6	3
333.15	0.4011	163.3	3.1
338.15	0.4011	165.8	3.1
343.15	0.4011	169	3.1
348.15	0.4011	171.3	3.1
353.15	0.4011	173.6	3.2
298.15	0.5	159.8	3
303.15	0.5	162.6	3
308.15	0.5	164.9	3.1
313.15	0.5	166.7	3.1
318.15	0.5	169	3.1
323.15	0.5	171	3.1
328.15	0.5	172.7	3.2
333.15	0.5	174.8	3.2
338.15	0.5	177.1	3.2
343.15	0.5	179.7	3.2
348.15	0.5	182.6	3.3
353.15	0.5	185.7	3.3
298.15	0.6015	171.1	3.1
303.15	0.6015	174.8	3.2
308.15	0.6015	176.4	3.2
313.15	0.6015	178.5	3.2
318.15	0.6015	180.6	3.2
323.15	0.6015	182.5	3.3
328.15	0.6015	184.8	3.3
333.15	0.6015	186.4	3.3
338.15	0.6015	188.5	3.3
343.15	0.6015	191.4	3.4
348.15	0.6015	194.4	3.4
353.15	0.6015	198.7	3.4
298.15	0.6993	183.7	3.3
303.15	0.6993	188.1	3.3
308.15	0.6993	189.9	3.3
313.15	0.6993	192.3	3.4
318.15	0.6993	194.4	3.4
323.15	0.6993	196.6	3.4
328.15	0.6993	198.7	3.4
333.15	0.6993	200.6	3.5
338.15	0.6993	202.8	3.5
343.15	0.6993	205.4	3.5
348.15	0.6993	208.5	3.6
353.15	0.6993	213.5	3.6
298.15	0.799	195.4	3.4
303.15	0.799	199.9	3.5
308.15	0.799	202.1	3.5
313.15	0.799	204.4	3.5
318.15	0.799	206.7	3.5
323.15	0.799	208.8	3.6
328.15	0.799	210.8	3.6
333.15	0.799	213.1	3.6
338.15	0.799	215.2	3.6
343.15	0.799	217.7	3.7
348.15	0.799	220.6	3.7
353.15	0.799	225.5	3.8
298.15	0.8983	206.1	3.5
303.15	0.8983	211.3	3.6
308.15	0.8983	212.6	3.6
313.15	0.8983	214.6	3.6
318.15	0.8983	216.5	3.7
323.15	0.8983	218	3.7
328.15	0.8983	219.8	3.7
333.15	0.8983	221.6	3.7
338.15	0.8983	223.5	3.7
343.15	0.8983	225.5	3.8
348.15	0.8983	227.9	3.8
353.15	0.8983	233.5	3.9
298.15	1	216.5	3.7
303.15	1	221.7	3.7
308.15	1	222.1	3.7
313.15	1	223.4	3.7
318.15	1	224.6	3.8
323.15	1	225.3	3.8
328.15	1	225.7	3.8
333.15	1	227.5	3.8
338.15	1	228.5	3.8
343.15	1	229.6	3.8
348.15	1	231.7	3.8
353.15	1	235.9	3.9

System: N-(2-hydroxyethyl)piperazine + water; phases: Liquid
Fixed: Pressure, kPa = 101
Property: Molar heat capacity at constant pressure, J/K/mol (Liquid); method: Small sample (50 mg) DSC
Temperature, K	Mole fraction of N-(2-hydroxyethyl)piperazine	Molar heat capacity at constant pressure, J/K/mol	uncertainty
298.15	0.0999	104.2	2.5
303.15	0.0999	105.7	2.5
308.15	0.0999	107.1	2.5
313.15	0.0999	108.6	2.5
318.15	0.0999	110.4	2.5
323.15	0.0999	112.2	2.6
328.15	0.0999	114.3	2.6
333.15	0.0999	115.7	2.6
338.15	0.0999	118.5	2.6
343.15	0.0999	120.8	2.6
348.15	0.0999	122.5	2.6
353.15	0.0999	124	2.7
298.15	0.2	126.9	2.7
303.15	0.2	129.2	2.7
308.15	0.2	131.5	2.7
313.15	0.2	133.9	2.8
318.15	0.2	136.1	2.8
323.15	0.2	139	2.8
328.15	0.2	142.3	2.8
333.15	0.2	144.9	2.9
338.15	0.2	148	2.9
343.15	0.2	150.6	2.9
348.15	0.2	153	2.9
353.15	0.2	155.5	3
298.15	0.2921	145.8	2.9
303.15	0.2921	149.2	2.9
308.15	0.2921	151.9	2.9
313.15	0.2921	154.8	3
318.15	0.2921	157.5	3
323.15	0.2921	160.7	3
328.15	0.2921	164.2	3.1
333.15	0.2921	167.3	3.1
338.15	0.2921	170.6	3.1
343.15	0.2921	173.3	3.2
348.15	0.2921	175.6	3.2
353.15	0.2921	177.9	3.2
298.15	0.3916	165.4	3.1
303.15	0.3916	169.1	3.1
308.15	0.3916	171.5	3.1
313.15	0.3916	174.4	3.2
318.15	0.3916	177.5	3.2
323.15	0.3916	179.9	3.2
328.15	0.3916	182.4	3.3
333.15	0.3916	185.7	3.3
338.15	0.3916	188.1	3.3
343.15	0.3916	190.9	3.4
348.15	0.3916	194	3.4
353.15	0.3916	197.6	3.4
298.15	0.4896	184.7	3.3
303.15	0.4896	188.3	3.3
308.15	0.4896	191	3.4
313.15	0.4896	194.1	3.4
318.15	0.4896	196.8	3.4
323.15	0.4896	199.4	3.5
328.15	0.4896	202	3.5
333.15	0.4896	204.7	3.5
338.15	0.4896	207.5	3.6
343.15	0.4896	210.1	3.6
348.15	0.4896	212.8	3.6
353.15	0.4896	215.5	3.6
298.15	0.6011	206.4	3.5
303.15	0.6011	210.1	3.6
308.15	0.6011	212.7	3.6
313.15	0.6011	215.8	3.6
318.15	0.6011	218.2	3.7
323.15	0.6011	220.7	3.7
328.15	0.6011	223.7	3.7
333.15	0.6011	226.3	3.8
338.15	0.6011	229.1	3.8
343.15	0.6011	232	3.8
348.15	0.6011	234.8	3.9
353.15	0.6011	237.5	3.9
298.15	0.6947	224.8	3.8
303.15	0.6947	228.7	3.8
308.15	0.6947	231.4	3.8
313.15	0.6947	234.5	3.9
318.15	0.6947	237.1	3.9
323.15	0.6947	239.6	3.9
328.15	0.6947	242.6	4
333.15	0.6947	245.3	4
338.15	0.6947	248.2	4
343.15	0.6947	250.8	4.1
348.15	0.6947	253.5	4.1
353.15	0.6947	256.1	4.1
298.15	0.7952	244.6	4
303.15	0.7952	248.9	4
308.15	0.7952	251.8	4.1
313.15	0.7952	254.5	4.1
318.15	0.7952	257.2	4.2
323.15	0.7952	259.8	4.2
328.15	0.7952	262.7	4.2
333.15	0.7952	265.5	4.3
338.15	0.7952	268.2	4.3
343.15	0.7952	270.8	4.3
348.15	0.7952	273.3	4.4
353.15	0.7952	275.8	4.4
298.15	0.8939	264.2	4.2
303.15	0.8939	268.8	4.3
308.15	0.8939	271.6	4.3
313.15	0.8939	274.4	4.4
318.15	0.8939	277.2	4.4
323.15	0.8939	279.8	4.4
328.15	0.8939	282.8	4.5
333.15	0.8939	285.7	4.5
338.15	0.8939	288.4	4.5
343.15	0.8939	291.1	4.6
348.15	0.8939	293.6	4.6
353.15	0.8939	296.1	4.6
298.15	1	285	4.5
303.15	1	289.9	4.6
308.15	1	292.9	4.6
313.15	1	296	4.6
318.15	1	298.9	4.7
323.15	1	301.7	4.7
328.15	1	305	4.8
333.15	1	308.1	4.8
338.15	1	311	4.8
343.15	1	313.9	4.9
348.15	1	316.5	4.9
353.15	1	319	4.9

System: N-methylpiperazine + water; phases: Liquid
Fixed: Pressure, kPa = 101
Property: Molar heat capacity at constant pressure, J/K/mol (Liquid); method: Small sample (50 mg) DSC
Temperature, K	Mole fraction of N-methylpiperazine	Molar heat capacity at constant pressure, J/K/mol	uncertainty
298.15	0.099	99.4	2.4
303.15	0.099	100.6	2.5
308.15	0.099	101.6	2.5
313.15	0.099	102.7	2.5
318.15	0.099	103.7	2.5
323.15	0.099	104.6	2.5
328.15	0.099	105.6	2.5
333.15	0.099	106.1	2.5
338.15	0.099	106.6	2.5
343.15	0.099	107.3	2.5
348.15	0.099	108.2	2.5
353.15	0.099	109	2.5
298.15	0.1998	116	2.6
303.15	0.1998	117.3	2.6
308.15	0.1998	118.6	2.6
313.15	0.1998	119.9	2.6
318.15	0.1998	120.8	2.6
323.15	0.1998	122.1	2.6
328.15	0.1998	123.5	2.7
333.15	0.1998	124.8	2.7
338.15	0.1998	126.1	2.7
343.15	0.1998	127.3	2.7
348.15	0.1998	128.5	2.7
353.15	0.1998	129.7	2.7
298.15	0.2995	128.8	2.7
303.15	0.2995	130.4	2.7
308.15	0.2995	131.9	2.7
313.15	0.2995	133.4	2.7
318.15	0.2995	134.6	2.8
323.15	0.2995	136.2	2.8
328.15	0.2995	137.8	2.8
333.15	0.2995	139.4	2.8
338.15	0.2995	140.9	2.8
343.15	0.2995	142.4	2.8
348.15	0.2995	143.8	2.9
353.15	0.2995	145.2	2.9
298.15	0.4009	141.4	2.8
303.15	0.4009	143.3	2.8
308.15	0.4009	144.8	2.9
313.15	0.4009	146.4	2.9
318.15	0.4009	147.7	2.9
323.15	0.4009	149.3	2.9
328.15	0.4009	151.1	2.9
333.15	0.4009	153.3	3
338.15	0.4009	154.4	3
343.15	0.4009	156	3
348.15	0.4009	157.6	3
353.15	0.4009	159.2	3
298.15	0.4983	153.8	3
303.15	0.4983	155.6	3
308.15	0.4983	157.1	3
313.15	0.4983	158.6	3
318.15	0.4983	159.8	3
323.15	0.4983	161.4	3
328.15	0.4983	163	3.1
333.15	0.4983	165.5	3.1
338.15	0.4983	166.8	3.1
343.15	0.4983	168.2	3.1
348.15	0.4983	170	3.1
353.15	0.4983	171.5	3.1
298.15	0.6007	166.6	3.1
303.15	0.6007	168.2	3.1
308.15	0.6007	169.7	3.1
313.15	0.6007	171.3	3.1
318.15	0.6007	172.7	3.2
323.15	0.6007	174	3.2
328.15	0.6007	175.3	3.2
333.15	0.6007	177.3	3.2
338.15	0.6007	178.4	3.2
343.15	0.6007	179.8	3.2
348.15	0.6007	181.6	3.3
353.15	0.6007	183	3.3
298.15	0.6994	179	3.2
303.15	0.6994	180.5	3.2
308.15	0.6994	182	3.3
313.15	0.6994	183.4	3.3
318.15	0.6994	184.7	3.3
323.15	0.6994	185.7	3.3
328.15	0.6994	186.9	3.3
333.15	0.6994	188.2	3.3
338.15	0.6994	189	3.3
343.15	0.6994	190.6	3.4
348.15	0.6994	192.4	3.4
353.15	0.6994	193.8	3.4
298.15	0.7992	191.4	3.4
303.15	0.7992	192.7	3.4
308.15	0.7992	194.3	3.4
313.15	0.7992	195.4	3.4
318.15	0.7992	196.7	3.4
323.15	0.7992	197.5	3.4
328.15	0.7992	198.5	3.4
333.15	0.7992	198.9	3.5
338.15	0.7992	198.5	3.4
343.15	0.7992	200.1	3.5
348.15	0.7992	202.3	3.5
353.15	0.7992	203.7	3.5
298.15	0.8992	203.6	3.5
303.15	0.8992	204.7	3.5
308.15	0.8992	205.8	3.5
313.15	0.8992	206.8	3.5
318.15	0.8992	207.8	3.6
323.15	0.8992	208.5	3.6
328.15	0.8992	209.2	3.6
333.15	0.8992	209.3	3.6
338.15	0.8992	208.2	3.6
343.15	0.8992	209.2	3.6
348.15	0.8992	211.4	3.6
353.15	0.8992	212.7	3.6
298.15	1	213.9	3.6
303.15	1	214.4	3.6
308.15	1	215	3.6
313.15	1	215.7	3.6
318.15	1	216.4	3.7
323.15	1	216.9	3.7
328.15	1	217.3	3.7
333.15	1	217.2	3.7
338.15	1	215.5	3.6
343.15	1	216.2	3.7
348.15	1	217.6	3.7
353.15	1	218	3.7

System: N-(3-aminopropyl)morpholine + water; phases: Liquid
Fixed: Pressure, kPa = 101
Property: Molar heat capacity at constant pressure, J/K/mol (Liquid); method: Small sample (50 mg) DSC
Temperature, K	Mole fraction of N-(3-aminopropyl)morpholine	Molar heat capacity at constant pressure, J/K/mol	uncertainty
298.15	0.0999	108.4	2.5
303.15	0.0999	109.3	2.5
308.15	0.0999	110.3	2.5
313.15	0.0999	111.3	2.5
318.15	0.0999	112.3	2.6
323.15	0.0999	113.1	2.6
328.15	0.0999	114	2.6
333.15	0.0999	114.9	2.6
338.15	0.0999	115.9	2.6
343.15	0.0999	116.8	2.6
348.15	0.0999	117.8	2.6
353.15	0.0999	118.9	2.6
298.15	0.2	136.2	2.8
303.15	0.2	137.2	2.8
308.15	0.2	138.2	2.8
313.15	0.2	139.5	2.8
318.15	0.2	140.9	2.8
323.15	0.2	142.3	2.8
328.15	0.2	143.7	2.9
333.15	0.2	145.3	2.9
338.15	0.2	146.8	2.9
343.15	0.2	148.2	2.9
348.15	0.2	149.7	2.9
353.15	0.2	151.1	2.9
298.15	0.2921	160.1	3
303.15	0.2921	161.5	3
308.15	0.2921	162.6	3
313.15	0.2921	164	3.1
318.15	0.2921	165.6	3.1
323.15	0.2921	167.2	3.1
328.15	0.2921	168.6	3.1
333.15	0.2921	170.3	3.1
338.15	0.2921	171.9	3.1
343.15	0.2921	173.8	3.2
348.15	0.2921	175.5	3.2
353.15	0.2921	177.2	3.2
298.15	0.3916	183.1	3.3
303.15	0.3916	184.9	3.3
308.15	0.3916	186.4	3.3
313.15	0.3916	188.1	3.3
318.15	0.3916	189.9	3.3
323.15	0.3916	191.3	3.4
328.15	0.3916	192.9	3.4
333.15	0.3916	194.5	3.4
338.15	0.3916	196.2	3.4
343.15	0.3916	197.6	3.4
348.15	0.3916	199.3	3.5
353.15	0.3916	201.6	3.5
298.15	0.4896	203.5	3.5
303.15	0.4896	205.1	3.5
308.15	0.4896	206.8	3.5
313.15	0.4896	208.5	3.6
318.15	0.4896	210.3	3.6
323.15	0.4896	211.7	3.6
328.15	0.4896	213.2	3.6
333.15	0.4896	214.8	3.6
338.15	0.4896	216.5	3.7
343.15	0.4896	218.1	3.7
348.15	0.4896	219.7	3.7
353.15	0.4896	221.1	3.7
298.15	0.6011	224.3	3.8
303.15	0.6011	226.3	3.8
308.15	0.6011	227.8	3.8
313.15	0.6011	229.5	3.8
318.15	0.6011	231.2	3.8
323.15	0.6011	232.9	3.9
328.15	0.6011	234.4	3.9
333.15	0.6011	236	3.9
338.15	0.6011	237.7	3.9
343.15	0.6011	239.5	3.9
348.15	0.6011	240.9	4
353.15	0.6011	242.1	4
298.15	0.6947	242.5	4
303.15	0.6947	244.5	4
308.15	0.6947	246.1	4
313.15	0.6947	247.7	4
318.15	0.6947	249.4	4.1
323.15	0.6947	251.1	4.1
328.15	0.6947	252.6	4.1
333.15	0.6947	254.3	4.1
338.15	0.6947	256	4.1
343.15	0.6947	257.6	4.2
348.15	0.6947	259.1	4.2
353.15	0.6947	260.2	4.2
298.15	0.7952	261.6	4.2
303.15	0.7952	263.6	4.2
308.15	0.7952	265.1	4.2
313.15	0.7952	266.7	4.3
318.15	0.7952	268.4	4.3
323.15	0.7952	270.1	4.3
328.15	0.7952	271.6	4.3
333.15	0.7952	273.4	4.4
338.15	0.7952	275	4.4
343.15	0.7952	276.5	4.4
348.15	0.7952	277.9	4.4
353.15	0.7952	278.7	4.4
298.15	0.8939	278.9	4.4
303.15	0.8939	281	4.4
308.15	0.8939	282.5	4.5
313.15	0.8939	284	4.5
318.15	0.8939	285.8	4.5
323.15	0.8939	287.5	4.5
328.15	0.8939	289.1	4.6
333.15	0.8939	290.9	4.6
338.15	0.8939	292.5	4.6
343.15	0.8939	294.2	4.6
348.15	0.8939	295.6	4.6
353.15	0.8939	296.3	4.6
298.15	1	296.2	4.6
303.15	1	298.2	4.7
308.15	1	299.6	4.7
313.15	1	301.2	4.7
318.15	1	302.8	4.7
323.15	1	304.5	4.7
328.15	1	306.1	4.8
333.15	1	307.9	4.8
338.15	1	309.6	4.8
343.15	1	311.3	4.8
348.15	1	312.7	4.9
353.15	1	313.4	4.9

System: 4-morpholineethanol + water; phases: Liquid
Fixed: Pressure, kPa = 101
Property: Molar heat capacity at constant pressure, J/K/mol (Liquid); method: Small sample (50 mg) DSC
Temperature, K	Mole fraction of 4-morpholineethanol	Molar heat capacity at constant pressure, J/K/mol	uncertainty
298.15	0.0998	101	2.5
303.15	0.0998	102.4	2.5
308.15	0.0998	103.8	2.5
313.15	0.0998	105.4	2.5
318.15	0.0998	107.2	2.5
323.15	0.0998	109	2.5
328.15	0.0998	111.4	2.5
333.15	0.0998	114.2	2.6
338.15	0.0998	117.4	2.6
343.15	0.0998	121.1	2.6
348.15	0.0998	125.9	2.7
353.15	0.0998	131.9	2.7
298.15	0.1985	120.8	2.6
303.15	0.1985	123.6	2.7
308.15	0.1985	125.7	2.7
313.15	0.1985	127.9	2.7
318.15	0.1985	130.4	2.7
323.15	0.1985	133	2.7
328.15	0.1985	136	2.8
333.15	0.1985	139.3	2.8
338.15	0.1985	143.2	2.8
343.15	0.1985	147.7	2.9
348.15	0.1985	152.9	2.9
353.15	0.1985	159.5	3
298.15	0.2979	140.3	2.8
303.15	0.2979	142.6	2.8
308.15	0.2979	144.6	2.9
313.15	0.2979	146.7	2.9
318.15	0.2979	148.9	2.9
323.15	0.2979	152.3	2.9
328.15	0.2979	156.3	3
333.15	0.2979	160.3	3
338.15	0.2979	165	3.1
343.15	0.2979	170.6	3.1
348.15	0.2979	178.7	3.2
353.15	0.2979	187	3.3
298.15	0.3969	159.5	3
303.15	0.3969	162.4	3
308.15	0.3969	165	3.1
313.15	0.3969	167.8	3.1
318.15	0.3969	171	3.1
323.15	0.3969	174.4	3.2
328.15	0.3969	178.4	3.2
333.15	0.3969	183	3.3
338.15	0.3969	188.6	3.3
343.15	0.3969	194.6	3.4
348.15	0.3969	201.6	3.5
353.15	0.3969	209.9	3.6
298.15	0.4952	177.4	3.2
303.15	0.4952	180	3.2
308.15	0.4952	182.6	3.3
313.15	0.4952	185.5	3.3
318.15	0.4952	188.6	3.3
323.15	0.4952	191.8	3.4
328.15	0.4952	195.5	3.4
333.15	0.4952	199.7	3.5
338.15	0.4952	204.6	3.5
343.15	0.4952	209.9	3.6
348.15	0.4952	215.9	3.7
353.15	0.4952	222.5	3.7
298.15	0.6017	195.6	3.4
303.15	0.6017	198	3.4
308.15	0.6017	200.3	3.5
313.15	0.6017	203	3.5
318.15	0.6017	205.9	3.5
323.15	0.6017	208.7	3.6
328.15	0.6017	211.8	3.6
333.15	0.6017	215.6	3.6
338.15	0.6017	220.1	3.7
343.15	0.6017	225.4	3.8
348.15	0.6017	231	3.8
353.15	0.6017	236.4	3.9
298.15	0.7031	212.8	3.6
303.15	0.7031	214.7	3.6
308.15	0.7031	217.1	3.7
313.15	0.7031	219.7	3.7
318.15	0.7031	222.5	3.7
323.15	0.7031	225.5	3.8
328.15	0.7031	228.7	3.8
333.15	0.7031	232.5	3.8
338.15	0.7031	237	3.9
343.15	0.7031	241.6	4
348.15	0.7031	246.6	4
353.15	0.7031	252.2	4.1
298.15	0.7657	223.5	3.7
303.15	0.7657	226	3.8
308.15	0.7657	228.3	3.8
313.15	0.7657	230.8	3.8
318.15	0.7657	233.3	3.9
323.15	0.7657	235.8	3.9
328.15	0.7657	238.6	3.9
333.15	0.7657	242.5	4
338.15	0.7657	246.3	4
343.15	0.7657	250.3	4.1
348.15	0.7657	254.8	4.1
353.15	0.7657	259.4	4.2
298.15	0.8977	246.5	4
303.15	0.8977	248.4	4
308.15	0.8977	250.8	4.1
313.15	0.8977	253.1	4.1
318.15	0.8977	255	4.1
323.15	0.8977	257	4.1
328.15	0.8977	259.1	4.2
333.15	0.8977	261.7	4.2
338.15	0.8977	264.7	4.2
343.15	0.8977	267.9	4.3
348.15	0.8977	271.2	4.3
353.15	0.8977	274.8	4.4
298.15	1	263.9	4.2
303.15	1	265.3	4.3
308.15	1	267.1	4.3
313.15	1	269.2	4.3
318.15	1	270.8	4.3
323.15	1	272.6	4.3
328.15	1	274.3	4.4
333.15	1	276.2	4.4
338.15	1	278.7	4.4
343.15	1	281	4.4
348.15	1	283.2	4.5
353.15	1	284.9	4.5
