Measured thermophysical data. Isobaric Vapor-Liquid Equilibrium for Four Binary Systems of Ethane-1,2-diol, Butane-1,4-diol, 2-(2- Hydroxyethoxy)ethan-1-ol and 2-[2-(2- Hydroxyethoxy)ethoxy]ethanol at 10.0 kPa, 20.0 kPa and 40.0 kPa
Source: J. Chem. Eng. Data, 2014, 10.1021/je401020e
Compound 1: 1,2-ethanediol, C2H6O2, InChI=1S/C2H6O2/c3-1-2-4/h3-4H,1-2H2, purity 99.8%
Compound 2: 1,4-butanediol, C4H10O2, InChI=1S/C4H10O2/c5-3-1-2-4-6/h5-6H,1-4H2, purity 99%
Compound 3: diethylene glycol, C4H10O3, InChI=1S/C4H10O3/c5-1-3-7-4-2-6/h5-6H,1-4H2, purity 99%
Compound 4: triethylene glycol, C6H14O4, InChI=1S/C6H14O4/c7-1-3-9-5-6-10-4-2-8/h7-8H,1-6H2, purity 99%

System: 1,2-ethanediol; phases: Liquid
Property: Mass density, kg/m3 (Liquid); method: Vibrating tube method
Temperature, K	Pressure, kPa	Mass density, kg/m3	uncertainty
298.15	101.325	1107.92	0.09

System: 1,2-ethanediol; phases: Liquid
Property: Refractive index (Na D-line) (Liquid); method: Standard Abbe refractometry
Temperature, K	Pressure, kPa	Refractive index (Na D-line)	uncertainty
298.15	101.325	1.4312	0.0003

System: 1,2-ethanediol; phases: Liquid, Gas
Property: Vapor or sublimation pressure, kPa (Liquid); method: Closed cell (Static) method
Temperature, K	Vapor or sublimation pressure, kPa	uncertainty
406.07	10	0.73
423.18	20	0.99
441.92	40	1.62
405.97	10	0.735

System: 1,4-butanediol; phases: Liquid
Property: Mass density, kg/m3 (Liquid); method: Vibrating tube method
Temperature, K	Pressure, kPa	Mass density, kg/m3	uncertainty
298.15	101.325	1013.04	0.05

System: 1,4-butanediol; phases: Liquid
Property: Refractive index (Na D-line) (Liquid); method: Standard Abbe refractometry
Temperature, K	Pressure, kPa	Refractive index (Na D-line)	uncertainty
298.15	101.325	1.4449	0.0003

System: 1,4-butanediol; phases: Liquid, Gas
Property: Vapor or sublimation pressure, kPa (Liquid); method: Closed cell (Static) method
Temperature, K	Vapor or sublimation pressure, kPa	uncertainty
437.48	10	0.73
454.63	20	0.99
473.22	40	1.6

System: diethylene glycol; phases: Liquid
Property: Mass density, kg/m3 (Liquid); method: Vibrating tube method
Temperature, K	Pressure, kPa	Mass density, kg/m3	uncertainty
298.15	101.325	1112.56	0.12

System: diethylene glycol; phases: Liquid
Property: Refractive index (Na D-line) (Liquid); method: Standard Abbe refractometry
Temperature, K	Pressure, kPa	Refractive index (Na D-line)	uncertainty
298.15	101.325	1.4452	0.0003

System: diethylene glycol; phases: Liquid, Gas
Property: Vapor or sublimation pressure, kPa (Liquid); method: Closed cell (Static) method
Temperature, K	Vapor or sublimation pressure, kPa	uncertainty
445.47	10	0.805
464.36	20	1.1
485.33	40	1.82
445.07	10	0.82

System: triethylene glycol; phases: Liquid
Property: Mass density, kg/m3 (Liquid); method: Vibrating tube method
Temperature, K	Pressure, kPa	Mass density, kg/m3	uncertainty
298.15	101.325	1120.7	0.1

System: triethylene glycol; phases: Liquid
Property: Refractive index (Na D-line) (Liquid); method: Standard Abbe refractometry
Temperature, K	Pressure, kPa	Refractive index (Na D-line)	uncertainty
298.15	101.325	1.4457	0.0003

System: triethylene glycol; phases: Liquid, Gas
Property: Vapor or sublimation pressure, kPa (Liquid); method: Closed cell (Static) method
Temperature, K	Vapor or sublimation pressure, kPa	uncertainty
480.39	10	0.875
500.97	20	1.22
524.64	40	2.04

System: 1,2-ethanediol + 1,4-butanediol; phases: Liquid, Gas
Property: Boiling temperature at pressure P, K (Liquid); method: Closed cell (Static) method
Mole fraction of 1,2-ethanediol	Pressure, kPa	Boiling temperature at pressure P, K	uncertainty
0	10	437.48	1.46
0.092	10	431.71	1.67
0.157	10	428.31	1.72
0.263	10	423.53	1.73
0.369	10	419.84	1.72
0.452	10	417.33	1.7
0.561	10	414.54	1.64
0.641	10	412.76	1.58
0.723	10	411.06	1.58
0.811	10	409.36	1.53
0.902	10	407.72	1.5
1	10	406.07	1.46
0	20	454.63	0.99
0.082	20	450.97	1.12
0.185	20	446.63	1.11
0.251	20	444.18	1.1
0.352	20	440.39	1.1
0.449	20	437.29	1.08
0.525	20	434.77	1.12
0.583	20	433.13	1.02
0.689	20	430.16	1.07
0.757	20	428.47	1.03
0.814	20	427.18	1
0.918	20	424.99	1.01
1	20	423.18	0.99
0	40	473.22	0.8
0.117	40	468.42	0.91
0.211	40	464.73	0.91
0.307	40	461.36	0.91
0.402	40	457.93	0.9
0.513	40	454.32	0.89
0.599	40	451.68	0.88
0.685	40	449.37	0.87
0.812	40	446.28	0.86
0.878	40	444.71	0.85
0.95	40	443.07	0.84
1	40	441.92	0.81

System: 1,2-ethanediol + 1,4-butanediol; phases: Gas, Liquid
Property: Mole fraction of 1,2-ethanediol (Gas); method: Chromatography
Mole fraction of 1,2-ethanediol	Pressure, kPa	Mole fraction of 1,2-ethanediol	uncertainty
0	10	0	
0.092	10	0.298	0.035
0.157	10	0.443	0.027
0.263	10	0.605	0.024
0.369	10	0.706	0.022
0.452	10	0.774	0.021
0.561	10	0.836	0.021
0.641	10	0.875	0.021
0.723	10	0.908	0.02
0.811	10	0.94	0.02
0.902	10	0.971	0.02
1	10	1	
0	20	0	
0.082	20	0.209	0.03
0.185	20	0.413	0.027
0.251	20	0.513	0.024
0.352	20	0.638	0.023
0.449	20	0.728	0.022
0.525	20	0.791	0.022
0.583	20	0.832	0.021
0.689	20	0.893	0.021
0.757	20	0.921	0.02
0.814	20	0.946	0.02
0.918	20	0.978	0.02
1	20	1	
0	40	0	
0.117	40	0.27	0.03
0.211	40	0.433	0.026
0.307	40	0.564	0.024
0.402	40	0.668	0.022
0.513	40	0.761	0.022
0.599	40	0.824	0.021
0.685	40	0.875	0.021
0.812	40	0.934	0.02
0.878	40	0.959	0.02
0.95	40	0.981	0.019
1	40	1	

System: 1,2-ethanediol + diethylene glycol; phases: Liquid, Gas
Property: Boiling temperature at pressure P, K (Liquid); method: Closed cell (Static) method
Mole fraction of 1,2-ethanediol	Pressure, kPa	Boiling temperature at pressure P, K	uncertainty
0	10	445.47	1.61
0.074	10	439.74	1.73
0.136	10	435.72	1.71
0.171	10	433.73	1.68
0.244	10	429.94	1.68
0.304	10	426.86	1.61
0.403	10	422.74	1.57
0.527	10	418.16	1.55
0.631	10	414.94	1.53
0.752	10	411.63	1.5
0.851	10	409.29	1.51
0.905	10	408.07	1.49
1	10	405.97	1.47
0	20	464.36	1.1
0.079	20	458.15	1.23
0.159	20	453.16	1.11
0.336	20	443.86	1.08
0.448	20	439.08	1.01
0.531	20	436.03	1.01
0.627	20	432.78	1.04
0.685	20	430.97	0.94
0.743	20	429.38	1.02
0.822	20	427.47	1.03
0.908	20	425.35	1.01
1	20	423.18	0.99
0	40	485.33	0.91
0.077	40	477.92	1.23
0.155	40	471.93	1.07
0.232	40	467.09	0.98
0.324	40	462.31	0.92
0.402	40	458.84	0.88
0.509	40	454.82	0.86
0.616	40	451.48	0.85
0.688	40	449.37	0.85
0.763	40	447.53	0.84
0.845	40	445.52	0.84
0.936	40	443.47	0.84
1	40	441.92	0.81

System: 1,2-ethanediol + diethylene glycol; phases: Gas, Liquid
Property: Mole fraction of 1,2-ethanediol (Gas); method: Chromatography
Mole fraction of 1,2-ethanediol	Pressure, kPa	Mole fraction of 1,2-ethanediol	uncertainty
0	10	0	
0.074	10	0.261	0.037
0.136	10	0.414	0.031
0.171	10	0.486	0.027
0.244	10	0.602	0.025
0.304	10	0.678	0.023
0.403	10	0.773	0.022
0.527	10	0.851	0.021
0.631	10	0.902	0.02
0.752	10	0.947	0.02
0.851	10	0.971	0.02
0.905	10	0.987	0.013
1	10	1	
0	20	0	
0.079	20	0.263	0.034
0.159	20	0.442	0.026
0.336	20	0.695	0.024
0.448	20	0.793	0.021
0.531	20	0.845	0.021
0.627	20	0.892	0.021
0.685	20	0.915	0.02
0.743	20	0.937	0.02
0.822	20	0.96	0.02
0.908	20	0.984	0.016
1	20	1	
0	40	0	
0.077	40	0.273	0.035
0.155	40	0.449	0.028
0.232	40	0.572	0.024
0.324	40	0.679	0.023
0.402	40	0.746	0.021
0.509	40	0.818	0.021
0.616	40	0.872	0.021
0.688	40	0.903	0.02
0.763	40	0.932	0.02
0.845	40	0.956	0.02
0.936	40	0.986	0.014
1	40	1	

System: 1,4-butanediol + diethylene glycol; phases: Liquid, Gas
Property: Boiling temperature at pressure P, K (Liquid); method: Closed cell (Static) method
Mole fraction of 1,4-butanediol	Pressure, kPa	Boiling temperature at pressure P, K	uncertainty
0	10	445.07	1.64
0.092	10	444.24	1.62
0.178	10	443.55	1.61
0.284	10	442.68	1.6
0.325	10	442.34	1.59
0.378	10	441.9	1.58
0.446	10	441.4	1.57
0.527	10	440.81	1.55
0.589	10	440.34	1.54
0.694	10	439.62	1.52
0.796	10	438.92	1.49
0.906	10	438.15	1.47
1	10	437.48	1.46
0	20	464.36	1.11
0.118	20	463.09	1.07
0.192	20	462.35	1.04
0.258	20	461.65	1.09
0.313	20	461.14	1.04
0.373	20	460.52	1.02
0.441	20	459.86	1.02
0.514	20	459.08	1.05
0.575	20	458.48	1.01
0.689	20	457.44	0.99
0.81	20	456.32	0.98
0.915	20	455.38	0.97
1	20	454.63	0.99
0	40	485.33	0.91
0.067	40	484.17	0.89
0.14	40	483.06	0.89
0.201	40	482.15	0.87
0.283	40	481.08	0.86
0.364	40	480.05	0.85
0.456	40	478.92	0.84
0.552	40	477.84	0.83
0.649	40	476.77	0.82
0.736	40	475.84	0.82
0.827	40	474.87	0.82
0.915	40	474.04	0.81
1	40	473.22	0.8

System: 1,4-butanediol + diethylene glycol; phases: Gas, Liquid
Property: Mole fraction of 1,4-butanediol (Gas); method: Chromatography
Mole fraction of 1,4-butanediol	Pressure, kPa	Mole fraction of 1,4-butanediol	uncertainty
0	10	0	
0.092	10	0.134	0.024
0.178	10	0.234	0.023
0.284	10	0.358	0.023
0.325	10	0.404	0.023
0.378	10	0.462	0.023
0.446	10	0.531	0.023
0.527	10	0.609	0.022
0.589	10	0.668	0.022
0.694	10	0.762	0.022
0.796	10	0.85	0.022
0.906	10	0.937	0.021
1	10	1	
0	20	0	
0.118	20	0.158	0.024
0.192	20	0.251	0.024
0.258	20	0.33	0.023
0.313	20	0.392	0.023
0.373	20	0.458	0.023
0.441	20	0.53	0.023
0.514	20	0.605	0.023
0.575	20	0.664	0.022
0.689	20	0.767	0.022
0.81	20	0.869	0.022
0.915	20	0.946	0.021
1	20	1	
0	40	0	
0.067	40	0.107	0.025
0.14	40	0.206	0.024
0.201	40	0.284	0.023
0.283	40	0.378	0.023
0.364	40	0.468	0.023
0.456	40	0.56	0.023
0.552	40	0.652	0.022
0.649	40	0.734	0.022
0.736	40	0.804	0.022
0.827	40	0.875	0.021
0.915	40	0.938	0.021
1	40	1	

System: diethylene glycol + triethylene glycol; phases: Liquid, Gas
Property: Boiling temperature at pressure P, K (Liquid); method: Closed cell (Static) method
Mole fraction of diethylene glycol	Pressure, kPa	Boiling temperature at pressure P, K	uncertainty
0	10	480.39	1.75
0.097	10	474.78	1.71
0.187	10	470.05	1.69
0.259	10	466.82	1.68
0.342	10	463.47	1.64
0.421	10	460.57	1.62
0.485	10	458.34	1.61
0.572	10	455.58	1.61
0.676	10	452.58	1.61
0.787	10	449.75	1.63
0.858	10	448.14	1.63
0.913	10	446.97	1.62
1	10	445.47	1.61
0	20	500.97	1.22
0.128	20	492.27	1.29
0.219	20	487.72	1.2
0.314	20	483.37	1.24
0.387	20	480.35	1.23
0.462	20	477.65	1.16
0.558	20	474.67	1.14
0.642	20	472.23	1.13
0.74	20	469.72	1.15
0.822	20	467.88	1.09
0.894	20	466.28	1.11
1	20	464.36	1.1
0	40	524.64	1.02
0.13	40	515.35	1.22
0.222	40	510.24	1.11
0.316	40	505.77	1.08
0.407	40	501.93	1.05
0.465	40	499.73	1.03
0.529	40	497.46	1
0.624	40	494.43	0.99
0.684	40	492.71	0.97
0.751	40	490.98	0.96
0.832	40	489.12	0.96
0.921	40	486.95	0.95
1	40	485.33	0.91

System: diethylene glycol + triethylene glycol; phases: Gas, Liquid
Property: Mole fraction of diethylene glycol (Gas); method: Chromatography
Mole fraction of diethylene glycol	Pressure, kPa	Mole fraction of diethylene glycol	uncertainty
0	10	0	
0.097	10	0.269	0.049
0.187	10	0.451	0.038
0.259	10	0.56	0.029
0.342	10	0.661	0.024
0.421	10	0.735	0.02
0.485	10	0.787	0.017
0.572	10	0.842	0.015
0.676	10	0.892	0.013
0.787	10	0.932	0.012
0.858	10	0.955	0.012
0.913	10	0.973	0.012
1	10	1	
0	20	0	
0.128	20	0.341	0.047
0.219	20	0.493	0.031
0.314	20	0.617	0.027
0.387	20	0.696	0.022
0.462	20	0.756	0.018
0.558	20	0.821	0.016
0.642	20	0.866	0.014
0.74	20	0.908	0.013
0.822	20	0.939	0.012
0.894	20	0.964	0.012
1	20	1	
0	40	0	
0.13	40	0.328	0.045
0.222	40	0.482	0.031
0.316	40	0.602	0.025
0.407	40	0.694	0.021
0.465	40	0.74	0.019
0.529	40	0.788	0.017
0.624	40	0.848	0.015
0.684	40	0.875	0.014
0.751	40	0.908	0.013
0.832	40	0.94	0.013
0.921	40	0.972	0.012
1	40	1	
