Measured thermophysical data. Isobaric Vapor Liquid Equilibrium Data of Acrylonitrile (1) + Heptan-1-ol (2), Acrylonitrile (1) + Ethanol (2), and Nitrobenzene (1) + Heptan-1-ol (2) at 96.5 kPa
Source: J. Chem. Eng. Data, 2013, 10.1021/je400214b
Compound 1: acrylonitrile, C3H3N, InChI=1S/C3H3N/c1-2-3-4/h2H,1H2, purity 99.7%
Compound 2: ethanol, C2H6O, InChI=1S/C2H6O/c1-2-3/h3H,2H2,1H3, purity 99.8%
Compound 3: heptan-1-ol, C7H16O, InChI=1S/C7H16O/c1-2-3-4-5-6-7-8/h8H,2-7H2,1H3, purity 99.6%
Compound 4: nitrobenzene, C6H5NO2, InChI=1S/C6H5NO2/c8-7(9)6-4-2-1-3-5-6/h1-5H, purity 99.8%

System: acrylonitrile; phases: Liquid
Property: Mass density, kg/m3 (Liquid); method: Vibrating tube method
Temperature, K	Pressure, kPa	Mass density, kg/m3	uncertainty
293.15	101.325	806	0.2

System: acrylonitrile; phases: Liquid
Property: Refractive index (Na D-line) (Liquid); method: Standard Abbe refractometry
Temperature, K	Pressure, kPa	Refractive index (Na D-line)	uncertainty
293.15	101.325	1.3909	0.0007

System: acrylonitrile; phases: Liquid, Gas
Property: Vapor or sublimation pressure, kPa (Liquid); method: Ebulliometric method (Recirculating still)
Temperature, K	Vapor or sublimation pressure, kPa	uncertainty
350.15	96.5	9.7

System: ethanol; phases: Liquid
Property: Mass density, kg/m3 (Liquid); method: Vibrating tube method
Temperature, K	Pressure, kPa	Mass density, kg/m3	uncertainty
293.15	101.325	788.9	0.2

System: ethanol; phases: Liquid
Property: Refractive index (Na D-line) (Liquid); method: Standard Abbe refractometry
Temperature, K	Pressure, kPa	Refractive index (Na D-line)	uncertainty
293.15	101.325	1.361	0.0007

System: ethanol; phases: Liquid, Gas
Property: Vapor or sublimation pressure, kPa (Liquid); method: Ebulliometric method (Recirculating still)
Temperature, K	Vapor or sublimation pressure, kPa	uncertainty
351.15	96.5	9.7

System: heptan-1-ol; phases: Liquid
Property: Mass density, kg/m3 (Liquid); method: Vibrating tube method
Temperature, K	Pressure, kPa	Mass density, kg/m3	uncertainty
293.15	101.325	803.4	0.2

System: heptan-1-ol; phases: Liquid
Property: Refractive index (Na D-line) (Liquid); method: Standard Abbe refractometry
Temperature, K	Pressure, kPa	Refractive index (Na D-line)	uncertainty
293.15	101.325	1.3851	0.0007

System: heptan-1-ol; phases: Liquid, Gas
Property: Vapor or sublimation pressure, kPa (Liquid); method: Ebulliometric method (Recirculating still)
Temperature, K	Vapor or sublimation pressure, kPa	uncertainty
449.15	96.5	9.7

System: nitrobenzene; phases: Liquid
Property: Mass density, kg/m3 (Liquid); method: Vibrating tube method
Temperature, K	Pressure, kPa	Mass density, kg/m3	uncertainty
293.15	101.325	1198.8	0.2

System: nitrobenzene; phases: Liquid
Property: Refractive index (Na D-line) (Liquid); method: Standard Abbe refractometry
Temperature, K	Pressure, kPa	Refractive index (Na D-line)	uncertainty
293.15	101.325	1.5529	0.0007

System: nitrobenzene; phases: Liquid, Gas
Property: Vapor or sublimation pressure, kPa (Liquid); method: Ebulliometric method (Recirculating still)
Temperature, K	Vapor or sublimation pressure, kPa	uncertainty
483.15	96.5	9.7

System: acrylonitrile + heptan-1-ol; phases: Liquid, Gas
Fixed: Pressure, kPa = 96.5
Property: Boiling temperature at pressure P, K (Liquid); method: Ebulliometric method (Recirculating still)
Mole fraction of acrylonitrile	Boiling temperature at pressure P, K	uncertainty
0	449.15	2
0.1	422.15	3.09
0.18	407.15	2.53
0.301	390.65	2.37
0.361	384.65	2.22
0.4	381.15	2.17
0.457	376.65	2.14
0.505	373.15	2.12
0.564	369.15	2.1
0.603	367.15	2.07
0.672	363.65	2.07
0.714	361.15	2.06
0.766	359.15	2.04
0.923	353.15	2.04
0.966	351.65	2.04
1	350.15	2

System: acrylonitrile + heptan-1-ol; phases: Gas, Liquid
Fixed: Pressure, kPa = 96.5
Property: Mole fraction of acrylonitrile (Gas); method: Chromatography
Mole fraction of acrylonitrile	Mole fraction of acrylonitrile	uncertainty
0	0	
0.1	0.733	0.05
0.18	0.865	0.014
0.301	0.938	0.011
0.361	0.955	0.01
0.4	0.962	0.01
0.457	0.971	0.01
0.505	0.975	0.01
0.564	0.981	0.01
0.603	0.984	0.01
0.672	0.987	0.01
0.714	0.989	0.01
0.766	0.991	0.009
0.923	0.996	0.004
0.966	0.999	0.001
1	1	

System: ethanol + acrylonitrile; phases: Liquid, Gas
Fixed: Pressure, kPa = 96.5
Property: Boiling temperature at pressure P, K (Liquid); method: Ebulliometric method (Recirculating still)
Mole fraction of acrylonitrile	Boiling temperature at pressure P, K	uncertainty
0	351.15	2
0.052	349.15	2.03
0.129	347.15	2.01
0.187	346.15	2.01
0.229	345.15	2.01
0.283	344.65	2
0.301	344.65	2
0.356	344.15	2
0.419	344.15	2
0.481	343.65	2
0.526	343.65	2
0.564	343.65	2
0.624	343.65	2
0.661	344.15	2
0.7	344.15	2
0.753	344.65	2
0.811	345.15	2.01
0.875	346.15	2.01
0.932	347.65	2.02
0.967	348.65	2.04
1	350.15	2

System: ethanol + acrylonitrile; phases: Gas, Liquid
Fixed: Pressure, kPa = 96.5
Property: Mole fraction of acrylonitrile (Gas); method: Chromatography
Mole fraction of acrylonitrile	Mole fraction of acrylonitrile	uncertainty
0	0	
0.052	0.126	0.022
0.129	0.254	0.018
0.187	0.321	0.015
0.229	0.361	0.013
0.283	0.401	0.013
0.301	0.415	0.012
0.356	0.449	0.012
0.419	0.488	0.012
0.481	0.52	0.012
0.526	0.541	0.012
0.564	0.563	0.012
0.624	0.589	0.012
0.661	0.607	0.012
0.7	0.633	0.012
0.753	0.667	0.013
0.811	0.71	0.014
0.875	0.774	0.015
0.932	0.851	0.019
0.967	0.919	0.024
1	1	

System: nitrobenzene + heptan-1-ol; phases: Liquid, Gas
Fixed: Pressure, kPa = 96.5
Property: Boiling temperature at pressure P, K (Liquid); method: Ebulliometric method (Recirculating still)
Mole fraction of heptan-1-ol	Boiling temperature at pressure P, K	uncertainty
0	483.15	2
0.041	470.15	2.96
0.099	461.15	2.37
0.138	458.15	2.09
0.189	455.65	2.05
0.234	454.15	2.02
0.287	453.15	2.01
0.316	452.65	2.01
0.372	451.65	2.01
0.411	451.15	2
0.48	450.65	2
0.521	450.15	2.01
0.573	449.65	2.01
0.61	449.15	2
0.68	448.65	2
0.74	448.15	2
0.796	448.15	2
0.844	448.15	2
0.918	448.65	2
0.977	448.65	2
1	449.15	2

System: nitrobenzene + heptan-1-ol; phases: Gas, Liquid
Fixed: Pressure, kPa = 96.5
Property: Mole fraction of heptan-1-ol (Gas); method: Chromatography
Mole fraction of heptan-1-ol	Mole fraction of heptan-1-ol	uncertainty
0	0	
0.041	0.304	0.004
0.099	0.47	0.006
0.138	0.526	0.006
0.189	0.571	0.005
0.234	0.6	0.005
0.287	0.624	0.005
0.316	0.64	0.005
0.372	0.658	0.004
0.411	0.669	0.004
0.48	0.686	0.004
0.521	0.7	0.004
0.573	0.715	0.004
0.61	0.726	0.004
0.68	0.757	0.003
0.74	0.776	0.003
0.796	0.806	0.003
0.844	0.844	0.002
0.918	0.894	0.002
0.977	0.964	0.001
1	1	
