Measured thermophysical data. Liquid Liquid Phase Equilibria and Critical Phenomena of the Binary Mixture Nitrobenzene + n-Nonane
Source: J. Chem. Eng. Data, 2014, 10.1021/je401097f
Compound 1: nitrobenzene, C6H5NO2, InChI=1S/C6H5NO2/c8-7(9)6-4-2-1-3-5-6/h1-5H, purity 99%
Compound 2: nonane, C9H20, InChI=1S/C9H20/c1-3-5-7-9-8-6-4-2/h3-9H2,1-2H3, purity 99%

System: nitrobenzene; phases: Liquid
Fixed: Pressure, kPa = 100
Fixed: Wavelength, nm = 632.8
Property: Refractive index (other wavelength) (Liquid); method: Standard Abbe refractometry
Temperature, K	Refractive index (other wavelength)	uncertainty
288.974	1.5501	0.0004
289.624	1.5497	0.0004
290.505	1.5493	0.0004
301.664	1.5439	0.0004
302.719	1.5433	0.0004
303.85	1.5428	0.0004
291.448	1.5488	0.0004
292.364	1.5484	0.0004
293.381	1.5479	0.0004
304.976	1.5423	0.0004
306.084	1.5418	0.0004
307.202	1.5412	0.0004
294.402	1.5474	0.0004
295.501	1.5469	0.0004
308.254	1.5407	0.0004
309.343	1.5402	0.0004

System: nonane; phases: Liquid
Fixed: Pressure, kPa = 100
Fixed: Wavelength, nm = 632.8
Property: Refractive index (other wavelength) (Liquid); method: Standard Abbe refractometry
Temperature, K	Refractive index (other wavelength)	uncertainty
290.885	1.4053	0.0004
291.939	1.4048	0.0004
292.727	1.4044	0.0004
293.554	1.404	0.0004
294.5	1.4036	0.0004
295.507	1.4031	0.0004
296.475	1.4026	0.0004
297.421	1.4022	0.0004

System: nitrobenzene + nonane; phases: Liquid
Fixed: Temperature, K = 296.36
Fixed: Pressure, kPa = 100
Fixed: Wavelength, nm = 632.8
Property: Refractive index (other wavelength) (Liquid); method: Standard Abbe refractometry
Mole fraction of nitrobenzene	Refractive index (other wavelength)	uncertainty
0	1.4029	0.0004
0.153	1.4162	0.0004
0.2	1.4207	0.0005
0.275	1.4284	0.0005
0.379	1.4401	0.0005
0.541	1.4612	0.0005
0.594	1.4691	0.0005
0.688	1.4838	0.0005
0.799	1.5035	0.0006
0.896	1.5231	0.0006
1	1.5467	0.0004

System: nitrobenzene + nonane; phases: Liquid mixture 1, Liquid mixture 2
Fixed: Pressure, kPa = 101
Fixed: Wavelength, nm = 632.8
Property: Refractive index (other wavelength) (Liquid mixture 1); method: Standard Abbe refractometry
Temperature, K	Refractive index (other wavelength)	uncertainty
294.162	1.4593	0.0031
294.159	1.459	0.003
294.156	1.4585	0.0028
294.152	1.4581	0.0026
294.147	1.4577	0.0021
294.14	1.4573	0.002
294.131	1.4568	0.0018
294.119	1.4563	0.0016
294.101	1.4555	0.0019
294.075	1.4548	0.0015
294.045	1.454	0.0011
294.01	1.4534	0.001
293.973	1.4529	0.0008
293.926	1.452	0.0008
293.868	1.4514	0.0007
293.803	1.4506	0.0007
293.732	1.4499	0.0006
293.639	1.4491	0.0006
293.531	1.4482	0.0005
293.369	1.4472	0.0005
293.178	1.4461	0.0005
292.94	1.445	0.0005
292.636	1.4437	0.0004
292.169	1.4421	0.0004
291.548	1.4405	0.0004
290.842	1.439	0.0004
290.018	1.4376	0.0004
288.987	1.4361	0.0004
287.993	1.4349	0.0004
286.926	1.4339	0.0004
285.871	1.433	0.0004
284.695	1.4322	0.0004

System: nitrobenzene + nonane; phases: Liquid mixture 2, Liquid mixture 1
Fixed: Pressure, kPa = 101
Fixed: Wavelength, nm = 632.8
Property: Refractive index (other wavelength) (Liquid mixture 2); method: Standard Abbe refractometry
Temperature, K	Refractive index (other wavelength)	uncertainty
294.162	1.4662	0.0034
294.159	1.4666	0.0032
294.156	1.4671	0.0029
294.152	1.4675	0.0028
294.147	1.4679	0.0023
294.14	1.4684	0.0021
294.131	1.4689	0.002
294.119	1.4694	0.0017
294.101	1.4703	0.0021
294.075	1.4711	0.0015
294.045	1.4719	0.0012
294.01	1.4725	0.0011
293.973	1.4731	0.0009
293.926	1.474	0.0009
293.868	1.4747	0.0008
293.803	1.4756	0.0008
293.732	1.4765	0.0007
293.639	1.4774	0.0007
293.531	1.4786	0.0006
293.369	1.4797	0.0005
293.178	1.4811	0.0005
292.94	1.4826	0.0005
292.636	1.4843	0.0005
292.169	1.4866	0.0005
291.548	1.4891	0.0004
290.842	1.4916	0.0004
290.018	1.4942	0.0004
288.987	1.4971	0.0004
287.993	1.4996	0.0004
286.926	1.5022	0.0004
285.871	1.5044	0.0004
284.695	1.5066	0.0004

System: nitrobenzene + nonane; phases: Liquid mixture 1, Liquid mixture 2
Fixed: Pressure, kPa = 101
Property: Mole fraction of nitrobenzene (Liquid mixture 1); method: Index of refraction calibration data
Temperature, K	Mole fraction of nitrobenzene	uncertainty
294.162	0.52	0.024
294.159	0.518	0.023
294.156	0.514	0.02
294.152	0.511	0.019
294.147	0.508	0.018
294.14	0.505	0.017
294.131	0.501	0.016
294.119	0.498	0.019
294.101	0.492	0.016
294.075	0.486	0.015
294.045	0.48	0.013
294.01	0.475	0.013
293.973	0.472	0.013
293.926	0.465	0.012
293.868	0.46	0.012
293.803	0.453	0.012
293.732	0.448	0.012
293.639	0.441	0.012
293.531	0.433	0.011
293.369	0.425	0.011
293.178	0.415	0.011
292.94	0.405	0.011
292.636	0.394	0.01
292.169	0.378	0.01
291.548	0.362	0.01
290.842	0.347	0.01
290.018	0.331	0.009
288.987	0.313	0.009
287.993	0.298	0.009
286.926	0.284	0.009
285.871	0.271	0.008
284.695	0.258	0.008

System: nitrobenzene + nonane; phases: Liquid mixture 2, Liquid mixture 1
Fixed: Pressure, kPa = 101
Property: Mole fraction of nitrobenzene (Liquid mixture 2); method: Index of refraction calibration data
Temperature, K	Mole fraction of nitrobenzene	uncertainty
294.162	0.568	0.023
294.159	0.571	0.022
294.156	0.574	0.019
294.152	0.577	0.018
294.147	0.58	0.018
294.14	0.583	0.015
294.131	0.586	0.015
294.119	0.59	0.018
294.101	0.596	0.015
294.075	0.601	0.013
294.045	0.606	0.012
294.01	0.61	0.011
293.973	0.614	0.011
293.926	0.62	0.011
293.868	0.624	0.01
293.803	0.629	0.01
293.732	0.635	0.01
293.639	0.64	0.01
293.531	0.648	0.01
293.369	0.654	0.01
293.178	0.662	0.009
292.94	0.671	0.009
292.636	0.68	0.009
292.169	0.693	0.009
291.548	0.706	0.009
290.842	0.718	0.009
290.018	0.731	0.008
288.987	0.745	0.008
287.993	0.756	0.008
286.926	0.767	0.008
285.871	0.776	0.008
284.695	0.785	0.008
