Measured thermophysical data. Isothermal Vapor Liquid Equilibrium Data and Modeling for the Ethane (R170) + Perfluoropropane (R218) System at Temperatures from (264 to 308) K
Source: J. Chem. Eng. Data, 2013, 10.1021/je4000857
Compound 1: ethane, C2H6, InChI=1S/C2H6/c1-2/h1-2H3, purity 99%
Compound 2: octafluoropropane, C3F8, InChI=1S/C3F8/c4-1(5,2(6,7)8)3(9,10)11, purity 99.97%

System: ethane; phases: Liquid, Gas
Property: Vapor or sublimation pressure, kPa (Liquid); method: CCELL:UFactor:6
Temperature, K	Vapor or sublimation pressure, kPa	uncertainty
264.05	1862	36
271.05	2275	43
278.05	2700	51
303.04	4600	87

System: octafluoropropane; phases: Liquid, Gas
Property: Vapor or sublimation pressure, kPa (Liquid); method: CCELL:UFactor:6
Temperature, K	Vapor or sublimation pressure, kPa	uncertainty
253.3	194	3
258.11	238	3
263.23	287	3
264.05	297	4
268.17	343	4
271.05	383	4
278.05	483	5
282.74	553	6
292.81	743	7
308.04	1124	11
312.78	1256	12
322.96	1604	16
264.05	298	4
303.04	995	10

System: ethane + octafluoropropane; phases: Liquid, Gas
Property: Vapor or sublimation pressure, kPa (Liquid); method: CCELL:UFactor:6
Mole fraction of ethane	Temperature, K	Vapor or sublimation pressure, kPa	uncertainty
0	264.05	298	6
0.064	264.05	473	14
0.158	264.05	713	24
0.25	264.05	938	24
0.356	264.05	1117	25
0.443	264.05	1266	28
0.541	264.05	1402	30
0.659	264.05	1550	31
0.781	264.05	1693	33
1	264.05	1862	36
0	271.05	383	7
0.055	271.05	569	42
0.141	271.05	791	26
0.246	271.05	1069	28
0.331	271.05	1256	31
0.437	271.05	1461	33
0.569	271.05	1693	36
0.866	271.05	2112	41
1	271.05	2275	43
0	278.05	483	9
0.086	278.05	772	20
0.138	278.05	930	25
0.238	278.05	1231	33
0.319	278.05	1451	37
0.418	278.05	1675	40
0.519	278.05	1865	43
0.622	278.05	2068	48
0.766	278.05	2331	46
0.866	278.05	2498	48
1	278.05	2700	51
0	303.04	995	19
0.143	303.04	1656	36
0.221	303.04	1981	45
0.29	303.04	2255	53
0.371	303.04	2556	56
0.484	303.04	2973	67
0.578	303.04	3295	71
0.687	303.04	3690	74
0.836	303.04	4149	80
0.877	303.04	4334	87
0.92	303.04	4467	85
1	303.04	4600	87
0	308.04	1124	21
0.081	308.04	1534	35
0.153	308.04	1858	39
0.235	308.04	2221	54
0.331	308.04	2630	59
0.431	308.04	3028	70
0.524	308.04	3416	75
0.599	308.04	3685	78

System: ethane + octafluoropropane; phases: Gas, Liquid
Property: Mole fraction of ethane (Gas); method: Chromatography
Mole fraction of ethane	Temperature, K	Mole fraction of ethane	uncertainty
0	264.05	0	
0.064	264.05	0.386	0.017
0.158	264.05	0.599	0.019
0.25	264.05	0.721	0.011
0.356	264.05	0.775	0.009
0.443	264.05	0.814	0.011
0.541	264.05	0.842	0.007
0.659	264.05	0.873	0.007
0.781	264.05	0.901	0.005
1	264.05	1	
0	271.05	0	
0.055	271.05	0.35	0.052
0.141	271.05	0.537	0.017
0.246	271.05	0.662	0.012
0.331	271.05	0.72	0.01
0.437	271.05	0.77	0.008
0.569	271.05	0.824	0.008
0.866	271.05	0.928	0.003
1	271.05	1	
0	278.05	0	
0.086	278.05	0.389	0.017
0.138	278.05	0.499	0.014
0.238	278.05	0.623	0.012
0.319	278.05	0.689	0.012
0.418	278.05	0.738	0.012
0.519	278.05	0.784	0.008
0.622	278.05	0.825	0.009
0.766	278.05	0.878	0.005
0.866	278.05	0.921	0.005
1	278.05	1	
0	303.04	0	
0.143	303.04	0.367	0.013
0.221	303.04	0.494	0.013
0.29	303.04	0.556	0.013
0.371	303.04	0.615	0.012
0.484	303.04	0.675	0.01
0.578	303.04	0.719	0.01
0.687	303.04	0.77	0.008
0.836	303.04	0.841	0.009
0.877	303.04	0.883	0.009
0.92	303.04	0.924	0.006
1	303.04	1	
0	308.04	0	
0.081	308.04	0.23	0.012
0.153	308.04	0.356	0.01
0.235	308.04	0.457	0.015
0.331	308.04	0.547	0.013
0.431	308.04	0.619	0.012
0.524	308.04	0.662	0.01
0.599	308.04	0.694	0.01
