Measured thermophysical data. Synthesis, Characterization, and Thermophysical Properties of 1,8-Diazobicyclo[5.4.0]undec-7-ene Based Thiocyanate Ionic Liquids
Source: J. Chem. Eng. Data, 2014, 10.1021/je400991s
Compound 1: 1-hexyl-2,3,4,6,7,8,9,10-octahydropyrimido[1,2-a]azepinium thiocyanate, C16H29N3S, InChI=1S/C15H29N2.CHNS/c1-2-3-4-7-11-16-13-9-14-17-12-8-5-6-10-15(16)17;2-1-3/h2-14H2,1H3;3H/q+1;/p-1
Compound 2: 1-octyl-2,3,4,6,7,8,9,10-octahydropyrimido[1,2-a]azepinium thiocyanate, C18H33N3S, InChI=1S/C17H33N2.CHNS/c1-2-3-4-5-6-9-13-18-15-11-16-19-14-10-7-8-12-17(18)19;2-1-3/h2-16H2,1H3;3H/q+1;/p-1
Compound 3: 1-decyl-2,3,4,6,7,8,9,10-octahydropyrimido[1,2-a]azepinium thiocyanate, C20H37N3S, InChI=1S/C19H37N2.CHNS/c1-2-3-4-5-6-7-8-11-15-20-17-13-18-21-16-12-9-10-14-19(20)21;2-1-3/h2-18H2,1H3;3H/q+1;/p-1
Compound 4: 1-ethyl-2,3,4,6,7,8,9,10-octahydropyrimido[1,2-a]azepinium bromide, C11H21BrN2, InChI=1S/C11H21N2.BrH/c1-2-12-9-6-10-13-8-5-3-4-7-11(12)13;/h2-10H2,1H3;1H/q+1;/p-1
Compound 5: 1-butyl-2,3,4,6,7,8,9,10-octahydropyrimido[1,2-a]azepinium bromide, C13H25BrN2, InChI=1S/C13H25N2.BrH/c1-2-3-9-14-11-7-12-15-10-6-4-5-8-13(14)15;/h2-12H2,1H3;1H/q+1;/p-1
Compound 6: 1-hexyl-2,3,4,6,7,8,9,10-octahydropyrimido[1,2-a]azepinium chloride, C15H29ClN2, InChI=1S/C15H29N2.ClH/c1-2-3-4-7-11-16-13-9-14-17-12-8-5-6-10-15(16)17;/h2-14H2,1H3;1H/q+1;/p-1
Compound 7: 1-octyl-2,3,4,6,7,8,9,10-octahydropyrimido[1,2-a]azepinium chloride, C17H33ClN2, InChI=1S/C17H33N2.ClH/c1-2-3-4-5-6-9-13-18-15-11-16-19-14-10-7-8-12-17(18)19;/h2-16H2,1H3;1H/q+1;/p-1
Compound 8: 1-ethyl-2,3,4,6,7,8,9,10-octahydropyrimido[1,2-a]azepinium thiocyanate, C12H21N3S, InChI=1S/C11H21N2.CHNS/c1-2-12-9-6-10-13-8-5-3-4-7-11(12)13;2-1-3/h2-10H2,1H3;3H/q+1;/p-1
Compound 9: 1-butyl-2,3,4,6,7,8,9,10-octahydropyrimido[1,2-a]azepinium thiocyanate, C14H25N3S, InChI=1S/C13H25N2.CHNS/c1-2-3-9-14-11-7-12-15-10-6-4-5-8-13(14)15;2-1-3/h2-12H2,1H3;3H/q+1;/p-1
Compound 10: 1-tetradecyl-2,3,4,6,7,8,9,10-octahydropyrimido[1,2-a]azepinium thiocyanate, C24H45N3S, InChI=1S/C23H45N2.CHNS/c1-2-3-4-5-6-7-8-9-10-11-12-15-19-24-21-17-22-25-20-16-13-14-18-23(24)25;2-1-3/h2-22H2,1H3;3H/q+1;/p-1

System: 1-hexyl-2,3,4,6,7,8,9,10-octahydropyrimido[1,2-a]azepinium thiocyanate; phases: Liquid
Fixed: Pressure, kPa = 101.325
Property: Viscosity, Pa*s (Liquid); method: CONCYL:UFactor:4
Temperature, K	Viscosity, Pa*s	uncertainty
293.15	4.1988	1.0025
303.15	1.5043	0.2763
313.15	0.63521	0.08732
323.15	0.30606	0.03013
333.15	0.16415	0.01071
343.15	0.096185	0.003565
353.15	0.060575	0.000927
363.15	0.040353	0.000672
373.15	0.028295	0.000475

System: 1-hexyl-2,3,4,6,7,8,9,10-octahydropyrimido[1,2-a]azepinium thiocyanate; phases: Liquid
Fixed: Pressure, kPa = 101.325
Property: Mass density, kg/m3 (Liquid); method: VIBTUB:UFactor:32
Temperature, K	Mass density, kg/m3	uncertainty
293.15	1061.8	2.7
303.15	1056.4	2.6
313.15	1050.9	2.5
323.15	1045.1	2.5
333.15	1039.5	2.4
343.15	1033.8	2.3
353.15	1028.4	2.2
363.15	1022.9	2.1
373.15	1017.4	2.1

System: 1-hexyl-2,3,4,6,7,8,9,10-octahydropyrimido[1,2-a]azepinium thiocyanate; phases: Liquid, Air at 1 atmosphere
Property: Surface tension liquid-gas, N/m (Liquid); method: Pendant drop shape
Temperature, K	Surface tension liquid-gas, N/m	uncertainty
293.15	0.03798	0.00053
303.15	0.03737	0.00052
313.15	0.0372	0.00052
323.15	0.03682	0.00052
333.15	0.03603	0.00051
343.15	0.03594	0.00051
353.15	0.03559	0.0005

System: 1-octyl-2,3,4,6,7,8,9,10-octahydropyrimido[1,2-a]azepinium thiocyanate; phases: Liquid
Fixed: Pressure, kPa = 101.325
Property: Viscosity, Pa*s (Liquid); method: CONCYL:UFactor:4
Temperature, K	Viscosity, Pa*s	uncertainty
293.15	1.956	0.3868
303.15	0.80671	0.12122
313.15	0.37933	0.04169
323.15	0.19869	0.01498
333.15	0.11414	0.00525
343.15	0.07068	0.001517
353.15	0.04657	0.000775
363.15	0.032245	0.000539
373.15	0.023311	0.000393

System: 1-octyl-2,3,4,6,7,8,9,10-octahydropyrimido[1,2-a]azepinium thiocyanate; phases: Liquid
Fixed: Pressure, kPa = 101.325
Property: Mass density, kg/m3 (Liquid); method: VIBTUB:UFactor:32
Temperature, K	Mass density, kg/m3	uncertainty
293.15	1028.8	2.2
303.15	1023	2.1
313.15	1017.2	2
323.15	1011.6	2
333.15	1005.3	1.9
343.15	1000.5	1.8
353.15	995.3	1.9
363.15	989.7	1.9
373.15	984.3	2

System: 1-octyl-2,3,4,6,7,8,9,10-octahydropyrimido[1,2-a]azepinium thiocyanate; phases: Liquid, Air at 1 atmosphere
Property: Surface tension liquid-gas, N/m (Liquid); method: Pendant drop shape
Temperature, K	Surface tension liquid-gas, N/m	uncertainty
293.15	0.03185	0.00045
303.15	0.03119	0.00045
313.15	0.03064	0.00044
323.15	0.02988	0.00043
333.15	0.02944	0.00042
343.15	0.02918	0.00042
353.15	0.02886	0.00042

System: 1-decyl-2,3,4,6,7,8,9,10-octahydropyrimido[1,2-a]azepinium thiocyanate; phases: Liquid
Fixed: Pressure, kPa = 101.325
Property: Viscosity, Pa*s (Liquid); method: CONCYL:UFactor:4
Temperature, K	Viscosity, Pa*s	uncertainty
293.15	2.604	0.5549
303.15	1.0593	0.1746
313.15	0.49058	0.06066
323.15	0.25363	0.02242
333.15	0.14366	0.00836
343.15	0.087778	0.002837
353.15	0.057259	0.000785
363.15	0.039312	0.000655
373.15	0.027999	0.00047

System: 1-decyl-2,3,4,6,7,8,9,10-octahydropyrimido[1,2-a]azepinium thiocyanate; phases: Liquid
Fixed: Pressure, kPa = 101.325
Property: Mass density, kg/m3 (Liquid); method: VIBTUB:UFactor:32
Temperature, K	Mass density, kg/m3	uncertainty
293.15	1013.6	2
303.15	1008.2	1.9
313.15	1002.6	1.8
323.15	997.3	1.8
333.15	992.1	1.9
343.15	986.9	1.9
353.15	981.8	2
363.15	976.5	2.1
373.15	971.1	2.1

System: 1-decyl-2,3,4,6,7,8,9,10-octahydropyrimido[1,2-a]azepinium thiocyanate; phases: Liquid, Air at 1 atmosphere
Property: Surface tension liquid-gas, N/m (Liquid); method: Pendant drop shape
Temperature, K	Surface tension liquid-gas, N/m	uncertainty
293.15	0.03294	0.00047
303.15	0.03268	0.00046
313.15	0.03241	0.00046
323.15	0.03214	0.00046
333.15	0.03187	0.00045
343.15	0.03159	0.00045
353.15	0.03132	0.00045

System: 1-ethyl-2,3,4,6,7,8,9,10-octahydropyrimido[1,2-a]azepinium bromide; phases: Crystal, Liquid, Air at 1 atmosphere
Property: Normal melting temperature, K (Crystal); method: DTA
Normal melting temperature, K	uncertainty
378.15	2

System: 1-butyl-2,3,4,6,7,8,9,10-octahydropyrimido[1,2-a]azepinium bromide; phases: Crystal, Liquid, Air at 1 atmosphere
Property: Normal melting temperature, K (Crystal); method: DTA
Normal melting temperature, K	uncertainty
355.15	2

System: 1-hexyl-2,3,4,6,7,8,9,10-octahydropyrimido[1,2-a]azepinium chloride; phases: Crystal, Liquid, Air at 1 atmosphere
Property: Normal melting temperature, K (Crystal); method: DTA
Normal melting temperature, K	uncertainty
317.15	2

System: 1-octyl-2,3,4,6,7,8,9,10-octahydropyrimido[1,2-a]azepinium chloride; phases: Crystal, Liquid, Air at 1 atmosphere
Property: Normal melting temperature, K (Crystal); method: DTA
Normal melting temperature, K	uncertainty
303.15	2

System: 1-ethyl-2,3,4,6,7,8,9,10-octahydropyrimido[1,2-a]azepinium thiocyanate; phases: Crystal, Liquid, Air at 1 atmosphere
Property: Normal melting temperature, K (Crystal); method: DTA
Normal melting temperature, K	uncertainty
313.15	2

System: 1-butyl-2,3,4,6,7,8,9,10-octahydropyrimido[1,2-a]azepinium thiocyanate; phases: Crystal, Liquid, Air at 1 atmosphere
Property: Normal melting temperature, K (Crystal); method: DTA
Normal melting temperature, K	uncertainty
323.15	2

System: 1-tetradecyl-2,3,4,6,7,8,9,10-octahydropyrimido[1,2-a]azepinium thiocyanate; phases: Crystal, Liquid, Air at 1 atmosphere
Property: Normal melting temperature, K (Crystal); method: DTA
Normal melting temperature, K	uncertainty
321.15	2
