Measured thermophysical data. Viscosities of Glycine, l-Alanine, and l-Valine in (0.2, 0.4, 0.6, and 0.8) mol*kg 1 Aqueous Trisodium Citrate Solutions at Different Temperatures
Source: J. Chem. Eng. Data, 2014, 10.1021/je400894j
Compound 1: 2-aminoacetic acid, C2H5NO2, InChI=1S/C2H5NO2/c3-1-2(4)5/h1,3H2,(H,4,5), purity 99%
Compound 2: trisodium citrate, C6H5Na3O7, InChI=1S/C6H8O7.3Na/c7-3(8)1-6(13,5(11)12)2-4(9)10;;;/h13H,1-2H2,(H,7,8)(H,9,10)(H,11,12);;;/q;3*+1/p-3, purity 99%
Compound 3: water, H2O, InChI=1S/H2O/h1H2
Compound 4: (S)-2-aminopropanoic acid, C3H7NO2, InChI=1S/C3H7NO2/c1-2(4)3(5)6/h2H,4H2,1H3,(H,5,6)/t2-/m0/s1, purity 99%
Compound 5: L-valine, C5H11NO2, InChI=1S/C5H11NO2/c1-3(2)4(6)5(7)8/h3-4H,6H2,1-2H3,(H,7,8)/t4-/m0/s1, purity 99%

System: 2-aminoacetic acid + trisodium citrate + water; phases: Liquid
Fixed: Pressure, kPa = 101
Property: Viscosity, Pa*s (Liquid); method: Falling or rolling sphere viscometry
Temperature, K	Molality, mol/kg of 2-aminoacetic acid	Solvent: Molality, mol/kg of trisodium citrate	Viscosity, Pa*s	uncertainty
288.15	0	0	0.001119	3.1e-05
288.15	0.01207	0	0.001123	3.1e-05
288.15	0.0523	0	0.001133	3.1e-05
288.15	0.10374	0	0.001152	3.1e-05
288.15	0.20373	0	0.001168	3.1e-05
288.15	0.30678	0	0.001172	3.1e-05
288.15	0.41239	0	0.001177	3.1e-05
288.15	0.50277	0	0.001201	3.1e-05
288.15	0.60576	0	0.001229	3.2e-05
288.15	0.68289	0	0.001241	3.2e-05
288.15	0.82001	0	0.00125	3.2e-05
298.15	0	0	0.000883	3.1e-05
298.15	0.01207	0	0.000894	3.1e-05
298.15	0.0523	0	0.000911	3.1e-05
298.15	0.10374	0	0.000928	3.1e-05
298.15	0.20373	0	0.000932	3.1e-05
298.15	0.30678	0	0.000932	3.1e-05
298.15	0.41239	0	0.000951	3.1e-05
298.15	0.50277	0	0.000975	3.1e-05
298.15	0.60576	0	0.000976	3.1e-05
298.15	0.68289	0	0.000985	3.1e-05
298.15	0.82001	0	0.000986	3.1e-05
308.15	0	0	0.000722	3.1e-05
308.15	0.01207	0	0.000729	3.1e-05
308.15	0.0523	0	0.00073	3.1e-05
308.15	0.10374	0	0.00074	3.1e-05
308.15	0.20373	0	0.000761	3.1e-05
308.15	0.30678	0	0.000766	3.1e-05
308.15	0.41239	0	0.000777	3.1e-05
308.15	0.50277	0	0.000804	3.1e-05
308.15	0.60576	0	0.000806	3.1e-05
308.15	0.68289	0	0.000806	3.1e-05
308.15	0.82001	0	0.000809	3.1e-05
318.15	0	0	0.000611	3e-05
318.15	0.01207	0	0.000616	3e-05
318.15	0.0523	0	0.000618	3e-05
318.15	0.10374	0	0.000632	3e-05
318.15	0.20373	0	0.00064	3e-05
318.15	0.30678	0	0.000642	3e-05
318.15	0.41239	0	0.000658	3e-05
318.15	0.50277	0	0.000673	3e-05
318.15	0.60576	0	0.000676	3e-05
318.15	0.68289	0	0.000676	3e-05
318.15	0.82001	0	0.000682	3e-05
288.15	0	0.2	0.001343	3.2e-05
288.15	0.01954	0.2	0.00137	3.2e-05
288.15	0.05491	0.2	0.001372	3.2e-05
288.15	0.09665	0.2	0.001374	3.2e-05
288.15	0.20869	0.2	0.001389	3.2e-05
288.15	0.3083	0.2	0.001404	3.2e-05
288.15	0.40064	0.2	0.001421	3.2e-05
288.15	0.50838	0.2	0.001456	3.2e-05
288.15	0.59657	0.2	0.001467	3.2e-05
288.15	0.69776	0.2	0.001493	3.2e-05
288.15	0.80295	0.2	0.001502	3.2e-05
298.15	0	0.2	0.001056	3.1e-05
298.15	0.01954	0.2	0.001079	3.1e-05
298.15	0.05491	0.2	0.001079	3.1e-05
298.15	0.09665	0.2	0.001082	3.1e-05
298.15	0.20869	0.2	0.001096	3.1e-05
298.15	0.3083	0.2	0.001106	3.1e-05
298.15	0.40064	0.2	0.001121	3.1e-05
298.15	0.50838	0.2	0.001147	3.1e-05
298.15	0.59657	0.2	0.001157	3.1e-05
298.15	0.69776	0.2	0.001175	3.1e-05
298.15	0.80295	0.2	0.001197	3.1e-05
308.15	0	0.2	0.000858	3.1e-05
308.15	0.01954	0.2	0.000876	3.1e-05
308.15	0.05491	0.2	0.00088	3.1e-05
308.15	0.09665	0.2	0.000883	3.1e-05
308.15	0.20869	0.2	0.000887	3.1e-05
308.15	0.3083	0.2	0.000911	3.1e-05
308.15	0.40064	0.2	0.000921	3.1e-05
308.15	0.50838	0.2	0.000932	3.1e-05
308.15	0.59657	0.2	0.000942	3.1e-05
308.15	0.69776	0.2	0.000955	3.1e-05
308.15	0.80295	0.2	0.000966	3.1e-05
318.15	0	0.2	0.000719	3.1e-05
318.15	0.01954	0.2	0.000733	3.1e-05
318.15	0.05491	0.2	0.000735	3.1e-05
318.15	0.09665	0.2	0.000739	3.1e-05
318.15	0.20869	0.2	0.00075	3.1e-05
318.15	0.3083	0.2	0.000752	3.1e-05
318.15	0.40064	0.2	0.000765	3.1e-05
318.15	0.50838	0.2	0.000778	3.1e-05
318.15	0.59657	0.2	0.000789	3.1e-05
318.15	0.69776	0.2	0.000822	3.1e-05
318.15	0.80295	0.2	0.000839	3.1e-05
288.15	0	0.4	0.001661	3.3e-05
288.15	0.01087	0.4	0.001663	3.3e-05
288.15	0.04829	0.4	0.001669	3.3e-05
288.15	0.1058	0.4	0.001675	3.3e-05
288.15	0.19845	0.4	0.001715	3.3e-05
288.15	0.29836	0.4	0.001743	3.3e-05
288.15	0.41666	0.4	0.001782	3.3e-05
288.15	0.49305	0.4	0.001793	3.3e-05
288.15	0.60292	0.4	0.00184	3.3e-05
288.15	0.71664	0.4	0.001872	3.3e-05
288.15	0.79774	0.4	0.001882	3.4e-05
298.15	0	0.4	0.001296	3.2e-05
298.15	0.01087	0.4	0.001296	3.2e-05
298.15	0.04829	0.4	0.0013	3.2e-05
298.15	0.1058	0.4	0.001308	3.2e-05
298.15	0.19845	0.4	0.001335	3.2e-05
298.15	0.29836	0.4	0.00136	3.2e-05
298.15	0.41666	0.4	0.00139	3.2e-05
298.15	0.49305	0.4	0.001398	3.2e-05
298.15	0.60292	0.4	0.001434	3.2e-05
298.15	0.71664	0.4	0.001461	3.2e-05
298.15	0.79774	0.4	0.001483	3.2e-05
308.15	0	0.4	0.001047	3.1e-05
308.15	0.01087	0.4	0.001047	3.1e-05
308.15	0.04829	0.4	0.001047	3.1e-05
308.15	0.1058	0.4	0.001048	3.1e-05
308.15	0.19845	0.4	0.001058	3.1e-05
308.15	0.29836	0.4	0.001071	3.1e-05
308.15	0.41666	0.4	0.001098	3.1e-05
308.15	0.49305	0.4	0.001128	3.1e-05
308.15	0.60292	0.4	0.001156	3.1e-05
308.15	0.71664	0.4	0.001178	3.1e-05
308.15	0.79774	0.4	0.001205	3.1e-05
318.15	0	0.4	0.000868	3.1e-05
318.15	0.01087	0.4	0.000872	3.1e-05
318.15	0.04829	0.4	0.000877	3.1e-05
318.15	0.1058	0.4	0.000879	3.1e-05
318.15	0.19845	0.4	0.00088	3.1e-05
318.15	0.29836	0.4	0.000912	3.1e-05
318.15	0.41666	0.4	0.000929	3.1e-05
318.15	0.49305	0.4	0.000956	3.1e-05
318.15	0.60292	0.4	0.000959	3.1e-05
318.15	0.71664	0.4	0.000978	3.1e-05
318.15	0.79774	0.4	0.00099	3.1e-05
288.15	0	0.6	0.002072	3.4e-05
288.15	0.01403	0.6	0.002117	3.4e-05
288.15	0.05256	0.6	0.002127	3.4e-05
288.15	0.09928	0.6	0.002144	3.4e-05
288.15	0.20412	0.6	0.002155	3.5e-05
288.15	0.3023	0.6	0.002175	3.5e-05
288.15	0.39812	0.6	0.00222	3.5e-05
288.15	0.49961	0.6	0.002255	3.5e-05
288.15	0.58908	0.6	0.002308	3.5e-05
288.15	0.69413	0.6	0.002339	3.5e-05
288.15	0.78825	0.6	0.002366	3.5e-05
288.15	0.86392	0.6	0.002399	3.6e-05
298.15	0	0.6	0.001592	3.3e-05
298.15	0.01403	0.6	0.001627	3.3e-05
298.15	0.05256	0.6	0.001633	3.3e-05
298.15	0.09928	0.6	0.001655	3.3e-05
298.15	0.20412	0.6	0.001662	3.3e-05
298.15	0.3023	0.6	0.001671	3.3e-05
298.15	0.39812	0.6	0.001711	3.3e-05
298.15	0.49961	0.6	0.001739	3.3e-05
298.15	0.58908	0.6	0.001787	3.3e-05
298.15	0.69413	0.6	0.001803	3.3e-05
298.15	0.78825	0.6	0.001836	3.3e-05
298.15	0.86392	0.6	0.001861	3.3e-05
308.15	0	0.6	0.001277	3.2e-05
308.15	0.01403	0.6	0.0013	3.2e-05
308.15	0.05256	0.6	0.001309	3.2e-05
308.15	0.09928	0.6	0.001324	3.2e-05
308.15	0.20412	0.6	0.001331	3.2e-05
308.15	0.3023	0.6	0.001336	3.2e-05
308.15	0.39812	0.6	0.001367	3.2e-05
308.15	0.49961	0.6	0.001389	3.2e-05
308.15	0.58908	0.6	0.001424	3.2e-05
308.15	0.69413	0.6	0.001442	3.2e-05
308.15	0.78825	0.6	0.001463	3.2e-05
308.15	0.86392	0.6	0.001482	3.2e-05
318.15	0	0.6	0.001049	3.1e-05
318.15	0.01403	0.6	0.001065	3.1e-05
318.15	0.05256	0.6	0.001078	3.1e-05
318.15	0.09928	0.6	0.001089	3.1e-05
318.15	0.20412	0.6	0.001092	3.1e-05
318.15	0.3023	0.6	0.001099	3.1e-05
318.15	0.39812	0.6	0.001123	3.1e-05
318.15	0.49961	0.6	0.001142	3.1e-05
318.15	0.58908	0.6	0.001164	3.1e-05
318.15	0.69413	0.6	0.001184	3.1e-05
318.15	0.78825	0.6	0.001198	3.1e-05
318.15	0.86392	0.6	0.001213	3.2e-05
288.15	0	0.8	0.002633	3.7e-05
288.15	0.01133	0.8	0.00266	3.7e-05
288.15	0.05094	0.8	0.002667	3.7e-05
288.15	0.10775	0.8	0.002689	3.7e-05
288.15	0.2044	0.8	0.002735	3.7e-05
288.15	0.30559	0.8	0.002788	3.7e-05
288.15	0.40682	0.8	0.002869	3.8e-05
288.15	0.46139	0.8	0.002898	3.8e-05
288.15	0.59657	0.8	0.002956	3.8e-05
288.15	0.69469	0.8	0.003007	3.8e-05
288.15	0.79205	0.8	0.003067	3.9e-05
298.15	0	0.8	0.002002	3.4e-05
298.15	0.01133	0.8	0.002023	3.4e-05
298.15	0.05094	0.8	0.002027	3.4e-05
298.15	0.10775	0.8	0.002048	3.4e-05
298.15	0.2044	0.8	0.00208	3.4e-05
298.15	0.30559	0.8	0.002121	3.4e-05
298.15	0.40682	0.8	0.002177	3.5e-05
298.15	0.46139	0.8	0.002199	3.5e-05
298.15	0.59657	0.8	0.002242	3.5e-05
298.15	0.69469	0.8	0.002279	3.5e-05
298.15	0.79205	0.8	0.002322	3.5e-05
308.15	0	0.8	0.001581	3.3e-05
308.15	0.01133	0.8	0.001597	3.3e-05
308.15	0.05094	0.8	0.001603	3.3e-05
308.15	0.10775	0.8	0.001621	3.3e-05
308.15	0.2044	0.8	0.001643	3.3e-05
308.15	0.30559	0.8	0.001675	3.3e-05
308.15	0.40682	0.8	0.001714	3.3e-05
308.15	0.46139	0.8	0.001734	3.3e-05
308.15	0.59657	0.8	0.001764	3.3e-05
308.15	0.69469	0.8	0.001794	3.3e-05
308.15	0.79205	0.8	0.001826	3.3e-05
318.15	0	0.8	0.001287	3.2e-05
318.15	0.01133	0.8	0.001294	3.2e-05
318.15	0.05094	0.8	0.001305	3.2e-05
318.15	0.10775	0.8	0.001323	3.2e-05
318.15	0.2044	0.8	0.001338	3.2e-05
318.15	0.30559	0.8	0.001363	3.2e-05
318.15	0.40682	0.8	0.001389	3.2e-05
318.15	0.46139	0.8	0.001409	3.2e-05
318.15	0.59657	0.8	0.001429	3.2e-05
318.15	0.69469	0.8	0.001451	3.2e-05
318.15	0.79205	0.8	0.001478	3.2e-05

System: (S)-2-aminopropanoic acid + trisodium citrate + water; phases: Liquid
Fixed: Pressure, kPa = 101
Property: Viscosity, Pa*s (Liquid); method: Falling or rolling sphere viscometry
Temperature, K	Molality, mol/kg of (S)-2-aminopropanoic acid	Solvent: Molality, mol/kg of trisodium citrate	Viscosity, Pa*s	uncertainty
288.15	0	0	0.001119	3.1e-05
288.15	0.00939	0	0.001189	3.1e-05
288.15	0.04689	0	0.001198	3.1e-05
288.15	0.09896	0	0.001218	3.2e-05
288.15	0.20034	0	0.001242	3.2e-05
288.15	0.29792	0	0.001255	3.2e-05
288.15	0.39972	0	0.001264	3.2e-05
288.15	0.49412	0	0.001288	3.2e-05
288.15	0.60987	0	0.001324	3.2e-05
288.15	0.69727	0	0.001342	3.2e-05
288.15	0.79784	0	0.001351	3.2e-05
298.15	0	0	0.000883	3.1e-05
298.15	0.00939	0	0.000949	3.1e-05
298.15	0.04689	0	0.000957	3.1e-05
298.15	0.09896	0	0.000968	3.1e-05
298.15	0.20034	0	0.000976	3.1e-05
298.15	0.29792	0	0.000987	3.1e-05
298.15	0.39972	0	0.001	3.1e-05
298.15	0.49412	0	0.001001	3.1e-05
298.15	0.60987	0	0.001039	3.1e-05
298.15	0.69727	0	0.001046	3.1e-05
298.15	0.79784	0	0.001055	3.1e-05
308.15	0	0	0.000722	3.1e-05
308.15	0.00939	0	0.000757	3.1e-05
308.15	0.04689	0	0.000768	3.1e-05
308.15	0.09896	0	0.000776	3.1e-05
308.15	0.20034	0	0.000799	3.1e-05
308.15	0.29792	0	0.000804	3.1e-05
308.15	0.39972	0	0.000813	3.1e-05
308.15	0.49412	0	0.00082	3.1e-05
308.15	0.60987	0	0.000837	3.1e-05
308.15	0.69727	0	0.000843	3.1e-05
308.15	0.79784	0	0.000861	3.1e-05
318.15	0	0	0.000611	3e-05
318.15	0.00939	0	0.000635	3e-05
318.15	0.04689	0	0.000645	3e-05
318.15	0.09896	0	0.000659	3e-05
318.15	0.20034	0	0.000673	3e-05
318.15	0.29792	0	0.000675	3e-05
318.15	0.39972	0	0.000677	3e-05
318.15	0.49412	0	0.000699	3.1e-05
318.15	0.60987	0	0.000701	3.1e-05
318.15	0.69727	0	0.000715	3.1e-05
318.15	0.79784	0	0.000735	3.1e-05
288.15	0	0.2	0.001343	3.2e-05
288.15	0.01095	0.2	0.001391	3.2e-05
288.15	0.04907	0.2	0.001409	3.2e-05
288.15	0.10134	0.2	0.001426	3.2e-05
288.15	0.20243	0.2	0.001465	3.2e-05
288.15	0.29922	0.2	0.001485	3.2e-05
288.15	0.39624	0.2	0.001512	3.2e-05
288.15	0.48854	0.2	0.001561	3.2e-05
288.15	0.59241	0.2	0.001602	3.3e-05
288.15	0.70653	0.2	0.001661	3.3e-05
288.15	0.79536	0.2	0.001693	3.3e-05
298.15	0	0.2	0.001056	3.1e-05
298.15	0.01095	0.2	0.001105	3.1e-05
298.15	0.04907	0.2	0.00112	3.1e-05
298.15	0.10134	0.2	0.001135	3.1e-05
298.15	0.20243	0.2	0.001154	3.1e-05
298.15	0.29922	0.2	0.001176	3.1e-05
298.15	0.39624	0.2	0.00119	3.1e-05
298.15	0.48854	0.2	0.001219	3.2e-05
298.15	0.59241	0.2	0.00125	3.2e-05
298.15	0.70653	0.2	0.001292	3.2e-05
298.15	0.79536	0.2	0.001319	3.2e-05
308.15	0	0.2	0.000858	3.1e-05
308.15	0.01095	0.2	0.00088	3.1e-05
308.15	0.04907	0.2	0.000888	3.1e-05
308.15	0.10134	0.2	0.000906	3.1e-05
308.15	0.20243	0.2	0.000937	3.1e-05
308.15	0.29922	0.2	0.000958	3.1e-05
308.15	0.39624	0.2	0.000971	3.1e-05
308.15	0.48854	0.2	0.000984	3.1e-05
308.15	0.59241	0.2	0.00102	3.1e-05
308.15	0.70653	0.2	0.001041	3.1e-05
308.15	0.79536	0.2	0.001068	3.1e-05
318.15	0	0.2	0.000719	3.1e-05
318.15	0.01095	0.2	0.000735	3.1e-05
318.15	0.04907	0.2	0.000739	3.1e-05
318.15	0.10134	0.2	0.000746	3.1e-05
318.15	0.20243	0.2	0.00075	3.1e-05
318.15	0.29922	0.2	0.000781	3.1e-05
318.15	0.39624	0.2	0.000798	3.1e-05
318.15	0.48854	0.2	0.000816	3.1e-05
318.15	0.59241	0.2	0.000822	3.1e-05
318.15	0.70653	0.2	0.000838	3.1e-05
318.15	0.79536	0.2	0.00087	3.1e-05
288.15	0	0.4	0.001661	3.3e-05
288.15	0.01027	0.4	0.00167	3.3e-05
288.15	0.05007	0.4	0.0017	3.3e-05
288.15	0.10029	0.4	0.001714	3.3e-05
288.15	0.20084	0.4	0.001772	3.3e-05
288.15	0.30259	0.4	0.00182	3.3e-05
288.15	0.39825	0.4	0.001893	3.4e-05
288.15	0.51024	0.4	0.001941	3.4e-05
288.15	0.59764	0.4	0.001992	3.4e-05
288.15	0.70069	0.4	0.002054	3.4e-05
288.15	0.80668	0.4	0.002123	3.4e-05
298.15	0	0.4	0.001296	3.2e-05
298.15	0.01027	0.4	0.001297	3.2e-05
298.15	0.05007	0.4	0.001327	3.2e-05
298.15	0.10029	0.4	0.00134	3.2e-05
298.15	0.20084	0.4	0.001376	3.2e-05
298.15	0.30259	0.4	0.001412	3.2e-05
298.15	0.39825	0.4	0.001469	3.2e-05
298.15	0.51024	0.4	0.001501	3.2e-05
298.15	0.59764	0.4	0.001555	3.2e-05
298.15	0.70069	0.4	0.001585	3.3e-05
298.15	0.80668	0.4	0.001631	3.3e-05
308.15	0	0.4	0.001047	3.1e-05
308.15	0.01027	0.4	0.001047	3.1e-05
308.15	0.05007	0.4	0.001068	3.1e-05
308.15	0.10029	0.4	0.00108	3.1e-05
308.15	0.20084	0.4	0.001106	3.1e-05
308.15	0.30259	0.4	0.001137	3.1e-05
308.15	0.39825	0.4	0.001176	3.1e-05
308.15	0.51024	0.4	0.001204	3.1e-05
308.15	0.59764	0.4	0.001229	3.2e-05
308.15	0.70069	0.4	0.001267	3.2e-05
308.15	0.80668	0.4	0.001298	3.2e-05
318.15	0	0.4	0.000868	3.1e-05
318.15	0.01027	0.4	0.000879	3.1e-05
318.15	0.05007	0.4	0.000896	3.1e-05
318.15	0.10029	0.4	0.000903	3.1e-05
318.15	0.20084	0.4	0.000918	3.1e-05
318.15	0.30259	0.4	0.00094	3.1e-05
318.15	0.39825	0.4	0.000966	3.1e-05
318.15	0.51024	0.4	0.001005	3.1e-05
318.15	0.59764	0.4	0.001019	3.1e-05
318.15	0.70069	0.4	0.001044	3.1e-05
318.15	0.80668	0.4	0.001062	3.1e-05
288.15	0	0.6	0.002072	3.4e-05
288.15	0.01	0.6	0.00208	3.4e-05
288.15	0.05102	0.6	0.002096	3.4e-05
288.15	0.09796	0.6	0.002142	3.4e-05
288.15	0.20125	0.6	0.002204	3.5e-05
288.15	0.29538	0.6	0.002283	3.5e-05
288.15	0.40326	0.6	0.002362	3.5e-05
288.15	0.48309	0.6	0.002419	3.6e-05
288.15	0.59335	0.6	0.002504	3.6e-05
288.15	0.70955	0.6	0.002546	3.6e-05
288.15	0.79773	0.6	0.002575	3.6e-05
298.15	0	0.6	0.001592	3.3e-05
298.15	0.01	0.6	0.00162	3.3e-05
298.15	0.05102	0.6	0.001635	3.3e-05
298.15	0.09796	0.6	0.001649	3.3e-05
298.15	0.20125	0.6	0.001693	3.3e-05
298.15	0.29538	0.6	0.001751	3.3e-05
298.15	0.40326	0.6	0.001804	3.3e-05
298.15	0.48309	0.6	0.001848	3.3e-05
298.15	0.59335	0.6	0.001918	3.4e-05
298.15	0.70955	0.6	0.001966	3.4e-05
298.15	0.79773	0.6	0.001999	3.4e-05
308.15	0	0.6	0.001277	3.2e-05
308.15	0.01	0.6	0.001281	3.2e-05
308.15	0.05102	0.6	0.001308	3.2e-05
308.15	0.09796	0.6	0.001316	3.2e-05
308.15	0.20125	0.6	0.001349	3.2e-05
308.15	0.29538	0.6	0.001394	3.2e-05
308.15	0.40326	0.6	0.00143	3.2e-05
308.15	0.48309	0.6	0.001463	3.2e-05
308.15	0.59335	0.6	0.001531	3.2e-05
308.15	0.70955	0.6	0.001549	3.2e-05
308.15	0.79773	0.6	0.001596	3.3e-05
318.15	0	0.6	0.001049	3.1e-05
318.15	0.01	0.6	0.001055	3.1e-05
318.15	0.05102	0.6	0.00106	3.1e-05
318.15	0.09796	0.6	0.001079	3.1e-05
318.15	0.20125	0.6	0.001107	3.1e-05
318.15	0.29538	0.6	0.001141	3.1e-05
318.15	0.40326	0.6	0.001167	3.1e-05
318.15	0.48309	0.6	0.001192	3.1e-05
318.15	0.59335	0.6	0.001228	3.2e-05
318.15	0.70955	0.6	0.001247	3.2e-05
318.15	0.79773	0.6	0.001296	3.2e-05
288.15	0	0.8	0.002633	3.7e-05
288.15	0.01206	0.8	0.002661	3.7e-05
288.15	0.05011	0.8	0.002681	3.7e-05
288.15	0.1074	0.8	0.002735	3.7e-05
288.15	0.20719	0.8	0.002822	3.7e-05
288.15	0.29908	0.8	0.002907	3.8e-05
288.15	0.40011	0.8	0.003009	3.8e-05
288.15	0.50861	0.8	0.003167	3.9e-05
288.15	0.59248	0.8	0.003222	3.9e-05
288.15	0.69231	0.8	0.003338	4e-05
288.15	0.8388	0.8	0.003502	4.1e-05
298.15	0	0.8	0.002002	3.4e-05
298.15	0.01206	0.8	0.002029	3.4e-05
298.15	0.05011	0.8	0.002038	3.4e-05
298.15	0.1074	0.8	0.002075	3.4e-05
298.15	0.20719	0.8	0.002135	3.4e-05
298.15	0.29908	0.8	0.002194	3.5e-05
298.15	0.40011	0.8	0.002268	3.5e-05
298.15	0.50861	0.8	0.002378	3.5e-05
298.15	0.59248	0.8	0.002416	3.6e-05
298.15	0.69231	0.8	0.002496	3.6e-05
298.15	0.8388	0.8	0.002613	3.6e-05
308.15	0	0.8	0.001581	3.3e-05
308.15	0.01206	0.8	0.001599	3.3e-05
308.15	0.05011	0.8	0.00161	3.3e-05
308.15	0.1074	0.8	0.001633	3.3e-05
308.15	0.20719	0.8	0.00168	3.3e-05
308.15	0.29908	0.8	0.001723	3.3e-05
308.15	0.40011	0.8	0.001779	3.3e-05
308.15	0.50861	0.8	0.001856	3.3e-05
308.15	0.59248	0.8	0.001883	3.4e-05
308.15	0.69231	0.8	0.001951	3.4e-05
308.15	0.8388	0.8	0.00203	3.4e-05
318.15	0	0.8	0.001287	3.2e-05
318.15	0.01206	0.8	0.001298	3.2e-05
318.15	0.05011	0.8	0.001311	3.2e-05
318.15	0.1074	0.8	0.001324	3.2e-05
318.15	0.20719	0.8	0.001363	3.2e-05
318.15	0.29908	0.8	0.001397	3.2e-05
318.15	0.40011	0.8	0.00144	3.2e-05
318.15	0.50861	0.8	0.001494	3.2e-05
318.15	0.59248	0.8	0.001515	3.2e-05
318.15	0.69231	0.8	0.001573	3.3e-05
318.15	0.8388	0.8	0.001634	3.3e-05

System: trisodium citrate + L-valine + water; phases: Liquid
Fixed: Pressure, kPa = 101
Property: Viscosity, Pa*s (Liquid); method: Falling or rolling sphere viscometry
Temperature, K	Molality, mol/kg of L-valine	Solvent: Molality, mol/kg of trisodium citrate	Viscosity, Pa*s	uncertainty
288.15	0	0	0.001119	3.1e-05
288.15	0.00555	0	0.001172	3.1e-05
288.15	0.02398	0	0.001188	3.1e-05
288.15	0.03504	0	0.001194	3.1e-05
288.15	0.05824	0	0.001204	3.1e-05
288.15	0.07873	0	0.001214	3.2e-05
288.15	0.09938	0	0.001231	3.2e-05
288.15	0.20678	0	0.00129	3.2e-05
288.15	0.29923	0	0.001335	3.2e-05
288.15	0.40172	0	0.001362	3.2e-05
298.15	0	0	0.000883	3.1e-05
298.15	0.00555	0	0.000919	3.1e-05
298.15	0.02398	0	0.000922	3.1e-05
298.15	0.03504	0	0.000934	3.1e-05
298.15	0.05824	0	0.000949	3.1e-05
298.15	0.07873	0	0.00096	3.1e-05
298.15	0.09938	0	0.000969	3.1e-05
298.15	0.20678	0	0.000997	3.1e-05
298.15	0.29923	0	0.001027	3.1e-05
298.15	0.40172	0	0.00105	3.1e-05
308.15	0	0	0.000722	3.1e-05
308.15	0.00555	0	0.000789	3.1e-05
308.15	0.02398	0	0.000798	3.1e-05
308.15	0.03504	0	0.000805	3.1e-05
308.15	0.05824	0	0.000815	3.1e-05
308.15	0.07873	0	0.000825	3.1e-05
308.15	0.09938	0	0.000839	3.1e-05
308.15	0.20678	0	0.000875	3.1e-05
308.15	0.29923	0	0.0009	3.1e-05
308.15	0.40172	0	0.000921	3.1e-05
318.15	0	0	0.000611	3e-05
318.15	0.00555	0	0.000682	3e-05
318.15	0.02398	0	0.000699	3.1e-05
318.15	0.03504	0	0.000701	3.1e-05
318.15	0.05824	0	0.000713	3.1e-05
318.15	0.07873	0	0.000731	3.1e-05
318.15	0.09938	0	0.000742	3.1e-05
318.15	0.20678	0	0.000774	3.1e-05
318.15	0.29923	0	0.0008	3.1e-05
318.15	0.40172	0	0.000811	3.1e-05
288.15	0	0.2	0.001343	3.2e-05
288.15	0.00219	0.2	0.001347	3.2e-05
288.15	0.00492	0.2	0.001357	3.2e-05
288.15	0.00982	0.2	0.001369	3.2e-05
288.15	0.03003	0.2	0.001374	3.2e-05
288.15	0.05839	0.2	0.001395	3.2e-05
288.15	0.07898	0.2	0.001406	3.2e-05
288.15	0.09797	0.2	0.001427	3.2e-05
288.15	0.1996	0.2	0.001489	3.2e-05
288.15	0.29588	0.2	0.001563	3.2e-05
288.15	0.39873	0.2	0.00164	3.3e-05
298.15	0	0.2	0.001056	3.1e-05
298.15	0.00219	0.2	0.001059	3.1e-05
298.15	0.00492	0.2	0.001068	3.1e-05
298.15	0.00982	0.2	0.001075	3.1e-05
298.15	0.03003	0.2	0.001079	3.1e-05
298.15	0.05839	0.2	0.001094	3.1e-05
298.15	0.07898	0.2	0.001103	3.1e-05
298.15	0.09797	0.2	0.001118	3.1e-05
298.15	0.1996	0.2	0.001162	3.1e-05
298.15	0.29588	0.2	0.001215	3.2e-05
298.15	0.39873	0.2	0.00127	3.2e-05
308.15	0	0.2	0.000858	3.1e-05
308.15	0.00219	0.2	0.000861	3.1e-05
308.15	0.00492	0.2	0.000874	3.1e-05
308.15	0.00982	0.2	0.000878	3.1e-05
308.15	0.03003	0.2	0.000881	3.1e-05
308.15	0.05839	0.2	0.000888	3.1e-05
308.15	0.07898	0.2	0.000896	3.1e-05
308.15	0.09797	0.2	0.000906	3.1e-05
308.15	0.1996	0.2	0.000939	3.1e-05
308.15	0.29588	0.2	0.000977	3.1e-05
308.15	0.39873	0.2	0.001035	3.1e-05
318.15	0	0.2	0.000719	3.1e-05
318.15	0.00219	0.2	0.000728	3.1e-05
318.15	0.00492	0.2	0.00073	3.1e-05
318.15	0.00982	0.2	0.000731	3.1e-05
318.15	0.03003	0.2	0.000734	3.1e-05
318.15	0.05839	0.2	0.000741	3.1e-05
318.15	0.07898	0.2	0.00075	3.1e-05
318.15	0.09797	0.2	0.000762	3.1e-05
318.15	0.1996	0.2	0.000781	3.1e-05
318.15	0.29588	0.2	0.000818	3.1e-05
318.15	0.39873	0.2	0.000842	3.1e-05
288.15	0	0.4	0.001661	3.5e-05
288.15	0.0031	0.4	0.001663	3.3e-05
288.15	0.00676	0.4	0.00167	3.3e-05
288.15	0.00993	0.4	0.001672	3.3e-05
288.15	0.03119	0.4	0.001685	3.3e-05
288.15	0.06018	0.4	0.001717	3.3e-05
288.15	0.07509	0.4	0.001724	3.3e-05
288.15	0.09961	0.4	0.001751	3.3e-05
288.15	0.20333	0.4	0.001839	3.3e-05
288.15	0.28514	0.4	0.00193	3.4e-05
288.15	0.31777	0.4	0.001957	3.4e-05
288.15	0.35139	0.4	0.002009	3.4e-05
298.15	0	0.4	0.001296	3.2e-05
298.15	0.0031	0.4	0.001297	3.2e-05
298.15	0.00676	0.4	0.001301	3.2e-05
298.15	0.00993	0.4	0.001303	3.2e-05
298.15	0.03119	0.4	0.001312	3.2e-05
298.15	0.06018	0.4	0.001335	3.2e-05
298.15	0.07509	0.4	0.001342	3.2e-05
298.15	0.09961	0.4	0.00136	3.2e-05
298.15	0.20333	0.4	0.001422	3.2e-05
298.15	0.28514	0.4	0.001487	3.2e-05
298.15	0.31777	0.4	0.001506	3.2e-05
298.15	0.35139	0.4	0.001547	3.2e-05
308.15	0	0.4	0.001047	3.1e-05
308.15	0.0031	0.4	0.001052	3.1e-05
308.15	0.00676	0.4	0.001058	3.1e-05
308.15	0.00993	0.4	0.001061	3.1e-05
308.15	0.03119	0.4	0.001077	3.1e-05
308.15	0.06018	0.4	0.001084	3.1e-05
308.15	0.07509	0.4	0.001098	3.1e-05
308.15	0.09961	0.4	0.001109	3.1e-05
308.15	0.20333	0.4	0.001149	3.1e-05
308.15	0.28514	0.4	0.001185	3.1e-05
308.15	0.31777	0.4	0.001203	3.1e-05
308.15	0.35139	0.4	0.001237	3.2e-05
318.15	0	0.4	0.000868	3.1e-05
318.15	0.0031	0.4	0.000869	3.1e-05
318.15	0.00676	0.4	0.00087	3.1e-05
318.15	0.00993	0.4	0.000879	3.1e-05
318.15	0.03119	0.4	0.000885	3.1e-05
318.15	0.06018	0.4	0.000888	3.1e-05
318.15	0.07509	0.4	0.000895	3.1e-05
318.15	0.09961	0.4	0.000902	3.1e-05
318.15	0.20333	0.4	0.000939	3.1e-05
318.15	0.28514	0.4	0.000971	3.1e-05
318.15	0.31777	0.4	0.00099	3.1e-05
318.15	0.35139	0.4	0.001017	3.1e-05
288.15	0	0.6	0.002072	3.5e-05
288.15	0.00236	0.6	0.002076	3.4e-05
288.15	0.00543	0.6	0.002077	3.4e-05
288.15	0.01005	0.6	0.002081	3.4e-05
288.15	0.03017	0.6	0.002098	3.4e-05
288.15	0.05981	0.6	0.002132	3.4e-05
288.15	0.07695	0.6	0.002165	3.5e-05
288.15	0.10096	0.6	0.002189	3.5e-05
288.15	0.20016	0.6	0.002304	3.5e-05
288.15	0.2516	0.6	0.002379	3.5e-05
288.15	0.30713	0.6	0.002451	3.6e-05
298.15	0	0.6	0.001592	3.3e-05
298.15	0.00236	0.6	0.0016	3.3e-05
298.15	0.00543	0.6	0.001603	3.3e-05
298.15	0.01005	0.6	0.00161	3.3e-05
298.15	0.03017	0.6	0.001625	3.3e-05
298.15	0.05981	0.6	0.001636	3.3e-05
298.15	0.07695	0.6	0.001664	3.3e-05
298.15	0.10096	0.6	0.00169	3.3e-05
298.15	0.20016	0.6	0.00176	3.3e-05
298.15	0.2516	0.6	0.001813	3.3e-05
298.15	0.30713	0.6	0.001863	3.3e-05
308.15	0	0.6	0.001277	3.2e-05
308.15	0.00236	0.6	0.00129	3.2e-05
308.15	0.00543	0.6	0.001293	3.2e-05
308.15	0.01005	0.6	0.001299	3.2e-05
308.15	0.03017	0.6	0.001317	3.2e-05
308.15	0.05981	0.6	0.001344	3.2e-05
308.15	0.07695	0.6	0.001359	3.2e-05
308.15	0.10096	0.6	0.001397	3.2e-05
308.15	0.20016	0.6	0.001437	3.2e-05
308.15	0.2516	0.6	0.001468	3.2e-05
308.15	0.30713	0.6	0.001495	3.2e-05
318.15	0	0.6	0.001049	3.1e-05
318.15	0.00236	0.6	0.00105	3.1e-05
318.15	0.00543	0.6	0.001053	3.1e-05
318.15	0.01005	0.6	0.00106	3.1e-05
318.15	0.03017	0.6	0.001064	3.1e-05
318.15	0.05981	0.6	0.001065	3.1e-05
318.15	0.07695	0.6	0.001085	3.1e-05
318.15	0.10096	0.6	0.001096	3.1e-05
318.15	0.20016	0.6	0.001141	3.1e-05
318.15	0.2516	0.6	0.001173	3.1e-05
318.15	0.30713	0.6	0.001192	3.1e-05
288.15	0	0.8	0.002633	3.7e-05
288.15	0.00285	0.8	0.00265	3.7e-05
288.15	0.00523	0.8	0.002654	3.7e-05
288.15	0.01375	0.8	0.002669	3.7e-05
288.15	0.02871	0.8	0.002684	3.7e-05
288.15	0.06205	0.8	0.002764	3.7e-05
288.15	0.07723	0.8	0.002789	3.7e-05
288.15	0.09908	0.8	0.002817	3.7e-05
288.15	0.14972	0.8	0.00287	3.8e-05
288.15	0.19869	0.8	0.002977	3.8e-05
288.15	0.234	0.8	0.003062	3.9e-05
298.15	0	0.8	0.002002	3.4e-05
298.15	0.00285	0.8	0.002015	3.4e-05
298.15	0.00523	0.8	0.002017	3.4e-05
298.15	0.01375	0.8	0.002029	3.4e-05
298.15	0.02871	0.8	0.002037	3.4e-05
298.15	0.06205	0.8	0.002094	3.4e-05
298.15	0.07723	0.8	0.002112	3.4e-05
298.15	0.09908	0.8	0.002132	3.4e-05
298.15	0.14972	0.8	0.00217	3.5e-05
298.15	0.19869	0.8	0.002239	3.5e-05
298.15	0.234	0.8	0.002298	3.5e-05
308.15	0	0.8	0.001581	3.3e-05
308.15	0.00285	0.8	0.001589	3.3e-05
308.15	0.00523	0.8	0.00159	3.3e-05
308.15	0.01375	0.8	0.0016	3.3e-05
308.15	0.02871	0.8	0.001605	3.3e-05
308.15	0.06205	0.8	0.001648	3.3e-05
308.15	0.07723	0.8	0.001656	3.3e-05
308.15	0.09908	0.8	0.001672	3.3e-05
308.15	0.14972	0.8	0.001703	3.3e-05
308.15	0.19869	0.8	0.001755	3.3e-05
308.15	0.234	0.8	0.001792	3.3e-05
318.15	0	0.8	0.001287	3.2e-05
318.15	0.00285	0.8	0.001289	3.2e-05
318.15	0.00523	0.8	0.001291	3.2e-05
318.15	0.01375	0.8	0.0013	3.2e-05
318.15	0.02871	0.8	0.001303	3.2e-05
318.15	0.06205	0.8	0.001333	3.2e-05
318.15	0.07723	0.8	0.001339	3.2e-05
318.15	0.09908	0.8	0.001351	3.2e-05
318.15	0.14972	0.8	0.001379	3.2e-05
318.15	0.19869	0.8	0.001419	3.2e-05
318.15	0.234	0.8	0.001441	3.2e-05

System: trisodium citrate + water; phases: Liquid
Fixed: Pressure, kPa = 101
Property: Viscosity, Pa*s (Liquid); method: Falling or rolling sphere viscometry
Temperature, K	Molality, mol/kg of trisodium citrate	Viscosity, Pa*s	uncertainty
288.15	0.2	0.001343	3.2e-05
298.15	0.2	0.001056	3.1e-05
308.15	0.2	0.000858	3.1e-05
318.15	0.2	0.000719	3.1e-05
288.15	0.4	0.001661	3.3e-05
298.15	0.4	0.001296	3.2e-05
308.15	0.4	0.001047	3.1e-05
318.15	0.4	0.000868	3.1e-05
288.15	0.6	0.002072	3.4e-05
298.15	0.6	0.001592	3.3e-05
308.15	0.6	0.001277	3.2e-05
318.15	0.6	0.001049	3.1e-05
288.15	0.8	0.002633	3.7e-05
298.15	0.8	0.002002	3.4e-05
308.15	0.8	0.001581	3.3e-05
318.15	0.8	0.001287	3.2e-05
