Measured thermophysical data. Solubilities of 4-Bromo-1,8-naphthalic Anhydride in Different Pure Solvents and Binary Solvent Mixtures with the Temperature Range from (278.15 to 333.15) K
Source: J. Chem. Eng. Data, 2013, 10.1021/je400259a
Compound 1: 4-bromo-1,8-naphthalic anhydride, C12H5BrO3, InChI=1S/C12H5BrO3/c13-9-5-4-8-10-6(9)2-1-3-7(10)11(14)16-12(8)15/h1-5H
Compound 2: methanol, CH4O, InChI=1S/CH4O/c1-2/h2H,1H3
Compound 3: ethanol, C2H6O, InChI=1S/C2H6O/c1-2-3/h3H,2H2,1H3
Compound 4: acetic acid, C2H4O2, InChI=1S/C2H4O2/c1-2(3)4/h1H3,(H,3,4)
Compound 5: acetone, C3H6O, InChI=1S/C3H6O/c1-3(2)4/h1-2H3

System: methanol + 4-bromo-1,8-naphthalic anhydride; phases: Liquid, Crystal
Fixed: Pressure, kPa = 101
Property: Mole fraction of 4-bromo-1,8-naphthalic anhydride (Liquid); method: weighing recrystalized solids from solution
Temperature, K	Mole fraction of 4-bromo-1,8-naphthalic anhydride	uncertainty
278.15	4.56e-05	1.2e-06
283.15	6.41e-05	1.7e-06
288.15	8.62e-05	2.3e-06
293.15	0.0001181	3.2e-06
298.15	0.0001598	4.3e-06
303.15	0.0002125	5.8e-06
308.15	0.0002888	7.8e-06
313.15	0.0003911	1.06e-05
318.15	0.0005113	1.39e-05
323.15	0.0006625	1.8e-05
328.15	0.0008464	2.3e-05
333.15	0.0011326	3.08e-05

System: ethanol + 4-bromo-1,8-naphthalic anhydride; phases: Liquid, Crystal
Fixed: Pressure, kPa = 101
Property: Mole fraction of 4-bromo-1,8-naphthalic anhydride (Liquid); method: weighing recrystalized solids from solution
Temperature, K	Mole fraction of 4-bromo-1,8-naphthalic anhydride	uncertainty
278.15	2.66e-05	6e-07
283.15	3.65e-05	9e-07
288.15	5.08e-05	1.2e-06
293.15	6.99e-05	1.7e-06
298.15	9.53e-05	2.3e-06
303.15	0.0001306	3.1e-06
308.15	0.0001725	4.1e-06
313.15	0.0002257	5.4e-06
318.15	0.0003004	7.1e-06
323.15	0.0003946	9.4e-06
328.15	0.0005066	1.2e-05
333.15	0.0006639	1.58e-05

System: acetic acid + 4-bromo-1,8-naphthalic anhydride; phases: Liquid, Crystal
Fixed: Pressure, kPa = 101
Property: Mole fraction of 4-bromo-1,8-naphthalic anhydride (Liquid); method: weighing recrystalized solids from solution
Temperature, K	Mole fraction of 4-bromo-1,8-naphthalic anhydride	uncertainty
278.15	0.000263	5.9e-06
283.15	0.0003156	7e-06
288.15	0.0003825	8.5e-06
293.15	0.0004599	1.02e-05
298.15	0.0005652	1.26e-05
303.15	0.0006662	1.48e-05
308.15	0.0007782	1.73e-05
313.15	0.0009127	2.03e-05
318.15	0.0010729	2.39e-05
323.15	0.0012887	2.87e-05
328.15	0.001509	3.36e-05
333.15	0.0017534	3.91e-05

System: acetone + 4-bromo-1,8-naphthalic anhydride; phases: Liquid, Crystal
Fixed: Pressure, kPa = 101
Property: Mole fraction of 4-bromo-1,8-naphthalic anhydride (Liquid); method: weighing recrystalized solids from solution
Temperature, K	Mole fraction of 4-bromo-1,8-naphthalic anhydride	uncertainty
278.15	0.0009998	2.24e-05
283.15	0.0011894	2.67e-05
288.15	0.001377	3.09e-05
293.15	0.00161	3.61e-05
298.15	0.0019199	4.31e-05
303.15	0.00224	5.02e-05
308.15	0.002576	5.78e-05
313.15	0.0029051	6.52e-05
318.15	0.0033154	7.44e-05
323.15	0.0038087	8.54e-05
328.15	0.00422	9.47e-05

System: ethanol + acetone + 4-bromo-1,8-naphthalic anhydride; phases: Liquid, Crystal
Fixed: Pressure, kPa = 101
Property: Mole fraction of 4-bromo-1,8-naphthalic anhydride (Liquid); method: weighing recrystalized solids from solution
Temperature, K	Solvent: Mole fraction of acetone	Mole fraction of 4-bromo-1,8-naphthalic anhydride	uncertainty
278.15	0.0812	8.73e-05	2.1e-06
278.15	0.2542	0.0002551	5.9e-06
278.15	0.443	0.0003723	8.6e-06
278.15	0.6498	0.0005276	1.2e-05
278.15	0.8774	0.000941	2.12e-05
283.15	0.0812	0.0001072	2.5e-06
283.15	0.2542	0.0003151	7.3e-06
283.15	0.443	0.0004737	1.09e-05
283.15	0.6498	0.0006693	1.53e-05
283.15	0.8774	0.001108	2.5e-05
288.15	0.0812	0.0001338	3.2e-06
288.15	0.2542	0.0003813	8.9e-06
288.15	0.443	0.0005908	1.36e-05
288.15	0.6498	0.0008151	1.86e-05
288.15	0.8774	0.0012642	2.85e-05
293.15	0.0812	0.0001877	4.4e-06
293.15	0.2542	0.0004721	1.1e-05
293.15	0.443	0.0007012	1.62e-05
293.15	0.6498	0.0009825	2.24e-05
293.15	0.8774	0.0014927	3.37e-05
298.15	0.0812	0.0002314	5.5e-06
298.15	0.2542	0.0005677	1.32e-05
298.15	0.443	0.0008455	1.95e-05
298.15	0.6498	0.0011831	2.7e-05
298.15	0.8774	0.0017238	3.89e-05
303.15	0.0812	0.0002823	6.7e-06
303.15	0.2542	0.0006925	1.61e-05
303.15	0.443	0.0010668	2.46e-05
303.15	0.6498	0.0014795	3.37e-05
303.15	0.8774	0.0019735	4.45e-05
308.15	0.0812	0.0003622	8.5e-06
308.15	0.2542	0.000833	1.94e-05
308.15	0.443	0.0012841	2.96e-05
308.15	0.6498	0.0017687	4.03e-05
308.15	0.8774	0.0023437	5.28e-05
313.15	0.0812	0.0004348	1.03e-05
313.15	0.2542	0.0009952	2.32e-05
313.15	0.443	0.0016043	3.7e-05
313.15	0.6498	0.0021499	4.9e-05
313.15	0.8774	0.0026455	5.97e-05
318.15	0.0812	0.0005459	1.29e-05
318.15	0.2542	0.0011589	2.7e-05
318.15	0.443	0.0018187	4.19e-05
318.15	0.6498	0.0024666	5.62e-05
318.15	0.8774	0.0030362	6.85e-05
323.15	0.0812	0.0006568	1.55e-05
323.15	0.2542	0.0013837	3.23e-05
323.15	0.443	0.002267	5.23e-05
323.15	0.6498	0.0029263	6.67e-05
323.15	0.8774	0.0033461	7.55e-05
