Measured thermophysical data. Partial Molar Volumes and Isentropic Compressibilities of Some Saccharides in Aqueous Solutions of Leucine at Different Temperatures
Source: J. Chem. Eng. Data, 2014, 10.1021/je400977r
Compound 1: water, H2O, InChI=1S/H2O/h1H2
Compound 2: L-leucine, C6H13NO2, InChI=1S/C6H13NO2/c1-4(2)3-5(7)6(8)9/h4-5H,3,7H2,1-2H3,(H,8,9)/t5-/m0/s1, purity 99%
Compound 3: D-ribose, C5H10O5, InChI=1S/C5H10O5/c6-1-3(8)5(10)4(9)2-7/h1,3-5,7-10H,2H2/t3-,4+,5-/m0/s1, purity 99%
Compound 4: D-maltose, C12H22O11, InChI=1S/C12H22O11/c13-1-3-5(15)6(16)9(19)12(22-3)23-10-4(2-14)21-11(20)8(18)7(10)17/h3-20H,1-2H2/t3-,4-,5-,6+,7-,8-,9-,10-,11?,12-/m1/s1, purity 99%
Compound 5: D-raffinose, C18H32O16, InChI=1S/C18H32O16/c19-1-5-8(22)11(25)13(27)16(31-5)30-3-7-9(23)12(26)14(28)17(32-7)34-18(4-21)15(29)10(24)6(2-20)33-18/h5-17,19-29H,1-4H2/t5-,6-,7-,8+,9-,10-,11+,12+,13-,14-,15+,16+,17-,18+/m1/s1, purity 95%

System: D-ribose + L-leucine + water; phases: Liquid
Fixed: Pressure, kPa = 101
Property: Mass density, kg/m3 (Liquid); method: VIBTUB:UFactor:16
Temperature, K	Molality, mol/kg of D-ribose	Solvent: Molality, mol/kg of L-leucine	Mass density, kg/m3	uncertainty
293.15	0	0	998.218	0.708
293.15	0	0.025	998.94	0.694
293.15	0	0.05	999.543	0.684
293.15	0	0.1	1000.596	0.682
293.15	0.05	0	1001.068	0.7
293.15	0.055	0	1001.36	0.7
293.15	0.05	0.025	1001.643	0.692
293.15	0.06	0	1001.651	0.701
293.15	0.055	0.025	1001.916	0.694
293.15	0.065	0	1001.939	0.702
293.15	0.06	0.025	1002.191	0.697
293.15	0.07	0	1002.229	0.704
293.15	0.05	0.05	1002.231	0.702
293.15	0.065	0.025	1002.471	0.699
293.15	0.055	0.05	1002.502	0.704
293.15	0.075	0	1002.521	0.705
293.15	0.07	0.025	1002.751	0.7
293.15	0.06	0.05	1002.776	0.697
293.15	0.08	0	1002.815	0.707
293.15	0.075	0.025	1003.026	0.7
293.15	0.065	0.05	1003.049	0.699
293.15	0.085	0	1003.108	0.707
293.15	0.05	0.1	1003.273	0.699
293.15	0.08	0.025	1003.301	0.701
293.15	0.07	0.05	1003.322	0.7
293.15	0.09	0	1003.4	0.708
293.15	0.055	0.1	1003.545	0.701
293.15	0.085	0.025	1003.576	0.702
293.15	0.075	0.05	1003.595	0.702
293.15	0.06	0.1	1003.819	0.702
293.15	0.09	0.025	1003.855	0.704
293.15	0.08	0.05	1003.871	0.705
293.15	0.1	0	1003.979	0.709
293.15	0.065	0.1	1004.092	0.704
293.15	0.085	0.05	1004.146	0.708
293.15	0.07	0.1	1004.366	0.706
293.15	0.1	0.025	1004.407	0.721
293.15	0.09	0.05	1004.425	0.709
293.15	0.075	0.1	1004.641	0.708
293.15	0.08	0.1	1004.916	0.71
293.15	0.1	0.05	1004.983	0.706
293.15	0.085	0.1	1005.191	0.711
293.15	0.09	0.1	1005.466	0.712
293.15	0.1	0.1	1006.015	0.715
298.15	0	0.025	997.765	0.7
298.15	0	0.05	998.36	0.69
298.15	0	0.1	999.369	0.681
298.15	0.05	0	999.887	0.722
298.15	0.055	0	1000.174	0.72
298.15	0.05	0.025	1000.438	0.699
298.15	0.06	0	1000.465	0.695
298.15	0.055	0.025	1000.714	0.701
298.15	0.065	0	1000.749	0.697
298.15	0.06	0.025	1000.988	0.689
298.15	0.05	0.05	1001.015	0.706
298.15	0.07	0	1001.04	0.697
298.15	0.065	0.025	1001.266	0.69
298.15	0.055	0.05	1001.287	0.708
298.15	0.075	0	1001.33	0.699
298.15	0.07	0.025	1001.541	0.692
298.15	0.06	0.05	1001.557	0.689
298.15	0.08	0	1001.615	0.701
298.15	0.075	0.025	1001.815	0.693
298.15	0.065	0.05	1001.831	0.691
298.15	0.085	0	1001.911	0.704
298.15	0.05	0.1	1002.019	0.709
298.15	0.08	0.025	1002.095	0.694
298.15	0.07	0.05	1002.103	0.693
298.15	0.09	0	1002.206	0.704
298.15	0.055	0.1	1002.291	0.711
298.15	0.085	0.025	1002.37	0.697
298.15	0.075	0.05	1002.377	0.695
298.15	0.06	0.1	1002.567	0.694
298.15	0.09	0.025	1002.643	0.697
298.15	0.08	0.05	1002.651	0.697
298.15	0.1	0	1002.786	0.681
298.15	0.065	0.1	1002.841	0.696
298.15	0.085	0.05	1002.927	0.701
298.15	0.07	0.1	1003.115	0.698
298.15	0.1	0.025	1003.201	0.693
298.15	0.09	0.05	1003.203	0.7
298.15	0.075	0.1	1003.391	0.7
298.15	0.08	0.1	1003.665	0.701
298.15	0.1	0.05	1003.751	0.686
298.15	0	0	997.055	0.721
298.15	0.085	0.1	1003.941	0.705
298.15	0.09	0.1	1004.217	0.704
298.15	0.1	0.1	1004.767	0.686
303.15	0.06	0.025	999.54	0.682
303.15	0.05	0.05	999.572	0.698
303.15	0.07	0	999.606	0.69
303.15	0.065	0.025	999.81	0.681
303.15	0.055	0.05	999.839	0.697
303.15	0.075	0	999.887	0.689
303.15	0.07	0.025	1000.077	0.68
303.15	0.06	0.05	1000.106	0.679
303.15	0.08	0	1000.173	0.689
303.15	0.075	0.025	1000.348	0.682
303.15	0.065	0.05	1000.374	0.681
303.15	0.085	0	1000.465	0.692
303.15	0.05	0.1	1000.583	0.704
303.15	0.08	0.025	1000.621	0.685
303.15	0.07	0.05	1000.644	0.683
303.15	0.09	0	1000.752	0.692
303.15	0.055	0.1	1000.851	0.706
303.15	0.085	0.025	1000.897	0.687
303.15	0.075	0.05	1000.915	0.685
303.15	0	0.1	997.956	0.688
303.15	0.06	0.1	1001.12	0.684
303.15	0.09	0.025	1001.175	0.688
303.15	0.08	0.05	1001.187	0.687
303.15	0.1	0	1001.325	0.674
303.15	0.065	0.1	1001.391	0.686
303.15	0.085	0.05	1001.459	0.69
303.15	0.07	0.1	1001.661	0.687
303.15	0.1	0.025	1001.727	0.687
303.15	0.09	0.05	1001.729	0.689
303.15	0.075	0.1	1001.931	0.689
303.15	0.05	0	998.463	0.723
303.15	0.08	0.1	1002.201	0.691
303.15	0	0	995.651	0.717
303.15	0.1	0.05	1002.269	0.68
303.15	0.055	0	998.749	0.72
303.15	0.085	0.1	1002.474	0.694
303.15	0.09	0.1	1002.745	0.694
303.15	0	0.025	996.352	0.705
303.15	0.05	0.025	999.001	0.697
303.15	0.06	0	999.035	0.695
303.15	0.1	0.1	1003.287	0.679
303.15	0	0.05	996.938	0.696
303.15	0.055	0.025	999.269	0.694
303.15	0.065	0	999.317	0.692
308.15	0.09	0.1	1001.065	0.685
308.15	0.1	0	999.652	0.665
308.15	0.075	0.1	1000.247	0.679
308.15	0.055	0.05	998.183	0.706
308.15	0.065	0.1	999.709	0.679
308.15	0	0.025	994.719	0.704
308.15	0.085	0.05	999.797	0.683
308.15	0.06	0.025	997.879	0.69
308.15	0.075	0	998.237	0.696
308.15	0.1	0.1	1001.611	0.659
308.15	0.05	0.05	997.915	0.708
308.15	0.06	0.1	999.438	0.679
308.15	0.08	0.1	1000.52	0.681
308.15	0.065	0	997.667	0.7
308.15	0.07	0.025	998.419	0.687
308.15	0.06	0.05	998.451	0.686
308.15	0	0.05	995.302	0.703
308.15	0	0	994.247	0.704
308.15	0.08	0	998.519	0.694
308.15	0.1	0.05	1000.607	0.667
308.15	0.075	0.025	998.688	0.686
308.15	0.09	0.025	999.503	0.682
308.15	0.065	0.05	998.717	0.685
308.15	0.07	0	997.954	0.698
308.15	0.085	0	998.806	0.693
308.15	0.05	0.1	998.901	0.712
308.15	0.07	0.1	999.978	0.677
308.15	0	0.1	996.293	0.696
308.15	0.08	0.025	998.959	0.685
308.15	0.07	0.05	998.985	0.684
308.15	0.085	0.1	1000.791	0.686
308.15	0.1	0.025	1000.048	0.678
308.15	0.09	0.05	1000.067	0.68
308.15	0.08	0.05	999.525	0.682
308.15	0.09	0	999.089	0.689
308.15	0.05	0	996.819	0.728
308.15	0.055	0.1	999.167	0.712
308.15	0.085	0.025	999.229	0.684
308.15	0.075	0.05	999.255	0.683
308.15	0.055	0	997.103	0.726
308.15	0.065	0.025	998.149	0.689
308.15	0.05	0.025	997.343	0.702
308.15	0.06	0	997.383	0.702
308.15	0.055	0.025	997.611	0.7
313.15	0.05	0	994.955	0.713
313.15	0	0.05	993.464	0.709
313.15	0.05	0.025	995.491	0.701
313.15	0.07	0	996.076	0.704
313.15	0.055	0	995.237	0.71
313.15	0	0.025	992.893	0.698
313.15	0.065	0.025	996.294	0.698
313.15	0.1	0.025	998.193	0.699
313.15	0.08	0.1	998.529	0.685
313.15	0.055	0.05	996.311	0.71
313.15	0.06	0	995.517	0.708
313.15	0.075	0	996.357	0.702
313.15	0	0.1	994.341	0.699
313.15	0	0	992.743	0.683
313.15	0.09	0.1	999.079	0.683
313.15	0.07	0.025	996.563	0.697
313.15	0.1	0	997.754	0.693
313.15	0.06	0.05	996.578	0.694
313.15	0.08	0	996.637	0.701
313.15	0.055	0.025	995.757	0.698
313.15	0.09	0.05	998.193	0.687
313.15	0.075	0.025	996.832	0.696
313.15	0.065	0.05	996.845	0.693
313.15	0.05	0.1	996.915	0.691
313.15	0.08	0.05	997.655	0.689
313.15	0.1	0.05	998.735	0.673
313.15	0.085	0	996.917	0.698
313.15	0.1	0.1	999.621	0.679
313.15	0.085	0.05	997.924	0.689
313.15	0.07	0.1	997.987	0.686
313.15	0.065	0	995.796	0.706
313.15	0.08	0.025	997.104	0.695
313.15	0.07	0.05	997.116	0.692
313.15	0.075	0.1	998.258	0.686
313.15	0.055	0.1	997.183	0.69
313.15	0.09	0	997.196	0.697
313.15	0.06	0.025	996.024	0.7
313.15	0.085	0.025	997.375	0.693
313.15	0.065	0.1	997.719	0.687
313.15	0.05	0.05	996.045	0.711
313.15	0.075	0.05	997.385	0.691
313.15	0.06	0.1	997.451	0.688
313.15	0.085	0.1	998.803	0.684
313.15	0.09	0.025	997.649	0.692

System: D-ribose + L-leucine + water; phases: Liquid
Fixed: Pressure, kPa = 101
Property: Speed of sound, m/s (Liquid); method: Pulse-echo method
Temperature, K	Molality, mol/kg of D-ribose	Solvent: Molality, mol/kg of L-leucine	Speed of sound, m/s	uncertainty
293.15	0	0	1482.96	2.36
293.15	0.05	0	1485.21	2.39
293.15	0.055	0	1485.39	2.39
293.15	0.06	0	1485.58	2.4
293.15	0.065	0	1485.75	2.41
293.15	0.07	0	1485.92	2.41
293.15	0.075	0	1486.07	2.42
293.15	0.08	0	1486.22	2.43
293.15	0	0.025	1486.25	2.36
293.15	0.085	0	1486.37	2.44
293.15	0.09	0	1486.5	2.46
293.15	0.1	0	1486.8	2.48
293.15	0.05	0.025	1488.81	2.39
293.15	0.055	0.025	1489.07	2.4
293.15	0	0.05	1489.25	2.35
293.15	0.06	0.025	1489.33	2.38
293.15	0.065	0.025	1489.58	2.38
293.15	0.07	0.025	1489.84	2.39
293.15	0.075	0.025	1490.11	2.39
293.15	0.08	0.025	1490.37	2.4
293.15	0.085	0.025	1490.63	2.4
293.15	0.09	0.025	1490.89	2.4
293.15	0.1	0.025	1491.41	2.39
293.15	0.05	0.05	1491.83	2.35
293.15	0.055	0.05	1492.09	2.35
293.15	0.06	0.05	1492.35	2.35
293.15	0.065	0.05	1492.61	2.35
293.15	0.07	0.05	1492.87	2.35
293.15	0.075	0.05	1493.13	2.35
293.15	0.08	0.05	1493.38	2.35
293.15	0.085	0.05	1493.64	2.35
293.15	0.09	0.05	1493.89	2.35
293.15	0.1	0.05	1494.39	2.36
293.15	0	0.1	1495.22	2.35
298.15	0	0	1497.06	2.41
293.15	0.05	0.1	1497.91	2.35
293.15	0.055	0.1	1498.18	2.35
293.15	0.06	0.1	1498.45	2.35
293.15	0.065	0.1	1498.72	2.35
293.15	0.07	0.1	1498.99	2.36
298.15	0.05	0	1499.21	2.48
293.15	0.075	0.1	1499.26	2.36
298.15	0.055	0	1499.37	2.49
298.15	0.06	0	1499.51	2.42
293.15	0.08	0.1	1499.53	2.36
298.15	0.065	0	1499.67	2.43
293.15	0.085	0.1	1499.8	2.36
298.15	0.07	0	1499.82	2.44
298.15	0.075	0	1499.95	2.45
293.15	0.09	0.1	1500.07	2.36
298.15	0.08	0	1500.09	2.46
298.15	0	0.025	1500.16	2.35
298.15	0.085	0	1500.22	2.48
298.15	0.09	0	1500.35	2.49
298.15	0.1	0	1500.59	2.55
293.15	0.1	0.1	1500.62	2.36
298.15	0.05	0.025	1502.64	2.41
298.15	0.055	0.025	1502.89	2.42
298.15	0	0.05	1502.94	2.35
298.15	0.06	0.025	1503.14	2.36
298.15	0.065	0.025	1503.38	2.37
298.15	0.07	0.025	1503.63	2.37
298.15	0.075	0.025	1503.89	2.38
298.15	0.08	0.025	1504.14	2.38
298.15	0.085	0.025	1504.4	2.39
298.15	0.09	0.025	1504.67	2.39
298.15	0.1	0.025	1505.18	2.39
298.15	0.05	0.05	1505.44	2.38
298.15	0.055	0.05	1505.69	2.38
298.15	0.06	0.05	1505.94	2.35
298.15	0.065	0.05	1506.19	2.35
298.15	0.07	0.05	1506.44	2.35
298.15	0.075	0.05	1506.69	2.35
298.15	0.08	0.05	1506.94	2.35
298.15	0.085	0.05	1507.19	2.35
298.15	0.09	0.05	1507.44	2.35
298.15	0.1	0.05	1507.94	2.34
298.15	0	0.1	1508.83	2.34
303.15	0	0	1509.39	2.38
303.15	0.05	0	1511.34	2.44
298.15	0.05	0.1	1511.43	2.41
303.15	0.055	0	1511.49	2.45
303.15	0.06	0	1511.63	2.4
298.15	0.055	0.1	1511.69	2.41
303.15	0.065	0	1511.77	2.41
303.15	0.07	0	1511.89	2.42
298.15	0.06	0.1	1511.94	2.34
303.15	0.075	0	1512.03	2.43
303.15	0.08	0	1512.15	2.44
298.15	0.065	0.1	1512.2	2.34
303.15	0.085	0	1512.25	2.46
303.15	0	0.025	1512.29	2.34
303.15	0.09	0	1512.36	2.47
298.15	0.07	0.1	1512.46	2.34
303.15	0.1	0	1512.57	2.52
298.15	0.075	0.1	1512.72	2.34
298.15	0.08	0.1	1512.97	2.34
298.15	0.085	0.1	1513.23	2.34
298.15	0.09	0.1	1513.49	2.34
298.15	0.1	0.1	1514.01	2.31
303.15	0.05	0.025	1514.6	2.39
303.15	0.055	0.025	1514.84	2.4
303.15	0	0.05	1515.01	2.34
303.15	0.06	0.025	1515.08	2.35
303.15	0.065	0.025	1515.33	2.36
303.15	0.07	0.025	1515.59	2.36
303.15	0.075	0.025	1515.84	2.37
303.15	0.08	0.025	1516.09	2.37
303.15	0.085	0.025	1516.33	2.38
303.15	0.09	0.025	1516.57	2.38
303.15	0.1	0.025	1517.05	2.38
303.15	0.05	0.05	1517.32	2.37
303.15	0.055	0.05	1517.56	2.37
303.15	0.06	0.05	1517.8	2.34
303.15	0.065	0.05	1518.04	2.34
303.15	0.07	0.05	1518.28	2.34
303.15	0.075	0.05	1518.52	2.34
303.15	0.08	0.05	1518.76	2.34
303.15	0.085	0.05	1519	2.34
303.15	0.09	0.05	1519.24	2.34
303.15	0.1	0.05	1519.72	2.32
308.15	0	0	1520.08	2.37
303.15	0	0.1	1520.59	2.32
308.15	0.05	0	1521.9	2.42
308.15	0.055	0	1522.05	2.43
308.15	0.06	0	1522.19	2.38
308.15	0.065	0	1522.33	2.39
308.15	0.07	0	1522.46	2.4
308.15	0.075	0	1522.59	2.41
308.15	0.08	0	1522.73	2.42
308.15	0	0.025	1522.79	2.33
308.15	0.085	0	1522.84	2.44
308.15	0.09	0	1522.97	2.45
303.15	0.05	0.1	1522.98	2.38
308.15	0.1	0	1523.19	2.5
303.15	0.055	0.1	1523.22	2.38
303.15	0.06	0.1	1523.46	2.33
303.15	0.065	0.1	1523.7	2.33
303.15	0.07	0.1	1523.94	2.33
303.15	0.075	0.1	1524.18	2.33
303.15	0.08	0.1	1524.43	2.33
303.15	0.085	0.1	1524.67	2.33
303.15	0.09	0.1	1524.91	2.33
308.15	0.05	0.025	1524.92	2.38
308.15	0.055	0.025	1525.17	2.38
303.15	0.1	0.1	1525.39	2.3
308.15	0	0.05	1525.41	2.33
308.15	0.06	0.025	1525.41	2.34
308.15	0.065	0.025	1525.65	2.35
308.15	0.07	0.025	1525.89	2.35
308.15	0.075	0.025	1526.15	2.35
308.15	0.08	0.025	1526.4	2.36
308.15	0.085	0.025	1526.66	2.37
308.15	0.09	0.025	1526.91	2.37
308.15	0.1	0.025	1527.42	2.36
308.15	0.05	0.05	1527.54	2.36
308.15	0.055	0.05	1527.77	2.36
308.15	0.06	0.05	1527.99	2.33
308.15	0.065	0.05	1528.23	2.33
308.15	0.07	0.05	1528.47	2.33
308.15	0.075	0.05	1528.7	2.33
308.15	0.08	0.05	1528.94	2.33
308.15	0.085	0.05	1529.18	2.33
313.15	0	0	1529.19	2.31
308.15	0.09	0.05	1529.41	2.33
308.15	0.1	0.05	1529.89	2.32
308.15	0	0.1	1530.77	2.31
313.15	0.05	0	1530.87	2.32
313.15	0.055	0	1531.01	2.33
313.15	0.06	0	1531.15	2.34
313.15	0.065	0	1531.29	2.34
313.15	0.07	0	1531.43	2.35
313.15	0.075	0	1531.57	2.36
313.15	0.08	0	1531.7	2.37
313.15	0	0.025	1531.73	2.31
313.15	0.085	0	1531.83	2.38
313.15	0.09	0	1531.97	2.39
313.15	0.1	0	1532.23	2.41
308.15	0.05	0.1	1532.96	2.37
308.15	0.055	0.1	1533.2	2.37
308.15	0.06	0.1	1533.43	2.32
308.15	0.065	0.1	1533.66	2.32
313.15	0.05	0.025	1533.67	2.33
308.15	0.07	0.1	1533.89	2.32
313.15	0.055	0.025	1533.9	2.34
308.15	0.075	0.1	1534.13	2.32
313.15	0.06	0.025	1534.14	2.33
313.15	0	0.05	1534.21	2.31
308.15	0.08	0.1	1534.36	2.32
313.15	0.065	0.025	1534.38	2.33
308.15	0.085	0.1	1534.6	2.32
313.15	0.07	0.025	1534.63	2.34
308.15	0.09	0.1	1534.83	2.32
313.15	0.075	0.025	1534.88	2.34
313.15	0.08	0.025	1535.13	2.35
308.15	0.1	0.1	1535.32	2.29
313.15	0.085	0.025	1535.39	2.35
313.15	0.09	0.025	1535.64	2.35
313.15	0.1	0.025	1536.15	2.34
313.15	0.05	0.05	1536.17	2.31
313.15	0.055	0.05	1536.39	2.31
313.15	0.06	0.05	1536.61	2.32
313.15	0.065	0.05	1536.84	2.32
313.15	0.07	0.05	1537.07	2.32
313.15	0.075	0.05	1537.31	2.32
313.15	0.08	0.05	1537.55	2.32
313.15	0.085	0.05	1537.79	2.32
313.15	0.09	0.05	1538.05	2.32
313.15	0.1	0.05	1538.56	2.32
313.15	0	0.1	1539.37	2.32
313.15	0.05	0.1	1541.34	2.32
313.15	0.055	0.1	1541.55	2.32
313.15	0.06	0.1	1541.77	2.32
313.15	0.065	0.1	1541.99	2.32
313.15	0.07	0.1	1542.22	2.32
313.15	0.075	0.1	1542.44	2.32
313.15	0.08	0.1	1542.67	2.32
313.15	0.085	0.1	1542.9	2.32
313.15	0.09	0.1	1543.13	2.32
313.15	0.1	0.1	1543.6	2.32

System: L-leucine + D-maltose + water; phases: Liquid
Fixed: Pressure, kPa = 101
Property: Mass density, kg/m3 (Liquid); method: VIBTUB:UFactor:16
Temperature, K	Molality, mol/kg of D-maltose	Solvent: Molality, mol/kg of L-leucine	Mass density, kg/m3	uncertainty
313.15	0.05	0	998.275	0.912
313.15	0.05	0.025	998.727	0.895
313.15	0.055	0	998.854	0.911
313.15	0.055	0.025	999.307	0.888
313.15	0.05	0.05	999.369	0.985
313.15	0.06	0	999.414	0.911
313.15	0.06	0.025	999.887	0.919
313.15	0.055	0.05	999.973	0.99
313.15	0.065	0	999.995	0.911
308.15	0.05	0	1000.122	0.945
313.15	0.05	0.1	1000.233	0.95
313.15	0.065	0.025	1000.465	0.92
313.15	0.07	0	1000.565	0.916
313.15	0.06	0.05	1000.581	0.946
308.15	0.05	0.025	1000.705	0.953
308.15	0.055	0	1000.748	0.951
313.15	0.055	0.1	1000.844	0.953
313.15	0.07	0.025	1001.043	0.923
313.15	0.075	0	1001.157	0.915
313.15	0.065	0.05	1001.191	0.952
308.15	0.055	0.025	1001.305	0.951
308.15	0.05	0.05	1001.345	0.996
308.15	0.06	0	1001.373	0.963
313.15	0.06	0.1	1001.467	0.956
313.15	0.075	0.025	1001.621	0.926
313.15	0.08	0	1001.724	0.912
313.15	0.07	0.05	1001.806	0.955
308.15	0.06	0.025	1001.905	0.945
308.15	0.055	0.05	1001.958	0.999
308.15	0.065	0	1001.996	0.964
303.15	0.05	0	1002.072	1.045
313.15	0.065	0.1	1002.081	0.961
313.15	0.08	0.025	1002.198	0.929
313.15	0.085	0	1002.29	0.899
308.15	0.05	0.1	1002.311	1.008
313.15	0.075	0.05	1002.423	0.959
303.15	0.05	0.025	1002.495	0.963
308.15	0.065	0.025	1002.503	0.946
308.15	0.06	0.05	1002.578	0.961
308.15	0.07	0	1002.618	0.965
303.15	0.055	0	1002.707	1.045
313.15	0.07	0.1	1002.708	0.964
313.15	0.085	0.025	1002.775	0.925
313.15	0.09	0	1002.835	0.899
308.15	0.055	0.1	1002.927	1.012
313.15	0.08	0.05	1003.032	0.96
308.15	0.07	0.025	1003.101	0.948
303.15	0.05	0.05	1003.102	1.008
303.15	0.055	0.025	1003.115	0.964
308.15	0.065	0.05	1003.188	0.964
308.15	0.075	0	1003.238	0.965
313.15	0.075	0.1	1003.326	0.972
303.15	0.06	0	1003.34	0.978
313.15	0.09	0.025	1003.352	0.934
308.15	0.06	0.1	1003.542	0.964
298.15	0.05	0	1003.591	1.013
313.15	0.085	0.05	1003.647	0.967
308.15	0.075	0.025	1003.697	0.949
303.15	0.055	0.05	1003.725	1.011
303.15	0.06	0.025	1003.735	0.968
308.15	0.07	0.05	1003.809	0.97
308.15	0.08	0	1003.857	0.966
313.15	0.1	0	1003.907	0.897
313.15	0.08	0.1	1003.951	0.973
303.15	0.065	0	1003.972	0.978
303.15	0.05	0.1	1004.061	1.008
298.15	0.05	0.025	1004.105	1.012
308.15	0.065	0.1	1004.161	0.968
298.15	0.055	0	1004.239	1.008
313.15	0.09	0.05	1004.257	0.963
308.15	0.08	0.025	1004.292	0.951
303.15	0.06	0.05	1004.353	0.976
303.15	0.065	0.025	1004.355	0.969
308.15	0.075	0.05	1004.425	0.977
308.15	0.085	0	1004.475	0.969
313.15	0.1	0.025	1004.501	0.997
313.15	0.085	0.1	1004.588	0.974
303.15	0.07	0	1004.602	0.979
298.15	0.05	0.05	1004.637	1.018
303.15	0.055	0.1	1004.68	1.012
298.15	0.055	0.025	1004.743	1.016
308.15	0.07	0.1	1004.781	0.975
308.15	0.085	0.025	1004.884	0.95
298.15	0.06	0	1004.885	0.997
303.15	0.07	0.025	1004.971	0.971
303.15	0.065	0.05	1004.977	0.98
293.15	0.05	0	1004.991	1.045
308.15	0.08	0.05	1005.059	0.98
308.15	0.09	0	1005.091	0.968
313.15	0.09	0.1	1005.208	0.977
303.15	0.075	0	1005.231	0.98
298.15	0.055	0.05	1005.271	1.021
303.15	0.06	0.1	1005.311	0.977
298.15	0.06	0.025	1005.385	0.997
308.15	0.075	0.1	1005.405	0.981
293.15	0.05	0.025	1005.451	1.022
313.15	0.1	0.05	1005.469	0.878
308.15	0.09	0.025	1005.481	0.955
298.15	0.065	0	1005.53	0.998
298.15	0.05	0.1	1005.583	1.013
303.15	0.075	0.025	1005.588	0.971
303.15	0.07	0.05	1005.601	0.985
308.15	0.085	0.05	1005.685	0.988
293.15	0.055	0	1005.688	1.047
303.15	0.08	0	1005.858	0.981
298.15	0.06	0.05	1005.908	0.993
293.15	0.05	0.05	1005.917	0.996
303.15	0.065	0.1	1005.935	0.982
298.15	0.065	0.025	1006.031	1.003
308.15	0.08	0.1	1006.039	0.987
293.15	0.055	0.025	1006.125	1.027
298.15	0.07	0	1006.173	0.999
303.15	0.08	0.025	1006.203	0.973
298.15	0.055	0.1	1006.209	1.014
303.15	0.075	0.05	1006.232	0.991
308.15	0.09	0.05	1006.309	0.983
308.15	0.1	0	1006.32	0.917
293.15	0.06	0	1006.385	1.049
313.15	0.1	0.1	1006.445	0.978
303.15	0.085	0	1006.484	0.987
298.15	0.065	0.05	1006.545	0.997
303.15	0.07	0.1	1006.557	0.984
293.15	0.055	0.05	1006.565	0.994
308.15	0.1	0.025	1006.664	0.99
308.15	0.085	0.1	1006.673	0.996
298.15	0.07	0.025	1006.681	1.008
293.15	0.06	0.025	1006.795	1.029
298.15	0.075	0	1006.815	1
303.15	0.085	0.025	1006.815	0.971
298.15	0.06	0.1	1006.838	0.986
303.15	0.08	0.05	1006.869	0.997
293.15	0.05	0.1	1006.901	0.993
293.15	0.065	0	1007.082	1.051
303.15	0.09	0	1007.109	0.983
303.15	0.075	0.1	1007.187	0.99
298.15	0.07	0.05	1007.189	0.999
293.15	0.06	0.05	1007.211	1.005
308.15	0.09	0.1	1007.305	0.994
298.15	0.075	0.025	1007.332	1.011
303.15	0.09	0.025	1007.429	0.976
298.15	0.08	0	1007.456	1.002
298.15	0.065	0.1	1007.463	0.99
293.15	0.065	0.025	1007.475	1.033
303.15	0.085	0.05	1007.507	1.009
293.15	0.055	0.1	1007.535	0.994
308.15	0.1	0.05	1007.545	0.928
293.15	0.07	0	1007.779	1.053
303.15	0.08	0.1	1007.815	0.997
298.15	0.075	0.05	1007.827	1.004
293.15	0.065	0.05	1007.857	1.007
298.15	0.08	0.025	1007.985	1.015
298.15	0.07	0.1	1008.091	0.993
298.15	0.085	0	1008.095	1
303.15	0.09	0.05	1008.149	1.008
293.15	0.07	0.025	1008.151	1.039
293.15	0.06	0.1	1008.167	0.999
303.15	0.1	0	1008.354	0.931
303.15	0.085	0.1	1008.456	1.002
298.15	0.08	0.05	1008.465	1.008
293.15	0.075	0	1008.476	1.056
293.15	0.07	0.05	1008.501	1.01
308.15	0.1	0.1	1008.571	0.948
298.15	0.085	0.025	1008.631	1.018
303.15	0.1	0.025	1008.647	1.02
298.15	0.075	0.1	1008.723	0.999
298.15	0.09	0	1008.733	1.005
293.15	0.065	0.1	1008.799	1.001
293.15	0.075	0.025	1008.832	1.04
303.15	0.09	0.1	1009.095	1.003
298.15	0.085	0.05	1009.111	1.016
293.15	0.075	0.05	1009.145	1.012
293.15	0.08	0	1009.173	1.058
298.15	0.09	0.025	1009.287	1.017
298.15	0.08	0.1	1009.358	1.003
303.15	0.1	0.05	1009.437	0.953
293.15	0.07	0.1	1009.437	1.005
293.15	0.08	0.025	1009.517	1.043
298.15	0.09	0.05	1009.764	1.017
293.15	0.08	0.05	1009.795	1.015
293.15	0.085	0	1009.87	1.059
298.15	0.085	0.1	1009.995	1.014
298.15	0.1	0	1010.004	1.054
293.15	0.075	0.1	1010.073	1.008
293.15	0.085	0.025	1010.194	1.044
303.15	0.1	0.1	1010.357	0.971
293.15	0.085	0.05	1010.441	1.013
293.15	0.09	0	1010.567	1.061
298.15	0.1	0.025	1010.578	0.986
298.15	0.09	0.1	1010.631	1.014
293.15	0.08	0.1	1010.708	1.01
293.15	0.09	0.025	1010.872	1.044
298.15	0.1	0.05	1011.055	0.988
293.15	0.09	0.05	1011.087	1.019
293.15	0.085	0.1	1011.345	1.014
298.15	0.1	0.1	1011.925	0.989
293.15	0.1	0	1011.954	1.065
293.15	0.09	0.1	1011.982	1.016
293.15	0.1	0.025	1012.223	1.03
293.15	0.1	0.05	1012.377	1.08
293.15	0.1	0.1	1013.257	1.022

System: L-leucine + D-maltose + water; phases: Liquid
Fixed: Pressure, kPa = 101
Property: Speed of sound, m/s (Liquid); method: Pulse-echo method
Temperature, K	Molality, mol/kg of D-maltose	Solvent: Molality, mol/kg of L-leucine	Speed of sound, m/s	uncertainty
293.15	0.05	0	1488.15	2.43
293.15	0.055	0	1488.74	2.41
293.15	0.06	0	1489.33	2.4
293.15	0.065	0	1489.89	2.39
293.15	0.07	0	1490.45	2.38
293.15	0.075	0	1491.01	2.38
293.15	0.05	0.025	1491.05	2.38
293.15	0.055	0.025	1491.49	2.37
293.15	0.08	0	1491.61	2.37
293.15	0.06	0.025	1491.94	2.41
293.15	0.085	0	1492.17	2.37
293.15	0.065	0.025	1492.37	2.41
293.15	0.09	0	1492.75	2.36
293.15	0.07	0.025	1492.81	2.41
293.15	0.075	0.025	1493.24	2.41
293.15	0.08	0.025	1493.66	2.41
293.15	0.1	0	1493.97	2.36
293.15	0.085	0.025	1494.09	2.4
293.15	0.09	0.025	1494.52	2.41
293.15	0.05	0.05	1494.68	2.49
293.15	0.055	0.05	1495.27	2.5
293.15	0.1	0.025	1495.38	2.69
293.15	0.06	0.05	1495.85	2.46
293.15	0.065	0.05	1496.43	2.47
293.15	0.07	0.05	1497.03	2.48
293.15	0.075	0.05	1497.64	2.48
293.15	0.08	0.05	1498.25	2.49
293.15	0.085	0.05	1498.85	2.51
293.15	0.09	0.05	1499.45	2.5
293.15	0.1	0.05	1500.67	2.44
293.15	0.05	0.1	1501.05	2.46
293.15	0.055	0.1	1501.71	2.46
293.15	0.06	0.1	1502.32	2.47
293.15	0.065	0.1	1502.95	2.47
293.15	0.07	0.1	1503.62	2.48
293.15	0.075	0.1	1504.29	2.49
293.15	0.08	0.1	1504.95	2.5
293.15	0.085	0.1	1505.62	2.51
293.15	0.09	0.1	1506.35	2.52
293.15	0.1	0.1	1507.8	2.53
298.15	0.05	0	1502.13	2.59
298.15	0.075	0	1504.79	2.42
298.15	0.06	0	1503.21	2.43
298.15	0.05	0.025	1505.04	2.46
298.15	0.08	0	1505.43	2.41
298.15	0.055	0.025	1505.52	2.45
298.15	0.055	0	1502.67	2.57
298.15	0.085	0	1505.95	2.42
298.15	0.06	0.025	1506	2.4
298.15	0.065	0	1503.71	2.42
298.15	0.065	0.025	1506.47	2.41
298.15	0.09	0	1506.53	2.4
298.15	0.07	0.025	1506.93	2.4
298.15	0.075	0.025	1507.39	2.41
298.15	0.1	0	1507.65	2.33
298.15	0.07	0	1504.25	2.42
298.15	0.08	0.025	1507.85	2.4
298.15	0.05	0.05	1508.26	2.52
298.15	0.085	0.025	1508.32	2.41
298.15	0.09	0.025	1508.77	2.41
298.15	0.055	0.05	1508.84	2.52
298.15	0.06	0.05	1509.41	2.44
298.15	0.1	0.025	1509.71	2.42
298.15	0.065	0.05	1509.97	2.44
298.15	0.07	0.05	1510.54	2.45
298.15	0.075	0.05	1511.1	2.45
298.15	0.08	0.05	1511.69	2.46
298.15	0.085	0.05	1512.29	2.47
298.15	0.09	0.05	1512.85	2.46
298.15	0.1	0.05	1513.98	2.39
298.15	0.05	0.1	1514.32	2.56
298.15	0.055	0.1	1514.95	2.55
298.15	0.06	0.1	1515.57	2.44
298.15	0.065	0.1	1516.17	2.43
298.15	0.07	0.1	1516.79	2.43
298.15	0.075	0.1	1517.37	2.43
298.15	0.08	0.1	1517.95	2.43
298.15	0.085	0.1	1518.55	2.43
298.15	0.09	0.1	1519.13	2.43
298.15	0.1	0.1	1520.23	2.36
303.15	0.075	0	1516.87	2.42
303.15	0.05	0.025	1517.14	2.45
303.15	0.055	0	1514.74	2.54
303.15	0.08	0	1517.4	2.41
303.15	0.055	0.025	1517.62	2.44
303.15	0.085	0	1517.93	2.43
303.15	0.065	0	1515.81	2.42
303.15	0.06	0.025	1518.11	2.4
303.15	0.09	0	1518.46	2.42
303.15	0.05	0	1514.21	2.55
303.15	0.065	0.025	1518.59	2.4
303.15	0.07	0.025	1519.09	2.41
303.15	0.07	0	1516.34	2.42
303.15	0.1	0	1519.59	2.36
303.15	0.075	0.025	1519.59	2.41
303.15	0.08	0.025	1520.09	2.41
303.15	0.05	0.05	1520.16	2.49
303.15	0.06	0	1515.28	2.43
303.15	0.085	0.025	1520.59	2.41
303.15	0.055	0.05	1520.7	2.5
303.15	0.09	0.025	1521.09	2.41
303.15	0.06	0.05	1521.26	2.42
303.15	0.065	0.05	1521.81	2.42
303.15	0.1	0.025	1522.1	2.4
303.15	0.07	0.05	1522.37	2.43
303.15	0.075	0.05	1522.93	2.43
303.15	0.08	0.05	1523.51	2.43
303.15	0.085	0.05	1524.06	2.44
303.15	0.09	0.05	1524.61	2.43
303.15	0.1	0.05	1525.75	2.37
303.15	0.05	0.1	1525.89	2.5
303.15	0.055	0.1	1526.43	2.5
303.15	0.06	0.1	1526.97	2.4
303.15	0.065	0.1	1527.54	2.41
303.15	0.07	0.1	1528.11	2.41
303.15	0.075	0.1	1528.67	2.41
303.15	0.08	0.1	1529.23	2.4
303.15	0.085	0.1	1529.77	2.41
303.15	0.09	0.1	1530.33	2.4
303.15	0.1	0.1	1531.45	2.33
308.15	0.05	0.025	1527.66	2.46
308.15	0.08	0	1527.87	2.43
308.15	0.065	0	1526.28	2.43
308.15	0.055	0.025	1528.17	2.46
308.15	0.085	0	1528.31	2.45
308.15	0.05	0	1524.77	2.55
308.15	0.06	0.025	1528.68	2.4
308.15	0.09	0	1528.85	2.44
308.15	0.065	0.025	1529.19	2.4
308.15	0.07	0	1526.79	2.43
308.15	0.07	0.025	1529.7	2.4
308.15	0.06	0	1525.81	2.42
308.15	0.1	0	1530.02	2.39
308.15	0.075	0.025	1530.22	2.41
308.15	0.075	0	1527.33	2.43
308.15	0.05	0.05	1530.41	2.46
308.15	0.08	0.025	1530.74	2.41
308.15	0.055	0.05	1530.95	2.47
308.15	0.085	0.025	1531.27	2.42
308.15	0.055	0	1525.27	2.54
308.15	0.06	0.05	1531.49	2.41
308.15	0.09	0.025	1531.79	2.41
308.15	0.065	0.05	1532.05	2.41
308.15	0.07	0.05	1532.59	2.41
308.15	0.1	0.025	1532.84	2.36
308.15	0.075	0.05	1533.15	2.4
308.15	0.08	0.05	1533.67	2.4
308.15	0.085	0.05	1534.2	2.41
308.15	0.09	0.05	1534.72	2.4
308.15	0.1	0.05	1535.8	2.35
308.15	0.05	0.1	1535.83	2.47
308.15	0.055	0.1	1536.36	2.47
308.15	0.06	0.1	1536.88	2.38
308.15	0.065	0.1	1537.4	2.38
308.15	0.07	0.1	1537.92	2.38
308.15	0.075	0.1	1538.45	2.38
308.15	0.08	0.1	1538.97	2.38
308.15	0.085	0.1	1539.5	2.4
308.15	0.09	0.1	1540.03	2.39
308.15	0.1	0.1	1541.15	2.32
313.15	0.065	0	1535.15	2.4
313.15	0.085	0	1536.98	2.41
313.15	0.055	0.025	1537.1	2.41
313.15	0.07	0	1535.57	2.4
313.15	0.09	0	1537.47	2.42
313.15	0.06	0.025	1537.6	2.39
313.15	0.05	0	1533.73	2.39
313.15	0.065	0.025	1538.11	2.39
313.15	0.06	0	1534.65	2.39
313.15	0.1	0	1538.48	2.42
313.15	0.07	0.025	1538.62	2.4
313.15	0.075	0	1536.05	2.4
313.15	0.075	0.025	1539.13	2.4
313.15	0.05	0.05	1539.15	2.38
313.15	0.055	0	1534.19	2.4
313.15	0.08	0.025	1539.64	2.4
313.15	0.055	0.05	1539.65	2.38
313.15	0.08	0	1536.51	2.41
313.15	0.06	0.05	1540.15	2.38
313.15	0.085	0.025	1540.15	2.4
313.15	0.065	0.05	1540.65	2.38
313.15	0.09	0.025	1540.66	2.4
313.15	0.07	0.05	1541.15	2.38
313.15	0.05	0.025	1536.6	2.4
313.15	0.075	0.05	1541.65	2.38
313.15	0.1	0.025	1541.69	2.37
313.15	0.08	0.05	1542.17	2.38
313.15	0.085	0.05	1542.68	2.38
313.15	0.09	0.05	1543.18	2.38
313.15	0.1	0.05	1544.19	2.38
313.15	0.05	0.1	1544.4	2.38
313.15	0.055	0.1	1544.89	2.38
313.15	0.06	0.1	1545.36	2.37
313.15	0.065	0.1	1545.84	2.37
313.15	0.07	0.1	1546.3	2.37
313.15	0.075	0.1	1546.79	2.37
313.15	0.08	0.1	1547.28	2.37
313.15	0.085	0.1	1547.75	2.38
313.15	0.09	0.1	1548.24	2.38
313.15	0.1	0.1	1549.25	2.38

System: L-leucine + D-raffinose + water; phases: Liquid
Fixed: Pressure, kPa = 101
Property: Mass density, kg/m3 (Liquid); method: VIBTUB:UFactor:16
Temperature, K	Molality, mol/kg of D-raffinose	Solvent: Molality, mol/kg of L-leucine	Mass density, kg/m3	uncertainty
313.15	0.05	0	1001.021	1.724
313.15	0.05	0.025	1001.847	1.769
313.15	0.055	0	1001.992	1.687
313.15	0.05	0.05	1002.217	1.698
313.15	0.055	0.025	1002.743	1.767
313.15	0.06	0	1002.854	1.722
313.15	0.05	0.1	1003.019	1.707
308.15	0.05	0	1003.047	1.723
313.15	0.055	0.05	1003.109	1.701
313.15	0.06	0.025	1003.645	1.723
313.15	0.065	0	1003.715	1.725
308.15	0.05	0.025	1003.771	1.768
313.15	0.055	0.1	1003.912	1.709
308.15	0.055	0	1003.925	1.721
313.15	0.06	0.05	1003.997	1.715
308.15	0.05	0.05	1004.205	1.744
313.15	0.065	0.025	1004.547	1.73
313.15	0.07	0	1004.621	1.734
308.15	0.055	0.025	1004.681	1.78
308.15	0.06	0	1004.792	1.726
313.15	0.06	0.1	1004.797	1.718
313.15	0.065	0.05	1004.885	1.724
303.15	0.05	0	1004.907	1.773
308.15	0.05	0.1	1005.061	1.754
308.15	0.055	0.05	1005.109	1.75
313.15	0.07	0.025	1005.453	1.738
303.15	0.05	0.025	1005.525	1.78
313.15	0.075	0	1005.584	1.746
308.15	0.06	0.025	1005.597	1.746
313.15	0.065	0.1	1005.682	1.726
308.15	0.065	0	1005.691	1.745
313.15	0.07	0.05	1005.787	1.733
303.15	0.055	0	1005.809	1.775
308.15	0.055	0.1	1005.957	1.758
303.15	0.05	0.05	1005.982	1.781
308.15	0.06	0.05	1006.015	1.744
313.15	0.075	0.025	1006.358	1.744
303.15	0.055	0.025	1006.449	1.784
313.15	0.08	0	1006.457	1.764
298.15	0.05	0	1006.5	1.78
308.15	0.065	0.025	1006.515	1.751
313.15	0.07	0.1	1006.579	1.738
308.15	0.07	0	1006.608	1.752
313.15	0.075	0.05	1006.698	1.743
303.15	0.06	0	1006.724	1.754
308.15	0.06	0.1	1006.855	1.738
303.15	0.05	0.1	1006.872	1.795
303.15	0.055	0.05	1006.923	1.793
308.15	0.065	0.05	1006.927	1.756
298.15	0.05	0.025	1007.065	1.796
313.15	0.08	0.025	1007.271	1.751
313.15	0.085	0	1007.354	1.772
303.15	0.06	0.025	1007.375	1.761
298.15	0.055	0	1007.404	1.779
308.15	0.07	0.025	1007.432	1.755
313.15	0.075	0.1	1007.484	1.75
308.15	0.075	0	1007.554	1.752
298.15	0.05	0.05	1007.593	1.813
313.15	0.08	0.05	1007.601	1.755
303.15	0.065	0	1007.609	1.759
308.15	0.065	0.1	1007.759	1.746
293.15	0.05	0	1007.768	1.754
303.15	0.055	0.1	1007.806	1.804
308.15	0.07	0.05	1007.857	1.767
303.15	0.06	0.05	1007.867	1.78
298.15	0.055	0.025	1008.005	1.805
313.15	0.085	0.025	1008.178	1.764
303.15	0.065	0.025	1008.293	1.768
298.15	0.06	0	1008.295	1.764
313.15	0.09	0	1008.325	1.786
293.15	0.05	0.025	1008.339	1.772
308.15	0.075	0.025	1008.341	1.758
313.15	0.08	0.1	1008.405	1.762
298.15	0.05	0.1	1008.423	1.798
308.15	0.08	0	1008.425	1.766
313.15	0.085	0.05	1008.514	1.766
298.15	0.055	0.05	1008.547	1.82
303.15	0.07	0	1008.561	1.759
308.15	0.07	0.1	1008.657	1.754
293.15	0.055	0	1008.681	1.757
303.15	0.06	0.1	1008.732	1.771
308.15	0.075	0.05	1008.796	1.778
303.15	0.065	0.05	1008.815	1.787
298.15	0.06	0.025	1008.947	1.786
293.15	0.05	0.05	1008.986	1.857
313.15	0.09	0.025	1009.089	1.763
298.15	0.065	0	1009.182	1.777
303.15	0.07	0.025	1009.215	1.772
308.15	0.08	0.025	1009.245	1.763
293.15	0.055	0.025	1009.279	1.776
308.15	0.085	0	1009.292	1.755
313.15	0.085	0.1	1009.322	1.775
298.15	0.055	0.1	1009.357	1.802
313.15	0.09	0.05	1009.449	1.775
303.15	0.075	0	1009.458	1.764
298.15	0.06	0.05	1009.501	1.797
308.15	0.075	0.1	1009.568	1.764
293.15	0.06	0	1009.587	1.779
303.15	0.065	0.1	1009.664	1.776
308.15	0.08	0.05	1009.735	1.786
303.15	0.07	0.05	1009.765	1.796
293.15	0.05	0.1	1009.785	1.8
298.15	0.065	0.025	1009.887	1.793
293.15	0.055	0.05	1009.969	1.875
303.15	0.075	0.025	1010.141	1.778
308.15	0.085	0.025	1010.151	1.773
298.15	0.07	0	1010.161	1.782
293.15	0.06	0.025	1010.221	1.795
313.15	0.1	0	1010.225	1.802
313.15	0.09	0.1	1010.254	1.782
308.15	0.09	0	1010.255	1.762
298.15	0.06	0.1	1010.292	1.784
303.15	0.08	0	1010.341	1.771
298.15	0.065	0.05	1010.455	1.806
308.15	0.08	0.1	1010.481	1.773
293.15	0.065	0	1010.491	1.78
303.15	0.07	0.1	1010.585	1.783
308.15	0.085	0.05	1010.673	1.794
303.15	0.075	0.05	1010.712	1.803
293.15	0.055	0.1	1010.739	1.808
298.15	0.07	0.025	1010.831	1.798
313.15	0.1	0.025	1010.913	1.74
293.15	0.06	0.05	1010.951	1.832
303.15	0.08	0.025	1011.057	1.787
308.15	0.09	0.025	1011.061	1.775
298.15	0.075	0	1011.103	1.799
293.15	0.065	0.025	1011.159	1.802
303.15	0.085	0	1011.226	1.795
298.15	0.065	0.1	1011.229	1.791
313.15	0.1	0.05	1011.313	1.791
308.15	0.085	0.1	1011.407	1.779
298.15	0.07	0.05	1011.415	1.818
293.15	0.07	0	1011.478	1.792
303.15	0.075	0.1	1011.513	1.788
308.15	0.09	0.05	1011.617	1.796
303.15	0.08	0.05	1011.671	1.812
293.15	0.06	0.1	1011.699	1.811
298.15	0.075	0.025	1011.773	1.804
293.15	0.065	0.05	1011.938	1.842
303.15	0.085	0.025	1011.975	1.797
298.15	0.08	0	1011.984	1.8
308.15	0.1	0	1011.991	1.793
293.15	0.07	0.025	1012.103	1.809
313.15	0.1	0.1	1012.125	1.798
298.15	0.07	0.1	1012.155	1.799
303.15	0.09	0	1012.185	1.803
308.15	0.09	0.1	1012.325	1.784
293.15	0.075	0	1012.359	1.799
298.15	0.075	0.05	1012.387	1.83
303.15	0.08	0.1	1012.447	1.798
303.15	0.085	0.05	1012.629	1.828
293.15	0.065	0.1	1012.661	1.819
298.15	0.08	0.025	1012.712	1.81
308.15	0.1	0.025	1012.875	1.763
303.15	0.09	0.025	1012.911	1.802
298.15	0.085	0	1012.929	1.804
293.15	0.07	0.05	1012.943	1.855
293.15	0.075	0.025	1013.045	1.818
298.15	0.075	0.1	1013.097	1.806
293.15	0.08	0	1013.3	1.802
298.15	0.08	0.05	1013.372	1.842
303.15	0.085	0.1	1013.376	1.807
308.15	0.1	0.05	1013.485	1.77
303.15	0.09	0.05	1013.595	1.83
293.15	0.07	0.1	1013.615	1.824
298.15	0.085	0.025	1013.655	1.817
298.15	0.09	0	1013.881	1.812
293.15	0.075	0.05	1013.947	1.866
293.15	0.08	0.025	1013.991	1.826
298.15	0.08	0.1	1014.045	1.817
303.15	0.1	0	1014.075	1.77
308.15	0.1	0.1	1014.149	1.793
293.15	0.085	0	1014.207	1.81
303.15	0.09	0.1	1014.321	1.808
298.15	0.085	0.05	1014.356	1.854
293.15	0.075	0.1	1014.578	1.828
298.15	0.09	0.025	1014.593	1.82
303.15	0.1	0.025	1014.769	1.805
293.15	0.085	0.025	1014.938	1.833
293.15	0.08	0.05	1014.965	1.874
298.15	0.085	0.1	1014.987	1.828
293.15	0.09	0	1015.177	1.813
298.15	0.09	0.05	1015.348	1.855
303.15	0.1	0.05	1015.533	1.783
293.15	0.08	0.1	1015.536	1.833
298.15	0.1	0	1015.701	1.771
293.15	0.09	0.025	1015.891	1.844
298.15	0.09	0.1	1015.943	1.832
293.15	0.085	0.05	1015.976	1.89
303.15	0.1	0.1	1016.178	1.774
298.15	0.1	0.025	1016.459	1.812
293.15	0.085	0.1	1016.492	1.839
293.15	0.09	0.05	1016.991	1.883
293.15	0.1	0	1016.991	1.815
298.15	0.1	0.05	1017.314	1.804
293.15	0.09	0.1	1017.441	1.845
293.15	0.1	0.025	1017.801	1.909
298.15	0.1	0.1	1017.854	1.826
293.15	0.1	0.05	1018.999	1.738
293.15	0.1	0.1	1019.365	1.86

System: L-leucine + D-raffinose + water; phases: Liquid
Fixed: Pressure, kPa = 101
Property: Speed of sound, m/s (Liquid); method: Pulse-echo method
Temperature, K	Molality, mol/kg of D-raffinose	Solvent: Molality, mol/kg of L-leucine	Speed of sound, m/s	uncertainty
293.15	0.05	0	1491.78	3.26
293.15	0.055	0	1492.62	3.28
293.15	0.06	0	1493.46	3.3
293.15	0.065	0	1494.3	3.32
293.15	0.07	0	1495.14	3.34
293.15	0.075	0	1495.98	3.37
293.15	0.05	0.025	1496.25	3.43
293.15	0.08	0	1496.82	3.39
293.15	0.055	0.025	1497.33	3.47
293.15	0.085	0	1497.65	3.42
293.15	0.06	0.025	1498.41	3.32
293.15	0.09	0	1498.48	3.45
293.15	0.05	0.05	1499.27	3.23
293.15	0.065	0.025	1499.5	3.33
293.15	0.1	0	1500.14	3.51
293.15	0.055	0.05	1500.28	3.22
293.15	0.07	0.025	1500.58	3.34
293.15	0.06	0.05	1501.3	3.24
293.15	0.075	0.025	1501.69	3.35
293.15	0.065	0.05	1502.32	3.24
293.15	0.08	0.025	1502.77	3.35
293.15	0.07	0.05	1503.31	3.23
293.15	0.085	0.025	1503.88	3.39
293.15	0.075	0.05	1504.32	3.23
293.15	0.09	0.025	1504.98	3.37
293.15	0.08	0.05	1505.29	3.23
293.15	0.05	0.1	1505.6	3.25
293.15	0.085	0.05	1506.31	3.23
293.15	0.055	0.1	1506.63	3.25
293.15	0.1	0.025	1507.18	3.14
293.15	0.09	0.05	1507.31	3.24
293.15	0.06	0.1	1507.67	3.25
293.15	0.065	0.1	1508.7	3.25
293.15	0.1	0.05	1509.4	3.36
293.15	0.07	0.1	1509.73	3.26
293.15	0.075	0.1	1510.76	3.26
293.15	0.08	0.1	1511.83	3.27
293.15	0.085	0.1	1512.86	3.26
293.15	0.09	0.1	1513.92	3.26
293.15	0.1	0.1	1515.98	3.26
298.15	0.075	0	1509.79	3.34
298.15	0.05	0.025	1509.85	3.41
298.15	0.08	0	1510.61	3.36
298.15	0.065	0	1508.15	3.31
298.15	0.055	0.025	1510.86	3.43
298.15	0.085	0	1511.43	3.4
298.15	0.05	0	1505.69	3.4
298.15	0.06	0.025	1511.87	3.28
298.15	0.09	0	1512.25	3.41
298.15	0.07	0	1508.98	3.32
298.15	0.065	0.025	1512.87	3.29
298.15	0.05	0.05	1512.87	3.32
298.15	0.07	0.025	1513.89	3.3
298.15	0.055	0.05	1513.89	3.33
298.15	0.1	0	1513.9	3.41
298.15	0.06	0	1507.33	3.29
298.15	0.075	0.025	1514.92	3.31
298.15	0.06	0.05	1514.92	3.25
298.15	0.08	0.025	1515.97	3.32
298.15	0.065	0.05	1515.97	3.25
298.15	0.055	0	1506.51	3.42
298.15	0.07	0.05	1516.99	3.25
298.15	0.085	0.025	1517.01	3.36
298.15	0.075	0.05	1517.98	3.24
298.15	0.09	0.025	1518.05	3.34
298.15	0.08	0.05	1518.97	3.24
298.15	0.05	0.1	1519.11	3.41
298.15	0.085	0.05	1519.98	3.25
298.15	0.055	0.1	1520.15	3.41
298.15	0.1	0.025	1520.19	3.18
298.15	0.09	0.05	1520.96	3.24
298.15	0.06	0.1	1521.19	3.25
298.15	0.065	0.1	1522.24	3.25
298.15	0.1	0.05	1522.98	3.2
298.15	0.07	0.1	1523.29	3.25
298.15	0.075	0.1	1524.32	3.25
298.15	0.08	0.1	1525.38	3.25
298.15	0.085	0.1	1526.42	3.27
298.15	0.09	0.1	1527.47	3.25
298.15	0.1	0.1	1529.56	3.11
303.15	0.08	0	1522.59	3.31
303.15	0.055	0.025	1522.63	3.37
303.15	0.06	0	1519.39	3.25
303.15	0.05	0	1517.8	3.35
303.15	0.085	0	1523.39	3.34
303.15	0.06	0.025	1523.6	3.26
303.15	0.09	0	1524.19	3.35
303.15	0.07	0	1520.99	3.28
303.15	0.065	0.025	1524.57	3.27
303.15	0.05	0.05	1524.88	3.34
303.15	0.055	0	1518.59	3.36
303.15	0.07	0.025	1525.55	3.28
303.15	0.1	0	1525.81	3.34
303.15	0.055	0.05	1525.89	3.34
303.15	0.05	0.025	1521.66	3.35
303.15	0.075	0.025	1526.52	3.29
303.15	0.06	0.05	1526.9	3.24
303.15	0.075	0	1521.79	3.3
303.15	0.08	0.025	1527.5	3.3
303.15	0.065	0.05	1527.89	3.24
303.15	0.085	0.025	1528.49	3.33
303.15	0.07	0.05	1528.92	3.24
303.15	0.09	0.025	1529.47	3.32
303.15	0.065	0	1520.18	3.27
303.15	0.075	0.05	1529.93	3.24
303.15	0.05	0.1	1530.69	3.34
303.15	0.08	0.05	1530.93	3.24
303.15	0.1	0.025	1531.52	3.2
303.15	0.055	0.1	1531.7	3.34
303.15	0.085	0.05	1531.96	3.25
303.15	0.06	0.1	1532.72	3.23
303.15	0.09	0.05	1532.95	3.24
303.15	0.065	0.1	1533.74	3.23
303.15	0.07	0.1	1534.77	3.23
303.15	0.1	0.05	1534.96	3.16
303.15	0.075	0.1	1535.79	3.23
303.15	0.08	0.1	1536.8	3.23
303.15	0.085	0.1	1537.85	3.25
303.15	0.09	0.1	1538.87	3.24
303.15	0.1	0.1	1540.97	3.14
308.15	0.07	0	1531.37	3.23
308.15	0.085	0	1533.67	3.27
308.15	0.06	0.025	1533.68	3.23
308.15	0.05	0	1528.28	3.31
308.15	0.09	0	1534.42	3.28
308.15	0.065	0.025	1534.58	3.24
308.15	0.065	0	1530.6	3.22
308.15	0.05	0.025	1531.88	3.29
308.15	0.05	0.05	1535.25	3.36
308.15	0.07	0.025	1535.48	3.26
308.15	0.055	0	1529.06	3.31
308.15	0.1	0	1535.95	3.26
308.15	0.055	0.05	1536.27	3.37
308.15	0.075	0.025	1536.41	3.27
308.15	0.075	0	1532.14	3.24
308.15	0.06	0.05	1537.31	3.24
308.15	0.08	0.025	1537.34	3.28
308.15	0.06	0	1529.83	3.21
308.15	0.085	0.025	1538.25	3.29
308.15	0.065	0.05	1538.34	3.24
308.15	0.055	0.025	1532.79	3.29
308.15	0.09	0.025	1539.17	3.29
308.15	0.07	0.05	1539.33	3.24
308.15	0.075	0.05	1540.34	3.24
308.15	0.05	0.1	1540.79	3.35
308.15	0.08	0	1532.9	3.25
308.15	0.1	0.025	1540.99	3.25
308.15	0.08	0.05	1541.35	3.25
308.15	0.055	0.1	1541.82	3.35
308.15	0.085	0.05	1542.39	3.27
308.15	0.06	0.1	1542.84	3.22
308.15	0.09	0.05	1543.41	3.25
308.15	0.065	0.1	1543.85	3.22
308.15	0.07	0.1	1544.9	3.22
308.15	0.1	0.05	1545.46	3.11
308.15	0.075	0.1	1545.91	3.22
308.15	0.08	0.1	1546.93	3.22
308.15	0.085	0.1	1547.92	3.23
308.15	0.09	0.1	1548.93	3.22
308.15	0.1	0.1	1550.98	3.11
313.15	0.085	0	1542.65	3.2
313.15	0.055	0	1538.07	3.17
313.15	0.065	0.025	1543.27	3.22
313.15	0.09	0	1543.4	3.21
313.15	0.06	0	1538.84	3.17
313.15	0.065	0	1539.61	3.18
313.15	0.05	0.05	1544.07	3.32
313.15	0.07	0.025	1544.13	3.23
313.15	0.075	0	1541.13	3.19
313.15	0.1	0	1544.91	3.22
313.15	0.075	0.025	1544.99	3.24
313.15	0.055	0.05	1545.1	3.35
313.15	0.05	0	1537.29	3.16
313.15	0.08	0.025	1545.84	3.25
313.15	0.055	0.025	1541.53	3.2
313.15	0.06	0.05	1546.13	3.24
313.15	0.085	0.025	1546.69	3.25
313.15	0.07	0	1540.38	3.18
313.15	0.065	0.05	1547.19	3.24
313.15	0.09	0.025	1547.54	3.26
313.15	0.08	0	1541.89	3.19
313.15	0.07	0.05	1548.21	3.25
313.15	0.05	0.025	1540.65	3.2
313.15	0.1	0.025	1549.22	3.34
313.15	0.075	0.05	1549.23	3.25
313.15	0.05	0.1	1549.36	3.22
313.15	0.08	0.05	1550.28	3.25
313.15	0.055	0.1	1550.37	3.23
313.15	0.06	0.025	1542.4	3.22
313.15	0.085	0.05	1551.31	3.27
313.15	0.06	0.1	1551.4	3.22
313.15	0.09	0.05	1552.31	3.25
313.15	0.065	0.1	1552.43	3.22
313.15	0.07	0.1	1553.44	3.22
313.15	0.1	0.05	1554.35	3.07
313.15	0.075	0.1	1554.46	3.21
313.15	0.08	0.1	1555.44	3.21
313.15	0.085	0.1	1556.44	3.2
313.15	0.09	0.1	1557.42	3.2
313.15	0.1	0.1	1559.36	3.2

System: L-leucine + water; phases: Liquid
Fixed: Pressure, kPa = 101
Property: Mass density, kg/m3 (Liquid); method: VIBTUB:UFactor:16
Temperature, K	Molality, mol/kg of L-leucine	Mass density, kg/m3	uncertainty
293.15	0.025	998.94	0.694
293.15	0.05	999.543	0.684
293.15	0.1	1000.596	0.682
298.15	0.025	997.765	0.7
298.15	0.05	998.36	0.69
298.15	0.1	999.369	0.681
303.15	0.1	997.956	0.688
303.15	0.025	996.352	0.705
303.15	0.05	996.938	0.696
308.15	0.025	994.719	0.704
308.15	0.05	995.302	0.703
308.15	0.1	996.293	0.696
313.15	0.05	993.464	0.709
313.15	0.025	992.893	0.698
313.15	0.1	994.341	0.699

System: L-leucine + water; phases: Liquid
Fixed: Pressure, kPa = 101
Property: Speed of sound, m/s (Liquid); method: Pulse-echo method
Temperature, K	Molality, mol/kg of L-leucine	Speed of sound, m/s	uncertainty
293.15	0.025	1486.25	2.36
293.15	0.05	1489.25	2.35
293.15	0.1	1495.22	2.35
298.15	0.025	1500.16	2.35
298.15	0.05	1502.94	2.35
298.15	0.1	1508.83	2.34
303.15	0.025	1512.29	2.34
303.15	0.05	1515.01	2.34
303.15	0.1	1520.59	2.32
308.15	0.025	1522.79	2.33
308.15	0.05	1525.41	2.33
308.15	0.1	1530.77	2.31
313.15	0.025	1531.73	2.31
313.15	0.05	1534.21	2.31
313.15	0.1	1539.37	2.32

System: D-ribose + water; phases: Liquid
Fixed: Pressure, kPa = 101
Property: Mass density, kg/m3 (Liquid); method: VIBTUB:UFactor:16
Temperature, K	Molality, mol/kg of D-ribose	Mass density, kg/m3	uncertainty
293.15	0.05	1001.068	0.7
293.15	0.055	1001.36	0.7
293.15	0.06	1001.651	0.701
293.15	0.065	1001.939	0.702
293.15	0.07	1002.229	0.704
293.15	0.075	1002.521	0.705
293.15	0.08	1002.815	0.707
293.15	0.085	1003.108	0.707
293.15	0.09	1003.4	0.708
293.15	0.1	1003.979	0.709
298.15	0.05	999.887	0.722
298.15	0.055	1000.174	0.72
298.15	0.06	1000.465	0.695
298.15	0.065	1000.749	0.697
298.15	0.07	1001.04	0.697
298.15	0.075	1001.33	0.699
298.15	0.08	1001.615	0.701
298.15	0.085	1001.911	0.704
298.15	0.09	1002.206	0.704
298.15	0.1	1002.786	0.681
303.15	0.07	999.606	0.69
303.15	0.075	999.887	0.689
303.15	0.08	1000.173	0.689
303.15	0.085	1000.465	0.692
303.15	0.09	1000.752	0.692
303.15	0.1	1001.325	0.674
303.15	0.05	998.463	0.723
303.15	0.055	998.749	0.72
303.15	0.06	999.035	0.695
303.15	0.065	999.317	0.692
308.15	0.1	999.652	0.665
308.15	0.075	998.237	0.696
308.15	0.065	997.667	0.7
308.15	0.08	998.519	0.694
308.15	0.07	997.954	0.698
308.15	0.085	998.806	0.693
308.15	0.09	999.089	0.689
308.15	0.05	996.819	0.728
308.15	0.055	997.103	0.726
308.15	0.06	997.383	0.702
313.15	0.05	994.955	0.713
313.15	0.07	996.076	0.704
313.15	0.055	995.237	0.71
313.15	0.06	995.517	0.708
313.15	0.075	996.357	0.702
313.15	0.1	997.754	0.693
313.15	0.08	996.637	0.701
313.15	0.085	996.917	0.698
313.15	0.065	995.796	0.706
313.15	0.09	997.196	0.697

System: D-ribose + water; phases: Liquid
Fixed: Pressure, kPa = 101
Property: Speed of sound, m/s (Liquid); method: Pulse-echo method
Temperature, K	Molality, mol/kg of D-ribose	Speed of sound, m/s	uncertainty
293.15	0.05	1485.21	2.39
293.15	0.055	1485.39	2.39
293.15	0.06	1485.58	2.4
293.15	0.065	1485.75	2.41
293.15	0.07	1485.92	2.41
293.15	0.075	1486.07	2.42
293.15	0.08	1486.22	2.43
293.15	0.085	1486.37	2.44
293.15	0.09	1486.5	2.46
293.15	0.1	1486.8	2.48
298.15	0.05	1499.21	2.48
298.15	0.055	1499.37	2.49
298.15	0.06	1499.51	2.42
298.15	0.065	1499.67	2.43
298.15	0.07	1499.82	2.44
298.15	0.075	1499.95	2.45
298.15	0.08	1500.09	2.46
298.15	0.085	1500.22	2.48
298.15	0.09	1500.35	2.49
298.15	0.1	1500.59	2.55
303.15	0.05	1511.34	2.44
303.15	0.055	1511.49	2.45
303.15	0.06	1511.63	2.4
303.15	0.065	1511.77	2.41
303.15	0.07	1511.89	2.42
303.15	0.075	1512.03	2.43
303.15	0.08	1512.15	2.44
303.15	0.085	1512.25	2.46
303.15	0.09	1512.36	2.47
303.15	0.1	1512.57	2.52
308.15	0.05	1521.9	2.42
308.15	0.055	1522.05	2.43
308.15	0.06	1522.19	2.38
308.15	0.065	1522.33	2.39
308.15	0.07	1522.46	2.4
308.15	0.075	1522.59	2.41
308.15	0.08	1522.73	2.42
308.15	0.085	1522.84	2.44
308.15	0.09	1522.97	2.45
308.15	0.1	1523.19	2.5
313.15	0.05	1530.87	2.32
313.15	0.055	1531.01	2.33
313.15	0.06	1531.15	2.34
313.15	0.065	1531.29	2.34
313.15	0.07	1531.43	2.35
313.15	0.075	1531.57	2.36
313.15	0.08	1531.7	2.37
313.15	0.085	1531.83	2.38
313.15	0.09	1531.97	2.39
313.15	0.1	1532.23	2.41

System: D-maltose + water; phases: Liquid
Fixed: Pressure, kPa = 101
Property: Mass density, kg/m3 (Liquid); method: VIBTUB:UFactor:16
Temperature, K	Molality, mol/kg of D-maltose	Mass density, kg/m3	uncertainty
313.15	0.05	998.275	0.912
313.15	0.055	998.854	0.911
313.15	0.06	999.414	0.911
313.15	0.065	999.995	0.911
308.15	0.05	1000.122	0.945
313.15	0.07	1000.565	0.916
308.15	0.055	1000.748	0.951
313.15	0.075	1001.157	0.915
308.15	0.06	1001.373	0.963
313.15	0.08	1001.724	0.912
308.15	0.065	1001.996	0.964
303.15	0.05	1002.072	1.045
313.15	0.085	1002.29	0.899
308.15	0.07	1002.618	0.965
303.15	0.055	1002.707	1.045
313.15	0.09	1002.835	0.899
308.15	0.075	1003.238	0.965
303.15	0.06	1003.34	0.978
298.15	0.05	1003.591	1.013
308.15	0.08	1003.857	0.966
313.15	0.1	1003.907	0.897
303.15	0.065	1003.972	0.978
298.15	0.055	1004.239	1.008
308.15	0.085	1004.475	0.969
303.15	0.07	1004.602	0.979
298.15	0.06	1004.885	0.997
293.15	0.05	1004.991	1.045
308.15	0.09	1005.091	0.968
303.15	0.075	1005.231	0.98
298.15	0.065	1005.53	0.998
293.15	0.055	1005.688	1.047
303.15	0.08	1005.858	0.981
298.15	0.07	1006.173	0.999
308.15	0.1	1006.32	0.917
293.15	0.06	1006.385	1.049
303.15	0.085	1006.484	0.987
298.15	0.075	1006.815	1
293.15	0.065	1007.082	1.051
303.15	0.09	1007.109	0.983
298.15	0.08	1007.456	1.002
293.15	0.07	1007.779	1.053
298.15	0.085	1008.095	1
303.15	0.1	1008.354	0.931
293.15	0.075	1008.476	1.056
298.15	0.09	1008.733	1.005
293.15	0.08	1009.173	1.058
293.15	0.085	1009.87	1.059
298.15	0.1	1010.004	1.054
293.15	0.09	1010.567	1.061
293.15	0.1	1011.954	1.065

System: D-maltose + water; phases: Liquid
Fixed: Pressure, kPa = 101
Property: Speed of sound, m/s (Liquid); method: Pulse-echo method
Temperature, K	Molality, mol/kg of D-maltose	Speed of sound, m/s	uncertainty
293.15	0.05	1488.15	2.43
293.15	0.055	1488.74	2.41
293.15	0.06	1489.33	2.4
293.15	0.065	1489.89	2.39
293.15	0.07	1490.45	2.38
293.15	0.075	1491.01	2.38
293.15	0.08	1491.61	2.37
293.15	0.085	1492.17	2.37
293.15	0.09	1492.75	2.36
293.15	0.1	1493.97	2.36
298.15	0.05	1502.13	2.59
298.15	0.075	1504.79	2.42
298.15	0.06	1503.21	2.43
298.15	0.08	1505.43	2.41
298.15	0.055	1502.67	2.57
298.15	0.085	1505.95	2.42
298.15	0.065	1503.71	2.42
298.15	0.09	1506.53	2.4
298.15	0.1	1507.65	2.33
298.15	0.07	1504.25	2.42
303.15	0.075	1516.87	2.42
303.15	0.055	1514.74	2.54
303.15	0.08	1517.4	2.41
303.15	0.085	1517.93	2.43
303.15	0.065	1515.81	2.42
303.15	0.09	1518.46	2.42
303.15	0.05	1514.21	2.55
303.15	0.07	1516.34	2.42
303.15	0.1	1519.59	2.36
303.15	0.06	1515.28	2.43
308.15	0.08	1527.87	2.43
308.15	0.065	1526.28	2.43
308.15	0.085	1528.31	2.45
308.15	0.05	1524.77	2.55
308.15	0.09	1528.85	2.44
308.15	0.07	1526.79	2.43
308.15	0.06	1525.81	2.42
308.15	0.1	1530.02	2.39
308.15	0.075	1527.33	2.43
308.15	0.055	1525.27	2.54
313.15	0.065	1535.15	2.4
313.15	0.085	1536.98	2.41
313.15	0.07	1535.57	2.4
313.15	0.09	1537.47	2.42
313.15	0.05	1533.73	2.39
313.15	0.06	1534.65	2.39
313.15	0.1	1538.48	2.42
313.15	0.075	1536.05	2.4
313.15	0.055	1534.19	2.4
313.15	0.08	1536.51	2.41

System: D-raffinose + water; phases: Liquid
Fixed: Pressure, kPa = 101
Property: Mass density, kg/m3 (Liquid); method: VIBTUB:UFactor:16
Temperature, K	Molality, mol/kg of D-raffinose	Mass density, kg/m3	uncertainty
313.15	0.05	1001.021	1.724
313.15	0.055	1001.992	1.687
313.15	0.06	1002.854	1.722
308.15	0.05	1003.047	1.723
313.15	0.065	1003.715	1.725
308.15	0.055	1003.925	1.721
313.15	0.07	1004.621	1.734
308.15	0.06	1004.792	1.726
303.15	0.05	1004.907	1.773
313.15	0.075	1005.584	1.746
308.15	0.065	1005.691	1.745
303.15	0.055	1005.809	1.775
313.15	0.08	1006.457	1.764
298.15	0.05	1006.5	1.78
308.15	0.07	1006.608	1.752
303.15	0.06	1006.724	1.754
313.15	0.085	1007.354	1.772
298.15	0.055	1007.404	1.779
308.15	0.075	1007.554	1.752
303.15	0.065	1007.609	1.759
293.15	0.05	1007.768	1.754
298.15	0.06	1008.295	1.764
313.15	0.09	1008.325	1.786
308.15	0.08	1008.425	1.766
303.15	0.07	1008.561	1.759
293.15	0.055	1008.681	1.757
298.15	0.065	1009.182	1.777
308.15	0.085	1009.292	1.755
303.15	0.075	1009.458	1.764
293.15	0.06	1009.587	1.779
298.15	0.07	1010.161	1.782
313.15	0.1	1010.225	1.802
308.15	0.09	1010.255	1.762
303.15	0.08	1010.341	1.771
293.15	0.065	1010.491	1.78
298.15	0.075	1011.103	1.799
303.15	0.085	1011.226	1.795
293.15	0.07	1011.478	1.792
298.15	0.08	1011.984	1.8
308.15	0.1	1011.991	1.793
303.15	0.09	1012.185	1.803
293.15	0.075	1012.359	1.799
298.15	0.085	1012.929	1.804
293.15	0.08	1013.3	1.802
298.15	0.09	1013.881	1.812
303.15	0.1	1014.075	1.77
293.15	0.085	1014.207	1.81
293.15	0.09	1015.177	1.813
298.15	0.1	1015.701	1.771
293.15	0.1	1016.991	1.815

System: D-raffinose + water; phases: Liquid
Fixed: Pressure, kPa = 101
Property: Speed of sound, m/s (Liquid); method: Pulse-echo method
Temperature, K	Molality, mol/kg of D-raffinose	Speed of sound, m/s	uncertainty
293.15	0.05	1491.78	3.26
293.15	0.055	1492.62	3.28
293.15	0.06	1493.46	3.3
293.15	0.065	1494.3	3.32
293.15	0.07	1495.14	3.34
293.15	0.075	1495.98	3.37
293.15	0.08	1496.82	3.39
293.15	0.085	1497.65	3.42
293.15	0.09	1498.48	3.45
293.15	0.1	1500.14	3.51
298.15	0.075	1509.79	3.34
298.15	0.08	1510.61	3.36
298.15	0.065	1508.15	3.31
298.15	0.085	1511.43	3.4
298.15	0.05	1505.69	3.4
298.15	0.09	1512.25	3.41
298.15	0.07	1508.98	3.32
298.15	0.1	1513.9	3.41
298.15	0.06	1507.33	3.29
298.15	0.055	1506.51	3.42
303.15	0.08	1522.59	3.31
303.15	0.06	1519.39	3.25
303.15	0.05	1517.8	3.35
303.15	0.085	1523.39	3.34
303.15	0.09	1524.19	3.35
303.15	0.07	1520.99	3.28
303.15	0.055	1518.59	3.36
303.15	0.1	1525.81	3.34
303.15	0.075	1521.79	3.3
303.15	0.065	1520.18	3.27
308.15	0.07	1531.37	3.23
308.15	0.085	1533.67	3.27
308.15	0.05	1528.28	3.31
308.15	0.09	1534.42	3.28
308.15	0.065	1530.6	3.22
308.15	0.055	1529.06	3.31
308.15	0.1	1535.95	3.26
308.15	0.075	1532.14	3.24
308.15	0.06	1529.83	3.21
308.15	0.08	1532.9	3.25
313.15	0.085	1542.65	3.2
313.15	0.055	1538.07	3.17
313.15	0.09	1543.4	3.21
313.15	0.06	1538.84	3.17
313.15	0.065	1539.61	3.18
313.15	0.075	1541.13	3.19
313.15	0.1	1544.91	3.22
313.15	0.05	1537.29	3.16
313.15	0.07	1540.38	3.18
313.15	0.08	1541.89	3.19
