Measured thermophysical data. SO2 Solubility in 50 wt % H2SO4 at Elevated Temperatures and Pressures
Source: J. Chem. Eng. Data, 2014, 10.1021/je4002366
Compound 1: sulfur dioxide, O2S, InChI=1S/O2S/c1-3-2, purity 98%
Compound 2: water, H2O, InChI=1S/H2O/h1H2, purity 99.9%
Compound 3: sulfuric acid, H2O4S, InChI=1S/H2O4S/c1-5(2,3)4/h(H2,1,2,3,4)

System: sulfur dioxide + water; phases: Liquid, Gas
Fixed: Temperature, K = 313.15
Property: Molality, mol/kg of sulfur dioxide (Liquid); method: Pressure drop
Pressure, kPa of sulfur dioxide	Molality, mol/kg of sulfur dioxide	uncertainty
37.1	0.18	0.04
44.7	0.17	0.03
55.9	0.34	0.07
62.1	0.35	0.07
77.2	0.52	0.1
87.1	0.5	0.1
93.1	0.65	0.13
110.6	0.79	0.16
123	0.92	0.08
132.5	1.08	0.22
149.9	1.26	0.25
183.6	1.44	0.29

System: sulfur dioxide + sulfuric acid + water; phases: Liquid, Gas
Fixed: Solvent: Mass fraction of sulfuric acid = 0.5
Property: Mass ratio of solute to solvent of sulfur dioxide (Liquid); method: Pressure drop
Temperature, K	Pressure, kPa of sulfur dioxide	Mass ratio of solute to solvent of sulfur dioxide	uncertainty
303.15	18.8	0.0055	0.0011
303.15	33.6	0.0102	0.002
303.15	46.8	0.0149	0.003
303.15	59.9	0.0191	0.0038
303.15	69.9	0.0229	0.0046
303.15	82.5	0.0269	0.0054
303.15	88.8	0.0303	0.0061
303.15	97.7	0.0334	0.0067
303.15	112.5	0.0382	0.0076
303.15	125.2	0.0433	0.0087
303.15	142.6	0.0491	0.0098
303.15	154.6	0.0531	0.0106
303.15	170.2	0.0584	0.0117
303.15	184.2	0.0627	0.0125
303.15	196.1	0.0667	0.0133
303.15	206.5	0.0708	0.0142
303.15	217.3	0.0743	0.0149
303.15	226.4	0.0777	0.0155
303.15	240.1	0.0819	0.0164
303.15	247	0.0852	0.017
303.15	257.9	0.089	0.0178
303.15	265.3	0.0914	0.0183
303.15	270	0.0937	0.0187
303.15	276.6	0.0955	0.0191
303.15	280.5	0.0974	0.0195
303.15	282.4	0.0979	0.0196
303.15	288.5	0.0999	0.02
303.15	292.5	0.101	0.02
303.15	299	0.103	0.021
303.15	304.6	0.105	0.021
303.15	310.1	0.107	0.021
303.15	316.4	0.111	0.022
303.15	323.1	0.112	0.022
303.15	326.9	0.114	0.023
303.15	330.7	0.115	0.023
303.15	338.9	0.119	0.024
303.15	342.9	0.121	0.024
303.15	346.6	0.122	0.024
303.15	349.2	0.124	0.025
303.15	351.4	0.125	0.025
303.15	353	0.126	0.025
303.15	357.9	0.128	0.026
303.15	362.8	0.129	0.026
303.15	365.4	0.129	0.026
303.15	365.8	0.131	0.026
323.15	49.4	0.0046	0.0009
323.15	82	0.0086	0.0017
323.15	108.9	0.0119	0.0024
323.15	136.1	0.0146	0.0029
323.15	159.2	0.0168	0.0034
323.15	186.1	0.0195	0.0039
323.15	220	0.0237	0.0047
323.15	246.1	0.0274	0.0055
323.15	279.1	0.0328	0.0066
323.15	308	0.0379	0.0076
323.15	337.4	0.043	0.0086
323.15	381.8	0.0501	0.01
323.15	418.3	0.0562	0.0112
323.15	450.8	0.0617	0.0123
323.15	492.8	0.0673	0.0135
323.15	522.2	0.0725	0.0145
323.15	542.3	0.0754	0.0151
323.15	553.2	0.0779	0.0156
323.15	572.2	0.0802	0.016
323.15	582.1	0.0826	0.0165
323.15	593.6	0.0845	0.0169
323.15	599.2	0.0863	0.0173
323.15	607.6	0.0882	0.0176
323.15	617.6	0.0891	0.0178
353.15	96.5	0.0011	0.0002
353.15	141.9	0.0019	0.0004
353.15	192.6	0.0041	0.0008
353.15	258.2	0.0076	0.0015
353.15	386	0.0117	0.0023
353.15	478.6	0.0168	0.0034
353.15	602.6	0.023	0.0046
353.15	682	0.029	0.0058
353.15	736.8	0.035	0.007
353.15	816.3	0.0418	0.0084
353.15	890.4	0.0492	0.0098
353.15	935.1	0.0562	0.0112
353.15	956.7	0.0631	0.0126
353.15	1005	0.0706	0.0141
353.15	1027	0.078	0.0156
