Measured thermophysical data. Diffusion Coefficients of Isobutylbenzene, sec-Butylbenzene, and 3-Methylbutylbenzene in Supercritical Carbon Dioxide
Source: J. Chem. Eng. Data, 2013, 10.1021/je400336p
Compound 1: (1-methylpropyl)benzene, C10H14, InChI=1S/C10H14/c1-3-9(2)10-7-5-4-6-8-10/h4-9H,3H2,1-2H3
Compound 2: (2-methylpropyl)benzene, C10H14, InChI=1S/C10H14/c1-9(2)8-10-6-4-3-5-7-10/h3-7,9H,8H2,1-2H3
Compound 3: (3-methylbutyl)benzene, C11H16, InChI=1S/C11H16/c1-10(2)8-9-11-6-4-3-5-7-11/h3-7,10H,8-9H2,1-2H3
Compound 4: carbon dioxide, CO2, InChI=1S/CO2/c2-1-3

System: carbon dioxide + (2-methylpropyl)benzene; phases: Fluid (supercritical or subcritical phases)
Fixed: Mole fraction of (2-methylpropyl)benzene = 0
Property: Binary diffusion coefficient, m2/s (Fluid (supercritical or subcritical phases)); method: Taylor dispersion method
Temperature, K	Pressure, kPa	Binary diffusion coefficient, m2/s	uncertainty
313	15000	1.024e-08	0.58
313	20000	9.12e-09	0.45
313	25000	8.35e-09	0.32
313	30000	7.6e-09	0.35
313	35000	7.28e-09	0.28
323	15000	1.242e-08	0.79
323	20000	1.026e-08	0.6
323	25000	9.43e-09	0.34
323	30000	8.64e-09	0.43
323	35000	8.07e-09	0.45
333	15000	1.401e-08	0.66
333	20000	1.239e-08	0.6
333	25000	1.071e-08	0.44
333	30000	9.88e-09	0.35
333	35000	9.37e-09	0.36

System: carbon dioxide + (1-methylpropyl)benzene; phases: Fluid (supercritical or subcritical phases)
Fixed: Mole fraction of (1-methylpropyl)benzene = 0
Property: Binary diffusion coefficient, m2/s (Fluid (supercritical or subcritical phases)); method: Taylor dispersion method
Temperature, K	Pressure, kPa	Binary diffusion coefficient, m2/s	uncertainty
313	15000	1.014e-08	0.44
313	20000	9.15e-09	0.92
313	25000	8.18e-09	0.32
313	30000	7.54e-09	0.25
313	35000	7.24e-09	0.34
323	15000	1.198e-08	0.52
323	20000	1.02e-08	0.45
323	25000	9.3e-09	0.39
323	30000	8.54e-09	0.27
323	35000	8.07e-09	0.25
333	15000	1.321e-08	0.63
333	20000	1.185e-08	0.64
333	25000	1.043e-08	0.44
333	30000	9.49e-09	0.37
333	35000	8.98e-09	0.35

System: carbon dioxide + (3-methylbutyl)benzene; phases: Fluid (supercritical or subcritical phases)
Fixed: Mole fraction of (3-methylbutyl)benzene = 0
Property: Binary diffusion coefficient, m2/s (Fluid (supercritical or subcritical phases)); method: Taylor dispersion method
Temperature, K	Pressure, kPa	Binary diffusion coefficient, m2/s	uncertainty
313	15000	9.63e-09	0.63
313	20000	8.71e-09	0.49
313	25000	7.72e-09	0.3
313	30000	7.24e-09	0.36
313	35000	6.79e-09	0.27
323	15000	1.109e-08	0.44
323	20000	9.92e-09	0.43
323	25000	8.94e-09	0.36
323	30000	8.4e-09	0.31
323	35000	7.57e-09	0.35
333	15000	1.317e-08	0.98
333	20000	1.162e-08	0.56
333	25000	1.017e-08	0.43
333	30000	9.21e-09	0.36
333	35000	8.62e-09	0.44
