Measured thermophysical data. Vapor Liquid Equilibrium (VLE) Data and Thermodynamic Modeling for Binary Systems Containing Perfluorobutane (R610) with Carbon Monoxide or Nitric Oxide at (293, 313, and 333) K
Source: J. Chem. Eng. Data, 2014, 10.1021/je400822m
Compound 1: decafluorobutane, C4F10, InChI=1S/C4F10/c5-1(6,3(9,10)11)2(7,8)4(12,13)14
Compound 2: carbon monoxide, CO, InChI=1S/CO/c1-2
Compound 3: nitrogen oxide (NO), NO, InChI=1S/NO/c1-2

System: decafluorobutane + carbon monoxide; phases: Liquid, Gas
Property: Vapor or sublimation pressure, kPa (Liquid); method: Closed cell (Static) method
Mole fraction of carbon monoxide	Temperature, K	Vapor or sublimation pressure, kPa	uncertainty
0.041	293.48	1436.2	687.8
0.057	293.48	1867.5	680.8
0.087	293.48	2653	702
0.121	293.48	3594.4	746.1
0.156	293.48	4632.1	735.3
0.192	293.48	5601.9	782
0.229	293.48	6825.3	844
0.275	293.48	8296	746.3
0.337	293.48	9935.7	783.4
0.402	293.48	12112.9	789.1
0.486	293.48	14464.3	695.6
0.519	293.48	15192.1	605.7
0.558	293.48	16129.9	628.9
0.021	313.44	965.1	587
0.058	313.44	2009.9	739.1
0.091	313.44	3003.1	729.9
0.13	313.44	3994.4	737.7
0.163	313.44	4997	788
0.199	313.44	6003.6	758.8
0.276	313.44	8112.1	716.2
0.349	313.44	10131.5	723.5
0.414	313.44	11870.2	690.6
0.441	313.44	12522.7	564.8
0.461	313.44	12987.5	445.7
0.516	313.44	13661.2	244.4
0.593	313.44	14170.6	182
0.031	333.33	1454	586.1
0.08	333.33	2558.5	574.6
0.124	333.33	3507.9	618.3
0.152	333.33	4285.6	606.3
0.189	333.33	5033.8	593.7
0.219	333.33	5821.1	681.4
0.247	333.33	6552.5	657.6
0.275	333.33	7236	591.8
0.303	333.33	7825	559.8
0.34	333.33	8631.6	568.1
0.395	333.33	9830.5	454.6
0.45	333.33	10545.8	283.3
0.516	333.33	11138.3	238.3

System: decafluorobutane + carbon monoxide; phases: Gas, Liquid
Property: Mole fraction of carbon monoxide (Gas); method: Chromatography
Mole fraction of carbon monoxide	Temperature, K	Mole fraction of carbon monoxide	uncertainty
0.041	293.48	0.807	0.045
0.057	293.48	0.829	0.046
0.087	293.48	0.872	0.036
0.121	293.48	0.8899	0.0289
0.156	293.48	0.905	0.027
0.192	293.48	0.911	0.026
0.229	293.48	0.913	0.026
0.275	293.48	0.916	0.026
0.337	293.48	0.921	0.026
0.402	293.48	0.902	0.027
0.486	293.48	0.877	0.027
0.519	293.48	0.862	0.03
0.558	293.48	0.837	0.031
0.021	313.44	0.502	0.132
0.058	313.44	0.735	0.11
0.091	313.44	0.785	0.04
0.13	313.44	0.812	0.032
0.163	313.44	0.832	0.029
0.199	313.44	0.842	0.027
0.276	313.44	0.851	0.026
0.349	313.44	0.841	0.027
0.414	313.44	0.819	0.028
0.441	313.44	0.807	0.029
0.461	313.44	0.796	0.029
0.516	313.44	0.771	0.028
0.593	313.44	0.747	0.028
0.031	333.33	0.434	0.105
0.08	333.33	0.626	0.08
0.124	333.33	0.701	0.046
0.152	333.33	0.73	0.032
0.189	333.33	0.748	0.029
0.219	333.33	0.762	0.028
0.247	333.33	0.77	0.027
0.275	333.33	0.772	0.026
0.303	333.33	0.772	0.026
0.34	333.33	0.765	0.027
0.395	333.33	0.748	0.027
0.45	333.33	0.732	0.03
0.516	333.33	0.684	0.033

System: decafluorobutane + nitrogen oxide (NO); phases: Liquid, Gas
Property: Vapor or sublimation pressure, kPa (Liquid); method: Closed cell (Static) method
Mole fraction of nitrogen oxide (NO)	Temperature, K	Vapor or sublimation pressure, kPa	uncertainty
0.073	292.97	1762.4	409.5
0.094	292.97	2299.8	392
0.13	292.97	3161.9	366.8
0.153	292.97	3645.3	398.7
0.204	292.97	4984	360.8
0.278	292.97	6479.9	356.1
0.352	292.97	8265.9	401.3
0.401	292.97	9560.6	433.5
0.445	292.97	10774.4	425.7
0.495	292.97	12048.2	355.8
0.572	292.97	13591.5	256.7
0.675	292.97	14893.9	192.7
0.73	292.97	15369.1	151.3
0.033	312.93	1014.5	383.1
0.078	312.93	2083.1	364.3
0.126	312.93	3137.8	339.7
0.175	312.93	4137	342.8
0.229	312.93	5379.7	304.2
0.308	312.93	6758.4	337
0.36	312.93	8210.4	423.2
0.42	312.93	9705.4	376.7
0.507	312.93	11685.3	259.5
0.636	312.93	13264.8	203.4
0.044	332.97	1612.2	377
0.08	332.97	2460.2	350.8
0.125	332.97	3391.3	332.1
0.163	332.97	4180.8	339.4
0.202	332.97	5021.9	365.2
0.244	332.97	6024.5	366.9
0.306	332.97	7404.6	343.7
0.376	332.97	8848	320.9
0.435	332.97	9968.7	239
0.495	332.97	10596.6	173.6

System: decafluorobutane + nitrogen oxide (NO); phases: Gas, Liquid
Property: Mole fraction of nitrogen oxide (NO) (Gas); method: Chromatography
Mole fraction of nitrogen oxide (NO)	Temperature, K	Mole fraction of nitrogen oxide (NO)	uncertainty
0.073	292.97	0.823	0.026
0.094	292.97	0.849	0.022
0.13	292.97	0.879	0.019
0.153	292.97	0.888	0.017
0.204	292.97	0.905	0.016
0.278	292.97	0.91	0.016
0.352	292.97	0.908	0.016
0.401	292.97	0.9	0.016
0.445	292.97	0.894	0.016
0.495	292.97	0.888	0.016
0.572	292.97	0.874	0.017
0.675	292.97	0.832	0.018
0.73	292.97	0.787	0.021
0.033	312.93	0.524	0.072
0.078	312.93	0.722	0.049
0.126	312.93	0.793	0.022
0.175	312.93	0.811	0.018
0.229	312.93	0.835	0.017
0.308	312.93	0.845	0.016
0.36	312.93	0.845	0.016
0.42	312.93	0.841	0.016
0.507	312.93	0.825	0.016
0.636	312.93	0.796	0.017
0.044	332.97	0.447	0.059
0.08	332.97	0.575	0.043
0.125	332.97	0.652	0.029
0.163	332.97	0.698	0.022
0.202	332.97	0.719	0.018
0.244	332.97	0.736	0.017
0.306	332.97	0.745	0.017
0.376	332.97	0.736	0.017
0.435	332.97	0.721	0.017
0.495	332.97	0.705	0.017
