Measured thermophysical data. Solubility of 1-Fluoro-4-(methylsulfonyl)benzene in Five Pure Organic Solvents at Temperatures from (288.40 to 331.50) K
Source: J. Chem. Eng. Data, 2014, 10.1021/je400965y
Compound 1: 1-fluoro-4-(methylsulfonyl)benzene, C7H7FO2S, InChI=1S/C7H7FO2S/c1-11(9,10)7-4-2-6(8)3-5-7/h2-5H,1H3, purity 99%
Compound 2: trichloromethane, CHCl3, InChI=1S/CHCl3/c2-1(3)4/h1H, purity 99.6%
Compound 3: acetone, C3H6O, InChI=1S/C3H6O/c1-3(2)4/h1-2H3, purity 99.5%
Compound 4: toluene, C7H8, InChI=1S/C7H8/c1-7-5-3-2-4-6-7/h2-6H,1H3, purity 99.5%
Compound 5: ethyl acetate, C4H8O2, InChI=1S/C4H8O2/c1-3-6-4(2)5/h3H2,1-2H3, purity 99.5%
Compound 6: ethanol, C2H6O, InChI=1S/C2H6O/c1-2-3/h3H,2H2,1H3, purity 99.7%

System: trichloromethane + 1-fluoro-4-(methylsulfonyl)benzene; phases: Liquid, Crystal
Fixed: Pressure, kPa = 101
Property: Mole fraction of 1-fluoro-4-(methylsulfonyl)benzene (Liquid); method: Titration method
Temperature, K	Mole fraction of 1-fluoro-4-(methylsulfonyl)benzene	uncertainty
288.4	0.2293	0.02
293.25	0.2622	0.02
299.93	0.3121	0.02
311.58	0.4136	0.02
318.81	0.4882	0.02
325.59	0.5804	0.02
305	0.352	0.02

System: acetone + 1-fluoro-4-(methylsulfonyl)benzene; phases: Liquid, Crystal
Fixed: Pressure, kPa = 101
Property: Mole fraction of 1-fluoro-4-(methylsulfonyl)benzene (Liquid); method: Titration method
Temperature, K	Mole fraction of 1-fluoro-4-(methylsulfonyl)benzene	uncertainty
290.53	0.2259	0.02
298.3	0.2823	0.02
304.2	0.3306	0.02
311.34	0.3968	0.02
318.23	0.4694	0.02
325.48	0.5621	0.02

System: toluene + 1-fluoro-4-(methylsulfonyl)benzene; phases: Liquid, Crystal
Fixed: Pressure, kPa = 101
Property: Mole fraction of 1-fluoro-4-(methylsulfonyl)benzene (Liquid); method: Titration method
Temperature, K	Mole fraction of 1-fluoro-4-(methylsulfonyl)benzene	uncertainty
290.84	0.0422	0.02
298.86	0.0744	0.02
304.15	0.1049	0.02
306.87	0.1248	0.02
311.03	0.1617	0.02
316.37	0.2301	0.02
320.15	0.2882	0.02

System: ethyl acetate + 1-fluoro-4-(methylsulfonyl)benzene; phases: Liquid, Crystal
Fixed: Pressure, kPa = 101
Property: Mole fraction of 1-fluoro-4-(methylsulfonyl)benzene (Liquid); method: Titration method
Temperature, K	Mole fraction of 1-fluoro-4-(methylsulfonyl)benzene	uncertainty
293.28	0.1886	0.02
299.67	0.2299	0.02
305.75	0.2778	0.02
313.05	0.3496	0.02
319.76	0.4234	0.02
326.15	0.5126	0.02
331.5	0.6002	0.02

System: ethanol + 1-fluoro-4-(methylsulfonyl)benzene; phases: Liquid, Crystal
Fixed: Pressure, kPa = 101
Property: Mole fraction of 1-fluoro-4-(methylsulfonyl)benzene (Liquid); method: Titration method
Temperature, K	Mole fraction of 1-fluoro-4-(methylsulfonyl)benzene	uncertainty
291.07	0.0162	0.0162
297.34	0.0302	0.02
303.07	0.0471	0.02
308.66	0.0744	0.02
314.54	0.1283	0.02
320.93	0.2163	0.02
326.65	0.3431	0.02
