Measured thermophysical data. Determination of the Relative Permittivity of Heptane at Temperatures between (303 and 363) K and Pressures below 60 MPa with a Concentric Cylinder Capacitor at a Frequency of 1 kHz
Source: J. Chem. Eng. Data, 2013, 10.1021/je400468z
Compound 1: heptane, C7H16, InChI=1S/C7H16/c1-3-5-7-6-4-2/h3-7H2,1-2H3, purity 99.5%

System: heptane; phases: Liquid
Fixed: Frequency, MHz = 0.001
Property: Relative permittivity at various frequencies (Liquid); method: Coaxial cylinder capacitor
Temperature, K	Pressure, kPa	Relative permittivity at various frequencies	uncertainty
303.56	320.13	1.90973	0.00074
303.56	1121.52	1.91097	0.00073
303.56	5049.5	1.9172	0.00073
303.56	10111.4	1.92498	0.00073
303.56	20218.2	1.93899	0.00074
303.56	20218.6	1.93899	0.00074
303.56	30314.6	1.95162	0.00073
303.56	30316.7	1.95171	0.00073
303.56	40408	1.96324	0.00073
303.56	50515.2	1.97403	0.00075
303.56	60607.5	1.98391	0.00075
333.15	327.25	1.86971	0.00075
333.15	1134.13	1.87125	0.00074
333.15	5058.11	1.87892	0.00074
333.15	5509.03	1.87899	0.00074
333.15	10118.5	1.88834	0.00073
333.15	10121.8	1.88832	0.00073
333.15	20229.9	1.90484	0.00074
333.15	20231.6	1.90482	0.00074
333.15	30328.2	1.91944	0.00074
333.15	30327.2	1.91942	0.00074
333.15	40419.1	1.93256	0.00073
333.15	50511.4	1.9444	0.00073
333.15	60624.8	1.95543	0.00075
363.01	328.75	1.82615	0.00073
363.01	1137.95	1.82815	0.00073
363.01	5062.52	1.83787	0.00072
363.01	5057.64	1.83786	0.00072
363.01	10124.7	1.84924	0.00074
363.01	20232	1.86884	0.00073
363.01	20232.1	1.86885	0.00073
363.01	30331.5	1.88575	0.00072
363.01	30329.8	1.8855	0.00072
363.01	40413.2	1.90054	0.00074
363.01	50513.4	1.9141	0.00073
363.01	60612.4	1.9264	0.00073
363.01	60613.4	1.92636	0.00073
