Measured thermophysical data. Determination and Correlation of Solubilities of (S)-Indoline-2-carboxylic Acid in Six Different Solvents from (283.15 to 358.15) K
Source: J. Chem. Eng. Data, 2013, 10.1021/je400188h
Compound 1: (S)-indoline-2-carboxylic acid, C9H9NO2, InChI=1S/C9H9NO2/c11-9(12)8-5-6-3-1-2-4-7(6)10-8/h1-4,8,10H,5H2,(H,11,12)/t8-/m0/s1
Compound 2: water, H2O, InChI=1S/H2O/h1H2
Compound 3: methanol, CH4O, InChI=1S/CH4O/c1-2/h2H,1H3, purity 99.5%
Compound 4: ethanol, C2H6O, InChI=1S/C2H6O/c1-2-3/h3H,2H2,1H3, purity 99.5%
Compound 5: propan-1-ol, C3H8O, InChI=1S/C3H8O/c1-2-3-4/h4H,2-3H2,1H3, purity 99.5%
Compound 6: propan-2-ol, C3H8O, InChI=1S/C3H8O/c1-3(2)4/h3-4H,1-2H3, purity 99.5%
Compound 7: butan-1-ol, C4H10O, InChI=1S/C4H10O/c1-2-3-4-5/h5H,2-4H2,1H3, purity 99.5%

System: (S)-indoline-2-carboxylic acid; phases: Crystal, Liquid, Air at 1 atmosphere
Property: Normal melting temperature, K (Crystal); method: VISOBS
Normal melting temperature, K	uncertainty
450.15	0.5

System: water + (S)-indoline-2-carboxylic acid; phases: Liquid, Crystal
Fixed: Pressure, kPa = 101
Property: Mole fraction of (S)-indoline-2-carboxylic acid (Liquid); method: change in light intensity
Temperature, K	Mole fraction of (S)-indoline-2-carboxylic acid	uncertainty
283.15	0.000308	1.9e-05
288.35	0.000309	1.9e-05
292.25	0.000316	2e-05
297.45	0.000322	2e-05
302.15	0.000335	2.1e-05
308.55	0.000365	2.3e-05
313.15	0.000401	2.5e-05
318.25	0.00046	2.9e-05
323.45	0.000547	3.5e-05
328.65	0.000673	4.3e-05
333.15	0.000825	5.4e-05
338.55	0.001084	7.1e-05
342.95	0.001382	9.2e-05
348.75	0.001959	0.00013
353.15	0.002602	0.000176
358.15	0.003664	0.000243

System: methanol + (S)-indoline-2-carboxylic acid; phases: Liquid, Crystal
Fixed: Pressure, kPa = 101
Property: Mole fraction of (S)-indoline-2-carboxylic acid (Liquid); method: change in light intensity
Temperature, K	Mole fraction of (S)-indoline-2-carboxylic acid	uncertainty
283.15	0.004355	0.000272
288.25	0.005429	0.000337
292.75	0.006469	0.000402
298.15	0.00809	0.000506
302.95	0.01027	0.00064
308.05	0.01218	0.00075
313.15	0.01452	0.0009
318.25	0.01663	0.00102
323.15	0.01898	0.00116
328.55	0.02014	0.00125
333.15	0.02598	0.00164

System: ethanol + (S)-indoline-2-carboxylic acid; phases: Liquid, Crystal
Fixed: Pressure, kPa = 101
Property: Mole fraction of (S)-indoline-2-carboxylic acid (Liquid); method: change in light intensity
Temperature, K	Mole fraction of (S)-indoline-2-carboxylic acid	uncertainty
283.15	0.001683	0.000105
288.15	0.002164	0.000135
292.85	0.002836	0.000176
298.25	0.003579	0.000222
303.05	0.004539	0.000282
308.15	0.00572	0.000355
313.45	0.007213	0.000447
318.55	0.008952	0.000553
323.35	0.01072	0.00067
328.75	0.01383	0.00085
333.25	0.01586	0.00097
338.25	0.01865	0.00115
343.15	0.022	0.00135

System: propan-1-ol + (S)-indoline-2-carboxylic acid; phases: Liquid, Crystal
Fixed: Pressure, kPa = 101
Property: Mole fraction of (S)-indoline-2-carboxylic acid (Liquid); method: change in light intensity
Temperature, K	Mole fraction of (S)-indoline-2-carboxylic acid	uncertainty
283.15	0.000819	5.1e-05
288.25	0.001052	6.7e-05
293.05	0.001526	9.7e-05
298.35	0.002112	0.000133
303.15	0.002843	0.00018
308.45	0.003897	0.000244
313.15	0.005015	0.000314
318.75	0.006729	0.000419
323.25	0.008354	0.000522
328.15	0.01069	0.00067
333.05	0.01345	0.00084
338.15	0.01669	0.00104
343.55	0.02137	0.00132
348.65	0.02605	0.0016
353.15	0.03037	0.0019
358.15	0.03973	0.00249

System: propan-2-ol + (S)-indoline-2-carboxylic acid; phases: Liquid, Crystal
Fixed: Pressure, kPa = 101
Property: Mole fraction of (S)-indoline-2-carboxylic acid (Liquid); method: change in light intensity
Temperature, K	Mole fraction of (S)-indoline-2-carboxylic acid	uncertainty
283.15	0.000941	6.5e-05
288.15	0.001496	9.5e-05
293.25	0.001973	0.000125
298.15	0.002802	0.000178
303.35	0.003872	0.000243
307.95	0.005039	0.000318
313.05	0.006847	0.000431
318.65	0.009297	0.000574
323.55	0.01088	0.00068
328.35	0.01438	0.00089
333.15	0.01686	0.00103
338.35	0.0202	0.00124
343.05	0.02407	0.00149
348.75	0.02987	0.00185
353.15	0.03686	0.00229

System: butan-1-ol + (S)-indoline-2-carboxylic acid; phases: Liquid, Crystal
Fixed: Pressure, kPa = 101
Property: Mole fraction of (S)-indoline-2-carboxylic acid (Liquid); method: change in light intensity
Temperature, K	Mole fraction of (S)-indoline-2-carboxylic acid	uncertainty
283.15	0.002278	0.000145
288.35	0.003156	0.000196
293.05	0.003947	0.000243
298.25	0.004814	0.000295
303.55	0.005921	0.000363
308.05	0.007078	0.000432
313.65	0.008298	0.000508
318.45	0.01016	0.00062
323.25	0.0111	0.00068
328.05	0.01314	0.0008
332.95	0.01436	0.00087
338.15	0.01615	0.00098
343.55	0.01863	0.00114
348.95	0.02168	0.00132
353.05	0.02369	0.00144
358.15	0.02678	0.00163
