Measured thermophysical data. Solubility of 3-Aminobenzoic Acid in Supercritical Carbon Dioxide Modified by Ethanol
Source: J. Chem. Eng. Data, 2013, 10.1021/je4000845
Compound 1: carbon dioxide, CO2, InChI=1S/CO2/c2-1-3, purity 99.9%
Compound 2: 3-aminobenzoic acid, C7H7NO2, InChI=1S/C7H7NO2/c8-6-3-1-2-5(4-6)7(9)10/h1-4H,8H2,(H,9,10), purity 99%
Compound 3: ethanol, C2H6O, InChI=1S/C2H6O/c1-2-3/h3H,2H2,1H3, purity 99.7%

System: 3-aminobenzoic acid; phases: Crystal, Liquid, Air at 1 atmosphere
Property: Normal melting temperature, K (Crystal); method: VISOBS
Normal melting temperature, K	uncertainty
447.2	1

System: ethanol + 3-aminobenzoic acid + carbon dioxide; phases: Fluid (supercritical or subcritical phases), Crystal
Fixed: Solvent: Mole fraction of ethanol = 0.01
Property: Mole fraction of 3-aminobenzoic acid (Fluid (supercritical or subcritical phases)); method: UV-Spectroscopy
Temperature, K	Pressure, kPa	Mole fraction of 3-aminobenzoic acid	uncertainty
308	10000	2.7e-06	1.6e-07
308	12000	3.13e-06	1.6e-07
308	15000	3.38e-06	2.6e-07
308	18000	3.39e-06	2.2e-07
308	21000	3.47e-06	2e-07
318	10000	2.61e-06	2e-07
318	12000	3.1e-06	2e-07
318	15000	3.88e-06	1.8e-07
318	18000	4.32e-06	3e-07
318	21000	5.11e-06	3.2e-07
328	10000	2.05e-06	1.4e-07
328	12000	3.25e-06	1.4e-07
328	15000	4.95e-06	3.4e-07
328	18000	5.94e-06	2.5e-07
328	21000	6.93e-06	5.2e-07
