Measured thermophysical data. Measurement and Correlation of Tadalafil Solubility in Five Pure Solvents at (298.15 to 333.15) K
Source: J. Chem. Eng. Data, 2014, 10.1021/je400982r
Compound 1: ethanol, C2H6O, InChI=1S/C2H6O/c1-2-3/h3H,2H2,1H3, purity 99.9%
Compound 2: Cialis, C22H19N3O4, InChI=1S/C22H19N3O4/c1-24-10-19(26)25-16(22(24)27)9-14-13-4-2-3-5-15(13)23-20(14)21(25)12-6-7-17-18(8-12)29-11-28-17/h2-8,16,21,23H,9-11H2,1H3/t16-,21-/m1/s1, purity 99%
Compound 3: 1,2-propanediol, C3H8O2, InChI=1S/C3H8O2/c1-3(5)2-4/h3-5H,2H2,1H3, purity 99.5%
Compound 4: 3,6-dioxa-1-octanol, C6H14O3, InChI=1S/C6H14O3/c1-2-8-5-6-9-4-3-7/h7H,2-6H2,1H3, purity 99.9%

System: ethanol + Cialis; phases: Liquid, Crystal
Fixed: Pressure, kPa = 101
Property: Mole fraction of Cialis (Liquid); method: UV Spectra
Temperature, K	Mole fraction of Cialis	uncertainty
298.15	0.000177	7e-06
303.15	0.000248	9e-06
308.15	0.000343	1.3e-05
313.15	0.000473	1.8e-05
323.15	0.000851	3e-05
333.15	0.00145	5e-05

System: 1,2-propanediol + Cialis; phases: Liquid, Crystal
Fixed: Pressure, kPa = 101
Property: Mole fraction of Cialis (Liquid); method: UV Spectra
Temperature, K	Mole fraction of Cialis	uncertainty
298.15	0.00041	1.3e-05
303.15	0.000507	1.7e-05
308.15	0.000663	2.2e-05
313.15	0.000839	2.8e-05
323.15	0.00129	4e-05
333.15	0.00193	6e-05

System: 3,6-dioxa-1-octanol + Cialis; phases: Liquid, Crystal
Fixed: Pressure, kPa = 101
Property: Mole fraction of Cialis (Liquid); method: UV Spectra
Temperature, K	Mole fraction of Cialis	uncertainty
298.15	0.00876	0.00026
303.15	0.00973	0.00028
308.15	0.0107	0.0003
313.15	0.012	0.0004
323.15	0.015	0.0004
333.15	0.0183	0.0005
