Measured thermophysical data. Relative Static Permittivity of Dimethyl Sulfoxide + Water Mixtures
Source: J. Chem. Eng. Data, 2013, 10.1021/je400149j
Compound 1: dimethyl sulfoxide, C2H6OS, InChI=1S/C2H6OS/c1-4(2)3/h1-2H3, purity 99.9%
Compound 2: water, H2O, InChI=1S/H2O/h1H2, purity 99.9%

System: dimethyl sulfoxide; phases: Crystal, Liquid, Air at 1 atmosphere
Property: Normal melting temperature, K (Crystal); method: OTHER::sMethod:Derived from relative static permittivity measurements of the liquid and solid states
Normal melting temperature, K	uncertainty
291.2	1

System: dimethyl sulfoxide; phases: Liquid
Fixed: Pressure, kPa = 101
Property: Relative permittivity at zero frequency (Liquid); method: OTHER::sMethod:impedance/gain phase analyzer
Temperature, K	Relative permittivity at zero frequency	uncertainty
291.15	47.15	0.1
293.15	47.09	0.1
295.15	46.84	0.1
297.15	46.64	0.1
299.15	46.39	0.1
301.15	46.18	0.1
303.15	45.94	0.1
305.15	45.63	0.1
307.15	45.39	0.1
309.15	45.14	0.1
311.15	44.88	0.1
313.15	44.64	0.1
315.15	44.34	0.1
317.15	44.11	0.1
319.15	43.87	0.1
321.15	43.58	0.1
323.15	43.31	0.1
325.15	43.07	0.1
327.15	42.78	0.1
329.15	42.56	0.1
331.15	42.27	0.1
333.15	42	0.1

System: water; phases: Crystal, Liquid, Air at 1 atmosphere
Property: Normal melting temperature, K (Crystal); method: OTHER::sMethod:Derived from relative static permittivity measurements of the liquid and solid states
Normal melting temperature, K	uncertainty
273.2	1

System: water; phases: Liquid
Fixed: Pressure, kPa = 101
Property: Relative permittivity at zero frequency (Liquid); method: OTHER::sMethod:impedance/gain phase analyzer
Temperature, K	Relative permittivity at zero frequency	uncertainty
273.15	87	0.1
275.15	86.36	0.1
277.15	85.67	0.1
279.15	84.84	0.1
281.15	84.25	0.1
283.15	83.37	0.1
285.15	82.73	0.1
287.15	82.02	0.1
289.15	81.33	0.1
291.15	80.65	0.1
293.15	79.98	0.1
295.15	79.32	0.1
297.15	78.42	0.1
299.15	77.85	0.1
301.15	77.29	0.1
303.15	76.61	0.1
305.15	75.95	0.1
307.15	75.3	0.1
309.15	74.65	0.1
311.15	73.97	0.1
313.15	73.29	0.1
315.15	72.68	0.1
317.15	72.09	0.1
319.15	71.44	0.1
321.15	70.76	0.1
323.15	70.14	0.1
325.15	69.54	0.1
327.15	68.94	0.1
329.15	68.3	0.1
331.15	67.68	0.1
333.15	67.07	0.1

System: dimethyl sulfoxide + water; phases: Liquid
Fixed: Pressure, kPa = 101
Property: Relative permittivity at zero frequency (Liquid); method: impedance/gain phase analyzer
Temperature, K	Mole fraction of dimethyl sulfoxide	Relative permittivity at zero frequency	uncertainty
273.15	0	87	0.1
275.15	0	86.36	0.1
277.15	0	85.67	0.1
279.15	0	84.84	0.1
281.15	0	84.25	0.1
283.15	0	83.37	0.1
285.15	0	82.73	0.1
287.15	0	82.02	0.1
289.15	0	81.33	0.1
291.15	0	80.65	0.1
293.15	0	79.98	0.1
295.15	0	79.32	0.1
297.15	0	78.42	0.1
299.15	0	77.85	0.1
301.15	0	77.29	0.1
253.15	0.1536	91.94	0.1
255.15	0.1536	91.25	0.1
257.15	0.1536	90.45	0.1
259.15	0.1536	89.61	0.1
261.15	0.1536	88.8	0.1
263.15	0.1536	87.94	0.1
265.15	0.1536	87.11	0.1
267.15	0.1536	86.34	0.1
269.15	0.1536	85.49	0.1
271.15	0.1536	84.69	0.1
273.15	0.1536	83.99	0.1
275.15	0.1536	83.16	0.1
277.15	0.1536	82.38	0.1
279.15	0.1536	81.7	0.1
281.15	0.1536	80.98	0.1
283.15	0.1536	80.31	0.1
285.15	0.1536	79.54	0.1
287.15	0.1536	78.93	0.1
289.15	0.1536	78.19	0.1
291.15	0.1536	77.43	0.1
293.15	0.1536	76.72	0.1
295.15	0.1536	75.97	0.1
297.15	0.1536	75.33	0.1
299.15	0.1536	74.63	0.1
301.15	0.1536	74.02	0.1
253.15	0.2496	88.58	0.1
255.15	0.2496	87.74	0.1
257.15	0.2496	86.97	0.1
259.15	0.2496	86.2	0.1
261.15	0.2496	85.42	0.1
263.15	0.2496	84.64	0.1
265.15	0.2496	83.94	0.1
267.15	0.2496	83.09	0.1
269.15	0.2496	82.43	0.1
271.15	0.2496	81.68	0.1
273.15	0.2496	80.92	0.1
275.15	0.2496	80.24	0.1
277.15	0.2496	79.52	0.1
279.15	0.2496	78.75	0.1
281.15	0.2496	78.14	0.1
283.15	0.2496	77.42	0.1
285.15	0.2496	76.72	0.1
287.15	0.2496	76.14	0.1
289.15	0.2496	75.4	0.1
291.15	0.2496	74.76	0.1
293.15	0.2496	74.13	0.1
295.15	0.2496	73.52	0.1
297.15	0.2496	72.88	0.1
299.15	0.2496	72.11	0.1
301.15	0.2496	71.48	0.1
253.15	0.3505	84.04	0.1
255.15	0.3505	83.36	0.1
257.15	0.3505	82.67	0.1
259.15	0.3505	82.03	0.1
261.15	0.3505	81.31	0.1
263.15	0.3505	80.65	0.1
265.15	0.3505	79.97	0.1
267.15	0.3505	79.33	0.1
269.15	0.3505	78.71	0.1
271.15	0.3505	78.01	0.1
273.15	0.3505	77.39	0.1
275.15	0.3505	76.74	0.1
277.15	0.3505	75.92	0.1
279.15	0.3505	75.25	0.1
281.15	0.3505	74.63	0.1
283.15	0.3505	74.04	0.1
285.15	0.3505	73.46	0.1
287.15	0.3505	72.79	0.1
289.15	0.3505	72.06	0.1
291.15	0.3505	71.47	0.1
293.15	0.3505	70.84	0.1
295.15	0.3505	70.29	0.1
297.15	0.3505	69.71	0.1
299.15	0.3505	69	0.1
301.15	0.3505	68.41	0.1
253.15	0.4975	76.79	0.1
255.15	0.4975	76.23	0.1
257.15	0.4975	75.63	0.1
259.15	0.4975	75.1	0.1
261.15	0.4975	74.51	0.1
263.15	0.4975	73.97	0.1
265.15	0.4975	73.39	0.1
267.15	0.4975	72.86	0.1
269.15	0.4975	72.29	0.1
271.15	0.4975	71.63	0.1
273.15	0.4975	71.06	0.1
275.15	0.4975	70.47	0.1
277.15	0.4975	69.92	0.1
279.15	0.4975	69.35	0.1
281.15	0.4975	68.84	0.1
283.15	0.4975	68.36	0.1
285.15	0.4975	67.82	0.1
287.15	0.4975	67.3	0.1
289.15	0.4975	66.67	0.1
291.15	0.4975	66.13	0.1
293.15	0.4975	65.63	0.1
295.15	0.4975	65.13	0.1
297.15	0.4975	64.67	0.1
299.15	0.4975	64.12	0.1
301.15	0.4975	63.63	0.1
261.15	0.5991	69.37	0.1
263.15	0.5991	68.84	0.1
265.15	0.5991	68.38	0.1
267.15	0.5991	67.89	0.1
269.15	0.5991	67.37	0.1
271.15	0.5991	66.92	0.1
273.15	0.5991	66.4	0.1
275.15	0.5991	65.94	0.1
277.15	0.5991	65.48	0.1
279.15	0.5991	65	0.1
281.15	0.5991	64.52	0.1
283.15	0.5991	64.1	0.1
285.15	0.5991	63.61	0.1
287.15	0.5991	63.09	0.1
289.15	0.5991	62.58	0.1
291.15	0.5991	62.13	0.1
293.15	0.5991	61.65	0.1
295.15	0.5991	61.23	0.1
297.15	0.5991	60.76	0.1
299.15	0.5991	60.32	0.1
301.15	0.5991	59.83	0.1
273.15	0.7039	60.97	0.1
275.15	0.7039	60.58	0.1
277.15	0.7039	60.19	0.1
279.15	0.7039	59.84	0.1
281.15	0.7039	59.46	0.1
283.15	0.7039	59.05	0.1
285.15	0.7039	58.67	0.1
287.15	0.7039	58.31	0.1
289.15	0.7039	57.91	0.1
291.15	0.7039	57.57	0.1
293.15	0.7039	57.17	0.1
295.15	0.7039	56.81	0.1
297.15	0.7039	56.37	0.1
299.15	0.7039	55.99	0.1
301.15	0.7039	55.59	0.1
279.15	0.7882	56.06	0.1
281.15	0.7882	55.83	0.1
283.15	0.7882	55.54	0.1
285.15	0.7882	55.2	0.1
287.15	0.7882	54.84	0.1
289.15	0.7882	54.52	0.1
291.15	0.7882	54.21	0.1
293.15	0.7882	53.82	0.1
295.15	0.7882	53.45	0.1
297.15	0.7882	53.1	0.1
299.15	0.7882	52.77	0.1
301.15	0.7882	52.41	0.1
283.15	0.8297	53.95	0.1
285.15	0.8297	53.67	0.1
287.15	0.8297	53.38	0.1
289.15	0.8297	53.01	0.1
291.15	0.8297	52.68	0.1
293.15	0.8297	52.36	0.1
295.15	0.8297	52.06	0.1
297.15	0.8297	51.72	0.1
299.15	0.8297	51.42	0.1
301.15	0.8297	51	0.1
287.15	0.9159	50.53	0.1
289.15	0.9159	50.3	0.1
291.15	0.9159	50.06	0.1
293.15	0.9159	49.79	0.1
295.15	0.9159	49.53	0.1
297.15	0.9159	49.27	0.1
299.15	0.9159	49	0.1
301.15	0.9159	48.75	0.1
291.15	1	47.15	0.1
293.15	1	47.09	0.1
295.15	1	46.84	0.1
297.15	1	46.64	0.1
299.15	1	46.39	0.1
301.15	1	46.18	0.1
303.15	0	76.61	0.1
305.15	0	75.95	0.1
307.15	0	75.3	0.1
309.15	0	74.65	0.1
311.15	0	73.97	0.1
313.15	0	73.29	0.1
315.15	0	72.68	0.1
317.15	0	72.09	0.1
319.15	0	71.44	0.1
321.15	0	70.76	0.1
323.15	0	70.14	0.1
325.15	0	69.54	0.1
327.15	0	68.94	0.1
329.15	0	68.3	0.1
331.15	0	67.68	0.1
333.15	0	67.07	0.1
303.15	0.1536	73.34	0.1
305.15	0.1536	72.66	0.1
307.15	0.1536	72.02	0.1
309.15	0.1536	71.28	0.1
311.15	0.1536	70.73	0.1
313.15	0.1536	70.05	0.1
315.15	0.1536	69.51	0.1
317.15	0.1536	68.91	0.1
319.15	0.1536	68.26	0.1
321.15	0.1536	67.66	0.1
323.15	0.1536	67.01	0.1
325.15	0.1536	66.49	0.1
327.15	0.1536	65.83	0.1
329.15	0.1536	65.27	0.1
331.15	0.1536	64.72	0.1
333.15	0.1536	64.08	0.1
303.15	0.2496	70.83	0.1
305.15	0.2496	70.21	0.1
307.15	0.2496	69.63	0.1
309.15	0.2496	69.05	0.1
311.15	0.2496	68.39	0.1
313.15	0.2496	67.84	0.1
315.15	0.2496	67.3	0.1
317.15	0.2496	66.79	0.1
319.15	0.2496	66.18	0.1
321.15	0.2496	65.6	0.1
323.15	0.2496	65.07	0.1
325.15	0.2496	64.43	0.1
327.15	0.2496	63.89	0.1
329.15	0.2496	63.35	0.1
331.15	0.2496	62.78	0.1
333.15	0.2496	62.18	0.1
303.15	0.3505	67.88	0.1
305.15	0.3505	67.29	0.1
307.15	0.3505	66.63	0.1
309.15	0.3505	66.07	0.1
311.15	0.3505	65.52	0.1
313.15	0.3505	64.91	0.1
315.15	0.3505	64.33	0.1
317.15	0.3505	63.77	0.1
319.15	0.3505	63.12	0.1
321.15	0.3505	62.59	0.1
323.15	0.3505	62.03	0.1
325.15	0.3505	61.49	0.1
327.15	0.3505	60.98	0.1
329.15	0.3505	60.4	0.1
331.15	0.3505	59.87	0.1
333.15	0.3505	59.28	0.1
303.15	0.4975	63.07	0.1
305.15	0.4975	62.57	0.1
307.15	0.4975	62.12	0.1
309.15	0.4975	61.59	0.1
311.15	0.4975	61.06	0.1
313.15	0.4975	60.58	0.1
315.15	0.4975	60.13	0.1
317.15	0.4975	59.56	0.1
319.15	0.4975	59.12	0.1
321.15	0.4975	58.67	0.1
323.15	0.4975	58.11	0.1
325.15	0.4975	57.67	0.1
327.15	0.4975	57.18	0.1
329.15	0.4975	56.69	0.1
331.15	0.4975	56.23	0.1
333.15	0.4975	55.72	0.1
303.15	0.5991	59.38	0.1
305.15	0.5991	58.95	0.1
307.15	0.5991	58.51	0.1
309.15	0.5991	58.1	0.1
311.15	0.5991	57.64	0.1
313.15	0.5991	57.16	0.1
315.15	0.5991	56.72	0.1
317.15	0.5991	56.28	0.1
319.15	0.5991	55.79	0.1
321.15	0.5991	55.33	0.1
323.15	0.5991	54.85	0.1
325.15	0.5991	54.36	0.1
327.15	0.5991	54	0.1
329.15	0.5991	53.52	0.1
331.15	0.5991	53.03	0.1
333.15	0.5991	52.61	0.1
303.15	0.7039	55.21	0.1
305.15	0.7039	54.82	0.1
307.15	0.7039	54.47	0.1
309.15	0.7039	54.05	0.1
311.15	0.7039	53.66	0.1
313.15	0.7039	53.28	0.1
315.15	0.7039	52.92	0.1
317.15	0.7039	52.56	0.1
319.15	0.7039	52.15	0.1
321.15	0.7039	51.79	0.1
323.15	0.7039	51.43	0.1
325.15	0.7039	51.04	0.1
327.15	0.7039	50.64	0.1
329.15	0.7039	50.25	0.1
331.15	0.7039	49.87	0.1
333.15	0.7039	49.49	0.1
303.15	0.7882	52.03	0.1
305.15	0.7882	51.63	0.1
307.15	0.7882	51.27	0.1
309.15	0.7882	50.9	0.1
311.15	0.7882	50.51	0.1
313.15	0.7882	50.11	0.1
315.15	0.7882	49.73	0.1
317.15	0.7882	49.39	0.1
319.15	0.7882	49.09	0.1
321.15	0.7882	48.75	0.1
323.15	0.7882	48.37	0.1
325.15	0.7882	48.03	0.1
327.15	0.7882	47.64	0.1
329.15	0.7882	47.27	0.1
331.15	0.7882	46.94	0.1
333.15	0.7882	46.57	0.1
303.15	0.8297	50.7	0.1
305.15	0.8297	50.38	0.1
307.15	0.8297	50.04	0.1
309.15	0.8297	49.68	0.1
311.15	0.8297	49.39	0.1
313.15	0.8297	49.02	0.1
315.15	0.8297	48.67	0.1
317.15	0.8297	48.36	0.1
319.15	0.8297	48	0.1
321.15	0.8297	47.69	0.1
323.15	0.8297	47.33	0.1
325.15	0.8297	47	0.1
327.15	0.8297	46.66	0.1
329.15	0.8297	46.35	0.1
331.15	0.8297	45.99	0.1
333.15	0.8297	45.67	0.1
303.15	0.9159	48.48	0.1
305.15	0.9159	48.21	0.1
307.15	0.9159	47.94	0.1
309.15	0.9159	47.64	0.1
311.15	0.9159	47.35	0.1
313.15	0.9159	47.09	0.1
315.15	0.9159	46.85	0.1
317.15	0.9159	46.53	0.1
319.15	0.9159	46.26	0.1
321.15	0.9159	45.99	0.1
323.15	0.9159	45.72	0.1
325.15	0.9159	45.4	0.1
327.15	0.9159	45.12	0.1
329.15	0.9159	44.82	0.1
331.15	0.9159	44.53	0.1
333.15	0.9159	44.23	0.1
303.15	1	45.94	0.1
305.15	1	45.63	0.1
307.15	1	45.39	0.1
309.15	1	45.14	0.1
311.15	1	44.88	0.1
313.15	1	44.64	0.1
315.15	1	44.34	0.1
317.15	1	44.11	0.1
319.15	1	43.87	0.1
321.15	1	43.58	0.1
323.15	1	43.31	0.1
325.15	1	43.07	0.1
327.15	1	42.78	0.1
329.15	1	42.56	0.1
331.15	1	42.27	0.1
333.15	1	42	0.1

System: dimethyl sulfoxide + water; phases: Liquid, Crystal
Fixed: Pressure, kPa = 101
Property: Solid-liquid equilibrium temperature, K (Liquid); method: Derived from relative static permittivity measurements of the liquid and solid states
Mole fraction of dimethyl sulfoxide	Solid-liquid equilibrium temperature, K	uncertainty
0.5991	259.2	1
0.7039	271.2	1
0.7882	278.2	1
0.8297	281.2	1
0.8612	283.2	1
0.8959	285.2	1
0.9159	287.2	1
1	291.2	1

System: dimethyl sulfoxide + water; phases: Liquid, Crystal
Fixed: Pressure, kPa = 101
Property: Solid-liquid equilibrium temperature, K (Liquid); method: Derived from relative static permittivity measurements of the liquid and solid states
Mole fraction of dimethyl sulfoxide	Solid-liquid equilibrium temperature, K	uncertainty
0	273.2	1
0.0513	270.2	1
