Measured thermophysical data. Liquid Liquid Phase Behavior of Solutions of 1,3-Dimethylimidazolium- and 1-Methyl-3-propylimidazolium Bis((trifluoromethyl)sulphonyl)amide (C1,3mimNTf2) in n-Alkyl Alcohols
Source: J. Chem. Eng. Data, 2014, 10.1021/je400253e
Compound 1: propan-1-ol, C3H8O, InChI=1S/C3H8O/c1-2-3-4/h4H,2-3H2,1H3, purity 99.9%
Compound 2: butan-1-ol, C4H10O, InChI=1S/C4H10O/c1-2-3-4-5/h5H,2-4H2,1H3, purity 99.7%
Compound 3: pentan-1-ol, C5H12O, InChI=1S/C5H12O/c1-2-3-4-5-6/h6H,2-5H2,1H3, purity 99%
Compound 4: hexan-1-ol, C6H14O, InChI=1S/C6H14O/c1-2-3-4-5-6-7/h7H,2-6H2,1H3, purity 99.1%
Compound 5: heptan-1-ol, C7H16O, InChI=1S/C7H16O/c1-2-3-4-5-6-7-8/h8H,2-7H2,1H3, purity 99.8%
Compound 6: octan-1-ol, C8H18O, InChI=1S/C8H18O/c1-2-3-4-5-6-7-8-9/h9H,2-8H2,1H3, purity 99%
Compound 7: 1,3-dimethylimidazolium bis((trifluoromethyl)sulfonyl)amide, C7H9F6N3O4S2, InChI=1S/C5H9N2.C2F6NO4S2/c1-6-3-4-7(2)5-6;3-1(4,5)14(10,11)9-15(12,13)2(6,7)8/h3-5H,1-2H3;/q+1;-1, purity 99.8%
Compound 8: 1-methyl-3-propylimidazolium bis[(trifluoromethyl)sulfonyl]imide, C9H13F6N3O4S2, InChI=1S/C7H13N2.C2F6NO4S2/c1-3-4-9-6-5-8(2)7-9;3-1(4,5)14(10,11)9-15(12,13)2(6,7)8/h5-7H,3-4H2,1-2H3;/q+1;-1, purity 99.8%

System: propan-1-ol + 1,3-dimethylimidazolium bis((trifluoromethyl)sulfonyl)amide; phases: Liquid mixture 1, Liquid mixture 2
Fixed: Pressure, kPa = 101
Property: Liquid-liquid equilibrium temperature, K (Liquid mixture 1); method: VISOBS
Mole fraction of 1,3-dimethylimidazolium bis((trifluoromethyl)sulfonyl)amide	Liquid-liquid equilibrium temperature, K	uncertainty
0.0183	291.41	0.76
0.0283	294.56	0.76
0.035	297.11	0.76
0.0403	299.51	0.76
0.0446	299.43	0.76
0.0493	302.33	0.76
0.0533	302.3	0.76
0.075	303.37	0.76
0.0759	303.38	0.76
0.1006	303.97	0.76
0.152	304.09	0.76
0.1752	303.91	0.76
0.1931	303.65	0.76
0.2301	302.88	0.76
0.2544	302.14	0.76
0.2957	299.44	0.76
0.3483	297.08	0.76
0.4147	291.46	0.76
0.4592	287.52	0.76
0.5117	281.22	0.76

System: butan-1-ol + 1,3-dimethylimidazolium bis((trifluoromethyl)sulfonyl)amide; phases: Liquid mixture 1, Liquid mixture 2
Fixed: Pressure, kPa = 101
Property: Liquid-liquid equilibrium temperature, K (Liquid mixture 1); method: VISOBS
Mole fraction of 1,3-dimethylimidazolium bis((trifluoromethyl)sulfonyl)amide	Liquid-liquid equilibrium temperature, K	uncertainty
0.022	318.02	0.76
0.0355	322.89	0.76
0.0405	324.55	0.76
0.0502	326.5	0.76
0.0754	329.08	0.76
0.1002	329.98	0.76
0.1203	330.11	0.76
0.1394	330.21	0.76
0.1532	330.14	0.76
0.202	329.83	0.76
0.252	328.66	0.76
0.2959	326.77	0.76
0.3194	325.16	0.76
0.3597	322.84	0.76
0.3796	321.78	0.76
0.4022	320.14	0.76
0.4242	318.4	0.76
0.4435	316.26	0.76
0.4915	310.89	0.76

System: pentan-1-ol + 1,3-dimethylimidazolium bis((trifluoromethyl)sulfonyl)amide; phases: Liquid mixture 1, Liquid mixture 2
Fixed: Pressure, kPa = 101
Property: Liquid-liquid equilibrium temperature, K (Liquid mixture 1); method: VISOBS
Mole fraction of 1,3-dimethylimidazolium bis((trifluoromethyl)sulfonyl)amide	Liquid-liquid equilibrium temperature, K	uncertainty
0.0197	333.6	0.76
0.0315	340.78	0.76
0.038	342.53	0.76
0.0515	345.44	0.76
0.0721	348.15	0.76
0.0965	349.39	0.76
0.1429	350.06	0.76
0.1488	350.12	0.76
0.1987	349.83	0.76
0.2501	349.27	0.76
0.2957	348.14	0.76
0.3479	345.71	0.76
0.3981	342.84	0.76
0.4468	339.51	0.76
0.485	335.74	0.76

System: hexan-1-ol + 1,3-dimethylimidazolium bis((trifluoromethyl)sulfonyl)amide; phases: Liquid mixture 1, Liquid mixture 2
Fixed: Pressure, kPa = 101
Property: Liquid-liquid equilibrium temperature, K (Liquid mixture 1); method: VISOBS
Mole fraction of 1,3-dimethylimidazolium bis((trifluoromethyl)sulfonyl)amide	Liquid-liquid equilibrium temperature, K	uncertainty
0.0195	353.46	0.76
0.0277	358.59	0.76
0.0368	360.66	0.76
0.0447	362.54	0.76
0.0522	364.45	0.76
0.0726	367.14	0.76
0.0746	367.94	0.76
0.1019	368.69	0.76
0.1477	369.79	0.76
0.1526	369.57	0.76
0.2023	369.55	0.76
0.2503	369.34	0.76
0.2968	368.49	0.76
0.3434	366.66	0.76
0.3767	365.37	0.76
0.3961	364.37	0.76
0.4288	361.72	0.76
0.4489	361.01	0.76
0.4986	356.77	0.76

System: heptan-1-ol + 1,3-dimethylimidazolium bis((trifluoromethyl)sulfonyl)amide; phases: Liquid mixture 1, Liquid mixture 2
Fixed: Pressure, kPa = 101
Property: Liquid-liquid equilibrium temperature, K (Liquid mixture 1); method: VISOBS
Mole fraction of 1,3-dimethylimidazolium bis((trifluoromethyl)sulfonyl)amide	Liquid-liquid equilibrium temperature, K	uncertainty
0.0217	373.65	0.76
0.0319	378.05	0.76
0.0406	381.51	0.76
0.0426	380.32	0.76
0.0622	384.56	0.76
0.0629	384.33	0.76
0.0727	387.27	0.76
0.0775	387.69	0.76
0.1028	389.34	0.76
0.1504	390.54	0.76
0.1566	390.56	0.76
0.1947	390.54	0.76
0.2464	390.42	0.76
0.3036	389.74	0.76
0.3457	388.78	0.76
0.4006	386.5	0.76
0.4506	383.3	0.76
0.4879	380.69	0.76

System: octan-1-ol + 1,3-dimethylimidazolium bis((trifluoromethyl)sulfonyl)amide; phases: Liquid mixture 1, Liquid mixture 2
Fixed: Pressure, kPa = 101
Property: Liquid-liquid equilibrium temperature, K (Liquid mixture 1); method: VISOBS
Mole fraction of 1,3-dimethylimidazolium bis((trifluoromethyl)sulfonyl)amide	Liquid-liquid equilibrium temperature, K	uncertainty
0.0163	391	1
0.0246	395	1
0.0368	403	1
0.047	404	1
0.0797	412	1
0.1001	413	1
0.101	414	1
0.1513	415	1
0.1524	415	1
0.1997	415	1
0.5055	410	1

System: propan-1-ol + 1-methyl-3-propylimidazolium bis[(trifluoromethyl)sulfonyl]imide; phases: Liquid mixture 1, Liquid mixture 2
Fixed: Pressure, kPa = 101
Property: Liquid-liquid equilibrium temperature, K (Liquid mixture 1); method: VISOBS
Mole fraction of 1-methyl-3-propylimidazolium bis[(trifluoromethyl)sulfonyl]imide	Liquid-liquid equilibrium temperature, K	uncertainty
0.0199	267.38	0.76
0.0305	273.83	0.76
0.0398	277.08	0.76
0.0498	278.75	0.76
0.0737	280.74	0.76
0.0996	281.33	0.76
0.149	281.3	0.76
0.1541	281.04	0.76
0.2027	280.46	0.76
0.2543	278.45	0.76
0.292	276.17	0.76
0.3367	273.6	0.76
0.4062	266.19	0.76
0.4614	261.27	0.76
0.4923	260	0.76

System: butan-1-ol + 1-methyl-3-propylimidazolium bis[(trifluoromethyl)sulfonyl]imide; phases: Liquid mixture 1, Liquid mixture 2
Fixed: Pressure, kPa = 101
Property: Liquid-liquid equilibrium temperature, K (Liquid mixture 1); method: VISOBS
Mole fraction of 1-methyl-3-propylimidazolium bis[(trifluoromethyl)sulfonyl]imide	Liquid-liquid equilibrium temperature, K	uncertainty
0.0202	295.97	0.76
0.0298	301.17	0.76
0.0406	304.54	0.76
0.0505	306.24	0.76
0.0749	308.33	0.76
0.1003	309	0.76
0.1299	309.04	0.76
0.1522	309.06	0.76
0.199	308.73	0.76
0.2532	307.27	0.76
0.3004	305.14	0.76
0.36	301.49	0.76
0.4006	298.11	0.76
0.4522	293.28	0.76
0.4956	288.63	0.76

System: hexan-1-ol + 1-methyl-3-propylimidazolium bis[(trifluoromethyl)sulfonyl]imide; phases: Liquid mixture 1, Liquid mixture 2
Fixed: Pressure, kPa = 101
Property: Liquid-liquid equilibrium temperature, K (Liquid mixture 1); method: VISOBS
Mole fraction of 1-methyl-3-propylimidazolium bis[(trifluoromethyl)sulfonyl]imide	Liquid-liquid equilibrium temperature, K	uncertainty
0.0201	329.94	0.76
0.0306	335.6	0.76
0.0402	339.07	0.76
0.0503	341.16	0.76
0.0764	344.18	0.76
0.1	344.92	0.76
0.1347	345.48	0.76
0.1503	345.48	0.76
0.1993	345.42	0.76
0.2526	344.81	0.76
0.2981	343.54	0.76
0.3536	341.08	0.76
0.3974	338.38	0.76
0.4526	334.45	0.76
0.5061	330.07	0.76

System: octan-1-ol + 1-methyl-3-propylimidazolium bis[(trifluoromethyl)sulfonyl]imide; phases: Liquid mixture 1, Liquid mixture 2
Fixed: Pressure, kPa = 101
Property: Liquid-liquid equilibrium temperature, K (Liquid mixture 1); method: VISOBS
Mole fraction of 1-methyl-3-propylimidazolium bis[(trifluoromethyl)sulfonyl]imide	Liquid-liquid equilibrium temperature, K	uncertainty
0.0201	359.9	0.76
0.0303	366.33	0.76
0.0401	369.8	0.76
0.05	372.21	0.76
0.0749	375.45	0.76
0.1014	377.05	0.76
0.1304	377.63	0.76
0.1496	377.92	0.76
0.198	378.13	0.76
0.2527	377.51	0.76
0.3006	376.63	0.76
0.3461	375.28	0.76
0.4012	372.56	0.76
0.4562	368.93	0.76
0.4991	365.53	0.76
