Measured thermophysical data. Vapor Pressure of 2-Dialkyl Aminoethanethiols
Source: J. Chem. Eng. Data, 2013, 10.1021/je400136y
Compound 1: 2-(diethylamino)ethane-1-thiol, C6H15NS, InChI=1S/C6H15NS/c1-3-7(4-2)5-6-8/h8H,3-6H2,1-2H3, purity 99%
Compound 2: 2-(dimethylamino)ethane-1-thiol, C4H11NS, InChI=1S/C4H11NS/c1-5(2)3-4-6/h6H,3-4H2,1-2H3, purity 99%
Compound 3: 2-(diisopropylamino)ethane-1-thiol, C8H19NS, InChI=1S/C8H19NS/c1-7(2)9(5-6-10)8(3)4/h7-8,10H,5-6H2,1-4H3, purity 99%

System: 2-(diethylamino)ethane-1-thiol; phases: Liquid, Gas
Property: Vapor or sublimation pressure, kPa (Liquid); method: Transpiration method
Temperature, K	Vapor or sublimation pressure, kPa	uncertainty
275.15	0.384	0.019
285.15	0.751	0.038
295.15	1.35	0.068

System: 2-(diethylamino)ethane-1-thiol; phases: Liquid, Gas
Property: Vapor or sublimation pressure, kPa (Liquid); method: Rate of evaporation
Temperature, K	Vapor or sublimation pressure, kPa	uncertainty
315.98	4.148	0.415
327.06	6.808	0.681
336.97	10.22	1.02
345.77	14.88	1.49
364.92	29.72	2.97

System: 2-(dimethylamino)ethane-1-thiol; phases: Liquid, Gas
Property: Vapor or sublimation pressure, kPa (Liquid); method: Transpiration method
Temperature, K	Vapor or sublimation pressure, kPa	uncertainty
278.15	0.0702	0.0035
287.15	0.141	0.007
296.15	0.26	0.013

System: 2-(dimethylamino)ethane-1-thiol; phases: Liquid, Gas
Property: Vapor or sublimation pressure, kPa (Liquid); method: Rate of evaporation
Temperature, K	Vapor or sublimation pressure, kPa	uncertainty
348.97	4.161	0.416
360.64	6.848	0.685
371.07	10.19	1.02
379.29	14.87	1.49
402.53	29.68	2.97

System: 2-(diisopropylamino)ethane-1-thiol; phases: Liquid, Gas
Property: Vapor or sublimation pressure, kPa (Liquid); method: Transpiration method
Temperature, K	Vapor or sublimation pressure, kPa	uncertainty
275.15	0.00928	0.00047
285.15	0.0223	0.0011
295.65	0.0512	0.0026

System: 2-(diisopropylamino)ethane-1-thiol; phases: Liquid, Gas
Property: Vapor or sublimation pressure, kPa (Liquid); method: Rate of evaporation
Temperature, K	Vapor or sublimation pressure, kPa	uncertainty
372.29	4.121	0.412
384.53	6.848	0.685
395.74	10.27	1.03
406	14.82	1.48
423.21	26.73	2.67
