Measured thermophysical data. Solubility of Carbon Dioxide in Ethane-1,2-diol Water Mixtures
Source: J. Chem. Eng. Data, 2013, 10.1021/je400736w
Compound 1: carbon dioxide, CO2, InChI=1S/CO2/c2-1-3, purity 99.9%
Compound 2: water, H2O, InChI=1S/H2O/h1H2
Compound 3: 1,2-ethanediol, C2H6O2, InChI=1S/C2H6O2/c3-1-2-4/h3-4H,1-2H2, purity 99.5%

System: 1,2-ethanediol + carbon dioxide + water; phases: Liquid, Gas
Property: Vapor or sublimation pressure, kPa (Liquid); method: Closed cell (Static) method
Temperature, K	Solvent: Mole fraction of 1,2-ethanediol	Mole fraction of carbon dioxide	Vapor or sublimation pressure, kPa	uncertainty
288	0.1	0.0009	111	49.3
288	0.1	0.0016	211.6	49.1
288	0.1	0.0023	313.4	49.5
303	0.1	0.0007	108.9	48.3
303	0.1	0.0012	211.4	56.2
303	0.1	0.0018	350.3	67.7
318	0.1	0.0005	114.8	64.3
318	0.1	0.0009	213.9	65.9
318	0.1	0.0013	310.4	61.7
333	0.1	0.0003	116	68.9
333	0.1	0.0007	218.2	64.1
333	0.1	0.0011	315.9	63.1
348	0.1	0.0003	123	103.8
348	0.1	0.0005	218.8	73.9
348	0.1	0.0009	316.2	63
288	0.5	0.0015	116.3	41.4
288	0.5	0.0029	201.4	42.6
288	0.5	0.004	300.3	43.9
303	0.5	0.001	109.8	44.1
303	0.5	0.0021	211.8	43.7
303	0.5	0.0031	309.8	44.1
318	0.5	0.0009	126.5	46.2
318	0.5	0.0017	217.2	43.9
318	0.5	0.0025	289	43.9
333	0.5	0.0006	121.5	48.4
333	0.5	0.0013	214.4	47.9
333	0.5	0.002	315	48.5
333	0.5	0.0027	405.6	47.7
348	0.5	0.0005	141	55.8
348	0.5	0.0009	218.7	52.6
348	0.5	0.0015	314.2	50.1
288	0.9	0.0021	116.5	41
288	0.9	0.0041	204.8	40.9
288	0.9	0.0065	297.5	40.8
303	0.9	0.0018	117.2	42
303	0.9	0.0032	208.2	41.8
303	0.9	0.0048	301	41.7
303	0.9	0.0065	404.4	41.8
318	0.9	0.0014	119.8	42.1
318	0.9	0.0027	208.1	42.5
318	0.9	0.004	306.9	42.6
318	0.9	0.0054	403.8	42.4
333	0.9	0.0011	119.9	43.6
333	0.9	0.0022	215.3	43.5
333	0.9	0.0033	307.2	43.5
333	0.9	0.0044	403.3	43.7
348	0.9	0.0009	123.8	46
348	0.9	0.0017	215.4	45.2
348	0.9	0.0026	305	44.7
288	1	0.0021	106	40.8
288	1	0.0045	205	40.8
288	1	0.0071	302	40.7
303	1	0.0019	105.2	41.3
303	1	0.0035	200.6	41.6
303	1	0.0053	299.4	41.6
303	1	0.007	396.1	41.4
303	1	0.0089	491	41.3
318	1	0.0015	112.5	42.7
318	1	0.0028	208.7	42.5
318	1	0.0042	306.4	42.4
318	1	0.0056	406	42.8
333	1	0.0012	115.1	44.8
333	1	0.0022	212.4	44.1
333	1	0.0033	311	43.6
333	1	0.0045	411.1	43.7
333	1	0.0055	505	44.2
348	1	0.0011	124.7	43.9
348	1	0.0021	215.2	43.8
348	1	0.0032	311.1	43.6
288	0	0.0009	153.5	52
288	0	0.0015	252.9	52.8
288	0	0.0019	325.9	50.9
288	0	0.0023	378.3	47.9
303	0	0.0004	125	98.9
303	0	0.0006	215.4	75.6
303	0	0.0009	288.7	59.8
303	0	0.0011	348.6	76.2
303	0	0.0014	408.3	56.5

System: 1,2-ethanediol + carbon dioxide; phases: Liquid, Gas
Property: Vapor or sublimation pressure, kPa (Liquid); method: Closed cell (Static) method
Temperature, K	Mole fraction of carbon dioxide	Vapor or sublimation pressure, kPa	uncertainty
288	0.0021	106	40.8
288	0.0045	205	40.8
288	0.0071	302	40.7
303	0.0019	105.2	41.3
303	0.0035	200.6	41.6
303	0.0053	299.4	41.6
303	0.007	396.1	41.4
303	0.0089	491	41.3
318	0.0015	112.5	42.7
318	0.0028	208.7	42.5
318	0.0042	306.4	42.4
318	0.0056	406	42.8
333	0.0012	115.1	44.8
333	0.0022	212.4	44.1
333	0.0033	311	43.6
333	0.0045	411.1	43.7
333	0.0055	505	44.2
348	0.0011	124.7	43.9
348	0.0021	215.2	43.8
348	0.0032	311.1	43.6

System: carbon dioxide + water; phases: Liquid, Gas
Property: Vapor or sublimation pressure, kPa (Liquid); method: Closed cell (Static) method
Temperature, K	Mole fraction of carbon dioxide	Vapor or sublimation pressure, kPa	uncertainty
288	0.0009	153.5	52
288	0.0015	252.9	52.8
288	0.0019	325.9	50.9
288	0.0023	378.3	47.9
303	0.0004	125	98.9
303	0.0006	215.4	75.6
303	0.0009	288.7	59.8
303	0.0011	348.6	76.2
303	0.0014	408.3	56.5
