Measured thermophysical data. Physicochemical Properties for the Binary Systems of Ionic Liquids [Cnmim]Cl + N,N-Dimethylformamide
Source: J. Chem. Eng. Data, 2014, 10.1021/je4009238
Compound 1: 1-ethyl-3-methylimidazolium chloride, C6H11ClN2, InChI=1S/C6H11N2.ClH/c1-3-8-5-4-7(2)6-8;/h4-6H,3H2,1-2H3;1H/q+1;/p-1, purity 99%
Compound 2: 1-butyl-3-methylimidazolium chloride, C8H15ClN2, InChI=1S/C8H15N2.ClH/c1-3-4-5-10-7-6-9(2)8-10;/h6-8H,3-5H2,1-2H3;1H/q+1;/p-1, purity 99%
Compound 3: dimethylformamide, C3H7NO, InChI=1S/C3H7NO/c1-4(2)3-5/h3H,1-2H3, purity 99.5%
Compound 4: 1-hexyl-3-methylimidazolium chloride, C10H19ClN2, InChI=1S/C10H19N2.ClH/c1-3-4-5-6-7-12-9-8-11(2)10-12;/h8-10H,3-7H2,1-2H3;1H/q+1;/p-1, purity 99%
Compound 5: 1-methyl-3-octylimidazolium chloride, C12H23ClN2, InChI=1S/C12H23N2.ClH/c1-3-4-5-6-7-8-9-14-11-10-13(2)12-14;/h10-12H,3-9H2,1-2H3;1H/q+1;/p-1, purity 99%

System: dimethylformamide; phases: Liquid
Fixed: Pressure, kPa = 101
Property: Mass density, kg/m3 (Liquid); method: VIBTUB:UFactor:16
Temperature, K	Mass density, kg/m3	uncertainty
288.15	953.79	0.83
298.15	944.26	0.89
308.15	934.69	0.95
318.15	925.16	1.01

System: dimethylformamide; phases: Liquid
Fixed: Pressure, kPa = 101.325
Property: Refractive index (Na D-line) (Liquid); method: ABBE:UFactor:2
Temperature, K	Refractive index (Na D-line)	uncertainty
288.15	1.43304	0.00063
298.15	1.42858	0.00063
308.15	1.42381	0.00063
318.15	1.41909	0.00063

System: dimethylformamide; phases: Liquid
Fixed: Pressure, kPa = 101
Property: Viscosity, Pa*s (Liquid); method: CONCYL:UFactor:16
Temperature, K	Viscosity, Pa*s	uncertainty
288.15	0.000936	0.0001084
298.15	0.000825	0.0001029
308.15	0.000736	9.85e-05
318.15	0.000665	9.5e-05

System: 1-hexyl-3-methylimidazolium chloride; phases: Liquid
Fixed: Pressure, kPa = 101
Property: Mass density, kg/m3 (Liquid); method: VIBTUB:UFactor:16
Temperature, K	Mass density, kg/m3	uncertainty
288.15	1047.99	1.01
298.15	1042.2	0.98
308.15	1036.43	0.94
318.15	1030.62	0.9

System: 1-hexyl-3-methylimidazolium chloride; phases: Liquid
Fixed: Pressure, kPa = 101.325
Property: Refractive index (Na D-line) (Liquid); method: ABBE:UFactor:4
Temperature, K	Refractive index (Na D-line)	uncertainty
288.15	1.5125	0.00126
298.15	1.50953	0.00126
308.15	1.50667	0.00126
318.15	1.5039	0.00126

System: 1-hexyl-3-methylimidazolium chloride; phases: Liquid
Fixed: Pressure, kPa = 101
Property: Viscosity, Pa*s (Liquid); method: CONCYL:UFactor:32
Temperature, K	Viscosity, Pa*s	uncertainty
308.15	2.044156	3.268213
318.15	0.884198	1.09529

System: 1-methyl-3-octylimidazolium chloride; phases: Liquid
Fixed: Pressure, kPa = 101
Property: Mass density, kg/m3 (Liquid); method: VIBTUB:UFactor:16
Temperature, K	Mass density, kg/m3	uncertainty
288.15	1022.06	10.03
298.15	1015.97	10.03
308.15	1009.8	10.02
318.15	1003.62	10.02

System: 1-methyl-3-octylimidazolium chloride; phases: Liquid
Fixed: Pressure, kPa = 101.325
Property: Refractive index (Na D-line) (Liquid); method: ABBE:UFactor:2
Temperature, K	Refractive index (Na D-line)	uncertainty
288.15	1.49008	0.01002
298.15	1.48709	0.01002
308.15	1.48413	0.01002
318.15	1.48122	0.01002

System: 1-methyl-3-octylimidazolium chloride; phases: Liquid
Fixed: Pressure, kPa = 101
Property: Viscosity, Pa*s (Liquid); method: CONCYL:UFactor:16
Temperature, K	Viscosity, Pa*s	uncertainty
308.15	0.155026	0.038084
318.15	0.065946	0.007566

System: dimethylformamide + 1-ethyl-3-methylimidazolium chloride; phases: Liquid
Fixed: Pressure, kPa = 101
Property: Mass density, kg/m3 (Liquid); method: VIBTUB:UFactor:16
Temperature, K	Mole fraction of 1-ethyl-3-methylimidazolium chloride	Mass density, kg/m3	uncertainty
288.15	0	953.79	0.83
288.15	0.0102	958.86	0.81
288.15	0.0203	963.47	0.78
288.15	0.031	968.07	0.75
288.15	0.0417	972.24	0.73
288.15	0.0524	976.38	0.7
288.15	0.0635	980.82	0.68
288.15	0.0752	984.98	0.65
288.15	0.0867	989.33	0.63
288.15	0.0988	993.32	0.6
288.15	0.1107	997.33	0.58
288.15	0.1232	1001.39	0.57
288.15	0.1361	1005.6	0.6
288.15	0.1489	1009.6	0.63
288.15	0.1626	1013.74	0.65
288.15	0.1759	1017.7	0.68
298.15	0	944.26	0.89
298.15	0.0102	949.52	0.86
298.15	0.0203	954.18	0.84
298.15	0.031	958.86	0.81
298.15	0.0417	963.18	0.78
298.15	0.0524	967.27	0.76
298.15	0.0635	971.86	0.73
298.15	0.0752	976.05	0.71
298.15	0.0867	980.59	0.68
298.15	0.0988	984.64	0.65
298.15	0.1107	988.67	0.63
298.15	0.1232	992.88	0.61
298.15	0.1361	997.07	0.58
298.15	0.1489	1001.24	0.57
298.15	0.1626	1005.4	0.6
298.15	0.1759	1009.49	0.63
308.15	0	934.69	0.95
308.15	0.0102	940.08	0.92
308.15	0.0203	944.84	0.89
308.15	0.031	949.62	0.86
308.15	0.0417	954.02	0.84
308.15	0.0524	958.21	0.81
308.15	0.0635	962.87	0.79
308.15	0.0752	967.15	0.76
308.15	0.0867	971.78	0.73
308.15	0.0988	975.93	0.71
308.15	0.1107	980.02	0.68
308.15	0.1232	984.31	0.66
308.15	0.1361	988.59	0.63
308.15	0.1489	992.84	0.61
308.15	0.1626	997.09	0.59
308.15	0.1759	1001.24	0.58
318.15	0	925.16	1.01
318.15	0.0102	930.6	0.98
318.15	0.0203	935.4	0.95
318.15	0.031	940.37	0.92
318.15	0.0417	944.85	0.89
318.15	0.0524	949.12	0.87
318.15	0.0635	953.87	0.84
318.15	0.0752	958.24	0.81
318.15	0.0867	962.96	0.79
318.15	0.0988	967.2	0.76
318.15	0.1107	971.44	0.74
318.15	0.1232	975.73	0.71
318.15	0.1361	980.13	0.69
318.15	0.1489	984.44	0.66
318.15	0.1626	988.83	0.64
318.15	0.1759	993.01	0.61

System: dimethylformamide + 1-ethyl-3-methylimidazolium chloride; phases: Liquid
Fixed: Pressure, kPa = 101
Property: Refractive index (Na D-line) (Liquid); method: ABBE:UFactor:2
Temperature, K	Mole fraction of 1-ethyl-3-methylimidazolium chloride	Refractive index (Na D-line)	uncertainty
288.15	0	1.43304	0.00063
288.15	0.0102	1.43565	0.00063
288.15	0.0203	1.43836	0.00063
288.15	0.031	1.44091	0.00063
288.15	0.0417	1.44354	0.00063
288.15	0.0524	1.44588	0.00063
288.15	0.0635	1.44822	0.00063
288.15	0.0752	1.45067	0.00063
288.15	0.0867	1.45308	0.00063
288.15	0.0988	1.45542	0.00063
288.15	0.1107	1.45784	0.00063
288.15	0.1232	1.46021	0.00063
288.15	0.1361	1.46253	0.00063
288.15	0.1489	1.46477	0.00063
288.15	0.1626	1.46721	0.00063
288.15	0.1759	1.46942	0.00063
298.15	0	1.42858	0.00063
298.15	0.0102	1.43106	0.00063
298.15	0.0203	1.43346	0.00063
298.15	0.031	1.4364	0.00063
298.15	0.0417	1.43872	0.00063
298.15	0.0524	1.44144	0.00063
298.15	0.0635	1.44361	0.00063
298.15	0.0752	1.44626	0.00063
298.15	0.0867	1.44855	0.00063
298.15	0.0988	1.4511	0.00063
298.15	0.1107	1.45354	0.00063
298.15	0.1232	1.45597	0.00063
298.15	0.1361	1.45827	0.00063
298.15	0.1489	1.46065	0.00063
298.15	0.1626	1.46302	0.00063
298.15	0.1759	1.46536	0.00063
308.15	0	1.42381	0.00063
308.15	0.0102	1.42654	0.00063
308.15	0.0203	1.42888	0.00063
308.15	0.031	1.43189	0.00063
308.15	0.0417	1.43416	0.00063
308.15	0.0524	1.43691	0.00063
308.15	0.0635	1.43896	0.00063
308.15	0.0752	1.4419	0.00063
308.15	0.0867	1.44372	0.00063
308.15	0.0988	1.44678	0.00063
308.15	0.1107	1.44907	0.00063
308.15	0.1232	1.45167	0.00063
308.15	0.1361	1.45406	0.00063
308.15	0.1489	1.45621	0.00063
308.15	0.1626	1.45888	0.00063
308.15	0.1759	1.46102	0.00063
318.15	0	1.41909	0.00063
318.15	0.0102	1.42218	0.00063
318.15	0.0203	1.4245	0.00063
318.15	0.031	1.4275	0.00063
318.15	0.0417	1.42977	0.00063
318.15	0.0524	1.43252	0.00063
318.15	0.0635	1.43477	0.00063
318.15	0.0752	1.43765	0.00063
318.15	0.0867	1.43964	0.00063
318.15	0.0988	1.44253	0.00063
318.15	0.1107	1.445	0.00063
318.15	0.1232	1.44746	0.00063
318.15	0.1361	1.44986	0.00063
318.15	0.1489	1.45192	0.00063
318.15	0.1626	1.45477	0.00063
318.15	0.1759	1.45679	0.00063

System: dimethylformamide + 1-ethyl-3-methylimidazolium chloride; phases: Liquid
Fixed: Pressure, kPa = 101
Property: Viscosity, Pa*s (Liquid); method: CONCYL:UFactor:16
Temperature, K	Mole fraction of 1-ethyl-3-methylimidazolium chloride	Viscosity, Pa*s	uncertainty
288.15	0	0.000936	0.0001084
288.15	0.0102	0.0010228	0.0001127
288.15	0.0203	0.0011556	0.0001193
288.15	0.031	0.0011876	0.0001209
288.15	0.0417	0.0013271	0.0001282
288.15	0.0524	0.0013986	0.0001323
288.15	0.0635	0.0015353	0.0001403
288.15	0.0752	0.0017652	0.0001537
288.15	0.0867	0.0018671	0.0001597
288.15	0.0988	0.0021232	0.0001748
288.15	0.1107	0.0022499	0.0001823
288.15	0.1232	0.0024292	0.000193
288.15	0.1361	0.0027658	0.000213
288.15	0.1489	0.0030017	0.000227
288.15	0.1626	0.0032931	0.0002444
288.15	0.1759	0.0036453	0.0002655
298.15	0	0.000825	0.0001029
298.15	0.0102	0.0008935	0.0001063
298.15	0.0203	0.0010075	0.000112
298.15	0.031	0.0010304	0.0001131
298.15	0.0417	0.0011466	0.0001189
298.15	0.0524	0.001198	0.0001214
298.15	0.0635	0.0013123	0.0001274
298.15	0.0752	0.0015005	0.0001383
298.15	0.0867	0.0015768	0.0001427
298.15	0.0988	0.0017844	0.0001549
298.15	0.1107	0.0018789	0.0001604
298.15	0.1232	0.0020143	0.0001684
298.15	0.1361	0.0022779	0.000184
298.15	0.1489	0.0024531	0.0001944
298.15	0.1626	0.0026721	0.0002074
298.15	0.1759	0.0029224	0.0002223
308.15	0	0.000736	9.85e-05
308.15	0.0102	0.0007902	0.0001012
308.15	0.0203	0.0008895	0.0001061
308.15	0.031	0.0009058	0.0001069
308.15	0.0417	0.0010043	0.0001118
308.15	0.0524	0.0010452	0.0001138
308.15	0.0635	0.0011392	0.0001185
308.15	0.0752	0.0012966	0.0001264
308.15	0.0867	0.0013549	0.0001298
308.15	0.0988	0.0015273	0.0001398
308.15	0.1107	0.0016245	0.0001455
308.15	0.1232	0.0017053	0.0001502
308.15	0.1361	0.0019158	0.0001626
308.15	0.1489	0.0020514	0.0001706
308.15	0.1626	0.0022508	0.0001824
308.15	0.1759	0.0024056	0.0001916
318.15	0	0.000665	9.5e-05
318.15	0.0102	0.0007059	9.7e-05
318.15	0.0203	0.000794	0.0001014
318.15	0.031	0.0008045	0.0001019
318.15	0.0417	0.0008901	0.0001061
318.15	0.0524	0.000923	0.0001078
318.15	0.0635	0.0010023	0.0001117
318.15	0.0752	0.0011359	0.0001183
318.15	0.0867	0.0011807	0.0001206
318.15	0.0988	0.0013268	0.0001282
318.15	0.1107	0.001404	0.0001327
318.15	0.1232	0.0014679	0.0001364
318.15	0.1361	0.0016398	0.0001464
318.15	0.1489	0.0017478	0.0001527
318.15	0.1626	0.001905	0.000162
318.15	0.1759	0.0020203	0.0001688

System: dimethylformamide + 1-butyl-3-methylimidazolium chloride; phases: Liquid
Fixed: Pressure, kPa = 101
Property: Mass density, kg/m3 (Liquid); method: VIBTUB:UFactor:16
Temperature, K	Mole fraction of 1-butyl-3-methylimidazolium chloride	Mass density, kg/m3	uncertainty
288.15	0	953.79	0.83
288.15	0.0086	957.7	0.81
288.15	0.0172	961.03	0.79
288.15	0.026	964.09	0.77
288.15	0.0351	967.36	0.75
288.15	0.0443	970.51	0.74
288.15	0.0541	973.65	0.72
288.15	0.0638	976.87	0.7
288.15	0.0738	979.65	0.68
288.15	0.0841	982.76	0.66
288.15	0.0947	985.77	0.65
288.15	0.1056	988.72	0.63
288.15	0.1167	991.56	0.61
288.15	0.1282	994.51	0.6
288.15	0.1399	997.33	0.58
288.15	0.152	1000.15	0.57
298.15	0	944.26	0.89
298.15	0.0086	948.35	0.87
298.15	0.0172	951.98	0.85
298.15	0.026	954.91	0.83
298.15	0.0351	958.49	0.81
298.15	0.0443	961.51	0.79
298.15	0.0541	964.75	0.77
298.15	0.0638	968.06	0.75
298.15	0.0738	970.86	0.74
298.15	0.0841	974.08	0.72
298.15	0.0947	977.24	0.7
298.15	0.1056	980.16	0.68
298.15	0.1167	983.01	0.67
298.15	0.1282	986.1	0.65
298.15	0.1399	988.96	0.63
298.15	0.152	991.87	0.61
308.15	0	934.69	0.95
308.15	0.0086	938.9	0.93
308.15	0.0172	942.61	0.91
308.15	0.026	945.63	0.89
308.15	0.0351	949.34	0.87
308.15	0.0443	952.42	0.85
308.15	0.0541	955.77	0.83
308.15	0.0638	959.15	0.81
308.15	0.0738	962.05	0.79
308.15	0.0841	965.29	0.77
308.15	0.0947	968.56	0.75
308.15	0.1056	971.53	0.73
308.15	0.1167	974.49	0.72
308.15	0.1282	977.64	0.7
308.15	0.1399	980.61	0.68
308.15	0.152	983.6	0.67
318.15	0	925.16	1.01
318.15	0.0086	929.42	0.99
318.15	0.0172	933.2	0.96
318.15	0.026	936.41	0.94
318.15	0.0351	940.14	0.92
318.15	0.0443	943.38	0.9
318.15	0.0541	946.75	0.88
318.15	0.0638	950.28	0.86
318.15	0.0738	953.24	0.84
318.15	0.0841	956.58	0.82
318.15	0.0947	959.89	0.8
318.15	0.1056	962.99	0.79
318.15	0.1167	966.03	0.77
318.15	0.1282	969.28	0.75
318.15	0.1399	972.26	0.73
318.15	0.152	975.4	0.72

System: dimethylformamide + 1-butyl-3-methylimidazolium chloride; phases: Liquid
Fixed: Pressure, kPa = 101
Property: Refractive index (Na D-line) (Liquid); method: ABBE:UFactor:2
Temperature, K	Mole fraction of 1-butyl-3-methylimidazolium chloride	Refractive index (Na D-line)	uncertainty
288.15	0	1.43304	0.00063
288.15	0.0086	1.43562	0.00063
288.15	0.0172	1.43757	0.00063
288.15	0.026	1.4401	0.00063
288.15	0.0351	1.44223	0.00063
288.15	0.0443	1.44442	0.00063
288.15	0.0541	1.4466	0.00063
288.15	0.0638	1.44861	0.00063
288.15	0.0738	1.45083	0.00063
288.15	0.0841	1.45282	0.00063
288.15	0.0947	1.45492	0.00063
288.15	0.1056	1.45766	0.00063
288.15	0.1167	1.45909	0.00063
288.15	0.1282	1.46111	0.00063
288.15	0.1399	1.46315	0.00063
288.15	0.152	1.46516	0.00063
298.15	0	1.42858	0.00063
298.15	0.0086	1.43088	0.00063
298.15	0.0172	1.43313	0.00063
298.15	0.026	1.43537	0.00063
298.15	0.0351	1.43761	0.00063
298.15	0.0443	1.4398	0.00063
298.15	0.0541	1.44206	0.00063
298.15	0.0638	1.44422	0.00063
298.15	0.0738	1.44638	0.00063
298.15	0.0841	1.44852	0.00063
298.15	0.0947	1.45063	0.00063
298.15	0.1056	1.45271	0.00063
298.15	0.1167	1.45475	0.00063
298.15	0.1282	1.45676	0.00063
298.15	0.1399	1.45871	0.00063
298.15	0.152	1.46064	0.00063
308.15	0	1.42381	0.00063
308.15	0.0086	1.42611	0.00063
308.15	0.0172	1.42836	0.00063
308.15	0.026	1.4306	0.00063
308.15	0.0351	1.43285	0.00063
308.15	0.0443	1.43505	0.00063
308.15	0.0541	1.43731	0.00063
308.15	0.0638	1.43948	0.00063
308.15	0.0738	1.44163	0.00063
308.15	0.0841	1.44378	0.00063
308.15	0.0947	1.4459	0.00063
308.15	0.1056	1.44799	0.00063
308.15	0.1167	1.45003	0.00063
308.15	0.1282	1.45205	0.00063
308.15	0.1399	1.45401	0.00063
308.15	0.152	1.45595	0.00063
318.15	0	1.41909	0.00063
318.15	0.0086	1.42147	0.00063
318.15	0.0172	1.42379	0.00063
318.15	0.026	1.42611	0.00063
318.15	0.0351	1.42842	0.00063
318.15	0.0443	1.43069	0.00063
318.15	0.0541	1.43303	0.00063
318.15	0.0638	1.43526	0.00063
318.15	0.0738	1.43748	0.00063
318.15	0.0841	1.4397	0.00063
318.15	0.0947	1.44188	0.00063
318.15	0.1056	1.44402	0.00063
318.15	0.1167	1.44612	0.00063
318.15	0.1282	1.4482	0.00063
318.15	0.1399	1.45021	0.00063
318.15	0.152	1.45219	0.00063

System: dimethylformamide + 1-butyl-3-methylimidazolium chloride; phases: Liquid
Fixed: Pressure, kPa = 101
Property: Viscosity, Pa*s (Liquid); method: CONCYL:UFactor:16
Temperature, K	Mole fraction of 1-butyl-3-methylimidazolium chloride	Viscosity, Pa*s	uncertainty
288.15	0	0.000936	0.0001084
288.15	0.0086	0.0010639	0.0001148
288.15	0.0172	0.0011303	0.0001181
288.15	0.026	0.0012335	0.0001232
288.15	0.0351	0.0013581	0.00013
288.15	0.0443	0.0014408	0.0001348
288.15	0.0541	0.0015708	0.0001424
288.15	0.0638	0.001678	0.0001486
288.15	0.0738	0.0018647	0.0001596
288.15	0.0841	0.002004	0.0001678
288.15	0.0947	0.0022403	0.0001818
288.15	0.1056	0.0023965	0.000191
288.15	0.1167	0.0025887	0.0002025
288.15	0.1282	0.0029498	0.0002239
288.15	0.1399	0.0031963	0.0002387
288.15	0.152	0.0036846	0.0002679
298.15	0	0.000825	0.0001029
298.15	0.0086	0.0009285	0.000108
298.15	0.0172	0.0009836	0.0001108
298.15	0.026	0.001069	0.000115
298.15	0.0351	0.0011734	0.0001202
298.15	0.0443	0.0012337	0.0001232
298.15	0.0541	0.0013432	0.0001291
298.15	0.0638	0.0014436	0.000135
298.15	0.0738	0.0015899	0.0001435
298.15	0.0841	0.0016785	0.0001487
298.15	0.0947	0.0017998	0.0001558
298.15	0.1056	0.0019785	0.0001663
298.15	0.1167	0.0021259	0.000175
298.15	0.1282	0.0023786	0.00019
298.15	0.1399	0.0025823	0.0002021
298.15	0.152	0.0029066	0.0002214
308.15	0	0.000736	9.85e-05
308.15	0.0086	0.0008223	0.0001028
308.15	0.0172	0.0008668	0.000105
308.15	0.026	0.0009394	0.0001086
308.15	0.0351	0.0010217	0.0001127
308.15	0.0443	0.0010972	0.0001164
308.15	0.0541	0.0011663	0.0001198
308.15	0.0638	0.0012386	0.0001234
308.15	0.0738	0.0013615	0.0001302
308.15	0.0841	0.0014318	0.0001343
308.15	0.0947	0.0015245	0.0001397
308.15	0.1056	0.0016649	0.0001479
308.15	0.1167	0.0017824	0.0001548
308.15	0.1282	0.0019629	0.0001654
308.15	0.1399	0.0021348	0.0001755
308.15	0.152	0.0023508	0.0001883
318.15	0	0.000665	9.5e-05
318.15	0.0086	0.0007351	9.84e-05
318.15	0.0172	0.000772	0.0001003
318.15	0.026	0.0008352	0.0001034
318.15	0.0351	0.0008995	0.0001066
318.15	0.0443	0.0009641	0.0001098
318.15	0.0541	0.0010257	0.0001129
318.15	0.0638	0.0010784	0.0001155
318.15	0.0738	0.0011755	0.0001203
318.15	0.0841	0.0012407	0.0001235
318.15	0.0947	0.0013112	0.0001273
318.15	0.1056	0.0014236	0.0001338
318.15	0.1167	0.001518	0.0001393
318.15	0.1282	0.0016515	0.0001471
318.15	0.1399	0.0017965	0.0001556
318.15	0.152	0.0019442	0.0001643

System: dimethylformamide + 1-hexyl-3-methylimidazolium chloride; phases: Liquid
Fixed: Pressure, kPa = 101
Property: Mass density, kg/m3 (Liquid); method: VIBTUB:UFactor:16
Temperature, K	Mole fraction of 1-hexyl-3-methylimidazolium chloride	Mass density, kg/m3	uncertainty
288.15	0	953.79	0.83
288.15	0.0312	964.44	0.77
288.15	0.0646	973.48	0.72
288.15	0.102	982	0.67
288.15	0.1456	990.33	0.62
288.15	0.196	998.49	0.58
288.15	0.2502	1005.77	0.61
288.15	0.3144	1013.08	0.67
288.15	0.3893	1020.04	0.72
288.15	0.4796	1026.84	0.78
288.15	0.591	1033.55	0.84
288.15	0.7249	1039.53	0.9
288.15	1	1047.99	1.01
298.15	0	944.26	0.89
298.15	0.0312	955.32	0.83
298.15	0.0646	964.62	0.77
298.15	0.102	973.43	0.72
298.15	0.1456	982.06	0.67
298.15	0.196	990.57	0.63
298.15	0.2502	998.08	0.59
298.15	0.3144	1005.74	0.62
298.15	0.3893	1012.97	0.68
298.15	0.4796	1019.96	0.73
298.15	0.591	1026.93	0.8
298.15	0.7249	1033.24	0.86
298.15	1	1042.2	0.98
308.15	0	934.69	0.95
308.15	0.0312	946.13	0.88
308.15	0.0646	955.75	0.83
308.15	0.102	964.86	0.77
308.15	0.1456	973.81	0.72
308.15	0.196	982.59	0.67
308.15	0.2502	990.42	0.63
308.15	0.3144	998.35	0.59
308.15	0.3893	1005.87	0.63
308.15	0.4796	1013.14	0.69
308.15	0.591	1020.36	0.75
308.15	0.7249	1026.94	0.82
308.15	1	1036.43	0.94
318.15	0	925.16	1.01
318.15	0.0312	936.91	0.94
318.15	0.0646	946.92	0.88
318.15	0.102	956.28	0.83
318.15	0.1456	965.63	0.77
318.15	0.196	974.62	0.72
318.15	0.2502	982.82	0.68
318.15	0.3144	990.96	0.64
318.15	0.3893	998.8	0.6
318.15	0.4796	1006.38	0.65
318.15	0.591	1013.87	0.71
318.15	0.7249	1020.7	0.78
318.15	1	1030.62	0.9

System: dimethylformamide + 1-hexyl-3-methylimidazolium chloride; phases: Liquid
Fixed: Pressure, kPa = 101
Property: Refractive index (Na D-line) (Liquid); method: ABBE:UFactor:4
Temperature, K	Mole fraction of 1-hexyl-3-methylimidazolium chloride	Refractive index (Na D-line)	uncertainty
288.15	0	1.43304	0.00124
288.15	0.0312	1.44088	0.00124
288.15	0.0646	1.44818	0.00124
288.15	0.102	1.45488	0.00124
288.15	0.1456	1.46175	0.00125
288.15	0.196	1.46836	0.00125
288.15	0.2502	1.47473	0.00125
288.15	0.3144	1.4808	0.00125
288.15	0.3893	1.48693	0.00125
288.15	0.4796	1.49278	0.00125
288.15	0.591	1.49886	0.00125
288.15	0.7249	1.50429	0.00125
288.15	1	1.5125	0.00126
298.15	0	1.42858	0.00124
298.15	0.0312	1.43634	0.00124
298.15	0.0646	1.44359	0.00124
298.15	0.102	1.45059	0.00124
298.15	0.1456	1.45751	0.00125
298.15	0.196	1.46433	0.00125
298.15	0.2502	1.47086	0.00125
298.15	0.3144	1.47702	0.00125
298.15	0.3893	1.48213	0.00125
298.15	0.4796	1.48933	0.00125
298.15	0.591	1.49567	0.00125
298.15	0.7249	1.50108	0.00125
298.15	1	1.50953	0.00126
308.15	0	1.42381	0.00124
308.15	0.0312	1.43187	0.00124
308.15	0.0646	1.43909	0.00124
308.15	0.102	1.44632	0.00125
308.15	0.1456	1.4533	0.00125
308.15	0.196	1.46038	0.00125
308.15	0.2502	1.46695	0.00125
308.15	0.3144	1.47335	0.00125
308.15	0.3893	1.47856	0.00125
308.15	0.4796	1.48595	0.00125
308.15	0.591	1.49237	0.00125
308.15	0.7249	1.49797	0.00125
308.15	1	1.50667	0.00126
318.15	0	1.41909	0.00124
318.15	0.0312	1.42765	0.00124
318.15	0.0646	1.43468	0.00124
318.15	0.102	1.44219	0.00125
318.15	0.1456	1.44909	0.00125
318.15	0.196	1.45652	0.00125
318.15	0.2502	1.46293	0.00125
318.15	0.3144	1.46974	0.00125
318.15	0.3893	1.47497	0.00125
318.15	0.4796	1.48264	0.00125
318.15	0.591	1.48916	0.00125
318.15	0.7249	1.49498	0.00125
318.15	1	1.5039	0.00126

System: dimethylformamide + 1-hexyl-3-methylimidazolium chloride; phases: Liquid
Fixed: Pressure, kPa = 101
Property: Viscosity, Pa*s (Liquid); method: CONCYL:UFactor:32
Temperature, K	Mole fraction of 1-hexyl-3-methylimidazolium chloride	Viscosity, Pa*s	uncertainty
288.15	0	0.000936	0.000217
288.15	0.0312	0.001271	0.00025
288.15	0.0646	0.001715	0.000294
288.15	0.102	0.002392	0.000361
288.15	0.1456	0.004166	0.000537
288.15	0.196	0.00628	0.000747
288.15	0.2502	0.010768	0.001192
288.15	0.3144	0.017976	0.001908
288.15	0.3893	0.032588	0.003359
288.15	0.4796	0.065305	0.00766
288.15	0.591	0.134943	0.058227
288.15	0.7249	0.232475	0.154665
298.15	0	0.000825	0.000206
298.15	0.0312	0.001097	0.000233
298.15	0.0646	0.001451	0.000268
298.15	0.102	0.002064	0.000329
298.15	0.1456	0.002874	0.000409
298.15	0.196	0.004815	0.000602
298.15	0.2502	0.007927	0.00091
298.15	0.3144	0.012517	0.001366
298.15	0.3893	0.021487	0.002256
298.15	0.4796	0.040253	0.00412
298.15	0.591	0.076976	0.01454
298.15	0.7249	0.178301	0.098305
308.15	0	0.000736	0.000197
308.15	0.0312	0.000961	0.000219
308.15	0.0646	0.001249	0.000248
308.15	0.102	0.001733	0.000296
308.15	0.1456	0.002348	0.000357
308.15	0.196	0.003817	0.000503
308.15	0.2502	0.006056	0.000725
308.15	0.3144	0.009115	0.001028
308.15	0.3893	0.015077	0.00162
308.15	0.4796	0.026458	0.00275
308.15	0.591	0.047616	0.004851
308.15	0.7249	0.075172	0.013472
308.15	1	2.044156	3.268213
318.15	0	0.000665	0.00019
318.15	0.0312	0.000852	0.000208
318.15	0.0646	0.001091	0.000232
318.15	0.102	0.001489	0.000272
318.15	0.1456	0.001957	0.000318
318.15	0.196	0.003113	0.000433
318.15	0.2502	0.00477	0.000597
318.15	0.3144	0.00688	0.000807
318.15	0.3893	0.010945	0.00121
318.15	0.4796	0.018366	0.001947
318.15	0.591	0.031332	0.003234
318.15	0.7249	0.047692	0.00495
318.15	1	0.884198	1.09529

System: dimethylformamide + 1-methyl-3-octylimidazolium chloride; phases: Liquid
Fixed: Pressure, kPa = 101
Property: Mass density, kg/m3 (Liquid); method: VIBTUB:UFactor:16
Temperature, K	Mole fraction of 1-methyl-3-octylimidazolium chloride	Mass density, kg/m3	uncertainty
288.15	0	953.79	10.03
288.15	0.0306	962.61	10.03
288.15	0.0647	970.04	10.02
288.15	0.1021	976.96	10.02
288.15	0.1457	983.52	10.02
288.15	0.1939	989.54	10.02
288.15	0.2496	995.13	10.02
288.15	0.3143	1000.4	10.01
288.15	0.39	1005.26	10.02
288.15	0.4809	1009.79	10.02
288.15	0.5908	1013.76	10.02
288.15	0.7259	1017.15	10.02
288.15	1	1022.06	10.03
298.15	0	944.26	10.03
298.15	0.0306	953.41	10.03
298.15	0.0647	961.21	10.03
298.15	0.1021	968.34	10.02
298.15	0.1457	975.24	10.02
298.15	0.1939	981.46	10.02
298.15	0.2496	987.32	10.02
298.15	0.3143	992.89	10.02
298.15	0.39	997.98	10.02
298.15	0.4809	1002.82	10.02
298.15	0.5908	1006.97	10.02
298.15	0.7259	1010.6	10.02
298.15	1	1015.97	10.03
308.15	0	934.69	10.04
308.15	0.0306	944.19	10.03
308.15	0.0647	952.27	10.03
308.15	0.1021	959.68	10.03
308.15	0.1457	966.87	10.02
308.15	0.1939	973.37	10.02
308.15	0.2496	979.5	10.02
308.15	0.3143	985.36	10.02
308.15	0.39	990.69	10.02
308.15	0.4809	995.8	10.02
308.15	0.5908	1000.19	10.02
308.15	0.7259	1004.44	10.02
308.15	1	1009.8	10.02
318.15	0	925.16	10.04
318.15	0.0306	934.98	10.04
318.15	0.0647	943.27	10.03
318.15	0.1021	951.06	10.03
318.15	0.1457	958.48	10.03
318.15	0.1939	965.3	10.03
318.15	0.2496	971.71	10.02
318.15	0.3143	977.79	10.02
318.15	0.39	983.45	10.02
318.15	0.4809	988.76	10.02
318.15	0.5908	993.39	10.02
318.15	0.7259	997.95	10.02
318.15	1	1003.62	10.02

System: dimethylformamide + 1-methyl-3-octylimidazolium chloride; phases: Liquid
Fixed: Pressure, kPa = 101
Property: Refractive index (Na D-line) (Liquid); method: ABBE:UFactor:2
Temperature, K	Mole fraction of 1-methyl-3-octylimidazolium chloride	Refractive index (Na D-line)	uncertainty
288.15	0	1.43304	0.01002
288.15	0.0306	1.4392	0.01002
288.15	0.0647	1.44535	0.01002
288.15	0.1021	1.4504	0.01002
288.15	0.1457	1.45598	0.01002
288.15	0.1939	1.46074	0.01002
288.15	0.2496	1.46531	0.01002
288.15	0.3143	1.46967	0.01002
288.15	0.39	1.47407	0.01002
288.15	0.4809	1.47791	0.01002
288.15	0.5908	1.48169	0.01002
288.15	0.7259	1.48534	0.01002
288.15	1	1.49008	0.01002
298.15	0	1.42858	0.01002
298.15	0.0306	1.43459	0.01002
298.15	0.0647	1.44113	0.01002
298.15	0.1021	1.44613	0.01002
298.15	0.1457	1.45203	0.01002
298.15	0.1939	1.45641	0.01002
298.15	0.2496	1.46173	0.01002
298.15	0.3143	1.46588	0.01002
298.15	0.39	1.47066	0.01002
298.15	0.4809	1.47429	0.01002
298.15	0.5908	1.47835	0.01002
298.15	0.7259	1.48212	0.01002
298.15	1	1.48709	0.01002
308.15	0	1.42381	0.01002
308.15	0.0306	1.43007	0.01002
308.15	0.0647	1.4361	0.01002
308.15	0.1021	1.44189	0.01002
308.15	0.1457	1.44766	0.01002
308.15	0.1939	1.45241	0.01002
308.15	0.2496	1.45731	0.01002
308.15	0.3143	1.46212	0.01002
308.15	0.39	1.46672	0.01002
308.15	0.4809	1.47089	0.01002
308.15	0.5908	1.47504	0.01002
308.15	0.7259	1.47897	0.01002
308.15	1	1.48413	0.01002
318.15	0	1.41909	0.01002
318.15	0.0306	1.42562	0.01002
318.15	0.0647	1.43143	0.01002
318.15	0.1021	1.438	0.01002
318.15	0.1457	1.44342	0.01002
318.15	0.1939	1.44849	0.01002
318.15	0.2496	1.45347	0.01002
318.15	0.3143	1.4586	0.01002
318.15	0.39	1.46306	0.01002
318.15	0.4809	1.46765	0.01002
318.15	0.5908	1.47179	0.01002
318.15	0.7259	1.47589	0.01002
318.15	1	1.48122	0.01002

System: dimethylformamide + 1-methyl-3-octylimidazolium chloride; phases: Liquid
Fixed: Pressure, kPa = 101
Property: Viscosity, Pa*s (Liquid); method: CONCYL:UFactor:16
Temperature, K	Mole fraction of 1-methyl-3-octylimidazolium chloride	Viscosity, Pa*s	uncertainty
288.15	0	0.000936	0.000136
298.15	0	0.000825	0.000125
308.15	0	0.000736	0.000116
318.15	0	0.000665	0.000109
288.15	0.0306	0.001617	0.000207
298.15	0.0306	0.001348	0.000179
308.15	0.0306	0.001172	0.000161
318.15	0.0306	0.001013	0.000144
298.15	0.0647	0.001629	0.000209
288.15	0.0647	0.002007	0.000249
308.15	0.0647	0.001448	0.000189
318.15	0.0647	0.001289	0.000173
298.15	0.1021	0.002262	0.000277
308.15	0.1021	0.001909	0.000239
288.15	0.1021	0.002763	0.000331
318.15	0.1021	0.001661	0.000212
298.15	0.1457	0.003234	0.000382
308.15	0.1457	0.002615	0.000315
288.15	0.1457	0.004132	0.00048
318.15	0.1457	0.002182	0.000268
288.15	0.1939	0.005958	0.00068
298.15	0.1939	0.004582	0.000529
308.15	0.1939	0.003636	0.000426
318.15	0.1939	0.00297	0.000353
288.15	0.2496	0.008425	0.00095
308.15	0.2496	0.004753	0.000548
298.15	0.2496	0.006215	0.000708
318.15	0.2496	0.003753	0.000439
308.15	0.3143	0.00707	0.000801
288.15	0.3143	0.013282	0.001483
298.15	0.3143	0.009498	0.001068
318.15	0.3143	0.005427	0.000622
308.15	0.39	0.010118	0.001136
288.15	0.39	0.020458	0.002271
298.15	0.39	0.014027	0.001565
318.15	0.39	0.007536	0.000853
308.15	0.4809	0.015154	0.001689
288.15	0.4809	0.034231	0.003784
298.15	0.4809	0.022181	0.002461
318.15	0.4809	0.010765	0.001207
288.15	0.5908	0.060632	0.006509
308.15	0.5908	0.02436	0.0027
298.15	0.5908	0.037327	0.004125
318.15	0.5908	0.016683	0.001857
298.15	0.7259	0.06931	0.008288
308.15	0.7259	0.043044	0.004754
288.15	0.7259	0.122327	0.024944
318.15	0.7259	0.028247	0.003128
308.15	1	0.155026	0.038084
318.15	1	0.065946	0.007566
