Measured thermophysical data. Solubilities of 4-Amino-4?-nitrodiphenyl Sulfide in Six Organic Solvents from 287.45 K to 365.55 K
Source: J. Chem. Eng. Data, 2013, 10.1021/je4000982
Compound 1: 4-((4-nitrophenyl)thio)aniline, C12H10N2O2S, InChI=1S/C12H10N2O2S/c13-9-1-5-11(6-2-9)17-12-7-3-10(4-8-12)14(15)16/h1-8H,13H2
Compound 2: butan-1-ol, C4H10O, InChI=1S/C4H10O/c1-2-3-4-5/h5H,2-4H2,1H3
Compound 3: ethyl acetate, C4H8O2, InChI=1S/C4H8O2/c1-3-6-4(2)5/h3H2,1-2H3
Compound 4: chlorobenzene, C6H5Cl, InChI=1S/C6H5Cl/c7-6-4-2-1-3-5-6/h1-5H
Compound 5: toluene, C7H8, InChI=1S/C7H8/c1-7-5-3-2-4-6-7/h2-6H,1H3
Compound 6: dichloromethane, CH2Cl2, InChI=1S/CH2Cl2/c2-1-3/h1H2
Compound 7: trichloromethane, CHCl3, InChI=1S/CHCl3/c2-1(3)4/h1H

System: butan-1-ol + 4-((4-nitrophenyl)thio)aniline; phases: Liquid, Crystal
Fixed: Pressure, kPa = 100
Property: Mole fraction of 4-((4-nitrophenyl)thio)aniline (Liquid); method: Synthetic
Temperature, K	Mole fraction of 4-((4-nitrophenyl)thio)aniline	uncertainty
292.55	0.0018	0.0001
297.75	0.0024	0.0001
302.65	0.0031	0.0001
307.65	0.004	0.0001
312.35	0.005	0.0001
317.55	0.0061	0.0002
322.25	0.0081	0.0002
327.85	0.0102	0.0002
332.65	0.0127	0.0003
337.75	0.0166	0.0004
342.95	0.0203	0.0005
350.05	0.0269	0.0006
360.15	0.0415	0.0009
365.35	0.0509	0.0011

System: 4-((4-nitrophenyl)thio)aniline + ethyl acetate; phases: Liquid, Crystal
Fixed: Pressure, kPa = 100
Property: Mole fraction of 4-((4-nitrophenyl)thio)aniline (Liquid); method: Synthetic
Temperature, K	Mole fraction of 4-((4-nitrophenyl)thio)aniline	uncertainty
290.45	0.0511	0.0011
295.65	0.0575	0.0012
300.45	0.063	0.0013
305.65	0.0709	0.0015
309.15	0.0766	0.0016
313.65	0.0836	0.0018
318.25	0.0911	0.002
323.65	0.1015	0.0022
328.65	0.1123	0.0024
333.95	0.1234	0.0026
338.05	0.1344	0.0029
343.25	0.1471	0.0032
346.15	0.1554	0.0033

System: 4-((4-nitrophenyl)thio)aniline + chlorobenzene; phases: Liquid, Crystal
Fixed: Pressure, kPa = 100
Property: Mole fraction of 4-((4-nitrophenyl)thio)aniline (Liquid); method: Synthetic
Temperature, K	Mole fraction of 4-((4-nitrophenyl)thio)aniline	uncertainty
291.25	0.011	0.0002
296.55	0.0133	0.0003
301.75	0.0174	0.0004
306.25	0.019	0.0004
311.35	0.0225	0.0005
316.65	0.0275	0.0006
321.25	0.0314	0.0007
326.15	0.0361	0.0008
331.75	0.0418	0.0009
336.65	0.0483	0.001
341.55	0.0558	0.0012
345.85	0.0622	0.0013
355.65	0.0802	0.0017
365.45	0.1028	0.0022

System: 4-((4-nitrophenyl)thio)aniline + toluene; phases: Liquid, Crystal
Fixed: Pressure, kPa = 100
Property: Mole fraction of 4-((4-nitrophenyl)thio)aniline (Liquid); method: Synthetic
Temperature, K	Mole fraction of 4-((4-nitrophenyl)thio)aniline	uncertainty
289.75	0.0183	0.0004
294.55	0.0214	0.0005
299.65	0.0241	0.0005
304.75	0.0283	0.0006
309.35	0.0337	0.0007
314.55	0.0385	0.0008
319.35	0.0448	0.001
324.65	0.0506	0.0011
329.85	0.0575	0.0012
334.75	0.066	0.0014
339.15	0.0727	0.0016
343.55	0.0811	0.0017
349.65	0.0929	0.002
355.85	0.1059	0.0023
365.55	0.1286	0.0027

System: dichloromethane + 4-((4-nitrophenyl)thio)aniline; phases: Liquid, Crystal
Fixed: Pressure, kPa = 100
Property: Mole fraction of 4-((4-nitrophenyl)thio)aniline (Liquid); method: Synthetic
Temperature, K	Mole fraction of 4-((4-nitrophenyl)thio)aniline	uncertainty
287.45	0.0244	0.0005
290.95	0.0275	0.0006
293.75	0.0299	0.0007
297.15	0.0339	0.0007
300.85	0.0379	0.0008
303.95	0.0416	0.0009
306.85	0.046	0.001
309.55	0.0495	0.0011

System: trichloromethane + 4-((4-nitrophenyl)thio)aniline; phases: Liquid, Crystal
Fixed: Pressure, kPa = 100
Property: Mole fraction of 4-((4-nitrophenyl)thio)aniline (Liquid); method: Synthetic
Temperature, K	Mole fraction of 4-((4-nitrophenyl)thio)aniline	uncertainty
288.35	0.0218	0.0005
293.55	0.0264	0.0006
298.45	0.0307	0.0007
303.65	0.0361	0.0008
309.25	0.0433	0.0009
314.45	0.0501	0.0011
319.25	0.0579	0.0012
324.55	0.0665	0.0014
329.65	0.076	0.0016
