Measured thermophysical data. Solubility of Veratric Acid in Eight Monosolvents and Ethanol + 1-Butanol at Various Temperatures
Source: J. Chem. Eng. Data, 2013, 10.1021/je400029t
Compound 1: 3,4-dimethoxybenzoic acid, C9H10O4, InChI=1S/C9H10O4/c1-12-7-4-3-6(9(10)11)5-8(7)13-2/h3-5H,1-2H3,(H,10,11), purity 99%
Compound 2: ethanol, C2H6O, InChI=1S/C2H6O/c1-2-3/h3H,2H2,1H3, purity 99.7%
Compound 3: propan-1-ol, C3H8O, InChI=1S/C3H8O/c1-2-3-4/h4H,2-3H2,1H3, purity 99.8%
Compound 4: propan-2-ol, C3H8O, InChI=1S/C3H8O/c1-3(2)4/h3-4H,1-2H3, purity 99.7%
Compound 5: butan-1-ol, C4H10O, InChI=1S/C4H10O/c1-2-3-4-5/h5H,2-4H2,1H3, purity 99.5%
Compound 6: 2-methyl-1-propanol, C4H10O, InChI=1S/C4H10O/c1-4(2)3-5/h4-5H,3H2,1-2H3, purity 99.5%
Compound 7: methyl ethanoate, C3H6O2, InChI=1S/C3H6O2/c1-3(4)5-2/h1-2H3, purity 99.5%
Compound 8: ethyl acetate, C4H8O2, InChI=1S/C4H8O2/c1-3-6-4(2)5/h3H2,1-2H3, purity 99.5%
Compound 9: butanone, C4H8O, InChI=1S/C4H8O/c1-3-4(2)5/h3H2,1-2H3, purity 99.5%
Compound 10: 3,4,5-trihydroxybenzoic acid, C7H6O5, InChI=1S/C7H6O5/c8-4-1-3(7(11)12)2-5(9)6(4)10/h1-2,8-10H,(H,11,12), purity 99%
Compound 11: water, H2O, InChI=1S/H2O/h1H2

System: 3,4-dimethoxybenzoic acid; phases: Crystal, Liquid, Air at 1 atmosphere
Property: Normal melting temperature, K (Crystal); method: DTA
Normal melting temperature, K	uncertainty
453.12	0.53

System: 3,4-dimethoxybenzoic acid; phases: Crystal, Liquid, Air at 1 atmosphere
Property: Molar enthalpy of transition or fusion, kJ/mol (Crystal); method: DSC
Molar enthalpy of transition or fusion, kJ/mol	uncertainty
29.6	1.33

System: 3,4,5-trihydroxybenzoic acid + water; phases: Liquid, Crystal
Fixed: Pressure, kPa = 101
Property: Mole fraction of 3,4,5-trihydroxybenzoic acid (Liquid); method: laser beam intensity method
Temperature, K	Mole fraction of 3,4,5-trihydroxybenzoic acid	uncertainty
292.18	0.00098	8e-05
298	0.0011	9e-05
303.09	0.00142	0.00012
308.21	0.0019	0.00016
313.04	0.00244	0.0002
318.15	0.00328	0.00027
323.15	0.00427	0.00035
327.85	0.00523	0.00043
333.15	0.00693	0.00057
293.15	0.00101	8e-05

System: ethanol + 3,4-dimethoxybenzoic acid; phases: Liquid, Crystal
Fixed: Pressure, kPa = 101
Property: Mole fraction of 3,4-dimethoxybenzoic acid (Liquid); method: laser beam intensity method
Temperature, K	Mole fraction of 3,4-dimethoxybenzoic acid	uncertainty
278.15	0.0035	0.0003
282.93	0.0042	0.0003
288.21	0.0051	0.0004
293.08	0.0062	0.0005
298	0.0074	0.0006
303.33	0.0093	0.0008
307.9	0.011	0.0009
313.3	0.0136	0.0011
317.15	0.0161	0.0013
323.3	0.0203	0.0016

System: propan-1-ol + 3,4-dimethoxybenzoic acid; phases: Liquid, Crystal
Fixed: Pressure, kPa = 101
Property: Mole fraction of 3,4-dimethoxybenzoic acid (Liquid); method: laser beam intensity method
Temperature, K	Mole fraction of 3,4-dimethoxybenzoic acid	uncertainty
278.37	0.0027	0.0002
283.05	0.0033	0.0003
288.39	0.0042	0.0003
293.3	0.0051	0.0004
299	0.0066	0.0005
303.17	0.0079	0.0006
308.27	0.0097	0.0008
313.13	0.0118	0.001
318.15	0.0146	0.0012
323.2	0.0177	0.0014

System: propan-2-ol + 3,4-dimethoxybenzoic acid; phases: Liquid, Crystal
Fixed: Pressure, kPa = 101
Property: Mole fraction of 3,4-dimethoxybenzoic acid (Liquid); method: laser beam intensity method
Temperature, K	Mole fraction of 3,4-dimethoxybenzoic acid	uncertainty
278.37	0.0024	0.0002
283.05	0.003	0.0002
288.39	0.0039	0.0003
294.07	0.0051	0.0004
299	0.0063	0.0005
303.17	0.0074	0.0006
308.27	0.0095	0.0008
313.13	0.0118	0.001
318.15	0.015	0.0012
323.2	0.0183	0.0015

System: butan-1-ol + 3,4-dimethoxybenzoic acid; phases: Liquid, Crystal
Fixed: Pressure, kPa = 101
Property: Mole fraction of 3,4-dimethoxybenzoic acid (Liquid); method: laser beam intensity method
Temperature, K	Mole fraction of 3,4-dimethoxybenzoic acid	uncertainty
277.9	0.0025	0.0002
283.25	0.003	0.0002
288.15	0.0037	0.0003
293.04	0.0046	0.0004
298.15	0.0057	0.0005
302.94	0.007	0.0006
308.1	0.0089	0.0007
313.15	0.011	0.0009
318.01	0.0134	0.0011
323.33	0.0168	0.0013

System: 2-methyl-1-propanol + 3,4-dimethoxybenzoic acid; phases: Liquid, Crystal
Fixed: Pressure, kPa = 101
Property: Mole fraction of 3,4-dimethoxybenzoic acid (Liquid); method: laser beam intensity method
Temperature, K	Mole fraction of 3,4-dimethoxybenzoic acid	uncertainty
277.9	0.0015	0.0001
283.25	0.002	0.0002
288.15	0.0026	0.0002
293.04	0.0032	0.0003
298.15	0.0041	0.0003
302.94	0.0052	0.0004
308.1	0.0066	0.0005
313.15	0.0083	0.0007
318.01	0.0105	0.0008
323.33	0.0132	0.0011

System: methyl ethanoate + 3,4-dimethoxybenzoic acid; phases: Liquid, Crystal
Fixed: Pressure, kPa = 101
Property: Mole fraction of 3,4-dimethoxybenzoic acid (Liquid); method: laser beam intensity method
Temperature, K	Mole fraction of 3,4-dimethoxybenzoic acid	uncertainty
278.3	0.0042	0.0003
283.01	0.0049	0.0004
288.05	0.0058	0.0005
293.15	0.0068	0.0005
298	0.008	0.0006
303.13	0.0095	0.0008
308.07	0.0111	0.0009
313.15	0.0131	0.0011
318.06	0.0152	0.0012
323.37	0.0177	0.0014

System: 3,4-dimethoxybenzoic acid + ethyl acetate; phases: Liquid, Crystal
Fixed: Pressure, kPa = 101
Property: Mole fraction of 3,4-dimethoxybenzoic acid (Liquid); method: laser beam intensity method
Temperature, K	Mole fraction of 3,4-dimethoxybenzoic acid	uncertainty
278.3	0.0037	0.0003
283.01	0.0044	0.0004
288.05	0.0052	0.0004
293.15	0.0061	0.0005
298	0.0072	0.0006
303.13	0.0083	0.0007
308.07	0.0099	0.0008
313.15	0.0116	0.0009
318.06	0.0133	0.0011
323.37	0.0157	0.0013

System: butanone + 3,4-dimethoxybenzoic acid; phases: Liquid, Crystal
Fixed: Pressure, kPa = 101
Property: Mole fraction of 3,4-dimethoxybenzoic acid (Liquid); method: laser beam intensity method
Temperature, K	Mole fraction of 3,4-dimethoxybenzoic acid	uncertainty
278.95	0.0068	0.0005
283.15	0.0077	0.0006
287.95	0.0089	0.0007
293.32	0.0104	0.0008
298.13	0.012	0.001
303.15	0.014	0.0011
308.37	0.0162	0.0013
313.05	0.0184	0.0015
318.15	0.0212	0.0017
323.49	0.0246	0.002

System: ethanol + butan-1-ol + 3,4-dimethoxybenzoic acid; phases: Liquid, Crystal
Fixed: Pressure, kPa = 101
Property: Mole fraction of 3,4-dimethoxybenzoic acid (Liquid); method: laser beam intensity method
Temperature, K	Solvent: Mass fraction of ethanol	Mole fraction of 3,4-dimethoxybenzoic acid	uncertainty
278.75	0.1	0.0028	0.0002
283.26	0.1	0.0036	0.0003
288.15	0.1	0.0045	0.0004
293.18	0.1	0.0054	0.0004
298.41	0.1	0.0067	0.0005
303.15	0.1	0.0083	0.0007
308.01	0.1	0.0102	0.0008
313.15	0.1	0.0125	0.001
317.94	0.1	0.0152	0.0012
323.12	0.1	0.0189	0.0015
278.65	0.2	0.003	0.0002
283.15	0.2	0.0037	0.0003
288.21	0.2	0.0045	0.0004
293.18	0.2	0.0055	0.0004
298.41	0.2	0.0069	0.0006
303.35	0.2	0.0085	0.0007
308.01	0.2	0.0103	0.0008
313.15	0.2	0.0126	0.001
317.94	0.2	0.0152	0.0012
323.1	0.2	0.0186	0.0015
277.94	0.3	0.0028	0.0002
283.05	0.3	0.0036	0.0003
288.38	0.3	0.0045	0.0004
293.45	0.3	0.0055	0.0004
298.25	0.3	0.0067	0.0005
303.55	0.3	0.0083	0.0007
308.13	0.3	0.0101	0.0008
313.15	0.3	0.0123	0.001
318.29	0.3	0.015	0.0012
323.06	0.3	0.018	0.0014
279.2	0.4	0.0029	0.0002
283.45	0.4	0.0034	0.0003
288.03	0.4	0.0043	0.0003
292.91	0.4	0.0052	0.0004
298.02	0.4	0.0064	0.0005
303.66	0.4	0.008	0.0006
307.94	0.4	0.0095	0.0008
313.1	0.4	0.0118	0.0009
318.15	0.4	0.0143	0.0011
323.05	0.4	0.0173	0.0014
279.2	0.5	0.0034	0.0003
283.45	0.5	0.004	0.0003
288.03	0.5	0.0048	0.0004
292.91	0.5	0.0058	0.0005
298.02	0.5	0.0071	0.0006
303.66	0.5	0.009	0.0007
307.94	0.5	0.0106	0.0009
313.1	0.5	0.0129	0.001
318.15	0.5	0.0156	0.0013
323.05	0.5	0.0188	0.0015
278.04	0.6	0.0032	0.0003
283.16	0.6	0.0041	0.0003
288.15	0.6	0.0049	0.0004
293.14	0.6	0.006	0.0005
298.08	0.6	0.0073	0.0006
303.13	0.6	0.0089	0.0007
307.94	0.6	0.0108	0.0009
313.05	0.6	0.013	0.001
318.19	0.6	0.016	0.0013
323.33	0.6	0.0195	0.0016
278.04	0.7	0.0034	0.0003
283.16	0.7	0.004	0.0003
288.15	0.7	0.005	0.0004
293.14	0.7	0.0061	0.0005
298.08	0.7	0.0074	0.0006
303.13	0.7	0.009	0.0007
307.94	0.7	0.0109	0.0009
313.05	0.7	0.0132	0.0011
318.19	0.7	0.0161	0.0013
323.33	0.7	0.0194	0.0016
278.5	0.8	0.0034	0.0003
283.15	0.8	0.0041	0.0003
288.15	0.8	0.005	0.0004
293.16	0.8	0.0061	0.0005
298.29	0.8	0.0077	0.0006
303.22	0.8	0.0093	0.0007
308.31	0.8	0.0115	0.0009
312.99	0.8	0.0137	0.0011
318.25	0.8	0.0168	0.0013
323.42	0.8	0.0207	0.0017
278.37	0.9	0.0035	0.0003
283.05	0.9	0.0043	0.0003
288.39	0.9	0.0051	0.0004
293.16	0.9	0.0062	0.0005
298.29	0.9	0.0077	0.0006
303.22	0.9	0.0091	0.0007
308.31	0.9	0.0112	0.0009
312.99	0.9	0.0133	0.0011
318.25	0.9	0.0162	0.0013
323.42	0.9	0.0196	0.0016
