Measured thermophysical data. Effect of Ascorbic Acid on the Colloidal and Micellar Properties of Anionic, Cationic, and Nonionic Surfactants: Conductivity, Volumetric, Viscometric, and Fluorescence Study
Source: J. Chem. Eng. Data, 2013, 10.1021/je400667c
Compound 1: L-ascorbic acid, C6H8O6, InChI=1S/C6H8O6/c7-1-2(8)5-3(9)4(10)6(11)12-5/h2,5,7-10H,1H2/t2-,5+/m0/s1
Compound 2: sodium dodecyl sulfate, C12H25NaO4S, InChI=1S/C12H26O4S.Na/c1-2-3-4-5-6-7-8-9-10-11-12-16-17(13,14)15;/h2-12H2,1H3,(H,13,14,15);/q;+1/p-1
Compound 3: water, H2O, InChI=1S/H2O/h1H2, purity 99.9%
Compound 4: 1-hexadecylpyridinium bromide, C21H38BrN, InChI=1S/C21H38N.BrH/c1-2-3-4-5-6-7-8-9-10-11-12-13-14-16-19-22-20-17-15-18-21-22;/h15,17-18,20-21H,2-14,16,19H2,1H3;1H/q+1;/p-1
Compound 5: 3,6,9,12,15,18,21,24,27,30,33,36,39,42,45,48,51,54,57,60-eicosaoxahexaheptacontan-1-ol, C56H114O21, InChI=1S/C56H114O21/c1-2-3-4-5-6-7-8-9-10-11-12-13-14-15-17-58-19-21-60-23-25-62-27-29-64-31-33-66-35-37-68-39-41-70-43-45-72-47-49-74-51-53-76-55-56-77-54-52-75-50-48-73-46-44-71-42-40-69-38-36-67-34-32-65-30-28-63-26-24-61-22-20-59-18-16-57/h57H,2-56H2,1H3

System: L-ascorbic acid + sodium dodecyl sulfate + water; phases: Liquid
Fixed: Pressure, kPa = 100
Fixed: Frequency, MHz = 0.003
Property: Electrical conductivity, S/m (Liquid); method: Alternating current cell with electrodes
Solvent: Molality, mol/kg of L-ascorbic acid	Temperature, K	Molality, mol/kg of sodium dodecyl sulfate	Electrical conductivity, S/m	uncertainty
0	298.15	0.00086	0.0002247	1.44e-05
0	298.15	0.00135	0.0003457	2.2e-05
0	298.15	0.00161	0.0004316	2.75e-05
0	298.15	0.00172	0.0005421	3.45e-05
0	298.15	0.0023	0.0007684	4.89e-05
0	298.15	0.00342	0.0009838	6.26e-05
0	298.15	0.005	0.001438	9.15e-05
0	298.15	0.00681	0.0017698	0.0001126
0	298.15	0.0075	0.0020254	0.0001289
0	298.15	0.0108	0.0026447	0.0001683
0	298.15	0.01283	0.0029274	0.0001863
0	298.15	0.01582	0.0033508	0.0002132
0	298.15	0.01974	0.0039162	0.0002492
0	298.15	0.02351	0.0044481	0.0002831
0	298.15	0.02665	0.0048254	0.0003071
0.00089	298.15	0.00085	0.0002651	1.69e-05
0.00089	298.15	0.0013	0.0003784	2.41e-05
0.00089	298.15	0.00158	0.0004738	3.02e-05
0.00089	298.15	0.00171	0.0006276	3.99e-05
0.00089	298.15	0.0022	0.0007824	4.98e-05
0.00089	298.15	0.00342	0.0010038	6.39e-05
0.00089	298.15	0.0048	0.0014634	9.31e-05
0.00089	298.15	0.0068	0.0020498	0.0001304
0.00089	298.15	0.0073	0.0021237	0.0001352
0.00089	298.15	0.0105	0.0028369	0.0001805
0.00089	298.15	0.01282	0.0031857	0.0002028
0.00089	298.15	0.01561	0.0036118	0.0002299
0.00089	298.15	0.01973	0.0041653	0.0002651
0.00089	298.15	0.022	0.0045022	0.0002865
0.00089	298.15	0.02664	0.0050961	0.0003243
0.00178	298.15	0.00082	0.0003057	1.95e-05
0.00178	298.15	0.001	0.0004539	2.89e-05
0.00178	298.15	0.0013	0.0005869	3.74e-05
0.00178	298.15	0.0015	0.0006786	4.32e-05
0.00178	298.15	0.002	0.0008591	5.47e-05
0.00178	298.15	0.0031	0.0011834	7.53e-05
0.00178	298.15	0.0046	0.0016357	0.0001041
0.00178	298.15	0.0065	0.0021382	0.0001361
0.00178	298.15	0.007	0.0023869	0.0001519
0.00178	298.15	0.01	0.0030726	0.0001956
0.00178	298.15	0.0125	0.0034701	0.0002209
0.00178	298.15	0.0153	0.0040137	0.0002555
0.00178	298.15	0.0194	0.0046586	0.0002965
0.00178	298.15	0.0218	0.0050628	0.0003222
0.00178	298.15	0.0263	0.0057233	0.0003643
0.00267	298.15	0.0008	0.0003354	2.14e-05
0.00267	298.15	0.0009	0.000518	3.3e-05
0.00267	298.15	0.0011	0.0006539	4.16e-05
0.00267	298.15	0.00121	0.0008254	5.26e-05
0.00267	298.15	0.0018	0.0009588	6.1e-05
0.00267	298.15	0.0029	0.0013368	8.51e-05
0.00267	298.15	0.0043	0.0017931	0.0001141
0.00267	298.15	0.0062	0.0023824	0.0001516
0.00267	298.15	0.0068	0.002573	0.0001638
0.00267	298.15	0.0097	0.0034076	0.0002169
0.00267	298.15	0.0122	0.0037721	0.0002401
0.00267	298.15	0.015	0.0042452	0.0002702
0.00267	298.15	0.0191	0.0049375	0.0003143
0.00267	298.15	0.0215	0.0053287	0.0003392
0.00267	298.15	0.026	0.005982	0.0003807
0.00356	298.15	0.00069	0.0009157	5.83e-05
0.00356	298.15	0.00076	0.0009784	6.24e-05
0.00356	298.15	0.0009	0.0010567	6.73e-05
0.00356	298.15	0.001	0.0010981	7e-05
0.00356	298.15	0.0016	0.0012767	8.13e-05
0.00356	298.15	0.0026	0.0017455	0.0001111
0.00356	298.15	0.004	0.0022037	0.0001403
0.00356	298.15	0.0059	0.0029442	0.0001874
0.00356	298.15	0.0065	0.0031865	0.0002028
0.00356	298.15	0.0095	0.0039362	0.0002505
0.00356	298.15	0.0119	0.0044422	0.0002827
0.00356	298.15	0.0147	0.0050475	0.0003212
0.00356	298.15	0.0186	0.005726	0.000364
0.00356	298.15	0.0211	0.0062451	0.0003975
0.00356	298.15	0.0256	0.0069438	0.0004419
0.00445	298.15	0.00052	0.0012051	7.68e-05
0.00445	298.15	0.00066	0.0012954	8.25e-05
0.00445	298.15	0.00085	0.0013847	8.82e-05
0.00445	298.15	0.00096	0.0015195	9.68e-05
0.00445	298.15	0.00156	0.0017228	0.0001097
0.00445	298.15	0.00255	0.0021374	0.0001361
0.00445	298.15	0.00395	0.0027169	0.0001729
0.00445	298.15	0.00585	0.0035294	0.0002246
0.00445	298.15	0.00645	0.0038154	0.0002428
0.00445	298.15	0.00946	0.0046855	0.0002982
0.00445	298.15	0.01186	0.0051744	0.0003293
0.00445	298.15	0.01466	0.0056587	0.0003601
0.00445	298.15	0.01856	0.0064463	0.0004103
0.00445	298.15	0.02105	0.0068834	0.0004381
0.00445	298.15	0.025	0.0075281	0.0004791
0.00623	298.15	0.00048	0.0013214	8.41e-05
0.00623	298.15	0.0006	0.0014678	9.35e-05
0.00623	298.15	0.0008	0.0016174	0.0001029
0.00623	298.15	0.00091	0.0017033	0.0001084
0.00623	298.15	0.00151	0.0018934	0.0001205
0.00623	298.15	0.0025	0.0022753	0.0001448
0.00623	298.15	0.0039	0.0030765	0.0001958
0.00623	298.15	0.0058	0.0038621	0.0002458
0.00623	298.15	0.0064	0.0042187	0.0002685
0.00623	298.15	0.00941	0.0054331	0.0003458
0.00623	298.15	0.01181	0.0059004	0.0003755
0.00623	298.15	0.01461	0.0064114	0.000408
0.00623	298.15	0.01851	0.0072147	0.0004591
0.00623	298.15	0.021	0.0075651	0.0004814
0.00623	298.15	0.02495	0.0083178	0.0005293
0.00712	298.15	0.00044	0.0015524	9.88e-05
0.00712	298.15	0.00064	0.0016557	0.0001054
0.00712	298.15	0.00073	0.0018637	0.0001186
0.00712	298.15	0.00085	0.0020388	0.0001298
0.00712	298.15	0.00144	0.0024765	0.0001576
0.00712	298.15	0.00243	0.0031478	0.0002004
0.00712	298.15	0.00383	0.0038768	0.000247
0.00712	298.15	0.00574	0.0050796	0.0003234
0.00712	298.15	0.00633	0.0054027	0.000344
0.00712	298.15	0.00935	0.0061834	0.0003936
0.00712	298.15	0.01175	0.0067947	0.0004325
0.00712	298.15	0.01455	0.0072851	0.0004637
0.00712	298.15	0.01842	0.0080633	0.0005132
0.00712	298.15	0.02091	0.0084488	0.0005377
0.00712	298.15	0.02485	0.0090724	0.0005774
0	303.15	0.00086	0.0002895	1.85e-05
0	303.15	0.00135	0.000386	2.46e-05
0	303.15	0.00161	0.000497	3.17e-05
0	303.15	0.00172	0.0005985	3.81e-05
0	303.15	0.0023	0.000813	5.17e-05
0	303.15	0.00342	0.0010545	6.71e-05
0	303.15	0.005	0.0015	9.55e-05
0	303.15	0.00681	0.0019268	0.0001226
0	303.15	0.0075	0.002105	0.000134
0	303.15	0.0108	0.002691	0.0001713
0	303.15	0.01283	0.0029863	0.0001901
0	303.15	0.01582	0.003401	0.0002164
0	303.15	0.01974	0.0039825	0.0002535
0	303.15	0.02351	0.0044047	0.0002803
0	303.15	0.02665	0.0048668	0.0003097
0.00089	303.15	0.00085	0.0003112	1.98e-05
0.00089	303.15	0.0013	0.000426	2.71e-05
0.00089	303.15	0.00158	0.000538	3.43e-05
0.00089	303.15	0.00171	0.00063	4.01e-05
0.00089	303.15	0.0022	0.0008	5.09e-05
0.00089	303.15	0.00342	0.0010928	6.96e-05
0.00089	303.15	0.0048	0.00153	9.74e-05
0.00089	303.15	0.0068	0.002042	0.00013
0.00089	303.15	0.0073	0.002207	0.0001405
0.00089	303.15	0.0105	0.002907	0.000185
0.00089	303.15	0.01282	0.0033545	0.0002135
0.00089	303.15	0.01561	0.003807	0.0002423
0.00089	303.15	0.01973	0.0043557	0.0002772
0.00089	303.15	0.022	0.004652	0.0002961
0.00089	303.15	0.02664	0.0052617	0.0003349
0.00178	303.15	0.00082	0.000355	2.26e-05
0.00178	303.15	0.001	0.000522	3.32e-05
0.00178	303.15	0.0013	0.000651	4.15e-05
0.00178	303.15	0.0015	0.00074	4.71e-05
0.00178	303.15	0.002	0.000941	5.99e-05
0.00178	303.15	0.0031	0.001256	7.99e-05
0.00178	303.15	0.0046	0.0017	0.0001082
0.00178	303.15	0.0065	0.0022	0.00014
0.00178	303.15	0.007	0.002378	0.0001513
0.00178	303.15	0.01	0.003151	0.0002005
0.00178	303.15	0.0125	0.003669	0.0002335
0.00178	303.15	0.0153	0.004201	0.0002674
0.00178	303.15	0.0194	0.004751	0.0003024
0.00178	303.15	0.0218	0.005156	0.0003281
0.00178	303.15	0.0263	0.005802	0.0003692
0.00267	303.15	0.0008	0.00048	3.06e-05
0.00267	303.15	0.0009	0.000582	3.71e-05
0.00267	303.15	0.0011	0.00071	4.52e-05
0.00267	303.15	0.00121	0.0008	5.09e-05
0.00267	303.15	0.0018	0.001002	6.38e-05
0.00267	303.15	0.0029	0.001412	8.99e-05
0.00267	303.15	0.0043	0.001868	0.0001189
0.00267	303.15	0.0062	0.00245	0.0001559
0.00267	303.15	0.0068	0.002651	0.0001687
0.00267	303.15	0.0097	0.003487	0.0002219
0.00267	303.15	0.0122	0.00395	0.0002514
0.00267	303.15	0.015	0.0045	0.0002864
0.00267	303.15	0.0191	0.0053	0.0003373
0.00267	303.15	0.0215	0.0057	0.0003628
0.00267	303.15	0.026	0.00625	0.0003978
0.00356	303.15	0.00069	0.001	6.37e-05
0.00356	303.15	0.00076	0.0011	7e-05
0.00356	303.15	0.0009	0.0012	7.64e-05
0.00356	303.15	0.001	0.00125	7.96e-05
0.00356	303.15	0.0016	0.0015	9.55e-05
0.00356	303.15	0.0026	0.0018	0.0001146
0.00356	303.15	0.004	0.0023	0.0001464
0.00356	303.15	0.0059	0.00301	0.0001916
0.00356	303.15	0.0065	0.003251	0.0002069
0.00356	303.15	0.0095	0.004	0.0002546
0.00356	303.15	0.0119	0.004508	0.0002869
0.00356	303.15	0.0147	0.005015	0.0003192
0.00356	303.15	0.0186	0.0058	0.0003691
0.00356	303.15	0.0211	0.006302	0.0004011
0.00356	303.15	0.0256	0.006901	0.0004392
0.00445	303.15	0.00052	0.0013	8.28e-05
0.00445	303.15	0.00066	0.0014	8.91e-05
0.00445	303.15	0.00085	0.0015	9.55e-05
0.00445	303.15	0.00096	0.0016	0.0001018
0.00445	303.15	0.00156	0.0018	0.0001146
0.00445	303.15	0.00255	0.0022	0.00014
0.00445	303.15	0.00395	0.0028	0.0001782
0.00445	303.15	0.00585	0.0036	0.0002291
0.00445	303.15	0.00645	0.0038	0.0002418
0.00445	303.15	0.00946	0.0048	0.0003055
0.00445	303.15	0.01186	0.0053	0.0003373
0.00445	303.15	0.01466	0.0058	0.0003691
0.00445	303.15	0.01856	0.0066	0.00042
0.00445	303.15	0.02105	0.007	0.0004455
0.00445	303.15	0.025	0.0077	0.0004901
0.00623	303.15	0.00048	0.0014	8.91e-05
0.00623	303.15	0.0006	0.0016	0.0001019
0.00623	303.15	0.0008	0.0017	0.0001082
0.00623	303.15	0.00091	0.0018	0.0001146
0.00623	303.15	0.00151	0.002	0.0001274
0.00623	303.15	0.0025	0.0024	0.0001528
0.00623	303.15	0.0039	0.0032	0.0002037
0.00623	303.15	0.0058	0.004	0.0002546
0.00623	303.15	0.0064	0.0044	0.0002801
0.00623	303.15	0.00941	0.0056	0.0003564
0.00623	303.15	0.01181	0.0062	0.0003946
0.00623	303.15	0.01461	0.0067	0.0004264
0.00623	303.15	0.01851	0.0074	0.000471
0.00623	303.15	0.021	0.0078	0.0004964
0.00623	303.15	0.02495	0.0085	0.000541
0.00712	303.15	0.00044	0.0016	0.0001018
0.00712	303.15	0.00064	0.0018	0.0001146
0.00712	303.15	0.00073	0.0019	0.0001209
0.00712	303.15	0.00085	0.0021	0.0001338
0.00712	303.15	0.00144	0.0025	0.0001592
0.00712	303.15	0.00243	0.0034	0.0002165
0.00712	303.15	0.00383	0.0045	0.0002865
0.00712	303.15	0.00574	0.0056	0.0003565
0.00712	303.15	0.00633	0.0059	0.0003756
0.00712	303.15	0.00935	0.0067	0.0004265
0.00712	303.15	0.01175	0.0072	0.0004583
0.00712	303.15	0.01455	0.0077	0.0004901
0.00712	303.15	0.01842	0.0083	0.0005282
0.00712	303.15	0.02091	0.0087	0.0005537
0.00712	303.15	0.02485	0.0093	0.0005919
0	308.15	0.00086	0.0003424	2.18e-05
0	308.15	0.00135	0.0004571	2.91e-05
0	308.15	0.00161	0.0005682	3.62e-05
0	308.15	0.00172	0.0006634	4.22e-05
0	308.15	0.0023	0.0008701	5.54e-05
0	308.15	0.00342	0.0011254	7.16e-05
0	308.15	0.005	0.0015947	0.0001015
0	308.15	0.00681	0.0018932	0.0001205
0	308.15	0.0075	0.0022041	0.0001403
0	308.15	0.0108	0.0027864	0.0001773
0	308.15	0.01283	0.0030457	0.0001938
0	308.15	0.01582	0.0035268	0.0002245
0	308.15	0.01974	0.0041155	0.0002619
0	308.15	0.02351	0.0045487	0.0002895
0	308.15	0.02665	0.0048668	0.0003097
0.00089	308.15	0.00085	0.0003851	2.46e-05
0.00089	308.15	0.0013	0.0004961	3.16e-05
0.00089	308.15	0.00158	0.0005874	3.74e-05
0.00089	308.15	0.00171	0.0007082	4.51e-05
0.00089	308.15	0.0022	0.0009123	5.81e-05
0.00089	308.15	0.00342	0.0011614	7.4e-05
0.00089	308.15	0.0048	0.0016132	0.0001027
0.00089	308.15	0.0068	0.0021847	0.0001391
0.00089	308.15	0.0073	0.0022974	0.0001462
0.00089	308.15	0.0105	0.0029833	0.0001899
0.00089	308.15	0.01282	0.0034247	0.000218
0.00089	308.15	0.01561	0.0038869	0.0002474
0.00089	308.15	0.01973	0.004489	0.0002857
0.00089	308.15	0.022	0.0047145	0.0003001
0.00089	308.15	0.02664	0.0053251	0.0003389
0.00178	308.15	0.00082	0.0004212	2.68e-05
0.00178	308.15	0.001	0.0005874	3.74e-05
0.00178	308.15	0.0013	0.0007169	4.57e-05
0.00178	308.15	0.0015	0.0008327	5.3e-05
0.00178	308.15	0.002	0.0010057	6.4e-05
0.00178	308.15	0.0031	0.0013293	8.46e-05
0.00178	308.15	0.0046	0.0017833	0.0001135
0.00178	308.15	0.0065	0.0022907	0.0001458
0.00178	308.15	0.007	0.0025369	0.0001615
0.00178	308.15	0.01	0.0032254	0.0002053
0.00178	308.15	0.0125	0.0036389	0.0002316
0.00178	308.15	0.0153	0.0042877	0.0002729
0.00178	308.15	0.0194	0.0048361	0.0003078
0.00178	308.15	0.0218	0.0052289	0.0003328
0.00178	308.15	0.0263	0.0058682	0.0003735
0.00267	308.15	0.0008	0.0004911	3.13e-05
0.00267	308.15	0.0009	0.0006547	4.17e-05
0.00267	308.15	0.0011	0.0007894	5.03e-05
0.00267	308.15	0.00121	0.0009834	6.27e-05
0.00267	308.15	0.0018	0.0011804	7.52e-05
0.00267	308.15	0.0029	0.0015047	9.58e-05
0.00267	308.15	0.0043	0.0019368	0.0001233
0.00267	308.15	0.0062	0.00252	0.0001604
0.00267	308.15	0.0068	0.0027247	0.0001734
0.00267	308.15	0.0097	0.0035633	0.0002268
0.00267	308.15	0.0122	0.0040282	0.0002564
0.00267	308.15	0.015	0.0046791	0.0002978
0.00267	308.15	0.0191	0.0054047	0.000344
0.00267	308.15	0.0215	0.0058651	0.0003733
0.00267	308.15	0.026	0.0064824	0.0004126
0.00356	308.15	0.00069	0.0011145	7.1e-05
0.00356	308.15	0.00076	0.0011974	7.62e-05
0.00356	308.15	0.0009	0.0012823	8.16e-05
0.00356	308.15	0.001	0.0013856	8.82e-05
0.00356	308.15	0.0016	0.0014973	9.54e-05
0.00356	308.15	0.0026	0.0017581	0.000112
0.00356	308.15	0.004	0.0024148	0.0001538
0.00356	308.15	0.0059	0.0031893	0.000203
0.00356	308.15	0.0065	0.0034177	0.0002176
0.00356	308.15	0.0095	0.0041963	0.0002672
0.00356	308.15	0.0119	0.0047725	0.0003039
0.00356	308.15	0.0147	0.0053054	0.0003378
0.00356	308.15	0.0186	0.0060249	0.0003836
0.00356	308.15	0.0211	0.006495	0.0004135
0.00356	308.15	0.0256	0.0072934	0.0004643
0.00445	308.15	0.00052	0.0013812	8.79e-05
0.00445	308.15	0.00066	0.0014971	9.53e-05
0.00445	308.15	0.00085	0.0015736	0.0001002
0.00445	308.15	0.00096	0.0016845	0.0001072
0.00445	308.15	0.00156	0.0018967	0.0001207
0.00445	308.15	0.00255	0.0023054	0.0001468
0.00445	308.15	0.00395	0.0029175	0.0001857
0.00445	308.15	0.00585	0.0036063	0.0002296
0.00445	308.15	0.00645	0.0039278	0.00025
0.00445	308.15	0.00946	0.0050047	0.0003185
0.00445	308.15	0.01186	0.0054922	0.0003496
0.00445	308.15	0.01466	0.0060178	0.0003831
0.00445	308.15	0.01856	0.0068092	0.0004334
0.00445	308.15	0.02105	0.0072641	0.0004624
0.00445	308.15	0.025	0.0081078	0.000516
0.00623	308.15	0.00048	0.0014712	9.37e-05
0.00623	308.15	0.0006	0.0017148	0.0001092
0.00623	308.15	0.0008	0.0018973	0.0001208
0.00623	308.15	0.00091	0.0021085	0.0001343
0.00623	308.15	0.00151	0.0023259	0.0001482
0.00623	308.15	0.0025	0.0026817	0.000171
0.00623	308.15	0.0039	0.0035255	0.0002246
0.00623	308.15	0.0058	0.0044944	0.0002862
0.00623	308.15	0.0064	0.0047489	0.0003024
0.00623	308.15	0.00941	0.0058624	0.0003732
0.00623	308.15	0.01181	0.0063608	0.0004049
0.00623	308.15	0.01461	0.0068047	0.0004331
0.00623	308.15	0.01851	0.0076331	0.0004859
0.00623	308.15	0.021	0.0080472	0.0005122
0.00623	308.15	0.02495	0.0088922	0.000566
0.00712	308.15	0.00044	0.0017125	0.000109
0.00712	308.15	0.00064	0.0019932	0.0001269
0.00712	308.15	0.00073	0.0021178	0.0001349
0.00712	308.15	0.00085	0.0026259	0.0001673
0.00712	308.15	0.00144	0.0030931	0.000197
0.00712	308.15	0.00243	0.0038544	0.0002454
0.00712	308.15	0.00383	0.0048258	0.0003072
0.00712	308.15	0.00574	0.0059147	0.0003764
0.00712	308.15	0.00633	0.0062896	0.0004003
0.00712	308.15	0.00935	0.0069963	0.0004453
0.00712	308.15	0.01175	0.0074378	0.0004734
0.00712	308.15	0.01455	0.0079047	0.0005031
0.00712	308.15	0.01842	0.0085563	0.0005446
0.00712	308.15	0.02091	0.0089411	0.0005691
0.00712	308.15	0.02485	0.0095589	0.0006084
0	313.15	0.00086	0.0004025	2.56e-05
0	313.15	0.00135	0.0005147	3.28e-05
0	313.15	0.00161	0.0006298	4.01e-05
0	313.15	0.00172	0.0007128	4.54e-05
0	313.15	0.0023	0.0009463	6.02e-05
0	313.15	0.00342	0.0012044	7.67e-05
0	313.15	0.005	0.0016941	0.0001078
0	313.15	0.00681	0.0020734	0.000132
0	313.15	0.0075	0.0023278	0.0001482
0	313.15	0.0108	0.0029475	0.0001876
0	313.15	0.01283	0.0032163	0.0002047
0	313.15	0.01582	0.0037269	0.0002372
0	313.15	0.01974	0.0043199	0.0002749
0	313.15	0.02351	0.004681	0.0002979
0	313.15	0.02665	0.0050733	0.0003229
0.00089	313.15	0.00085	0.0004551	2.9e-05
0.00089	313.15	0.0013	0.0005634	3.59e-05
0.00089	313.15	0.00158	0.0006588	4.2e-05
0.00089	313.15	0.00171	0.0008047	5.12e-05
0.00089	313.15	0.0022	0.0009954	6.34e-05
0.00089	313.15	0.00342	0.001437	9.16e-05
0.00089	313.15	0.0048	0.0018044	0.0001149
0.00089	313.15	0.0068	0.0022986	0.0001463
0.00089	313.15	0.0073	0.0024127	0.0001536
0.00089	313.15	0.0105	0.0030725	0.0001956
0.00089	313.15	0.01282	0.0035598	0.0002266
0.00089	313.15	0.01561	0.0041165	0.000262
0.00089	313.15	0.01973	0.0047978	0.0003054
0.00089	313.15	0.022	0.0050907	0.000324
0.00089	313.15	0.02664	0.0055179	0.0003512
0.00178	313.15	0.00082	0.0005077	3.24e-05
0.00178	313.15	0.001	0.0006453	4.11e-05
0.00178	313.15	0.0013	0.0008273	5.27e-05
0.00178	313.15	0.0015	0.0009106	5.8e-05
0.00178	313.15	0.002	0.0011157	7.1e-05
0.00178	313.15	0.0031	0.0015119	9.63e-05
0.00178	313.15	0.0046	0.0019533	0.0001244
0.00178	313.15	0.0065	0.0025276	0.0001609
0.00178	313.15	0.007	0.002663	0.0001695
0.00178	313.15	0.01	0.0034289	0.0002182
0.00178	313.15	0.0125	0.0039671	0.0002525
0.00178	313.15	0.0153	0.0045801	0.0002915
0.00178	313.15	0.0194	0.005197	0.0003308
0.00178	313.15	0.0218	0.0055731	0.0003547
0.00178	313.15	0.0263	0.0060738	0.0003866
0.00267	313.15	0.0008	0.0006347	4.09e-05
0.00267	313.15	0.0009	0.0007933	5.06e-05
0.00267	313.15	0.0011	0.0009041	5.77e-05
0.00267	313.15	0.00121	0.0011059	7.05e-05
0.00267	313.15	0.0018	0.0012741	8.12e-05
0.00267	313.15	0.0029	0.0016395	0.0001045
0.00267	313.15	0.0043	0.0021407	0.0001364
0.00267	313.15	0.0062	0.0027934	0.0001779
0.00267	313.15	0.0068	0.0030188	0.0001924
0.00267	313.15	0.0097	0.003795	0.0002416
0.00267	313.15	0.0122	0.0043439	0.0002766
0.00267	313.15	0.015	0.0050061	0.0003187
0.00267	313.15	0.0191	0.0057436	0.0003656
0.00267	313.15	0.0215	0.0061427	0.000391
0.00267	313.15	0.026	0.0067049	0.0004268
0.00356	313.15	0.00069	0.0012466	7.93e-05
0.00356	313.15	0.00076	0.0013274	8.45e-05
0.00356	313.15	0.0009	0.0014189	9.03e-05
0.00356	313.15	0.001	0.0015011	9.55e-05
0.00356	313.15	0.0016	0.0018689	0.000119
0.00356	313.15	0.0026	0.0022924	0.0001461
0.00356	313.15	0.004	0.0028769	0.0001832
0.00356	313.15	0.0059	0.003576	0.0002277
0.00356	313.15	0.0065	0.003887	0.0002475
0.00356	313.15	0.0095	0.0047931	0.0003052
0.00356	313.15	0.0119	0.0055047	0.0003505
0.00356	313.15	0.0147	0.0061982	0.0003947
0.00356	313.15	0.0186	0.0069048	0.0004397
0.00356	313.15	0.0211	0.0072807	0.0004635
0.00356	313.15	0.0256	0.0078657	0.0005006
0.00445	313.15	0.00052	0.0014611	9.3e-05
0.00445	313.15	0.00066	0.0015389	9.79e-05
0.00445	313.15	0.00085	0.0016419	0.0001045
0.00445	313.15	0.00096	0.0017836	0.0001135
0.00445	313.15	0.00156	0.0020725	0.000132
0.00445	313.15	0.00255	0.0025188	0.0001604
0.00445	313.15	0.00395	0.0032248	0.0002053
0.00445	313.15	0.00585	0.0041078	0.0002616
0.00445	313.15	0.00645	0.0043574	0.0002775
0.00445	313.15	0.00946	0.0053047	0.0003376
0.00445	313.15	0.01186	0.0060493	0.0003851
0.00445	313.15	0.01466	0.006884	0.0004383
0.00445	313.15	0.01856	0.0075456	0.0004804
0.00445	313.15	0.02105	0.0080364	0.0005116
0.00445	313.15	0.025	0.0085147	0.0005419
0.00623	313.15	0.00048	0.001642	0.000105
0.00623	313.15	0.0006	0.0018268	0.0001163
0.00623	313.15	0.0008	0.0020763	0.0001323
0.00623	313.15	0.00091	0.002347	0.0001496
0.00623	313.15	0.00151	0.0026843	0.0001711
0.00623	313.15	0.0025	0.0034508	0.0002201
0.00623	313.15	0.0039	0.0041658	0.0002656
0.00623	313.15	0.0058	0.0051068	0.0003254
0.00623	313.15	0.0064	0.0054377	0.0003465
0.00623	313.15	0.00941	0.0063427	0.0004038
0.00623	313.15	0.01181	0.0069793	0.0004444
0.00623	313.15	0.01461	0.0076047	0.0004843
0.00623	313.15	0.01851	0.0083496	0.0005316
0.00623	313.15	0.021	0.0088047	0.0005606
0.00623	313.15	0.02495	0.0092867	0.0005911
0.00712	313.15	0.00044	0.001869	0.000119
0.00712	313.15	0.00064	0.0021147	0.0001346
0.00712	313.15	0.00073	0.0023812	0.0001517
0.00712	313.15	0.00085	0.0028864	0.0001838
0.00712	313.15	0.00144	0.0033947	0.0002161
0.00712	313.15	0.00243	0.0040007	0.0002546
0.00712	313.15	0.00383	0.0051274	0.0003263
0.00712	313.15	0.00574	0.0060947	0.0003879
0.00712	313.15	0.00633	0.0063138	0.0004018
0.00712	313.15	0.00935	0.0072914	0.000464
0.00712	313.15	0.01175	0.0077591	0.0004938
0.00712	313.15	0.01455	0.0084147	0.0005356
0.00712	313.15	0.01842	0.0090937	0.0005788
0.00712	313.15	0.02091	0.0094647	0.0006024
0.00712	313.15	0.02485	0.0099914	0.0006359

System: L-ascorbic acid + sodium dodecyl sulfate + water; phases: Liquid
Fixed: Pressure, kPa = 100
Property: Mass density, kg/m3 (Liquid); method: Vibrating tube method
Molality, mol/kg of sodium dodecyl sulfate	Temperature, K	Solvent: Molality, mol/kg of L-ascorbic acid	Mass density, kg/m3	uncertainty
0.0005	298.15	0	994.78	0.15
0.0005	298.15	0.00089	994.79	0.15
0.0005	298.15	0.00178	994.82	0.15
0.0005	298.15	0.00267	994.85	0.15
0.0005	298.15	0.00356	994.9	0.15
0.0005	298.15	0.00445	994.96	0.15
0.0005	298.15	0.00623	995.08	0.15
0.0005	298.15	0.00712	995.17	0.15
0.0005	303.15	0	994.12	0.15
0.0005	303.15	0.00089	994.14	0.15
0.0005	303.15	0.00178	994.17	0.15
0.0005	303.15	0.00267	994.21	0.15
0.0005	303.15	0.00356	994.3	0.15
0.0005	303.15	0.00445	994.38	0.15
0.0005	303.15	0.00623	994.49	0.15
0.0005	303.15	0.00712	994.58	0.15
0.0005	308.15	0	993.69	0.15
0.0005	308.15	0.00089	993.74	0.15
0.0005	308.15	0.00178	993.73	0.15
0.0005	308.15	0.00267	993.79	0.15
0.0005	308.15	0.00356	993.9	0.15
0.0005	308.15	0.00445	994	0.15
0.0005	308.15	0.00623	994.14	0.15
0.0005	308.15	0.00712	994.25	0.15
0.0005	313.15	0	993.15	0.15
0.0005	313.15	0.00089	993.18	0.15
0.0005	313.15	0.00178	993.25	0.15
0.0005	313.15	0.00267	993.33	0.15
0.0005	313.15	0.00356	993.45	0.15
0.0005	313.15	0.00445	993.56	0.15
0.0005	313.15	0.00623	993.76	0.15
0.0005	313.15	0.00712	993.85	0.15
0.05	298.15	0	994.74	0.15
0.05	298.15	0.00089	994.79	0.15
0.05	298.15	0.00178	994.84	0.15
0.05	298.15	0.00267	994.89	0.15
0.05	298.15	0.00356	994.94	0.15
0.05	298.15	0.00445	994.99	0.15
0.05	298.15	0.00623	995.1	0.15
0.05	298.15	0.00712	995.16	0.15
0.05	303.15	0	994.19	0.15
0.05	303.15	0.00089	994.25	0.15
0.05	303.15	0.00178	994.31	0.15
0.05	303.15	0.00267	994.37	0.15
0.05	303.15	0.00356	994.43	0.15
0.05	303.15	0.00445	994.49	0.15
0.05	303.15	0.00623	994.6	0.15
0.05	303.15	0.00712	994.66	0.15
0.05	308.15	0	993.64	0.15
0.05	308.15	0.00089	993.71	0.15
0.05	308.15	0.00178	993.79	0.15
0.05	308.15	0.00267	993.87	0.15
0.05	308.15	0.00356	993.95	0.15
0.05	308.15	0.00445	994.02	0.15
0.05	308.15	0.00623	994.14	0.15
0.05	308.15	0.00712	994.21	0.15
0.05	313.15	0	993.11	0.15
0.05	313.15	0.00089	993.18	0.15
0.05	313.15	0.00178	993.25	0.15
0.05	313.15	0.00267	993.33	0.15
0.05	313.15	0.00356	993.41	0.15
0.05	313.15	0.00445	993.49	0.15
0.05	313.15	0.00623	993.66	0.15
0.05	313.15	0.00712	993.75	0.15

System: L-ascorbic acid + 1-hexadecylpyridinium bromide + water; phases: Liquid
Fixed: Pressure, kPa = 100
Fixed: Frequency, MHz = 0.003
Property: Electrical conductivity, S/m (Liquid); method: Alternating current cell with electrodes
Solvent: Molality, mol/kg of L-ascorbic acid	Temperature, K	Molality, mol/kg of 1-hexadecylpyridinium bromide	Electrical conductivity, S/m	uncertainty
0	298.15	0.001	0.0001957	1.25e-05
0	298.15	0.0015	0.0003041	1.94e-05
0	298.15	0.0025	0.0004396	2.8e-05
0	298.15	0.004	0.000742	4.72e-05
0	298.15	0.005	0.0010544	6.71e-05
0	298.15	0.007	0.0013481	8.58e-05
0	298.15	0.009	0.0017436	0.000111
0	298.15	0.01	0.0019244	0.0001225
0	298.15	0.013	0.0023589	0.0001501
0	298.15	0.015	0.0026274	0.0001672
0	298.15	0.018	0.0031269	0.000199
0	298.15	0.02	0.0034502	0.0002196
0	298.15	0.024	0.0040255	0.0002562
0	298.15	0.027	0.0044258	0.0002817
0.00089	298.15	0.00094	0.0003354	2.14e-05
0.00089	298.15	0.00144	0.0004578	2.92e-05
0.00089	298.15	0.00244	0.0006398	4.07e-05
0.00089	298.15	0.00435	0.0010258	6.53e-05
0.00089	298.15	0.00545	0.0012699	8.08e-05
0.00089	298.15	0.00695	0.0015163	9.65e-05
0.00089	298.15	0.0086	0.0018377	0.000117
0.00089	298.15	0.0095	0.0021214	0.000135
0.00089	298.15	0.0124	0.0025367	0.0001614
0.00089	298.15	0.0145	0.0029208	0.0001859
0.00089	298.15	0.0175	0.0033364	0.0002123
0.00089	298.15	0.0195	0.0037348	0.0002377
0.00089	298.15	0.0235	0.0043229	0.0002751
0.00089	298.15	0.0265	0.0047657	0.0003033
0.00178	298.15	0.0009	0.0004465	2.84e-05
0.00178	298.15	0.0014	0.0006325	4.03e-05
0.00178	298.15	0.0024	0.0009015	5.74e-05
0.00178	298.15	0.0043	0.0013168	8.38e-05
0.00178	298.15	0.0054	0.0014569	9.27e-05
0.00178	298.15	0.0069	0.0018227	0.000116
0.00178	298.15	0.008	0.0021102	0.0001343
0.00178	298.15	0.009	0.0024049	0.0001531
0.00178	298.15	0.0119	0.0028927	0.0001841
0.00178	298.15	0.014	0.0033147	0.000211
0.00178	298.15	0.017	0.0037759	0.0002403
0.00178	298.15	0.019	0.0042824	0.0002725
0.00178	298.15	0.023	0.0048837	0.0003108
0.00178	298.15	0.026	0.0052944	0.0003369
0.00267	298.15	0.00082	0.0005843	3.73e-05
0.00267	298.15	0.00132	0.0008196	5.22e-05
0.00267	298.15	0.00232	0.0010647	6.78e-05
0.00267	298.15	0.00422	0.0015013	9.56e-05
0.00267	298.15	0.00502	0.0017154	0.0001092
0.00267	298.15	0.00682	0.0021169	0.0001347
0.00267	298.15	0.00792	0.0023935	0.0001523
0.00267	298.15	0.0089	0.0026929	0.0001714
0.00267	298.15	0.0118	0.0033818	0.0002152
0.00267	298.15	0.01392	0.0037769	0.0002404
0.00267	298.15	0.01691	0.0044389	0.0002825
0.00267	298.15	0.0189	0.0048921	0.0003113
0.00267	298.15	0.0229	0.0054934	0.0003496
0.00267	298.15	0.0259	0.0058644	0.0003732
0.00356	298.15	0.0007	0.0007115	4.53e-05
0.00356	298.15	0.0012	0.0009238	5.88e-05
0.00356	298.15	0.0022	0.0012867	8.19e-05
0.00356	298.15	0.004	0.0017611	0.0001121
0.00356	298.15	0.0049	0.0020048	0.0001276
0.00356	298.15	0.0064	0.0024118	0.0001535
0.00356	298.15	0.0074	0.0026715	0.00017
0.00356	298.15	0.0084	0.0030745	0.0001957
0.00356	298.15	0.0113	0.0038616	0.0002458
0.00356	298.15	0.0132	0.0042448	0.0002702
0.00356	298.15	0.0161	0.0048634	0.0003095
0.00356	298.15	0.0181	0.0053244	0.0003389
0.00356	298.15	0.022	0.0060049	0.0003822
0.00356	298.15	0.0252	0.0066429	0.0004228
0.00445	298.15	0.0006	0.0008459	5.39e-05
0.00445	298.15	0.0011	0.0011924	7.6e-05
0.00445	298.15	0.0021	0.0015643	9.96e-05
0.00445	298.15	0.0039	0.0021457	0.0001366
0.00445	298.15	0.0048	0.0025119	0.0001599
0.00445	298.15	0.0063	0.0029669	0.0001888
0.00445	298.15	0.0073	0.0034118	0.0002172
0.00445	298.15	0.0083	0.0036311	0.0002311
0.00445	298.15	0.0112	0.0045915	0.0002922
0.00445	298.15	0.0131	0.0050589	0.000322
0.00445	298.15	0.016	0.0057574	0.0003665
0.00445	298.15	0.018	0.0060715	0.0003864
0.00445	298.15	0.0219	0.0068533	0.0004362
0.00445	298.15	0.025	0.0074301	0.000473
0.00623	298.15	0.0005	0.0010148	6.46e-05
0.00623	298.15	0.0009	0.0013259	8.44e-05
0.00623	298.15	0.0019	0.0017459	0.0001111
0.00623	298.15	0.0037	0.0025029	0.0001593
0.00623	298.15	0.0046	0.0029269	0.0001863
0.00623	298.15	0.0061	0.0033947	0.0002161
0.00623	298.15	0.0071	0.0038647	0.000246
0.00623	298.15	0.0081	0.0042847	0.0002727
0.00623	298.15	0.011	0.0052721	0.0003355
0.00623	298.15	0.0129	0.0059439	0.0003783
0.00623	298.15	0.0158	0.0065548	0.0004172
0.00623	298.15	0.0178	0.0070148	0.0004464
0.00623	298.15	0.0217	0.0078758	0.0005012
0.00623	298.15	0.0248	0.0084051	0.0005349
0.00712	298.15	0.0004	0.0012954	8.25e-05
0.00712	298.15	0.0008	0.0016458	0.0001048
0.00712	298.15	0.0017	0.0021538	0.0001371
0.00712	298.15	0.0035	0.0029348	0.0001868
0.00712	298.15	0.0044	0.0033068	0.0002105
0.00712	298.15	0.0059	0.0039134	0.0002491
0.00712	298.15	0.0069	0.0043488	0.0002768
0.00712	298.15	0.0079	0.0048723	0.0003101
0.00712	298.15	0.01	0.0055869	0.0003556
0.00712	298.15	0.0127	0.0064061	0.0004077
0.00712	298.15	0.0156	0.0072014	0.0004583
0.00712	298.15	0.0176	0.0076745	0.0004884
0.00712	298.15	0.0215	0.0084835	0.0005399
0.00712	298.15	0.02468	0.0090587	0.0005766
0	303.15	0.001	0.0002521	1.61e-05
0	303.15	0.0015	0.0003587	2.29e-05
0	303.15	0.0025	0.0005047	3.21e-05
0	303.15	0.004	0.0008068	5.14e-05
0	303.15	0.005	0.0011035	7.02e-05
0	303.15	0.007	0.001406	8.95e-05
0	303.15	0.009	0.0018047	0.0001149
0	303.15	0.01	0.0020066	0.0001277
0	303.15	0.013	0.0024078	0.0001532
0	303.15	0.015	0.0027081	0.0001723
0	303.15	0.018	0.0031022	0.0001974
0	303.15	0.02	0.0035043	0.000223
0	303.15	0.024	0.0041057	0.0002613
0	303.15	0.027	0.0045069	0.0002868
0.00089	303.15	0.00094	0.0004035	2.57e-05
0.00089	303.15	0.00144	0.0005021	3.2e-05
0.00089	303.15	0.00244	0.0007049	4.49e-05
0.00089	303.15	0.00435	0.0011098	7.06e-05
0.00089	303.15	0.00545	0.0013054	8.31e-05
0.00089	303.15	0.00695	0.0016011	0.0001019
0.00089	303.15	0.0086	0.0020037	0.0001275
0.00089	303.15	0.0095	0.0022074	0.0001405
0.00089	303.15	0.0124	0.0026058	0.0001658
0.00089	303.15	0.0145	0.003002	0.0001911
0.00089	303.15	0.0175	0.0035077	0.0002232
0.00089	303.15	0.0195	0.0038059	0.0002422
0.00089	303.15	0.0235	0.0044078	0.0002805
0.00089	303.15	0.0265	0.0049045	0.0003121
0.00178	303.15	0.0009	0.0005047	3.21e-05
0.00178	303.15	0.0014	0.0007036	4.48e-05
0.00178	303.15	0.0024	0.0010047	6.39e-05
0.00178	303.15	0.0043	0.0014089	8.97e-05
0.00178	303.15	0.0054	0.0016059	0.0001022
0.00178	303.15	0.0069	0.0019036	0.0001212
0.00178	303.15	0.008	0.0022096	0.0001406
0.00178	303.15	0.009	0.0025007	0.0001592
0.00178	303.15	0.0119	0.0030066	0.0001914
0.00178	303.15	0.014	0.0034085	0.0002169
0.00178	303.15	0.017	0.0039068	0.0002486
0.00178	303.15	0.019	0.0043028	0.0002738
0.00178	303.15	0.023	0.0050047	0.0003185
0.00178	303.15	0.026	0.0054016	0.0003438
0.00267	303.15	0.00082	0.0007069	4.5e-05
0.00267	303.15	0.00132	0.0009057	5.77e-05
0.00267	303.15	0.00232	0.0012044	7.67e-05
0.00267	303.15	0.00422	0.0016027	0.000102
0.00267	303.15	0.00502	0.0018079	0.0001151
0.00267	303.15	0.00682	0.0022036	0.0001402
0.00267	303.15	0.00792	0.0025041	0.0001594
0.00267	303.15	0.0089	0.0028064	0.0001786
0.00267	303.15	0.0118	0.0035033	0.000223
0.00267	303.15	0.01392	0.0040087	0.0002551
0.00267	303.15	0.01691	0.0046014	0.0002928
0.00267	303.15	0.0189	0.0050024	0.0003184
0.00267	303.15	0.0229	0.0056035	0.0003566
0.00267	303.15	0.0259	0.0060037	0.0003821
0.00356	303.15	0.0007	0.0008071	5.14e-05
0.00356	303.15	0.0012	0.0010034	6.39e-05
0.00356	303.15	0.0022	0.0013562	8.63e-05
0.00356	303.15	0.004	0.0017559	0.0001118
0.00356	303.15	0.0049	0.0020014	0.0001274
0.00356	303.15	0.0064	0.0025079	0.0001596
0.00356	303.15	0.0074	0.0028006	0.0001783
0.00356	303.15	0.0084	0.0032045	0.000204
0.00356	303.15	0.0113	0.004	0.0002546
0.00356	303.15	0.0132	0.0044036	0.0002803
0.00356	303.15	0.0161	0.0050098	0.0003189
0.00356	303.15	0.0181	0.0055004	0.0003501
0.00356	303.15	0.022	0.0062048	0.0003949
0.00356	303.15	0.0252	0.0068036	0.000433
0.00445	303.15	0.0006	0.0009023	5.74e-05
0.00445	303.15	0.0011	0.0013078	8.33e-05
0.00445	303.15	0.0021	0.0017042	0.0001085
0.00445	303.15	0.0039	0.0022048	0.0001404
0.00445	303.15	0.0048	0.0026058	0.0001659
0.00445	303.15	0.0063	0.0030039	0.0001912
0.00445	303.15	0.0073	0.0035057	0.0002231
0.00445	303.15	0.0083	0.0038074	0.0002424
0.00445	303.15	0.0112	0.0047058	0.0002995
0.00445	303.15	0.0131	0.0053066	0.0003377
0.00445	303.15	0.016	0.0059089	0.0003761
0.00445	303.15	0.018	0.0063012	0.000401
0.00445	303.15	0.0219	0.007104	0.0004521
0.00445	303.15	0.025	0.0079058	0.0005032
0.00623	303.15	0.0005	0.0011058	7.04e-05
0.00623	303.15	0.0009	0.0013056	8.32e-05
0.00623	303.15	0.0019	0.0017043	0.0001085
0.00623	303.15	0.0037	0.0024069	0.0001532
0.00623	303.15	0.0046	0.0029056	0.0001849
0.00623	303.15	0.0061	0.0034024	0.0002165
0.00623	303.15	0.0071	0.0039014	0.0002483
0.00623	303.15	0.0081	0.0043096	0.0002743
0.00623	303.15	0.011	0.0054022	0.0003438
0.00623	303.15	0.0129	0.0060058	0.0003822
0.00623	303.15	0.0158	0.0067078	0.0004269
0.00623	303.15	0.0178	0.0072014	0.0004583
0.00623	303.15	0.0217	0.0079084	0.0005033
0.00623	303.15	0.0248	0.0085043	0.0005412
0.00712	303.15	0.0004	0.0015045	9.59e-05
0.00712	303.15	0.0008	0.0018096	0.0001152
0.00712	303.15	0.0017	0.0023047	0.0001467
0.00712	303.15	0.0035	0.0031071	0.0001978
0.00712	303.15	0.0044	0.0035011	0.0002229
0.00712	303.15	0.0059	0.0041041	0.0002613
0.00712	303.15	0.0069	0.0045063	0.0002869
0.00712	303.15	0.0079	0.0050058	0.0003186
0.00712	303.15	0.01	0.0059078	0.000376
0.00712	303.15	0.0127	0.0067045	0.0004267
0.00712	303.15	0.0156	0.0074012	0.000471
0.00712	303.15	0.0176	0.0079063	0.0005032
0.00712	303.15	0.0215	0.0087046	0.000554
0.00712	303.15	0.02468	0.0095073	0.0006051
0	308.15	0.001	0.0003258	2.08e-05
0	308.15	0.0015	0.0004358	2.78e-05
0	308.15	0.0025	0.0005658	3.61e-05
0	308.15	0.004	0.0008841	5.63e-05
0	308.15	0.005	0.0010936	6.96e-05
0	308.15	0.007	0.0014812	9.43e-05
0	308.15	0.009	0.0018715	0.0001191
0	308.15	0.01	0.0020555	0.0001309
0	308.15	0.013	0.0024745	0.0001575
0	308.15	0.015	0.0027625	0.0001758
0	308.15	0.018	0.0031785	0.0002023
0	308.15	0.02	0.0034935	0.0002224
0	308.15	0.024	0.0041581	0.0002647
0	308.15	0.027	0.0045847	0.0002918
0.00089	308.15	0.00094	0.0004832	3.08e-05
0.00089	308.15	0.00144	0.0005832	3.72e-05
0.00089	308.15	0.00244	0.0007972	5.08e-05
0.00089	308.15	0.00435	0.0011042	7.03e-05
0.00089	308.15	0.00545	0.0013852	8.82e-05
0.00089	308.15	0.00695	0.0016935	0.0001078
0.00089	308.15	0.0086	0.0019542	0.0001244
0.00089	308.15	0.0095	0.0021812	0.0001388
0.00089	308.15	0.0124	0.0027501	0.000175
0.00089	308.15	0.0145	0.0030936	0.0001969
0.00089	308.15	0.0175	0.0035825	0.000228
0.00089	308.15	0.0195	0.0038541	0.0002453
0.00089	308.15	0.0235	0.0045022	0.0002866
0.00089	308.15	0.0265	0.0049525	0.0003152
0.00178	308.15	0.0009	0.0005836	3.72e-05
0.00178	308.15	0.0014	0.0007714	4.91e-05
0.00178	308.15	0.0024	0.0010045	6.4e-05
0.00178	308.15	0.0043	0.0014769	9.4e-05
0.00178	308.15	0.0054	0.0017012	0.0001083
0.00178	308.15	0.0069	0.0019955	0.000127
0.00178	308.15	0.008	0.0022705	0.0001445
0.00178	308.15	0.009	0.0025511	0.0001624
0.00178	308.15	0.0119	0.0030921	0.0001968
0.00178	308.15	0.014	0.0034855	0.0002218
0.00178	308.15	0.017	0.00405	0.0002578
0.00178	308.15	0.019	0.0043854	0.0002791
0.00178	308.15	0.023	0.0050999	0.0003246
0.00178	308.15	0.026	0.0055755	0.0003548
0.00267	308.15	0.00082	0.0007744	4.93e-05
0.00267	308.15	0.00132	0.0009851	6.27e-05
0.00267	308.15	0.00232	0.0012811	8.16e-05
0.00267	308.15	0.00422	0.0016854	0.0001073
0.00267	308.15	0.00502	0.0018355	0.0001168
0.00267	308.15	0.00682	0.0022836	0.0001454
0.00267	308.15	0.00792	0.002582	0.0001643
0.00267	308.15	0.0089	0.0028722	0.0001828
0.00267	308.15	0.0118	0.0036902	0.0002349
0.00267	308.15	0.01392	0.0041056	0.0002613
0.00267	308.15	0.01691	0.0046755	0.0002975
0.00267	308.15	0.0189	0.0051125	0.0003254
0.00267	308.15	0.0229	0.0057936	0.0003687
0.00267	308.15	0.0259	0.0061944	0.0003942
0.00356	308.15	0.0007	0.0008851	5.63e-05
0.00356	308.15	0.0012	0.0011125	7.09e-05
0.00356	308.15	0.0022	0.0014825	9.44e-05
0.00356	308.15	0.004	0.0020214	0.0001287
0.00356	308.15	0.0049	0.0023545	0.0001499
0.00356	308.15	0.0064	0.0027632	0.0001759
0.00356	308.15	0.0074	0.0030874	0.0001966
0.00356	308.15	0.0084	0.0034151	0.0002174
0.00356	308.15	0.0113	0.0043145	0.0002746
0.00356	308.15	0.0132	0.0047956	0.0003052
0.00356	308.15	0.0161	0.0054248	0.0003453
0.00356	308.15	0.0181	0.0058447	0.000372
0.00356	308.15	0.022	0.0065758	0.0004185
0.00356	308.15	0.0252	0.0071455	0.0004548
0.00445	308.15	0.0006	0.0009925	6.32e-05
0.00445	308.15	0.0011	0.0015147	9.64e-05
0.00445	308.15	0.0021	0.0018844	0.0001199
0.00445	308.15	0.0039	0.0026324	0.0001676
0.00445	308.15	0.0048	0.0029477	0.0001876
0.00445	308.15	0.0063	0.0034925	0.0002223
0.00445	308.15	0.0073	0.0038457	0.0002448
0.00445	308.15	0.0083	0.004188	0.000267
0.00445	308.15	0.0112	0.0050425	0.000321
0.00445	308.15	0.0131	0.0055125	0.0003509
0.00445	308.15	0.016	0.0061525	0.0003916
0.00445	308.15	0.018	0.0065555	0.0004172
0.00445	308.15	0.0219	0.0073896	0.0004703
0.00445	308.15	0.025	0.0080456	0.0005121
0.00623	308.15	0.0005	0.0012214	7.78e-05
0.00623	308.15	0.0009	0.0016525	0.0001053
0.00623	308.15	0.0019	0.0020058	0.0001278
0.00623	308.15	0.0037	0.0026958	0.0001716
0.00623	308.15	0.0046	0.0031115	0.0001981
0.00623	308.15	0.0061	0.0036845	0.0002345
0.00623	308.15	0.0071	0.0041995	0.0002674
0.00623	308.15	0.0081	0.0046258	0.0002944
0.00623	308.15	0.011	0.0056574	0.0003601
0.00623	308.15	0.0129	0.0062336	0.0003967
0.00623	308.15	0.0158	0.0069536	0.0004426
0.00623	308.15	0.0178	0.0074579	0.0004747
0.00623	308.15	0.0217	0.0082422	0.0005246
0.00623	308.15	0.0248	0.0088058	0.0005605
0.00712	308.15	0.0004	0.0017598	0.0001121
0.00712	308.15	0.0008	0.0020478	0.0001304
0.00712	308.15	0.0017	0.0025983	0.0001654
0.00712	308.15	0.0035	0.0034951	0.0002224
0.00712	308.15	0.0044	0.003882	0.0002471
0.00712	308.15	0.0059	0.0045891	0.0002921
0.00712	308.15	0.0069	0.0051536	0.000328
0.00712	308.15	0.0079	0.0055892	0.0003558
0.00712	308.15	0.01	0.0062148	0.0003956
0.00712	308.15	0.0127	0.0069574	0.0004428
0.00712	308.15	0.0156	0.0076533	0.0004871
0.00712	308.15	0.0176	0.0081547	0.000519
0.00712	308.15	0.0215	0.0089638	0.0005705
0.00712	308.15	0.02468	0.0095052	0.0006049
0	313.15	0.001	0.0004012	2.56e-05
0	313.15	0.0015	0.0005358	3.41e-05
0	313.15	0.0025	0.0006844	4.37e-05
0	313.15	0.004	0.0010074	6.42e-05
0	313.15	0.005	0.0013452	8.57e-05
0	313.15	0.007	0.0015589	9.93e-05
0	313.15	0.009	0.0020155	0.0001283
0	313.15	0.01	0.0023596	0.0001502
0	313.15	0.013	0.0025941	0.0001651
0	313.15	0.015	0.0029833	0.0001899
0	313.15	0.018	0.0033585	0.0002138
0	313.15	0.02	0.0038435	0.0002447
0	313.15	0.024	0.0046914	0.0002987
0	313.15	0.027	0.0049701	0.0003164
0.00089	313.15	0.00094	0.0005512	3.51e-05
0.00089	313.15	0.00144	0.0006697	4.27e-05
0.00089	313.15	0.00244	0.0008971	5.71e-05
0.00089	313.15	0.00435	0.0012165	7.75e-05
0.00089	313.15	0.00545	0.0015155	9.65e-05
0.00089	313.15	0.00695	0.001807	0.000115
0.00089	313.15	0.0086	0.0020932	0.0001333
0.00089	313.15	0.0095	0.0024562	0.0001564
0.00089	313.15	0.0124	0.0028725	0.0001828
0.00089	313.15	0.0145	0.0032956	0.0002098
0.00089	313.15	0.0175	0.003755	0.000239
0.00089	313.15	0.0195	0.0041058	0.0002614
0.00089	313.15	0.0235	0.0049835	0.0003173
0.00089	313.15	0.0265	0.0053599	0.0003412
0.00178	313.15	0.0009	0.0006714	4.28e-05
0.00178	313.15	0.0014	0.0008639	5.5e-05
0.00178	313.15	0.0024	0.0011854	7.55e-05
0.00178	313.15	0.0043	0.0015911	0.0001013
0.00178	313.15	0.0054	0.0017957	0.0001143
0.00178	313.15	0.0069	0.0021147	0.0001346
0.00178	313.15	0.008	0.0024806	0.0001579
0.00178	313.15	0.009	0.0027452	0.0001747
0.00178	313.15	0.0119	0.0033147	0.000211
0.00178	313.15	0.014	0.0036987	0.0002354
0.00178	313.15	0.017	0.0042055	0.0002677
0.00178	313.15	0.019	0.0045701	0.0002909
0.00178	313.15	0.023	0.0052965	0.0003371
0.00178	313.15	0.026	0.0057018	0.0003629
0.00267	313.15	0.00082	0.0008462	5.39e-05
0.00267	313.15	0.00132	0.0010958	6.98e-05
0.00267	313.15	0.00232	0.0013967	8.89e-05
0.00267	313.15	0.00422	0.0018944	0.0001206
0.00267	313.15	0.00502	0.0018355	0.0001169
0.00267	313.15	0.00682	0.0025057	0.0001595
0.00267	313.15	0.00792	0.0027638	0.000176
0.00267	313.15	0.0089	0.0030247	0.0001926
0.00267	313.15	0.0118	0.0037893	0.0002412
0.00267	313.15	0.01392	0.0037685	0.0002398
0.00267	313.15	0.01691	0.0046396	0.0002953
0.00267	313.15	0.0189	0.0053714	0.0003418
0.00267	313.15	0.0229	0.0059523	0.0003788
0.00267	313.15	0.0259	0.0062177	0.0003957
0.00356	313.15	0.0007	0.0009577	6.1e-05
0.00356	313.15	0.0012	0.0012805	8.16e-05
0.00356	313.15	0.0022	0.0016984	0.0001081
0.00356	313.15	0.004	0.0021147	0.0001346
0.00356	313.15	0.0049	0.002483	0.000158
0.00356	313.15	0.0064	0.0030174	0.0001921
0.00356	313.15	0.0074	0.0033957	0.0002162
0.00356	313.15	0.0084	0.0037462	0.0002385
0.00356	313.15	0.0113	0.0043158	0.0002747
0.00356	313.15	0.0132	0.0049367	0.0003142
0.00356	313.15	0.0161	0.0054481	0.0003467
0.00356	313.15	0.0181	0.0059547	0.000379
0.00356	313.15	0.022	0.006871	0.0004373
0.00356	313.15	0.0252	0.0073966	0.0004707
0.00445	313.15	0.0006	0.0011354	7.23e-05
0.00445	313.15	0.0011	0.0016147	0.0001028
0.00445	313.15	0.0021	0.0019475	0.0001239
0.00445	313.15	0.0039	0.0027214	0.0001732
0.00445	313.15	0.0048	0.002963	0.0001886
0.00445	313.15	0.0063	0.0034704	0.0002209
0.00445	313.15	0.0073	0.0040705	0.000259
0.00445	313.15	0.0083	0.0042963	0.0002734
0.00445	313.15	0.0112	0.0053871	0.0003428
0.00445	313.15	0.0131	0.0058514	0.0003724
0.00445	313.15	0.016	0.0065964	0.0004198
0.00445	313.15	0.018	0.0068744	0.0004375
0.00445	313.15	0.0219	0.0076239	0.0004852
0.00445	313.15	0.025	0.0085147	0.0005419
0.00623	313.15	0.0005	0.0014501	9.27e-05
0.00623	313.15	0.0009	0.0018954	0.0001207
0.00623	313.15	0.0019	0.0023645	0.0001507
0.00623	313.15	0.0037	0.0028417	0.0001809
0.00623	313.15	0.0046	0.0032995	0.00021
0.00623	313.15	0.0061	0.0038367	0.0002443
0.00623	313.15	0.0071	0.0046845	0.0002982
0.00623	313.15	0.0081	0.0049104	0.0003127
0.00623	313.15	0.011	0.0059347	0.0003778
0.00623	313.15	0.0129	0.0065872	0.0004193
0.00623	313.15	0.0158	0.0072298	0.0004602
0.00623	313.15	0.0178	0.0078875	0.000502
0.00623	313.15	0.0217	0.0088693	0.0005646
0.00623	313.15	0.0248	0.0095781	0.0006097
0.00712	313.15	0.0004	0.001991	0.0001268
0.00712	313.15	0.0008	0.0022563	0.0001436
0.00712	313.15	0.0017	0.0028255	0.0001798
0.00712	313.15	0.0035	0.0032148	0.0002046
0.00712	313.15	0.0044	0.0037935	0.0002415
0.00712	313.15	0.0059	0.0042971	0.0002735
0.00712	313.15	0.0069	0.0050045	0.0003185
0.00712	313.15	0.0079	0.0059422	0.0003782
0.00712	313.15	0.01	0.0065047	0.000414
0.00712	313.15	0.0127	0.0072638	0.0004623
0.00712	313.15	0.0156	0.0079347	0.000505
0.00712	313.15	0.0176	0.0084158	0.0005356
0.00712	313.15	0.0215	0.0092865	0.000591
0.00712	313.15	0.02468	0.0099411	0.0006327

System: L-ascorbic acid + 1-hexadecylpyridinium bromide + water; phases: Liquid
Fixed: Pressure, kPa = 100
Property: Mass density, kg/m3 (Liquid); method: Vibrating tube method
Molality, mol/kg of 1-hexadecylpyridinium bromide	Temperature, K	Solvent: Molality, mol/kg of L-ascorbic acid	Mass density, kg/m3	uncertainty
0.0005	298.15	0	996.54	0.25
0.0005	298.15	0.00089	996.58	0.25
0.0005	298.15	0.00178	996.62	0.25
0.0005	298.15	0.00267	996.66	0.25
0.0005	298.15	0.00356	996.7	0.25
0.0005	298.15	0.00445	996.74	0.25
0.0005	298.15	0.00623	996.82	0.25
0.0005	298.15	0.00712	996.86	0.25
0.0005	303.15	0	995.89	0.24
0.0005	303.15	0.00089	995.95	0.24
0.0005	303.15	0.00178	996.01	0.24
0.0005	303.15	0.00267	996.06	0.24
0.0005	303.15	0.00356	996.11	0.24
0.0005	303.15	0.00445	996.17	0.24
0.0005	303.15	0.00623	996.28	0.24
0.0005	303.15	0.00712	996.33	0.24
0.0005	308.15	0	995.18	0.24
0.0005	308.15	0.00089	995.24	0.24
0.0005	308.15	0.00178	995.31	0.24
0.0005	308.15	0.00267	995.38	0.24
0.0005	308.15	0.00356	995.44	0.24
0.0005	308.15	0.00445	995.51	0.24
0.0005	308.15	0.00623	995.65	0.24
0.0005	308.15	0.00712	995.72	0.24
0.0005	313.15	0	994.58	0.24
0.0005	313.15	0.00089	994.64	0.24
0.0005	313.15	0.00178	994.71	0.24
0.0005	313.15	0.00267	994.77	0.24
0.0005	313.15	0.00356	994.83	0.24
0.0005	313.15	0.00445	994.9	0.24
0.0005	313.15	0.00623	995.03	0.24
0.0005	313.15	0.00712	995.1	0.24
0.05	298.15	0	998.25	0.25
0.05	298.15	0.00089	998.3	0.25
0.05	298.15	0.00178	998.35	0.25
0.05	298.15	0.00267	998.4	0.25
0.05	298.15	0.00356	998.45	0.25
0.05	298.15	0.00445	998.5	0.25
0.05	298.15	0.00623	998.59	0.25
0.05	298.15	0.00712	998.64	0.25
0.05	303.15	0	997.33	0.24
0.05	303.15	0.00089	997.37	0.24
0.05	303.15	0.00178	997.41	0.24
0.05	303.15	0.00267	997.45	0.24
0.05	303.15	0.00356	997.5	0.24
0.05	303.15	0.00445	997.54	0.24
0.05	303.15	0.00623	997.63	0.24
0.05	303.15	0.00712	997.67	0.24
0.05	308.15	0	996.34	0.24
0.05	308.15	0.00089	996.38	0.24
0.05	308.15	0.00178	996.43	0.24
0.05	308.15	0.00267	996.47	0.24
0.05	308.15	0.00356	996.52	0.24
0.05	308.15	0.00445	996.57	0.24
0.05	308.15	0.00623	996.67	0.24
0.05	308.15	0.00712	996.72	0.24
0.05	313.15	0	995.46	0.24
0.05	313.15	0.00089	995.5	0.24
0.05	313.15	0.00178	995.54	0.24
0.05	313.15	0.00267	995.58	0.24
0.05	313.15	0.00356	995.61	0.24
0.05	313.15	0.00445	995.65	0.24
0.05	313.15	0.00623	995.72	0.24
0.05	313.15	0.00712	995.76	0.24

System: L-ascorbic acid + water + 3,6,9,12,15,18,21,24,27,30,33,36,39,42,45,48,51,54,57,60-eicosaoxahexaheptacontan-1-ol; phases: Liquid, Air at 1 atmosphere
Property: Surface tension liquid-gas, N/m (Liquid); method: Maximal bubble pressure
Solvent: Molality, mol/kg of L-ascorbic acid	Temperature, K	Molality, mol/kg of 3,6,9,12,15,18,21,24,27,30,33,36,39,42,45,48,51,54,57,60-eicosaoxahexaheptacontan-1-ol	Surface tension liquid-gas, N/m	uncertainty
0	298.15	0.00199	0.0687	0.0005
0	298.15	0.00251	0.066	0.0005
0	298.15	0.00316	0.0642	0.0005
0	298.15	0.00398	0.0632	0.0005
0	298.15	0.00501	0.0613	0.0005
0	298.15	0.00708	0.0594	0.0004
0	298.15	0.01	0.0569	0.0004
0	298.15	0.01413	0.0553	0.0004
0	298.15	0.02239	0.0532	0.0004
0	298.15	0.02818	0.0524	0.0004
0	298.15	0.03162	0.0521	0.0004
0	298.15	0.03981	0.0521	0.0004
0	298.15	0.05012	0.0519	0.0004
0	298.15	0.0631	0.0519	0.0004
0.00089	298.15	0.00195	0.0673	0.0005
0.00089	298.15	0.00245	0.0656	0.0005
0.00089	298.15	0.00309	0.0642	0.0005
0.00089	298.15	0.00389	0.0627	0.0005
0.00089	298.15	0.0049	0.0613	0.0005
0.00089	298.15	0.00692	0.0584	0.0004
0.00089	298.15	0.00794	0.0569	0.0004
0.00089	298.15	0.0138	0.0545	0.0004
0.00089	298.15	0.02188	0.052	0.0004
0.00089	298.15	0.02754	0.0512	0.0004
0.00089	298.15	0.0309	0.0512	0.0004
0.00089	298.15	0.0389	0.051	0.0004
0.00089	298.15	0.04898	0.051	0.0004
0.00089	298.15	0.06166	0.051	0.0004
0.00178	298.15	0.0017	0.0662	0.0005
0.00178	298.15	0.00214	0.0648	0.0005
0.00178	298.15	0.00269	0.0632	0.0005
0.00178	298.15	0.00339	0.0614	0.0005
0.00178	298.15	0.00427	0.0605	0.0005
0.00178	298.15	0.00603	0.0578	0.0004
0.00178	298.15	0.00692	0.0562	0.0004
0.00178	298.15	0.01202	0.0528	0.0004
0.00178	298.15	0.01413	0.0515	0.0004
0.00178	298.15	0.01585	0.051	0.0004
0.00178	298.15	0.01995	0.0506	0.0004
0.00178	298.15	0.02512	0.0506	0.0004
0.00178	298.15	0.03162	0.0504	0.0004
0.00178	298.15	0.0537	0.0501	0.0004
0.00267	298.15	0.00166	0.0653	0.0005
0.00267	298.15	0.00195	0.0634	0.0005
0.00267	298.15	0.00245	0.0625	0.0005
0.00267	298.15	0.00309	0.0608	0.0005
0.00267	298.15	0.00389	0.0593	0.0004
0.00267	298.15	0.0055	0.0564	0.0004
0.00267	298.15	0.00631	0.0558	0.0004
0.00267	298.15	0.00794	0.054	0.0004
0.00267	298.15	0.01096	0.0524	0.0004
0.00267	298.15	0.01259	0.0506	0.0004
0.00267	298.15	0.01479	0.0498	0.0004
0.00267	298.15	0.01622	0.0498	0.0004
0.00267	298.15	0.01995	0.0497	0.0004
0.00267	298.15	0.02512	0.0496	0.0004
0.00267	298.15	0.03162	0.0496	0.0004
0.00267	298.15	0.03981	0.0496	0.0004
0.00267	298.15	0.05012	0.0495	0.0004
0.00356	298.15	0.00158	0.0633	0.0005
0.00356	298.15	0.00178	0.0625	0.0005
0.00356	298.15	0.002	0.0617	0.0005
0.00356	298.15	0.00251	0.0604	0.0005
0.00356	298.15	0.00316	0.0589	0.0005
0.00356	298.15	0.00398	0.0577	0.0004
0.00356	298.15	0.00501	0.0556	0.0004
0.00356	298.15	0.00631	0.0538	0.0004
0.00356	298.15	0.00794	0.0525	0.0004
0.00356	298.15	0.01	0.0517	0.0004
0.00356	298.15	0.01259	0.0502	0.0004
0.00356	298.15	0.01585	0.0491	0.0004
0.00356	298.15	0.01995	0.0485	0.0004
0.00356	298.15	0.02512	0.0485	0.0004
0.00356	298.15	0.03162	0.0484	0.0004
0.00356	298.15	0.03981	0.0484	0.0004
0.00356	298.15	0.05012	0.0483	0.0004
0.00445	298.15	0.00158	0.0623	0.0005
0.00445	298.15	0.00178	0.0612	0.0005
0.00445	298.15	0.002	0.0607	0.0005
0.00445	298.15	0.00251	0.0586	0.0004
0.00445	298.15	0.00316	0.0573	0.0004
0.00445	298.15	0.00398	0.0557	0.0004
0.00445	298.15	0.00501	0.0532	0.0004
0.00445	298.15	0.00631	0.0511	0.0004
0.00445	298.15	0.00794	0.05	0.0004
0.00445	298.15	0.01	0.0492	0.0004
0.00445	298.15	0.01259	0.0484	0.0004
0.00445	298.15	0.01585	0.0481	0.0004
0.00445	298.15	0.01995	0.0478	0.0004
0.00445	298.15	0.02512	0.0473	0.0004
0.00445	298.15	0.03162	0.0473	0.0004
0.00445	298.15	0.03981	0.0473	0.0004
0.00445	298.15	0.05012	0.0473	0.0004
0.00623	298.15	0.00158	0.0583	0.0004
0.00623	298.15	0.00178	0.0579	0.0004
0.00623	298.15	0.002	0.0566	0.0004
0.00623	298.15	0.00251	0.0547	0.0004
0.00623	298.15	0.00316	0.0535	0.0004
0.00623	298.15	0.00398	0.0536	0.0004
0.00623	298.15	0.00501	0.0498	0.0004
0.00623	298.15	0.00631	0.0487	0.0004
0.00623	298.15	0.00794	0.0471	0.0004
0.00623	298.15	0.01	0.0471	0.0004
0.00623	298.15	0.01259	0.0465	0.0004
0.00623	298.15	0.01585	0.0465	0.0004
0.00623	298.15	0.01995	0.0465	0.0004
0.00623	298.15	0.02512	0.0465	0.0004
0.00623	298.15	0.03162	0.0465	0.0004
0.00623	298.15	0.03981	0.0465	0.0004
0.00623	298.15	0.05012	0.0465	0.0004
0.00712	298.15	0.00158	0.0558	0.0004
0.00712	298.15	0.00178	0.0543	0.0004
0.00712	298.15	0.002	0.0539	0.0004
0.00712	298.15	0.00251	0.0521	0.0004
0.00712	298.15	0.00316	0.0503	0.0004
0.00712	298.15	0.00398	0.0497	0.0004
0.00712	298.15	0.00501	0.0481	0.0004
0.00712	298.15	0.00631	0.0456	0.0004
0.00712	298.15	0.01	0.0451	0.0004
0.00712	298.15	0.01585	0.0449	0.0004
0.00712	298.15	0.02512	0.0447	0.0004
0.00712	298.15	0.03981	0.0445	0.0004
0.00712	298.15	0.05012	0.0445	0.0004
0	303.15	0.002	0.0655	0.0005
0	303.15	0.00251	0.064	0.0005
0	303.15	0.00316	0.0625	0.0005
0	303.15	0.00398	0.061	0.0005
0	303.15	0.00501	0.0595	0.0004
0	303.15	0.00708	0.0575	0.0004
0	303.15	0.01	0.0558	0.0004
0	303.15	0.01413	0.053	0.0004
0	303.15	0.02239	0.051	0.0004
0	303.15	0.02818	0.0508	0.0004
0	303.15	0.03162	0.0507	0.0004
0	303.15	0.03981	0.0507	0.0004
0	303.15	0.05012	0.0506	0.0004
0	303.15	0.0631	0.0506	0.0004
0.00089	303.15	0.00195	0.065	0.0005
0.00089	303.15	0.00245	0.0635	0.0005
0.00089	303.15	0.00309	0.062	0.0005
0.00089	303.15	0.00389	0.0605	0.0005
0.00089	303.15	0.0049	0.059	0.0004
0.00089	303.15	0.00692	0.0565	0.0004
0.00089	303.15	0.00794	0.0558	0.0004
0.00089	303.15	0.0138	0.0525	0.0004
0.00089	303.15	0.02188	0.0505	0.0004
0.00089	303.15	0.02754	0.0501	0.0004
0.00089	303.15	0.0309	0.0501	0.0004
0.00089	303.15	0.0389	0.05	0.0004
0.00089	303.15	0.04898	0.05	0.0004
0.00089	303.15	0.06166	0.05	0.0004
0.00178	303.15	0.0017	0.064	0.0005
0.00178	303.15	0.00214	0.062	0.0005
0.00178	303.15	0.00269	0.061	0.0005
0.00178	303.15	0.00339	0.059	0.0004
0.00178	303.15	0.00427	0.058	0.0004
0.00178	303.15	0.00603	0.055	0.0004
0.00178	303.15	0.00692	0.054	0.0004
0.00178	303.15	0.01202	0.0499	0.0004
0.00178	303.15	0.01413	0.0495	0.0004
0.00178	303.15	0.01585	0.049	0.0004
0.00178	303.15	0.01995	0.0487	0.0004
0.00178	303.15	0.02512	0.0486	0.0004
0.00178	303.15	0.03162	0.0485	0.0004
0.00178	303.15	0.0537	0.0482	0.0004
0.00267	303.15	0.00166	0.063	0.0005
0.00267	303.15	0.00195	0.061	0.0005
0.00267	303.15	0.00245	0.06	0.0004
0.00267	303.15	0.00309	0.058	0.0004
0.00267	303.15	0.00389	0.057	0.0004
0.00267	303.15	0.0055	0.054	0.0004
0.00267	303.15	0.00631	0.053	0.0004
0.00267	303.15	0.00794	0.052	0.0004
0.00267	303.15	0.01096	0.05	0.0004
0.00267	303.15	0.0126	0.049	0.0004
0.00267	303.15	0.01479	0.048	0.0004
0.00267	303.15	0.01585	0.048	0.0004
0.00267	303.15	0.02	0.048	0.0004
0.00267	303.15	0.02512	0.0478	0.0004
0.00267	303.15	0.03162	0.0477	0.0004
0.00267	303.15	0.03981	0.0476	0.0004
0.00267	303.15	0.05012	0.0476	0.0004
0.00356	303.15	0.00158	0.061	0.0005
0.00356	303.15	0.00178	0.06	0.0004
0.00356	303.15	0.002	0.059	0.0004
0.00356	303.15	0.00251	0.058	0.0004
0.00356	303.15	0.00316	0.056	0.0004
0.00356	303.15	0.00398	0.055	0.0004
0.00356	303.15	0.00501	0.053	0.0004
0.00356	303.15	0.00631	0.051	0.0004
0.00356	303.15	0.00794	0.05	0.0004
0.00356	303.15	0.01	0.049	0.0004
0.00356	303.15	0.01259	0.048	0.0004
0.00356	303.15	0.01585	0.047	0.0004
0.00356	303.15	0.02	0.0468	0.0004
0.00356	303.15	0.02512	0.0467	0.0004
0.00356	303.15	0.03162	0.0466	0.0004
0.00356	303.15	0.03981	0.0466	0.0004
0.00356	303.15	0.05012	0.0465	0.0004
0.00445	303.15	0.00158	0.06	0.0004
0.00445	303.15	0.00178	0.059	0.0004
0.00445	303.15	0.002	0.058	0.0004
0.00445	303.15	0.00251	0.056	0.0004
0.00445	303.15	0.00316	0.055	0.0004
0.00445	303.15	0.00398	0.053	0.0004
0.00445	303.15	0.00501	0.051	0.0004
0.00445	303.15	0.00631	0.049	0.0004
0.00445	303.15	0.00794	0.048	0.0004
0.00445	303.15	0.01	0.047	0.0004
0.00445	303.15	0.01259	0.046	0.0004
0.00445	303.15	0.01585	0.046	0.0004
0.00445	303.15	0.02	0.046	0.0004
0.00445	303.15	0.02512	0.0458	0.0004
0.00445	303.15	0.03162	0.0456	0.0004
0.00445	303.15	0.03981	0.0456	0.0004
0.00445	303.15	0.05012	0.0454	0.0004
0.00623	303.15	0.00158	0.056	0.0004
0.00623	303.15	0.00178	0.0555	0.0004
0.00623	303.15	0.002	0.054	0.0004
0.00623	303.15	0.00251	0.052	0.0004
0.00623	303.15	0.00316	0.051	0.0004
0.00623	303.15	0.00398	0.049	0.0004
0.00623	303.15	0.00501	0.047	0.0004
0.00623	303.15	0.00631	0.046	0.0004
0.00623	303.15	0.00794	0.045	0.0004
0.00623	303.15	0.01	0.045	0.0004
0.00623	303.15	0.01259	0.0447	0.0004
0.00623	303.15	0.01585	0.0447	0.0004
0.00623	303.15	0.02	0.0446	0.0004
0.00623	303.15	0.02512	0.0445	0.0004
0.00623	303.15	0.03162	0.0445	0.0004
0.00623	303.15	0.03981	0.0444	0.0004
0.00623	303.15	0.05012	0.0444	0.0004
0.00712	303.15	0.00158	0.0535	0.00042
0.00712	303.15	0.00178	0.0528	0.00041
0.00712	303.15	0.002	0.052	0.0004
0.00712	303.15	0.00251	0.05	0.0004
0.00712	303.15	0.00316	0.048	0.0004
0.00712	303.15	0.00398	0.047	0.0004
0.00712	303.15	0.00501	0.045	0.0004
0.00712	303.15	0.00631	0.0435	0.0004
0.00712	303.15	0.01	0.0431	0.0004
0.00712	303.15	0.01585	0.0428	0.0004
0.00712	303.15	0.02512	0.0427	0.0004
0.00712	303.15	0.03981	0.0426	0.0004
0.00712	303.15	0.05012	0.0426	0.0004
0	308.15	0.002	0.0631	0.0005
0	308.15	0.00251	0.0624	0.0005
0	308.15	0.00316	0.0602	0.0004
0	308.15	0.00398	0.0591	0.0004
0	308.15	0.00501	0.0571	0.0004
0	308.15	0.00708	0.0553	0.0004
0	308.15	0.01	0.0536	0.0004
0	308.15	0.01429	0.0512	0.0004
0	308.15	0.02239	0.0494	0.0004
0	308.15	0.02818	0.0488	0.0004
0	308.15	0.03162	0.0483	0.0004
0	308.15	0.03981	0.0483	0.0004
0	308.15	0.05012	0.0483	0.0004
0	308.15	0.0631	0.0483	0.0004
0.00089	308.15	0.00195	0.0621	0.0005
0.00089	308.15	0.00246	0.0613	0.0005
0.00089	308.15	0.00309	0.0601	0.0004
0.00089	308.15	0.00389	0.0583	0.0004
0.00089	308.15	0.0049	0.0571	0.0004
0.00089	308.15	0.00692	0.0546	0.0004
0.00089	308.15	0.00794	0.0535	0.0004
0.00089	308.15	0.0138	0.0505	0.0004
0.00089	308.15	0.02188	0.0484	0.0004
0.00089	308.15	0.02754	0.0477	0.0004
0.00089	308.15	0.0309	0.0476	0.0004
0.00089	308.15	0.0389	0.0476	0.0004
0.00089	308.15	0.04898	0.0475	0.0004
0.00089	308.15	0.06166	0.0475	0.0004
0.00178	308.15	0.0017	0.0618	0.0005
0.00178	308.15	0.00214	0.0602	0.0004
0.00178	308.15	0.0027	0.0594	0.0004
0.00178	308.15	0.00339	0.0572	0.0004
0.00178	308.15	0.00427	0.0565	0.0004
0.00178	308.15	0.00603	0.053	0.0004
0.00178	308.15	0.00692	0.0523	0.0004
0.00178	308.15	0.01202	0.0493	0.0004
0.00178	308.15	0.01413	0.048	0.0004
0.00178	308.15	0.01585	0.0475	0.0004
0.00178	308.15	0.01995	0.0464	0.0004
0.00178	308.15	0.02512	0.0464	0.0004
0.00178	308.15	0.03162	0.0464	0.0004
0.00178	308.15	0.0537	0.0464	0.0004
0.00267	308.15	0.00166	0.0609	0.0005
0.00267	308.15	0.00195	0.0592	0.0004
0.00267	308.15	0.00245	0.0586	0.0004
0.00267	308.15	0.00309	0.0562	0.0004
0.00267	308.15	0.00389	0.0557	0.0004
0.00267	308.15	0.0055	0.0522	0.0004
0.00267	308.15	0.00631	0.0514	0.0004
0.00267	308.15	0.00794	0.0501	0.0004
0.00267	308.15	0.01096	0.0483	0.0004
0.00267	308.15	0.01259	0.0473	0.0004
0.00267	308.15	0.01479	0.0465	0.0004
0.00267	308.15	0.01622	0.046	0.0004
0.00267	308.15	0.01995	0.046	0.0004
0.00267	308.15	0.02512	0.0458	0.0004
0.00267	308.15	0.03162	0.0457	0.0004
0.00267	308.15	0.03981	0.0456	0.0004
0.00267	308.15	0.05012	0.0456	0.0004
0.00356	308.15	0.00154	0.0592	0.0004
0.00356	308.15	0.00178	0.0584	0.0004
0.00356	308.15	0.002	0.0573	0.0004
0.00356	308.15	0.00251	0.0563	0.0004
0.00356	308.15	0.00316	0.0548	0.0004
0.00356	308.15	0.00398	0.0539	0.0004
0.00356	308.15	0.00501	0.051	0.0004
0.00356	308.15	0.00631	0.0493	0.0004
0.00356	308.15	0.00794	0.0482	0.0004
0.00356	308.15	0.01	0.0473	0.0004
0.00356	308.15	0.01259	0.0461	0.0004
0.00356	308.15	0.01585	0.0451	0.0004
0.00356	308.15	0.01995	0.0447	0.0004
0.00356	308.15	0.02512	0.0447	0.0004
0.00356	308.15	0.03162	0.0446	0.0004
0.00356	308.15	0.03981	0.0445	0.0004
0.00356	308.15	0.05012	0.0445	0.0004
0.00445	308.15	0.00154	0.0583	0.0004
0.00445	308.15	0.00178	0.0573	0.0004
0.00445	308.15	0.002	0.0561	0.0004
0.00445	308.15	0.00251	0.0547	0.0004
0.00445	308.15	0.00316	0.0536	0.0004
0.00445	308.15	0.00398	0.0517	0.0004
0.00445	308.15	0.00501	0.0495	0.0004
0.00445	308.15	0.00631	0.0473	0.0004
0.00445	308.15	0.00794	0.0463	0.0004
0.00445	308.15	0.01	0.0453	0.0004
0.00445	308.15	0.01259	0.044	0.0004
0.00445	308.15	0.01585	0.0436	0.0004
0.00445	308.15	0.01995	0.0438	0.0004
0.00445	308.15	0.02512	0.0434	0.0004
0.00445	308.15	0.03162	0.0434	0.0004
0.00445	308.15	0.03981	0.0433	0.0004
0.00445	308.15	0.05012	0.0432	0.0004
0.00623	308.15	0.00154	0.0542	0.0004
0.00623	308.15	0.00178	0.0535	0.0004
0.00623	308.15	0.002	0.0526	0.0004
0.00623	308.15	0.00251	0.0504	0.0004
0.00623	308.15	0.00316	0.0494	0.0004
0.00623	308.15	0.00398	0.0471	0.0004
0.00623	308.15	0.00501	0.045	0.0004
0.00623	308.15	0.00631	0.044	0.0004
0.00623	308.15	0.00794	0.043	0.0004
0.00623	308.15	0.01	0.043	0.0004
0.00623	308.15	0.01259	0.0426	0.0004
0.00623	308.15	0.01585	0.0426	0.0004
0.00623	308.15	0.01995	0.0425	0.0004
0.00623	308.15	0.02512	0.0424	0.0004
0.00623	308.15	0.03162	0.0424	0.0004
0.00623	308.15	0.03981	0.0423	0.0004
0.00623	308.15	0.05012	0.0423	0.0004
0.00712	308.15	0.00158	0.0512	0.0004
0.00712	308.15	0.00178	0.0503	0.0004
0.00712	308.15	0.002	0.0504	0.0004
0.00712	308.15	0.00251	0.0487	0.0004
0.00712	308.15	0.00316	0.0465	0.0004
0.00712	308.15	0.00398	0.0451	0.0004
0.00712	308.15	0.00501	0.0439	0.0004
0.00712	308.15	0.00631	0.0417	0.0004
0.00712	308.15	0.01	0.0411	0.0004
0.00712	308.15	0.01585	0.0405	0.0004
0.00712	308.15	0.02512	0.0405	0.0004
0.00712	308.15	0.03981	0.0404	0.0004
0.00712	308.15	0.05012	0.0404	0.0004
0	313.15	0.002	0.0618	0.0005
0	313.15	0.00251	0.0602	0.0004
0	313.15	0.00316	0.0583	0.0004
0	313.15	0.00398	0.0571	0.0004
0	313.15	0.00501	0.0555	0.0004
0	313.15	0.00708	0.0536	0.0004
0	313.15	0.01	0.0517	0.0004
0	313.15	0.01429	0.05	0.0004
0	313.15	0.02239	0.0477	0.0004
0	313.15	0.02818	0.0468	0.0004
0	313.15	0.03162	0.0465	0.0004
0	313.15	0.03981	0.0464	0.0004
0	313.15	0.05012	0.0463	0.0004
0	313.15	0.0631	0.0463	0.0004
0.00089	313.15	0.00195	0.0599	0.0004
0.00089	313.15	0.00246	0.059	0.0004
0.00089	313.15	0.00309	0.0582	0.0004
0.00089	313.15	0.00389	0.0563	0.0004
0.00089	313.15	0.0049	0.0554	0.0004
0.00089	313.15	0.00692	0.0524	0.0004
0.00089	313.15	0.00794	0.0512	0.0004
0.00089	313.15	0.0138	0.0488	0.0004
0.00089	313.15	0.02188	0.0465	0.0004
0.00089	313.15	0.02754	0.0461	0.0004
0.00089	313.15	0.0309	0.046	0.0004
0.00089	313.15	0.0389	0.0457	0.0004
0.00089	313.15	0.04898	0.0457	0.0004
0.00089	313.15	0.06166	0.0457	0.0004
0.00178	313.15	0.0017	0.059	0.0004
0.00178	313.15	0.00214	0.0582	0.0004
0.00178	313.15	0.0027	0.0575	0.0004
0.00178	313.15	0.00339	0.0554	0.0004
0.00178	313.15	0.00427	0.0543	0.0004
0.00178	313.15	0.00603	0.0518	0.0004
0.00178	313.15	0.00692	0.0508	0.0004
0.00178	313.15	0.01202	0.0476	0.0004
0.00178	313.15	0.01413	0.0463	0.0004
0.00178	313.15	0.01585	0.0456	0.0004
0.00178	313.15	0.01995	0.045	0.0004
0.00178	313.15	0.02512	0.0447	0.0004
0.00178	313.15	0.03162	0.0447	0.0004
0.00178	313.15	0.0537	0.0447	0.0004
0.00267	313.15	0.00166	0.0582	0.0004
0.00267	313.15	0.00195	0.0571	0.0004
0.00267	313.15	0.00245	0.0569	0.0004
0.00267	313.15	0.00309	0.0545	0.0004
0.00267	313.15	0.00389	0.0538	0.0004
0.00267	313.15	0.0055	0.0517	0.0004
0.00267	313.15	0.00631	0.0498	0.0004
0.00267	313.15	0.00794	0.0487	0.0004
0.00267	313.15	0.01096	0.0463	0.0004
0.00267	313.15	0.01259	0.0457	0.0004
0.00267	313.15	0.01479	0.0447	0.0004
0.00267	313.15	0.01622	0.0442	0.0004
0.00267	313.15	0.01995	0.044	0.0004
0.00267	313.15	0.02512	0.0438	0.0004
0.00267	313.15	0.03162	0.0438	0.0004
0.00267	313.15	0.03981	0.0434	0.0004
0.00267	313.15	0.05012	0.0434	0.0004
0.00356	313.15	0.00154	0.0571	0.0004
0.00356	313.15	0.00178	0.0562	0.0004
0.00356	313.15	0.002	0.0558	0.0004
0.00356	313.15	0.00251	0.0542	0.0004
0.00356	313.15	0.00316	0.0523	0.0004
0.00356	313.15	0.00398	0.0517	0.0004
0.00356	313.15	0.00501	0.0493	0.0004
0.00356	313.15	0.00631	0.0478	0.0004
0.00356	313.15	0.00794	0.0465	0.0004
0.00356	313.15	0.01	0.0452	0.0004
0.00356	313.15	0.01259	0.044	0.0004
0.00356	313.15	0.01585	0.0431	0.0004
0.00356	313.15	0.01995	0.0427	0.0004
0.00356	313.15	0.02512	0.0427	0.0004
0.00356	313.15	0.03162	0.0426	0.0004
0.00356	313.15	0.03981	0.0426	0.0004
0.00356	313.15	0.05012	0.0425	0.0004
0.00445	313.15	0.00154	0.0566	0.0004
0.00445	313.15	0.00178	0.055	0.0004
0.00445	313.15	0.002	0.0541	0.0004
0.00445	313.15	0.00251	0.0521	0.0004
0.00445	313.15	0.00316	0.0515	0.0004
0.00445	313.15	0.00398	0.0498	0.0004
0.00445	313.15	0.00501	0.0475	0.0004
0.00445	313.15	0.00631	0.0453	0.0004
0.00445	313.15	0.00794	0.0441	0.0004
0.00445	313.15	0.01	0.0432	0.0004
0.00445	313.15	0.01259	0.042	0.0004
0.00445	313.15	0.01585	0.0418	0.0004
0.00445	313.15	0.01995	0.0415	0.0004
0.00445	313.15	0.02512	0.0412	0.0004
0.00445	313.15	0.03162	0.0412	0.0004
0.00445	313.15	0.03981	0.0411	0.0004
0.00445	313.15	0.05012	0.0411	0.0004
0.00623	313.15	0.00154	0.052	0.0004
0.00623	313.15	0.00178	0.0511	0.0004
0.00623	313.15	0.002	0.0499	0.0004
0.00623	313.15	0.00251	0.0483	0.0004
0.00623	313.15	0.00316	0.0472	0.0004
0.00623	313.15	0.00398	0.0453	0.0004
0.00623	313.15	0.00501	0.043	0.0004
0.00623	313.15	0.00631	0.0424	0.0004
0.00623	313.15	0.00794	0.0413	0.0004
0.00623	313.15	0.01	0.0411	0.0004
0.00623	313.15	0.01259	0.0404	0.0004
0.00623	313.15	0.01585	0.0403	0.0004
0.00623	313.15	0.01995	0.0402	0.0004
0.00623	313.15	0.02512	0.0402	0.0004
0.00623	313.15	0.03162	0.0402	0.0004
0.00623	313.15	0.03981	0.0401	0.0004
0.00623	313.15	0.05012	0.0401	0.0004
0.00712	313.15	0.00158	0.0495	0.0004
0.00712	313.15	0.00178	0.0483	0.0004
0.00712	313.15	0.002	0.0479	0.0004
0.00712	313.15	0.00251	0.0461	0.0004
0.00712	313.15	0.00316	0.0442	0.0004
0.00712	313.15	0.00398	0.043	0.0004
0.00712	313.15	0.00501	0.0412	0.0004
0.00712	313.15	0.00631	0.0395	0.0004
0.00712	313.15	0.01	0.039	0.0004
0.00712	313.15	0.01585	0.0382	0.0003
0.00712	313.15	0.02512	0.0379	0.0004
0.00712	313.15	0.03981	0.0378	0.0004
0.00712	313.15	0.05012	0.0378	0.0004

System: L-ascorbic acid + water + 3,6,9,12,15,18,21,24,27,30,33,36,39,42,45,48,51,54,57,60-eicosaoxahexaheptacontan-1-ol; phases: Liquid
Fixed: Pressure, kPa = 100
Property: Mass density, kg/m3 (Liquid); method: Vibrating tube method
Molality, mol/kg of 3,6,9,12,15,18,21,24,27,30,33,36,39,42,45,48,51,54,57,60-eicosaoxahexaheptacontan-1-ol	Temperature, K	Solvent: Molality, mol/kg of L-ascorbic acid	Mass density, kg/m3	uncertainty
0.0005	298.15	0	995.7	0.16
0.0005	298.15	0.00089	995.74	0.16
0.0005	298.15	0.00178	995.77	0.16
0.0005	298.15	0.00267	995.8	0.16
0.0005	298.15	0.00356	995.84	0.16
0.0005	298.15	0.00445	995.87	0.16
0.0005	298.15	0.00623	995.93	0.16
0.0005	298.15	0.00712	995.97	0.16
0.0005	303.15	0	995.58	0.16
0.0005	303.15	0.00089	995.62	0.16
0.0005	303.15	0.00178	995.66	0.16
0.0005	303.15	0.00267	995.7	0.16
0.0005	303.15	0.00356	995.75	0.16
0.0005	303.15	0.00445	995.79	0.16
0.0005	303.15	0.00623	995.87	0.16
0.0005	303.15	0.00712	995.92	0.16
0.0005	308.15	0	995.44	0.16
0.0005	308.15	0.00089	995.49	0.16
0.0005	308.15	0.00178	995.54	0.16
0.0005	308.15	0.00267	995.59	0.16
0.0005	308.15	0.00356	995.64	0.16
0.0005	308.15	0.00445	995.7	0.16
0.0005	308.15	0.00623	995.81	0.16
0.0005	308.15	0.00712	995.89	0.16
0.0005	313.15	0	995.3	0.16
0.0005	313.15	0.00089	995.37	0.16
0.0005	313.15	0.00178	995.44	0.16
0.0005	313.15	0.00267	995.5	0.16
0.0005	313.15	0.00356	995.56	0.16
0.0005	313.15	0.00445	995.62	0.16
0.0005	313.15	0.00623	995.74	0.16
0.0005	313.15	0.00712	995.81	0.16
0.05	298.15	0	997.07	0.16
0.05	298.15	0.00089	997.11	0.16
0.05	298.15	0.00178	997.15	0.16
0.05	298.15	0.00267	997.17	0.16
0.05	298.15	0.00356	997.23	0.16
0.05	298.15	0.00445	997.27	0.16
0.05	298.15	0.00623	997.34	0.16
0.05	298.15	0.00712	997.38	0.16
0.05	303.15	0	996.92	0.16
0.05	303.15	0.00089	996.96	0.16
0.05	303.15	0.00178	996.98	0.16
0.05	303.15	0.00267	997.01	0.16
0.05	303.15	0.00356	997.05	0.16
0.05	303.15	0.00445	997.15	0.16
0.05	303.15	0.00623	997.24	0.16
0.05	303.15	0.00712	997.28	0.16
0.05	308.15	0	996.78	0.16
0.05	308.15	0.00089	996.83	0.16
0.05	308.15	0.00178	996.88	0.16
0.05	308.15	0.00267	996.93	0.16
0.05	308.15	0.00356	996.97	0.16
0.05	308.15	0.00445	997.02	0.16
0.05	308.15	0.00623	997.13	0.16
0.05	308.15	0.00712	997.18	0.16
0.05	313.15	0	996.64	0.16
0.05	313.15	0.00089	996.7	0.16
0.05	313.15	0.00178	996.75	0.16
0.05	313.15	0.00267	996.8	0.16
0.05	313.15	0.00356	996.85	0.16
0.05	313.15	0.00445	996.9	0.16
0.05	313.15	0.00623	997.02	0.16
0.05	313.15	0.00712	997.08	0.16

System: sodium dodecyl sulfate + water; phases: Liquid
Fixed: Pressure, kPa = 100
Fixed: Frequency, MHz = 0.003
Property: Electrical conductivity, S/m (Liquid); method: Alternating current cell with electrodes
Temperature, K	Molality, mol/kg of sodium dodecyl sulfate	Electrical conductivity, S/m	uncertainty
298.15	0.00086	0.0002247	1.44e-05
298.15	0.00135	0.0003457	2.2e-05
298.15	0.00161	0.0004316	2.75e-05
298.15	0.00172	0.0005421	3.45e-05
298.15	0.0023	0.0007684	4.89e-05
298.15	0.00342	0.0009838	6.26e-05
298.15	0.005	0.001438	9.15e-05
298.15	0.00681	0.0017698	0.0001126
298.15	0.0075	0.0020254	0.0001289
298.15	0.0108	0.0026447	0.0001683
298.15	0.01283	0.0029274	0.0001863
298.15	0.01582	0.0033508	0.0002132
298.15	0.01974	0.0039162	0.0002492
298.15	0.02351	0.0044481	0.0002831
298.15	0.02665	0.0048254	0.0003071
303.15	0.00086	0.0002895	1.85e-05
303.15	0.00135	0.000386	2.46e-05
303.15	0.00161	0.000497	3.17e-05
303.15	0.00172	0.0005985	3.81e-05
303.15	0.0023	0.000813	5.17e-05
303.15	0.00342	0.0010545	6.71e-05
303.15	0.005	0.0015	9.55e-05
303.15	0.00681	0.0019268	0.0001226
303.15	0.0075	0.002105	0.000134
303.15	0.0108	0.002691	0.0001713
303.15	0.01283	0.0029863	0.0001901
303.15	0.01582	0.003401	0.0002164
303.15	0.01974	0.0039825	0.0002535
303.15	0.02351	0.0044047	0.0002803
303.15	0.02665	0.0048668	0.0003097
308.15	0.00086	0.0003424	2.18e-05
308.15	0.00135	0.0004571	2.91e-05
308.15	0.00161	0.0005682	3.62e-05
308.15	0.00172	0.0006634	4.22e-05
308.15	0.0023	0.0008701	5.54e-05
308.15	0.00342	0.0011254	7.16e-05
308.15	0.005	0.0015947	0.0001015
308.15	0.00681	0.0018932	0.0001205
308.15	0.0075	0.0022041	0.0001403
308.15	0.0108	0.0027864	0.0001773
308.15	0.01283	0.0030457	0.0001938
308.15	0.01582	0.0035268	0.0002245
308.15	0.01974	0.0041155	0.0002619
308.15	0.02351	0.0045487	0.0002895
308.15	0.02665	0.0048668	0.0003097
313.15	0.00086	0.0004025	2.56e-05
313.15	0.00135	0.0005147	3.28e-05
313.15	0.00161	0.0006298	4.01e-05
313.15	0.00172	0.0007128	4.54e-05
313.15	0.0023	0.0009463	6.02e-05
313.15	0.00342	0.0012044	7.67e-05
313.15	0.005	0.0016941	0.0001078
313.15	0.00681	0.0020734	0.000132
313.15	0.0075	0.0023278	0.0001482
313.15	0.0108	0.0029475	0.0001876
313.15	0.01283	0.0032163	0.0002047
313.15	0.01582	0.0037269	0.0002372
313.15	0.01974	0.0043199	0.0002749
313.15	0.02351	0.004681	0.0002979
313.15	0.02665	0.0050733	0.0003229

System: sodium dodecyl sulfate + water; phases: Liquid
Fixed: Pressure, kPa = 100
Property: Mass density, kg/m3 (Liquid); method: Vibrating tube method
Molality, mol/kg of sodium dodecyl sulfate	Temperature, K	Mass density, kg/m3	uncertainty
0.0005	298.15	994.78	0.11
0.0005	303.15	994.12	0.11
0.0005	308.15	993.69	0.11
0.0005	313.15	993.15	0.11
0.05	298.15	994.74	0.11
0.05	303.15	994.19	0.11
0.05	308.15	993.64	0.11
0.05	313.15	993.11	0.11

System: 1-hexadecylpyridinium bromide + water; phases: Liquid
Fixed: Pressure, kPa = 100
Fixed: Frequency, MHz = 0.003
Property: Electrical conductivity, S/m (Liquid); method: Alternating current cell with electrodes
Temperature, K	Molality, mol/kg of 1-hexadecylpyridinium bromide	Electrical conductivity, S/m	uncertainty
298.15	0.001	0.0001957	1.25e-05
298.15	0.0015	0.0003041	1.94e-05
298.15	0.0025	0.0004396	2.8e-05
298.15	0.004	0.000742	4.72e-05
298.15	0.005	0.0010544	6.71e-05
298.15	0.007	0.0013481	8.58e-05
298.15	0.009	0.0017436	0.000111
298.15	0.01	0.0019244	0.0001225
298.15	0.013	0.0023589	0.0001501
298.15	0.015	0.0026274	0.0001672
298.15	0.018	0.0031269	0.000199
298.15	0.02	0.0034502	0.0002196
298.15	0.024	0.0040255	0.0002562
298.15	0.027	0.0044258	0.0002817
303.15	0.001	0.0002521	1.61e-05
303.15	0.0015	0.0003587	2.29e-05
303.15	0.0025	0.0005047	3.21e-05
303.15	0.004	0.0008068	5.14e-05
303.15	0.005	0.0011035	7.02e-05
303.15	0.007	0.001406	8.95e-05
303.15	0.009	0.0018047	0.0001149
303.15	0.01	0.0020066	0.0001277
303.15	0.013	0.0024078	0.0001532
303.15	0.015	0.0027081	0.0001723
303.15	0.018	0.0031022	0.0001974
303.15	0.02	0.0035043	0.000223
303.15	0.024	0.0041057	0.0002613
303.15	0.027	0.0045069	0.0002868
308.15	0.001	0.0003258	2.08e-05
308.15	0.0015	0.0004358	2.78e-05
308.15	0.0025	0.0005658	3.61e-05
308.15	0.004	0.0008841	5.63e-05
308.15	0.005	0.0010936	6.96e-05
308.15	0.007	0.0014812	9.43e-05
308.15	0.009	0.0018715	0.0001191
308.15	0.01	0.0020555	0.0001309
308.15	0.013	0.0024745	0.0001575
308.15	0.015	0.0027625	0.0001758
308.15	0.018	0.0031785	0.0002023
308.15	0.02	0.0034935	0.0002224
308.15	0.024	0.0041581	0.0002647
308.15	0.027	0.0045847	0.0002918
313.15	0.001	0.0004012	2.56e-05
313.15	0.0015	0.0005358	3.41e-05
313.15	0.0025	0.0006844	4.37e-05
313.15	0.004	0.0010074	6.42e-05
313.15	0.005	0.0013452	8.57e-05
313.15	0.007	0.0015589	9.93e-05
313.15	0.009	0.0020155	0.0001283
313.15	0.01	0.0023596	0.0001502
313.15	0.013	0.0025941	0.0001651
313.15	0.015	0.0029833	0.0001899
313.15	0.018	0.0033585	0.0002138
313.15	0.02	0.0038435	0.0002447
313.15	0.024	0.0046914	0.0002987
313.15	0.027	0.0049701	0.0003164

System: 1-hexadecylpyridinium bromide + water; phases: Liquid
Fixed: Pressure, kPa = 100
Property: Mass density, kg/m3 (Liquid); method: Vibrating tube method
Molality, mol/kg of 1-hexadecylpyridinium bromide	Temperature, K	Mass density, kg/m3	uncertainty
0.0005	298.15	996.54	0.11
0.0005	303.15	995.89	0.11
0.0005	308.15	995.18	0.11
0.0005	313.15	994.58	0.11
0.05	298.15	998.25	0.11
0.05	303.15	997.33	0.11
0.05	308.15	996.34	0.11
0.05	313.15	995.46	0.11

System: water + 3,6,9,12,15,18,21,24,27,30,33,36,39,42,45,48,51,54,57,60-eicosaoxahexaheptacontan-1-ol; phases: Liquid, Air at 1 atmosphere
Property: Surface tension liquid-gas, N/m (Liquid); method: Maximal bubble pressure
Temperature, K	Molality, mol/kg of 3,6,9,12,15,18,21,24,27,30,33,36,39,42,45,48,51,54,57,60-eicosaoxahexaheptacontan-1-ol	Surface tension liquid-gas, N/m	uncertainty
298.15	0.00199	0.0687	0.0004
298.15	0.00251	0.066	0.0004
298.15	0.00316	0.0642	0.0004
298.15	0.00398	0.0632	0.0004
298.15	0.00501	0.0613	0.0004
298.15	0.00708	0.0594	0.0004
298.15	0.01	0.0569	0.0004
298.15	0.01413	0.0553	0.0004
298.15	0.02239	0.0532	0.0004
298.15	0.02818	0.0524	0.0004
298.15	0.03162	0.0521	0.0004
298.15	0.03981	0.0521	0.0004
298.15	0.05012	0.0519	0.0004
298.15	0.0631	0.0519	0.0004
303.15	0.002	0.0655	0.0004
303.15	0.00251	0.064	0.0004
303.15	0.00316	0.0625	0.0004
303.15	0.00398	0.061	0.0004
303.15	0.00501	0.0595	0.0004
303.15	0.00708	0.0575	0.0004
303.15	0.01	0.0558	0.0004
303.15	0.01413	0.053	0.0004
303.15	0.02239	0.051	0.0004
303.15	0.02818	0.0508	0.0004
303.15	0.03162	0.0507	0.0004
303.15	0.03981	0.0507	0.0004
303.15	0.05012	0.0506	0.0004
303.15	0.0631	0.0506	0.0004
308.15	0.002	0.0631	0.0004
308.15	0.00251	0.0624	0.0004
308.15	0.00316	0.0602	0.0004
308.15	0.00398	0.0591	0.0004
308.15	0.00501	0.0571	0.0004
308.15	0.00708	0.0553	0.0004
308.15	0.01	0.0536	0.0004
308.15	0.01429	0.0512	0.0004
308.15	0.02239	0.0494	0.0004
308.15	0.02818	0.0488	0.0004
308.15	0.03162	0.0483	0.0004
308.15	0.03981	0.0483	0.0004
308.15	0.05012	0.0483	0.0004
308.15	0.0631	0.0483	0.0004
313.15	0.002	0.0618	0.0004
313.15	0.00251	0.0602	0.0004
313.15	0.00316	0.0583	0.0004
313.15	0.00398	0.0571	0.0004
313.15	0.00501	0.0555	0.0004
313.15	0.00708	0.0536	0.0004
313.15	0.01	0.0517	0.0004
313.15	0.01429	0.05	0.0004
313.15	0.02239	0.0477	0.0003
313.15	0.02818	0.0468	0.0003
313.15	0.03162	0.0465	0.0003
313.15	0.03981	0.0464	0.0003
313.15	0.05012	0.0463	0.0003
313.15	0.0631	0.0463	0.0003

System: water + 3,6,9,12,15,18,21,24,27,30,33,36,39,42,45,48,51,54,57,60-eicosaoxahexaheptacontan-1-ol; phases: Liquid
Fixed: Pressure, kPa = 100
Property: Mass density, kg/m3 (Liquid); method: Vibrating tube method
Molality, mol/kg of 3,6,9,12,15,18,21,24,27,30,33,36,39,42,45,48,51,54,57,60-eicosaoxahexaheptacontan-1-ol	Temperature, K	Mass density, kg/m3	uncertainty
0.0005	298.15	995.7	0.11
0.0005	303.15	995.58	0.11
0.0005	308.15	995.44	0.11
0.0005	313.15	995.3	0.11
0.05	298.15	997.07	0.11
0.05	303.15	996.92	0.11
0.05	308.15	996.78	0.11
0.05	313.15	996.64	0.11
