Measured thermophysical data. Density and Viscosity of the Binary Systems Ethanol + Butan-1-ol, + Pentan-1-ol, + Heptan-1-ol, + Octan-1-ol, Nonan-1-ol, + Decan-1-ol at 0.1 MPa and Temperatures from 283.15 K to 313.15 K
Source: J. Chem. Eng. Data, 2013, 10.1021/je400630f
Compound 1: ethanol, C2H6O, InChI=1S/C2H6O/c1-2-3/h3H,2H2,1H3, purity 99.8%
Compound 2: butan-1-ol, C4H10O, InChI=1S/C4H10O/c1-2-3-4-5/h5H,2-4H2,1H3, purity 99.8%
Compound 3: pentan-1-ol, C5H12O, InChI=1S/C5H12O/c1-2-3-4-5-6/h6H,2-5H2,1H3, purity 99.4%
Compound 4: heptan-1-ol, C7H16O, InChI=1S/C7H16O/c1-2-3-4-5-6-7-8/h8H,2-7H2,1H3, purity 99.2%
Compound 5: octan-1-ol, C8H18O, InChI=1S/C8H18O/c1-2-3-4-5-6-7-8-9/h9H,2-8H2,1H3, purity 99.5%
Compound 6: nonan-1-ol, C9H20O, InChI=1S/C9H20O/c1-2-3-4-5-6-7-8-9-10/h10H,2-9H2,1H3, purity 99.1%
Compound 7: decan-1-ol, C10H22O, InChI=1S/C10H22O/c1-2-3-4-5-6-7-8-9-10-11/h11H,2-10H2,1H3, purity 99.5%

System: ethanol; phases: Liquid
Fixed: Pressure, kPa = 100
Property: Viscosity, Pa*s (Liquid); method: Capillary tube (Ostwald; Ubbelohde) method
Temperature, K	Viscosity, Pa*s	uncertainty
283.15	0.001475	3.1e-05
293.15	0.001196	2.5e-05
298.15	0.001102	2.3e-05
303.15	0.000996	2.1e-05
313.15	0.000842	1.8e-05
303.15	0.000994	2.1e-05

System: ethanol; phases: Liquid
Fixed: Pressure, kPa = 100
Property: Mass density, kg/m3 (Liquid); method: VIBTUB:UFactor:12
Temperature, K	Mass density, kg/m3	uncertainty
283.15	798	1.3
293.15	789.5	1.4
298.15	785.2	1.4
303.15	781.1	1.4
313.15	772.3	1.4

System: butan-1-ol; phases: Liquid
Fixed: Pressure, kPa = 100
Property: Viscosity, Pa*s (Liquid); method: Capillary tube (Ostwald; Ubbelohde) method
Temperature, K	Viscosity, Pa*s	uncertainty
283.15	0.003822	7.9e-05
293.15	0.002859	5.9e-05
298.15	0.002558	5.3e-05
303.15	0.002236	4.6e-05
313.15	0.001736	3.6e-05

System: butan-1-ol; phases: Liquid
Fixed: Pressure, kPa = 100
Property: Mass density, kg/m3 (Liquid); method: VIBTUB:UFactor:12
Temperature, K	Mass density, kg/m3	uncertainty
283.15	817.3	1.2
293.15	809.6	1.3
298.15	805.8	1.3
303.15	802.1	1.3
313.15	794.3	1.3

System: pentan-1-ol; phases: Liquid
Fixed: Pressure, kPa = 100
Property: Viscosity, Pa*s (Liquid); method: Capillary tube (Ostwald; Ubbelohde) method
Temperature, K	Viscosity, Pa*s	uncertainty
283.15	0.005417	0.000113
293.15	0.003974	8.3e-05
298.15	0.003441	7.2e-05
303.15	0.00299	6.2e-05
313.15	0.002263	4.7e-05

System: pentan-1-ol; phases: Liquid
Fixed: Pressure, kPa = 100
Property: Mass density, kg/m3 (Liquid); method: VIBTUB:UFactor:12
Temperature, K	Mass density, kg/m3	uncertainty
283.15	822.1	1.3
293.15	814.7	1.3
298.15	811.2	1.3
303.15	807.5	1.3
313.15	800	1.4

System: heptan-1-ol; phases: Liquid
Fixed: Pressure, kPa = 100
Property: Viscosity, Pa*s (Liquid); method: Capillary tube (Ostwald; Ubbelohde) method
Temperature, K	Viscosity, Pa*s	uncertainty
283.15	0.010147	0.000211
293.15	0.007026	0.000147
298.15	0.005947	0.000125
303.15	0.005041	0.000106
313.15	0.003802	8e-05

System: heptan-1-ol; phases: Liquid
Fixed: Pressure, kPa = 100
Property: Mass density, kg/m3 (Liquid); method: VIBTUB:UFactor:12
Temperature, K	Mass density, kg/m3	uncertainty
293.15	822.6	1.3
298.15	819.1	1.3
303.15	815.6	1.3
313.15	808.4	1.4
283.15	829.6	1.3

System: octan-1-ol; phases: Liquid
Fixed: Pressure, kPa = 100
Property: Viscosity, Pa*s (Liquid); method: Capillary tube (Ostwald; Ubbelohde) method
Temperature, K	Viscosity, Pa*s	uncertainty
283.15	0.013493	0.000278
293.15	0.009016	0.000186
298.15	0.00739	0.000153
303.15	0.006306	0.000131
313.15	0.004587	9.5e-05

System: octan-1-ol; phases: Liquid
Fixed: Pressure, kPa = 100
Property: Mass density, kg/m3 (Liquid); method: VIBTUB:UFactor:12
Temperature, K	Mass density, kg/m3	uncertainty
283.15	832.1	1.2
293.15	825.2	1.2
298.15	821.9	1.2
303.15	818.4	1.3
313.15	811.4	1.3

System: nonan-1-ol; phases: Liquid
Fixed: Pressure, kPa = 100
Property: Viscosity, Pa*s (Liquid); method: Capillary tube (Ostwald; Ubbelohde) method
Temperature, K	Viscosity, Pa*s	uncertainty
283.15	0.017439	0.000364
293.15	0.011635	0.000244
298.15	0.009519	0.000199
303.15	0.007806	0.000164
313.15	0.005668	0.000119

System: nonan-1-ol; phases: Liquid
Fixed: Pressure, kPa = 100
Property: Mass density, kg/m3 (Liquid); method: VIBTUB:UFactor:12
Temperature, K	Mass density, kg/m3	uncertainty
283.15	835	1.3
293.15	828.1	1.3
298.15	824.7	1.3
303.15	821.3	1.3
313.15	814.3	1.4

System: decan-1-ol; phases: Liquid
Fixed: Pressure, kPa = 100
Property: Viscosity, Pa*s (Liquid); method: Capillary tube (Ostwald; Ubbelohde) method
Temperature, K	Viscosity, Pa*s	uncertainty
283.15	0.022064	0.000453
293.15	0.014499	0.000298
298.15	0.011471	0.000236
303.15	0.00961	0.0002
313.15	0.0069	0.000143

System: decan-1-ol; phases: Liquid
Fixed: Pressure, kPa = 100
Property: Mass density, kg/m3 (Liquid); method: VIBTUB:UFactor:12
Temperature, K	Mass density, kg/m3	uncertainty
283.15	836.6	1.2
293.15	829.9	1.2
298.15	826.5	1.2
303.15	823	1.2
313.15	816.2	1.3

System: ethanol + butan-1-ol; phases: Liquid
Fixed: Pressure, kPa = 100
Property: Mass density, kg/m3 (Liquid); method: VIBTUB:UFactor:12
Temperature, K	Mole fraction of ethanol	Mass density, kg/m3	uncertainty
283.15	0	817.3	1.2
283.15	0.1002	815.9	1.2
283.15	0.2008	814.5	1.2
283.15	0.3018	813.3	1.3
283.15	0.4006	811.7	1.3
283.15	0.5002	809.6	1.3
283.15	0.6008	807.7	1.3
283.15	0.7002	805.6	1.3
283.15	0.7991	803.3	1.3
283.15	0.8997	800.8	1.3
283.15	1	798	1.3
293.15	0	809.6	1.3
293.15	0.1002	808.3	1.3
293.15	0.2008	806.8	1.3
293.15	0.3018	805.6	1.3
293.15	0.4006	803.8	1.3
293.15	0.5002	801.6	1.3
293.15	0.6008	799.8	1.3
293.15	0.7002	797.5	1.3
293.15	0.7991	795.1	1.3
293.15	0.8997	792.4	1.4
293.15	1	789.5	1.4
298.15	0	805.8	1.3
298.15	0.1002	804.5	1.3
298.15	0.2008	803	1.3
298.15	0.3018	801.7	1.3
298.15	0.4006	799.9	1.3
298.15	0.5002	797.7	1.3
298.15	0.6008	795.8	1.3
298.15	0.7002	793.4	1.3
298.15	0.7991	790.9	1.4
298.15	0.8997	788.2	1.4
298.15	1	785.2	1.4
303.15	0	802.1	1.3
303.15	0.1002	800.6	1.3
303.15	0.2008	799.1	1.3
303.15	0.3018	797.8	1.3
303.15	0.4006	795.9	1.3
303.15	0.5002	793.7	1.3
303.15	0.6008	791.8	1.4
303.15	0.7002	789.3	1.4
303.15	0.7991	786.8	1.4
303.15	0.8997	784.1	1.4
303.15	1	781.1	1.4
313.15	0	794.3	1.3
313.15	0.1002	792.8	1.4
313.15	0.2008	791.2	1.4
313.15	0.3018	789.8	1.4
313.15	0.4006	787.9	1.4
313.15	0.5002	785.6	1.4
313.15	0.6008	783.6	1.4
313.15	0.7002	781	2
313.15	0.7991	778.3	1.4
313.15	0.8997	776	2
313.15	1	772.3	1.4

System: ethanol + butan-1-ol; phases: Liquid
Fixed: Pressure, kPa = 100
Property: Viscosity, Pa*s (Liquid); method: Capillary tube (Ostwald; Ubbelohde) method
Temperature, K	Mole fraction of ethanol	Viscosity, Pa*s	uncertainty
283.15	0	0.003822	7.9e-05
283.15	0.1002	0.003528	7.3e-05
283.15	0.2008	0.003198	6.6e-05
283.15	0.3018	0.002887	6e-05
283.15	0.4006	0.00263	5.4e-05
283.15	0.5002	0.002404	5e-05
283.15	0.6008	0.002196	4.5e-05
283.15	0.7002	0.001993	4.1e-05
283.15	0.7991	0.001811	3.8e-05
283.15	0.8997	0.001644	3.4e-05
283.15	1	0.001475	3.1e-05
293.15	0	0.002859	5.9e-05
293.15	0.1002	0.002645	5.5e-05
293.15	0.2008	0.00244	5e-05
293.15	0.3018	0.002235	4.6e-05
293.15	0.4006	0.002048	4.2e-05
293.15	0.5002	0.001879	3.9e-05
293.15	0.6008	0.001715	3.6e-05
293.15	0.7002	0.001567	3.2e-05
293.15	0.7991	0.001421	2.9e-05
293.15	0.8997	0.001299	2.7e-05
293.15	1	0.001196	2.5e-05
298.15	0	0.002558	5.3e-05
298.15	0.1002	0.002371	4.9e-05
298.15	0.2008	0.002192	4.5e-05
298.15	0.3018	0.002017	4.2e-05
298.15	0.4006	0.001853	3.8e-05
298.15	0.5002	0.001703	3.5e-05
298.15	0.6008	0.001554	3.2e-05
298.15	0.7002	0.00142	2.9e-05
298.15	0.7991	0.001299	2.7e-05
298.15	0.8997	0.001188	2.5e-05
298.15	1	0.001102	2.3e-05
303.15	0	0.002236	4.6e-05
303.15	0.1002	0.002091	4.3e-05
303.15	0.2008	0.001938	4e-05
303.15	0.3018	0.001788	3.7e-05
303.15	0.4006	0.001636	3.4e-05
303.15	0.5002	0.001506	3.1e-05
303.15	0.6008	0.001379	2.9e-05
303.15	0.7002	0.001274	2.6e-05
303.15	0.7991	0.001175	2.4e-05
303.15	0.8997	0.001074	2.2e-05
303.15	1	0.000996	2.1e-05
313.15	0	0.001736	3.6e-05
313.15	0.1002	0.001631	3.4e-05
313.15	0.2008	0.001526	3.2e-05
313.15	0.3018	0.00142	2.9e-05
313.15	0.4006	0.001321	2.7e-05
313.15	0.5002	0.001225	2.5e-05
313.15	0.6008	0.001135	2.4e-05
313.15	0.7002	0.001058	2.2e-05
313.15	0.7991	0.000985	2.1e-05
313.15	0.8997	0.00091	1.9e-05
313.15	1	0.000842	1.8e-05

System: ethanol + pentan-1-ol; phases: Liquid
Fixed: Pressure, kPa = 100
Property: Mass density, kg/m3 (Liquid); method: VIBTUB:UFactor:12
Temperature, K	Mole fraction of ethanol	Mass density, kg/m3	uncertainty
283.15	0	822.1	1.3
283.15	0.1	820.6	1.3
283.15	0.2	819.4	1.3
283.15	0.2998	817.8	1.3
283.15	0.3999	815.4	1.3
283.15	0.4997	813.3	1.3
283.15	0.6	811	1.3
283.15	0.7	808.4	1.3
283.15	0.8	805.3	1.3
283.15	0.8999	802	1.3
283.15	1	798	1.3
293.15	0	814.7	1.3
293.15	0.1	813.2	1.3
293.15	0.2	812	1.3
293.15	0.2998	810.3	1.3
293.15	0.3999	807.8	1.3
293.15	0.4997	805.6	1.3
293.15	0.6	803.2	1.3
293.15	0.7	800.5	1.3
293.15	0.8	797.3	1.3
293.15	0.8999	793.7	1.3
293.15	1	789.5	1.4
298.15	0	811.2	1.3
298.15	0.1	810	1.3
298.15	0.2	808.3	1.3
298.15	0.2998	806.6	1.3
298.15	0.3999	804.2	1.3
298.15	0.4997	801.8	1.3
298.15	0.6	799.6	1.3
298.15	0.7	796.4	1.3
298.15	0.8	793.7	1.4
298.15	0.8999	790.4	1.4
298.15	1	785.2	1.4
303.15	0	807.5	1.3
303.15	0.1	805.8	1.3
303.15	0.2	804.6	1.3
303.15	0.2998	802.8	1.3
303.15	0.3999	800.2	1.3
303.15	0.4997	797.9	1.3
303.15	0.6	795.4	1.4
303.15	0.7	792.5	1.4
303.15	0.8	789.1	1.4
303.15	0.8999	785.3	1.4
303.15	1	781.1	1.4
313.15	0	800	1.4
313.15	0.1	798.3	1.4
313.15	0.2	797	1.4
313.15	0.2998	795.1	1.4
313.15	0.3999	792.4	1.4
313.15	0.4997	790	1.4
313.15	0.6	787.4	1.4
313.15	0.7	784.3	1.4
313.15	0.8	780.8	1.4
313.15	0.8999	776.8	1.4
313.15	1	772.3	1.4

System: ethanol + pentan-1-ol; phases: Liquid
Fixed: Pressure, kPa = 100
Property: Viscosity, Pa*s (Liquid); method: Capillary tube (Ostwald; Ubbelohde) method
Temperature, K	Mole fraction of ethanol	Viscosity, Pa*s	uncertainty
283.15	0	0.005417	0.000113
283.15	0.1	0.004879	0.000101
283.15	0.2	0.004379	9.1e-05
283.15	0.2998	0.003892	8.1e-05
283.15	0.3999	0.003404	7.1e-05
283.15	0.4997	0.002966	6.2e-05
283.15	0.6	0.002564	5.3e-05
283.15	0.7	0.002234	4.6e-05
283.15	0.8	0.001938	4e-05
283.15	0.8999	0.001693	3.5e-05
283.15	1	0.001475	3.1e-05
293.15	0	0.003974	8.3e-05
293.15	0.1	0.003595	7.5e-05
293.15	0.2	0.003263	6.8e-05
293.15	0.2998	0.002935	6.1e-05
293.15	0.3999	0.002619	5.4e-05
293.15	0.4997	0.002328	4.8e-05
293.15	0.6	0.00204	4.2e-05
293.15	0.7	0.001796	3.7e-05
293.15	0.8	0.001583	3.3e-05
293.15	0.8999	0.001381	2.9e-05
293.15	1	0.001196	2.5e-05
298.15	0	0.003441	7.2e-05
298.15	0.1	0.003154	6.6e-05
298.15	0.2	0.002874	6e-05
298.15	0.2998	0.002587	5.4e-05
298.15	0.3999	0.002324	4.8e-05
298.15	0.4997	0.00207	4.3e-05
298.15	0.6	0.001833	3.8e-05
298.15	0.7	0.001631	3.4e-05
298.15	0.8	0.001435	3e-05
298.15	0.8999	0.001256	2.6e-05
298.15	1	0.001102	2.3e-05
303.15	0	0.00299	6.2e-05
303.15	0.1	0.002741	5.7e-05
303.15	0.2	0.002506	5.2e-05
303.15	0.2998	0.00227	4.7e-05
303.15	0.3999	0.00205	4.3e-05
303.15	0.4997	0.001828	3.8e-05
303.15	0.6	0.001628	3.4e-05
303.15	0.7	0.001453	3e-05
303.15	0.8	0.001285	2.7e-05
303.15	0.8999	0.001141	2.4e-05
303.15	1	0.000996	2.1e-05
313.15	0	0.002263	4.7e-05
313.15	0.1	0.0021	4.4e-05
313.15	0.2	0.001931	4e-05
313.15	0.2998	0.001771	3.7e-05
313.15	0.3999	0.00161	3.4e-05
313.15	0.4997	0.001452	3e-05
313.15	0.6	0.001312	2.7e-05
313.15	0.7	0.001179	2.5e-05
313.15	0.8	0.001062	2.2e-05
313.15	0.8999	0.000956	2e-05
313.15	1	0.000842	1.8e-05

System: ethanol + heptan-1-ol; phases: Liquid
Fixed: Pressure, kPa = 100
Property: Mass density, kg/m3 (Liquid); method: VIBTUB:UFactor:12
Temperature, K	Mole fraction of ethanol	Mass density, kg/m3	uncertainty
293.15	0	822.6	1.3
293.15	0.1001	821.1	1.3
293.15	0.2008	819.5	1.3
293.15	0.3009	817.7	1.3
293.15	0.4002	815.5	1.3
293.15	0.5001	812.5	1.3
293.15	0.6002	810.2	1.3
293.15	0.6998	806.2	1.3
293.15	0.8	802.1	1.3
293.15	0.8998	796.2	1.3
293.15	1	789.5	1.4
298.15	0	819.1	1.3
298.15	0.1001	817.6	1.3
298.15	0.2008	815.9	1.3
298.15	0.3009	814.1	1.3
298.15	0.4002	811.9	1.3
298.15	0.5001	808.8	1.3
298.15	0.6002	806.4	1.3
298.15	0.6998	802.3	1.3
298.15	0.8	798.1	1.3
298.15	0.8998	792.1	1.4
298.15	1	785.2	1.4
303.15	0	815.6	1.3
303.15	0.1001	814	1.3
303.15	0.2008	812.3	1.3
303.15	0.3009	810.4	1.3
303.15	0.4002	808.2	1.3
303.15	0.5001	805.1	1.3
303.15	0.6002	802.6	1.3
303.15	0.6998	798.4	1.3
303.15	0.8	794.1	1.4
303.15	0.8998	788	1.4
303.15	1	781.1	1.4
313.15	0	808.4	1.4
313.15	0.1001	806.8	1.4
313.15	0.2008	805.1	1.3
313.15	0.3009	803.1	1.3
313.15	0.4002	800.8	1.3
313.15	0.5001	797.5	1.4
313.15	0.6002	794.9	1.4
313.15	0.6998	790.6	1.4
313.15	0.8	786.1	1.4
313.15	0.8998	779.7	1.4
313.15	1	772.3	1.4
283.15	0	829.6	1.3
283.15	0.1001	828.1	1.3
283.15	0.2008	826.5	1.3
283.15	0.3009	824.8	1.2
283.15	0.4002	822.8	1.2
283.15	0.5001	819.9	1.3
283.15	0.6002	817.6	1.3
283.15	0.6998	813.8	1.3
283.15	0.8	809.9	1.3
283.15	0.8998	804.3	1.3
283.15	1	798	1.3

System: ethanol + heptan-1-ol; phases: Liquid
Fixed: Pressure, kPa = 100
Property: Viscosity, Pa*s (Liquid); method: Capillary tube (Ostwald; Ubbelohde) method
Temperature, K	Mole fraction of ethanol	Viscosity, Pa*s	uncertainty
283.15	0	0.010147	0.000211
283.15	0.1001	0.00886	0.000184
283.15	0.2008	0.007718	0.00016
283.15	0.3009	0.006653	0.000138
283.15	0.4002	0.005636	0.000117
283.15	0.5001	0.004683	9.7e-05
283.15	0.6002	0.003765	7.8e-05
283.15	0.6998	0.00302	6.3e-05
283.15	0.8	0.0024	5e-05
283.15	0.8998	0.001851	3.8e-05
283.15	1	0.001475	3.1e-05
293.15	0	0.007026	0.000147
293.15	0.1001	0.006256	0.000131
293.15	0.2008	0.00546	0.000114
293.15	0.3009	0.004681	9.8e-05
293.15	0.4002	0.004015	8.4e-05
293.15	0.5001	0.00342	7.1e-05
293.15	0.6002	0.002869	6e-05
293.15	0.6998	0.002378	4.9e-05
293.15	0.8	0.001943	4e-05
293.15	0.8998	0.001535	3.2e-05
293.15	1	0.001196	2.5e-05
298.15	0	0.005947	0.000125
298.15	0.1001	0.005311	0.000111
298.15	0.2008	0.004679	9.8e-05
298.15	0.3009	0.004097	8.5e-05
298.15	0.4002	0.003565	7.4e-05
298.15	0.5001	0.003037	6.3e-05
298.15	0.6002	0.002541	5.3e-05
298.15	0.6998	0.00209	4.3e-05
298.15	0.8	0.001702	3.5e-05
298.15	0.8998	0.001375	2.9e-05
298.15	1	0.001102	2.3e-05
303.15	0	0.005041	0.000106
303.15	0.1001	0.004514	9.5e-05
303.15	0.2008	0.003999	8.4e-05
303.15	0.3009	0.003523	7.4e-05
303.15	0.4002	0.003076	6.4e-05
303.15	0.5001	0.002653	5.5e-05
303.15	0.6002	0.002237	4.7e-05
303.15	0.6998	0.001859	3.9e-05
303.15	0.8	0.001523	3.2e-05
303.15	0.8998	0.001222	2.5e-05
303.15	1	0.000996	2.1e-05
313.15	0	0.003802	8e-05
313.15	0.1001	0.003446	7.2e-05
313.15	0.2008	0.003092	6.5e-05
313.15	0.3009	0.002751	5.7e-05
313.15	0.4002	0.002438	5.1e-05
313.15	0.5001	0.002125	4.4e-05
313.15	0.6002	0.001818	3.8e-05
313.15	0.6998	0.001536	3.2e-05
313.15	0.8	0.00128	2.7e-05
313.15	0.8998	0.00104	2.2e-05
313.15	1	0.000842	1.8e-05

System: ethanol + octan-1-ol; phases: Liquid
Fixed: Pressure, kPa = 100
Property: Mass density, kg/m3 (Liquid); method: VIBTUB:UFactor:12
Temperature, K	Mole fraction of ethanol	Mass density, kg/m3	uncertainty
283.15	0	832.1	1.2
293.15	0	825.2	1.2
298.15	0	821.9	1.2
303.15	0	818.4	1.3
313.15	0	811.4	1.3
283.15	0.10013	831.8	1.2
293.15	0.10013	824.1	1.2
298.15	0.10013	821.3	1.2
303.15	0.10013	817.8	1.3
313.15	0.10013	810.7	1.3
293.15	0.20011	822.4	1.2
283.15	0.20011	829.4	1.2
298.15	0.20011	818.9	1.2
303.15	0.20011	815.4	1.3
313.15	0.20011	808.3	1.3
298.15	0.30025	817	1.3
283.15	0.30025	827.3	1.2
303.15	0.30025	813.4	1.3
293.15	0.30025	820.6	1.2
313.15	0.30025	806.2	1.3
293.15	0.39988	818.2	1.2
298.15	0.39988	814.7	1.3
303.15	0.39988	811.5	1.3
283.15	0.39988	825.4	1.2
313.15	0.39988	803.7	1.3
298.15	0.50037	811.7	1.3
293.15	0.50037	815.3	1.3
283.15	0.50037	822.6	1.2
303.15	0.50037	808.1	1.3
313.15	0.50037	800.7	1.3
293.15	0.60061	812.7	1.3
298.15	0.60061	809	1.3
303.15	0.60061	805.2	1.3
283.15	0.60061	820.1	1.2
313.15	0.60061	797.7	1.3
303.15	0.69999	801.7	1.3
283.15	0.69999	816.8	1.2
293.15	0.69999	809.3	1.3
298.15	0.69999	805.4	1.3
313.15	0.69999	793.9	1.4
303.15	0.7999	796.1	1.3
298.15	0.7999	800	1.3
293.15	0.7999	803.9	1.3
283.15	0.7999	811.7	1.3
313.15	0.7999	788.1	1.4
283.15	0.90012	805	1.3
293.15	0.90012	796.8	1.3
303.15	0.90012	788.6	1.4
298.15	0.90012	792.7	1.4
313.15	0.90012	780.4	1.4
303.15	1	781.1	1.4
298.15	1	785.2	1.4
283.15	1	798	1.3
293.15	1	789.5	1.4
313.15	1	772.3	1.4

System: ethanol + octan-1-ol; phases: Liquid
Fixed: Pressure, kPa = 100
Property: Viscosity, Pa*s (Liquid); method: Capillary tube (Ostwald; Ubbelohde) method
Temperature, K	Mole fraction of ethanol	Viscosity, Pa*s	uncertainty
283.15	0	0.013493	0.000278
293.15	0	0.009016	0.000186
298.15	0	0.00739	0.000153
303.15	0	0.006306	0.000131
313.15	0	0.004587	9.5e-05
283.15	0.10013	0.01157	0.000238
293.15	0.10013	0.007998	0.000165
298.15	0.10013	0.006619	0.000137
303.15	0.10013	0.00568	0.000118
313.15	0.10013	0.004167	8.7e-05
293.15	0.20011	0.006997	0.000144
283.15	0.20011	0.009981	0.000205
298.15	0.20011	0.005812	0.00012
303.15	0.20011	0.005045	0.000105
313.15	0.20011	0.003739	7.8e-05
298.15	0.30025	0.005076	0.000105
283.15	0.30025	0.008404	0.000173
303.15	0.30025	0.004422	9.2e-05
293.15	0.30025	0.006004	0.000124
313.15	0.30025	0.003316	6.9e-05
293.15	0.39988	0.00504	0.0001
298.15	0.39988	0.004357	9e-05
303.15	0.39988	0.003732	7.7e-05
283.15	0.39988	0.006907	0.000142
313.15	0.39988	0.002903	6e-05
298.15	0.50037	0.003665	7.6e-05
293.15	0.50037	0.004177	8.6e-05
283.15	0.50037	0.00563	0.000116
303.15	0.50037	0.00322	6.7e-05
313.15	0.50037	0.002501	5.2e-05
293.15	0.60061	0.003427	7.1e-05
298.15	0.60061	0.003047	6.3e-05
303.15	0.60061	0.002677	5.5e-05
283.15	0.60061	0.004488	9.3e-05
313.15	0.60061	0.002117	4.4e-05
303.15	0.69999	0.002178	4.5e-05
283.15	0.69999	0.003543	7.3e-05
293.15	0.69999	0.002711	5.6e-05
298.15	0.69999	0.002445	5.1e-05
313.15	0.69999	0.001771	3.7e-05
303.15	0.7999	0.001712	3.6e-05
298.15	0.7999	0.001958	4.1e-05
293.15	0.7999	0.002146	4.4e-05
283.15	0.7999	0.002714	5.6e-05
313.15	0.7999	0.0014	2.9e-05
283.15	0.89978	0.002003	4.2e-05
293.15	0.89978	0.001593	3.3e-05
298.15	0.89978	0.001474	3.1e-05
303.15	0.89978	0.001328	2.8e-05
313.15	0.89978	0.001112	2.3e-05
303.15	1	0.000994	2.1e-05
298.15	1	0.001102	2.3e-05
283.15	1	0.001475	3.1e-05
293.15	1	0.001196	2.5e-05
313.15	1	0.000842	1.8e-05

System: ethanol + nonan-1-ol; phases: Liquid
Fixed: Pressure, kPa = 100
Property: Mass density, kg/m3 (Liquid); method: VIBTUB:UFactor:12
Temperature, K	Mole fraction of ethanol	Mass density, kg/m3	uncertainty
283.15	0	835	1.3
293.15	0	828.1	1.3
298.15	0	824.7	1.3
303.15	0	821.3	1.3
313.15	0	814.3	1.4
283.15	0.0999	834.1	1.2
293.15	0.0999	827.2	1.3
298.15	0.0999	823.8	1.3
303.15	0.0999	820.3	1.3
313.15	0.0999	813.3	1.3
293.15	0.2	825.1	1.3
283.15	0.2	832	1.2
298.15	0.2	821.6	1.3
303.15	0.2	818.1	1.3
313.15	0.2	811	1.3
298.15	0.3002	819.7	1.3
283.15	0.3002	830	1.2
303.15	0.3002	816.1	1.3
293.15	0.3002	823.2	1.3
313.15	0.3002	809	1.3
293.15	0.4001	820.9	1.3
298.15	0.4001	817.3	1.3
303.15	0.4001	813.8	1.3
283.15	0.4001	827.9	1.2
313.15	0.4001	806.5	1.3
298.15	0.4999	814.5	1.3
293.15	0.4999	818.2	1.3
283.15	0.4999	825.3	1.2
303.15	0.4999	810.9	1.3
313.15	0.4999	803.6	1.3
293.15	0.6001	815.1	1.3
298.15	0.6001	811.4	1.3
303.15	0.6001	807.7	1.3
283.15	0.6001	822.9	1.2
313.15	0.6001	800.8	1.3
303.15	0.6997	803.3	1.3
283.15	0.6997	818.3	1.2
293.15	0.6997	810.8	1.3
298.15	0.6997	807	1.3
313.15	0.6997	795.6	1.4
283.15	0.7975	815	1.3
293.15	0.7975	807.1	1.3
298.15	0.7975	803.3	1.3
303.15	0.7975	799.4	1.3
313.15	0.7975	791.1	1.4
283.15	0.8998	809.5	1.3
293.15	0.8998	799.4	1.3
303.15	0.8998	791.3	1.4
298.15	0.8998	795.3	1.3
313.15	0.8998	783	1.4
303.15	1	781.1	1.4
298.15	1	785.2	1.4
283.15	1	798	1.3
293.15	1	789.5	1.4
313.15	1	772.3	1.4

System: ethanol + nonan-1-ol; phases: Liquid
Fixed: Pressure, kPa = 100
Property: Viscosity, Pa*s (Liquid); method: Capillary tube (Ostwald; Ubbelohde) method
Temperature, K	Mole fraction of ethanol	Viscosity, Pa*s	uncertainty
283.15	0	0.017439	0.000364
293.15	0	0.011635	0.000244
298.15	0	0.009519	0.000199
303.15	0	0.007806	0.000164
313.15	0	0.005668	0.000119
283.15	0.0999	0.014815	0.000309
293.15	0.0999	0.010165	0.000212
298.15	0.0999	0.008427	0.000176
303.15	0.0999	0.006931	0.000145
313.15	0.0999	0.005108	0.000107
293.15	0.2	0.008712	0.000182
283.15	0.2	0.012631	0.000262
298.15	0.2	0.007371	0.000154
303.15	0.2	0.006145	0.000128
313.15	0.2	0.004534	9.5e-05
298.15	0.3002	0.006388	0.000133
283.15	0.3002	0.010682	0.000222
303.15	0.3002	0.00534	0.000111
293.15	0.3002	0.007431	0.000155
313.15	0.3002	0.003966	8.3e-05
293.15	0.4001	0.006275	0.00013
298.15	0.4001	0.005421	0.000113
303.15	0.4001	0.004577	9.5e-05
283.15	0.4001	0.008855	0.000183
313.15	0.4001	0.003443	7.2e-05
298.15	0.4999	0.004529	9.4e-05
293.15	0.4999	0.005234	0.000109
283.15	0.4999	0.007184	0.000149
303.15	0.4999	0.003845	8e-05
313.15	0.4999	0.002946	6.1e-05
293.15	0.6001	0.004243	8.8e-05
298.15	0.6001	0.003712	7.7e-05
303.15	0.6001	0.003169	6.6e-05
283.15	0.6001	0.005578	0.000116
313.15	0.6001	0.002485	5.2e-05
303.15	0.6997	0.002536	5.3e-05
283.15	0.6997	0.004208	8.7e-05
293.15	0.6997	0.003319	6.9e-05
298.15	0.6997	0.002936	6.1e-05
313.15	0.6997	0.002042	4.2e-05
283.15	0.8998	0.00222	4.6e-05
293.15	0.8998	0.001696	3.5e-05
303.15	0.8998	0.001415	2.9e-05
298.15	0.8998	0.001658	3.4e-05
313.15	0.8998	0.001214	2.5e-05
303.15	1	0.000996	2.1e-05
298.15	1	0.001102	2.3e-05
283.15	1	0.001475	3.1e-05
293.15	1	0.001196	2.5e-05
313.15	1	0.000842	1.8e-05
283.15	0.7975	0.003169	6.6e-05
293.15	0.7975	0.002478	5.1e-05
298.15	0.7975	0.002281	4.7e-05
303.15	0.7975	0.001961	4.1e-05
313.15	0.7975	0.001624	3.4e-05

System: ethanol + decan-1-ol; phases: Liquid
Fixed: Pressure, kPa = 100
Property: Mass density, kg/m3 (Liquid); method: VIBTUB:UFactor:12
Temperature, K	Mole fraction of ethanol	Mass density, kg/m3	uncertainty
283.15	0	836.6	1.2
283.15	0.09979	835.2	1.2
283.15	0.20002	833.7	1.2
283.15	0.30024	831.9	1.2
283.15	0.39991	829.5	1.2
283.15	0.49996	827.7	1.2
283.15	0.6003	824	1.2
283.15	0.69989	820.1	1.2
283.15	0.79975	814.6	1.3
283.15	0.90002	807.9	1.3
283.15	1	798	1.3
293.15	0	829.9	1.2
293.15	0.09979	828.4	1.2
293.15	0.20002	826.9	1.2
293.15	0.30024	825.1	1.2
293.15	0.39991	822.6	1.2
293.15	0.49996	820.6	1.2
293.15	0.6003	816.8	1.2
293.15	0.69989	812.8	1.3
293.15	0.79975	807	1.3
293.15	0.90002	800	1.3
293.15	1	789.5	1.4
298.15	0	826.5	1.2
298.15	0.09979	825	1.2
298.15	0.20002	823.5	1.2
298.15	0.30024	821.6	1.2
298.15	0.39991	819.1	1.2
298.15	0.49996	817	1.2
298.15	0.6003	813.2	1.3
298.15	0.69989	808.8	1.3
298.15	0.79975	803.1	1.3
298.15	0.90002	795.9	1.3
298.15	1	785.2	1.4
303.15	0	823	1.2
303.15	0.09979	821.5	1.2
303.15	0.20002	820	1.2
303.15	0.30024	818.1	1.2
303.15	0.39991	815.5	1.3
303.15	0.49996	813.5	1.3
303.15	0.6003	809.5	1.3
303.15	0.69989	805.4	1.3
303.15	0.79975	799.3	1.3
303.15	0.90002	791.9	1.4
303.15	1	781.1	1.4
313.15	0	816.2	1.3
313.15	0.09979	814.6	1.3
313.15	0.20002	813	1.3
313.15	0.30024	811.1	1.3
313.15	0.39991	808.8	1.3
313.15	0.49996	806.4	1.3
313.15	0.6003	802.1	1.3
313.15	0.69989	797.9	1.3
313.15	0.79975	791.5	1.4
313.15	0.90002	783.8	1.4
313.15	1	772.3	1.4

System: ethanol + decan-1-ol; phases: Liquid
Fixed: Pressure, kPa = 100
Property: Viscosity, Pa*s (Liquid); method: Capillary tube (Ostwald; Ubbelohde) method
Temperature, K	Mole fraction of ethanol	Viscosity, Pa*s	uncertainty
283.15	0	0.022064	0.000453
283.15	0.09979	0.018937	0.000389
283.15	0.20002	0.016124	0.000331
283.15	0.30024	0.01335	0.000274
283.15	0.39991	0.010957	0.000225
283.15	0.49996	0.008705	0.000179
283.15	0.6003	0.006674	0.000137
283.15	0.69989	0.00492	0.000102
283.15	0.79975	0.00354	7.3e-05
283.15	0.90002	0.002319	4.8e-05
283.15	1	0.001475	3.1e-05
293.15	0	0.014499	0.000298
293.15	0.09979	0.012696	0.000261
293.15	0.20002	0.01094	0.000225
293.15	0.30024	0.009255	0.00019
293.15	0.39991	0.007668	0.000158
293.15	0.49996	0.006278	0.00013
293.15	0.6003	0.005013	0.000104
293.15	0.69989	0.003832	7.9e-05
293.15	0.79975	0.00273	5.7e-05
293.15	0.90002	0.00187	3.9e-05
293.15	1	0.001196	2.5e-05
298.15	0	0.011471	0.000236
298.15	0.09979	0.010218	0.00021
298.15	0.20002	0.008957	0.000184
298.15	0.30024	0.007687	0.000158
298.15	0.39991	0.006509	0.000134
298.15	0.49996	0.005387	0.000111
298.15	0.6003	0.004346	9e-05
298.15	0.69989	0.003374	7e-05
298.15	0.79975	0.002459	5.1e-05
298.15	0.90002	0.001692	3.5e-05
298.15	1	0.001102	2.3e-05
303.15	0	0.00961	0.0002
303.15	0.09979	0.008604	0.000177
303.15	0.20002	0.007538	0.000155
303.15	0.30024	0.006462	0.000133
303.15	0.39991	0.005468	0.000113
303.15	0.49996	0.004547	9.4e-05
303.15	0.6003	0.003726	7.7e-05
303.15	0.69989	0.002947	6.1e-05
303.15	0.79975	0.002195	4.5e-05
303.15	0.90002	0.001534	3.2e-05
303.15	1	0.000996	2.1e-05
313.15	0	0.0069	0.000143
313.15	0.09979	0.006221	0.000129
313.15	0.20002	0.005513	0.000114
313.15	0.30024	0.004812	0.0001
313.15	0.39991	0.004146	8.6e-05
313.15	0.49996	0.00351	7.3e-05
313.15	0.6003	0.00292	6e-05
313.15	0.69989	0.002352	4.9e-05
313.15	0.79975	0.001813	3.8e-05
313.15	0.90002	0.001311	2.7e-05
313.15	1	0.000842	1.8e-05
