Measured thermophysical data. Densities and Viscosities of Diaminotoluene with Water, Ethanol, Propan-1-ol, and Butan-1-ol from (293.15 to 333.15) K
Source: J. Chem. Eng. Data, 2014, 10.1021/je400968v
Compound 1: 4-methyl-1,3-benzendiamine, C7H10N2, InChI=1S/C7H10N2/c1-5-2-3-6(8)4-7(5)9/h2-4H,8-9H2,1H3, purity 99.6%
Compound 2: 2,6-diaminotoluene, C7H10N2, InChI=1S/C7H10N2/c1-5-6(8)3-2-4-7(5)9/h2-4H,8-9H2,1H3, purity 99.6%
Compound 3: ethanol, C2H6O, InChI=1S/C2H6O/c1-2-3/h3H,2H2,1H3, purity 99.7%
Compound 4: propan-1-ol, C3H8O, InChI=1S/C3H8O/c1-2-3-4/h4H,2-3H2,1H3, purity 99.5%
Compound 5: butan-1-ol, C4H10O, InChI=1S/C4H10O/c1-2-3-4-5/h5H,2-4H2,1H3, purity 99.5%
Compound 6: water, H2O, InChI=1S/H2O/h1H2

System: ethanol; phases: Liquid
Fixed: Pressure, kPa = 101
Property: Mass density, kg/m3 (Liquid); method: Vibrating tube method
Temperature, K	Mass density, kg/m3	uncertainty
293.15	789.56	0.16
303.15	780.98	0.16
313.15	772.22	0.16
323.15	763.29	0.17
333.15	754.18	0.17

System: ethanol; phases: Liquid
Fixed: Pressure, kPa = 101
Property: Viscosity, Pa*s (Liquid); method: Capillary tube (Ostwald; Ubbelohde) method
Temperature, K	Viscosity, Pa*s	uncertainty
293.15	0.001179	8e-06
303.15	0.000972	6e-06
313.15	0.000806	6e-06
323.15	0.000672	5e-06
333.15	0.000564	4e-06

System: propan-1-ol; phases: Liquid
Fixed: Pressure, kPa = 101
Property: Mass density, kg/m3 (Liquid); method: Vibrating tube method
Temperature, K	Mass density, kg/m3	uncertainty
293.15	803.86	0.17
303.15	795.54	0.17
313.15	787.37	0.17
323.15	779.01	0.18
333.15	770.42	0.18

System: propan-1-ol; phases: Liquid
Fixed: Pressure, kPa = 101
Property: Viscosity, Pa*s (Liquid); method: Capillary tube (Ostwald; Ubbelohde) method
Temperature, K	Viscosity, Pa*s	uncertainty
293.15	0.002171	1.4e-05
303.15	0.001696	1.2e-05
313.15	0.001338	9e-06
323.15	0.001067	7e-06
333.15	0.000859	6e-06

System: butan-1-ol; phases: Liquid
Fixed: Pressure, kPa = 101
Property: Mass density, kg/m3 (Liquid); method: Vibrating tube method
Temperature, K	Mass density, kg/m3	uncertainty
293.15	809.69	0.17
303.15	802.04	0.17
313.15	794.27	0.17
323.15	786.32	0.17
333.15	778.16	0.17

System: butan-1-ol; phases: Liquid
Fixed: Pressure, kPa = 101
Property: Viscosity, Pa*s (Liquid); method: Capillary tube (Ostwald; Ubbelohde) method
Temperature, K	Viscosity, Pa*s	uncertainty
293.15	0.002908	1.9e-05
303.15	0.002225	1.5e-05
313.15	0.001723	1.2e-05
323.15	0.001351	9e-06
333.15	0.001071	8e-06

System: water; phases: Liquid
Fixed: Pressure, kPa = 101
Property: Mass density, kg/m3 (Liquid); method: Vibrating tube method
Temperature, K	Mass density, kg/m3	uncertainty
293.15	998.2	0.23
303.15	995.65	0.23
313.15	992.22	0.23
323.15	988.04	0.23
333.15	983.2	0.23

System: water; phases: Liquid
Fixed: Pressure, kPa = 101
Property: Viscosity, Pa*s (Liquid); method: Capillary tube (Ostwald; Ubbelohde) method
Temperature, K	Viscosity, Pa*s	uncertainty
293.15	0.001002	8e-06
303.15	0.000798	7e-06
313.15	0.000653	6e-06
323.15	0.000547	5e-06
333.15	0.000467	4e-06

System: 4-methyl-1,3-benzendiamine + water; phases: Liquid
Fixed: Pressure, kPa = 101
Property: Mass density, kg/m3 (Liquid); method: Vibrating tube method
Temperature, K	Molality, mol/kg of 4-methyl-1,3-benzendiamine	Mass density, kg/m3	uncertainty
293.15	0	998.2	0.23
293.15	0.0503	998.84	0.23
293.15	0.0998	999.45	0.23
293.15	0.1503	1000.06	0.23
293.15	0.1999	1000.64	0.23
303.15	0	995.65	0.23
303.15	0.0503	996.26	0.23
303.15	0.0998	996.84	0.23
303.15	0.1503	997.41	0.23
303.15	0.1999	997.95	0.23
313.15	0	992.22	0.23
313.15	0.0503	992.81	0.23
313.15	0.0998	993.36	0.23
313.15	0.1503	993.9	0.23
313.15	0.1999	994.42	0.23
323.15	0	988.04	0.23
323.15	0.0503	988.59	0.23
323.15	0.0998	989.11	0.23
323.15	0.1503	989.62	0.23
323.15	0.1999	990.11	0.23
333.15	0	983.2	0.23
333.15	0.0503	983.71	0.23
333.15	0.0998	984.2	0.23
333.15	0.1503	984.68	0.23
333.15	0.1999	985.14	0.23

System: 4-methyl-1,3-benzendiamine + water; phases: Liquid
Fixed: Pressure, kPa = 101
Property: Viscosity, Pa*s (Liquid); method: Capillary tube (Ostwald; Ubbelohde) method
Temperature, K	Molality, mol/kg of 4-methyl-1,3-benzendiamine	Viscosity, Pa*s	uncertainty
293.15	0.0503	0.001018	8e-06
293.15	0.0998	0.001035	8e-06
293.15	0.1503	0.001051	9e-06
293.15	0.1999	0.001069	9e-06
303.15	0.0503	0.00081	7e-06
303.15	0.0998	0.000822	7e-06
303.15	0.1503	0.000831	7e-06
303.15	0.1999	0.000842	7e-06
313.15	0.0503	0.000662	6e-06
313.15	0.0998	0.000671	6e-06
313.15	0.1503	0.000679	6e-06
313.15	0.1999	0.000686	6e-06
323.15	0.0503	0.000554	5e-06
323.15	0.0998	0.000562	5e-06
323.15	0.1503	0.000571	5e-06
323.15	0.1999	0.000578	5e-06
333.15	0.0503	0.000472	4e-06
333.15	0.0998	0.000479	4e-06
333.15	0.1503	0.000484	4e-06
333.15	0.1999	0.00049	4e-06

System: ethanol + 4-methyl-1,3-benzendiamine; phases: Liquid
Fixed: Pressure, kPa = 101
Property: Mass density, kg/m3 (Liquid); method: Vibrating tube method
Temperature, K	Molality, mol/kg of 4-methyl-1,3-benzendiamine	Mass density, kg/m3	uncertainty
293.15	0	789.56	0.16
293.15	0.0503	791.4	0.16
293.15	0.0999	793.18	0.16
293.15	0.1497	794.92	0.16
293.15	0.1994	796.64	0.16
293.15	0.2494	798.32	0.16
293.15	0.2997	799.96	0.16
293.15	0.3496	801.58	0.16
293.15	0.3994	803.15	0.16
293.15	0.4496	804.71	0.16
293.15	0.4995	806.25	0.16
293.15	0.5492	807.75	0.16
293.15	0.5989	809.18	0.16
303.15	0	780.98	0.16
303.15	0.0503	782.79	0.16
303.15	0.0999	784.54	0.16
303.15	0.1497	786.27	0.16
303.15	0.1994	787.95	0.16
303.15	0.2494	789.63	0.16
303.15	0.2997	791.27	0.16
303.15	0.3496	792.88	0.16
303.15	0.3994	794.44	0.16
303.15	0.4496	796.01	0.16
303.15	0.4995	797.53	0.16
303.15	0.5492	799.06	0.16
303.15	0.5989	800.53	0.16
313.15	0	772.22	0.16
313.15	0.0503	774	0.16
313.15	0.0999	775.74	0.16
313.15	0.1497	777.46	0.16
313.15	0.1994	779.14	0.16
313.15	0.2494	780.81	0.16
313.15	0.2997	782.46	0.16
313.15	0.3496	784.07	0.16
313.15	0.3994	785.66	0.16
313.15	0.4496	787.24	0.16
313.15	0.4995	788.77	0.16
313.15	0.5492	790.28	0.16
313.15	0.5989	791.76	0.16
323.15	0	763.29	0.17
323.15	0.0503	765.08	0.17
323.15	0.0999	766.82	0.17
323.15	0.1497	768.52	0.17
323.15	0.1994	770.21	0.17
323.15	0.2494	771.88	0.17
323.15	0.2997	773.52	0.16
323.15	0.3496	775.13	0.16
323.15	0.3994	776.73	0.16
323.15	0.4496	778.31	0.16
323.15	0.4995	779.84	0.16
323.15	0.5492	781.37	0.16
323.15	0.5989	782.81	0.16
333.15	0	754.18	0.17
333.15	0.0503	755.96	0.17
333.15	0.0999	757.7	0.17
333.15	0.1497	759.41	0.17
333.15	0.1994	761.1	0.17
333.15	0.2494	762.76	0.17
333.15	0.2997	764.42	0.17
333.15	0.3496	766.03	0.17
333.15	0.3994	767.62	0.17
333.15	0.4496	769.19	0.17
333.15	0.4995	770.7	0.17
333.15	0.5492	772.2	0.17
333.15	0.5989	773.66	0.17

System: ethanol + 4-methyl-1,3-benzendiamine; phases: Liquid
Fixed: Pressure, kPa = 101
Property: Viscosity, Pa*s (Liquid); method: Capillary tube (Ostwald; Ubbelohde) method
Temperature, K	Molality, mol/kg of 4-methyl-1,3-benzendiamine	Viscosity, Pa*s	uncertainty
293.15	0	0.001179	8e-06
293.15	0.0503	0.001196	8e-06
293.15	0.0999	0.001208	8e-06
293.15	0.1497	0.001224	8e-06
293.15	0.1994	0.001236	8e-06
293.15	0.2494	0.001252	8e-06
293.15	0.2997	0.001265	8e-06
293.15	0.3496	0.00128	8e-06
293.15	0.3994	0.001293	8e-06
293.15	0.4496	0.00131	8e-06
293.15	0.4995	0.001323	9e-06
293.15	0.5492	0.00134	9e-06
293.15	0.5989	0.001353	9e-06
303.15	0	0.000972	6e-06
303.15	0.0503	0.000982	7e-06
303.15	0.0999	0.000995	7e-06
303.15	0.1497	0.001004	7e-06
303.15	0.1994	0.001015	7e-06
303.15	0.2494	0.001027	7e-06
303.15	0.2997	0.001037	7e-06
303.15	0.3496	0.001046	7e-06
303.15	0.3994	0.001059	7e-06
303.15	0.4496	0.001068	7e-06
303.15	0.4995	0.001079	7e-06
303.15	0.5492	0.00109	7e-06
303.15	0.5989	0.001101	7e-06
313.15	0	0.000806	6e-06
313.15	0.0503	0.000815	6e-06
313.15	0.0999	0.000821	6e-06
313.15	0.1497	0.000829	6e-06
313.15	0.1994	0.000836	6e-06
313.15	0.2494	0.000845	6e-06
313.15	0.2997	0.000853	6e-06
313.15	0.3496	0.000861	6e-06
313.15	0.3994	0.000868	6e-06
313.15	0.4496	0.000877	6e-06
313.15	0.4995	0.000883	6e-06
313.15	0.5492	0.000893	6e-06
313.15	0.5989	0.000899	6e-06
323.15	0	0.000672	5e-06
323.15	0.0503	0.00068	5e-06
323.15	0.0999	0.000685	5e-06
323.15	0.1497	0.000691	5e-06
323.15	0.1994	0.000696	5e-06
323.15	0.2494	0.000703	5e-06
323.15	0.2997	0.000708	5e-06
323.15	0.3496	0.000714	5e-06
323.15	0.3994	0.00072	5e-06
323.15	0.4496	0.000727	5e-06
323.15	0.4995	0.000731	5e-06
323.15	0.5492	0.000739	5e-06
323.15	0.5989	0.000743	5e-06
333.15	0	0.000564	4e-06
333.15	0.0503	0.000571	4e-06
333.15	0.0999	0.000576	4e-06
333.15	0.1497	0.000579	4e-06
333.15	0.1994	0.000583	4e-06
333.15	0.2494	0.000588	4e-06
333.15	0.2997	0.000592	4e-06
333.15	0.3496	0.000597	4e-06
333.15	0.3994	0.000601	4e-06
333.15	0.4496	0.000607	4e-06
333.15	0.4995	0.00061	4e-06
333.15	0.5492	0.000616	4e-06
333.15	0.5989	0.000619	4e-06

System: propan-1-ol + 4-methyl-1,3-benzendiamine; phases: Liquid
Fixed: Pressure, kPa = 101
Property: Mass density, kg/m3 (Liquid); method: Vibrating tube method
Temperature, K	Molality, mol/kg of 4-methyl-1,3-benzendiamine	Mass density, kg/m3	uncertainty
293.15	0	803.86	0.17
293.15	0.05	805.47	0.17
293.15	0.1003	807.05	0.17
293.15	0.15	808.57	0.17
293.15	0.1997	810.04	0.17
293.15	0.2499	811.49	0.17
293.15	0.2999	812.87	0.17
293.15	0.3496	814.24	0.17
293.15	0.3994	815.57	0.17
303.15	0	795.54	0.17
303.15	0.05	797.13	0.17
303.15	0.1003	798.71	0.17
303.15	0.15	800.22	0.17
303.15	0.1997	801.7	0.17
303.15	0.2499	803.17	0.17
303.15	0.2999	804.6	0.17
303.15	0.3496	805.98	0.17
303.15	0.3994	807.34	0.17
313.15	0	787.37	0.17
313.15	0.05	788.94	0.17
313.15	0.1003	790.49	0.17
313.15	0.15	792.01	0.17
313.15	0.1997	793.49	0.17
313.15	0.2499	794.96	0.17
313.15	0.2999	796.4	0.17
313.15	0.3496	797.83	0.17
313.15	0.3994	799.22	0.17
323.15	0	779.01	0.18
323.15	0.05	780.57	0.17
323.15	0.1003	782.12	0.17
323.15	0.15	783.62	0.17
323.15	0.1997	785.09	0.17
323.15	0.2499	786.55	0.17
323.15	0.2999	787.99	0.17
323.15	0.3496	789.4	0.17
323.15	0.3994	790.77	0.17
333.15	0	770.42	0.18
333.15	0.05	771.96	0.18
333.15	0.1003	773.5	0.18
333.15	0.15	774.99	0.18
333.15	0.1997	776.45	0.18
333.15	0.2499	777.91	0.18
333.15	0.2999	779.34	0.18
333.15	0.3496	780.74	0.17
333.15	0.3994	782.12	0.17

System: propan-1-ol + 4-methyl-1,3-benzendiamine; phases: Liquid
Fixed: Pressure, kPa = 101
Property: Viscosity, Pa*s (Liquid); method: Capillary tube (Ostwald; Ubbelohde) method
Temperature, K	Molality, mol/kg of 4-methyl-1,3-benzendiamine	Viscosity, Pa*s	uncertainty
293.15	0	0.002171	1.4e-05
293.15	0.05	0.002189	1.4e-05
293.15	0.1003	0.002206	1.5e-05
293.15	0.15	0.002225	1.5e-05
293.15	0.1997	0.002247	1.5e-05
293.15	0.2499	0.002267	1.5e-05
293.15	0.2999	0.002294	1.5e-05
293.15	0.3496	0.002315	1.5e-05
293.15	0.3994	0.002338	1.5e-05
303.15	0	0.001696	1.2e-05
303.15	0.05	0.00171	1.2e-05
303.15	0.1003	0.001723	1.2e-05
303.15	0.15	0.001735	1.2e-05
303.15	0.1997	0.001748	1.2e-05
303.15	0.2499	0.001759	1.2e-05
303.15	0.2999	0.001774	1.2e-05
303.15	0.3496	0.00179	1.2e-05
303.15	0.3994	0.001806	1.2e-05
313.15	0	0.001338	9e-06
313.15	0.05	0.001348	9e-06
313.15	0.1003	0.001354	9e-06
313.15	0.15	0.001365	9e-06
313.15	0.1997	0.001372	9e-06
313.15	0.2499	0.001382	1e-05
313.15	0.2999	0.001389	1e-05
313.15	0.3496	0.001401	1e-05
313.15	0.3994	0.001412	1e-05
323.15	0	0.001067	7e-06
323.15	0.05	0.001074	8e-06
323.15	0.1003	0.001079	8e-06
323.15	0.15	0.001086	8e-06
323.15	0.1997	0.001091	8e-06
323.15	0.2499	0.001099	8e-06
323.15	0.2999	0.001106	8e-06
323.15	0.3496	0.001112	8e-06
323.15	0.3994	0.001117	8e-06
333.15	0	0.000859	6e-06
333.15	0.05	0.000864	6e-06
333.15	0.1003	0.000868	6e-06
333.15	0.15	0.000875	6e-06
333.15	0.1997	0.000878	6e-06
333.15	0.2499	0.000883	6e-06
333.15	0.2999	0.000889	6e-06
333.15	0.3496	0.000893	6e-06
333.15	0.3994	0.000899	6e-06

System: butan-1-ol + 4-methyl-1,3-benzendiamine; phases: Liquid
Fixed: Pressure, kPa = 101
Property: Mass density, kg/m3 (Liquid); method: Vibrating tube method
Temperature, K	Molality, mol/kg of 4-methyl-1,3-benzendiamine	Mass density, kg/m3	uncertainty
293.15	0	809.69	0.17
293.15	0.0497	811.16	0.17
293.15	0.0997	812.62	0.17
293.15	0.1501	814.06	0.17
293.15	0.1999	815.48	0.17
293.15	0.2491	816.86	0.17
303.15	0	802.04	0.17
303.15	0.0497	803.49	0.17
303.15	0.0997	804.93	0.17
303.15	0.1501	806.37	0.17
303.15	0.1999	807.77	0.17
303.15	0.2491	809.14	0.17
313.15	0	794.27	0.17
313.15	0.0497	795.7	0.17
313.15	0.0997	797.13	0.17
313.15	0.1501	798.55	0.17
313.15	0.1999	799.94	0.17
313.15	0.2491	801.3	0.17
323.15	0	786.32	0.17
323.15	0.0497	787.74	0.17
323.15	0.0997	789.15	0.17
323.15	0.1501	790.56	0.17
323.15	0.1999	791.94	0.17
323.15	0.2491	793.29	0.17
333.15	0	778.16	0.17
333.15	0.0497	779.59	0.17
333.15	0.0997	781	0.17
333.15	0.1501	782.41	0.17
333.15	0.1999	783.78	0.17
333.15	0.2491	785.12	0.17

System: butan-1-ol + 4-methyl-1,3-benzendiamine; phases: Liquid
Fixed: Pressure, kPa = 101
Property: Viscosity, Pa*s (Liquid); method: Capillary tube (Ostwald; Ubbelohde) method
Temperature, K	Molality, mol/kg of 4-methyl-1,3-benzendiamine	Viscosity, Pa*s	uncertainty
293.15	0	0.002908	1.9e-05
293.15	0.0497	0.002922	1.9e-05
293.15	0.0997	0.002939	1.9e-05
293.15	0.1501	0.002954	1.9e-05
293.15	0.1999	0.002972	2e-05
293.15	0.2491	0.002994	2e-05
303.15	0	0.002225	1.5e-05
303.15	0.0497	0.002237	1.5e-05
303.15	0.0997	0.002246	1.5e-05
303.15	0.1501	0.002258	1.5e-05
303.15	0.1999	0.002269	1.5e-05
303.15	0.2491	0.002279	1.5e-05
313.15	0	0.001723	1.2e-05
313.15	0.0497	0.001731	1.2e-05
313.15	0.0997	0.001736	1.2e-05
313.15	0.1501	0.001746	1.2e-05
313.15	0.1999	0.001751	1.2e-05
313.15	0.2491	0.001759	1.2e-05
323.15	0	0.001351	9e-06
323.15	0.0497	0.001357	9e-06
323.15	0.0997	0.001362	9e-06
323.15	0.1501	0.001367	9e-06
323.15	0.1999	0.001372	9e-06
323.15	0.2491	0.001377	9e-06
333.15	0	0.001071	8e-06
333.15	0.0497	0.001076	8e-06
333.15	0.0997	0.001079	8e-06
333.15	0.1501	0.001083	8e-06
333.15	0.1999	0.001087	8e-06
333.15	0.2491	0.001091	8e-06

System: 2,6-diaminotoluene + water; phases: Liquid
Fixed: Pressure, kPa = 101
Property: Mass density, kg/m3 (Liquid); method: Vibrating tube method
Temperature, K	Molality, mol/kg of 2,6-diaminotoluene	Mass density, kg/m3	uncertainty
293.15	0	998.2	0.23
293.15	0.0501	998.9	0.23
293.15	0.1002	999.59	0.23
293.15	0.1502	1000.27	0.23
293.15	0.2	1000.92	0.23
293.15	0.2497	1001.57	0.23
293.15	0.2993	1002.21	0.23
303.15	0	995.65	0.23
303.15	0.0501	996.32	0.23
303.15	0.1002	996.97	0.23
303.15	0.1502	997.61	0.23
303.15	0.2	998.24	0.23
303.15	0.2497	998.86	0.23
303.15	0.2993	999.47	0.23
313.15	0	992.22	0.23
313.15	0.0501	992.86	0.23
313.15	0.1002	993.49	0.23
313.15	0.1502	994.1	0.23
313.15	0.2	994.69	0.23
313.15	0.2497	995.27	0.23
313.15	0.2993	995.84	0.23
323.15	0	988.04	0.23
323.15	0.0501	988.65	0.23
323.15	0.1002	989.24	0.23
323.15	0.1502	989.82	0.23
323.15	0.2	990.38	0.23
323.15	0.2497	990.93	0.23
323.15	0.2993	991.46	0.23
333.15	0	983.2	0.23
333.15	0.0501	983.81	0.23
333.15	0.1002	984.38	0.23
333.15	0.1502	984.89	0.23
333.15	0.2	985.37	0.23
333.15	0.2497	985.79	0.23
333.15	0.2993	986.15	0.23

System: 2,6-diaminotoluene + water; phases: Liquid
Fixed: Pressure, kPa = 101
Property: Viscosity, Pa*s (Liquid); method: Capillary tube (Ostwald; Ubbelohde) method
Temperature, K	Molality, mol/kg of 2,6-diaminotoluene	Viscosity, Pa*s	uncertainty
293.15	0	0.001002	8e-06
293.15	0.0501	0.001032	8e-06
293.15	0.1002	0.001053	9e-06
293.15	0.1502	0.001066	9e-06
293.15	0.2	0.001081	9e-06
293.15	0.2497	0.00109	9e-06
293.15	0.2993	0.001112	9e-06
303.15	0	0.000798	7e-06
303.15	0.0501	0.000813	7e-06
303.15	0.1002	0.000832	7e-06
303.15	0.1502	0.000838	7e-06
303.15	0.2	0.00085	7e-06
303.15	0.2497	0.000854	7e-06
303.15	0.2993	0.00087	7e-06
313.15	0	0.000653	6e-06
313.15	0.0501	0.000665	6e-06
313.15	0.1002	0.000677	6e-06
313.15	0.1502	0.000681	6e-06
313.15	0.2	0.00069	6e-06
313.15	0.2497	0.000694	6e-06
313.15	0.2993	0.000702	6e-06
323.15	0	0.000547	5e-06
323.15	0.0501	0.000557	5e-06
323.15	0.1002	0.000563	5e-06
323.15	0.1502	0.000568	5e-06
323.15	0.2	0.000573	5e-06
323.15	0.2497	0.000575	5e-06
323.15	0.2993	0.000585	5e-06
333.15	0	0.000467	4e-06
333.15	0.0501	0.0004741	4.2e-06
333.15	0.1002	0.000479	4e-06
333.15	0.1502	0.000483	4e-06
333.15	0.2	0.000487	4e-06
333.15	0.2497	0.000488	4e-06
333.15	0.2993	0.000495	4e-06

System: ethanol + 2,6-diaminotoluene; phases: Liquid
Fixed: Pressure, kPa = 101
Property: Mass density, kg/m3 (Liquid); method: Vibrating tube method
Temperature, K	Molality, mol/kg of 2,6-diaminotoluene	Mass density, kg/m3	uncertainty
293.15	0	789.56	0.16
293.15	0.0503	791.34	0.16
293.15	0.1002	793.1	0.16
293.15	0.1497	794.82	0.16
293.15	0.1996	796.54	0.16
293.15	0.2496	798.23	0.16
293.15	0.2997	799.92	0.16
293.15	0.3496	801.55	0.16
293.15	0.3995	803.2	0.16
293.15	0.4497	804.84	0.16
293.15	0.4995	806.45	0.16
293.15	0.5495	808.02	0.16
293.15	0.5995	809.61	0.16
293.15	0.6492	811.1	0.16
293.15	0.6984	812.63	0.16
293.15	0.7488	814.15	0.15
293.15	0.7991	815.68	0.15
303.15	0	780.98	0.16
303.15	0.0503	782.75	0.16
303.15	0.1002	784.49	0.16
303.15	0.1497	786.2	0.16
303.15	0.1996	787.9	0.16
303.15	0.2496	789.59	0.16
303.15	0.2997	791.26	0.16
303.15	0.3496	792.9	0.16
303.15	0.3995	794.53	0.16
303.15	0.4497	796.16	0.16
303.15	0.4995	797.75	0.16
303.15	0.5495	799.33	0.16
303.15	0.5995	800.9	0.16
303.15	0.6492	802.44	0.16
303.15	0.6984	803.98	0.16
303.15	0.7488	805.51	0.16
303.15	0.7991	807.02	0.16
313.15	0	772.22	0.16
313.15	0.0503	773.98	0.16
313.15	0.1002	775.72	0.16
313.15	0.1497	777.43	0.16
313.15	0.1996	779.12	0.16
313.15	0.2496	780.81	0.16
313.15	0.2997	782.49	0.16
313.15	0.3496	784.13	0.16
313.15	0.3995	785.77	0.16
313.15	0.4497	787.4	0.16
313.15	0.4995	789	0.16
313.15	0.5495	790.56	0.16
313.15	0.5995	792.14	0.16
313.15	0.6492	793.67	0.16
313.15	0.6984	795.19	0.16
313.15	0.7488	796.73	0.16
313.15	0.7991	798.25	0.16
323.15	0	763.29	0.17
323.15	0.0503	765.05	0.17
323.15	0.1002	766.78	0.17
323.15	0.1497	768.49	0.17
323.15	0.1996	770.18	0.17
323.15	0.2496	771.86	0.17
323.15	0.2997	773.53	0.16
323.15	0.3496	775.18	0.16
323.15	0.3995	776.81	0.16
323.15	0.4497	778.43	0.16
323.15	0.4995	780.03	0.16
323.15	0.5495	781.61	0.16
323.15	0.5995	783.18	0.16
323.15	0.6492	784.72	0.16
323.15	0.6984	786.23	0.16
323.15	0.7488	787.77	0.16
323.15	0.7991	789.3	0.16
333.15	0	754.18	0.17
333.15	0.0503	755.93	0.17
333.15	0.1002	757.66	0.17
333.15	0.1497	759.36	0.17
333.15	0.1996	761.05	0.17
333.15	0.2496	762.72	0.17
333.15	0.2997	764.4	0.17
333.15	0.3496	766.04	0.17
333.15	0.3995	767.67	0.17
333.15	0.4497	769.3	0.17
333.15	0.4995	770.89	0.17
333.15	0.5495	772.46	0.17
333.15	0.5995	774.03	0.17
333.15	0.6492	775.55	0.16
333.15	0.6984	777.07	0.16
333.15	0.7488	778.61	0.16
333.15	0.7991	780.13	0.16

System: ethanol + 2,6-diaminotoluene; phases: Liquid
Fixed: Pressure, kPa = 101
Property: Viscosity, Pa*s (Liquid); method: Capillary tube (Ostwald; Ubbelohde) method
Temperature, K	Molality, mol/kg of 2,6-diaminotoluene	Viscosity, Pa*s	uncertainty
293.15	0	0.001179	8e-06
293.15	0.0503	0.001193	8e-06
293.15	0.1002	0.001206	8e-06
293.15	0.1497	0.001221	8e-06
293.15	0.1996	0.001233	8e-06
293.15	0.2496	0.001245	8e-06
293.15	0.2997	0.001258	8e-06
293.15	0.3496	0.001272	8e-06
293.15	0.3995	0.001286	8e-06
293.15	0.4497	0.0013	8e-06
293.15	0.4995	0.001313	8e-06
293.15	0.5495	0.001328	9e-06
293.15	0.5995	0.001342	9e-06
293.15	0.6492	0.001357	9e-06
293.15	0.6984	0.001372	9e-06
293.15	0.7488	0.001389	9e-06
293.15	0.7991	0.001408	9e-06
303.15	0	0.000972	6e-06
303.15	0.0503	0.000983	7e-06
303.15	0.1002	0.000991	7e-06
303.15	0.1497	0.001002	7e-06
303.15	0.1996	0.001011	7e-06
303.15	0.2496	0.001021	7e-06
303.15	0.2997	0.00103	7e-06
303.15	0.3496	0.00104	7e-06
303.15	0.3995	0.00105	7e-06
303.15	0.4497	0.001061	7e-06
303.15	0.4995	0.00107	7e-06
303.15	0.5495	0.00108	7e-06
303.15	0.5995	0.00109	7e-06
303.15	0.6492	0.001102	7e-06
303.15	0.6984	0.001112	7e-06
303.15	0.7488	0.001124	7e-06
303.15	0.7991	0.001134	8e-06
313.15	0	0.000806	6e-06
313.15	0.0503	0.000814	6e-06
313.15	0.1002	0.000823	6e-06
313.15	0.1497	0.000829	6e-06
313.15	0.1996	0.000835	6e-06
313.15	0.2496	0.000843	6e-06
313.15	0.2997	0.000849	6e-06
313.15	0.3496	0.000857	6e-06
313.15	0.3995	0.000864	6e-06
313.15	0.4497	0.000872	6e-06
313.15	0.4995	0.000879	6e-06
313.15	0.5495	0.000888	6e-06
313.15	0.5995	0.000895	6e-06
313.15	0.6492	0.000903	6e-06
313.15	0.6984	0.00091	6e-06
313.15	0.7488	0.000919	6e-06
313.15	0.7991	0.000926	6e-06
323.15	0	0.000672	5e-06
323.15	0.0503	0.00068	5e-06
323.15	0.1002	0.000686	5e-06
323.15	0.1497	0.00069	5e-06
323.15	0.1996	0.000696	5e-06
323.15	0.2496	0.0007	5e-06
323.15	0.2997	0.000707	5e-06
323.15	0.3496	0.000711	5e-06
323.15	0.3995	0.000718	5e-06
323.15	0.4497	0.000723	5e-06
323.15	0.4995	0.000731	5e-06
323.15	0.5495	0.000736	5e-06
323.15	0.5995	0.000742	5e-06
323.15	0.6492	0.000746	5e-06
323.15	0.6984	0.000753	5e-06
323.15	0.7488	0.000758	5e-06
323.15	0.7991	0.000762	5e-06
333.15	0	0.000564	4e-06
333.15	0.0503	0.000569	4e-06
333.15	0.1002	0.000573	4e-06
333.15	0.1497	0.000578	4e-06
333.15	0.1996	0.000582	4e-06
333.15	0.2496	0.000586	4e-06
333.15	0.2997	0.000591	4e-06
333.15	0.3496	0.000595	4e-06
333.15	0.3995	0.0006	4e-06
333.15	0.4497	0.000604	4e-06
333.15	0.4995	0.000609	4e-06
333.15	0.5495	0.000613	4e-06
333.15	0.5995	0.000618	4e-06
333.15	0.6492	0.000622	4e-06
333.15	0.6984	0.000626	4e-06
333.15	0.7488	0.000631	5e-06
333.15	0.7991	0.000636	5e-06

System: propan-1-ol + 2,6-diaminotoluene; phases: Liquid
Fixed: Pressure, kPa = 101
Property: Mass density, kg/m3 (Liquid); method: Vibrating tube method
Temperature, K	Molality, mol/kg of 2,6-diaminotoluene	Mass density, kg/m3	uncertainty
293.15	0	803.86	0.17
293.15	0.0501	805.5	0.17
293.15	0.0997	807.1	0.17
293.15	0.1498	808.7	0.17
293.15	0.1995	810.26	0.17
293.15	0.2499	811.81	0.17
293.15	0.2994	813.34	0.17
293.15	0.3496	814.83	0.17
303.15	0	795.54	0.17
303.15	0.0501	797.18	0.17
303.15	0.0997	798.78	0.17
303.15	0.1498	800.36	0.17
303.15	0.1995	801.92	0.17
303.15	0.2499	803.46	0.17
303.15	0.2994	804.95	0.17
303.15	0.3496	806.45	0.17
313.15	0	787.37	0.17
313.15	0.0501	789	0.17
313.15	0.0997	790.58	0.17
313.15	0.1498	792.16	0.17
313.15	0.1995	793.7	0.17
313.15	0.2499	795.23	0.17
313.15	0.2994	796.73	0.17
313.15	0.3496	798.21	0.17
323.15	0	779.01	0.18
323.15	0.0501	780.63	0.17
323.15	0.0997	782.21	0.17
323.15	0.1498	783.77	0.17
323.15	0.1995	785.32	0.17
323.15	0.2499	786.83	0.17
323.15	0.2994	788.33	0.17
323.15	0.3496	789.79	0.17
333.15	0	770.42	0.18
333.15	0.0501	772.03	0.18
333.15	0.0997	773.6	0.18
333.15	0.1498	775.16	0.18
333.15	0.1995	776.68	0.18
333.15	0.2499	778.21	0.18
333.15	0.2994	779.69	0.18
333.15	0.3496	781.15	0.17

System: propan-1-ol + 2,6-diaminotoluene; phases: Liquid
Fixed: Pressure, kPa = 101
Property: Viscosity, Pa*s (Liquid); method: Capillary tube (Ostwald; Ubbelohde) method
Temperature, K	Molality, mol/kg of 2,6-diaminotoluene	Viscosity, Pa*s	uncertainty
293.15	0	0.002171	1.4e-05
293.15	0.0501	0.00219	1.4e-05
293.15	0.0997	0.002209	1.5e-05
293.15	0.1498	0.002226	1.5e-05
293.15	0.1995	0.002245	1.5e-05
293.15	0.2499	0.002268	1.5e-05
293.15	0.2994	0.002282	1.5e-05
293.15	0.3496	0.002305	1.5e-05
303.15	0	0.001696	1.2e-05
303.15	0.0501	0.001709	1.2e-05
303.15	0.0997	0.00172	1.2e-05
303.15	0.1498	0.001734	1.2e-05
303.15	0.1995	0.001744	1.2e-05
303.15	0.2499	0.001759	1.2e-05
303.15	0.2994	0.00177	1.2e-05
303.15	0.3496	0.001789	1.2e-05
313.15	0	0.001338	9e-06
313.15	0.0501	0.001348	9e-06
313.15	0.0997	0.001355	9e-06
313.15	0.1498	0.001365	9e-06
313.15	0.1995	0.001372	9e-06
313.15	0.2499	0.001383	1e-05
313.15	0.2994	0.001391	1e-05
313.15	0.3496	0.001401	1e-05
323.15	0	0.001067	7e-06
323.15	0.0501	0.001074	8e-06
323.15	0.0997	0.001079	8e-06
323.15	0.1498	0.001086	8e-06
323.15	0.1995	0.001092	8e-06
323.15	0.2499	0.001099	8e-06
323.15	0.2994	0.001106	8e-06
323.15	0.3496	0.001112	8e-06
333.15	0	0.000859	6e-06
333.15	0.0501	0.000864	6e-06
333.15	0.0997	0.000869	6e-06
333.15	0.1498	0.000874	6e-06
333.15	0.1995	0.000878	6e-06
333.15	0.2499	0.000883	6e-06
333.15	0.2994	0.000888	6e-06
333.15	0.3496	0.000893	6e-06

System: butan-1-ol + 2,6-diaminotoluene; phases: Liquid
Fixed: Pressure, kPa = 101
Property: Mass density, kg/m3 (Liquid); method: Vibrating tube method
Temperature, K	Molality, mol/kg of 2,6-diaminotoluene	Mass density, kg/m3	uncertainty
293.15	0	809.69	0.17
293.15	0.05	811.28	0.17
293.15	0.0995	812.81	0.17
293.15	0.1499	814.34	0.17
293.15	0.1994	815.82	0.17
293.15	0.2495	817.27	0.17
303.15	0	802.04	0.17
303.15	0.05	803.61	0.17
303.15	0.0995	805.13	0.17
303.15	0.1499	806.66	0.17
303.15	0.1994	808.13	0.17
303.15	0.2495	809.58	0.17
313.15	0	794.27	0.17
313.15	0.05	795.81	0.17
313.15	0.0995	797.31	0.17
313.15	0.1499	798.81	0.17
313.15	0.1994	800.27	0.17
313.15	0.2495	801.7	0.17
323.15	0	786.32	0.17
323.15	0.05	787.85	0.17
323.15	0.0995	789.34	0.17
323.15	0.1499	790.84	0.17
323.15	0.1994	792.28	0.17
323.15	0.2495	793.7	0.17
333.15	0	778.16	0.17
333.15	0.05	779.68	0.17
333.15	0.0995	781.16	0.17
333.15	0.1499	782.65	0.17
333.15	0.1994	784.08	0.17
333.15	0.2495	785.5	0.17

System: butan-1-ol + 2,6-diaminotoluene; phases: Liquid
Fixed: Pressure, kPa = 101
Property: Viscosity, Pa*s (Liquid); method: Capillary tube (Ostwald; Ubbelohde) method
Temperature, K	Molality, mol/kg of 2,6-diaminotoluene	Viscosity, Pa*s	uncertainty
293.15	0	0.002908	1.9e-05
293.15	0.05	0.002922	1.9e-05
293.15	0.0995	0.002941	1.9e-05
293.15	0.1499	0.00296	1.9e-05
293.15	0.1994	0.002978	2e-05
293.15	0.2495	0.003001	2e-05
303.15	0	0.002225	1.5e-05
303.15	0.05	0.002233	1.5e-05
303.15	0.0995	0.002246	1.5e-05
303.15	0.1499	0.002259	1.5e-05
303.15	0.1994	0.002268	1.5e-05
303.15	0.2495	0.002291	1.6e-05
313.15	0	0.001723	1.2e-05
313.15	0.05	0.001728	1.2e-05
313.15	0.0995	0.001735	1.2e-05
313.15	0.1499	0.001746	1.2e-05
313.15	0.1994	0.001755	1.2e-05
313.15	0.2495	0.001764	1.2e-05
323.15	0	0.001351	9e-06
323.15	0.05	0.001356	9e-06
323.15	0.0995	0.001361	9e-06
323.15	0.1499	0.001368	9e-06
323.15	0.1994	0.001374	9e-06
323.15	0.2495	0.001379	1e-05
333.15	0	0.001071	8e-06
333.15	0.05	0.001075	8e-06
333.15	0.0995	0.001078	8e-06
333.15	0.1499	0.001085	8e-06
333.15	0.1994	0.001087	8e-06
333.15	0.2495	0.001093	8e-06
