Measured thermophysical data. Speed of Sound, Density, and Derivative Properties of Ethyl Myristate, Methyl Myristate, and Methyl Palmitate under High Pressure
Source: J. Chem. Eng. Data, 2013, 10.1021/je400122k
Compound 1: ethyl tetradecanoate, C16H32O2, InChI=1S/C16H32O2/c1-3-5-6-7-8-9-10-11-12-13-14-15-16(17)18-4-2/h3-15H2,1-2H3, purity 99%
Compound 2: methyl tetradecanoate, C15H30O2, InChI=1S/C15H30O2/c1-3-4-5-6-7-8-9-10-11-12-13-14-15(16)17-2/h3-14H2,1-2H3, purity 99%
Compound 3: methyl hexadecanoate, C17H34O2, InChI=1S/C17H34O2/c1-3-4-5-6-7-8-9-10-11-12-13-14-15-16-17(18)19-2/h3-16H2,1-2H3, purity 99%

System: ethyl tetradecanoate; phases: Liquid
Property: Speed of sound, m/s (Liquid); method: Pulse-echo method
Pressure, kPa	Temperature, K	Speed of sound, m/s	uncertainty
100	293.15	1360.6	5.6
10000	293.15	1408	5.8
20000	293.15	1453.3	6
30000	293.15	1494.5	6.1
40000	293.15	1533.5	6.3
50000	293.15	1568.2	6.4
100	303.15	1321.8	5.5
10000	303.15	1370.9	5.7
20000	303.15	1416.8	5.8
30000	303.15	1460.6	6
40000	303.15	1500.8	6.2
50000	303.15	1539.9	6.3
100	323.15	1251.8	5.2
10000	323.15	1304.5	5.4
20000	323.15	1353.4	5.6
30000	323.15	1398.6	5.8
40000	323.15	1441.1	5.9
50000	323.15	1482.4	6.1
60000	323.15	1519.7	6.2
70000	323.15	1555.8	6.4
80000	323.15	1590.8	6.5
90000	323.15	1624.6	6.6
100000	323.15	1655.7	6.8
100	343.15	1184.7	4.9
10000	343.15	1241.3	5.1
20000	343.15	1293	5.3
30000	343.15	1341.9	5.5
40000	343.15	1386.7	5.7
50000	343.15	1428.8	5.9
60000	343.15	1468.1	6
70000	343.15	1506.4	6.2
80000	343.15	1541.9	6.3
90000	343.15	1576.2	6.4
100000	343.15	1609.1	6.6
100	363.15	1120	4.7
10000	363.15	1181.8	4.9
20000	363.15	1236.4	5.1
30000	363.15	1287.1	5.3
40000	363.15	1334.2	5.5
50000	363.15	1377.5	5.7
60000	363.15	1418.8	5.8
70000	363.15	1457.6	6
80000	363.15	1495.5	6.1
90000	363.15	1531	6.3
100000	363.15	1564.6	6.4
100	383.15	1056.9	4.4
10000	383.15	1122.3	4.7
20000	383.15	1181.7	4.9
30000	383.15	1235.6	5.1
40000	383.15	1284.7	5.3
50000	383.15	1330.3	5.5
60000	383.15	1372.3	5.6
70000	383.15	1412.6	5.8
80000	383.15	1450.4	5.9
90000	383.15	1486.9	6.1
100000	383.15	1521.7	6.2
100	403.15	996.1	4.2
10000	403.15	1067.2	4.5
20000	403.15	1130.3	4.7
30000	403.15	1186.1	4.9
40000	403.15	1237.3	5.1
50000	403.15	1284.9	5.3
60000	403.15	1327.9	5.5
70000	403.15	1370	5.6
80000	403.15	1409.7	5.8
90000	403.15	1447.5	5.9
100000	403.15	1483.2	6.1

System: ethyl tetradecanoate; phases: Liquid
Property: Mass density, kg/m3 (Liquid); method: Vibrating tube method
Pressure, kPa	Temperature, K	Mass density, kg/m3	uncertainty
101.3	293.15	861	1
10000	293.15	867.5	1
20000	293.15	873.2	1.1
30000	293.15	878.7	1.1
40000	293.15	883.8	1.1
50000	293.15	888.7	1.1
60000	293.15	893.6	1.1
101.3	353.15	815.6	1
10000	353.15	823.9	1
20000	353.15	831.8	1.1
30000	353.15	838.7	1.1
40000	353.15	845	1.1
50000	353.15	850.8	1.1
60000	353.15	856.4	1.1
70000	353.15	861.8	1.2
80000	353.15	866.9	1.2
90000	353.15	871.8	1.2
100000	353.15	876.4	1.2
101.3	303.15	853.3	1
10000	303.15	860.2	1
20000	303.15	866.2	1.1
30000	303.15	871.9	1.1
40000	303.15	877.3	1.1
50000	303.15	882.2	1.1
60000	303.15	887	1.1
70000	303.15	891.7	1.1
80000	303.15	896	1.1
90000	303.15	900.3	1.1
100000	303.15	904.4	1.1
101.3	363.15	808.4	1
10000	363.15	816.6	1
20000	363.15	824.6	1.1
30000	363.15	831.8	1.1
40000	363.15	838.6	1.1
50000	363.15	845	1.1
60000	363.15	850.6	1.1
70000	363.15	856.1	1.2
80000	363.15	861.3	1.2
90000	363.15	866.3	1.2
100000	363.15	871.1	1.2
101.3	313.15	845.6	1
10000	313.15	852.7	1
20000	313.15	859	1.1
30000	313.15	864.9	1.1
40000	313.15	870.5	1.1
50000	313.15	875.7	1.1
60000	313.15	880.8	1.1
70000	313.15	885.5	1.1
80000	313.15	890.8	1.1
90000	313.15	894.9	1.1
100000	313.15	899.1	1.2
101.3	373.15	800.1	1
10000	373.15	809.9	1.1
20000	373.15	817.9	1.1
30000	373.15	825.5	1.1
40000	373.15	832.4	1.1
50000	373.15	838.8	1.1
60000	373.15	844.9	1.1
70000	373.15	850.6	1.2
80000	373.15	856.2	1.2
90000	373.15	861.3	1.2
100000	373.15	866.1	1.2
101.3	323.15	838.5	1
10000	323.15	845.4	1
20000	323.15	852	1.1
30000	323.15	858.2	1.1
40000	323.15	863.9	1.1
50000	323.15	869.2	1.1
60000	323.15	874.7	1.1
70000	323.15	879.8	1.1
80000	323.15	884.5	1.1
90000	323.15	888.9	1.2
100000	323.15	893.1	1.2
101.3	383.15	792.1	1
10000	383.15	802.1	1.1
20000	383.15	810.7	1.1
30000	383.15	818.5	1.1
40000	383.15	825.9	1.1
50000	383.15	832.5	1.1
60000	383.15	838.9	1.2
70000	383.15	845	1.2
80000	383.15	850.5	1.2
90000	383.15	855.9	1.2
100000	383.15	861	1.2
101.3	333.15	830.6	1
10000	333.15	838	1
20000	333.15	844.9	1.1
30000	333.15	851.3	1.1
40000	333.15	857.2	1.1
50000	333.15	862.9	1.1
60000	333.15	868.2	1.1
70000	333.15	874	1.1
80000	333.15	878	1.2
90000	333.15	883.4	1.2
100000	333.15	888	1.2
101.3	393.15	784.5	1
10000	393.15	794.6	1.1
20000	393.15	803.7	1.1
30000	393.15	812	1.1
40000	393.15	819.5	1.1
50000	393.15	826.4	1.1
60000	393.15	832.9	1.2
70000	393.15	839.8	1.2
80000	393.15	845.6	1.2
90000	393.15	851	1.2
100000	393.15	855.6	1.2
101.3	343.15	823.2	1
10000	343.15	831.1	1
20000	343.15	838.6	1.1
30000	343.15	845.2	1.1
40000	343.15	851.3	1.1
50000	343.15	857.1	1.1
60000	343.15	862.5	1.1
70000	343.15	867.7	1.1
80000	343.15	872.8	1.2
90000	343.15	877.5	1.2
100000	343.15	882.1	1.2

System: methyl tetradecanoate; phases: Liquid
Property: Speed of sound, m/s (Liquid); method: Pulse-echo method
Pressure, kPa	Temperature, K	Speed of sound, m/s	uncertainty
100	303.15	1335.8	5.5
10000	303.15	1382.9	5.7
20000	303.15	1426.9	5.9
30000	303.15	1468.1	6
40000	303.15	1507.6	6.2
50000	303.15	1544.9	6.3
60000	303.15	1580.2	6.5
70000	303.15	1614.2	6.6
100	323.15	1264	5.2
10000	323.15	1316.4	5.4
20000	323.15	1364.8	5.6
30000	323.15	1409.6	5.8
40000	323.15	1451.9	6
50000	323.15	1492.5	6.1
60000	323.15	1530.5	6.3
70000	323.15	1566.8	6.4
80000	323.15	1601.2	6.5
100	343.15	1195.7	5
10000	343.15	1251.2	5.2
20000	343.15	1302.9	5.4
30000	343.15	1350.8	5.6
40000	343.15	1396	5.7
50000	343.15	1437.4	5.9
60000	343.15	1477.5	6.1
70000	343.15	1515	6.2
80000	343.15	1550.8	6.3
100	363.15	1130.9	4.7
10000	363.15	1190.4	4.9
20000	363.15	1245.2	5.1
30000	363.15	1295.9	5.3
40000	363.15	1342.5	5.5
50000	363.15	1385.7	5.7
60000	363.15	1426.7	5.9
70000	363.15	1465.5	6
80000	363.15	1502.6	6.1
100	383.15	1066.7	4.5
10000	383.15	1131.3	4.7
20000	383.15	1189.6	4.9
30000	383.15	1242.9	5.1
40000	383.15	1291.7	5.3
50000	383.15	1338	5.5
60000	383.15	1380.3	5.7
70000	383.15	1420.4	5.8
80000	383.15	1457.6	6
100	393.15	1036.2	4.3
10000	393.15	1103.6	4.6
20000	393.15	1163.5	4.8
30000	393.15	1217.8	5
40000	393.15	1267.7	5.2
50000	393.15	1314.4	5.4
60000	393.15	1357.8	5.6
70000	393.15	1397.8	5.7
80000	393.15	1436.8	5.9

System: methyl tetradecanoate; phases: Liquid
Property: Mass density, kg/m3 (Liquid); method: Vibrating tube method
Pressure, kPa	Temperature, K	Mass density, kg/m3	uncertainty
101.3	303.15	859.7	1
10000	303.15	866.3	1
20000	303.15	872.4	1.1
30000	303.15	878.2	1.1
40000	303.15	883.7	1.1
50000	303.15	888.9	1.1
60000	303.15	893.8	1.1
70000	303.15	898.5	1.1
101.3	363.15	812.6	1
10000	363.15	821.2	1
20000	363.15	829.2	1.1
30000	363.15	836.6	1.1
40000	363.15	843.4	1.1
50000	363.15	849.7	1.1
60000	363.15	855.6	1.1
70000	363.15	861.2	1.2
80000	363.15	866.6	1.2
101.3	343.15	827.9	1
10000	343.15	835.7	1
20000	343.15	843.1	1.1
30000	343.15	849.8	1.1
40000	343.15	856.2	1.1
50000	343.15	862.1	1.1
60000	343.15	867.7	1.1
70000	343.15	873	1.1
80000	343.15	878	1.2
101.3	323.15	843.3	1
10000	323.15	850.5	1
20000	323.15	857.2	1.1
30000	323.15	863.5	1.1
40000	323.15	869.4	1.1
50000	323.15	874.9	1.1
60000	323.15	880.2	1.1
70000	323.15	885.2	1.1
80000	323.15	889.9	1.1
101.3	383.15	796.4	1
10000	383.15	806.3	1.1
20000	383.15	815.1	1.1
30000	383.15	823	1.1
40000	383.15	830.3	1.1
50000	383.15	837.1	1.1
60000	383.15	843.4	1.1
70000	383.15	849.3	1.2
80000	383.15	854.9	1.2
101.3	313.15	851.6	1
10000	313.15	858.2	1
20000	313.15	864.7	1.1
30000	313.15	870.7	1.1
40000	313.15	876.4	1.1
50000	313.15	881.7	1.1
60000	313.15	886.8	1.1
70000	313.15	891.7	1.1
80000	313.15	896.3	1.1
101.3	373.15	804.6	1
10000	373.15	813.9	1.1
20000	373.15	822.2	1.1
30000	373.15	829.9	1.1
40000	373.15	836.9	1.1
50000	373.15	843.5	1.1
60000	373.15	849.6	1.1
70000	373.15	855.3	1.2
80000	373.15	860.8	1.2
101.3	353.15	820.2	1
10000	353.15	828.5	1
20000	353.15	836.1	1.1
30000	353.15	843.2	1.1
40000	353.15	849.8	1.1
50000	353.15	855.9	1.1
60000	353.15	861.6	1.1
70000	353.15	867.1	1.1
80000	353.15	872.3	1.2
101.3	333.15	835.2	1
10000	333.15	843	1
20000	333.15	850.1	1.1
30000	333.15	856.6	1.1
40000	333.15	862.7	1.1
50000	333.15	868.4	1.1
60000	333.15	873.8	1.1
70000	333.15	879	1.1
80000	333.15	883.9	1.1
101.3	393.15	788.5	1
10000	393.15	798.6	1.1
20000	393.15	807.7	1.1
30000	393.15	815.9	1.1
40000	393.15	823.5	1.1
50000	393.15	830.5	1.1
60000	393.15	837	1.2
70000	393.15	843.1	1.2
80000	393.15	848.8	1.2

System: methyl hexadecanoate; phases: Liquid
Property: Speed of sound, m/s (Liquid); method: Pulse-echo method
Pressure, kPa	Temperature, K	Speed of sound, m/s	uncertainty
100	313.15	1317.2	5.4
10000	313.15	1365.4	5.6
20000	313.15	1411.5	5.8
30000	313.15	1454.4	6
40000	313.15	1494.8	6.1
100	323.15	1283.4	5.3
10000	323.15	1333.7	5.5
20000	323.15	1381.1	5.7
30000	323.15	1425.2	5.9
40000	323.15	1467.4	6
50000	323.15	1506.9	6.2
100	343.15	1215.3	5
10000	343.15	1270.1	5.3
20000	343.15	1319.7	5.4
30000	343.15	1366.8	5.6
40000	343.15	1410.5	5.8
50000	343.15	1450.6	5.9
100	363.15	1150.1	4.8
10000	363.15	1208.9	5
20000	363.15	1262.5	5.2
30000	363.15	1311.1	5.4
40000	363.15	1355.7	5.6
50000	363.15	1400.9	5.7
100	383.15	1087.2	4.5
10000	383.15	1150.3	4.8
20000	383.15	1207.5	5
30000	383.15	1259.3	5.2
40000	383.15	1310.8	5.4
50000	383.15	1358.3	5.6
100	393.15	1056.9	4.4
10000	393.15	1121.2	4.7
20000	393.15	1180.4	4.9
30000	393.15	1234.2	5.1
40000	393.15	1284.7	5.3
50000	393.15	1334	5.5

System: methyl hexadecanoate; phases: Liquid
Property: Mass density, kg/m3 (Liquid); method: Vibrating tube method
Pressure, kPa	Temperature, K	Mass density, kg/m3	uncertainty
101.3	313.15	849.9	1
101.3	323.15	842.5	1
101.3	333.15	835.2	1
101.3	343.15	827.8	1
101.3	353.15	820.4	1
101.3	363.15	812.8	1
101.3	373.15	804.6	1
101.3	383.15	797.4	1
10000	333.15	842	1
10000	343.15	835.1	1
10000	313.15	856.3	1
10000	353.15	827.7	1
10000	323.15	849	1
10000	363.15	820.3	1
10000	373.15	813.8	1
10000	383.15	806.8	1.1
20000	333.15	848.7	1.1
20000	353.15	835.1	1.1
20000	313.15	861.8	1.1
20000	363.15	828	1.1
20000	323.15	855.5	1.1
20000	343.15	842	1.1
20000	373.15	821.7	1.1
20000	383.15	815.1	1.1
30000	313.15	867.9	1.1
30000	333.15	854.9	1.1
30000	353.15	841.7	1.1
30000	373.15	829	1.1
30000	323.15	861.4	1.1
30000	343.15	848.5	1.1
30000	363.15	835	1.1
30000	383.15	822.7	1.1
40000	323.15	866.8	1.1
40000	313.15	872.1	1.1
40000	373.15	835.7	1.1
40000	383.15	829.6	1.1
40000	333.15	860.4	1.1
40000	343.15	854.4	1.1
40000	353.15	847.9	1.1
40000	363.15	843.8	1.1
50000	323.15	871.8	1.1
50000	333.15	866.7	1.1
50000	373.15	841.9	1.1
50000	343.15	859.6	1.1
50000	313.15	878.4	1.1
50000	353.15	853.8	1.1
50000	383.15	836.5	1.1
50000	363.15	848.6	1.1
