Measured thermophysical data. Measurement and Correlation of the Vapor Pressure of a Series of a-Pinene Derivatives
Source: J. Chem. Eng. Data, 2014, 10.1021/je400951k
Compound 1: octan-1-ol, C8H18O, InChI=1S/C8H18O/c1-2-3-4-5-6-7-8-9/h9H,2-8H2,1H3, purity 99%
Compound 2: 2,2-dimethyl-3-methylenebicyclo[2.2.1]heptane, C10H16, InChI=1S/C10H16/c1-7-8-4-5-9(6-8)10(7,2)3/h8-9H,1,4-6H2,2-3H3
Compound 3: 1-methyl-4-(1-methylethenyl)cyclohexene, C10H16, InChI=1S/C10H16/c1-8(2)10-6-4-9(3)5-7-10/h4,10H,1,5-7H2,2-3H3, purity 96.8%
Compound 4: rel-(1R,2R,4R)-1,7,7-trimethylbicyclo[2.2.1]heptan-2-yl acetate, C12H20O2, InChI=1S/C12H20O2/c1-8(13)14-10-7-9-5-6-12(10,4)11(9,2)3/h9-10H,5-7H2,1-4H3/t9-,10-,12+/m1/s1
Compound 5: (1RS,2SR,5RS)-2,6,6-trimethylbicyclo[3.1.1]heptane, C10H18, InChI=1S/C10H18/c1-7-4-5-8-6-9(7)10(8,2)3/h7-9H,4-6H2,1-3H3/t7-,8+,9+/m0/s1
Compound 6: 3,7-dimethyl-1,6-octadiene, C10H18, InChI=1S/C10H18/c1-5-10(4)8-6-7-9(2)3/h5,7,10H,1,6,8H2,2-4H3
Compound 7: 2,6-dimethyl-7-octen-2-ol, C10H20O, InChI=1S/C10H20O/c1-5-9(2)7-6-8-10(3,4)11/h5,9,11H,1,6-8H2,2-4H3, purity 99%
Compound 8: water, H2O, InChI=1S/H2O/h1H2, purity 99%

System: octan-1-ol; phases: Liquid, Gas
Property: Vapor or sublimation pressure, kPa (Liquid); method: Closed cell (Static) method
Temperature, K	Vapor or sublimation pressure, kPa	uncertainty
358.05	1.088	0.047
363.99	1.527	0.064
368.73	2.016	0.086
381.98	4.073	0.169
393.36	7.08	0.29
401.09	10.039	0.413
410.79	15.039	0.614
418.15	20.032	0.818
429.75	30.198	1.222

System: 2,2-dimethyl-3-methylenebicyclo[2.2.1]heptane; phases: Metastable liquid, Gas
Property: Vapor or sublimation pressure, kPa (Metastable liquid); method: Closed cell (Static) method
Temperature, K	Vapor or sublimation pressure, kPa	uncertainty
309.7	1.007	0.044
322.72	2.026	0.084
331.06	3.053	0.126
337.27	4.056	0.167
342.04	5.043	0.208
346.21	6.007	0.247
350.07	7.068	0.29
353.23	8.029	0.33
355.98	9.003	0.369
358.83	10.074	0.414
365.69	13.055	0.533
369.58	15.064	0.616
378.51	20.124	0.819
384.98	25.003	1.018
390.65	29.955	1.221
399.95	40.038	1.627
407.61	50.016	2.027

System: 1-methyl-4-(1-methylethenyl)cyclohexene; phases: Liquid, Gas
Property: Vapor or sublimation pressure, kPa (Liquid); method: Closed cell (Static) method
Temperature, K	Vapor or sublimation pressure, kPa	uncertainty
346.96	3.01	0.126
353.19	4.013	0.165
358.22	5.008	0.206
362.25	6.002	0.247
366.08	7.018	0.288
369.31	8.018	0.328
372.54	9.043	0.37
375.27	10.023	0.411
379.93	12.035	0.492
386.12	15.044	0.614
394.56	20.006	0.814
401.29	25.044	1.019
407.1	30.085	1.225
416.21	39.911	1.618
420.21	44.804	1.816

System: rel-(1R,2R,4R)-1,7,7-trimethylbicyclo[2.2.1]heptan-2-yl acetate; phases: Liquid, Gas
Property: Vapor or sublimation pressure, kPa (Liquid); method: Closed cell (Static) method
Temperature, K	Vapor or sublimation pressure, kPa	uncertainty
381.09	2.004	0.084
390.08	3.021	0.124
397.1	4.013	0.164
402.69	5.01	0.205
407.45	6.023	0.246
411.6	7.027	0.287
414.92	8.014	0.326
418.66	9.042	0.367
421.67	10.032	0.407
427.93	12.038	0.488
434.61	15.024	0.61
442.35	19.119	0.775
452.64	26.01	1.051
457.89	30.148	1.219
463.13	35.001	1.415
468.12	40.123	1.621
472.63	45.253	1.826

System: (1RS,2SR,5RS)-2,6,6-trimethylbicyclo[3.1.1]heptane; phases: Liquid, Gas
Property: Vapor or sublimation pressure, kPa (Liquid); method: Closed cell (Static) method
Temperature, K	Vapor or sublimation pressure, kPa	uncertainty
330.27	2.04	0.086
338.5	3.03	0.125
344.71	4.015	0.165
349.8	4.98	0.205
357.77	7.015	0.287
360.94	8.015	0.329
366.78	10.035	0.411
373.45	13.04	0.532
379.03	16.05	0.654
385.72	20.04	0.815
392.24	25.055	1.018
397.94	30.04	1.22
407.54	40.03	1.622
415.01	50.03	2.024

System: 3,7-dimethyl-1,6-octadiene; phases: Liquid, Gas
Property: Vapor or sublimation pressure, kPa (Liquid); method: Closed cell (Static) method
Temperature, K	Vapor or sublimation pressure, kPa	uncertainty
316.5	1.26	0.054
322.57	1.76	0.073
327.44	2.26	0.094
334.96	3.26	0.134
340.66	4.26	0.175
345.44	5.26	0.216
349.51	6.26	0.257
356.16	8.25	0.337
361.68	10.23	0.42
373.78	16.25	0.661
379.02	20.26	0.826
385.62	25.26	1.025
391.11	30.26	1.225

System: 2,6-dimethyl-7-octen-2-ol; phases: Liquid, Gas
Property: Vapor or sublimation pressure, kPa (Liquid); method: Closed cell (Static) method
Temperature, K	Vapor or sublimation pressure, kPa	uncertainty
351.52	0.82	0.036
354.37	1.015	0.044
360.41	1.516	0.064
365.22	2.03	0.086
372.31	3.024	0.126
377.4	4.017	0.167
381.86	5.015	0.208
388.97	7.03	0.289
394.58	9.035	0.37
401.82	12.04	0.491
407.61	15.04	0.614
415.17	20.03	0.815
421.59	25.04	1.015

System: water; phases: Liquid, Gas
Property: Vapor or sublimation pressure, kPa (Liquid); method: Closed cell (Static) method
Temperature, K	Vapor or sublimation pressure, kPa	uncertainty
292.54	2.16	0.096
303.48	4.43	0.183
310.23	6.19	0.257
315.78	8.497	0.352
319.82	10.498	0.438
327.62	15.712	0.646
334.02	20.832	0.855
343.07	30.04	1.22
