Measured thermophysical data. Volumetric Properties of Binary Mixtures of 3-(Methylamino)propylamine with Water, N-Methyldiethanolamine, N,N-Dimethylethanolamine, and N,N-Diethylethanolamine from (283.15 to 363.15) K
Source: J. Chem. Eng. Data, 2013, 10.1021/je400679k
Compound 1: N-methyl-1,3-diaminopropane, C4H12N2, InChI=1S/C4H12N2/c1-6-4-2-3-5/h6H,2-5H2,1H3, purity 98%
Compound 2: N-methyldiethanolamine, C5H13NO2, InChI=1S/C5H13NO2/c1-6(2-4-7)3-5-8/h7-8H,2-5H2,1H3, purity 98%
Compound 3: 2-(N,N-dimethylamino)ethanol, C4H11NO, InChI=1S/C4H11NO/c1-5(2)3-4-6/h6H,3-4H2,1-2H3, purity 99.5%
Compound 4: (diethylamino)ethanol, C6H15NO, InChI=1S/C6H15NO/c1-3-7(4-2)5-6-8/h8H,3-6H2,1-2H3, purity 99%
Compound 5: water, H2O, InChI=1S/H2O/h1H2

System: N-methyl-1,3-diaminopropane; phases: Liquid
Fixed: Pressure, kPa = 101
Property: Mass density, kg/m3 (Liquid); method: Vibrating tube method
Temperature, K	Mass density, kg/m3	uncertainty
283.15	860.459	0.683
293.15	851.605	0.674
303.15	842.69	0.666
313.15	833.715	0.657
323.15	824.673	0.648
333.15	815.559	0.64
343.15	806.37	0.632
353.15	797.093	0.623
363.15	787.723	0.615

System: N-methyldiethanolamine; phases: Liquid
Fixed: Pressure, kPa = 101
Property: Mass density, kg/m3 (Liquid); method: Vibrating tube method
Temperature, K	Mass density, kg/m3	uncertainty
293.15	1040.06	0.919
303.15	1032.468	0.904
313.15	1024.862	0.888
323.15	1017.212	0.872
333.15	1009.506	0.857
343.15	1001.732	0.841
353.15	993.889	0.83
363.15	985.958	0.821

System: 2-(N,N-dimethylamino)ethanol; phases: Liquid
Fixed: Pressure, kPa = 101
Property: Mass density, kg/m3 (Liquid); method: Vibrating tube method
Temperature, K	Mass density, kg/m3	uncertainty
283.15	894.959	0.113
293.15	886.56	0.115
303.15	878.059	0.118
313.15	869.428	0.12
323.15	860.655	0.123
333.15	851.72	0.126
343.15	842.604	0.129
353.15	833.288	0.132
363.15	823.754	0.135

System: (diethylamino)ethanol; phases: Liquid
Fixed: Pressure, kPa = 101
Property: Mass density, kg/m3 (Liquid); method: Vibrating tube method
Temperature, K	Mass density, kg/m3	uncertainty
283.15	894.423	0.231
293.15	885.356	0.231
303.15	876.155	0.232
313.15	866.828	0.232
323.15	857.388	0.233
333.15	847.839	0.233
343.15	838.157	0.234
353.15	828.488	0.235
363.15	818.597	0.236

System: water; phases: Liquid
Fixed: Pressure, kPa = 101
Property: Mass density, kg/m3 (Liquid); method: Vibrating tube method
Temperature, K	Mass density, kg/m3	uncertainty
283.15	999.701	0.033
293.15	998.208	0.034
303.15	995.651	0.035
313.15	992.212	0.037
323.15	988.14	0.039
333.15	983.197	0.041
343.15	977.76	0.043
353.15	971.788	0.046
363.15	965.305	0.048

System: N-methyl-1,3-diaminopropane + water; phases: Liquid
Fixed: Pressure, kPa = 101
Property: Mass density, kg/m3 (Liquid); method: Vibrating tube method
Temperature, K	Mole fraction of N-methyl-1,3-diaminopropane	Mass density, kg/m3	uncertainty
283.15	0	999.701	0.033
283.15	0.0051	998.237	0.103
283.15	0.02	994.774	0.071
283.15	0.04	992.84	0.051
283.15	0.0599	991.664	0.045
283.15	0.08	991.853	0.048
283.15	0.1001	990.982	0.065
283.15	0.1496	985.446	0.09
283.15	0.2001	975.602	0.121
283.15	0.2996	953.237	0.156
283.15	0.4001	932.582	0.2
283.15	0.4995	915.228	0.255
283.15	0.5998	900.588	0.322
283.15	0.6995	888.711	0.399
283.15	0.7976	879.041	0.484
283.15	0.901	869.652	0.582
283.15	1	860.459	0.683
293.15	0	998.208	0.034
293.15	0.0051	996.63	0.113
293.15	0.02	992.593	0.087
293.15	0.04	989.571	0.068
293.15	0.0599	987.189	0.057
293.15	0.08	986.2	0.057
293.15	0.1001	984.3	0.075
293.15	0.1496	977.467	0.097
293.15	0.2001	967.23	0.124
293.15	0.2996	944.826	0.158
293.15	0.4001	924.145	0.201
293.15	0.4995	906.757	0.255
293.15	0.5998	892.069	0.321
293.15	0.6995	880.119	0.396
293.15	0.7976	870.383	0.479
293.15	0.901	860.902	0.576
293.15	1	851.605	0.674
303.15	0	995.651	0.035
303.15	0.0051	993.985	0.125
303.15	0.02	989.479	0.102
303.15	0.04	985.557	0.085
303.15	0.0599	982.161	0.072
303.15	0.08	980.175	0.07
303.15	0.1001	977.4	0.085
303.15	0.1496	969.396	0.104
303.15	0.2001	958.776	0.127
303.15	0.2996	936.29	0.159
303.15	0.4001	915.578	0.202
303.15	0.4995	898.165	0.255
303.15	0.5998	883.427	0.32
303.15	0.6995	871.429	0.393
303.15	0.7976	861.635	0.475
303.15	0.901	852.078	0.569
303.15	1	842.69	0.666
313.15	0	992.212	0.037
313.15	0.0051	990.476	0.135
313.15	0.02	985.566	0.116
313.15	0.04	980.873	0.101
313.15	0.0599	976.614	0.087
313.15	0.08	973.774	0.084
313.15	0.1001	970.258	0.094
313.15	0.1496	961.197	0.109
313.15	0.2001	950.269	0.129
313.15	0.2996	927.601	0.161
313.15	0.4001	906.849	0.203
313.15	0.4995	889.428	0.255
313.15	0.5998	874.666	0.318
313.15	0.6995	862.629	0.391
313.15	0.7976	852.787	0.47
313.15	0.901	843.17	0.563
313.15	1	833.715	0.657
323.15	0	988.14	0.039
323.15	0.0051	986.217	0.146
323.15	0.02	980.949	0.128
323.15	0.04	975.589	0.114
323.15	0.0599	970.587	0.1
323.15	0.08	967.022	0.096
323.15	0.1001	962.871	0.102
323.15	0.1496	952.86	0.115
323.15	0.2001	941.571	0.132
323.15	0.2996	918.738	0.163
323.15	0.4001	897.972	0.204
323.15	0.4995	880.556	0.255
323.15	0.5998	865.773	0.317
323.15	0.6995	853.712	0.388
323.15	0.7976	843.839	0.466
323.15	0.901	834.181	0.556
323.15	1	824.673	0.648
333.15	0	983.197	0.041
333.15	0.0051	981.304	0.152
333.15	0.02	975.762	0.138
333.15	0.04	969.758	0.127
333.15	0.0599	964.115	0.113
333.15	0.08	959.923	0.107
333.15	0.1001	955.236	0.11
333.15	0.1496	944.358	0.121
333.15	0.2001	932.714	0.135
333.15	0.2996	909.696	0.165
333.15	0.4001	888.926	0.205
333.15	0.4995	871.523	0.256
333.15	0.5998	856.742	0.316
333.15	0.6995	844.674	0.385
333.15	0.7976	834.781	0.461
333.15	0.901	825.1	0.55
333.15	1	815.559	0.64
343.15	0	977.76	0.043
343.15	0.0051	975.769	0.162
343.15	0.02	969.886	0.148
343.15	0.04	963.394	0.138
343.15	0.0599	957.198	0.124
343.15	0.08	952.467	0.116
343.15	0.1001	947.339	0.117
343.15	0.1496	935.674	0.126
343.15	0.2001	923.678	0.138
343.15	0.2996	900.476	0.167
343.15	0.4001	879.715	0.206
343.15	0.4995	862.344	0.256
343.15	0.5998	847.577	0.315
343.15	0.6995	835.508	0.383
343.15	0.7976	825.611	0.457
343.15	0.901	815.925	0.544
343.15	1	806.37	0.632
353.15	0	971.788	0.046
353.15	0.0051	969.7	0.17
353.15	0.02	963.52	0.158
353.15	0.04	956.509	0.148
353.15	0.0599	949.885	0.133
353.15	0.08	944.681	0.125
353.15	0.1001	939.185	0.124
353.15	0.1496	926.784	0.131
353.15	0.2001	914.46	0.141
353.15	0.2996	891.074	0.17
353.15	0.4001	870.324	0.208
353.15	0.4995	852.997	0.256
353.15	0.5998	838.26	0.314
353.15	0.6995	826.212	0.38
353.15	0.7976	816.324	0.453
353.15	0.901	806.659	0.538
353.15	1	797.093	0.623
363.15	0	965.305	0.048
363.15	0.0051	963.045	0.18
363.15	0.02	956.663	0.166
363.15	0.04	949.281	0.157
363.15	0.0599	942.172	0.142
363.15	0.08	936.552	0.133
363.15	0.1001	930.768	0.131
363.15	0.1496	917.665	0.136
363.15	0.2001	905.046	0.144
363.15	0.2996	881.47	0.172
363.15	0.4001	860.741	0.209
363.15	0.4995	843.475	0.256
363.15	0.5998	828.782	0.313
363.15	0.6995	816.767	0.378
363.15	0.7976	806.909	0.449
363.15	0.901	797.262	0.531
363.15	1	787.723	0.615

System: N-methyldiethanolamine + N-methyl-1,3-diaminopropane; phases: Liquid
Fixed: Pressure, kPa = 101
Property: Mass density, kg/m3 (Liquid); method: Vibrating tube method
Temperature, K	Mole fraction of N-methyl-1,3-diaminopropane	Mass density, kg/m3	uncertainty
293.15	0	1040.06	0.919
293.15	0.1001	1026.934	0.894
293.15	0.2003	1012.695	0.865
293.15	0.2999	997.588	0.837
293.15	0.3997	981.393	0.818
293.15	0.5	964.134	0.798
293.15	0.5999	944.646	0.777
293.15	0.7001	923.928	0.755
293.15	0.8002	900.759	0.731
293.15	0.9	876.717	0.706
293.15	1	851.605	0.674
303.15	0	1032.468	0.904
303.15	0.1001	1019.313	0.878
303.15	0.2003	1005.007	0.85
303.15	0.2999	989.787	0.828
303.15	0.3997	973.417	0.809
303.15	0.5	956.077	0.789
303.15	0.5999	936.426	0.768
303.15	0.7001	915.36	0.745
303.15	0.8002	892.077	0.721
303.15	0.9	868.035	0.698
303.15	1	842.69	0.666
313.15	0	1024.862	0.888
313.15	0.1001	1011.658	0.863
313.15	0.2003	997.273	0.836
313.15	0.2999	981.94	0.818
313.15	0.3997	965.391	0.799
313.15	0.5	947.946	0.78
313.15	0.5999	928.152	0.759
313.15	0.7001	907.016	0.736
313.15	0.8002	883.714	0.713
313.15	0.9	859.287	0.689
313.15	1	833.715	0.657
323.15	0	1017.212	0.872
323.15	0.1001	1003.953	0.847
323.15	0.2003	989.479	0.827
323.15	0.2999	974.031	0.809
323.15	0.3997	957.394	0.79
323.15	0.5	939.738	0.771
323.15	0.5999	919.85	0.75
323.15	0.7001	898.494	0.728
323.15	0.8002	874.972	0.704
323.15	0.9	850.467	0.681
323.15	1	824.673	0.648
333.15	0	1009.506	0.857
333.15	0.1001	996.181	0.835
333.15	0.2003	981.607	0.818
333.15	0.2999	966.033	0.8
333.15	0.3997	949.272	0.781
333.15	0.5	931.432	0.762
333.15	0.5999	911.414	0.74
333.15	0.7001	889.941	0.719
333.15	0.8002	866.238	0.696
333.15	0.9	841.566	0.672
333.15	1	815.559	0.64
343.15	0	1001.732	0.841
343.15	0.1001	988.342	0.826
343.15	0.2003	973.656	0.808
343.15	0.2999	957.953	0.791
343.15	0.3997	941.042	0.772
343.15	0.5	923.056	0.752
343.15	0.5999	902.895	0.732
343.15	0.7001	881.277	0.71
343.15	0.8002	857.422	0.687
343.15	0.9	832.576	0.664
343.15	1	806.37	0.632
353.15	0	993.889	0.83
353.15	0.1001	980.415	0.816
353.15	0.2003	965.631	0.799
353.15	0.2999	949.783	0.781
353.15	0.3997	932.732	0.763
353.15	0.5	914.593	0.743
353.15	0.5999	894.29	0.723
353.15	0.7001	872.517	0.701
353.15	0.8002	848.523	0.678
353.15	0.9	823.509	0.656
353.15	1	797.093	0.623
363.15	0	985.958	0.821
363.15	0.1001	972.409	0.807
363.15	0.2003	957.499	0.79
363.15	0.2999	941.523	0.772
363.15	0.3997	924.324	0.754
363.15	0.5	906.038	0.735
363.15	0.5999	885.584	0.714
363.15	0.7001	863.668	0.693
363.15	0.8002	839.559	0.67
363.15	0.9	814.342	0.647
363.15	1	787.723	0.615

System: (diethylamino)ethanol + N-methyl-1,3-diaminopropane; phases: Liquid
Fixed: Pressure, kPa = 101
Property: Mass density, kg/m3 (Liquid); method: Vibrating tube method
Temperature, K	Mole fraction of N-methyl-1,3-diaminopropane	Mass density, kg/m3	uncertainty
283.15	0	894.423	0.231
283.15	0.0999	892.458	0.265
283.15	0.2	890.44	0.301
283.15	0.3001	888.023	0.34
283.15	0.3997	885.377	0.382
283.15	0.5	882.338	0.427
283.15	0.5998	878.902	0.474
283.15	0.7001	874.969	0.524
283.15	0.8	870.601	0.575
283.15	0.8996	866.062	0.629
283.15	1	860.459	0.683
293.15	0	885.356	0.231
293.15	0.0999	883.574	0.264
293.15	0.2	881.665	0.3
293.15	0.3001	879.317	0.339
293.15	0.3997	876.712	0.38
293.15	0.5	873.685	0.424
293.15	0.5998	870.252	0.47
293.15	0.7001	866.283	0.519
293.15	0.8	861.885	0.569
293.15	0.8996	857.283	0.621
293.15	1	851.605	0.674
303.15	0	876.155	0.232
303.15	0.0999	874.574	0.264
303.15	0.2	872.785	0.299
303.15	0.3001	870.463	0.337
303.15	0.3997	867.945	0.377
303.15	0.5	864.94	0.42
303.15	0.5998	861.519	0.466
303.15	0.7001	857.522	0.513
303.15	0.8	853.099	0.563
303.15	0.8996	848.439	0.614
303.15	1	842.69	0.666
313.15	0	866.828	0.232
313.15	0.0999	865.456	0.264
313.15	0.2	863.792	0.298
313.15	0.3001	861.601	0.335
313.15	0.3997	859.082	0.375
313.15	0.5	856.105	0.417
313.15	0.5998	852.691	0.461
313.15	0.7001	848.689	0.508
313.15	0.8	844.237	0.556
313.15	0.8996	839.53	0.606
313.15	1	833.715	0.657
323.15	0	857.388	0.233
323.15	0.0999	856.219	0.264
323.15	0.2	854.692	0.297
323.15	0.3001	852.583	0.334
323.15	0.3997	850.12	0.372
323.15	0.5	847.171	0.414
323.15	0.5998	843.77	0.457
323.15	0.7001	839.765	0.503
323.15	0.8	835.289	0.55
323.15	0.8996	830.547	0.599
323.15	1	824.673	0.648
333.15	0	847.839	0.233
333.15	0.0999	846.874	0.263
333.15	0.2	845.474	0.296
333.15	0.3001	843.452	0.332
333.15	0.3997	841.042	0.37
333.15	0.5	838.132	0.41
333.15	0.5998	834.751	0.453
333.15	0.7001	830.75	0.498
333.15	0.8	826.265	0.544
333.15	0.8996	821.487	0.592
333.15	1	815.559	0.64
343.15	0	838.157	0.234
343.15	0.0999	837.416	0.263
343.15	0.2	836.147	0.296
343.15	0.3001	834.206	0.33
343.15	0.3997	831.853	0.367
343.15	0.5	828.978	0.407
343.15	0.5998	825.629	0.449
343.15	0.7001	821.629	0.493
343.15	0.8	817.142	0.538
343.15	0.8996	812.342	0.584
343.15	1	806.37	0.632
353.15	0	828.488	0.235
353.15	0.0999	827.843	0.263
353.15	0.2	826.695	0.295
353.15	0.3001	824.829	0.329
353.15	0.3997	822.533	0.365
353.15	0.5	819.712	0.404
353.15	0.5998	816.396	0.445
353.15	0.7001	812.413	0.488
353.15	0.8	807.931	0.532
353.15	0.8996	803.118	0.577
353.15	1	797.093	0.623
363.15	0	818.597	0.236
363.15	0.0999	818.122	0.264
363.15	0.2	817.116	0.294
363.15	0.3001	815.306	0.328
363.15	0.3997	813.074	0.363
363.15	0.5	810.325	0.401
363.15	0.5998	807.063	0.441
363.15	0.7001	803.095	0.483
363.15	0.8	798.611	0.526
363.15	0.8996	793.772	0.57
363.15	1	787.723	0.615

System: 2-(N,N-dimethylamino)ethanol + N-methyl-1,3-diaminopropane; phases: Liquid
Fixed: Pressure, kPa = 101
Property: Mass density, kg/m3 (Liquid); method: Vibrating tube method
Temperature, K	Mole fraction of N-methyl-1,3-diaminopropane	Mass density, kg/m3	uncertainty
283.15	0	894.959	0.113
283.15	0.0998	893.869	0.14
283.15	0.2	892.03	0.174
283.15	0.3001	889.578	0.216
283.15	0.4	886.723	0.264
283.15	0.4997	883.31	0.319
283.15	0.5993	879.367	0.38
283.15	0.6999	875.276	0.448
283.15	0.799	871.091	0.521
283.15	0.9	866.659	0.6
283.15	1	860.459	0.683
293.15	0	886.56	0.115
293.15	0.0998	885.469	0.142
293.15	0.2	883.599	0.176
293.15	0.3001	881.113	0.217
293.15	0.4	878.225	0.264
293.15	0.4997	874.783	0.318
293.15	0.5993	870.8	0.378
293.15	0.6999	866.663	0.444
293.15	0.799	862.415	0.515
293.15	0.9	857.904	0.594
293.15	1	851.605	0.674
303.15	0	878.059	0.118
303.15	0.0998	876.968	0.144
303.15	0.2	875.071	0.177
303.15	0.3001	872.551	0.217
303.15	0.4	869.634	0.264
303.15	0.4997	866.166	0.317
303.15	0.5993	862.148	0.375
303.15	0.6999	857.97	0.44
303.15	0.799	853.666	0.51
303.15	0.9	849.087	0.587
303.15	1	842.69	0.666
313.15	0	869.428	0.12
313.15	0.0998	868.337	0.146
313.15	0.2	866.42	0.179
313.15	0.3001	863.872	0.218
313.15	0.4	860.932	0.264
313.15	0.4997	857.442	0.316
313.15	0.5993	853.398	0.373
313.15	0.6999	849.183	0.437
313.15	0.799	844.832	0.505
313.15	0.9	840.193	0.58
313.15	1	833.715	0.657
323.15	0	860.655	0.123
323.15	0.0998	859.574	0.148
323.15	0.2	857.639	0.18
323.15	0.3001	855.069	0.219
323.15	0.4	852.112	0.264
323.15	0.4997	848.606	0.314
323.15	0.5993	844.543	0.371
323.15	0.6999	840.3	0.433
323.15	0.799	835.912	0.5
323.15	0.9	831.218	0.573
323.15	1	824.673	0.648
333.15	0	851.72	0.126
333.15	0.0998	850.654	0.151
333.15	0.2	848.712	0.182
333.15	0.3001	846.131	0.22
333.15	0.4	843.164	0.264
333.15	0.4997	839.647	0.313
333.15	0.5993	835.571	0.368
333.15	0.6999	831.314	0.429
333.15	0.799	826.896	0.495
333.15	0.9	822.163	0.566
333.15	1	815.559	0.64
343.15	0	842.604	0.129
343.15	0.0998	841.562	0.153
343.15	0.2	839.622	0.184
343.15	0.3001	837.042	0.221
343.15	0.4	834.073	0.264
343.15	0.4997	830.555	0.312
343.15	0.5993	826.477	0.366
343.15	0.6999	822.212	0.426
343.15	0.799	817.78	0.49
343.15	0.9	813.022	0.56
343.15	1	806.37	0.632
353.15	0	833.288	0.132
353.15	0.0998	832.286	0.155
353.15	0.2	830.357	0.186
353.15	0.3001	827.791	0.222
353.15	0.4	824.83	0.264
353.15	0.4997	821.322	0.311
353.15	0.5993	817.252	0.364
353.15	0.6999	812.995	0.422
353.15	0.799	808.563	0.485
353.15	0.9	803.789	0.553
353.15	1	797.093	0.623
363.15	0	823.754	0.135
363.15	0.0998	822.801	0.158
363.15	0.2	820.903	0.187
363.15	0.3001	818.354	0.223
363.15	0.4	815.413	0.264
363.15	0.4997	811.93	0.31
363.15	0.5993	807.876	0.362
363.15	0.6999	803.636	0.419
363.15	0.799	799.198	0.48
363.15	0.9	794.432	0.547
363.15	1	787.723	0.615
