Measured thermophysical data. Solubilities of 4-(Hydroxymethyl)-1-oxido-2,6,7-trioxa-1-phosphabicyclo[2.2.2]octane in Organic Solvents
Source: J. Chem. Eng. Data, 2014, 10.1021/je4009816
Compound 1: 4-(hydroxymethyl)-1-oxido-2,6,7-trioxa-1-phosphabicyclo[2.2.2]octane, C5H9O5P, InChI=1S/C5H9O5P/c6-1-5-2-8-11(7,9-3-5)10-4-5/h6H,1-4H2, purity 99%
Compound 2: methanol, CH4O, InChI=1S/CH4O/c1-2/h2H,1H3, purity 99.5%
Compound 3: acetone, C3H6O, InChI=1S/C3H6O/c1-3(2)4/h1-2H3, purity 99.5%
Compound 4: acetonitrile, C2H3N, InChI=1S/C2H3N/c1-2-3/h1H3, purity 99%
Compound 5: ethanol, C2H6O, InChI=1S/C2H6O/c1-2-3/h3H,2H2,1H3, purity 99.7%
Compound 6: trichloromethane, CHCl3, InChI=1S/CHCl3/c2-1(3)4/h1H, purity 99.5%
Compound 7: ethyl acetate, C4H8O2, InChI=1S/C4H8O2/c1-3-6-4(2)5/h3H2,1-2H3, purity 99.5%
Compound 8: propan-2-ol, C3H8O, InChI=1S/C3H8O/c1-3(2)4/h3-4H,1-2H3, purity 99.5%
Compound 9: propan-1-ol, C3H8O, InChI=1S/C3H8O/c1-2-3-4/h4H,2-3H2,1H3, purity 99.5%

System: 4-(hydroxymethyl)-1-oxido-2,6,7-trioxa-1-phosphabicyclo[2.2.2]octane; phases: Crystal, Liquid, Air at 1 atmosphere
Property: Normal melting temperature, K (Crystal); method: DTA
Normal melting temperature, K	uncertainty
485.29	0.5

System: 4-(hydroxymethyl)-1-oxido-2,6,7-trioxa-1-phosphabicyclo[2.2.2]octane; phases: Crystal, Liquid, Air at 1 atmosphere
Property: Molar enthalpy of transition or fusion, kJ/mol (Crystal); method: DSC
Molar enthalpy of transition or fusion, kJ/mol	uncertainty
29.5	0.8

System: ethyl acetate + 4-(hydroxymethyl)-1-oxido-2,6,7-trioxa-1-phosphabicyclo[2.2.2]octane; phases: Liquid, Crystal
Fixed: Pressure, kPa = 101
Property: Mole fraction of 4-(hydroxymethyl)-1-oxido-2,6,7-trioxa-1-phosphabicyclo[2.2.2]octane (Liquid); method: Gravimetric
Temperature, K	Mole fraction of 4-(hydroxymethyl)-1-oxido-2,6,7-trioxa-1-phosphabicyclo[2.2.2]octane	uncertainty
293.25	0.00092	2e-05
298.75	0.00135	3e-05
303.95	0.00187	4e-05
308.85	0.00248	5e-05
313.45	0.0033	7e-05
318.25	0.00441	9e-05
323.65	0.00601	0.00012
328.55	0.0078	0.00016
333.45	0.01011	0.0002

System: acetonitrile + 4-(hydroxymethyl)-1-oxido-2,6,7-trioxa-1-phosphabicyclo[2.2.2]octane; phases: Liquid, Crystal
Fixed: Pressure, kPa = 101
Property: Mole fraction of 4-(hydroxymethyl)-1-oxido-2,6,7-trioxa-1-phosphabicyclo[2.2.2]octane (Liquid); method: Gravimetric
Temperature, K	Mole fraction of 4-(hydroxymethyl)-1-oxido-2,6,7-trioxa-1-phosphabicyclo[2.2.2]octane	uncertainty
293.35	0.0095	0.00019
298.55	0.0098	0.0002
303.45	0.01006	0.0002
308.35	0.01034	0.00021
312.95	0.0106	0.00021
318.25	0.01089	0.00022
323.85	0.01119	0.00023
328.35	0.01141	0.00023
333.15	0.0117	0.00024

System: propan-2-ol + 4-(hydroxymethyl)-1-oxido-2,6,7-trioxa-1-phosphabicyclo[2.2.2]octane; phases: Liquid, Crystal
Fixed: Pressure, kPa = 101
Property: Mole fraction of 4-(hydroxymethyl)-1-oxido-2,6,7-trioxa-1-phosphabicyclo[2.2.2]octane (Liquid); method: Gravimetric
Temperature, K	Mole fraction of 4-(hydroxymethyl)-1-oxido-2,6,7-trioxa-1-phosphabicyclo[2.2.2]octane	uncertainty
292.95	0.0024	5e-05
298.75	0.00316	6e-05
303.55	0.00396	8e-05
307.95	0.00489	0.0001
312.75	0.0061	0.00012
318.45	0.0077	0.00016
323.35	0.00953	0.00019
328.85	0.01203	0.00024
333.25	0.0143	0.00029

System: ethanol + 4-(hydroxymethyl)-1-oxido-2,6,7-trioxa-1-phosphabicyclo[2.2.2]octane; phases: Liquid, Crystal
Fixed: Pressure, kPa = 101
Property: Mole fraction of 4-(hydroxymethyl)-1-oxido-2,6,7-trioxa-1-phosphabicyclo[2.2.2]octane (Liquid); method: Gravimetric
Temperature, K	Mole fraction of 4-(hydroxymethyl)-1-oxido-2,6,7-trioxa-1-phosphabicyclo[2.2.2]octane	uncertainty
292.85	0.00562	0.00011
298.45	0.00675	0.00014
303.75	0.00798	0.00016
308.65	0.00942	0.00019
312.85	0.01068	0.00022
318.25	0.01243	0.00025
323.55	0.01447	0.00029
328.45	0.01641	0.00033
333.65	0.01899	0.00038

System: propan-1-ol + 4-(hydroxymethyl)-1-oxido-2,6,7-trioxa-1-phosphabicyclo[2.2.2]octane; phases: Liquid, Crystal
Fixed: Pressure, kPa = 101
Property: Mole fraction of 4-(hydroxymethyl)-1-oxido-2,6,7-trioxa-1-phosphabicyclo[2.2.2]octane (Liquid); method: Gravimetric
Temperature, K	Mole fraction of 4-(hydroxymethyl)-1-oxido-2,6,7-trioxa-1-phosphabicyclo[2.2.2]octane	uncertainty
293.85	0.002	0.0001
298.45	0.0025	5e-05
302.75	0.00312	6e-05
308.25	0.00408	8e-05
312.95	0.00508	0.0001
318.55	0.00652	0.00013
323.55	0.00823	0.00017
328.35	0.01011	0.0002
333.25	0.01249	0.00025

System: acetone + 4-(hydroxymethyl)-1-oxido-2,6,7-trioxa-1-phosphabicyclo[2.2.2]octane; phases: Liquid, Crystal
Fixed: Pressure, kPa = 101
Property: Mole fraction of 4-(hydroxymethyl)-1-oxido-2,6,7-trioxa-1-phosphabicyclo[2.2.2]octane (Liquid); method: Gravimetric
Temperature, K	Mole fraction of 4-(hydroxymethyl)-1-oxido-2,6,7-trioxa-1-phosphabicyclo[2.2.2]octane	uncertainty
293.85	0.00887	0.00018
298.95	0.0101	0.0002
303.25	0.01122	0.00023
308.55	0.01267	0.00026
313.85	0.01436	0.00029
318.55	0.01593	0.00032
323.75	0.01786	0.00036

System: methanol + 4-(hydroxymethyl)-1-oxido-2,6,7-trioxa-1-phosphabicyclo[2.2.2]octane; phases: Liquid, Crystal
Fixed: Pressure, kPa = 101
Property: Mole fraction of 4-(hydroxymethyl)-1-oxido-2,6,7-trioxa-1-phosphabicyclo[2.2.2]octane (Liquid); method: Gravimetric
Temperature, K	Mole fraction of 4-(hydroxymethyl)-1-oxido-2,6,7-trioxa-1-phosphabicyclo[2.2.2]octane	uncertainty
292.75	0.0146	0.00029
297.85	0.01628	0.00033
303.35	0.01833	0.00037
307.85	0.0201	0.0004
313.05	0.02224	0.00045
318.55	0.02478	0.0005
323.65	0.02704	0.00054

System: trichloromethane + 4-(hydroxymethyl)-1-oxido-2,6,7-trioxa-1-phosphabicyclo[2.2.2]octane; phases: Liquid, Crystal
Fixed: Pressure, kPa = 101
Property: Mole fraction of 4-(hydroxymethyl)-1-oxido-2,6,7-trioxa-1-phosphabicyclo[2.2.2]octane (Liquid); method: Gravimetric
Temperature, K	Mole fraction of 4-(hydroxymethyl)-1-oxido-2,6,7-trioxa-1-phosphabicyclo[2.2.2]octane	uncertainty
293.85	0.00082	2e-05
298.85	0.0009	2e-05
303.65	0.00099	2e-05
308.55	0.00109	2e-05
312.95	0.00118	2e-05
318.85	0.00131	3e-05
323.75	0.00142	3e-05
