Measured thermophysical data. Experimental Study of Saturated Pressure Measurements for 2,3,3,3-Tetrafluoropropene (HFO-1234yf) and 2-Chloro-1,1,1,2-Tetrafluoropropane (HCFC-244bb)
Source: J. Chem. Eng. Data, 2014, 10.1021/je400970y
Compound 1: 2,3,3,3-tetrafluoro-1-propene, C3H2F4, InChI=1S/C3H2F4/c1-2(4)3(5,6)7/h1H2, purity 99.9%
Compound 2: 2-chloro-1,1,1,2-tetrafluoropropane, C3H3ClF4, InChI=1S/C3H3ClF4/c1-2(4,5)3(6,7)8/h1H3, purity 99.5%

System: 2,3,3,3-tetrafluoro-1-propene; phases: Liquid, Gas
Property: Vapor or sublimation pressure, kPa (Liquid); method: Closed cell (Static) method
Temperature, K	Vapor or sublimation pressure, kPa	uncertainty
248.17	123.1	3
251.18	138.8	3
254.21	156.9	3
258.2	184.3	3
260.18	198.3	3
262.18	213.8	3
264.2	229.9	3
266.25	248.1	3
270.26	286	3.1
271.16	295.3	3.1
273.21	316.5	3.1
275.22	338.2	3.1
277.22	361.5	3.1
279.14	385.1	3.1
281.23	411.4	3.1
285.18	466.2	3.1
287.22	496.4	3.1
289.22	526.7	3.2
291.22	558.8	3.2
293.25	593.4	3.2
295.25	627.9	3.2
297.55	672.2	3.2
299.19	703	3.3
301.32	746.2	3.3
303.25	786.5	3.3
305.11	825.8	3.3
306.31	852.9	3.4
309.51	927.9	3.4
311.49	976.6	3.5
313.43	1026.2	3.5
315.55	1082.8	3.5
317.23	1128.4	3.6
319.14	1182.9	3.6
321.02	1237.8	3.7
323.79	1322.3	3.8
325.56	1380	3.8
326.82	1420.8	3.9
328.86	1490.2	3.9
330.87	1560.1	4
332.97	1635.8	4.1
334.99	1711.2	4.2
336.99	1788.7	4.2
338.97	1868.1	4.3
341.06	1955.5	4.4
343.04	2040.1	4.5
345.05	2129.1	4.6
347.06	2221.2	4.7
349.05	2315.9	4.9
351.03	2412.1	5
353.08	2516.4	5.1
355.03	2618.5	5.2
357.23	2738.3	5.4
359.34	2856.6	5.5
361.05	2955.2	5.7

System: 2-chloro-1,1,1,2-tetrafluoropropane; phases: Liquid, Gas
Property: Vapor or sublimation pressure, kPa (Liquid); method: Closed cell (Static) method
Temperature, K	Vapor or sublimation pressure, kPa	uncertainty
268.19	49.7	3
270.19	54.4	3
273.18	60.5	3
275.18	66.4	3
278.16	74.3	3
281.15	83.9	3
283.12	88.9	3
286.13	100.5	3
288.11	106.5	3
290.12	116	3
292.13	124.6	3
295.09	138.2	3
298.12	151.8	3
300.09	163.5	3
302.11	175.3	3
304.25	185.9	3
307.02	203.2	3
308.9	215.2	3
310.68	227.6	3
313.35	247.9	3
315.28	261.8	3
318.34	286.5	3.1
320.84	307.9	3.1
324.02	334.9	3.1
325.63	351.9	3.1
328.81	382.6	3.1
330.46	401.6	3.1
333.63	435.9	3.1
335.25	456.6	3.1
338.51	495.5	3.1
339.67	510.3	3.1
341.68	536.4	3.2
343.28	559.6	3.2
345.27	588.1	3.2
347.07	615.8	3.2
349.07	645.9	3.2
