Measured thermophysical data. Effect of Counterions on Micellization of Pyrrolidinium Based Silicone Ionic Liquids in Aqueous Solutions
Source: J. Chem. Eng. Data, 2014, 10.1021/je401118k
Compound 1: 1-(3-(1,1,1,5,5,5-hexamethyl-3-((trimethylsilyl)oxy)trisiloxan-3-yl)propyl)-1-methylpyrrolidin-1-ium nitrate, C17H44N2O6Si4, InChI=1S/C17H44NO3Si4.NO3/c1-18(14-11-12-15-18)16-13-17-25(19-22(2,3)4,20-23(5,6)7)21-24(8,9)10;2-1(3)4/h11-17H2,1-10H3;/q+1;-1
Compound 2: 1-(3-(1,1,1,5,5,5-hexamethyl-3-((trimethylsilyl)oxy)trisiloxan-3-yl)propyl)-1-methylpyrrolidin-1-ium acetate, C19H47NO5Si4, InChI=1S/C17H44NO3Si4.C2H4O2/c1-18(14-11-12-15-18)16-13-17-25(19-22(2,3)4,20-23(5,6)7)21-24(8,9)10;1-2(3)4/h11-17H2,1-10H3;1H3,(H,3,4)/q+1;/p-1
Compound 3: water, H2O, InChI=1S/H2O/h1H2
Compound 4: sodium chloride, ClNa, InChI=1S/ClH.Na/h1H;/q;+1/p-1, purity 99%
Compound 5: sodium bromide, BrNa, InChI=1S/BrH.Na/h1H;/q;+1/p-1, purity 99%

System: water + 1-(3-(1,1,1,5,5,5-hexamethyl-3-((trimethylsilyl)oxy)trisiloxan-3-yl)propyl)-1-methylpyrrolidin-1-ium nitrate; phases: Liquid, Air at 1 atmosphere
Fixed: Temperature, K = 298.15
Property: Surface tension liquid-gas, N/m (Liquid); method: Ring tensiometer
Molality, mol/kg of 1-(3-(1,1,1,5,5,5-hexamethyl-3-((trimethylsilyl)oxy)trisiloxan-3-yl)propyl)-1-methylpyrrolidin-1-ium nitrate	Surface tension liquid-gas, N/m	uncertainty
1e-06	0.0713	0.0012
1e-05	0.0678	0.0011
0.0001	0.0543	0.0009
0.0006	0.042	0.0007
0.001	0.0374	0.0007
0.002	0.0333	0.0006
0.003	0.0303	0.0006
0.004	0.0276	0.0005
0.005	0.0261	0.0005
0.006	0.0251	0.0005
0.007	0.024	0.0005
0.008	0.0233	0.0005
0.009	0.023	0.0004
0.01	0.0224	0.0004
0.015	0.0214	0.0004
0.02	0.0212	0.0004
0.025	0.0213	0.0004
0.03	0.0212	0.0004

System: water + 1-(3-(1,1,1,5,5,5-hexamethyl-3-((trimethylsilyl)oxy)trisiloxan-3-yl)propyl)-1-methylpyrrolidin-1-ium nitrate; phases: Liquid
Fixed: Pressure, kPa = 101
Property: Electrical conductivity, S/m (Liquid); method: Alternating current cell with electrodes
Temperature, K	Molality, mol/kg of 1-(3-(1,1,1,5,5,5-hexamethyl-3-((trimethylsilyl)oxy)trisiloxan-3-yl)propyl)-1-methylpyrrolidin-1-ium nitrate	Electrical conductivity, S/m	uncertainty
288.15	0.0008	0.00614	1e-05
288.15	0.0009	0.00682	1e-05
288.15	0.001	0.00733	1e-05
288.15	0.002	0.0143	0.0001
288.15	0.003	0.0209	0.0001
288.15	0.004	0.0264	0.0001
288.15	0.005	0.0282	0.0001
288.15	0.006	0.03	0.0001
288.15	0.007	0.0312	0.0001
288.15	0.008	0.0324	0.0001
288.15	0.009	0.0335	0.0001
293.15	0.0008	0.00666	1e-05
293.15	0.0009	0.00744	1e-05
293.15	0.001	0.0081	0.0001
293.15	0.002	0.01556	1e-05
293.15	0.003	0.0231	0.0001
293.15	0.004	0.0291	0.0001
293.15	0.005	0.031	0.0001
293.15	0.006	0.0329	0.0001
293.15	0.007	0.0343	0.0001
293.15	0.008	0.0354	0.0001
293.15	0.009	0.0369	0.0001
298.15	0.0008	0.00734	1e-05
298.15	0.0009	0.00818	1e-05
298.15	0.001	0.00888	1e-05
298.15	0.002	0.01717	1e-05
298.15	0.003	0.0255	0.0001
298.15	0.004	0.0321	0.0001
298.15	0.005	0.0348	0.0001
298.15	0.006	0.0367	0.0001
298.15	0.007	0.0382	0.0001
298.15	0.008	0.0396	0.0001
298.15	0.009	0.041	0.0001
303.15	0.0008	0.00801	1e-05
303.15	0.0009	0.00894	1e-05
303.15	0.001	0.00967	1e-05
303.15	0.002	0.01881	1e-05
303.15	0.003	0.0279	0.0001
303.15	0.004	0.0354	0.0001
303.15	0.005	0.0392	0.0001
303.15	0.006	0.0414	0.0001
303.15	0.007	0.043	0.0001
303.15	0.008	0.0447	0.0001
303.15	0.009	0.0464	0.0001
308.15	0.0008	0.00864	1e-05
308.15	0.0009	0.00984	1e-05
308.15	0.001	0.01058	1e-05
308.15	0.002	0.0212	0.0001
308.15	0.003	0.0302	0.0001
308.15	0.004	0.0388	0.0001
308.15	0.005	0.0438	0.0001
308.15	0.006	0.0466	0.0001
308.15	0.007	0.0486	0.0001
308.15	0.008	0.0502	0.0001
308.15	0.009	0.0525	0.0001

System: water + 1-(3-(1,1,1,5,5,5-hexamethyl-3-((trimethylsilyl)oxy)trisiloxan-3-yl)propyl)-1-methylpyrrolidin-1-ium acetate; phases: Liquid, Air at 1 atmosphere
Fixed: Temperature, K = 298.15
Property: Surface tension liquid-gas, N/m (Liquid); method: Ring tensiometer
Molality, mol/kg of 1-(3-(1,1,1,5,5,5-hexamethyl-3-((trimethylsilyl)oxy)trisiloxan-3-yl)propyl)-1-methylpyrrolidin-1-ium acetate	Surface tension liquid-gas, N/m	uncertainty
1e-06	0.0705	0.0009
1e-05	0.0582	0.0008
0.0001	0.0471	0.0006
0.0002	0.0424	0.0006
0.0004	0.0369	0.0005
0.0006	0.0321	0.0005
0.0008	0.0297	0.0004
0.001	0.0278	0.0004
0.002	0.0235	0.0004
0.003	0.0215	0.0004
0.004	0.0202	0.0004
0.005	0.02	0.0004
0.006	0.02	0.0004
0.007	0.02	0.0004
0.008	0.02	0.0004
0.009	0.02	0.0004

System: sodium bromide + water + 1-(3-(1,1,1,5,5,5-hexamethyl-3-((trimethylsilyl)oxy)trisiloxan-3-yl)propyl)-1-methylpyrrolidin-1-ium nitrate; phases: Liquid, Air at 1 atmosphere
Fixed: Solvent: Molality, mol/kg of sodium bromide = 0.05
Fixed: Temperature, K = 298.15
Property: Surface tension liquid-gas, N/m (Liquid); method: Ring tensiometer
Molality, mol/kg of 1-(3-(1,1,1,5,5,5-hexamethyl-3-((trimethylsilyl)oxy)trisiloxan-3-yl)propyl)-1-methylpyrrolidin-1-ium nitrate	Surface tension liquid-gas, N/m	uncertainty
0.0001	0.0267	0.0004
0.0002	0.024	0.0004
0.0004	0.0219	0.0004
0.0006	0.0206	0.0004
0.0008	0.0203	0.0004
0.001	0.0202	0.0004
0.002	0.0202	0.0004
0.004	0.0202	0.0004
0.006	0.0202	0.0004

System: sodium chloride + water + 1-(3-(1,1,1,5,5,5-hexamethyl-3-((trimethylsilyl)oxy)trisiloxan-3-yl)propyl)-1-methylpyrrolidin-1-ium nitrate; phases: Liquid, Air at 1 atmosphere
Fixed: Solvent: Molality, mol/kg of sodium chloride = 0.05
Fixed: Temperature, K = 298.15
Property: Surface tension liquid-gas, N/m (Liquid); method: Ring tensiometer
Molality, mol/kg of 1-(3-(1,1,1,5,5,5-hexamethyl-3-((trimethylsilyl)oxy)trisiloxan-3-yl)propyl)-1-methylpyrrolidin-1-ium nitrate	Surface tension liquid-gas, N/m	uncertainty
0.0001	0.0315	0.0005
0.0002	0.028	0.0004
0.0004	0.0249	0.0004
0.0006	0.0231	0.0004
0.0008	0.022	0.0004
0.001	0.0214	0.0004
0.002	0.0202	0.0004
0.004	0.0202	0.0004
0.006	0.0202	0.0004
0.008	0.0202	0.0004
