Measured thermophysical data. Standard Thermodynamic Functions of Tripeptides N-Formyl-l-methionyl-l-leucyl-l-phenylalaninol and N-Formyl-l-methionyl-l-leucyl-l-phenylalanine Methyl Ester
Source: J. Chem. Eng. Data, 2014, 10.1021/je400879v
Compound 1: N-formyl-L-methionyl-L-leucyl-L-phenylalanine, C21H31N3O5S, InChI=1S/C21H31N3O5S/c1-14(2)11-17(23-19(26)16(22-13-25)9-10-30-3)20(27)24-18(21(28)29)12-15-7-5-4-6-8-15/h4-8,13-14,16-18H,9-12H2,1-3H3,(H,22,25)(H,23,26)(H,24,27)(H,28,29)/t16-,17-,18-/m0/s1
Compound 2: methyl formyl-L-methionyl-L-leucyl-L-phenylalaninate, C22H33N3O5S, InChI=1S/C22H33N3O5S/c1-15(2)12-18(24-20(27)17(23-14-26)10-11-31-4)21(28)25-19(22(29)30-3)13-16-8-6-5-7-9-16/h5-9,14-15,17-19H,10-13H2,1-4H3,(H,23,26)(H,24,27)(H,25,28)/t17-,18-,19-/m0/s1

System: N-formyl-L-methionyl-L-leucyl-L-phenylalanine; phases: Crystal
Fixed: Pressure, kPa = 101.325
Property: Molar heat capacity at constant pressure, J/K/mol (Crystal); method: SMALLAD:UFactor:4
Temperature, K	Molar heat capacity at constant pressure, J/K/mol	uncertainty
6.07	3.03	0.24
6.2	3.36	0.26
6.39	3.61	0.28
6.58	3.95	0.3
6.77	4.19	0.31
6.95	4.46	0.33
7.13	4.64	0.34
7.31	5.02	0.36
7.66	5.64	0.4
7.84	5.84	0.41
8.02	6.22	0.43
8.19	6.56	0.45
8.37	6.65	0.46
8.55	7.15	0.49
8.72	7.42	0.5
8.92	7.88	0.53
9.1	8.16	0.54
9.27	8.57	0.57
9.44	8.94	0.59
9.62	9.38	0.61
9.8	9.59	0.63
9.98	10	0.7
10.26	10.5	0.7
10.67	11	0.7
11.08	11.8	0.7
11.52	12.5	0.8
11.95	13.4	0.8
12.39	14.6	0.9
12.85	15.8	1
13.31	17	1
13.78	18.1	1.1
14.29	19.5	1.2
14.76	21.3	1.2
15.24	23.4	1.1
15.73	24.77	1.12
16.23	26.48	1.17
16.73	28.13	1.22
17.24	29.68	1.27
17.76	31.41	1.32
18.29	32.48	1.34
18.81	34.25	1.39
19.34	36.24	1.44
19.87	38.47	1.5
21.37	44.16	1.63
23.57	51.73	1.76
25.84	59.41	1.84
28.14	67.29	1.89
30.47	75.15	1.54
32.83	82.65	1.67
35.21	90.33	1.8
37.62	97.96	1.94
40.05	105.2	1.9
42.5	112.5	2.1
44.97	118.8	2.2
47.45	124.6	2.2
49.34	130.5	2.3
50.8	134.7	2.4
54.2	143.5	2.5
56.9	149.6	2.6
59	154.9	2.7
61.1	159.7	2.8
64.2	167	2.9
67.25	174.4	3
69.89	180.6	3.1
72.43	186.4	3.2
75.35	193.1	3.3
77.93	197.9	3.4
80	202.2	3.4
83.2	207.8	3.5
85.77	213.1	3.6
87.5	216	3.7
83.9	210	3.6
86.84	215.7	3.7
90.2	221.9	3.4
118.1	273.3	4
121.64	279	4.1
125.17	285.5	4.2
128.71	291.7	4.2
132.24	297.1	4.3
135.78	303.1	4.4
139.31	309.8	4.5
142.85	315.6	4.5
146.39	321	4.6
149.76	327.1	4.7
153.11	331.8	4.7
156.66	336.9	4.8
158.99	341.8	4.9
162.34	347.3	4.9
165.75	352.2	5
169.1	358.5	5.1
171.03	363.2	5.1
174.39	366.7	5.2
176.01	369	5.2
177.95	374.1	5.3
179.11	375.4	5.3
181.51	379.4	5.3
182.44	381.6	5.3
185.9	386.5	5.4
188.64	391	5.5
192.2	397.2	5.5
93.7	228.4	3.5
96.85	234	3.5
100.96	241.6	3.6
195.77	402.6	5.6
199.33	408.1	5.7
200.73	410.2	5.7
204.09	414.5	5.8
207.65	420.2	5.8
211.2	423.3	5.9
214.75	429.4	5.9
218.3	433.6	6
220.18	436.8	6
223.47	441.4	6.1
226.98	445.4	6.1
230.48	451.2	6.2
234.3	456.4	6.3
238.8	462.3	6.3
242.45	469.1	6.4
244.9	472.6	6.5
246.3	474.8	6.5
247.7	474.8	6.5
250	478.6	6.6
253.99	484.7	6.6
257.43	489.4	6.7
260.84	494.6	6.7
264.24	501	6.8
267.6	507.4	6.9
270.95	513.7	7
273.8	518.1	7
104.77	248.7	3.7
110	259	3.8
114.57	267	3.9
277.59	524.9	7.1
280.88	532.5	7.2
282.23	537.3	7.3
285.29	542.7	7.3
288.58	549.3	7.4
293.3	557.4	7.5
297.8	565.3	7.6
301.54	573.1	7.7
304.73	582.3	7.8
307.89	588.5	7.9
311.05	593.5	8
313.2	599.5	8
316	602.2	8.1
318.33	605.8	8.1
321.4	610.8	8.2
323.5	615.2	8.2
326.18	619.5	8.3
329.7	626.6	8.4
331.99	630.9	8.4
334.86	638.4	8.5
337.66	643.6	8.6
340.47	648.2	8.7
342.7	653.7	8.7
346.02	662.6	8.8
348.7	668.4	8.9

System: N-formyl-L-methionyl-L-leucyl-L-phenylalanine; phases: Crystal
Fixed: Pressure, kPa = 101.325
Property: Molar heat capacity at constant pressure, J/K/mol (Crystal); method: SMALLAD:UFactor:4
Temperature, K	Molar heat capacity at constant pressure, J/K/mol	uncertainty
5	1.75	0.16
10	9.91	0.64
15	22.2	1.3
20	38.84	1.51
25	56.77	1.82
30	73.31	1.51
40	105.1	2.1
50	132.6	2.4
60	157.1	2.7
70	180.9	3.1
80	202.1	3.4
90	221.4	3.4
100	240.1	3.6
110	258.7	3.8
120	276.5	4
130	293.6	4.3
140	310.2	4.5
150	326.8	4.7
160	343.6	4.9
170	360.3	5.1
180	376.9	5.3
190	393	5.5
200	408.4	5.7
210	422.9	5.9
220	436.8	6
230	450.3	6.2
240	464.2	6.4
250	478.7	6.6
260	494.5	6.7
270	511.9	7
280	530.8	7.2
290	550.9	7.4
298.15	567.6	7.7
300	571.3	7.7
310	591.2	7.9
320	609.9	8.2
330	627.7	8.4
340	647.1	8.6
348	667.6	8.9

System: N-formyl-L-methionyl-L-leucyl-L-phenylalanine; phases: Crystal
Fixed: Pressure, kPa = 101.325
Property: Molar enthalpy, kJ/mol (Crystal); method: SMALLAD:UFactor:4
Temperature, K	Molar enthalpy, kJ/mol	uncertainty
5	0.00218	0.00057
10	0.0297	0.0027
15	0.106	0.007
20	0.2581	0.014
25	0.4981	0.022
30	0.8234	0.0285
40	1.72	0.05
50	2.907	0.078
60	4.358	0.111
70	6.049	0.149
80	7.966	0.191
90	10.08	0.23
100	12.39	0.28
110	14.89	0.33
120	17.56	0.38
130	20.41	0.43
140	23.43	0.49
150	26.62	0.55
160	29.97	0.61
170	33.49	0.67
180	37.18	0.74
190	41.03	0.81
200	45.03	0.88
210	49.19	0.96
220	53.49	1.03
230	57.93	1.11
240	62.5	1.19
250	67.21	1.28
260	72.08	1.36
270	77.11	1.45
280	82.32	1.54
290	87.73	1.64
298.15	92.29	1.72
300	93.34	1.73
310	99.16	1.83
320	105.2	1.9
330	111.4	2
340	117.7	2.2
348	123	2.2

System: N-formyl-L-methionyl-L-leucyl-L-phenylalanine; phases: Crystal
Fixed: Pressure, kPa = 101.325
Property: Molar entropy, J/K/mol (Crystal); method: SMALLAD:UFactor:4
Temperature, K	Molar entropy, J/K/mol	uncertainty
5	0.588	0.184
10	4.07	0.51
15	10.1	1
20	18.73	1.47
25	29.36	1.88
30	41.17	1.84
40	66.75	2.6
50	93.13	3.39
60	119.5	4.2
70	145.5	5
80	171.1	5.7
90	196	5.9
100	220.3	6.5
110	244.1	7.1
120	267.4	7.6
130	290.1	8.2
140	312.5	8.7
150	334.5	9.2
160	356.1	9.7
170	377.5	10.3
180	398.5	10.8
190	419.4	11.3
200	439.9	11.8
210	460.2	12.2
220	480.2	12.7
230	499.9	13.2
240	519.4	13.7
250	538.6	14.1
260	557.7	14.6
270	576.7	15
280	595.6	15.5
290	614.6	16
298.15	630.1	16.3
300	633.6	16.4
310	652.7	16.9
320	671.7	17.3
330	690.8	17.8
340	709.8	18.2
348	725.1	18.6

System: methyl formyl-L-methionyl-L-leucyl-L-phenylalaninate; phases: Crystal
Fixed: Pressure, kPa = 101.325
Property: Molar heat capacity at constant pressure, J/K/mol (Crystal); method: SMALLAD:UFactor:2
Temperature, K	Molar heat capacity at constant pressure, J/K/mol	uncertainty
6.02	2.6	0.14
6.13	2.71	0.15
6.28	2.91	0.16
6.43	3.21	0.17
6.59	3.52	0.19
6.73	3.88	0.2
6.88	4.29	0.22
7.04	4.56	0.23
7.19	4.97	0.25
7.35	5.42	0.27
7.52	5.83	0.29
7.66	6.28	0.31
7.84	6.73	0.33
7.98	7.23	0.36
8.17	7.72	0.38
8.33	8.13	0.4
8.5	8.58	0.42
8.7	9.08	0.44
8.84	9.48	0.46
8.98	9.89	0.48
9.13	10.3	0.5
9.3	10.7	0.5
9.45	11	0.5
9.62	11.5	0.5
9.78	11.8	0.6
9.95	12.3	0.6
10.27	13.2	0.6
10.63	14.1	0.7
11.04	15	0.7
11.45	16	0.7
11.88	17.1	0.8
12.29	18	0.8
12.79	19.2	0.9
13.24	20.4	0.9
13.71	21.7	1
14.18	22.7	1
14.65	24.1	1.1
15.12	25.3	0.6
15.6	26.78	0.61
15.99	28	0.64
16.64	29.85	0.67
17.1	31.58	0.7
17.62	33.24	0.72
18.1	34.79	0.75
18.78	37.21	0.78
19.22	38.75	0.81
19.72	40.59	0.83
21.41	47.32	0.93
23.4	55.2	1.02
25.67	63.45	1.1
27.96	71.89	1.17
30.29	80.5	1.08
32.65	88.71	1.18
35.04	96.64	1.27
37.44	105	1.4
39.87	112.9	1.5
42.32	120.6	1.1
44.78	127.7	1.2
47.26	134.1	1.2
49.75	139.9	1.3
52.01	145.9	1.3
54.78	153.1	1.4
57.3	160.1	1.4
59.87	167.1	1.5
62.41	174.3	1.5
64.96	181.3	1.6
66.9	186.5	1.6
70.06	194.1	1.7
72.6	201	1.8
75.15	206	1.8
77.73	212.1	1.8
80.1	216.1	1.9
82.93	221.7	1.9
85.5	227	2
88.2	232.3	2
90.85	237.1	1.9
90.6	238.4	1.9
93.51	243.4	1.9
96.19	248.8	2
98.88	253.3	2
101.58	258.9	2
104.28	264	2.1
106.98	269.4	2.1
109.69	274.9	2.1
112.38	279.5	2.2
115.08	284.3	2.2
117.78	289.3	2.2
120.47	293.3	2.3
123.16	297.5	2.3
125.85	302.5	2.3
128.53	306.7	2.4
131.22	310.6	2.4
133.99	316.2	2.4
136.67	319.1	2.4
139.35	323.5	2.5
142.02	328.1	2.5
144.68	332.5	2.5
147.35	336.5	2.6
150.01	340.6	2.6
152.68	344.7	2.6
155.33	348.5	2.7
157.99	352.9	2.7
160.64	357.2	2.7
163.28	361.6	2.7
165.92	365.7	2.8
168.56	368.7	2.8
171.19	373.7	2.8
174.6	377.8	2.9
176.09	381.5	2.9
179.5	385.9	2.9
182.11	390.6	2.9
184.71	394.8	3
187.31	398.3	3
189.9	402.2	3
192.49	407.4	3.1
195.07	411.8	3.1
197.64	416.1	3.1
200.2	420	3.1
202.74	423.8	3.2
205.27	428.2	3.2
207.77	433.6	3.2
210.28	436.5	3.3
212.77	442.5	3.3
215.23	446.4	3.3
217.6	450.8	3.4
220.02	455.6	3.4
222.4	459.1	3.4
224.71	463.1	3.4
227.02	467.1	3.5
229.33	471.1	3.5
231.66	475.2	3.5
234	478.4	3.5
236.36	484.2	3.6
238.72	488	3.6
241.09	490.9	3.6
243.46	493.2	3.7
245.83	498.9	3.7
248.18	503	3.7
250.5	507.1	3.7
252.78	509.6	3.8
254.83	514.5	3.8
257.07	518.7	3.8
259.3	523.3	3.9
261.5	528	3.9
263.68	532.6	3.9
265.84	535.2	3.9
267.99	539.2	4
270.16	543.2	4
272.34	547.3	4
274.5	552.1	4.1
276.67	554.9	4.1
277.1	557.8	4.1
279.97	561.2	4.1
282.11	564.9	4.1
284.23	568.8	4.2
286.34	571.5	4.2
288.8	578	4.2
290.49	581	4.3
292.53	584.6	4.3
294.54	587.8	4.3
296.39	591.6	4.3
298.4	596.2	4.4
300.24	601.4	4.4
302.09	606.6	4.4
304.77	614.7	4.5
307.42	619.1	4.5
309.83	624.8	4.6
312.19	631	4.6
314.41	635	4.6
316.68	638.7	4.7
318.91	645.4	4.7
321.09	652.2	4.8
323.22	661.1	4.8
325.19	665.5	4.8
327.12	669.6	4.9
329.13	677.2	4.9
330.96	681.9	5
332.75	688.8	5
334.5	691.9	5
335.18	695	5
336.88	700.5	5.1
338.54	704.4	5.1
340.17	710.6	5.2
341.74	717	5.2
343.27	723.9	5.2

System: methyl formyl-L-methionyl-L-leucyl-L-phenylalaninate; phases: Crystal
Fixed: Pressure, kPa = 101.325
Property: Molar heat capacity at constant pressure, J/K/mol (Crystal); method: SMALLAD:UFactor:2
Temperature, K	Molar heat capacity at constant pressure, J/K/mol	uncertainty
5	1.99	0.12
10	12.5	0.6
15	25.1	1.1
20	41.76	0.85
25	61.13	1.08
30	79.28	1.06
40	113.3	1.5
50	140.8	1.3
60	167.6	1.5
70	194.3	1.7
80	216.1	1.9
90	236.3	1.9
100	256.4	2
110	275.6	2.1
120	292.9	2.3
130	309.1	2.4
140	324.7	2.5
150	340.1	2.6
160	355.6	2.7
170	371.3	2.8
180	387.3	2.9
190	403.7	3
200	420.3	3.1
210	437.2	3.3
220	454.3	3.4
230	471.6	3.5
240	489	3.6
250	506.5	3.7
260	524.3	3.9
270	542.4	4
280	561.1	4.1
290	580.7	4.3
298.15	597.6	4.4
300	601.6	4.4
310	624.4	4.6
320	649.7	4.7
330	678.4	4.9
340	711.3	5.2
344	726	5.3

System: methyl formyl-L-methionyl-L-leucyl-L-phenylalaninate; phases: Crystal
Fixed: Pressure, kPa = 101.325
Property: Molar enthalpy, kJ/mol (Crystal); method: SMALLAD:UFactor:2
Temperature, K	Molar enthalpy, kJ/mol	uncertainty
5	0.00249	0.00026
10	0.0342	0.0017
15	0.127	0.006
20	0.2921	0.0063
25	0.5495	0.0102
30	0.9009	0.014
40	1.867	0.027
50	3.145	0.032
60	4.683	0.046
70	6.496	0.062
80	8.552	0.08
90	10.81	0.1
100	13.28	0.12
110	15.94	0.14
120	18.78	0.16
130	21.79	0.18
140	24.96	0.21
150	28.29	0.23
160	31.77	0.26
170	35.4	0.29
180	39.19	0.31
190	43.15	0.34
200	47.27	0.38
210	51.55	0.41
220	56.03	0.44
230	60.64	0.47
240	65.44	0.51
250	70.42	0.55
260	75.58	0.59
270	80.91	0.62
280	86.43	0.67
290	92.13	0.71
298.15	96.94	0.74
300	98.05	0.75
310	104.2	0.8
320	110.5	0.8
330	117.2	0.9
340	124.1	0.9
344	127	1

System: methyl formyl-L-methionyl-L-leucyl-L-phenylalaninate; phases: Crystal
Fixed: Pressure, kPa = 101.325
Property: Molar entropy, J/K/mol (Crystal); method: SMALLAD:UFactor:2
Temperature, K	Molar entropy, J/K/mol	uncertainty
5	0.664	0.08
10	4.63	0.34
15	12	0.8
20	21.37	0.67
25	32.77	0.89
30	45.54	0.98
40	73.1	1.48
50	101.5	1.4
60	129.5	1.8
70	157.4	2.1
80	184.8	2.4
90	211.4	2.6
100	237.4	2.8
110	262.7	3.1
120	287.4	3.3
130	311.5	3.6
140	335	3.8
150	357.9	4.1
160	380.4	4.3
170	402.4	4.5
180	424.1	4.8
190	445.5	5
200	466.6	5.2
210	487.5	5.4
220	508.2	5.6
230	528.8	5.8
240	549.2	6.1
250	569.6	6.3
260	589.8	6.5
270	609.9	6.7
280	630	6.9
290	650	7.1
298.15	666.3	7.3
300	670	7.3
310	690.1	7.5
320	710.3	7.7
330	730.8	7.9
340	751.5	8.2
344	759.9	8.2
