Measured thermophysical data. Excess Molar Volume along with Viscosity and Refractive Index for Binary Systems of Tricyclo[5.2.1.0(2.6)]decane with Five Cycloalkanes
Source: J. Chem. Eng. Data, 2013, 10.1021/je400529k
Compound 1: exo-tetrahydrodicyclopentadiene, C10H16, InChI=1S/C10H16/c1-2-9-7-4-5-8(6-7)10(9)3-1/h7-10H,1-6H2/t7-,8+,9+,10-, purity 98%
Compound 2: cyclohexane, C6H12, InChI=1S/C6H12/c1-2-4-6-5-3-1/h1-6H2, purity 99.5%
Compound 3: methylcyclohexane, C7H14, InChI=1S/C7H14/c1-7-5-3-2-4-6-7/h7H,2-6H2,1H3, purity 99%
Compound 4: ethylcyclohexane, C8H16, InChI=1S/C8H16/c1-2-8-6-4-3-5-7-8/h8H,2-7H2,1H3, purity 98%
Compound 5: butylcyclohexane, C10H20, InChI=1S/C10H20/c1-2-3-7-10-8-5-4-6-9-10/h10H,2-9H2,1H3, purity 99%
Compound 6: 1,2,4-trimethylcyclohexane, C9H18, InChI=1S/C9H18/c1-7-4-5-8(2)9(3)6-7/h7-9H,4-6H2,1-3H3, purity 96%

System: exo-tetrahydrodicyclopentadiene; phases: Liquid
Fixed: Pressure, kPa = 101
Property: Mass density, kg/m3 (Liquid); method: Vibrating tube method
Temperature, K	Mass density, kg/m3	uncertainty
293.15	935.72	0.15
298.15	931.84	0.15
303.15	927.94	0.15
308.15	924.02	0.15
313.15	920.11	0.15
318.15	916.18	0.15
303.15	927.9	0.2

System: exo-tetrahydrodicyclopentadiene; phases: Liquid
Fixed: Pressure, kPa = 101
Property: Viscosity, Pa*s (Liquid); method: Capillary tube (Ostwald; Ubbelohde) method
Temperature, K	Viscosity, Pa*s	uncertainty
293.15	0.002992	2e-05
298.15	0.00271	1.8e-05
303.15	0.002467	1.7e-05
308.15	0.002255	1.6e-05
313.15	0.002069	1.5e-05
318.15	0.001907	1.4e-05

System: exo-tetrahydrodicyclopentadiene; phases: Liquid
Fixed: Pressure, kPa = 101.325
Property: Refractive index (Na D-line) (Liquid); method: Standard Abbe refractometry
Temperature, K	Refractive index (Na D-line)	uncertainty
293.15	1.4874	0.001
303.15	1.4831	0.001
313.15	1.4786	0.001

System: cyclohexane; phases: Liquid
Fixed: Pressure, kPa = 101
Property: Mass density, kg/m3 (Liquid); method: Vibrating tube method
Temperature, K	Mass density, kg/m3	uncertainty
293.15	778.51	0.15
298.15	773.84	0.15
303.15	769.11	0.15
308.15	764.36	0.15
313.15	759.57	0.15

System: cyclohexane; phases: Liquid
Fixed: Pressure, kPa = 101
Property: Viscosity, Pa*s (Liquid); method: Capillary tube (Ostwald; Ubbelohde) method
Temperature, K	Viscosity, Pa*s	uncertainty
293.15	0.000977	1e-05
298.15	0.000898	1e-05
303.15	0.000828	9e-06
308.15	0.000766	9e-06
313.15	0.000712	9e-06
318.15	0.000664	9e-06

System: cyclohexane; phases: Liquid
Fixed: Pressure, kPa = 101.325
Property: Refractive index (Na D-line) (Liquid); method: Standard Abbe refractometry
Temperature, K	Refractive index (Na D-line)	uncertainty
293.15	1.4256	0.001
303.15	1.4205	0.001
313.15	1.4143	0.001

System: methylcyclohexane; phases: Liquid
Fixed: Pressure, kPa = 101
Property: Mass density, kg/m3 (Liquid); method: Vibrating tube method
Temperature, K	Mass density, kg/m3	uncertainty
293.15	769.35	0.15
298.15	765.04	0.15
303.15	760.71	0.15
308.15	756.36	0.15
313.15	751.99	0.16
318.15	747.6	0.16

System: methylcyclohexane; phases: Liquid
Fixed: Pressure, kPa = 101
Property: Viscosity, Pa*s (Liquid); method: Capillary tube (Ostwald; Ubbelohde) method
Temperature, K	Viscosity, Pa*s	uncertainty
293.15	0.000733	9e-06
298.15	0.000687	9e-06
303.15	0.000646	9e-06
308.15	0.000609	9e-06
313.15	0.000576	9e-06
318.15	0.000546	9e-06

System: methylcyclohexane; phases: Liquid
Fixed: Pressure, kPa = 101.325
Property: Refractive index (Na D-line) (Liquid); method: Standard Abbe refractometry
Temperature, K	Refractive index (Na D-line)	uncertainty
293.15	1.422	0.001
303.15	1.4172	0.001
313.15	1.4118	0.001

System: ethylcyclohexane; phases: Liquid
Fixed: Pressure, kPa = 101
Property: Mass density, kg/m3 (Liquid); method: Vibrating tube method
Temperature, K	Mass density, kg/m3	uncertainty
293.15	788.02	0.15
298.15	784.01	0.15
303.15	779.98	0.15
308.15	775.93	0.15
313.15	771.86	0.15
318.15	767.78	0.15

System: ethylcyclohexane; phases: Liquid
Fixed: Pressure, kPa = 101
Property: Viscosity, Pa*s (Liquid); method: Capillary tube (Ostwald; Ubbelohde) method
Temperature, K	Viscosity, Pa*s	uncertainty
293.15	0.000845	9e-06
298.15	0.000791	9e-06
303.15	0.000743	9e-06
308.15	0.0007	9e-06
313.15	0.000661	9e-06
318.15	0.000626	9e-06

System: ethylcyclohexane; phases: Liquid
Fixed: Pressure, kPa = 101.325
Property: Refractive index (Na D-line) (Liquid); method: Standard Abbe refractometry
Temperature, K	Refractive index (Na D-line)	uncertainty
293.15	1.4319	0.001
303.15	1.4276	0.001
313.15	1.4225	0.001

System: butylcyclohexane; phases: Liquid
Fixed: Pressure, kPa = 101
Property: Mass density, kg/m3 (Liquid); method: Vibrating tube method
Temperature, K	Mass density, kg/m3	uncertainty
293.15	799.47	0.15
298.15	795.71	0.15
303.15	791.96	0.15
308.15	788.2	0.15
313.15	784.43	0.15
318.15	780.65	0.15

System: butylcyclohexane; phases: Liquid
Fixed: Pressure, kPa = 101
Property: Viscosity, Pa*s (Liquid); method: Capillary tube (Ostwald; Ubbelohde) method
Temperature, K	Viscosity, Pa*s	uncertainty
293.15	0.001302	1.1e-05
298.15	0.0012	1.1e-05
303.15	0.001111	1e-05
308.15	0.001032	1e-05
313.15	0.000962	1e-05
318.15	0.000899	1e-05

System: butylcyclohexane; phases: Liquid
Fixed: Pressure, kPa = 101.325
Property: Refractive index (Na D-line) (Liquid); method: Standard Abbe refractometry
Temperature, K	Refractive index (Na D-line)	uncertainty
293.15	1.4399	0.001
303.15	1.4354	0.001
313.15	1.4311	0.001

System: 1,2,4-trimethylcyclohexane; phases: Liquid
Fixed: Pressure, kPa = 101
Property: Mass density, kg/m3 (Liquid); method: Vibrating tube method
Temperature, K	Mass density, kg/m3	uncertainty
293.15	790.8	0.39
298.15	786.92	0.39
303.15	783.03	0.39
308.15	779.13	0.39
313.15	775.23	0.39
318.15	771.32	0.39

System: 1,2,4-trimethylcyclohexane; phases: Liquid
Fixed: Pressure, kPa = 101
Property: Viscosity, Pa*s (Liquid); method: Capillary tube (Ostwald; Ubbelohde) method
Temperature, K	Viscosity, Pa*s	uncertainty
293.15	0.000886	1.2e-05
298.15	0.000827	1.1e-05
303.15	0.000774	1.1e-05
308.15	0.000727	1.1e-05
313.15	0.000686	1e-05
318.15	0.000648	1e-05

System: 1,2,4-trimethylcyclohexane; phases: Liquid
Fixed: Pressure, kPa = 101.325
Property: Refractive index (Na D-line) (Liquid); method: Standard Abbe refractometry
Temperature, K	Refractive index (Na D-line)	uncertainty
293.15	1.4331	0.0011
303.15	1.4285	0.0011
313.15	1.424	0.0011

System: cyclohexane + exo-tetrahydrodicyclopentadiene; phases: Liquid
Fixed: Pressure, kPa = 101
Property: Mass density, kg/m3 (Liquid); method: Vibrating tube method
Temperature, K	Mole fraction of exo-tetrahydrodicyclopentadiene	Mass density, kg/m3	uncertainty
293.15	0	778.51	0.15
293.15	0.0998	799.53	0.15
293.15	0.2006	819.11	0.15
293.15	0.3003	837.1	0.14
293.15	0.3996	853.82	0.14
293.15	0.4987	869.42	0.14
293.15	0.6005	884.43	0.14
293.15	0.7002	898.3	0.14
293.15	0.8008	911.5	0.14
293.15	0.9	923.87	0.15
293.15	1	935.72	0.15
298.15	0	773.84	0.15
298.15	0.0998	794.92	0.15
298.15	0.2006	814.56	0.15
298.15	0.3003	832.65	0.14
298.15	0.3996	849.45	0.14
298.15	0.4987	865.15	0.14
298.15	0.6005	880.23	0.14
298.15	0.7002	894.2	0.14
298.15	0.8008	907.48	0.14
298.15	0.9	919.92	0.15
298.15	1	931.84	0.15
303.15	0	769.11	0.15
303.15	0.0998	790.27	0.15
303.15	0.2006	809.99	0.15
303.15	0.3003	828.19	0.15
303.15	0.3996	845.07	0.14
303.15	0.4987	860.86	0.14
303.15	0.6005	876.06	0.14
303.15	0.7002	890.08	0.14
303.15	0.8008	903.43	0.14
303.15	0.9	915.95	0.15
303.15	1	927.94	0.15
308.15	0	764.36	0.15
308.15	0.0998	785.6	0.15
308.15	0.2006	805.41	0.15
308.15	0.3003	823.69	0.15
308.15	0.3996	840.68	0.14
308.15	0.4987	856.56	0.14
308.15	0.6005	871.85	0.14
308.15	0.7002	885.97	0.14
308.15	0.8008	899.4	0.15
308.15	0.9	911.98	0.15
308.15	1	924.02	0.15
313.15	0	759.57	0.15
313.15	0.0998	780.9	0.16
313.15	0.2006	800.82	0.15
313.15	0.3003	819.19	0.15
313.15	0.3996	836.28	0.15
313.15	0.4987	852.26	0.14
313.15	0.6005	867.63	0.14
313.15	0.7002	881.85	0.14
313.15	0.8008	895.35	0.15
313.15	0.9	907.1	0.15
313.15	1	920.11	0.15

System: cyclohexane + exo-tetrahydrodicyclopentadiene; phases: Liquid
Fixed: Pressure, kPa = 101
Property: Viscosity, Pa*s (Liquid); method: Capillary tube (Ostwald; Ubbelohde) method
Temperature, K	Mole fraction of exo-tetrahydrodicyclopentadiene	Viscosity, Pa*s	uncertainty
293.15	0	0.000977	1e-05
293.15	0.0998	0.00113	1e-05
293.15	0.2006	0.001296	1.1e-05
293.15	0.3003	0.001462	1.1e-05
293.15	0.3996	0.001633	1.2e-05
293.15	0.4987	0.001814	1.3e-05
293.15	0.6005	0.002016	1.4e-05
293.15	0.7002	0.002231	1.5e-05
293.15	0.8008	0.002463	1.6e-05
293.15	0.9	0.00272	1.8e-05
293.15	1	0.002992	2e-05
298.15	0	0.000898	1e-05
298.15	0.0998	0.001032	1e-05
298.15	0.2006	0.00118	1e-05
298.15	0.3003	0.001327	1.1e-05
298.15	0.3996	0.001481	1.2e-05
298.15	0.4987	0.001645	1.2e-05
298.15	0.6005	0.001828	1.3e-05
298.15	0.7002	0.002024	1.4e-05
298.15	0.8008	0.002236	1.5e-05
298.15	0.9	0.002466	1.7e-05
298.15	1	0.00271	1.8e-05
303.15	0	0.000828	9e-06
303.15	0.0998	0.000948	1e-05
303.15	0.2006	0.00108	1e-05
303.15	0.3003	0.001212	1.1e-05
303.15	0.3996	0.001351	1.1e-05
303.15	0.4987	0.0015	1.2e-05
303.15	0.6005	0.001668	1.2e-05
303.15	0.7002	0.001846	1.3e-05
303.15	0.8008	0.002037	1.4e-05
303.15	0.9	0.002248	1.6e-05
303.15	1	0.002467	1.7e-05
308.15	0	0.000766	9e-06
308.15	0.0998	0.000874	9e-06
308.15	0.2006	0.000993	1e-05
308.15	0.3003	0.001113	1e-05
308.15	0.3996	0.001239	1.1e-05
308.15	0.4987	0.001375	1.1e-05
308.15	0.6005	0.001528	1.2e-05
308.15	0.7002	0.001691	1.3e-05
308.15	0.8008	0.001866	1.4e-05
308.15	0.9	0.002056	1.5e-05
308.15	1	0.002255	1.6e-05
313.15	0	0.000712	9e-06
313.15	0.0998	0.000808	9e-06
313.15	0.2006	0.000917	1e-05
313.15	0.3003	0.001026	1e-05
313.15	0.3996	0.001141	1e-05
313.15	0.4987	0.001267	1.1e-05
313.15	0.6005	0.001407	1.1e-05
313.15	0.7002	0.001555	1.2e-05
313.15	0.8008	0.001715	1.3e-05
313.15	0.9	0.001888	1.4e-05
313.15	1	0.002069	1.5e-05
318.15	0	0.000664	9e-06
318.15	0.0998	0.000751	9e-06
318.15	0.2006	0.000848	9e-06
318.15	0.3003	0.000949	1e-05
318.15	0.3996	0.001055	1e-05
318.15	0.4987	0.001169	1.1e-05
318.15	0.6005	0.001298	1.1e-05
318.15	0.7002	0.001435	1.2e-05
318.15	0.8008	0.001581	1.2e-05
318.15	0.9	0.001741	1.3e-05
318.15	1	0.001907	1.4e-05

System: cyclohexane + exo-tetrahydrodicyclopentadiene; phases: Liquid
Fixed: Pressure, kPa = 101
Property: Refractive index (Na D-line) (Liquid); method: Standard Abbe refractometry
Temperature, K	Mole fraction of exo-tetrahydrodicyclopentadiene	Refractive index (Na D-line)	uncertainty
293.15	0	1.4256	0.001
293.15	0.0998	1.4357	0.001
293.15	0.2006	1.4426	0.001
293.15	0.3003	1.4495	0.001
293.15	0.3996	1.4564	0.001
293.15	0.4987	1.4624	0.001
293.15	0.6005	1.4683	0.001
293.15	0.7002	1.4732	0.001
293.15	0.8008	1.4781	0.001
293.15	0.9	1.4829	0.001
293.15	1	1.4874	0.001
303.15	0	1.4205	0.001
303.15	0.0998	1.4305	0.001
303.15	0.2006	1.4373	0.001
303.15	0.3003	1.4449	0.001
303.15	0.3996	1.4512	0.001
303.15	0.4987	1.4582	0.001
303.15	0.6005	1.4633	0.001
303.15	0.7002	1.4689	0.001
303.15	0.8008	1.4739	0.001
303.15	0.9	1.4789	0.001
303.15	1	1.4831	0.001
313.15	0	1.4143	0.001
313.15	0.0998	1.4238	0.001
313.15	0.2006	1.4319	0.001
313.15	0.3003	1.439	0.001
313.15	0.3996	1.4456	0.001
313.15	0.4987	1.453	0.001
313.15	0.6005	1.4583	0.001
313.15	0.7002	1.4642	0.001
313.15	0.8008	1.4689	0.001
313.15	0.9	1.4737	0.001
313.15	1	1.4786	0.001

System: methylcyclohexane + exo-tetrahydrodicyclopentadiene; phases: Liquid
Fixed: Pressure, kPa = 101
Property: Mass density, kg/m3 (Liquid); method: Vibrating tube method
Temperature, K	Mole fraction of exo-tetrahydrodicyclopentadiene	Mass density, kg/m3	uncertainty
293.15	0	769.35	0.15
293.15	0.1	788.79	0.15
293.15	0.2009	807.71	0.15
293.15	0.301	825.81	0.15
293.15	0.3999	843.02	0.14
293.15	0.4999	859.94	0.14
293.15	0.5992	876.09	0.14
293.15	0.7004	891.98	0.14
293.15	0.7995	906.95	0.14
293.15	0.9011	921.82	0.15
293.15	1	935.72	0.15
298.15	0	765.04	0.15
298.15	0.1	784.53	0.15
298.15	0.2009	803.5	0.15
298.15	0.301	821.64	0.15
298.15	0.3999	838.89	0.14
298.15	0.4999	855.86	0.14
298.15	0.5992	872.05	0.14
298.15	0.7004	887.96	0.14
298.15	0.7995	902.99	0.15
298.15	0.9011	917.88	0.15
298.15	1	931.84	0.15
303.15	0	760.71	0.15
303.15	0.1	780.25	0.15
303.15	0.2009	799.26	0.15
303.15	0.301	817.46	0.15
303.15	0.3999	834.75	0.15
303.15	0.4999	851.75	0.14
303.15	0.5992	867.99	0.14
303.15	0.7004	883.94	0.14
303.15	0.7995	899.01	0.15
303.15	0.9011	913.94	0.15
303.15	1	927.94	0.15
308.15	0	756.36	0.15
308.15	0.1	775.95	0.16
308.15	0.2009	795.01	0.15
308.15	0.301	813.26	0.15
308.15	0.3999	830.6	0.15
308.15	0.4999	847.64	0.15
308.15	0.5992	863.93	0.14
308.15	0.7004	879.91	0.15
308.15	0.7995	895.01	0.15
308.15	0.9011	910	0.15
308.15	1	924.02	0.15
313.15	0	751.99	0.16
313.15	0.1	771.64	0.16
313.15	0.2009	790.75	0.15
313.15	0.301	809.05	0.15
313.15	0.3999	826.43	0.15
313.15	0.4999	843.53	0.15
313.15	0.5992	859.84	0.15
313.15	0.7004	875.88	0.15
313.15	0.7995	891.03	0.15
313.15	0.9011	906.04	0.15
313.15	1	920.11	0.15
318.15	0	747.6	0.16
318.15	0.1	767.31	0.16
318.15	0.2009	786.48	0.15
318.15	0.301	804.83	0.15
318.15	0.3999	822.26	0.15
318.15	0.4999	839.4	0.15
318.15	0.5992	855.75	0.15
318.15	0.7004	871.84	0.15
318.15	0.7995	887.03	0.15
318.15	0.9011	902.08	0.15
318.15	1	916.18	0.15

System: methylcyclohexane + exo-tetrahydrodicyclopentadiene; phases: Liquid
Fixed: Pressure, kPa = 101
Property: Viscosity, Pa*s (Liquid); method: Capillary tube (Ostwald; Ubbelohde) method
Temperature, K	Mole fraction of exo-tetrahydrodicyclopentadiene	Viscosity, Pa*s	uncertainty
293.15	0	0.000733	9e-06
293.15	0.1	0.000842	9e-06
293.15	0.2009	0.000959	1e-05
293.15	0.301	0.001102	1e-05
293.15	0.3999	0.001267	1.1e-05
293.15	0.4999	0.001454	1.2e-05
293.15	0.5992	0.00167	1.2e-05
293.15	0.7004	0.001925	1.4e-05
293.15	0.7995	0.00222	1.5e-05
293.15	0.9011	0.002582	1.7e-05
293.15	1	0.002992	2e-05
298.15	0	0.000687	9e-06
298.15	0.1	0.000785	9e-06
298.15	0.2009	0.000892	1e-05
298.15	0.301	0.001023	1e-05
298.15	0.3999	0.001171	1e-05
298.15	0.4999	0.00134	1.1e-05
298.15	0.5992	0.001534	1.2e-05
298.15	0.7004	0.001762	1.3e-05
298.15	0.7995	0.002026	1.4e-05
298.15	0.9011	0.002347	1.6e-05
298.15	1	0.00271	1.8e-05
303.15	0	0.000646	9e-06
303.15	0.1	0.000735	9e-06
303.15	0.2009	0.000833	9e-06
303.15	0.301	0.000952	1e-05
303.15	0.3999	0.001087	1e-05
303.15	0.4999	0.001239	1.1e-05
303.15	0.5992	0.001416	1.1e-05
303.15	0.7004	0.001621	1.2e-05
303.15	0.7995	0.001857	1.4e-05
303.15	0.9011	0.002146	1.5e-05
303.15	1	0.002467	1.7e-05
308.15	0	0.000609	9e-06
308.15	0.1	0.000692	9e-06
308.15	0.2009	0.000781	9e-06
308.15	0.301	0.00089	1e-05
308.15	0.3999	0.001013	1e-05
308.15	0.4999	0.001151	1e-05
308.15	0.5992	0.001312	1.1e-05
308.15	0.7004	0.001497	1.2e-05
308.15	0.7995	0.001709	1.3e-05
308.15	0.9011	0.001967	1.4e-05
308.15	1	0.002255	1.6e-05
313.15	0	0.000576	9e-06
313.15	0.1	0.000652	9e-06
313.15	0.2009	0.000733	9e-06
313.15	0.301	0.000834	9e-06
313.15	0.3999	0.000947	1e-05
313.15	0.4999	0.001074	1e-05
313.15	0.5992	0.001218	1.1e-05
313.15	0.7004	0.001388	1.1e-05
313.15	0.7995	0.001579	1.2e-05
313.15	0.9011	0.00181	1.3e-05
313.15	1	0.002069	1.5e-05
318.15	0	0.000546	9e-06
318.15	0.1	0.000616	9e-06
318.15	0.2009	0.000691	9e-06
318.15	0.301	0.000783	9e-06
318.15	0.3999	0.000887	1e-05
318.15	0.4999	0.001003	1e-05
318.15	0.5992	0.001135	1e-05
318.15	0.7004	0.00129	1.1e-05
318.15	0.7995	0.001463	1.2e-05
318.15	0.9011	0.001672	1.3e-05
318.15	1	0.001907	1.4e-05

System: methylcyclohexane + exo-tetrahydrodicyclopentadiene; phases: Liquid
Fixed: Pressure, kPa = 101
Property: Refractive index (Na D-line) (Liquid); method: Standard Abbe refractometry
Temperature, K	Mole fraction of exo-tetrahydrodicyclopentadiene	Refractive index (Na D-line)	uncertainty
293.15	0	1.422	0.001
293.15	0.1	1.4298	0.001
293.15	0.2009	1.4376	0.001
293.15	0.301	1.4447	0.001
293.15	0.3999	1.4515	0.001
293.15	0.4999	1.4586	0.001
293.15	0.5992	1.4646	0.001
293.15	0.7004	1.4709	0.001
293.15	0.7995	1.4768	0.001
293.15	0.9011	1.482	0.001
293.15	1	1.4874	0.001
303.15	0	1.4172	0.001
303.15	0.1	1.4253	0.001
303.15	0.2009	1.4324	0.001
303.15	0.301	1.4402	0.001
303.15	0.3999	1.4472	0.001
303.15	0.4999	1.4539	0.001
303.15	0.5992	1.4599	0.001
303.15	0.7004	1.4662	0.001
303.15	0.7995	1.4722	0.001
303.15	0.9011	1.478	0.001
303.15	1	1.4831	0.001
313.15	0	1.4118	0.001
313.15	0.1	1.4198	0.001
313.15	0.2009	1.4276	0.001
313.15	0.301	1.4351	0.001
313.15	0.3999	1.4421	0.001
313.15	0.4999	1.449	0.001
313.15	0.5992	1.4549	0.001
313.15	0.7004	1.4617	0.001
313.15	0.7995	1.4672	0.001
313.15	0.9011	1.4732	0.001
313.15	1	1.4786	0.001

System: ethylcyclohexane + exo-tetrahydrodicyclopentadiene; phases: Liquid
Fixed: Pressure, kPa = 101
Property: Mass density, kg/m3 (Liquid); method: Vibrating tube method
Temperature, K	Mole fraction of exo-tetrahydrodicyclopentadiene	Mass density, kg/m3	uncertainty
293.15	0	788.02	0.15
293.15	0.0997	803.52	0.15
293.15	0.2006	818.96	0.14
293.15	0.3001	834.08	0.14
293.15	0.4003	849.15	0.14
293.15	0.5001	863.99	0.14
293.15	0.6011	878.81	0.14
293.15	0.7	893.21	0.14
293.15	0.8001	907.54	0.14
293.15	0.8996	921.66	0.15
293.15	1	935.72	0.15
298.15	0	784.01	0.15
298.15	0.0997	799.47	0.15
298.15	0.2006	814.95	0.15
298.15	0.3001	830.07	0.14
298.15	0.4003	845.18	0.14
298.15	0.5001	860.01	0.14
298.15	0.6011	874.85	0.14
298.15	0.7	889.26	0.14
298.15	0.8001	903.61	0.14
298.15	0.8996	917.75	0.15
298.15	1	931.84	0.15
303.15	0	779.98	0.15
303.15	0.0997	795.44	0.15
303.15	0.2006	810.94	0.15
303.15	0.3001	826.06	0.14
303.15	0.4003	841.18	0.14
303.15	0.5001	856.03	0.14
303.15	0.6011	870.9	0.14
303.15	0.7	885.3	0.14
303.15	0.8001	899.67	0.15
303.15	0.8996	913.82	0.15
303.15	1	927.9	0.2
308.15	0	775.93	0.15
308.15	0.0997	791.4	0.15
308.15	0.2006	806.91	0.15
308.15	0.3001	822.04	0.15
308.15	0.4003	837.18	0.14
308.15	0.5001	852.03	0.14
308.15	0.6011	866.92	0.14
308.15	0.7	881.34	0.14
308.15	0.8001	895.72	0.15
308.15	0.8996	909.89	0.15
308.15	1	924.02	0.15
313.15	0	771.86	0.15
313.15	0.0997	787.34	0.15
313.15	0.2006	802.87	0.15
313.15	0.3001	818	0.15
313.15	0.4003	833.14	0.14
313.15	0.5001	848.02	0.14
313.15	0.6011	862.92	0.14
313.15	0.7	877.36	0.15
313.15	0.8001	891.76	0.15
313.15	0.8996	905.95	0.15
313.15	1	920.11	0.15
318.15	0	767.78	0.15
318.15	0.0997	783.25	0.15
318.15	0.2006	798.78	0.15
318.15	0.3001	813.96	0.15
318.15	0.4003	829.08	0.15
318.15	0.5001	843.99	0.15
318.15	0.6011	858.88	0.15
318.15	0.7	873.35	0.15
318.15	0.8001	887.8	0.15
318.15	0.8996	901.99	0.15
318.15	1	916.18	0.15

System: ethylcyclohexane + exo-tetrahydrodicyclopentadiene; phases: Liquid
Fixed: Pressure, kPa = 101
Property: Viscosity, Pa*s (Liquid); method: Capillary tube (Ostwald; Ubbelohde) method
Temperature, K	Mole fraction of exo-tetrahydrodicyclopentadiene	Viscosity, Pa*s	uncertainty
293.15	0	0.000845	9e-06
293.15	0.0997	0.000941	1e-05
293.15	0.2006	0.001052	1e-05
293.15	0.3001	0.001189	1e-05
293.15	0.4003	0.001344	1.1e-05
293.15	0.5001	0.001514	1.2e-05
293.15	0.6011	0.001726	1.3e-05
293.15	0.7	0.001965	1.4e-05
293.15	0.8001	0.002251	1.5e-05
293.15	0.8996	0.002593	1.7e-05
293.15	1	0.002992	2e-05
298.15	0	0.000791	9e-06
298.15	0.0997	0.000878	1e-05
298.15	0.2006	0.000979	1e-05
298.15	0.3001	0.001104	1e-05
298.15	0.4003	0.001243	1.1e-05
298.15	0.5001	0.001396	1.1e-05
298.15	0.6011	0.001586	1.2e-05
298.15	0.7	0.0018	1.3e-05
298.15	0.8001	0.002055	1.4e-05
298.15	0.8996	0.002358	1.6e-05
298.15	1	0.00271	1.8e-05
303.15	0	0.000743	9e-06
303.15	0.0997	0.000822	9e-06
303.15	0.2006	0.000914	1e-05
303.15	0.3001	0.001028	1e-05
303.15	0.4003	0.001155	1e-05
303.15	0.5001	0.001293	1.1e-05
303.15	0.6011	0.001464	1.2e-05
303.15	0.7	0.001656	1.3e-05
303.15	0.8001	0.001884	1.4e-05
303.15	0.8996	0.002155	1.5e-05
303.15	1	0.002467	1.7e-05
308.15	0	0.0007	9e-06
308.15	0.0997	0.000772	9e-06
308.15	0.2006	0.000856	9e-06
308.15	0.3001	0.00096	1e-05
308.15	0.4003	0.001076	1e-05
308.15	0.5001	0.001202	1.1e-05
308.15	0.6011	0.001356	1.1e-05
308.15	0.7	0.00153	1.2e-05
308.15	0.8001	0.001735	1.3e-05
308.15	0.8996	0.001976	1.4e-05
308.15	1	0.002255	1.6e-05
313.15	0	0.000661	9e-06
313.15	0.0997	0.000727	9e-06
313.15	0.2006	0.000804	9e-06
313.15	0.3001	0.0009	1e-05
313.15	0.4003	0.001005	1e-05
313.15	0.5001	0.00112	1e-05
313.15	0.6011	0.001261	1.1e-05
313.15	0.7	0.001417	1.2e-05
313.15	0.8001	0.001602	1.2e-05
313.15	0.8996	0.00182	1.4e-05
313.15	1	0.002069	1.5e-05
318.15	0	0.000626	9e-06
318.15	0.0997	0.000687	9e-06
318.15	0.2006	0.000758	9e-06
318.15	0.3001	0.000845	9e-06
318.15	0.4003	0.000942	1e-05
318.15	0.5001	0.001047	1e-05
318.15	0.6011	0.001175	1.1e-05
318.15	0.7	0.001317	1.1e-05
318.15	0.8001	0.001485	1.2e-05
318.15	0.8996	0.001682	1.3e-05
318.15	1	0.001907	1.4e-05

System: ethylcyclohexane + exo-tetrahydrodicyclopentadiene; phases: Liquid
Fixed: Pressure, kPa = 101
Property: Refractive index (Na D-line) (Liquid); method: Standard Abbe refractometry
Temperature, K	Mole fraction of exo-tetrahydrodicyclopentadiene	Refractive index (Na D-line)	uncertainty
293.15	0	1.4319	0.001
293.15	0.0997	1.4378	0.001
293.15	0.2006	1.4437	0.001
293.15	0.3001	1.4494	0.001
293.15	0.4003	1.4551	0.001
293.15	0.5001	1.4605	0.001
293.15	0.6011	1.4667	0.001
293.15	0.7	1.4717	0.001
293.15	0.8001	1.4769	0.001
293.15	0.8996	1.4824	0.001
293.15	1	1.4874	0.001
303.15	0	1.4276	0.001
303.15	0.0997	1.4334	0.001
303.15	0.2006	1.4389	0.001
303.15	0.3001	1.4446	0.001
303.15	0.4003	1.4506	0.001
303.15	0.5001	1.4559	0.001
303.15	0.6011	1.4617	0.001
303.15	0.7	1.4674	0.001
303.15	0.8001	1.4724	0.001
303.15	0.8996	1.4776	0.001
303.15	1	1.4831	0.001
313.15	0	1.4225	0.001
313.15	0.0997	1.4286	0.001
313.15	0.2006	1.4343	0.001
313.15	0.3001	1.4401	0.001
313.15	0.4003	1.4458	0.001
313.15	0.5001	1.4514	0.001
313.15	0.6011	1.4572	0.001
313.15	0.7	1.4625	0.001
313.15	0.8001	1.4679	0.001
313.15	0.8996	1.4732	0.001
313.15	1	1.4786	0.001

System: butylcyclohexane + exo-tetrahydrodicyclopentadiene; phases: Liquid
Fixed: Pressure, kPa = 101
Property: Mass density, kg/m3 (Liquid); method: Vibrating tube method
Temperature, K	Mole fraction of exo-tetrahydrodicyclopentadiene	Mass density, kg/m3	uncertainty
293.15	0	799.47	0.15
293.15	0.1	811.06	0.15
293.15	0.1993	822.96	0.15
293.15	0.2997	835.42	0.15
293.15	0.3991	848.2	0.15
293.15	0.5002	861.66	0.15
293.15	0.6005	875.49	0.15
293.15	0.7	889.72	0.15
293.15	0.8004	904.57	0.15
293.15	0.8999	919.8	0.15
293.15	1	935.72	0.15
298.15	0	795.71	0.15
298.15	0.1	807.31	0.15
298.15	0.1993	819.19	0.15
298.15	0.2997	831.63	0.15
298.15	0.3991	844.39	0.15
298.15	0.5002	857.83	0.15
298.15	0.6005	871.64	0.15
298.15	0.7	885.86	0.15
298.15	0.8004	900.7	0.15
298.15	0.8999	915.95	0.15
298.15	1	931.84	0.15
303.15	0	791.96	0.15
303.15	0.1	803.53	0.15
303.15	0.1993	815.39	0.15
303.15	0.2997	827.82	0.15
303.15	0.3991	840.57	0.15
303.15	0.5002	853.98	0.15
303.15	0.6005	867.78	0.15
303.15	0.7	881.99	0.15
303.15	0.8004	896.81	0.15
303.15	0.8999	912.05	0.15
303.15	1	927.94	0.15
308.15	0	788.2	0.15
308.15	0.1	799.75	0.15
308.15	0.1993	811.6	0.15
308.15	0.2997	824.01	0.15
308.15	0.3991	836.73	0.15
308.15	0.5002	850.13	0.15
308.15	0.6005	863.92	0.15
308.15	0.7	878.11	0.15
308.15	0.8004	892.92	0.15
308.15	0.8999	908.14	0.15
308.15	1	924.02	0.15
313.15	0	784.43	0.15
313.15	0.1	795.96	0.15
313.15	0.1993	807.79	0.15
313.15	0.2997	820.18	0.15
313.15	0.3991	832.89	0.15
313.15	0.5002	846.27	0.15
313.15	0.6005	860.05	0.15
313.15	0.7	874.22	0.15
313.15	0.8004	889.02	0.15
313.15	0.8999	904.23	0.15
313.15	1	920.11	0.15
318.15	0	780.65	0.15
318.15	0.1	792.17	0.15
318.15	0.1993	803.98	0.15
318.15	0.2997	816.35	0.15
318.15	0.3991	829.04	0.15
318.15	0.5002	842.41	0.15
318.15	0.6005	856.16	0.15
318.15	0.7	870.32	0.15
318.15	0.8004	885.11	0.15
318.15	0.8999	900.32	0.15
318.15	1	916.18	0.15

System: butylcyclohexane + exo-tetrahydrodicyclopentadiene; phases: Liquid
Fixed: Pressure, kPa = 101
Property: Viscosity, Pa*s (Liquid); method: Capillary tube (Ostwald; Ubbelohde) method
Temperature, K	Mole fraction of exo-tetrahydrodicyclopentadiene	Viscosity, Pa*s	uncertainty
293.15	0	0.001302	1.1e-05
293.15	0.1	0.001391	1.1e-05
293.15	0.1993	0.00149	1.2e-05
293.15	0.2997	0.001602	1.2e-05
293.15	0.3991	0.001732	1.3e-05
293.15	0.5002	0.001879	1.3e-05
293.15	0.6005	0.002044	1.4e-05
293.15	0.7	0.002234	1.5e-05
293.15	0.8004	0.002446	1.6e-05
293.15	0.8999	0.002688	1.8e-05
293.15	1	0.002992	2e-05
298.15	0	0.0012	1.1e-05
298.15	0.1	0.001279	1.1e-05
298.15	0.1993	0.001367	1.1e-05
298.15	0.2997	0.001467	1.2e-05
298.15	0.3991	0.001584	1.2e-05
298.15	0.5002	0.001715	1.3e-05
298.15	0.6005	0.001863	1.3e-05
298.15	0.7	0.002032	1.4e-05
298.15	0.8004	0.002224	1.5e-05
298.15	0.8999	0.002438	1.7e-05
298.15	1	0.00271	1.8e-05
303.15	0	0.001111	1e-05
303.15	0.1	0.001181	1.1e-05
303.15	0.1993	0.001261	1.1e-05
303.15	0.2997	0.001351	1.1e-05
303.15	0.3991	0.001456	1.2e-05
303.15	0.5002	0.001574	1.2e-05
303.15	0.6005	0.001707	1.3e-05
303.15	0.7	0.001858	1.4e-05
303.15	0.8004	0.002031	1.4e-05
303.15	0.8999	0.002223	1.5e-05
303.15	1	0.002467	1.7e-05
308.15	0	0.001032	1e-05
308.15	0.1	0.001096	1e-05
308.15	0.1993	0.001168	1.1e-05
308.15	0.2997	0.001249	1.1e-05
308.15	0.3991	0.001344	1.1e-05
308.15	0.5002	0.001451	1.2e-05
308.15	0.6005	0.001571	1.2e-05
308.15	0.7	0.001707	1.3e-05
308.15	0.8004	0.001862	1.4e-05
308.15	0.8999	0.002036	1.5e-05
308.15	1	0.002255	1.6e-05
313.15	0	0.000962	1e-05
313.15	0.1	0.00102	1e-05
313.15	0.1993	0.001085	1e-05
313.15	0.2997	0.001159	1.1e-05
313.15	0.3991	0.001245	1.1e-05
313.15	0.5002	0.001342	1.1e-05
313.15	0.6005	0.001451	1.2e-05
313.15	0.7	0.001573	1.2e-05
313.15	0.8004	0.001715	1.3e-05
313.15	0.8999	0.001872	1.4e-05
313.15	1	0.002069	1.5e-05
318.15	0	0.000899	1e-05
318.15	0.1	0.000952	1e-05
318.15	0.1993	0.001012	1e-05
318.15	0.2997	0.001079	1e-05
318.15	0.3991	0.001157	1.1e-05
318.15	0.5002	0.001246	1.1e-05
318.15	0.6005	0.001345	1.1e-05
318.15	0.7	0.001456	1.2e-05
318.15	0.8004	0.001585	1.2e-05
318.15	0.8999	0.001727	1.3e-05
318.15	1	0.001907	1.4e-05

System: butylcyclohexane + exo-tetrahydrodicyclopentadiene; phases: Liquid
Fixed: Pressure, kPa = 101
Property: Refractive index (Na D-line) (Liquid); method: Standard Abbe refractometry
Temperature, K	Mole fraction of exo-tetrahydrodicyclopentadiene	Refractive index (Na D-line)	uncertainty
293.15	0	1.4399	0.001
293.15	0.1	1.444	0.001
293.15	0.1993	1.4478	0.001
293.15	0.2997	1.4521	0.001
293.15	0.3991	1.4568	0.001
293.15	0.5002	1.4613	0.001
293.15	0.6005	1.466	0.001
293.15	0.7	1.4712	0.001
293.15	0.8004	1.4766	0.001
293.15	0.8999	1.4818	0.001
293.15	1	1.4874	0.001
303.15	0	1.4354	0.001
303.15	0.1	1.4393	0.001
303.15	0.1993	1.4435	0.001
303.15	0.2997	1.448	0.001
303.15	0.3991	1.4522	0.001
303.15	0.5002	1.457	0.001
303.15	0.6005	1.4619	0.001
303.15	0.7	1.4669	0.001
303.15	0.8004	1.4718	0.001
303.15	0.8999	1.4774	0.001
303.15	1	1.4831	0.001
313.15	0	1.4311	0.001
313.15	0.1	1.435	0.001
313.15	0.1993	1.4391	0.001
313.15	0.2997	1.4435	0.001
313.15	0.3991	1.448	0.001
313.15	0.5002	1.4524	0.001
313.15	0.6005	1.4575	0.001
313.15	0.7	1.4626	0.001
313.15	0.8004	1.4677	0.001
313.15	0.8999	1.4728	0.001
313.15	1	1.4786	0.001

System: 1,2,4-trimethylcyclohexane + exo-tetrahydrodicyclopentadiene; phases: Liquid
Fixed: Pressure, kPa = 101
Property: Mass density, kg/m3 (Liquid); method: Vibrating tube method
Temperature, K	Mole fraction of exo-tetrahydrodicyclopentadiene	Mass density, kg/m3	uncertainty
293.15	0	790.8	0.39
293.15	0.1	804.62	0.37
293.15	0.1996	818.49	0.34
293.15	0.3002	832.73	0.31
293.15	0.4009	847.13	0.28
293.15	0.5001	861.44	0.25
293.15	0.5992	875.89	0.23
293.15	0.6998	890.7	0.2
293.15	0.7997	905.51	0.18
293.15	0.9001	920.61	0.17
293.15	1	935.72	0.15
298.15	0	786.92	0.39
298.15	0.1	800.71	0.36
298.15	0.1996	814.61	0.34
298.15	0.3002	828.84	0.31
298.15	0.4009	843.21	0.28
298.15	0.5001	857.51	0.25
298.15	0.5992	871.98	0.23
298.15	0.6998	886.77	0.21
298.15	0.7997	901.61	0.19
298.15	0.9001	916.71	0.17
298.15	1	931.84	0.15
303.15	0	783.03	0.39
303.15	0.1	796.8	0.36
303.15	0.1996	810.7	0.33
303.15	0.3002	824.93	0.31
303.15	0.4009	839.3	0.28
303.15	0.5001	853.59	0.25
303.15	0.5992	868.06	0.23
303.15	0.6998	882.85	0.21
303.15	0.7997	897.7	0.19
303.15	0.9001	912.81	0.17
303.15	1	927.94	0.15
308.15	0	779.13	0.39
308.15	0.1	792.9	0.36
308.15	0.1996	806.79	0.33
308.15	0.3002	821.01	0.31
308.15	0.4009	835.38	0.28
308.15	0.5001	849.67	0.25
308.15	0.5992	864.13	0.23
308.15	0.6998	878.93	0.21
308.15	0.7997	893.78	0.19
308.15	0.9001	908.89	0.17
308.15	1	924.02	0.15
313.15	0	775.23	0.39
313.15	0.1	788.98	0.36
313.15	0.1996	802.87	0.33
313.15	0.3002	817.09	0.3
313.15	0.4009	831.45	0.28
313.15	0.5001	845.74	0.25
313.15	0.5992	860.2	0.23
313.15	0.6998	875.01	0.21
313.15	0.7997	889.85	0.19
313.15	0.9001	904.97	0.17
313.15	1	920.11	0.15
318.15	0	771.32	0.39
318.15	0.1	785.06	0.36
318.15	0.1996	798.94	0.33
318.15	0.3002	813.16	0.3
318.15	0.4009	827.52	0.28
318.15	0.5001	841.8	0.25
318.15	0.5992	856.27	0.23
318.15	0.6998	871.07	0.21
318.15	0.7997	885.92	0.19
318.15	0.9001	901.04	0.17
318.15	1	916.18	0.15

System: 1,2,4-trimethylcyclohexane + exo-tetrahydrodicyclopentadiene; phases: Liquid
Fixed: Pressure, kPa = 101
Property: Viscosity, Pa*s (Liquid); method: Capillary tube (Ostwald; Ubbelohde) method
Temperature, K	Mole fraction of exo-tetrahydrodicyclopentadiene	Viscosity, Pa*s	uncertainty
293.15	0	0.000886	1.2e-05
293.15	0.1	0.000986	1.2e-05
293.15	0.1996	0.001101	1.2e-05
293.15	0.3002	0.00123	1.3e-05
293.15	0.4009	0.001381	1.4e-05
293.15	0.5001	0.001562	1.4e-05
293.15	0.5992	0.001759	1.5e-05
293.15	0.6998	0.002008	1.6e-05
293.15	0.7997	0.002277	1.7e-05
293.15	0.9001	0.002609	1.8e-05
293.15	1	0.002992	2e-05
298.15	0	0.000827	1.1e-05
298.15	0.1	0.000917	1.2e-05
298.15	0.1996	0.001021	1.2e-05
298.15	0.3002	0.001137	1.2e-05
298.15	0.4009	0.001273	1.3e-05
298.15	0.5001	0.001436	1.3e-05
298.15	0.5992	0.001613	1.4e-05
298.15	0.6998	0.001837	1.5e-05
298.15	0.7997	0.002076	1.6e-05
298.15	0.9001	0.002371	1.7e-05
298.15	1	0.00271	1.8e-05
303.15	0	0.000774	1.1e-05
303.15	0.1	0.000856	1.1e-05
303.15	0.1996	0.00095	1.2e-05
303.15	0.3002	0.001056	1.2e-05
303.15	0.4009	0.001179	1.2e-05
303.15	0.5001	0.001326	1.3e-05
303.15	0.5992	0.001486	1.3e-05
303.15	0.6998	0.001687	1.4e-05
303.15	0.7997	0.001901	1.5e-05
303.15	0.9001	0.002165	1.6e-05
303.15	1	0.002467	1.7e-05
308.15	0	0.000727	1.1e-05
308.15	0.1	0.000802	1.1e-05
308.15	0.1996	0.000888	1.1e-05
308.15	0.3002	0.000984	1.1e-05
308.15	0.4009	0.001096	1.2e-05
308.15	0.5001	0.00123	1.2e-05
308.15	0.5992	0.001374	1.3e-05
308.15	0.6998	0.001556	1.3e-05
308.15	0.7997	0.001749	1.4e-05
308.15	0.9001	0.001985	1.5e-05
308.15	1	0.002255	1.6e-05
313.15	0	0.000686	1e-05
313.15	0.1	0.000753	1.1e-05
313.15	0.1996	0.000832	1.1e-05
313.15	0.3002	0.00092	1.1e-05
313.15	0.4009	0.001022	1.1e-05
313.15	0.5001	0.001144	1.2e-05
313.15	0.5992	0.001275	1.2e-05
313.15	0.6998	0.00144	1.3e-05
313.15	0.7997	0.001615	1.3e-05
313.15	0.9001	0.001828	1.4e-05
313.15	1	0.002069	1.5e-05
318.15	0	0.000648	1e-05
318.15	0.1	0.00071	1e-05
318.15	0.1996	0.000782	1.1e-05
318.15	0.3002	0.000862	1.1e-05
318.15	0.4009	0.000956	1.1e-05
318.15	0.5001	0.001068	1.1e-05
318.15	0.5992	0.001187	1.2e-05
318.15	0.6998	0.001337	1.2e-05
318.15	0.7997	0.001496	1.3e-05
318.15	0.9001	0.001688	1.3e-05
318.15	1	0.001907	1.4e-05

System: 1,2,4-trimethylcyclohexane + exo-tetrahydrodicyclopentadiene; phases: Liquid
Fixed: Pressure, kPa = 101
Property: Refractive index (Na D-line) (Liquid); method: Standard Abbe refractometry
Temperature, K	Mole fraction of exo-tetrahydrodicyclopentadiene	Refractive index (Na D-line)	uncertainty
293.15	0	1.4331	0.0011
293.15	0.1	1.4381	0.0011
293.15	0.1996	1.4436	0.0011
293.15	0.3002	1.449	0.0011
293.15	0.4009	1.4545	0.0011
293.15	0.5001	1.4597	0.0011
293.15	0.5992	1.4651	0.0011
293.15	0.6998	1.4709	0.0011
293.15	0.7997	1.476	0.0011
293.15	0.9001	1.4818	0.001
293.15	1	1.4874	0.001
303.15	0	1.4285	0.0011
303.15	0.1	1.4339	0.0011
303.15	0.1996	1.4392	0.0011
303.15	0.3002	1.4442	0.0011
303.15	0.4009	1.4499	0.0011
303.15	0.5001	1.4554	0.0011
303.15	0.5992	1.4608	0.0011
303.15	0.6998	1.4661	0.0011
303.15	0.7997	1.4718	0.0011
303.15	0.9001	1.4775	0.001
303.15	1	1.4831	0.001
313.15	0	1.424	0.0011
313.15	0.1	1.429	0.0011
313.15	0.1996	1.4346	0.0011
313.15	0.3002	1.44	0.0011
313.15	0.4009	1.4452	0.0011
313.15	0.5001	1.4508	0.0011
313.15	0.5992	1.4561	0.0011
313.15	0.6998	1.4618	0.0011
313.15	0.7997	1.4676	0.0011
313.15	0.9001	1.4731	0.001
313.15	1	1.4786	0.001
