Measured thermophysical data. Density and Viscosity Data for Mixtures of Ionic Liquids with a Common Anion
Source: J. Chem. Eng. Data, 2014, 10.1021/je400332j
Compound 1: 1-ethyl-3-methylimidazolium tetrafluoroborate, C6H11BF4N2, InChI=1S/C6H11N2.BF4/c1-3-8-5-4-7(2)6-8;2-1(3,4)5/h4-6H,3H2,1-2H3;/q+1;-1
Compound 2: 1-propyl-3-methylimidazolium tetrafluoroborate, C7H13BF4N2, InChI=1S/C7H13N2.BF4/c1-3-4-9-6-5-8(2)7-9;2-1(3,4)5/h5-7H,3-4H2,1-2H3;/q+1;-1
Compound 3: 1-hexyl-3-methylimidazolium tetrafluoroborate, C10H19BF4N2, InChI=1S/C10H19N2.BF4/c1-3-4-5-6-7-12-9-8-11(2)10-12;2-1(3,4)5/h8-10H,3-7H2,1-2H3;/q+1;-1

System: 1-ethyl-3-methylimidazolium tetrafluoroborate; phases: Liquid
Fixed: Pressure, kPa = 101.325
Property: Viscosity, Pa*s (Liquid); method: Concentric cylinders viscometry
Temperature, K	Viscosity, Pa*s	uncertainty
293.15	0.04547	0.00366
298.15	0.03746	0.00302
303.15	0.03129	0.00252
308.15	0.02645	0.00213
313.15	0.02261	0.00182
318.15	0.01951	0.00157
323.15	0.017	0.00137
328.15	0.01492	0.0012
333.15	0.0132	0.00106
338.15	0.01176	0.00094
343.15	0.01054	0.00085

System: 1-ethyl-3-methylimidazolium tetrafluoroborate; phases: Liquid
Fixed: Pressure, kPa = 101.325
Property: Mass density, kg/m3 (Liquid); method: Vibrating tube method
Temperature, K	Mass density, kg/m3	uncertainty
293.15	1283.9	1.1
298.15	1280	1.1
303.15	1276.2	1.1
308.15	1272.4	1.1
313.15	1268.6	1.1
318.15	1264.9	1.1
323.15	1261.2	1.1
328.15	1257.4	1.1
333.15	1253.8	1.1
338.15	1250.1	1.1
343.15	1246.5	1.1

System: 1-propyl-3-methylimidazolium tetrafluoroborate; phases: Liquid
Fixed: Pressure, kPa = 101.325
Property: Viscosity, Pa*s (Liquid); method: Concentric cylinders viscometry
Temperature, K	Viscosity, Pa*s	uncertainty
293.15	0.09544	0.00774
298.15	0.07404	0.00599
303.15	0.05859	0.00473
308.15	0.04716	0.0038
313.15	0.03856	0.00311
318.15	0.03198	0.00258
323.15	0.02683	0.00216
328.15	0.02277	0.00183
333.15	0.01954	0.00157
338.15	0.01692	0.00136
343.15	0.01477	0.00119

System: 1-propyl-3-methylimidazolium tetrafluoroborate; phases: Liquid
Fixed: Pressure, kPa = 101.325
Property: Mass density, kg/m3 (Liquid); method: Vibrating tube method
Temperature, K	Mass density, kg/m3	uncertainty
293.15	1239.3	1.1
298.15	1235.7	1.1
303.15	1232	1.1
308.15	1228.3	1.1
313.15	1224.7	1.1
318.15	1221	1.1
323.15	1217.4	1.1
328.15	1213.8	1.1
333.15	1210.2	1.1
338.15	1206.6	1.1
343.15	1203	1.1

System: 1-hexyl-3-methylimidazolium tetrafluoroborate; phases: Liquid
Fixed: Pressure, kPa = 101.325
Property: Viscosity, Pa*s (Liquid); method: Concentric cylinders viscometry
Temperature, K	Viscosity, Pa*s	uncertainty
293.15	0.2804	0.0234
298.15	0.2063	0.0171
303.15	0.1549	0.0127
308.15	0.1187	0.0097
313.15	0.09256	0.00751
318.15	0.07337	0.00593
323.15	0.05903	0.00476
328.15	0.04816	0.00388
333.15	0.03971	0.0032
338.15	0.03321	0.00267
343.15	0.02803	0.00226

System: 1-hexyl-3-methylimidazolium tetrafluoroborate; phases: Liquid
Fixed: Pressure, kPa = 101.325
Property: Mass density, kg/m3 (Liquid); method: Vibrating tube method
Temperature, K	Mass density, kg/m3	uncertainty
293.15	1147.5	1.1
298.15	1144.1	1.1
303.15	1140.6	1.1
308.15	1137.2	1
313.15	1133.7	1
318.15	1130.3	1
323.15	1127	1
328.15	1123.6	1
333.15	1120.2	1
338.15	1116.8	1
343.15	1113.4	1

System: 1-ethyl-3-methylimidazolium tetrafluoroborate + 1-propyl-3-methylimidazolium tetrafluoroborate; phases: Liquid
Fixed: Pressure, kPa = 101
Property: Mass density, kg/m3 (Liquid); method: Vibrating tube method
Temperature, K	Mole fraction of 1-ethyl-3-methylimidazolium tetrafluoroborate	Mass density, kg/m3	uncertainty
293.15	0	1239.3	1.1
293.15	0.1003	1243.5	1.1
293.15	0.2001	1247.8	1.1
293.15	0.2997	1251.7	1.1
293.15	0.3999	1256.1	1.1
293.15	0.4996	1260.6	1.1
293.15	0.5991	1265	1.1
293.15	0.6997	1269.7	1.1
293.15	0.7999	1274.4	1.1
293.15	0.8998	1279.2	1.1
293.15	1	1283.9	1.1
298.15	0	1235.7	1.1
298.15	0.1003	1239.8	1.1
298.15	0.2001	1244	1.1
298.15	0.2997	1248	1.1
298.15	0.3999	1252.4	1.1
298.15	0.4996	1256.9	1.1
298.15	0.5991	1261.3	1.1
298.15	0.6997	1266	1.1
298.15	0.7999	1270.6	1.1
298.15	0.8998	1275.5	1.1
298.15	1	1280	1.1
303.15	0	1232	1.1
303.15	0.1003	1236.2	1.1
303.15	0.2001	1240.4	1.1
303.15	0.2997	1244.3	1.1
303.15	0.3999	1248.7	1.1
303.15	0.4996	1253.2	1.1
303.15	0.5991	1257.5	1.1
303.15	0.6997	1262.1	1.1
303.15	0.7999	1266.9	1.1
303.15	0.8998	1271.7	1.1
303.15	1	1276.2	1.1
308.15	0	1228.3	1.1
308.15	0.1003	1232.5	1.1
308.15	0.2001	1236.6	1.1
308.15	0.2997	1240.7	1.1
308.15	0.3999	1245	1.1
308.15	0.4996	1249.3	1.1
308.15	0.5991	1253.8	1.1
308.15	0.6997	1258.4	1.1
308.15	0.7999	1263.1	1.1
308.15	0.8998	1267.7	1.1
308.15	1	1272.4	1.1
313.15	0	1224.7	1.1
313.15	0.1003	1228.8	1.1
313.15	0.2001	1233	1
313.15	0.2997	1237	1
313.15	0.3999	1241.3	1.1
313.15	0.4996	1245.6	1.1
313.15	0.5991	1250.1	1.1
313.15	0.6997	1254.6	1.1
313.15	0.7999	1259.3	1.1
313.15	0.8998	1264	1
313.15	1	1268.6	1.1
318.15	0	1221	1
318.15	0.1003	1225.1	1.1
318.15	0.2001	1229.3	1.1
318.15	0.2997	1233.3	1.1
318.15	0.3999	1237.6	1.1
318.15	0.4996	1241.9	1.1
318.15	0.5991	1246.3	1.1
318.15	0.6997	1250.9	1.1
318.15	0.7999	1255.6	1.1
318.15	0.8998	1260.3	1.1
318.15	1	1264.9	1.1
323.15	0	1217.4	1.1
323.15	0.1003	1221.5	1.1
323.15	0.2001	1225.6	1.1
323.15	0.2997	1229.7	1.1
323.15	0.3999	1233.9	1.1
323.15	0.4996	1238.2	1.1
323.15	0.5991	1242.6	1.1
323.15	0.6997	1247.1	1.1
323.15	0.7999	1251.8	1.1
323.15	0.8998	1256.5	1.1
323.15	1	1261.2	1.1
328.15	0	1213.8	1.1
328.15	0.1003	1217.9	1.1
328.15	0.2001	1222	1.1
328.15	0.2997	1226	1.1
328.15	0.3999	1230.3	1.1
328.15	0.4996	1234.6	1.1
328.15	0.5991	1238.9	1.1
328.15	0.6997	1243.4	1.1
328.15	0.7999	1248.1	1.1
328.15	0.8998	1252.8	1.1
328.15	1	1257.4	1.1
333.15	0	1210.2	1.1
333.15	0.1003	1214.3	1.1
333.15	0.2001	1218.4	1.1
333.15	0.2997	1222.4	1.1
333.15	0.3999	1226.6	1.1
333.15	0.4996	1230.9	1.1
333.15	0.5991	1235.2	1.1
333.15	0.6997	1239.8	1.1
333.15	0.7999	1244.4	1.1
333.15	0.8998	1249.1	1.1
333.15	1	1253.8	1.1
338.15	0	1206.6	1.1
338.15	0.1003	1210.7	1.1
338.15	0.2001	1214.8	1.1
338.15	0.2997	1218.8	1.1
338.15	0.3999	1222.9	1.1
338.15	0.4996	1227.3	1.1
338.15	0.5991	1231.6	1.1
338.15	0.6997	1236.1	1.1
338.15	0.7999	1240.7	1.1
338.15	0.8998	1245.4	1.1
338.15	1	1250.1	1.1
343.15	0	1203	1.1
343.15	0.1003	1207.1	1.1
343.15	0.2001	1211.1	1.1
343.15	0.2997	1215.2	1.1
343.15	0.3999	1219.4	1.1
343.15	0.4996	1223.7	1.1
343.15	0.5991	1228	1.1
343.15	0.6997	1232.5	1.1
343.15	0.7999	1237.1	1.1
343.15	0.8998	1241.7	1.1
343.15	1	1246.5	1.1

System: 1-ethyl-3-methylimidazolium tetrafluoroborate + 1-propyl-3-methylimidazolium tetrafluoroborate; phases: Liquid
Fixed: Pressure, kPa = 101
Property: Viscosity, Pa*s (Liquid); method: Concentric cylinders viscometry
Temperature, K	Mole fraction of 1-ethyl-3-methylimidazolium tetrafluoroborate	Viscosity, Pa*s	uncertainty
293.15	0	0.09544	0.00774
293.15	0.1003	0.08885	0.00719
293.15	0.2001	0.08233	0.00666
293.15	0.2997	0.07628	0.00616
293.15	0.3999	0.07061	0.0057
293.15	0.4996	0.06546	0.00528
293.15	0.5991	0.06073	0.00489
293.15	0.6997	0.05634	0.00454
293.15	0.7999	0.05231	0.00421
293.15	0.8998	0.04861	0.00392
293.15	1	0.04547	0.00366
298.15	0	0.07404	0.00599
298.15	0.1003	0.06932	0.0056
298.15	0.2001	0.06462	0.00522
298.15	0.2997	0.06023	0.00486
298.15	0.3999	0.0561	0.00453
298.15	0.4996	0.05232	0.00422
298.15	0.5991	0.04883	0.00394
298.15	0.6997	0.04557	0.00367
298.15	0.7999	0.04259	0.00343
298.15	0.8998	0.03979	0.00321
298.15	1	0.03746	0.00302
303.15	0	0.05859	0.00473
303.15	0.1003	0.05512	0.00445
303.15	0.2001	0.05166	0.00417
303.15	0.2997	0.04842	0.00391
303.15	0.3999	0.04534	0.00366
303.15	0.4996	0.04252	0.00343
303.15	0.5991	0.03991	0.00322
303.15	0.6997	0.03745	0.00302
303.15	0.7999	0.03517	0.00283
303.15	0.8998	0.03306	0.00266
303.15	1	0.03129	0.00252
308.15	0	0.04716	0.0038
308.15	0.1003	0.04458	0.00359
308.15	0.2001	0.04198	0.00338
308.15	0.2997	0.03954	0.00319
308.15	0.3999	0.03721	0.003
308.15	0.4996	0.03508	0.00283
308.15	0.5991	0.03308	0.00266
308.15	0.6997	0.03119	0.00251
308.15	0.7999	0.02945	0.00237
308.15	0.8998	0.02782	0.00224
308.15	1	0.02645	0.00213
313.15	0	0.03856	0.00311
313.15	0.1003	0.0366	0.00295
313.15	0.2001	0.03463	0.00279
313.15	0.2997	0.03276	0.00264
313.15	0.3999	0.03097	0.00249
313.15	0.4996	0.02933	0.00236
313.15	0.5991	0.02778	0.00224
313.15	0.6997	0.0263	0.00212
313.15	0.7999	0.02495	0.00201
313.15	0.8998	0.02367	0.0019
313.15	1	0.02261	0.00182
318.15	0	0.03198	0.00258
318.15	0.1003	0.03046	0.00245
318.15	0.2001	0.02893	0.00233
318.15	0.2997	0.02748	0.00221
318.15	0.3999	0.02608	0.0021
318.15	0.4996	0.0248	0.002
318.15	0.5991	0.0236	0.0019
318.15	0.6997	0.02243	0.0018
318.15	0.7999	0.02136	0.00172
318.15	0.8998	0.02035	0.00164
318.15	1	0.01951	0.00157
323.15	0	0.02683	0.00216
323.15	0.1003	0.02566	0.00207
323.15	0.2001	0.02447	0.00197
323.15	0.2997	0.02333	0.00188
323.15	0.3999	0.02221	0.00179
323.15	0.4996	0.0212	0.00171
323.15	0.5991	0.02024	0.00163
323.15	0.6997	0.01931	0.00155
323.15	0.7999	0.01846	0.00148
323.15	0.8998	0.01765	0.00142
323.15	1	0.017	0.00137
328.15	0	0.02277	0.00183
328.15	0.1003	0.02185	0.00176
328.15	0.2001	0.02091	0.00168
328.15	0.2997	0.02001	0.00161
328.15	0.3999	0.0191	0.00154
328.15	0.4996	0.0183	0.00147
328.15	0.5991	0.01752	0.00141
328.15	0.6997	0.01678	0.00135
328.15	0.7999	0.01607	0.00129
328.15	0.8998	0.01543	0.00124
328.15	1	0.01492	0.0012
333.15	0	0.01954	0.00157
333.15	0.1003	0.0188	0.00151
333.15	0.2001	0.01805	0.00145
333.15	0.2997	0.01732	0.00139
333.15	0.3999	0.01657	0.00133
333.15	0.4996	0.01592	0.00128
333.15	0.5991	0.01529	0.00123
333.15	0.6997	0.01467	0.00118
333.15	0.7999	0.0141	0.00113
333.15	0.8998	0.01358	0.00109
333.15	1	0.0132	0.00106
338.15	0	0.01692	0.00136
338.15	0.1003	0.01633	0.00131
338.15	0.2001	0.01572	0.00126
338.15	0.2997	0.01512	0.00122
338.15	0.3999	0.01449	0.00116
338.15	0.4996	0.01396	0.00112
338.15	0.5991	0.01343	0.00108
338.15	0.6997	0.01294	0.00104
338.15	0.7999	0.01246	0.001
338.15	0.8998	0.01204	0.00097
338.15	1	0.01176	0.00094
343.15	0	0.01477	0.00119
343.15	0.1003	0.0143	0.00115
343.15	0.2001	0.0138	0.00111
343.15	0.2997	0.0133	0.00107
343.15	0.3999	0.01277	0.00103
343.15	0.4996	0.01232	0.00099
343.15	0.5991	0.01189	0.00096
343.15	0.6997	0.01147	0.00092
343.15	0.7999	0.01107	0.00089
343.15	0.8998	0.01074	0.00086
343.15	1	0.01054	0.00085

System: 1-hexyl-3-methylimidazolium tetrafluoroborate + 1-propyl-3-methylimidazolium tetrafluoroborate; phases: Liquid
Fixed: Pressure, kPa = 101
Property: Mass density, kg/m3 (Liquid); method: Vibrating tube method
Temperature, K	Mole fraction of 1-propyl-3-methylimidazolium tetrafluoroborate	Mass density, kg/m3	uncertainty
293.15	0	1147.5	1.1
293.15	0.1006	1154.7	1.1
293.15	0.2005	1162.5	1.1
293.15	0.2995	1170.4	1.1
293.15	0.3996	1179.1	1.1
293.15	0.4991	1188.1	1.1
293.15	0.601	1197.2	1.1
293.15	0.7001	1207.1	1.1
293.15	0.8	1217.3	1.1
293.15	0.8987	1228	1.1
293.15	1	1239.3	1.1
298.15	0	1144.1	1.1
298.15	0.1006	1151.2	1.1
298.15	0.2005	1159.1	1.1
298.15	0.2995	1167.1	1.1
298.15	0.3996	1175.6	1.1
298.15	0.4991	1184.5	1.1
298.15	0.601	1193.7	1.1
298.15	0.7001	1203.6	1.1
298.15	0.8	1213.9	1.1
298.15	0.8987	1224.5	1.1
298.15	1	1235.7	1.1
303.15	0	1140.6	1
303.15	0.1006	1147.8	1.1
303.15	0.2005	1155.6	1.1
303.15	0.2995	1163.5	1.1
303.15	0.3996	1172	1.1
303.15	0.4991	1181	1.1
303.15	0.601	1190.2	1.1
303.15	0.7001	1200	1
303.15	0.8	1210.2	1.1
303.15	0.8987	1220.8	1.1
303.15	1	1232	1.1
308.15	0	1137.2	1
308.15	0.1006	1144.4	1.1
308.15	0.2005	1152.1	1.1
308.15	0.2995	1160.1	1.1
308.15	0.3996	1168.6	1.1
308.15	0.4991	1177.4	1.1
308.15	0.601	1186.7	1.1
308.15	0.7001	1196.4	1.1
308.15	0.8	1206.6	1.1
308.15	0.8987	1217.2	1.1
308.15	1	1228.3	1.1
313.15	0	1133.7	1
313.15	0.1006	1141	1
313.15	0.2005	1148.6	1.1
313.15	0.2995	1156.6	1.1
313.15	0.3996	1165.1	1.1
313.15	0.4991	1173.9	1.1
313.15	0.601	1183.2	1.1
313.15	0.7001	1192.8	1.1
313.15	0.8	1203	1.1
313.15	0.8987	1213.5	1.1
313.15	1	1224.7	1.1
318.15	0	1130.3	1
318.15	0.1006	1137.6	1
318.15	0.2005	1145.2	1.1
318.15	0.2995	1153.1	1.1
318.15	0.3996	1161.6	1.1
318.15	0.4991	1170.4	1.1
318.15	0.601	1179.7	1.1
318.15	0.7001	1189.3	1.1
318.15	0.8	1199.4	1.1
318.15	0.8987	1209.9	1.1
318.15	1	1221	1.1
323.15	0	1127	1
323.15	0.1006	1134.2	1
323.15	0.2005	1141.7	1.1
323.15	0.2995	1149.6	1.1
323.15	0.3996	1158.1	1.1
323.15	0.4991	1166.9	1.1
323.15	0.601	1176.1	1.1
323.15	0.7001	1185.8	1.1
323.15	0.8	1195.8	1.1
323.15	0.8987	1206.2	1.1
323.15	1	1217.4	1.1
328.15	0	1123.6	1
328.15	0.1006	1130.8	1
328.15	0.2005	1138.3	1
328.15	0.2995	1146.2	1.1
328.15	0.3996	1154.7	1.1
328.15	0.4991	1163.4	1.1
328.15	0.601	1172.6	1.1
328.15	0.7001	1182.3	1.1
328.15	0.8	1192.1	1.1
328.15	0.8987	1202.7	1.1
328.15	1	1213.8	1.1
333.15	0	1120.2	1
333.15	0.1006	1127.4	1
333.15	0.2005	1134.9	1
333.15	0.2995	1142.7	1.1
333.15	0.3996	1151.3	1.1
333.15	0.4991	1159.9	1.1
333.15	0.601	1169.2	1.1
333.15	0.7001	1178.7	1.1
333.15	0.8	1188.6	1.1
333.15	0.8987	1199.1	1.1
333.15	1	1210.2	1.1
338.15	0	1116.8	1
338.15	0.1006	1124.1	1
338.15	0.2005	1131.5	1
338.15	0.2995	1139.3	1
338.15	0.3996	1147.8	1.1
338.15	0.4991	1156.5	1.1
338.15	0.601	1165.7	1.1
338.15	0.7001	1175.2	1.1
338.15	0.8	1185.2	1.1
338.15	0.8987	1195.5	1.1
338.15	1	1206.6	1.1
343.15	0	1113.4	1
343.15	0.1006	1120.7	1
343.15	0.2005	1128.1	1
343.15	0.2995	1135.9	1
343.15	0.3996	1144.4	1.1
343.15	0.4991	1153	1.1
343.15	0.601	1162.2	1.1
343.15	0.7001	1171.7	1.1
343.15	0.8	1181.6	1.1
343.15	0.8987	1192	1.1
343.15	1	1203	1.1

System: 1-hexyl-3-methylimidazolium tetrafluoroborate + 1-propyl-3-methylimidazolium tetrafluoroborate; phases: Liquid
Fixed: Pressure, kPa = 101
Property: Viscosity, Pa*s (Liquid); method: Concentric cylinders viscometry
Temperature, K	Mole fraction of 1-propyl-3-methylimidazolium tetrafluoroborate	Viscosity, Pa*s	uncertainty
293.15	0	0.2804	0.0234
293.15	0.1006	0.2578	0.0215
293.15	0.2005	0.2335	0.0194
293.15	0.2995	0.2127	0.0176
293.15	0.3996	0.1959	0.0162
293.15	0.4991	0.1765	0.0145
293.15	0.601	0.1584	0.013
293.15	0.7001	0.1414	0.0116
293.15	0.8	0.1251	0.0102
293.15	0.8987	0.1102	0.009
293.15	1	0.09544	0.00774
298.15	0	0.2063	0.0171
298.15	0.1006	0.1904	0.0157
298.15	0.2005	0.1731	0.0143
298.15	0.2995	0.1585	0.013
298.15	0.3996	0.1463	0.012
298.15	0.4991	0.1325	0.0108
298.15	0.601	0.1196	0.0098
298.15	0.7001	0.1072	0.0087
298.15	0.8	0.09566	0.00777
298.15	0.8987	0.08481	0.00688
298.15	1	0.07404	0.00599
303.15	0	0.1549	0.0127
303.15	0.1006	0.1435	0.0118
303.15	0.2005	0.1311	0.0107
303.15	0.2995	0.1205	0.0098
303.15	0.3996	0.1116	0.0091
303.15	0.4991	0.1016	0.0083
303.15	0.601	0.09216	0.00748
303.15	0.7001	0.08312	0.00674
303.15	0.8	0.07461	0.00604
303.15	0.8987	0.06657	0.00538
303.15	1	0.05859	0.00473
308.15	0	0.1187	0.0097
308.15	0.1006	0.1103	0.009
308.15	0.2005	0.1012	0.0082
308.15	0.2995	0.09337	0.00758
308.15	0.3996	0.08679	0.00703
308.15	0.4991	0.07934	0.00642
308.15	0.601	0.07234	0.00585
308.15	0.7001	0.06559	0.0053
308.15	0.8	0.05923	0.00478
308.15	0.8987	0.05319	0.00429
308.15	1	0.04716	0.0038
313.15	0	0.09256	0.00751
313.15	0.1006	0.08632	0.00699
313.15	0.2005	0.07947	0.00643
313.15	0.2995	0.07361	0.00595
313.15	0.3996	0.06866	0.00555
313.15	0.4991	0.06307	0.00509
313.15	0.601	0.05775	0.00466
313.15	0.7001	0.05263	0.00424
313.15	0.8	0.04779	0.00385
313.15	0.8987	0.04319	0.00348
313.15	1	0.03856	0.00311
318.15	0	0.07337	0.00593
318.15	0.1006	0.06862	0.00554
318.15	0.2005	0.06343	0.00512
318.15	0.2995	0.05896	0.00476
318.15	0.3996	0.05518	0.00445
318.15	0.4991	0.05091	0.0041
318.15	0.601	0.0468	0.00377
318.15	0.7001	0.04287	0.00346
318.15	0.8	0.03914	0.00315
318.15	0.8987	0.03556	0.00287
318.15	1	0.03198	0.00258
323.15	0	0.05903	0.00476
323.15	0.1006	0.05536	0.00446
323.15	0.2005	0.05135	0.00414
323.15	0.2995	0.0479	0.00386
323.15	0.3996	0.04499	0.00363
323.15	0.4991	0.04166	0.00336
323.15	0.601	0.03847	0.0031
323.15	0.7001	0.03541	0.00285
323.15	0.8	0.03248	0.00262
323.15	0.8987	0.02967	0.00239
323.15	1	0.02683	0.00216
328.15	0	0.04816	0.00388
328.15	0.1006	0.04526	0.00365
328.15	0.2005	0.04213	0.0034
328.15	0.2995	0.03943	0.00318
328.15	0.3996	0.03715	0.00299
328.15	0.4991	0.03453	0.00278
328.15	0.601	0.03202	0.00258
328.15	0.7001	0.02961	0.00238
328.15	0.8	0.02728	0.0022
328.15	0.8987	0.02504	0.00202
328.15	1	0.02277	0.00183
333.15	0	0.03971	0.0032
333.15	0.1006	0.03744	0.00302
333.15	0.2005	0.03497	0.00282
333.15	0.2995	0.03283	0.00264
333.15	0.3996	0.03104	0.0025
333.15	0.4991	0.02895	0.00233
333.15	0.601	0.02695	0.00217
333.15	0.7001	0.02503	0.00201
333.15	0.8	0.02315	0.00186
333.15	0.8987	0.02137	0.00172
333.15	1	0.01954	0.00157
338.15	0	0.03321	0.00267
338.15	0.1006	0.03131	0.00252
338.15	0.2005	0.02933	0.00236
338.15	0.2995	0.02763	0.00222
338.15	0.3996	0.02621	0.00211
338.15	0.4991	0.02453	0.00197
338.15	0.601	0.02292	0.00184
338.15	0.7001	0.02138	0.00172
338.15	0.8	0.01985	0.0016
338.15	0.8987	0.0184	0.00148
338.15	1	0.01692	0.00136
343.15	0	0.02803	0.00226
343.15	0.1006	0.02645	0.00213
343.15	0.2005	0.02483	0.002
343.15	0.2995	0.02346	0.00189
343.15	0.3996	0.0223	0.0018
343.15	0.4991	0.02096	0.00169
343.15	0.601	0.01965	0.00158
343.15	0.7001	0.0184	0.00148
343.15	0.8	0.01719	0.00138
343.15	0.8987	0.01598	0.00129
343.15	1	0.01477	0.00119

System: 1-ethyl-3-methylimidazolium tetrafluoroborate + 1-hexyl-3-methylimidazolium tetrafluoroborate; phases: Liquid
Fixed: Pressure, kPa = 101
Property: Mass density, kg/m3 (Liquid); method: Vibrating tube method
Temperature, K	Mole fraction of 1-ethyl-3-methylimidazolium tetrafluoroborate	Mass density, kg/m3	uncertainty
293.15	0	1147.5	1.1
293.15	0.1009	1157.3	1.1
293.15	0.2005	1168.1	1.1
293.15	0.3003	1179.5	1.1
293.15	0.4001	1191.4	1.1
293.15	0.4999	1204.3	1.1
293.15	0.6007	1218.1	1.1
293.15	0.7004	1232.7	1.1
293.15	0.8001	1248.5	1.1
293.15	0.8998	1265.3	1.1
293.15	1	1283.9	1.1
298.15	0	1144.1	1.1
298.15	0.1009	1153.9	1.1
298.15	0.2005	1164.7	1.1
298.15	0.3003	1176.1	1.1
298.15	0.4001	1188	1.1
298.15	0.4999	1200.8	1.1
298.15	0.6007	1214.6	1.1
298.15	0.7004	1229.1	1.1
298.15	0.8001	1244.9	1.1
298.15	0.8998	1261.7	1.1
298.15	1	1280	1.1
303.15	0	1140.6	1
303.15	0.1009	1150.5	1.1
303.15	0.2005	1161.2	1.1
303.15	0.3003	1172.5	1.1
303.15	0.4001	1184.4	1.1
303.15	0.4999	1197.2	1.1
303.15	0.6007	1211	1.1
303.15	0.7004	1225.5	1.1
303.15	0.8001	1241.2	1.1
303.15	0.8998	1257.9	1.1
303.15	1	1276.2	1.1
308.15	0	1137.2	1
308.15	0.1009	1147.1	1.1
308.15	0.2005	1157.8	1.1
308.15	0.3003	1169	1.1
308.15	0.4001	1180.9	1.1
308.15	0.4999	1193.6	1.1
308.15	0.6007	1207.4	1.1
308.15	0.7004	1221.8	1.1
308.15	0.8001	1237.5	1.1
308.15	0.8998	1254.2	1.1
308.15	1	1272.4	1.1
313.15	0	1133.7	1
313.15	0.1009	1143.6	1.1
313.15	0.2005	1154.3	1.1
313.15	0.3003	1165.5	1.1
313.15	0.4001	1177.4	1.1
313.15	0.4999	1190.1	1.1
313.15	0.6007	1203.8	1.1
313.15	0.7004	1218.2	1.1
313.15	0.8001	1233.8	1.1
313.15	0.8998	1250.4	1.1
313.15	1	1268.6	1.1
318.15	0	1130.3	1
318.15	0.1009	1140.3	1
318.15	0.2005	1150.9	1.1
318.15	0.3003	1162	1.1
318.15	0.4001	1173.9	1.1
318.15	0.4999	1186.5	1.1
318.15	0.6007	1200.2	1.1
318.15	0.7004	1214.6	1.1
318.15	0.8001	1230.1	1.1
318.15	0.8998	1246.7	1.1
318.15	1	1264.9	1.1
323.15	0	1127	1
323.15	0.1009	1136.9	1
323.15	0.2005	1147.4	1.1
323.15	0.3003	1158.5	1.1
323.15	0.4001	1170.4	1.1
323.15	0.4999	1183	1.1
323.15	0.6007	1196.6	1.1
323.15	0.7004	1211	1.1
323.15	0.8001	1226.4	1.1
323.15	0.8998	1242.9	1.1
323.15	1	1261.2	1.1
328.15	0	1123.6	1
328.15	0.1009	1133.5	1
328.15	0.2005	1144	1.1
328.15	0.3003	1155.1	1.1
328.15	0.4001	1166.9	1.1
328.15	0.4999	1179.4	1.1
328.15	0.6007	1192.9	1.1
328.15	0.7004	1207.4	1.1
328.15	0.8001	1222.7	1.1
328.15	0.8998	1239.2	1.1
328.15	1	1257.4	1.1
333.15	0	1120.2	1
333.15	0.1009	1130.1	1
333.15	0.2005	1140.6	1.1
333.15	0.3003	1151.6	1.1
333.15	0.4001	1163.4	1.1
333.15	0.4999	1176	1.1
333.15	0.6007	1189.5	1.1
333.15	0.7004	1203.8	1.1
333.15	0.8001	1219.1	1.1
333.15	0.8998	1235.6	1.1
333.15	1	1253.8	1.1
338.15	0	1116.8	1
338.15	0.1009	1126.7	1
338.15	0.2005	1137.2	1
338.15	0.3003	1148.2	1.1
338.15	0.4001	1160	1.1
338.15	0.4999	1172.5	1.1
338.15	0.6007	1186	1.1
338.15	0.7004	1200.2	1.1
338.15	0.8001	1215.5	1.1
338.15	0.8998	1231.9	1.1
338.15	1	1250.1	1.1
343.15	0	1113.4	1
343.15	0.1009	1123.4	1
343.15	0.2005	1133.8	1
343.15	0.3003	1144.8	1.1
343.15	0.4001	1156.5	1.1
343.15	0.4999	1169	1.1
343.15	0.6007	1182.4	1.1
343.15	0.7004	1196.7	1.1
343.15	0.8001	1212	1.1
343.15	0.8998	1228.3	1.1
343.15	1	1246.5	1.1

System: 1-ethyl-3-methylimidazolium tetrafluoroborate + 1-hexyl-3-methylimidazolium tetrafluoroborate; phases: Liquid
Fixed: Pressure, kPa = 101
Property: Viscosity, Pa*s (Liquid); method: Concentric cylinders viscometry
Temperature, K	Mole fraction of 1-ethyl-3-methylimidazolium tetrafluoroborate	Viscosity, Pa*s	uncertainty
293.15	0	0.2804	0.0234
293.15	0.1009	0.2443	0.0203
293.15	0.2005	0.2107	0.0174
293.15	0.3003	0.1796	0.0148
293.15	0.4001	0.1517	0.0124
293.15	0.4999	0.1271	0.0104
293.15	0.6007	0.105	0.0085
293.15	0.7004	0.08622	0.00698
293.15	0.8001	0.06978	0.00563
293.15	0.8998	0.05602	0.00452
293.15	1	0.04547	0.00366
298.15	0	0.2063	0.0171
298.15	0.1009	0.1808	0.0149
298.15	0.2005	0.1572	0.0129
298.15	0.3003	0.1351	0.0111
298.15	0.4001	0.1152	0.0094
298.15	0.4999	0.09748	0.00792
298.15	0.6007	0.0815	0.0066
298.15	0.7004	0.06779	0.00548
298.15	0.8001	0.0557	0.00449
298.15	0.8998	0.04542	0.00366
298.15	1	0.03746	0.00302
303.15	0	0.1549	0.0127
303.15	0.1009	0.1369	0.0112
303.15	0.2005	0.1198	0.0098
303.15	0.3003	0.1038	0.0084
303.15	0.4001	0.08933	0.00724
303.15	0.4999	0.07633	0.00618
303.15	0.6007	0.06452	0.00521
303.15	0.7004	0.05431	0.00438
303.15	0.8001	0.0452	0.00364
303.15	0.8998	0.03738	0.00301
303.15	1	0.03129	0.00252
308.15	0	0.1187	0.0097
308.15	0.1009	0.1055	0.0086
308.15	0.2005	0.09298	0.00754
308.15	0.3003	0.08123	0.00658
308.15	0.4001	0.07051	0.0057
308.15	0.4999	0.0608	0.00491
308.15	0.6007	0.05194	0.00419
308.15	0.7004	0.04418	0.00356
308.15	0.8001	0.03722	0.003
308.15	0.8998	0.03118	0.00251
308.15	1	0.02645	0.00213
313.15	0	0.09256	0.00751
313.15	0.1009	0.08273	0.0067
313.15	0.2005	0.07345	0.00594
313.15	0.3003	0.06464	0.00522
313.15	0.4001	0.05657	0.00456
313.15	0.4999	0.04922	0.00397
313.15	0.6007	0.04245	0.00342
313.15	0.7004	0.03647	0.00294
313.15	0.8001	0.03106	0.0025
313.15	0.8998	0.02632	0.00212
313.15	1	0.02261	0.00182
318.15	0	0.07337	0.00593
318.15	0.1009	0.06595	0.00532
318.15	0.2005	0.05894	0.00475
318.15	0.3003	0.05224	0.00421
318.15	0.4001	0.04608	0.00371
318.15	0.4999	0.04041	0.00326
318.15	0.6007	0.03516	0.00283
318.15	0.7004	0.03049	0.00245
318.15	0.8001	0.02623	0.00211
318.15	0.8998	0.02248	0.00181
318.15	1	0.01951	0.00157
323.15	0	0.05903	0.00476
323.15	0.1009	0.05334	0.0043
323.15	0.2005	0.04798	0.00387
323.15	0.3003	0.0428	0.00345
323.15	0.4001	0.03802	0.00306
323.15	0.4999	0.0336	0.00271
323.15	0.6007	0.02948	0.00237
323.15	0.7004	0.02579	0.00208
323.15	0.8001	0.0224	0.0018
323.15	0.8998	0.01938	0.00156
323.15	1	0.017	0.00137
328.15	0	0.04816	0.00388
328.15	0.1009	0.04373	0.00352
328.15	0.2005	0.03957	0.00319
328.15	0.3003	0.03551	0.00286
328.15	0.4001	0.03177	0.00256
328.15	0.4999	0.02827	0.00228
328.15	0.6007	0.02502	0.00201
328.15	0.7004	0.02205	0.00177
328.15	0.8001	0.01931	0.00155
328.15	0.8998	0.01685	0.00135
328.15	1	0.01492	0.0012
333.15	0	0.03971	0.0032
333.15	0.1009	0.0363	0.00292
333.15	0.2005	0.03302	0.00266
333.15	0.3003	0.02982	0.0024
333.15	0.4001	0.02683	0.00216
333.15	0.4999	0.02404	0.00193
333.15	0.6007	0.02141	0.00172
333.15	0.7004	0.01903	0.00153
333.15	0.8001	0.0168	0.00135
333.15	0.8998	0.01478	0.00119
333.15	1	0.0132	0.00106
338.15	0	0.03321	0.00267
338.15	0.1009	0.03047	0.00245
338.15	0.2005	0.02786	0.00224
338.15	0.3003	0.0253	0.00204
338.15	0.4001	0.02292	0.00184
338.15	0.4999	0.02064	0.00166
338.15	0.6007	0.01852	0.00149
338.15	0.7004	0.01656	0.00133
338.15	0.8001	0.01473	0.00118
338.15	0.8998	0.01305	0.00105
338.15	1	0.01176	0.00094
343.15	0	0.02803	0.00226
343.15	0.1009	0.02582	0.00208
343.15	0.2005	0.02374	0.00191
343.15	0.3003	0.02165	0.00174
343.15	0.4001	0.01972	0.00159
343.15	0.4999	0.01789	0.00144
343.15	0.6007	0.01611	0.0013
343.15	0.7004	0.01452	0.00117
343.15	0.8001	0.013	0.00105
343.15	0.8998	0.0116	0.00093
343.15	1	0.01054	0.00085
