Measured thermophysical data. Phase Equilibrium for the Ternary System NaH2PO4 + Na2SO4 + H2O in Aqueous Solution at 298.15 K
Source: J. Chem. Eng. Data, 2014, 10.1021/je400932e
Compound 1: sodium dihydrogen phosphate, H2NaO4P, InChI=1S/Na.H3O4P/c;1-5(2,3)4/h;(H3,1,2,3,4)/q+1;/p-1, purity 99%
Compound 2: sodium sulfate, Na2O4S, InChI=1S/2Na.H2O4S/c;;1-5(2,3)4/h;;(H2,1,2,3,4)/q2*+1;/p-2, purity 99%
Compound 3: water, H2O, InChI=1S/H2O/h1H2

System: sodium dihydrogen phosphate + water + sodium sulfate; phases: Liquid, Crystal of intercomponent compound 1
Fixed: Pressure, kPa = 100
Fixed: Temperature, K = 298.15
Property: Mass fraction of sodium sulfate (Liquid); method: Gravimetric method
Mass fraction of sodium dihydrogen phosphate	Mass fraction of sodium sulfate	uncertainty
0.4912	0	
0.4754	0.0156	0.0156
0.458	0.0362	0.02
0.448	0.0405	0.02
0.4377	0.054	0.02
0.418	0.0794	0.02

System: sodium dihydrogen phosphate + water + sodium sulfate; phases: Liquid, Crystal of intercomponent compound 1
Fixed: Pressure, kPa = 100
Fixed: Temperature, K = 298.15
Property: Mass density, kg/m3 (Liquid); method: Pycnometric method
Mass fraction of sodium dihydrogen phosphate	Mass density, kg/m3	uncertainty
0.4912	1383.7	20.2
0.4754	1385.1	20.2
0.458	1391.2	20.2
0.448	1393.3	20.2
0.4377	1398.9	20.3
0.418	1411.2	20.3

System: sodium dihydrogen phosphate + water + sodium sulfate; phases: Liquid, Crystal of intercomponent compound 1, Crystal
Property: Mass fraction of sodium dihydrogen phosphate (Liquid); method: Gravimetric
Temperature, K	Pressure, kPa	Mass fraction of sodium dihydrogen phosphate	uncertainty
298.15	100	0.3951	0.02

System: sodium dihydrogen phosphate + water + sodium sulfate; phases: Liquid, Crystal of intercomponent compound 1, Crystal
Property: Mass fraction of sodium sulfate (Liquid); method: Gravimetric
Temperature, K	Pressure, kPa	Mass fraction of sodium sulfate	uncertainty
298.15	100	0.0997	0.02

System: sodium dihydrogen phosphate + water + sodium sulfate; phases: Liquid, Crystal of intercomponent compound 1, Crystal
Property: Mass density, kg/m3 (Liquid); method: Pycnometric method
Temperature, K	Pressure, kPa	Mass density, kg/m3	uncertainty
298.15	100	1424.3	20.1

System: sodium dihydrogen phosphate + water + sodium sulfate; phases: Liquid, Crystal
Fixed: Pressure, kPa = 100
Fixed: Temperature, K = 298.15
Property: Mass fraction of sodium sulfate (Liquid); method: Gravimetric
Mass fraction of sodium dihydrogen phosphate	Mass fraction of sodium sulfate	uncertainty
0.3828	0.1055	0.02
0.3552	0.1157	0.02
0.324	0.1368	0.02
0.3054	0.145	0.02
0.2859	0.1552	0.02

System: sodium dihydrogen phosphate + water + sodium sulfate; phases: Liquid, Crystal
Fixed: Pressure, kPa = 100
Fixed: Temperature, K = 298.15
Property: Mass density, kg/m3 (Liquid); method: Pycnometric method
Mass fraction of sodium dihydrogen phosphate	Mass density, kg/m3	uncertainty
0.3828	1416.1	20.3
0.3552	1403.5	20.3
0.324	1396.3	20.3
0.3054	1385.6	20.2
0.2859	1379.1	20.2

System: sodium dihydrogen phosphate + water + sodium sulfate; phases: Liquid, Crystal, Crystal of intercomponent compound 1
Property: Mass fraction of sodium dihydrogen phosphate (Liquid); method: Gravimetric
Temperature, K	Pressure, kPa	Mass fraction of sodium dihydrogen phosphate	uncertainty
298.15	100	0.264	0.02

System: sodium dihydrogen phosphate + water + sodium sulfate; phases: Liquid, Crystal, Crystal of intercomponent compound 1
Property: Mass fraction of sodium sulfate (Liquid); method: Gravimetric
Temperature, K	Pressure, kPa	Mass fraction of sodium sulfate	uncertainty
298.15	100	0.1667	0.02

System: sodium dihydrogen phosphate + water + sodium sulfate; phases: Liquid, Crystal of intercomponent compound 1, Crystal
Property: Mass density, kg/m3 (Liquid); method: Pycnometric method
Temperature, K	Pressure, kPa	Mass density, kg/m3	uncertainty
298.15	100	1370.4	20.1

System: sodium dihydrogen phosphate + water + sodium sulfate; phases: Liquid, Crystal of intercomponent compound 1
Fixed: Pressure, kPa = 100
Fixed: Temperature, K = 298.15
Property: Mass fraction of sodium sulfate (Liquid); method: Gravimetric
Mass fraction of sodium dihydrogen phosphate	Mass fraction of sodium sulfate	uncertainty
0.2415	0.1737	0.02
0.207	0.1725	0.02
0.1866	0.1703	0.0202
0.1658	0.1664	0.02
0.1408	0.1717	0.0221
0.0903	0.2007	0.0232
0.0423	0.2295	0.023
0.027	0.2407	0.0231
0	0.2523	0.02

System: sodium dihydrogen phosphate + water + sodium sulfate; phases: Liquid, Crystal of intercomponent compound 1
Fixed: Pressure, kPa = 100
Fixed: Temperature, K = 298.15
Property: Mass density, kg/m3 (Liquid); method: Pycnometric method
Mass fraction of sodium dihydrogen phosphate	Mass density, kg/m3	uncertainty
0.2415	1352.2	27.1
0.207	1320.7	27.2
0.1866	1301.9	27.8
0.1658	1281.1	26.5
0.1408	1262.2	21.4
0.0903	1251.3	20.6
0.0423	1239.3	20.4
0.027	1235.2	20.4
0	1234.5	20
