Measured thermophysical data. Interfacial Tension of the n-Hexane Water System under the Influence of Magnetite Nanoparticles and Sodium Dodecyl Sulfate Assembly at Different Temperatures
Source: J. Chem. Eng. Data, 2014, 10.1021/je401066j
Compound 1: hexane, C6H14, InChI=1S/C6H14/c1-3-5-6-4-2/h3-6H2,1-2H3, purity 99%
Compound 2: water, H2O, InChI=1S/H2O/h1H2, purity 99.8%

System: hexane + water; phases: Liquid mixture 1, Liquid mixture 2
Fixed: Pressure, kPa = 101
Property: Interfacial tension, N/m (Liquid mixture 1); method: Drop volume
Temperature, K	Interfacial tension, N/m	uncertainty
288.2	0.0514	0.0004
293.2	0.051	0.0004
298.2	0.0507	0.0004
303.2	0.0504	0.0004
308.2	0.0502	0.0004

System: hexane + water; phases: Liquid mixture 1, Liquid
Fixed: Pressure, kPa = 101
Property: Mass density, kg/m3 (Liquid mixture 1); method: Vibrating tube method
Temperature, K	Mass density, kg/m3	uncertainty
288.2	664.11	0.19
293.2	659.62	0.2
298.2	655.1	0.2
303.2	650.54	0.2
308.2	645.93	0.2

System: hexane + water; phases: Liquid mixture 2, Liquid
Fixed: Pressure, kPa = 101
Property: Mass density, kg/m3 (Liquid mixture 2); method: Vibrating tube method
Temperature, K	Mass density, kg/m3	uncertainty
288.2	999.13	0.1
293.2	998.23	0.1
298.2	997.07	0.1
303.2	995.68	0.1
308.2	994.06	0.1
