Measured thermophysical data. Density, Viscosity, Surface Tension, and Refractive Index for Binary Mixtures of 1,3-Dimethyladamantane with Four C10 Alkanes
Source: J. Chem. Eng. Data, 2014, 10.1021/je4008926
Compound 1: 1,3-dimethyladamantane, C12H20, InChI=1S/C12H20/c1-11-4-9-3-10(5-11)7-12(2,6-9)8-11/h9-10H,3-8H2,1-2H3, purity 99%
Compound 2: butylcyclohexane, C10H20, InChI=1S/C10H20/c1-2-3-7-10-8-5-4-6-9-10/h10H,2-9H2,1H3, purity 99%
Compound 3: decane, C10H22, InChI=1S/C10H22/c1-3-5-7-9-10-8-6-4-2/h3-10H2,1-2H3, purity 99%
Compound 4: decahydronaphthalene, C10H18, InChI=1S/C10H18/c1-2-6-10-8-4-3-7-9(10)5-1/h9-10H,1-8H2, purity 99%
Compound 5: exo-tetrahydrodicyclopentadiene, C10H16, InChI=1S/C10H16/c1-2-9-7-4-5-8(6-7)10(9)3-1/h7-10H,1-6H2/t7-,8+,9+,10-, purity 98%

System: 1,3-dimethyladamantane; phases: Liquid
Fixed: Pressure, kPa = 100
Property: Mass density, kg/m3 (Liquid); method: Vibrating tube method
Temperature, K	Mass density, kg/m3	uncertainty
293.15	901.65	0.12
298.15	898.09	0.12
303.15	894.53	0.12
313.15	887.41	0.13
323.15	880.17	0.13
333.15	872.99	0.13
343.15	865.77	0.13
353.15	858.52	0.13
363.15	851.23	0.13

System: 1,3-dimethyladamantane; phases: Liquid
Fixed: Pressure, kPa = 100
Property: Viscosity, Pa*s (Liquid); method: Concentric cylinders viscometry
Temperature, K	Viscosity, Pa*s	uncertainty
293.15	0.003779	1.7e-05
298.15	0.003371	1.6e-05
303.15	0.003027	1.5e-05
313.15	0.002475	1.4e-05
323.15	0.00205	1.2e-05
333.15	0.001734	1.2e-05
343.15	0.001485	1.1e-05
353.15	0.001288	1.1e-05
363.15	0.001127	1.1e-05

System: 1,3-dimethyladamantane; phases: Liquid
Fixed: Pressure, kPa = 101.325
Property: Refractive index (Na D-line) (Liquid); method: Standard Abbe refractometry
Temperature, K	Refractive index (Na D-line)	uncertainty
293.15	1.4779	0.001
298.15	1.4759	0.001
303.15	1.474	0.001
313.15	1.4699	0.001

System: butylcyclohexane; phases: Liquid
Fixed: Pressure, kPa = 100
Property: Mass density, kg/m3 (Liquid); method: Vibrating tube method
Temperature, K	Mass density, kg/m3	uncertainty
293.15	799.47	0.16
298.15	795.71	0.16
303.15	791.96	0.16
313.15	784.43	0.16
323.15	777.16	0.16
333.15	769.55	0.16
343.15	761.88	0.16
353.15	754.16	0.17
363.15	746.38	0.17

System: butylcyclohexane; phases: Liquid
Fixed: Pressure, kPa = 100
Property: Viscosity, Pa*s (Liquid); method: Concentric cylinders viscometry
Temperature, K	Viscosity, Pa*s	uncertainty
293.15	0.001302	1.1e-05
298.15	0.0012	1.1e-05
303.15	0.001111	1.1e-05
313.15	0.000962	1e-05
323.15	0.000835	1e-05
333.15	0.000741	1e-05
343.15	0.000663	1e-05
353.15	0.000601	1e-05
363.15	0.000547	1e-05

System: butylcyclohexane; phases: Liquid
Fixed: Pressure, kPa = 101.325
Property: Refractive index (Na D-line) (Liquid); method: Standard Abbe refractometry
Temperature, K	Refractive index (Na D-line)	uncertainty
293.15	1.4398	0.001
298.15	1.4381	0.001
303.15	1.4351	0.001
313.15	1.4312	0.001

System: decane; phases: Liquid
Fixed: Pressure, kPa = 100
Property: Mass density, kg/m3 (Liquid); method: Vibrating tube method
Temperature, K	Mass density, kg/m3	uncertainty
293.15	730.53	0.19
298.15	726.75	0.19
303.15	722.96	0.19
313.15	715.36	0.19
323.15	708.42	0.19
333.15	700.69	0.2
343.15	692.88	0.2
353.15	685	0.2
363.15	677.03	0.2

System: decane; phases: Liquid
Fixed: Pressure, kPa = 100
Property: Viscosity, Pa*s (Liquid); method: Concentric cylinders viscometry
Temperature, K	Viscosity, Pa*s	uncertainty
293.15	0.000928	1e-05
298.15	0.000864	1e-05
303.15	0.000807	1e-05
313.15	0.000709	1e-05
323.15	0.000625	1e-05
333.15	0.000563	1e-05
343.15	0.000511	1e-05
353.15	0.000469	9e-06
363.15	0.000433	9e-06

System: decane; phases: Liquid
Fixed: Pressure, kPa = 101.325
Property: Refractive index (Na D-line) (Liquid); method: Standard Abbe refractometry
Temperature, K	Refractive index (Na D-line)	uncertainty
293.15	1.4115	0.001
298.15	1.4095	0.001
303.15	1.4067	0.001
313.15	1.4023	0.001

System: decahydronaphthalene; phases: Liquid
Fixed: Pressure, kPa = 100
Property: Mass density, kg/m3 (Liquid); method: Vibrating tube method
Temperature, K	Mass density, kg/m3	uncertainty
293.15	880.46	0.12
298.15	876.72	0.13
303.15	872.96	0.13
313.15	865.43	0.13
323.15	857.01	0.13
333.15	849.45	0.13
343.15	841.87	0.13
353.15	834.26	0.13
363.15	826.61	0.14

System: decahydronaphthalene; phases: Liquid
Fixed: Pressure, kPa = 100
Property: Viscosity, Pa*s (Liquid); method: Concentric cylinders viscometry
Temperature, K	Viscosity, Pa*s	uncertainty
293.15	0.002507	1.3e-05
298.15	0.002272	1.3e-05
303.15	0.00207	1.2e-05
313.15	0.001741	1.2e-05
323.15	0.001457	1.1e-05
333.15	0.00126	1.1e-05
343.15	0.001102	1e-05
353.15	0.000973	1e-05
363.15	0.000866	1e-05

System: decahydronaphthalene; phases: Liquid
Fixed: Pressure, kPa = 101.325
Property: Refractive index (Na D-line) (Liquid); method: Standard Abbe refractometry
Temperature, K	Refractive index (Na D-line)	uncertainty
293.15	1.4731	0.001
298.15	1.4711	0.001
303.15	1.4685	0.001
313.15	1.4645	0.001

System: exo-tetrahydrodicyclopentadiene; phases: Liquid
Fixed: Pressure, kPa = 100
Property: Mass density, kg/m3 (Liquid); method: Vibrating tube method
Temperature, K	Mass density, kg/m3	uncertainty
293.15	935.74	0.45
298.15	931.86	0.45
303.15	927.95	0.45
313.15	920.13	0.44
323.15	912.14	0.44
333.15	904.25	0.44
343.15	896.32	0.43
353.15	888.34	0.43
363.15	880.32	0.43

System: exo-tetrahydrodicyclopentadiene; phases: Liquid
Fixed: Pressure, kPa = 100
Property: Viscosity, Pa*s (Liquid); method: Concentric cylinders viscometry
Temperature, K	Viscosity, Pa*s	uncertainty
293.15	0.003078	2.7e-05
298.15	0.002785	2.5e-05
303.15	0.002535	2.3e-05
313.15	0.002125	2e-05
323.15	0.001762	1.8e-05
333.15	0.001514	1.6e-05
343.15	0.001318	1.5e-05
353.15	0.001159	1.4e-05
363.15	0.001029	1.3e-05

System: exo-tetrahydrodicyclopentadiene; phases: Liquid
Fixed: Pressure, kPa = 101.325
Property: Refractive index (Na D-line) (Liquid); method: Standard Abbe refractometry
Temperature, K	Refractive index (Na D-line)	uncertainty
293.15	1.4878	0.0011
298.15	1.4855	0.0011
303.15	1.4829	0.0011
313.15	1.4789	0.0011

System: decane + 1,3-dimethyladamantane; phases: Liquid
Fixed: Pressure, kPa = 100
Property: Mass density, kg/m3 (Liquid); method: Vibrating tube method
Temperature, K	Mole fraction of 1,3-dimethyladamantane	Mass density, kg/m3	uncertainty
293.15	0	730.53	0.19
293.15	0.1028	747.78	0.18
293.15	0.1981	763.95	0.18
293.15	0.3019	781.66	0.17
293.15	0.3998	798.47	0.16
293.15	0.4996	815.66	0.16
293.15	0.6018	833.34	0.15
293.15	0.6968	849.74	0.14
293.15	0.7904	865.83	0.14
293.15	0.895	883.79	0.13
293.15	1	901.65	0.12
298.15	0	726.75	0.19
298.15	0.1028	744.02	0.18
298.15	0.1981	760.21	0.18
298.15	0.3019	777.93	0.17
298.15	0.3998	794.74	0.16
298.15	0.4996	811.94	0.16
298.15	0.6018	829.64	0.15
298.15	0.6968	846.08	0.14
298.15	0.7904	862.19	0.14
298.15	0.895	880.18	0.13
298.15	1	898.09	0.12
303.15	0	722.96	0.19
303.15	0.1028	740.25	0.19
303.15	0.1981	756.45	0.18
303.15	0.3019	774.17	0.17
303.15	0.3998	791.01	0.16
303.15	0.4996	808.22	0.16
303.15	0.6018	825.94	0.15
303.15	0.6968	842.39	0.14
303.15	0.7904	858.54	0.14
303.15	0.895	876.56	0.13
303.15	1	894.53	0.12
313.15	0	715.36	0.19
313.15	0.1028	732.65	0.19
313.15	0.1981	748.88	0.18
313.15	0.3019	766.64	0.17
313.15	0.3998	783.49	0.17
313.15	0.4996	800.74	0.16
313.15	0.6018	818.5	0.15
313.15	0.6968	835.01	0.15
313.15	0.7904	851.22	0.14
313.15	0.895	869.33	0.14
313.15	1	887.41	0.13
323.15	0	708.42	0.19
323.15	0.1028	725.8	0.19
323.15	0.1981	741.92	0.18
323.15	0.3019	759.64	0.17
323.15	0.3998	776.4	0.17
323.15	0.4996	793.58	0.16
323.15	0.6018	811.29	0.15
323.15	0.6968	827.8	0.15
323.15	0.7904	844	0.14
323.15	0.895	862.1	0.14
323.15	1	880.17	0.13
333.15	0	700.69	0.2
333.15	0.1028	718.1	0.19
333.15	0.1981	734.29	0.18
333.15	0.3019	751.98	0.18
333.15	0.3998	768.74	0.17
333.15	0.4996	785.91	0.16
333.15	0.6018	803.71	0.16
333.15	0.6968	820.26	0.15
333.15	0.7904	836.62	0.14
333.15	0.895	854.83	0.14
333.15	1	872.99	0.13
343.15	0	692.88	0.2
343.15	0.1028	710.39	0.19
343.15	0.1981	726.63	0.19
343.15	0.3019	744.3	0.18
343.15	0.3998	761.13	0.17
343.15	0.4996	778.4	0.16
343.15	0.6018	796.22	0.16
343.15	0.6968	812.86	0.15
343.15	0.7904	829.22	0.15
343.15	0.895	847.5	0.14
343.15	1	865.77	0.13
353.15	0	685	0.2
353.15	0.1028	702.52	0.19
353.15	0.1981	718.78	0.19
353.15	0.3019	736.51	0.18
353.15	0.3998	753.36	0.17
353.15	0.4996	770.7	0.17
353.15	0.6018	788.59	0.16
353.15	0.6968	805.28	0.15
353.15	0.7904	821.7	0.15
353.15	0.895	840.13	0.14
353.15	1	858.52	0.13
363.15	0	677.03	0.2
363.15	0.1028	694.62	0.2
363.15	0.1981	710.92	0.19
363.15	0.3019	728.68	0.18
363.15	0.3998	745.57	0.18
363.15	0.4996	762.97	0.17
363.15	0.6018	780.94	0.16
363.15	0.6968	797.71	0.16
363.15	0.7904	814.23	0.15
363.15	0.895	832.71	0.14
363.15	1	851.23	0.13

System: decane + 1,3-dimethyladamantane; phases: Liquid
Fixed: Pressure, kPa = 100
Property: Viscosity, Pa*s (Liquid); method: Concentric cylinders viscometry
Temperature, K	Mole fraction of 1,3-dimethyladamantane	Viscosity, Pa*s	uncertainty
293.15	0	0.000928	1e-05
293.15	0.1028	0.001016	1.1e-05
293.15	0.1981	0.00112	1.1e-05
293.15	0.3019	0.001253	1.1e-05
293.15	0.3998	0.001402	1.1e-05
293.15	0.4996	0.001581	1.2e-05
293.15	0.6018	0.001828	1.2e-05
293.15	0.6968	0.002125	1.3e-05
293.15	0.7904	0.002491	1.4e-05
293.15	0.895	0.003031	1.5e-05
293.15	1	0.003779	1.7e-05
298.15	0	0.000864	1e-05
298.15	0.1028	0.000942	1e-05
298.15	0.1981	0.001035	1.1e-05
298.15	0.3019	0.001154	1.1e-05
298.15	0.3998	0.001287	1.1e-05
298.15	0.4996	0.001445	1.1e-05
298.15	0.6018	0.001665	1.2e-05
298.15	0.6968	0.001926	1.2e-05
298.15	0.7904	0.002247	1.3e-05
298.15	0.895	0.002719	1.4e-05
298.15	1	0.003371	1.6e-05
303.15	0	0.000807	1e-05
303.15	0.1028	0.000877	1e-05
303.15	0.1981	0.000961	1e-05
303.15	0.3019	0.001069	1.1e-05
303.15	0.3998	0.001187	1.1e-05
303.15	0.4996	0.001328	1.1e-05
303.15	0.6018	0.001526	1.2e-05
303.15	0.6968	0.001757	1.2e-05
303.15	0.7904	0.00204	1.3e-05
303.15	0.895	0.002456	1.4e-05
303.15	1	0.003027	1.5e-05
313.15	0	0.000709	1e-05
313.15	0.1028	0.000767	1e-05
313.15	0.1981	0.000837	1e-05
313.15	0.3019	0.000926	1e-05
313.15	0.3998	0.001023	1.1e-05
313.15	0.4996	0.001137	1.1e-05
313.15	0.6018	0.001295	1.1e-05
313.15	0.6968	0.00148	1.1e-05
313.15	0.7904	0.001704	1.2e-05
313.15	0.895	0.002032	1.3e-05
313.15	1	0.002475	1.4e-05
323.15	0	0.000625	1e-05
323.15	0.1028	0.000672	1e-05
323.15	0.1981	0.000729	1e-05
323.15	0.3019	0.000797	1e-05
323.15	0.3998	0.000879	1e-05
323.15	0.4996	0.000972	1e-05
323.15	0.6018	0.001098	1.1e-05
323.15	0.6968	0.001237	1.1e-05
323.15	0.7904	0.001421	1.1e-05
323.15	0.895	0.001676	1.2e-05
323.15	1	0.00205	1.2e-05
333.15	0	0.000563	1e-05
333.15	0.1028	0.000603	1e-05
333.15	0.1981	0.00065	1e-05
333.15	0.3019	0.000708	1e-05
333.15	0.3998	0.000776	1e-05
333.15	0.4996	0.000853	1e-05
333.15	0.6018	0.000957	1e-05
333.15	0.6968	0.001072	1.1e-05
333.15	0.7904	0.001223	1.1e-05
333.15	0.895	0.001432	1.1e-05
333.15	1	0.001734	1.2e-05
343.15	0	0.000511	1e-05
343.15	0.1028	0.000546	1e-05
343.15	0.1981	0.000586	1e-05
343.15	0.3019	0.000635	1e-05
343.15	0.3998	0.000692	1e-05
343.15	0.4996	0.000757	1e-05
343.15	0.6018	0.000845	1e-05
343.15	0.6968	0.00094	1e-05
343.15	0.7904	0.001066	1e-05
343.15	0.895	0.001237	1.1e-05
343.15	1	0.001485	1.1e-05
353.15	0	0.000469	9e-06
353.15	0.1028	0.000498	1e-05
353.15	0.1981	0.000533	1e-05
353.15	0.3019	0.000575	1e-05
353.15	0.3998	0.000623	1e-05
353.15	0.4996	0.000679	1e-05
353.15	0.6018	0.000753	1e-05
353.15	0.6968	0.000833	1e-05
353.15	0.7904	0.000938	1e-05
353.15	0.895	0.001084	1e-05
353.15	1	0.001288	1.1e-05
363.15	0	0.000433	9e-06
363.15	0.1028	0.000459	9e-06
363.15	0.1981	0.000489	9e-06
363.15	0.3019	0.000525	1e-05
363.15	0.3998	0.000566	1e-05
363.15	0.4996	0.000614	1e-05
363.15	0.6018	0.000678	1e-05
363.15	0.6968	0.000745	1e-05
363.15	0.7904	0.000834	1e-05
363.15	0.895	0.000956	1e-05
363.15	1	0.001127	1.1e-05

System: decane + 1,3-dimethyladamantane; phases: Liquid
Fixed: Pressure, kPa = 100
Property: Refractive index (Na D-line) (Liquid); method: Standard Abbe refractometry
Temperature, K	Mole fraction of 1,3-dimethyladamantane	Refractive index (Na D-line)	uncertainty
293.15	0	1.4115	0.001
293.15	0.1028	1.4182	0.001
293.15	0.1981	1.4245	0.001
293.15	0.3019	1.4313	0.001
293.15	0.3998	1.4378	0.001
293.15	0.4996	1.4445	0.001
293.15	0.6018	1.4514	0.001
293.15	0.6968	1.4579	0.001
293.15	0.7904	1.4641	0.001
293.15	0.895	1.471	0.001
293.15	1	1.4779	0.001
298.15	0	1.4095	0.001
298.15	0.1028	1.4161	0.001
298.15	0.1981	1.4224	0.001
298.15	0.3019	1.4292	0.001
298.15	0.3998	1.4358	0.001
298.15	0.4996	1.4425	0.001
298.15	0.6018	1.4494	0.001
298.15	0.6968	1.4558	0.001
298.15	0.7904	1.4621	0.001
298.15	0.895	1.469	0.001
298.15	1	1.4759	0.001
303.15	0	1.4067	0.001
303.15	0.1028	1.4133	0.001
303.15	0.1981	1.4196	0.001
303.15	0.3019	1.4265	0.001
303.15	0.3998	1.4332	0.001
303.15	0.4996	1.4402	0.001
303.15	0.6018	1.4472	0.001
303.15	0.6968	1.4537	0.001
303.15	0.7904	1.4601	0.001
303.15	0.895	1.4671	0.001
303.15	1	1.474	0.001
313.15	0	1.4023	0.001
313.15	0.1028	1.4092	0.001
313.15	0.1981	1.4156	0.001
313.15	0.3019	1.4225	0.001
313.15	0.3998	1.429	0.001
313.15	0.4996	1.4358	0.001
313.15	0.6018	1.4428	0.001
313.15	0.6968	1.4494	0.001
313.15	0.7904	1.4559	0.001
313.15	0.895	1.4629	0.001
313.15	1	1.4699	0.001

System: 1,3-dimethyladamantane + butylcyclohexane; phases: Liquid
Fixed: Pressure, kPa = 100
Property: Mass density, kg/m3 (Liquid); method: Vibrating tube method
Temperature, K	Mole fraction of 1,3-dimethyladamantane	Mass density, kg/m3	uncertainty
293.15	0	799.47	0.16
293.15	0.083	808.7	0.15
293.15	0.1716	818.44	0.15
293.15	0.2652	828.59	0.15
293.15	0.3625	838.96	0.14
293.15	0.4617	849.32	0.14
293.15	0.5636	859.74	0.14
293.15	0.662	869.57	0.13
293.15	0.7728	880.36	0.13
293.15	0.8838	890.9	0.13
293.15	1	901.65	0.12
298.15	0	795.71	0.16
298.15	0.083	804.96	0.15
298.15	0.1716	814.71	0.15
298.15	0.2652	824.86	0.15
298.15	0.3625	835.25	0.14
298.15	0.4617	845.62	0.14
298.15	0.5636	856.06	0.14
298.15	0.662	865.92	0.13
298.15	0.7728	876.74	0.13
298.15	0.8838	887.31	0.13
298.15	1	898.09	0.12
303.15	0	791.96	0.16
303.15	0.083	801.21	0.16
303.15	0.1716	810.97	0.15
303.15	0.2652	821.13	0.15
303.15	0.3625	831.51	0.15
303.15	0.4617	841.91	0.14
303.15	0.5636	852.36	0.14
303.15	0.662	862.24	0.13
303.15	0.7728	873.09	0.13
303.15	0.8838	883.7	0.13
303.15	1	894.53	0.12
313.15	0	784.43	0.16
313.15	0.083	793.68	0.16
313.15	0.1716	803.45	0.15
313.15	0.2652	813.64	0.15
313.15	0.3625	824.04	0.15
313.15	0.4617	834.46	0.14
313.15	0.5636	844.95	0.14
313.15	0.662	854.88	0.14
313.15	0.7728	865.8	0.13
313.15	0.8838	876.48	0.13
313.15	1	887.41	0.13
323.15	0	777.16	0.16
323.15	0.083	786.35	0.16
323.15	0.1716	796.09	0.16
323.15	0.2652	806.23	0.15
323.15	0.3625	816.62	0.15
323.15	0.4617	827.04	0.14
323.15	0.5636	837.54	0.14
323.15	0.662	847.49	0.14
323.15	0.7728	858.47	0.13
323.15	0.8838	869.2	0.13
323.15	1	880.17	0.13
333.15	0	769.55	0.16
333.15	0.083	778.74	0.16
333.15	0.1716	788.45	0.16
333.15	0.2652	798.59	0.15
333.15	0.3625	809	0.15
333.15	0.4617	819.49	0.15
333.15	0.5636	830.04	0.14
333.15	0.662	840.08	0.14
333.15	0.7728	851.11	0.14
333.15	0.8838	861.91	0.13
333.15	1	872.99	0.13
343.15	0	761.88	0.16
343.15	0.083	771.07	0.16
343.15	0.1716	780.81	0.16
343.15	0.2652	790.98	0.16
343.15	0.3625	801.41	0.15
343.15	0.4617	811.94	0.15
343.15	0.5636	822.53	0.14
343.15	0.662	832.6	0.14
343.15	0.7728	843.73	0.14
343.15	0.8838	854.61	0.13
343.15	1	865.77	0.13
353.15	0	754.16	0.17
353.15	0.083	763.36	0.16
353.15	0.1716	773.09	0.16
353.15	0.2652	783.28	0.16
353.15	0.3625	793.78	0.15
353.15	0.4617	804.37	0.15
353.15	0.5636	815	0.15
353.15	0.662	825.11	0.14
353.15	0.7728	836.31	0.14
353.15	0.8838	847.25	0.14
353.15	1	858.52	0.13
363.15	0	746.38	0.17
363.15	0.083	755.55	0.17
363.15	0.1716	765.32	0.16
363.15	0.2652	775.54	0.16
363.15	0.3625	786.1	0.16
363.15	0.4617	796.72	0.15
363.15	0.5636	807.41	0.15
363.15	0.662	817.57	0.15
363.15	0.7728	828.81	0.14
363.15	0.8838	839.87	0.14
363.15	1	851.23	0.13

System: 1,3-dimethyladamantane + butylcyclohexane; phases: Liquid
Fixed: Pressure, kPa = 100
Property: Viscosity, Pa*s (Liquid); method: Concentric cylinders viscometry
Temperature, K	Mole fraction of 1,3-dimethyladamantane	Viscosity, Pa*s	uncertainty
293.15	0	0.001302	1.1e-05
293.15	0.083	0.001407	1.1e-05
293.15	0.1716	0.001518	1.2e-05
293.15	0.2652	0.001654	1.2e-05
293.15	0.3625	0.001802	1.2e-05
293.15	0.4617	0.001989	1.3e-05
293.15	0.5636	0.002215	1.3e-05
293.15	0.662	0.002472	1.4e-05
293.15	0.7728	0.002797	1.4e-05
293.15	0.8838	0.003222	1.5e-05
293.15	1	0.003779	1.7e-05
298.15	0	0.0012	1.1e-05
298.15	0.083	0.001293	1.1e-05
298.15	0.1716	0.001391	1.1e-05
298.15	0.2652	0.001512	1.2e-05
298.15	0.3625	0.001643	1.2e-05
298.15	0.4617	0.001805	1.2e-05
298.15	0.5636	0.002007	1.3e-05
298.15	0.662	0.002229	1.3e-05
298.15	0.7728	0.002518	1.4e-05
298.15	0.8838	0.002885	1.5e-05
298.15	1	0.003371	1.6e-05
303.15	0	0.001111	1.1e-05
303.15	0.083	0.001194	1.1e-05
303.15	0.1716	0.001281	1.1e-05
303.15	0.2652	0.001389	1.1e-05
303.15	0.3625	0.001506	1.1e-05
303.15	0.4617	0.001647	1.2e-05
303.15	0.5636	0.001828	1.2e-05
303.15	0.662	0.002024	1.3e-05
303.15	0.7728	0.002272	1.3e-05
303.15	0.8838	0.002601	1.4e-05
303.15	1	0.003027	1.5e-05
313.15	0	0.000962	1e-05
313.15	0.083	0.00103	1e-05
313.15	0.1716	0.001099	1.1e-05
313.15	0.2652	0.001187	1.1e-05
313.15	0.3625	0.00128	1.1e-05
313.15	0.4617	0.001393	1.1e-05
313.15	0.5636	0.001537	1.1e-05
313.15	0.662	0.001692	1.2e-05
313.15	0.7728	0.001883	1.2e-05
313.15	0.8838	0.002145	1.3e-05
313.15	1	0.002475	1.4e-05
323.15	0	0.000835	1e-05
323.15	0.083	0.000893	1e-05
323.15	0.1716	0.000951	1e-05
323.15	0.2652	0.001008	1e-05
323.15	0.3625	0.001088	1.1e-05
323.15	0.4617	0.001182	1.1e-05
323.15	0.5636	0.001289	1.1e-05
323.15	0.662	0.001414	1.1e-05
323.15	0.7728	0.001583	1.2e-05
323.15	0.8838	0.001774	1.2e-05
323.15	1	0.00205	1.2e-05
333.15	0	0.000741	1e-05
333.15	0.083	0.00079	1e-05
333.15	0.1716	0.000831	1e-05
333.15	0.2652	0.000884	1e-05
333.15	0.3625	0.000952	1e-05
333.15	0.4617	0.001026	1e-05
333.15	0.5636	0.001115	1.1e-05
333.15	0.662	0.001218	1.1e-05
333.15	0.7728	0.001356	1.1e-05
333.15	0.8838	0.001509	1.1e-05
333.15	1	0.001734	1.2e-05
343.15	0	0.000663	1e-05
343.15	0.083	0.000704	1e-05
343.15	0.1716	0.000744	1e-05
343.15	0.2652	0.000783	1e-05
343.15	0.3625	0.00084	1e-05
343.15	0.4617	0.000903	1e-05
343.15	0.5636	0.000978	1e-05
343.15	0.662	0.001062	1e-05
343.15	0.7728	0.001176	1.1e-05
343.15	0.8838	0.001302	1.1e-05
343.15	1	0.001485	1.1e-05
353.15	0	0.000601	1e-05
353.15	0.083	0.000637	1e-05
353.15	0.1716	0.000669	1e-05
353.15	0.2652	0.000701	1e-05
353.15	0.3625	0.000751	1e-05
353.15	0.4617	0.000803	1e-05
353.15	0.5636	0.000867	1e-05
353.15	0.662	0.000937	1e-05
353.15	0.7728	0.001034	1e-05
353.15	0.8838	0.001138	1.1e-05
353.15	1	0.001288	1.1e-05
363.15	0	0.000547	1e-05
363.15	0.083	0.000578	1e-05
363.15	0.1716	0.000606	1e-05
363.15	0.2652	0.000634	1e-05
363.15	0.3625	0.000677	1e-05
363.15	0.4617	0.000721	1e-05
363.15	0.5636	0.000774	1e-05
363.15	0.662	0.000835	1e-05
363.15	0.7728	0.000915	1e-05
363.15	0.8838	0.001006	1e-05
363.15	1	0.001127	1.1e-05

System: 1,3-dimethyladamantane + butylcyclohexane; phases: Liquid
Fixed: Pressure, kPa = 100
Property: Refractive index (Na D-line) (Liquid); method: Standard Abbe refractometry
Temperature, K	Mole fraction of 1,3-dimethyladamantane	Refractive index (Na D-line)	uncertainty
293.15	0	1.4398	0.001
293.15	0.083	1.4436	0.001
293.15	0.1716	1.4473	0.001
293.15	0.2652	1.4511	0.001
293.15	0.3625	1.4548	0.001
293.15	0.4617	1.4585	0.001
293.15	0.5636	1.4623	0.001
293.15	0.662	1.4659	0.001
293.15	0.7728	1.4699	0.001
293.15	0.8838	1.4739	0.001
293.15	1	1.4779	0.001
298.15	0	1.4381	0.001
298.15	0.083	1.4417	0.001
298.15	0.1716	1.4454	0.001
298.15	0.2652	1.4492	0.001
298.15	0.3625	1.453	0.001
298.15	0.4617	1.4567	0.001
298.15	0.5636	1.4605	0.001
298.15	0.662	1.4641	0.001
298.15	0.7728	1.4681	0.001
298.15	0.8838	1.472	0.001
298.15	1	1.4759	0.001
303.15	0	1.4351	0.001
303.15	0.083	1.4387	0.001
303.15	0.1716	1.4424	0.001
303.15	0.2652	1.4463	0.001
303.15	0.3625	1.4502	0.001
303.15	0.4617	1.4541	0.001
303.15	0.5636	1.458	0.001
303.15	0.662	1.4617	0.001
303.15	0.7728	1.4658	0.001
303.15	0.8838	1.4699	0.001
303.15	1	1.474	0.001
313.15	0	1.4312	0.001
313.15	0.083	1.4347	0.001
313.15	0.1716	1.4384	0.001
313.15	0.2652	1.4423	0.001
313.15	0.3625	1.4462	0.001
313.15	0.4617	1.4501	0.001
313.15	0.5636	1.454	0.001
313.15	0.662	1.4577	0.001
313.15	0.7728	1.4618	0.001
313.15	0.8838	1.4658	0.001
313.15	1	1.4699	0.001

System: decahydronaphthalene + 1,3-dimethyladamantane; phases: Liquid
Fixed: Pressure, kPa = 100
Property: Mass density, kg/m3 (Liquid); method: Vibrating tube method
Temperature, K	Mole fraction of 1,3-dimethyladamantane	Mass density, kg/m3	uncertainty
293.15	0	880.46	0.12
293.15	0.1034	883.4	0.12
293.15	0.2043	886.08	0.12
293.15	0.305	888.58	0.12
293.15	0.4034	890.9	0.12
293.15	0.5024	893.05	0.12
293.15	0.6048	895.12	0.12
293.15	0.7046	896.98	0.12
293.15	0.8094	898.78	0.12
293.15	0.9013	900.24	0.12
293.15	1	901.65	0.12
298.15	0	876.72	0.13
298.15	0.1034	879.67	0.12
298.15	0.2043	882.35	0.12
298.15	0.305	884.87	0.12
298.15	0.4034	887.2	0.12
298.15	0.5024	889.37	0.12
298.15	0.6048	891.46	0.12
298.15	0.7046	893.35	0.12
298.15	0.8094	895.17	0.12
298.15	0.9013	896.65	0.12
298.15	1	898.09	0.12
303.15	0	872.96	0.13
303.15	0.1034	875.92	0.13
303.15	0.2043	878.61	0.13
303.15	0.305	881.15	0.12
303.15	0.4034	883.49	0.12
303.15	0.5024	885.68	0.12
303.15	0.6048	887.79	0.12
303.15	0.7046	889.71	0.12
303.15	0.8094	891.56	0.12
303.15	0.9013	893.06	0.12
303.15	1	894.53	0.12
313.15	0	865.43	0.13
313.15	0.1034	868.41	0.13
313.15	0.2043	871.13	0.13
313.15	0.305	873.7	0.13
313.15	0.4034	876.07	0.13
313.15	0.5024	878.29	0.13
313.15	0.6048	880.45	0.13
313.15	0.7046	882.41	0.13
313.15	0.8094	884.32	0.13
313.15	0.9013	885.87	0.13
313.15	1	887.41	0.13
323.15	0	857.01	0.13
323.15	0.1034	860.11	0.13
323.15	0.2043	862.96	0.13
323.15	0.305	865.65	0.13
323.15	0.4034	868.11	0.13
323.15	0.5024	870.45	0.13
323.15	0.6048	872.7	0.13
323.15	0.7046	874.79	0.13
323.15	0.8094	876.84	0.13
323.15	0.9013	878.52	0.13
323.15	1	880.17	0.13
333.15	0	849.45	0.13
333.15	0.1034	852.58	0.13
333.15	0.2043	855.43	0.13
333.15	0.305	858.14	0.13
333.15	0.4034	860.65	0.13
333.15	0.5024	863.03	0.13
333.15	0.6048	865.33	0.13
333.15	0.7046	867.46	0.13
333.15	0.8094	869.57	0.13
333.15	0.9013	871.27	0.13
333.15	1	872.99	0.13
343.15	0	841.87	0.13
343.15	0.1034	845.04	0.13
343.15	0.2043	847.92	0.13
343.15	0.305	850.66	0.13
343.15	0.4034	853.2	0.13
343.15	0.5024	855.61	0.13
343.15	0.6048	857.96	0.13
343.15	0.7046	860.1	0.13
343.15	0.8094	862.24	0.13
343.15	0.9013	864	0.13
343.15	1	865.77	0.13
353.15	0	834.26	0.13
353.15	0.1034	837.44	0.13
353.15	0.2043	840.37	0.13
353.15	0.305	843.14	0.13
353.15	0.4034	845.72	0.13
353.15	0.5024	848.16	0.13
353.15	0.6048	850.54	0.13
353.15	0.7046	852.7	0.13
353.15	0.8094	854.88	0.13
353.15	0.9013	856.7	0.13
353.15	1	858.52	0.13
363.15	0	826.61	0.14
363.15	0.1034	829.81	0.14
363.15	0.2043	832.77	0.14
363.15	0.305	835.58	0.14
363.15	0.4034	838.17	0.13
363.15	0.5024	840.65	0.13
363.15	0.6048	843.07	0.13
363.15	0.7046	845.29	0.13
363.15	0.8094	847.51	0.13
363.15	0.9013	849.36	0.13
363.15	1	851.23	0.13

System: decahydronaphthalene + 1,3-dimethyladamantane; phases: Liquid
Fixed: Pressure, kPa = 100
Property: Viscosity, Pa*s (Liquid); method: Concentric cylinders viscometry
Temperature, K	Mole fraction of 1,3-dimethyladamantane	Viscosity, Pa*s	uncertainty
293.15	0	0.002507	1.3e-05
293.15	0.1034	0.002607	1.4e-05
293.15	0.2043	0.002713	1.4e-05
293.15	0.305	0.002812	1.4e-05
293.15	0.4034	0.002919	1.4e-05
293.15	0.5024	0.003039	1.5e-05
293.15	0.6048	0.003167	1.5e-05
293.15	0.7046	0.00331	1.6e-05
293.15	0.8094	0.003465	1.6e-05
293.15	0.9013	0.003622	1.6e-05
293.15	1	0.003779	1.7e-05
298.15	0	0.002272	1.3e-05
298.15	0.1034	0.002361	1.3e-05
298.15	0.2043	0.002449	1.3e-05
298.15	0.305	0.00253	1e-05
298.15	0.4034	0.002628	1.4e-05
298.15	0.5024	0.002728	1.4e-05
298.15	0.6048	0.002844	1.4e-05
298.15	0.7046	0.002967	1.5e-05
298.15	0.8094	0.003102	1.5e-05
298.15	0.9013	0.003237	1.5e-05
298.15	1	0.003371	1.6e-05
303.15	0	0.00207	1.2e-05
303.15	0.1034	0.002148	1.3e-05
303.15	0.2043	0.002227	1.3e-05
303.15	0.305	0.002299	1.3e-05
303.15	0.4034	0.002384	1.3e-05
303.15	0.5024	0.002468	1.3e-05
303.15	0.6048	0.00257	1.4e-05
303.15	0.7046	0.002675	1.4e-05
303.15	0.8094	0.002799	1.4e-05
303.15	0.9013	0.002909	1.5e-05
303.15	1	0.003027	1.5e-05
313.15	0	0.001741	1.2e-05
313.15	0.1034	0.001802	1.2e-05
313.15	0.2043	0.00186	1.2e-05
313.15	0.305	0.001917	1.2e-05
313.15	0.4034	0.00198	1.2e-05
313.15	0.5024	0.002046	1.2e-05
313.15	0.6048	0.002125	1.3e-05
313.15	0.7046	0.002206	1.3e-05
313.15	0.8094	0.002298	1.3e-05
313.15	0.9013	0.002385	1.3e-05
313.15	1	0.002475	1.4e-05
323.15	0	0.001457	1.1e-05
323.15	0.1034	0.001505	1.1e-05
323.15	0.2043	0.001547	1.1e-05
323.15	0.305	0.001592	1.1e-05
323.15	0.4034	0.001641	1.2e-05
323.15	0.5024	0.001697	1.2e-05
323.15	0.6048	0.001759	1.2e-05
323.15	0.7046	0.001825	1.2e-05
323.15	0.8094	0.001902	1.2e-05
323.15	0.9013	0.001974	1.2e-05
323.15	1	0.00205	1.2e-05
333.15	0	0.00126	1.1e-05
333.15	0.1034	0.001298	1.1e-05
333.15	0.2043	0.001331	1.1e-05
333.15	0.305	0.001366	1.1e-05
333.15	0.4034	0.001405	1.1e-05
333.15	0.5024	0.001447	1.1e-05
333.15	0.6048	0.001498	1.1e-05
333.15	0.7046	0.00155	1.1e-05
333.15	0.8094	0.001611	1.1e-05
333.15	0.9013	0.00167	1.2e-05
333.15	1	0.001734	1.2e-05
343.15	0	0.001102	1e-05
343.15	0.1034	0.001133	1e-05
343.15	0.2043	0.00116	1.1e-05
343.15	0.305	0.00119	1.1e-05
343.15	0.4034	0.00122	1.1e-05
343.15	0.5024	0.001254	1.1e-05
343.15	0.6048	0.001294	1.1e-05
343.15	0.7046	0.001335	1.1e-05
343.15	0.8094	0.001385	1.1e-05
343.15	0.9013	0.001431	1.1e-05
343.15	1	0.001485	1.1e-05
353.15	0	0.000973	1e-05
353.15	0.1034	0.000998	1e-05
353.15	0.2043	0.001021	1e-05
353.15	0.305	0.001045	1e-05
353.15	0.4034	0.00107	1e-05
353.15	0.5024	0.001096	1e-05
353.15	0.6048	0.001129	1.1e-05
353.15	0.7046	0.001163	1.1e-05
353.15	0.8094	0.001203	1.1e-05
353.15	0.9013	0.001242	1.1e-05
353.15	1	0.001288	1.1e-05
363.15	0	0.000866	1e-05
363.15	0.1034	0.000889	1e-05
363.15	0.2043	0.000908	1e-05
363.15	0.305	0.000928	1e-05
363.15	0.4034	0.000948	1e-05
363.15	0.5024	0.000968	1e-05
363.15	0.6048	0.000995	1e-05
363.15	0.7046	0.001025	1e-05
363.15	0.8094	0.001058	1e-05
363.15	0.9013	0.001091	1e-05
363.15	1	0.001127	1.1e-05

System: decahydronaphthalene + 1,3-dimethyladamantane; phases: Liquid
Fixed: Pressure, kPa = 100
Property: Refractive index (Na D-line) (Liquid); method: Standard Abbe refractometry
Temperature, K	Mole fraction of 1,3-dimethyladamantane	Refractive index (Na D-line)	uncertainty
293.15	0	1.4731	0.001
293.15	0.1034	1.4741	0.001
293.15	0.2043	1.4748	0.001
293.15	0.305	1.4754	0.001
293.15	0.4034	1.476	0.001
293.15	0.5024	1.4765	0.001
293.15	0.6048	1.4769	0.001
293.15	0.7046	1.4773	0.001
293.15	0.8094	1.4776	0.001
293.15	0.9013	1.4778	0.001
293.15	1	1.4779	0.001
298.15	0	1.4711	0.001
298.15	0.1034	1.472	0.001
298.15	0.2043	1.4728	0.001
298.15	0.305	1.4735	0.001
298.15	0.4034	1.4741	0.001
298.15	0.5024	1.4746	0.001
298.15	0.6048	1.475	0.001
298.15	0.7046	1.4754	0.001
298.15	0.8094	1.4756	0.001
298.15	0.9013	1.4758	0.001
298.15	1	1.4759	0.001
303.15	0	1.4685	0.001
303.15	0.1034	1.4694	0.001
303.15	0.2043	1.4703	0.001
303.15	0.305	1.471	0.001
303.15	0.4034	1.4717	0.001
303.15	0.5024	1.4723	0.001
303.15	0.6048	1.4728	0.001
303.15	0.7046	1.4732	0.001
303.15	0.8094	1.4736	0.001
303.15	0.9013	1.4738	0.001
303.15	1	1.474	0.001
313.15	0	1.4645	0.001
313.15	0.1034	1.4653	0.001
313.15	0.2043	1.4661	0.001
313.15	0.305	1.4669	0.001
313.15	0.4034	1.4676	0.001
313.15	0.5024	1.4682	0.001
313.15	0.6048	1.4687	0.001
313.15	0.7046	1.4691	0.001
313.15	0.8094	1.4694	0.001
313.15	0.9013	1.4697	0.001
313.15	1	1.4699	0.001

System: 1,3-dimethyladamantane + exo-tetrahydrodicyclopentadiene; phases: Liquid
Fixed: Pressure, kPa = 100
Property: Mass density, kg/m3 (Liquid); method: Vibrating tube method
Temperature, K	Mole fraction of 1,3-dimethyladamantane	Mass density, kg/m3	uncertainty
293.15	0	935.74	0.45
293.15	0.1021	932.53	0.38
293.15	0.2015	929.3	0.32
293.15	0.3018	926.02	0.27
293.15	0.4005	922.75	0.23
293.15	0.4981	919.46	0.2
293.15	0.602	915.86	0.17
293.15	0.6998	912.46	0.15
293.15	0.8051	908.73	0.14
293.15	0.8993	905.37	0.13
293.15	1	901.65	0.12
298.15	0	931.86	0.45
298.15	0.1021	928.65	0.38
298.15	0.2015	925.47	0.32
298.15	0.3018	922.21	0.27
298.15	0.4005	918.97	0.23
298.15	0.4981	915.7	0.2
298.15	0.602	912.16	0.17
298.15	0.6998	908.78	0.15
298.15	0.8051	905.09	0.14
298.15	0.8993	901.77	0.13
298.15	1	898.09	0.12
303.15	0	927.95	0.45
303.15	0.1021	924.77	0.38
303.15	0.2015	921.62	0.32
303.15	0.3018	918.39	0.27
303.15	0.4005	915.18	0.23
303.15	0.4981	911.94	0.2
303.15	0.602	908.44	0.17
303.15	0.6998	905.1	0.15
303.15	0.8051	901.44	0.14
303.15	0.8993	898.17	0.13
303.15	1	894.53	0.12
313.15	0	920.13	0.44
313.15	0.1021	917	0.38
313.15	0.2015	913.9	0.32
313.15	0.3018	910.74	0.27
313.15	0.4005	907.59	0.23
313.15	0.4981	904.42	0.2
313.15	0.602	900.99	0.17
313.15	0.6998	897.72	0.15
313.15	0.8051	894.14	0.14
313.15	0.8993	890.95	0.13
313.15	1	887.41	0.13
323.15	0	912.14	0.44
323.15	0.1021	909.07	0.37
323.15	0.2015	906.03	0.32
323.15	0.3018	902.94	0.27
323.15	0.4005	899.87	0.23
323.15	0.4981	896.79	0.2
323.15	0.602	893.43	0.17
323.15	0.6998	890.22	0.15
323.15	0.8051	886.7	0.14
323.15	0.8993	883.52	0.13
323.15	1	880.17	0.13
333.15	0	904.25	0.44
333.15	0.1021	901.23	0.37
333.15	0.2015	898.29	0.32
333.15	0.3018	895.27	0.27
333.15	0.4005	892.27	0.23
333.15	0.4981	889.26	0.2
333.15	0.602	885.96	0.17
333.15	0.6998	882.83	0.16
333.15	0.8051	879.37	0.14
333.15	0.8993	876.25	0.13
333.15	1	872.99	0.13
343.15	0	896.32	0.43
343.15	0.1021	893.35	0.37
343.15	0.2015	890.46	0.32
343.15	0.3018	887.5	0.27
343.15	0.4005	884.56	0.23
343.15	0.4981	881.59	0.2
343.15	0.602	878.37	0.18
343.15	0.6998	875.32	0.16
343.15	0.8051	871.98	0.14
343.15	0.8993	868.95	0.14
343.15	1	865.77	0.13
353.15	0	888.34	0.43
353.15	0.1021	885.44	0.37
353.15	0.2015	882.61	0.31
353.15	0.3018	879.71	0.27
353.15	0.4005	876.84	0.23
353.15	0.4981	873.94	0.2
353.15	0.602	870.82	0.18
353.15	0.6998	867.82	0.16
353.15	0.8051	864.58	0.15
353.15	0.8993	861.67	0.14
353.15	1	858.52	0.13
363.15	0	880.32	0.43
363.15	0.1021	877.45	0.37
363.15	0.2015	874.71	0.31
363.15	0.3018	871.87	0.27
363.15	0.4005	869.05	0.23
363.15	0.4981	866.24	0.2
363.15	0.602	863.18	0.18
363.15	0.6998	860.28	0.16
363.15	0.8051	857.12	0.15
363.15	0.8993	854.29	0.14
363.15	1	851.23	0.13

System: 1,3-dimethyladamantane + exo-tetrahydrodicyclopentadiene; phases: Liquid
Fixed: Pressure, kPa = 100
Property: Viscosity, Pa*s (Liquid); method: Concentric cylinders viscometry
Temperature, K	Mole fraction of 1,3-dimethyladamantane	Viscosity, Pa*s	uncertainty
293.15	0	0.003078	2.7e-05
293.15	0.1021	0.003147	2.6e-05
293.15	0.2015	0.003237	2.5e-05
293.15	0.3018	0.003335	2.4e-05
293.15	0.4005	0.003436	2.3e-05
293.15	0.4981	0.003513	2.2e-05
293.15	0.602	0.003592	2e-05
293.15	0.6998	0.003657	1.9e-05
293.15	0.8051	0.003707	1.8e-05
293.15	0.8993	0.003747	1.7e-05
293.15	1	0.003779	1.7e-05
298.15	0	0.002785	2.5e-05
298.15	0.1021	0.002841	2.4e-05
298.15	0.2015	0.002922	2.3e-05
298.15	0.3018	0.003002	2.2e-05
298.15	0.4005	0.003084	2.1e-05
298.15	0.4981	0.003151	2e-05
298.15	0.602	0.00322	1.9e-05
298.15	0.6998	0.003273	1.8e-05
298.15	0.8051	0.003316	1.7e-05
298.15	0.8993	0.003342	1.6e-05
298.15	1	0.003371	1.6e-05
303.15	0	0.002535	2.3e-05
303.15	0.1021	0.002582	2.2e-05
303.15	0.2015	0.00265	2.1e-05
303.15	0.3018	0.002717	2e-05
303.15	0.4005	0.002787	2e-05
303.15	0.4981	0.002847	1.9e-05
303.15	0.602	0.002904	1.8e-05
303.15	0.6998	0.002946	1.7e-05
303.15	0.8051	0.002985	1.6e-05
303.15	0.8993	0.003002	1.5e-05
303.15	1	0.003027	1.5e-05
313.15	0	0.002125	2e-05
313.15	0.1021	0.002158	1.9e-05
313.15	0.2015	0.002207	1.9e-05
313.15	0.3018	0.002257	1.8e-05
313.15	0.4005	0.002307	1.7e-05
313.15	0.4981	0.002353	1.6e-05
313.15	0.602	0.002394	1.6e-05
313.15	0.6998	0.002421	1.5e-05
313.15	0.8051	0.002451	1.4e-05
313.15	0.8993	0.002458	1.4e-05
313.15	1	0.002475	1.4e-05
323.15	0	0.001762	1.8e-05
323.15	0.1021	0.001796	1.7e-05
323.15	0.2015	0.001839	1.6e-05
323.15	0.3018	0.001879	1.6e-05
323.15	0.4005	0.00192	1.5e-05
323.15	0.4981	0.001955	1.5e-05
323.15	0.602	0.001989	1.4e-05
323.15	0.6998	0.002012	1.4e-05
323.15	0.8051	0.002033	1.3e-05
323.15	0.8993	0.002046	1.3e-05
323.15	1	0.00205	1.2e-05
333.15	0	0.001514	1.6e-05
333.15	0.1021	0.001544	1.5e-05
333.15	0.2015	0.001577	1.5e-05
333.15	0.3018	0.001609	1.4e-05
333.15	0.4005	0.001638	1.4e-05
333.15	0.4981	0.001666	1.4e-05
333.15	0.602	0.001694	1.3e-05
333.15	0.6998	0.001712	1.3e-05
333.15	0.8051	0.001726	1.2e-05
333.15	0.8993	0.001731	1.2e-05
333.15	1	0.001734	1.2e-05
343.15	0	0.001318	1.5e-05
343.15	0.1021	0.001342	1.4e-05
343.15	0.2015	0.001366	1.4e-05
343.15	0.3018	0.001391	1.3e-05
343.15	0.4005	0.001413	1.3e-05
343.15	0.4981	0.001438	1.3e-05
343.15	0.602	0.001457	1.2e-05
343.15	0.6998	0.001472	1.2e-05
343.15	0.8051	0.00148	1.2e-05
343.15	0.8993	0.001482	1.1e-05
343.15	1	0.001485	1.1e-05
353.15	0	0.001159	1.4e-05
353.15	0.1021	0.001175	1.3e-05
353.15	0.2015	0.001197	1.3e-05
353.15	0.3018	0.001219	1.3e-05
353.15	0.4005	0.001237	1.2e-05
353.15	0.4981	0.001254	1.2e-05
353.15	0.602	0.001269	1.2e-05
353.15	0.6998	0.00128	1.1e-05
353.15	0.8051	0.001287	1.1e-05
353.15	0.8993	0.00129	1.1e-05
353.15	1	0.001288	1.1e-05
363.15	0	0.001029	1.3e-05
363.15	0.1021	0.001042	1.3e-05
363.15	0.2015	0.001059	1.2e-05
363.15	0.3018	0.001075	1.2e-05
363.15	0.4005	0.001087	1.2e-05
363.15	0.4981	0.001104	1.1e-05
363.15	0.602	0.001115	1.1e-05
363.15	0.6998	0.00112	1.1e-05
363.15	0.8051	0.001126	1.1e-05
363.15	0.8993	0.001129	1.1e-05
363.15	1	0.001127	1.1e-05

System: 1,3-dimethyladamantane + exo-tetrahydrodicyclopentadiene; phases: Liquid
Fixed: Pressure, kPa = 100
Property: Refractive index (Na D-line) (Liquid); method: Standard Abbe refractometry
Temperature, K	Mole fraction of 1,3-dimethyladamantane	Refractive index (Na D-line)	uncertainty
293.15	0	1.4878	0.0011
293.15	0.1021	1.487	0.0011
293.15	0.2015	1.4862	0.0011
293.15	0.3018	1.4854	0.0011
293.15	0.4005	1.4845	0.0011
293.15	0.4981	1.4836	0.0011
293.15	0.602	1.4826	0.0011
293.15	0.6998	1.4816	0.001
293.15	0.8051	1.4803	0.001
293.15	0.8993	1.4792	0.001
293.15	1	1.4779	0.001
298.15	0	1.4855	0.0011
298.15	0.1021	1.4852	0.0011
298.15	0.2015	1.4844	0.0011
298.15	0.3018	1.4836	0.0011
298.15	0.4005	1.4827	0.0011
298.15	0.4981	1.4818	0.0011
298.15	0.602	1.4807	0.0011
298.15	0.6998	1.4797	0.001
298.15	0.8051	1.4785	0.001
298.15	0.8993	1.4773	0.001
298.15	1	1.4759	0.001
303.15	0	1.4829	0.0011
303.15	0.1021	1.4825	0.0011
303.15	0.2015	1.4819	0.0011
303.15	0.3018	1.4812	0.0011
303.15	0.4005	1.4804	0.0011
303.15	0.4981	1.4795	0.0011
303.15	0.602	1.4785	0.0011
303.15	0.6998	1.4774	0.001
303.15	0.8051	1.4762	0.001
303.15	0.8993	1.4751	0.001
303.15	1	1.474	0.001
313.15	0	1.4789	0.0011
313.15	0.1021	1.4782	0.0011
313.15	0.2015	1.4777	0.0011
313.15	0.3018	1.477	0.0011
313.15	0.4005	1.4763	0.0011
313.15	0.4981	1.4756	0.0011
313.15	0.602	1.4747	0.0011
313.15	0.6998	1.4737	0.001
313.15	0.8051	1.4724	0.001
313.15	0.8993	1.4713	0.001
313.15	1	1.4699	0.001
