Measured thermophysical data. Isobaric Vapor Liquid Equilibrium for Chloroform + Methanol + 1,3-Dimethylimidazolium Dimethylphosphate at 101.3 kPa
Source: J. Chem. Eng. Data, 2014, 10.1021/je400324w
Compound 1: trichloromethane, CHCl3, InChI=1S/CHCl3/c2-1(3)4/h1H
Compound 2: methanol, CH4O, InChI=1S/CH4O/c1-2/h2H,1H3, purity 99.9%
Compound 3: 1,3-dimethylimidazolium dimethylphosphate, C7H15N2O4P, InChI=1S/C5H9N2.C2H7O4P/c1-6-3-4-7(2)5-6;1-5-7(3,4)6-2/h3-5H,1-2H3;1-2H3,(H,3,4)/q+1;/p-1, purity 99%

System: methanol + trichloromethane; phases: Liquid, Gas
Fixed: Pressure, kPa = 101.3
Property: Boiling temperature at pressure P, K (Liquid); method: Ebulliometric method (Recirculating still)
Mole fraction of trichloromethane	Boiling temperature at pressure P, K	uncertainty
0	337.9	0.2
0.046	335.9	0.3
0.089	334.2	0.3
0.139	332.5	0.3
0.188	331.2	0.2
0.237	329.9	0.2
0.281	329.1	0.2
0.324	328.3	0.2
0.383	327.8	0.2
0.433	327.3	0.2
0.491	327.1	0.2
0.566	326.9	0.2
0.589	326.8	0.2
0.631	326.7	0.2
0.702	326.8	0.2
0.742	327	0.2
0.79	327.1	0.2
0.837	327.4	0.2
0.904	328.4	0.2
0.935	329.6	0.3
1	334.1	0.2

System: methanol + trichloromethane; phases: Gas, Liquid
Fixed: Pressure, kPa = 101.3
Property: Mole fraction of trichloromethane (Gas); method: CHROM:UFactor:2
Mole fraction of trichloromethane	Mole fraction of trichloromethane	uncertainty
0	0	
0.046	0.12	0.01
0.089	0.204	0.01
0.139	0.306	0.009
0.188	0.363	0.009
0.237	0.43	0.009
0.281	0.467	0.01
0.324	0.508	0.01
0.383	0.55	0.009
0.433	0.575	0.008
0.491	0.599	0.008
0.566	0.616	0.008
0.589	0.629	0.008
0.631	0.65	0.007
0.702	0.662	0.007
0.742	0.68	0.007
0.79	0.7	0.007
0.837	0.717	0.007
0.904	0.765	0.007
0.935	0.82	0.011
1	1	

System: methanol + trichloromethane + 1,3-dimethylimidazolium dimethylphosphate; phases: Liquid, Gas
Fixed: Pressure, kPa = 101.3
Property: Mole fraction of 1,3-dimethylimidazolium dimethylphosphate (Liquid); method: Chromatography
Property: Mole fraction of 1,3-dimethylimidazolium dimethylphosphate (Gas); method: Chromatography
Property: Mole fraction of trichloromethane (Gas); method: Chromatography
Temperature, K	Mole fraction of trichloromethane	Mole fraction of 1,3-dimethylimidazolium dimethylphosphate	uncertainty	Mole fraction of 1,3-dimethylimidazolium dimethylphosphate	uncertainty	Mole fraction of trichloromethane	uncertainty
346.1	0	0.099	0.004	0		0	
340.9	0.081	0.101	0.004	0		0.201	
339.5	0.121	0.101	0.004	0		0.279	
338.1	0.163	0.099	0.004	0		0.358	
336.8	0.203	0.102	0.004	0		0.445	
335.5	0.262	0.101	0.004	0		0.498	
334.8	0.297	0.102	0.004	0		0.568	
334	0.333	0.101	0.004	0		0.605	
333.4	0.383	0.102	0.004	0		0.636	
332.7	0.452	0.099	0.004	0		0.691	
331.7	0.492	0.098	0.004	0		0.724	
331.6	0.524	0.098	0.004	0		0.754	
331.4	0.564	0.102	0.004	0		0.776	
331.2	0.626	0.097	0.004	0		0.814	
331.3	0.658	0.102	0.004	0		0.842	
331.8	0.701	0.098	0.004	0		0.869	
332.4	0.752	0.1	0.004	0		0.895	
333.2	0.811	0.101	0.004	0		0.933	
335.3	0.899	0.101	0.004	0		1	
361.3	0	0.201	0.004	0		0	
354.4	0.074	0.198	0.004	0		0.223	
352	0.109	0.199	0.004	0		0.31	
349.9	0.185	0.198	0.004	0		0.462	
349.2	0.217	0.201	0.004	0		0.533	
347.9	0.26	0.198	0.004	0		0.58	
346.8	0.3	0.202	0.004	0		0.642	
345.6	0.336	0.201	0.004	0		0.686	
344.6	0.379	0.198	0.004	0		0.718	
343.6	0.421	0.198	0.004	0		0.758	
343	0.464	0.201	0.004	0		0.792	
342.3	0.498	0.198	0.004	0		0.829	
341.8	0.537	0.199	0.004	0		0.848	
341	0.573	0.197	0.004	0		0.875	
340.8	0.577	0.2	0.004	0		0.88	
340.4	0.645	0.199	0.004	0		0.915	
340.4	0.707	0.198	0.004	0		0.948	
339.8	0.8	0.2	0.004	0		1	
380.1	0	0.301	0.005	0		0	
373.1	0.05	0.298	0.005	0		0.202	
371.6	0.078	0.3	0.005	0		0.299	
369.5	0.108	0.301	0.005	0		0.38	
367.3	0.149	0.298	0.005	0		0.479	
365.9	0.185	0.297	0.005	0		0.549	
364.8	0.216	0.298	0.005	0		0.604	
363.7	0.267	0.298	0.005	0		0.676	
361.9	0.307	0.3	0.005	0		0.728	
361.4	0.321	0.301	0.005	0		0.736	
360.6	0.368	0.3	0.005	0		0.787	
358.8	0.404	0.299	0.005	0		0.821	
358.1	0.435	0.299	0.005	0		0.844	
356.9	0.482	0.302	0.005	0		0.873	
356	0.505	0.298	0.005	0		0.891	
355.7	0.533	0.302	0.005	0		0.9	
355	0.594	0.299	0.005	0		0.941	
354.1	0.631	0.3	0.005	0		0.961	
348.5	0.701	0.299	0.005	0		1	

System: methanol + 1,3-dimethylimidazolium dimethylphosphate; phases: Liquid, Gas
Fixed: Pressure, kPa = 101.3
Property: Boiling temperature at pressure P, K (Liquid); method: Ebulliometric method (Recirculating still)
Mole fraction of 1,3-dimethylimidazolium dimethylphosphate	Boiling temperature at pressure P, K	uncertainty
0.099	346.1	0.6
0.201	361.3	0.7
0.301	380.1	0.8

System: trichloromethane + 1,3-dimethylimidazolium dimethylphosphate; phases: Liquid, Gas
Fixed: Pressure, kPa = 101.3
Property: Boiling temperature at pressure P, K (Liquid); method: Ebulliometric method (Recirculating still)
Mole fraction of 1,3-dimethylimidazolium dimethylphosphate	Boiling temperature at pressure P, K	uncertainty
0.101	335.3	0.3
0.2	339.8	0.3
0.299	348.5	0.4
