Measured thermophysical data. Liquid Liquid Equilibrium for Ternary System Water + Cyclohexane + Acetic Acid at (303.2 to 333.2) K
Source: J. Chem. Eng. Data, 2013, 10.1021/je400704a
Compound 1: water, H2O, InChI=1S/H2O/h1H2, purity 99.9%
Compound 2: cyclohexane, C6H12, InChI=1S/C6H12/c1-2-4-6-5-3-1/h1-6H2, purity 99%
Compound 3: acetic acid, C2H4O2, InChI=1S/C2H4O2/c1-2(3)4/h1H3,(H,3,4), purity 99%

System: acetic acid + cyclohexane + water; phases: Liquid mixture 2, Liquid mixture 1
Fixed: Pressure, kPa = 101
Property: Mole fraction of water (Liquid mixture 2); method: Chromatography
Property: Mole fraction of cyclohexane (Liquid mixture 1); method: Chromatography
Property: Mole fraction of water (Liquid mixture 1); method: Chromatography
Temperature, K	Mole fraction of cyclohexane	Mole fraction of water	uncertainty	Mole fraction of cyclohexane	uncertainty	Mole fraction of water	uncertainty
303.2	0.9934	0.0015	0.0015	0.0005	0.0005	0.8093	
313.2	0.9802	0.0024	0.0024	0.0022	0.0022	0.4894	
313.2	0.9746	0.0046	0.0046	0.0034	0.0034	0.4324	
303.2	0.9923	0.0024	0.0024	0.0005	0.0005	0.7295	
313.2	0.9629	0.0053	0.0053	0.0071	0.006	0.3378	
313.2	0.9411	0.0086	0.0062	0.0135	0.006	0.2672	
313.2	0.9273	0.0117	0.0061	0.0196	0.0061	0.2093	
313.2	0.91	0.0138	0.0065	0.0261	0.0063	0.1836	
313.2	0.8817	0.0252	0.0063	0.036	0.0062	0.1373	
323.2	0.9951	0.0004	0.0004	0.0008	0.0008	0.7982	
323.2	0.9934	0.0008	0.0008	0.001	0.001	0.7385	
303.2	0.9353	0.011	0.006	0.0175	0.0061	0.223	
323.2	0.991	0.001	0.001	0.0013	0.0013	0.6656	
323.2	0.9863	0.0018	0.0018	0.0014	0.0014	0.587	
323.2	0.9814	0.0024	0.0024	0.0018	0.0018	0.5427	
303.2	0.9898	0.0035	0.0035	0.0007	0.0007	0.6736	
323.2	0.9779	0.0029	0.0029	0.0027	0.0027	0.4825	
323.2	0.9728	0.0035	0.0035	0.0038	0.0038	0.422	
323.2	0.9533	0.0058	0.0058	0.0084	0.006	0.3203	
323.2	0.9141	0.0081	0.006	0.0163	0.0061	0.2059	
323.2	0.8998	0.0108	0.0062	0.0274	0.0061	0.2031	
323.2	0.8717	0.0157	0.0062	0.0367	0.0062	0.1432	
303.2	0.9202	0.0119	0.0063	0.0227	0.0062	0.1801	
323.2	0.8462	0.0214	0.0063	0.0471	0.0066	0.1136	
333.2	0.9965	0.0004	0.0004	0.0003	0.0003	0.8235	
333.2	0.9927	0.0009	0.0009	0.0006	0.0006	0.7306	
333.2	0.9905	0.0012	0.0012	0.0009	0.0009	0.673	
303.2	0.9862	0.0045	0.0045	0.0011	0.0011	0.6051	
333.2	0.9856	0.0026	0.0026	0.0014	0.0014	0.6108	
333.2	0.9821	0.0036	0.0036	0.0021	0.0021	0.5532	
333.2	0.9778	0.0038	0.0038	0.0034	0.0034	0.4855	
333.2	0.9714	0.0043	0.0043	0.0047	0.0047	0.4433	
333.2	0.9568	0.0057	0.0057	0.0091	0.006	0.3493	
303.2	0.8816	0.0241	0.0065	0.0399	0.0063	0.1092	
333.2	0.9348	0.0059	0.0059	0.0162	0.0061	0.2649	
333.2	0.899	0.0087	0.006	0.0311	0.0063	0.1813	
333.2	0.8704	0.0097	0.0061	0.0439	0.0068	0.1459	
333.2	0.8488	0.0158	0.0064	0.0533	0.007	0.1244	
303.2	0.9819	0.0051	0.0051	0.0013	0.0013	0.5538	
303.2	0.9803	0.0055	0.0055	0.002	0.002	0.4961	
303.2	0.9758	0.0072	0.0062	0.0029	0.0029	0.4464	
303.2	0.9624	0.0093	0.0061	0.0063	0.006	0.3482	
303.2	0.9469	0.0103	0.006	0.0119	0.006	0.2574	
313.2	0.9954	0.0004	0.0004	0.0004	0.0004	0.8213	
313.2	0.9939	0.0006	0.0006	0.0004	0.0004	0.7464	
313.2	0.9907	0.0008	0.0008	0.0008	0.0008	0.671	
313.2	0.9891	0.001	0.001	0.0011	0.0011	0.6022	
313.2	0.985	0.0015	0.0015	0.0015	0.0015	0.5386	
