Measured thermophysical data. Solubility of Hesperetin in Mixed Solvents
Source: J. Chem. Eng. Data, 2013, 10.1021/je400513s
Compound 1: 2,3-Dihydro-5,7-dihydroxy-2-(3-hydroxy-4-methoxyphenyl)-4H-1-benzopyran-4-one, C16H14O6, InChI=1S/C16H14O6/c1-21-13-3-2-8(4-10(13)18)14-7-12(20)16-11(19)5-9(17)6-15(16)22-14/h2-6,14,17-19H,7H2,1H3/t14-/m0/s1, purity 98%
Compound 2: water, H2O, InChI=1S/H2O/h1H2
Compound 3: acetone, C3H6O, InChI=1S/C3H6O/c1-3(2)4/h1-2H3, purity 99.5%
Compound 4: ethanol, C2H6O, InChI=1S/C2H6O/c1-2-3/h3H,2H2,1H3, purity 99.5%
Compound 5: methanol, CH4O, InChI=1S/CH4O/c1-2/h2H,1H3, purity 99.9%

System: methanol + 2,3-Dihydro-5,7-dihydroxy-2-(3-hydroxy-4-methoxyphenyl)-4H-1-benzopyran-4-one + water; phases: Liquid, Crystal of intercomponent compound 1
Fixed: Pressure, kPa = 101
Fixed: Temperature, K = 298.15
Property: Molality, mol/kg of 2,3-Dihydro-5,7-dihydroxy-2-(3-hydroxy-4-methoxyphenyl)-4H-1-benzopyran-4-one (Liquid); method: Gravimetric method
Solvent: Mole fraction of methanol	Molality, mol/kg of 2,3-Dihydro-5,7-dihydroxy-2-(3-hydroxy-4-methoxyphenyl)-4H-1-benzopyran-4-one	uncertainty
0.1	0.00023	8e-05
0.2002	0.00063	0.0003
0.3	0.00262	0.0002

System: methanol + 2,3-Dihydro-5,7-dihydroxy-2-(3-hydroxy-4-methoxyphenyl)-4H-1-benzopyran-4-one + water; phases: Liquid, Crystal
Fixed: Pressure, kPa = 101
Fixed: Temperature, K = 298.15
Property: Molality, mol/kg of 2,3-Dihydro-5,7-dihydroxy-2-(3-hydroxy-4-methoxyphenyl)-4H-1-benzopyran-4-one (Liquid); method: uih
Solvent: Molality, mol/kg of methanol	Molality, mol/kg of 2,3-Dihydro-5,7-dihydroxy-2-(3-hydroxy-4-methoxyphenyl)-4H-1-benzopyran-4-one	uncertainty
0.4	0.0064	6e-05
0.4901	0.0177	0.00064
0.5882	0.03066	0.00048
0.6827	0.04474	0.00081
0.77	0.06211	0.00071
0.7717	0.06105	0.00031
0.8528	0.07825	0.00125
0.9251	0.09534	0.00071

System: ethanol + 2,3-Dihydro-5,7-dihydroxy-2-(3-hydroxy-4-methoxyphenyl)-4H-1-benzopyran-4-one + water; phases: Liquid, Crystal of intercomponent compound 1
Fixed: Pressure, kPa = 101
Fixed: Temperature, K = 298.15
Property: Molality, mol/kg of 2,3-Dihydro-5,7-dihydroxy-2-(3-hydroxy-4-methoxyphenyl)-4H-1-benzopyran-4-one (Liquid); method: Gravimetric method
Solvent: Mole fraction of ethanol	Molality, mol/kg of 2,3-Dihydro-5,7-dihydroxy-2-(3-hydroxy-4-methoxyphenyl)-4H-1-benzopyran-4-one	uncertainty
0.1	0.00054	0.00016
0.1852	0.00354	0.00026
0.2774	0.01506	0.00026
0.3399	0.02078	0.00028
0.3986	0.02337	0.0003

System: ethanol + 2,3-Dihydro-5,7-dihydroxy-2-(3-hydroxy-4-methoxyphenyl)-4H-1-benzopyran-4-one + water; phases: Liquid, Crystal
Fixed: Pressure, kPa = 101
Fixed: Temperature, K = 298.15
Property: Molality, mol/kg of 2,3-Dihydro-5,7-dihydroxy-2-(3-hydroxy-4-methoxyphenyl)-4H-1-benzopyran-4-one (Liquid); method: uih
Solvent: Molality, mol/kg of ethanol	Molality, mol/kg of 2,3-Dihydro-5,7-dihydroxy-2-(3-hydroxy-4-methoxyphenyl)-4H-1-benzopyran-4-one	uncertainty
0.45	0.02856	0.00196
0.4937	0.04025	0.0074
0.5347	0.05993	0.00408
0.5641	0.06871	0.00832
0.5999	0.07708	0.00492
0.635	0.08925	0.00044
0.699	0.09845	0.00056
0.7504	0.1025	0.00058
0.8202	0.09999	0.00049
0.9021	0.09774	0.00027

System: acetone + 2,3-Dihydro-5,7-dihydroxy-2-(3-hydroxy-4-methoxyphenyl)-4H-1-benzopyran-4-one + water; phases: Liquid, Crystal of intercomponent compound 1
Fixed: Pressure, kPa = 101
Fixed: Temperature, K = 298.15
Property: Molality, mol/kg of 2,3-Dihydro-5,7-dihydroxy-2-(3-hydroxy-4-methoxyphenyl)-4H-1-benzopyran-4-one (Liquid); method: Gravimetric method
Solvent: Mole fraction of acetone	Molality, mol/kg of 2,3-Dihydro-5,7-dihydroxy-2-(3-hydroxy-4-methoxyphenyl)-4H-1-benzopyran-4-one	uncertainty
0.1002	0.00381	6e-05
0.2001	0.04018	0.00043
0.3001	0.12897	0.0007
0.3938	0.26414	0.0007
0.4001	0.27837	0.00263
0.499	0.4344	0.00113
0.5956	0.55208	0.00128
0.656	0.64948	0.00171
0.7	0.77963	0.0021
0.799	0.94257	0.00276
0.7997	0.95398	0.00278

System: acetone + 2,3-Dihydro-5,7-dihydroxy-2-(3-hydroxy-4-methoxyphenyl)-4H-1-benzopyran-4-one + water; phases: Liquid, Crystal
Fixed: Pressure, kPa = 101
Fixed: Temperature, K = 298.15
Property: Molality, mol/kg of 2,3-Dihydro-5,7-dihydroxy-2-(3-hydroxy-4-methoxyphenyl)-4H-1-benzopyran-4-one (Liquid); method: uih
Solvent: Molality, mol/kg of acetone	Molality, mol/kg of 2,3-Dihydro-5,7-dihydroxy-2-(3-hydroxy-4-methoxyphenyl)-4H-1-benzopyran-4-one	uncertainty
0.8861	0.77721	0.00327
0.9	0.7467	0.00357
0.95	0.60031	0.00172
