Measured thermophysical data. Equilibrium Properties of (Carbon Dioxide + n-Decane + n-Octadecane) Systems: Experiments and Thermodynamic Modeling
Source: J. Chem. Eng. Data, 2013, 10.1021/je4000394
Compound 1: carbon dioxide, CO2, InChI=1S/CO2/c2-1-3, purity 99.998%
Compound 2: decane, C10H22, InChI=1S/C10H22/c1-3-5-7-9-10-8-6-4-2/h3-10H2,1-2H3, purity 99%
Compound 3: octadecane, C18H38, InChI=1S/C18H38/c1-3-5-7-9-11-13-15-17-18-16-14-12-10-8-6-4-2/h3-18H2,1-2H3, purity 99%

System: decane; phases: Liquid
Fixed: Temperature, K = 323.2
Property: Mass density, kg/m3 (Liquid); method: Vibrating tube method
Pressure, kPa	Mass density, kg/m3	uncertainty
100	707	0.3
1000	707.9	0.4
2000	708.8	0.4
3000	709.7	0.4
4000	710.6	0.4
5000	711.5	0.4
6000	712.4	0.4
7000	713.3	0.4
8000	714.1	0.4
9000	715	0.4
10000	715.9	0.4

System: octadecane; phases: Liquid
Fixed: Temperature, K = 323
Property: Mass density, kg/m3 (Liquid); method: Vibrating tube method
Pressure, kPa	Mass density, kg/m3	uncertainty
100	761.2	0.4
1000	761.9	0.4
2000	762.7	0.4
3000	763.3	0.4
4000	764	0.4
5000	764.8	0.4
6000	765.4	0.4
7000	766	0.4
8000	766.7	0.4
9000	767.5	0.4
10000	768.1	0.4

System: decane + octadecane; phases: Liquid
Property: Mass density, kg/m3 (Liquid); method: Vibrating tube method
Temperature, K	Pressure, kPa	Mole fraction of decane	Mass density, kg/m3	uncertainty
323	100	0	761.2	0.4
323	1000	0	761.9	0.4
323	2000	0	762.7	0.4
323	3000	0	763.3	0.4
323	4000	0	764	0.4
323	5000	0	764.8	0.4
323	6000	0	765.4	0.4
323	7000	0	766	0.4
323	8000	0	766.7	0.4
323	9000	0	767.5	0.4
323	10000	0	768.1	0.4
323	100	0.75	726.3	0.4
323	1000	0.75	727.1	0.4
323	2000	0.75	728	0.4
323	3000	0.75	728.8	0.4
323	4000	0.75	729.6	0.4
323	5000	0.75	730.4	0.4
323	6000	0.75	731.2	0.4
323	7000	0.75	732.1	0.4
323	8000	0.75	732.9	0.4
323	9000	0.75	733.7	0.4
323	10000	0.75	734.5	0.4
323.1	100	0.25	752.2	0.4
323.1	1000	0.25	752.9	0.4
323.1	2000	0.25	753.7	0.4
323.1	3000	0.25	754.5	0.4
323.1	4000	0.25	755.2	0.4
323.1	5000	0.25	755.9	0.4
323.1	6000	0.25	756.7	0.4
323.1	7000	0.25	757.3	0.4
323.1	8000	0.25	758.1	0.4
323.1	9000	0.25	758.8	0.4
323.1	10000	0.25	759.6	0.4
323.1	100	0.5	740.8	0.4
323.1	1000	0.5	741.6	0.4
323.1	2000	0.5	742.4	0.4
323.1	3000	0.5	743.1	0.4
323.1	4000	0.5	743.9	0.4
323.1	5000	0.5	744.7	0.4
323.1	6000	0.5	745.5	0.4
323.1	7000	0.5	746.2	0.4
323.1	8000	0.5	747	0.4
323.1	9000	0.5	747.8	0.4
323.1	10000	0.5	748.6	0.4
323.2	100	1	707	0.3
323.2	1000	1	707.9	0.4
323.2	2000	1	708.8	0.4
323.2	3000	1	709.7	0.4
323.2	4000	1	710.6	0.4
323.2	5000	1	711.5	0.4
323.2	6000	1	712.4	0.4
323.2	7000	1	713.3	0.4
323.2	8000	1	714.1	0.4
323.2	9000	1	715	0.4
323.2	10000	1	715.9	0.4

System: decane + octadecane; phases: Liquid
Fixed: Pressure, kPa = 100
Fixed: Temperature, K = 325.2
Property: Viscosity, Pa*s (Liquid); method: Flow viscometer
Mole fraction of octadecane	Viscosity, Pa*s	uncertainty
0.25	0.000883	7.02e-05
0.5	0.00131	0.000118
0.75	0.001702	0.000136

System: carbon dioxide + octadecane; phases: Liquid, Gas
Fixed: Temperature, K = 323.1
Property: Mole fraction of carbon dioxide (Liquid); method: Chromatography
Pressure, kPa	Mole fraction of carbon dioxide	uncertainty
990	0.103	0.003
2020	0.204	0.003
3020	0.294	0.003
4000	0.366	0.004
4960	0.442	0.004
5960	0.492	0.004

System: carbon dioxide + octadecane; phases: Liquid, Gas
Fixed: Temperature, K = 323.1
Property: Mass density, kg/m3 (Liquid); method: Vibrating tube method
Pressure, kPa	Mass density, kg/m3	uncertainty
990	763.8	1
2020	766.4	1
3020	769.4	1
4000	771.9	1
4960	775	1
5960	777.7	1

System: carbon dioxide + octadecane; phases: Liquid, Gas
Fixed: Temperature, K = 323.1
Property: Viscosity, Pa*s (Liquid); method: Flow viscometer
Pressure, kPa	Viscosity, Pa*s	uncertainty
990	0.00195	0.0002
2020	0.00173	0.00017
3020	0.00151	0.00015
4000	0.00136	0.00014
4960	0.00114	0.00011
5960	0.00104	0.0001

System: decane + carbon dioxide; phases: Liquid, Gas
Fixed: Temperature, K = 323.2
Property: Mole fraction of carbon dioxide (Liquid); method: Chromatography
Pressure, kPa	Mole fraction of carbon dioxide	uncertainty
1020	0.094	0.003
2080	0.19	0.003
2970	0.263	0.003
3940	0.353	0.004
4910	0.429	0.004
5960	0.513	0.004

System: decane + carbon dioxide; phases: Liquid, Gas
Fixed: Temperature, K = 323.2
Property: Mass density, kg/m3 (Liquid); method: Vibrating tube method
Pressure, kPa	Mass density, kg/m3	uncertainty
1020	711	1
2080	716	1
2970	720	1
3940	724	1
4910	729	1
5960	735	1

System: decane + carbon dioxide; phases: Liquid, Gas
Fixed: Temperature, K = 323.2
Property: Viscosity, Pa*s (Liquid); method: Flow viscometer
Pressure, kPa	Viscosity, Pa*s	uncertainty
1020	0.00056	6e-05
2080	0.00046	5e-05
2970	0.00042	4e-05
3940	0.00038	4e-05
4910	0.00033	3e-05
5960	0.00028	3e-05

System: decane + carbon dioxide + octadecane; phases: Liquid, Gas
Property: Mole fraction of carbon dioxide (Liquid); method: Chromatography
Temperature, K	Pressure, kPa	Solvent: Mole fraction of decane	Mole fraction of carbon dioxide	uncertainty
323.1	1030	0.75	0.105	0.005
323.1	1980	0.75	0.195	0.005
323.1	3060	0.75	0.276	0.005
323.1	4020	0.75	0.37	0.005
323.1	5190	0.75	0.45	0.005
323.1	6010	0.75	0.512	0.006
323.1	930	0.5	0.089	0.005
323.1	2030	0.5	0.193	0.005
323.1	3040	0.5	0.281	0.005
323.1	4020	0.5	0.354	0.005
323.1	5020	0.5	0.435	0.005
323.1	5990	0.5	0.493	0.006
323.2	1020	0.25	0.106	0.0045
323.2	2010	0.25	0.2	0.0046
323.2	3040	0.25	0.287	0.0048
323.2	4020	0.25	0.361	0.005
323.2	5050	0.25	0.44	0.0053
323.2	5970	0.25	0.498	0.0056

System: decane + carbon dioxide + octadecane; phases: Liquid, Gas
Property: Mass density, kg/m3 (Liquid); method: Vibrating tube method
Temperature, K	Pressure, kPa	Solvent: Mole fraction of decane	Mass density, kg/m3	uncertainty
323.1	1030	0.75	729.4	1
323.1	1980	0.75	732.9	1
323.1	3060	0.75	737.2	1
323.1	4020	0.75	740.9	1
323.1	5190	0.75	746.6	1
323.1	6010	0.75	750.4	1
323.1	930	0.5	743.4	1
323.1	2030	0.5	746.8	1
323.1	3040	0.5	750.3	1
323.1	4020	0.5	753.6	1
323.1	5020	0.5	757.8	1
323.1	5990	0.5	761.6	1
323.2	1020	0.25	755.2	1
323.2	2010	0.25	758.1	1
323.2	3040	0.25	760.9	1
323.2	4020	0.25	764	1
323.2	5050	0.25	767.6	1
323.2	5970	0.25	770.9	1

System: decane + carbon dioxide + octadecane; phases: Liquid, Gas
Property: Viscosity, Pa*s (Liquid); method: Flow viscometer
Temperature, K	Pressure, kPa	Solvent: Mole fraction of decane	Viscosity, Pa*s	uncertainty
323.1	1030	0.75	0.00078	8e-05
323.1	1980	0.75	0.00069	7e-05
323.1	3060	0.75	0.00061	6e-05
323.1	4020	0.75	0.00055	6e-05
323.1	5190	0.75	0.00044	4e-05
323.1	6010	0.75	0.00039	4e-05
323.1	930	0.5	0.00116	0.00012
323.1	2030	0.5	0.00104	0.0001
323.1	3040	0.5	0.0009	9e-05
323.1	4020	0.5	0.00077	8e-05
323.1	5020	0.5	0.00066	7e-05
323.1	5990	0.5	0.00058	6e-05
323.2	1020	0.25	0.00153	0.00015
323.2	2010	0.25	0.00136	0.00014
323.2	3040	0.25	0.00114	0.00011
323.2	4020	0.25	0.00104	0.0001
323.2	5050	0.25	0.00089	9e-05
323.2	5970	0.25	0.00076	8e-05
