Measured thermophysical data. Determination and Correlation of Solubility of Cefradine Form I in Five Pure Solvents from (283.15 to 308.15) K
Source: J. Chem. Eng. Data, 2013, 10.1021/je400218d
Compound 1: Cefradin, C16H19N3O4S, InChI=1S/C16H19N3O4S/c1-8-7-24-15-11(14(21)19(15)12(8)16(22)23)18-13(20)10(17)9-5-3-2-4-6-9/h2-3,6,10-11,15H,4-5,7,17H2,1H3,(H,18,20)(H,22,23)/t10-,11-,15-/m1/s1
Compound 2: methanol, CH4O, InChI=1S/CH4O/c1-2/h2H,1H3
Compound 3: ethanol, C2H6O, InChI=1S/C2H6O/c1-2-3/h3H,2H2,1H3
Compound 4: propan-1-ol, C3H8O, InChI=1S/C3H8O/c1-2-3-4/h4H,2-3H2,1H3
Compound 5: butan-1-ol, C4H10O, InChI=1S/C4H10O/c1-2-3-4-5/h5H,2-4H2,1H3
Compound 6: water, H2O, InChI=1S/H2O/h1H2, purity 99.9%

System: Cefradin; phases: Crystal
Property: Molar volume, m3/mol (Crystal); method: Pycnometric method
Temperature, K	Pressure, kPa	Molar volume, m3/mol	uncertainty
298.15	101.325	0.000268	1.61e-05

System: water + Cefradin; phases: Liquid, Crystal
Fixed: Pressure, kPa = 101
Property: Mole fraction of Cefradin (Liquid); method: UV Spectophotometry
Temperature, K	Mole fraction of Cefradin	uncertainty
283.15	0.00114	0.00014
288.15	0.00115	0.00015
293.15	0.00116	0.00015
298.15	0.00117	0.00015
303.15	0.00118	0.00015
308.15	0.0012	0.00015

System: methanol + Cefradin; phases: Liquid, Crystal
Fixed: Pressure, kPa = 101
Property: Mole fraction of Cefradin (Liquid); method: UV Spectophotometry
Temperature, K	Mole fraction of Cefradin	uncertainty
283.15	0.000575	7e-05
285.15	0.00061	7.5e-05
288.15	0.00065	7.9e-05
291.15	0.000702	8.6e-05
293.15	0.000738	9e-05
298.15	0.000845	0.000103
303.15	0.000955	0.000117
308.15	0.00108	0.000132

System: ethanol + Cefradin; phases: Liquid, Crystal
Fixed: Pressure, kPa = 101
Property: Mole fraction of Cefradin (Liquid); method: UV Spectophotometry
Temperature, K	Mole fraction of Cefradin	uncertainty
283.15	0.000187	2.3e-05
285.15	0.000195	2.4e-05
288.15	0.000217	2.6e-05
291.15	0.000233	2.8e-05
293.15	0.000249	3e-05
298.15	0.000299	3.6e-05
303.15	0.000368	4.5e-05
308.15	0.000442	5.4e-05

System: propan-1-ol + Cefradin; phases: Liquid, Crystal
Fixed: Pressure, kPa = 101
Property: Mole fraction of Cefradin (Liquid); method: UV Spectophotometry
Temperature, K	Mole fraction of Cefradin	uncertainty
283.15	0.00019	2.3e-05
285.15	0.000198	2.4e-05
288.15	0.000214	2.6e-05
291.15	0.000238	2.9e-05
293.15	0.000253	3.1e-05
298.15	0.000319	3.8e-05
303.15	0.000381	4.6e-05
308.15	0.000469	5.7e-05

System: butan-1-ol + Cefradin; phases: Liquid, Crystal
Fixed: Pressure, kPa = 101
Property: Mole fraction of Cefradin (Liquid); method: UV Spectophotometry
Temperature, K	Mole fraction of Cefradin	uncertainty
283.15	0.000265	3.2e-05
285.15	0.000288	3.5e-05
288.15	0.000335	4e-05
291.15	0.000369	4.4e-05
293.15	0.000405	4.9e-05
298.15	0.000478	5.8e-05
303.15	0.000567	6.8e-05
308.15	0.000657	7.9e-05
