Measured thermophysical data. Liquid Liquid Equilibria for the Quaternary System H3PO4-NaCl-H2O-TBP at 298.15 K
Source: J. Chem. Eng. Data, 2014, 10.1021/je400817m
Compound 1: phosphoric acid, H3O4P, InChI=1S/H3O4P/c1-5(2,3)4/h(H3,1,2,3,4), purity 85%
Compound 2: water, H2O, InChI=1S/H2O/h1H2
Compound 3: tributyl phosphate, C12H27O4P, InChI=1S/C12H27O4P/c1-4-7-10-14-17(13,15-11-8-5-2)16-12-9-6-3/h4-12H2,1-3H3, purity 98.5%

System: tributyl phosphate + phosphoric acid + water; phases: Liquid
Fixed: Pressure, kPa = 101
Fixed: Temperature, K = 298.15
Property: Mass density, kg/m3 (Liquid); method: Pycnometric method
Mass fraction of phosphoric acid	Mass fraction of tributyl phosphate	Mass density, kg/m3	uncertainty
0.0399	0.948	1020.3	12.7
0.0768	0.8959	1042.4	11.3
0.1105	0.873	1060.5	11.5
0.1404	0.8397	1081.4	13.5
0.1778	0.8198	1105.2	12.8
0.2084	0.7804	1127.8	16.2
0.002	0.0646	976.2	1.3
0.0045	0.0668	980.9	2.5
0.0133	0.0652	983.7	8.8
0.0238	0.0668	989.1	11.8
0.0328	0.0661	996.4	11
0.04	0.0566	1001.1	13.2

System: tributyl phosphate + phosphoric acid + water; phases: Liquid mixture 2, Liquid mixture 1
Fixed: Temperature, K = 298.15
Fixed: Pressure, kPa = 101
Property: Mass fraction of water (Liquid mixture 2); method: OTHER
Property: Mass fraction of water (Liquid mixture 1); method: OTHER
Property: Mass fraction of phosphoric acid (Liquid mixture 1); method: OTHER
Mass fraction of phosphoric acid	Mass fraction of water	uncertainty	Mass fraction of water	uncertainty	Mass fraction of phosphoric acid	uncertainty
0.002	0.0646	0.02	0.948	0.02	0.0399	
0.0244	0.0594	0.02	0.8247	0.0249	0.1408	
0.0305	0.0575	0.02	0.7861	0.0281	0.1768	
0.0478	0.059	0.02	0.7637	0.02	0.203	
0.0029	0.0585	0.02	0.9018	0.02	0.0389	
0.0116	0.0608	0.02	0.8635	0.0303	0.075	
