Measured thermophysical data. Densities and Viscosities of the Binary and Ternary Aqueous Solutions of Pyrrolidone-Based Ionic Liquids at Different Temperatures and Atmospheric Pressure
Source: J. Chem. Eng. Data, 2014, 10.1021/je4002009
Compound 1: 1-cyclohexyl-2-pyrrolidinone 4-methylbenzenesulfonate, C17H25NO4S, InChI=1S/C10H17NO.C7H8O3S/c12-10-7-4-8-11(10)9-5-2-1-3-6-9;1-6-2-4-7(5-3-6)11(8,9)10/h9H,1-8H2;2-5H,1H3,(H,8,9,10)
Compound 2: 1-cyclohexyl-2-oxopyrrolidin-1-ium benzenesulfonate, C16H23NO4S, InChI=1S/C10H17NO.C6H6O3S/c12-10-7-4-8-11(10)9-5-2-1-3-6-9;7-10(8,9)6-4-2-1-3-5-6/h9H,1-8H2;1-5H,(H,7,8,9)
Compound 3: 1-methyl-2-pyrrolidinone p-toluenesulfonate, C12H17NO4S, InChI=1S/C7H8O3S.C5H9NO/c1-6-2-4-7(5-3-6)11(8,9)10;1-6-4-2-3-5(6)7/h2-5H,1H3,(H,8,9,10);2-4H2,1H3
Compound 4: 1-methyl-2-pyrrolidinone benzenesulfonate, C11H15NO4S, InChI=1S/C6H6O3S.C5H9NO/c7-10(8,9)6-4-2-1-3-5-6;1-6-4-2-3-5(6)7/h1-5H,(H,7,8,9);2-4H2,1H3
Compound 5: water, H2O, InChI=1S/H2O/h1H2, purity 99.8%

System: water + 1-cyclohexyl-2-pyrrolidinone 4-methylbenzenesulfonate; phases: Liquid
Fixed: Pressure, kPa = 101
Property: Mass density, kg/m3 (Liquid); method: VIBTUB:UFactor:24
Temperature, K	Molality, mol/kg of 1-cyclohexyl-2-pyrrolidinone 4-methylbenzenesulfonate	Mass density, kg/m3	uncertainty
298.15	0.0502	1000.25	0.76
298.15	0.1025	1003.22	0.79
298.15	0.1513	1005.86	0.82
298.15	0.1991	1008.58	0.84
298.15	0.2492	1011.41	0.87
298.15	0.3015	1014.32	0.91
298.15	0.3524	1017.03	0.93
298.15	0.4007	1019.46	0.96
298.15	0.4491	1021.74	0.99
298.15	0.4976	1023.93	1.01
298.15	0.5503	1026.3	1.04
298.15	0.6019	1028.47	1.06
298.15	0.6492	1030.43	1.08
298.15	0.7521	1034.7	1.13
298.15	0.8074	1037	1.16
298.15	0.9012	1040.82	1.2
298.15	1.0023	1044.83	1.25
298.15	1.1991	1051.36	1.33
303.15	0.0502	998.76	0.77
303.15	0.1025	1001.6	0.77
303.15	0.1513	1004.3	0.8
303.15	0.1991	1006.95	0.83
303.15	0.2492	1009.76	0.86
303.15	0.3015	1012.57	0.89
303.15	0.3524	1015.23	0.92
303.15	0.4007	1017.48	0.94
303.15	0.4491	1019.79	0.97
303.15	0.4976	1021.92	0.99
303.15	0.5503	1024.26	1.02
303.15	0.6019	1026.37	1.04
303.15	0.6492	1028.29	1.06
303.15	0.7521	1032.51	1.11
303.15	0.8074	1034.74	1.14
303.15	0.9012	1038.55	1.18
303.15	1.0023	1042.52	1.23
303.15	1.1991	1048.95	1.31
308.15	0.0502	997.02	0.78
308.15	0.1025	999.85	0.76
308.15	0.1513	1002.49	0.78
308.15	0.1991	1005.1	0.81
308.15	0.2492	1007.84	0.84
308.15	0.3015	1010.6	0.87
308.15	0.3524	1013.12	0.9
308.15	0.4007	1015.41	0.92
308.15	0.4491	1017.58	0.95
308.15	0.4976	1019.7	0.97
308.15	0.5503	1021.89	0.99
308.15	0.6019	1023.96	1.02
308.15	0.6492	1025.85	1.04
308.15	0.7521	1030.01	1.09
308.15	0.8074	1032.32	1.11
308.15	0.9012	1036.16	1.16
308.15	1.0023	1040.19	1.21
308.15	1.1991	1046.4	1.28

System: water + 1-cyclohexyl-2-pyrrolidinone 4-methylbenzenesulfonate; phases: Liquid
Fixed: Pressure, kPa = 101
Property: Viscosity, Pa*s (Liquid); method: Capillary tube (Ostwald; Ubbelohde) method
Temperature, K	Molality, mol/kg of 1-cyclohexyl-2-pyrrolidinone 4-methylbenzenesulfonate	Viscosity, Pa*s	uncertainty
298.15	0.0502	0.0009563	1.11e-05
298.15	0.1025	0.0009991	1.15e-05
298.15	0.1513	0.0010352	1.2e-05
298.15	0.1991	0.001082	1.25e-05
298.15	0.2492	0.0011343	1.31e-05
298.15	0.3015	0.0011856	1.37e-05
298.15	0.3524	0.0012402	1.44e-05
298.15	0.4007	0.0012888	1.49e-05
298.15	0.4491	0.0013375	1.55e-05
298.15	0.4976	0.0013829	1.61e-05
298.15	0.5503	0.0014355	1.67e-05
298.15	0.6019	0.0014852	1.73e-05
298.15	0.6492	0.0015374	1.79e-05
298.15	0.7521	0.0016475	1.92e-05
298.15	0.8074	0.0017149	2e-05
298.15	0.9012	0.0018288	2.14e-05
298.15	1.0023	0.0019657	2.31e-05
298.15	1.1991	0.0022331	2.64e-05
303.15	0.0502	0.0008427	9.8e-06
303.15	0.1025	0.0008853	1.03e-05
303.15	0.1513	0.0009171	1.06e-05
303.15	0.1991	0.0009514	1.1e-05
303.15	0.2492	0.0009897	1.15e-05
303.15	0.3015	0.0010361	1.2e-05
303.15	0.3524	0.0010804	1.26e-05
303.15	0.4007	0.0011229	1.31e-05
303.15	0.4491	0.0011648	1.36e-05
303.15	0.4976	0.0012066	1.41e-05
303.15	0.5503	0.0012543	1.46e-05
303.15	0.6019	0.0013003	1.52e-05
303.15	0.6492	0.0013437	1.57e-05
303.15	0.7521	0.0014403	1.69e-05
303.15	0.8074	0.0014969	1.75e-05
303.15	0.9012	0.0015959	1.87e-05
303.15	1.0023	0.0016997	2e-05
303.15	1.1991	0.0019072	2.26e-05
308.15	0.0502	0.0007524	8.8e-06
308.15	0.1025	0.0007957	9.3e-06
308.15	0.1513	0.0008304	9.7e-06
308.15	0.1991	0.0008636	1.01e-05
308.15	0.2492	0.0008957	1.04e-05
308.15	0.3015	0.0009333	1.09e-05
308.15	0.3524	0.0009639	1.12e-05
308.15	0.4007	0.0009982	1.16e-05
308.15	0.4491	0.0010292	1.2e-05
308.15	0.4976	0.0010658	1.25e-05
308.15	0.5503	0.0011036	1.29e-05
308.15	0.6019	0.0011446	1.34e-05
308.15	0.6492	0.0011842	1.39e-05
308.15	0.7521	0.0012719	1.49e-05
308.15	0.8074	0.0013229	1.55e-05
308.15	0.9012	0.0014123	1.66e-05
308.15	1.0023	0.0015056	1.78e-05
308.15	1.1991	0.0016876	2e-05

System: water + 1-cyclohexyl-2-oxopyrrolidin-1-ium benzenesulfonate; phases: Liquid
Fixed: Pressure, kPa = 101
Property: Mass density, kg/m3 (Liquid); method: VIBTUB:UFactor:24
Temperature, K	Molality, mol/kg of 1-cyclohexyl-2-oxopyrrolidin-1-ium benzenesulfonate	Mass density, kg/m3	uncertainty
298.15	0.0509	999.45	0.76
298.15	0.1005	1002.85	0.79
298.15	0.1478	1005.4	0.81
298.15	0.1987	1007.93	0.84
298.15	0.2532	1010.59	0.87
298.15	0.3009	1013.05	0.89
298.15	0.3497	1015.5	0.92
298.15	0.4013	1018.26	0.95
298.15	0.4514	1021.07	0.98
298.15	0.5008	1023.74	1.01
298.15	0.5492	1026.44	1.04
298.15	0.6024	1029.39	1.07
298.15	0.6506	1031.86	1.1
298.15	0.7603	1037.45	1.16
298.15	0.7986	1039.18	1.18
298.15	0.9023	1043.64	1.23
298.15	0.9974	1047.35	1.27
298.15	1.1989	1054.63	1.36
303.15	0.0509	997.89	0.78
303.15	0.1005	1001.35	0.77
303.15	0.1478	1003.96	0.8
303.15	0.1987	1006.42	0.82
303.15	0.2532	1009.02	0.85
303.15	0.3009	1011.32	0.88
303.15	0.3497	1013.84	0.9
303.15	0.4013	1016.55	0.93
303.15	0.4514	1019.24	0.96
303.15	0.5008	1022.03	0.99
303.15	0.5492	1024.55	1.02
303.15	0.6024	1027.42	1.05
303.15	0.6506	1029.91	1.08
303.15	0.7603	1035.1	1.14
303.15	0.7986	1036.89	1.15
303.15	0.9023	1041.09	1.2
303.15	0.9974	1044.52	1.24
303.15	1.1989	1052.23	1.34
308.15	0.0509	995.97	0.79
308.15	0.1005	999.03	0.77
308.15	0.1478	1001.85	0.78
308.15	0.1987	1004.55	0.81
308.15	0.2532	1007.24	0.83
308.15	0.3009	1009.49	0.86
308.15	0.3497	1011.74	0.88
308.15	0.4013	1014.3	0.91
308.15	0.4514	1016.92	0.94
308.15	0.5008	1019.52	0.97
308.15	0.5492	1022.06	1
308.15	0.6024	1024.91	1.03
308.15	0.6506	1027.47	1.05
308.15	0.7603	1032.83	1.11
308.15	0.7986	1034.62	1.13
308.15	0.9023	1038.92	1.18
308.15	0.9974	1042.51	1.22
308.15	1.1989	1049.68	1.31

System: water + 1-cyclohexyl-2-oxopyrrolidin-1-ium benzenesulfonate; phases: Liquid
Fixed: Pressure, kPa = 101
Property: Viscosity, Pa*s (Liquid); method: Capillary tube (Ostwald; Ubbelohde) method
Temperature, K	Molality, mol/kg of 1-cyclohexyl-2-oxopyrrolidin-1-ium benzenesulfonate	Viscosity, Pa*s	uncertainty
298.15	0.0509	0.0009377	1.08e-05
298.15	0.1005	0.0009703	1.12e-05
298.15	0.1478	0.0010102	1.17e-05
298.15	0.1987	0.0010571	1.22e-05
298.15	0.2532	0.0011097	1.28e-05
298.15	0.3009	0.0011528	1.33e-05
298.15	0.3497	0.0011988	1.39e-05
298.15	0.4013	0.0012468	1.44e-05
298.15	0.4514	0.001292	1.5e-05
298.15	0.5008	0.0013369	1.55e-05
298.15	0.5492	0.0013832	1.61e-05
298.15	0.6024	0.0014324	1.67e-05
298.15	0.6506	0.0014787	1.72e-05
298.15	0.7603	0.0015876	1.85e-05
298.15	0.7986	0.0016311	1.9e-05
298.15	0.9023	0.0017357	2.03e-05
298.15	0.9974	0.0018376	2.16e-05
298.15	1.1989	0.0020804	2.45e-05
303.15	0.0509	0.0008235	9.6e-06
303.15	0.1005	0.0008645	1e-05
303.15	0.1478	0.0008892	1.03e-05
303.15	0.1987	0.0009268	1.08e-05
303.15	0.2532	0.0009692	1.13e-05
303.15	0.3009	0.0010092	1.17e-05
303.15	0.3497	0.0010509	1.22e-05
303.15	0.4013	0.0010969	1.28e-05
303.15	0.4514	0.0011405	1.33e-05
303.15	0.5008	0.0011808	1.37e-05
303.15	0.5492	0.0012238	1.43e-05
303.15	0.6024	0.0012684	1.48e-05
303.15	0.6506	0.0013095	1.53e-05
303.15	0.7603	0.0014051	1.64e-05
303.15	0.7986	0.001442	1.69e-05
303.15	0.9023	0.0015355	1.8e-05
303.15	0.9974	0.0016228	1.91e-05
303.15	1.1989	0.0018104	2.14e-05
308.15	0.0509	0.0007406	8.6e-06
308.15	0.1005	0.0007786	9.1e-06
308.15	0.1478	0.0008095	9.4e-06
308.15	0.1987	0.0008407	9.8e-06
308.15	0.2532	0.0008758	1.02e-05
308.15	0.3009	0.0009088	1.06e-05
308.15	0.3497	0.0009404	1.1e-05
308.15	0.4013	0.0009772	1.14e-05
308.15	0.4514	0.0010129	1.18e-05
308.15	0.5008	0.0010463	1.22e-05
308.15	0.5492	0.001083	1.27e-05
308.15	0.6024	0.0011228	1.31e-05
308.15	0.6506	0.0011632	1.36e-05
308.15	0.7603	0.0012488	1.46e-05
308.15	0.7986	0.0012828	1.51e-05
308.15	0.9023	0.0013725	1.61e-05
308.15	0.9974	0.0014485	1.71e-05
308.15	1.1989	0.0016167	1.92e-05

System: water + 1-methyl-2-pyrrolidinone p-toluenesulfonate; phases: Liquid
Fixed: Pressure, kPa = 101
Property: Mass density, kg/m3 (Liquid); method: VIBTUB:UFactor:24
Temperature, K	Molality, mol/kg of 1-methyl-2-pyrrolidinone p-toluenesulfonate	Mass density, kg/m3	uncertainty
298.15	0.0499	999.98	0.76
298.15	0.1012	1002.71	0.78
298.15	0.1588	1005.8	0.81
298.15	0.1983	1007.95	0.84
298.15	0.2691	1011.73	0.88
298.15	0.3004	1013.31	0.89
298.15	0.3421	1015.42	0.91
298.15	0.398	1018.29	0.94
298.15	0.4495	1020.8	0.97
298.15	0.5139	1023.87	1
298.15	0.6053	1028.17	1.05
298.15	0.6615	1030.76	1.08
298.15	0.7504	1034.66	1.12
298.15	0.7605	1035.06	1.12
298.15	0.8335	1038.2	1.16
298.15	0.9023	1041.05	1.19
298.15	1.0067	1045.23	1.24
298.15	1.2007	1052.61	1.32
303.15	0.0499	998.53	0.77
303.15	0.1012	1000.47	0.76
303.15	0.1588	1004.01	0.8
303.15	0.1983	1006.37	0.82
303.15	0.2691	1010.16	0.86
303.15	0.3004	1011.73	0.88
303.15	0.3421	1013.71	0.9
303.15	0.398	1016.41	0.93
303.15	0.4495	1018.89	0.95
303.15	0.5139	1021.88	0.98
303.15	0.6053	1026.17	1.03
303.15	0.6615	1028.65	1.06
303.15	0.7504	1032.58	1.1
303.15	0.7605	1033	1.1
303.15	0.8335	1036.01	1.14
303.15	0.9023	1038.67	1.17
303.15	1.0067	1042.61	1.21
303.15	1.2007	1050.61	1.3
308.15	0.0499	996.06	0.79
308.15	0.1012	998.66	0.77
308.15	0.1588	1002.3	0.78
308.15	0.1983	1004.65	0.81
308.15	0.2691	1008.34	0.84
308.15	0.3004	1009.85	0.86
308.15	0.3421	1011.83	0.88
308.15	0.398	1014.42	0.91
308.15	0.4495	1016.77	0.93
308.15	0.5139	1019.63	0.96
308.15	0.6053	1023.9	1.01
308.15	0.6615	1026.41	1.04
308.15	0.7504	1030.21	1.08
308.15	0.7605	1030.65	1.08
308.15	0.8335	1033.59	1.12
308.15	0.9023	1036.34	1.15
308.15	1.0067	1040.36	1.19
308.15	1.2007	1048.17	1.28

System: water + 1-methyl-2-pyrrolidinone p-toluenesulfonate; phases: Liquid
Fixed: Pressure, kPa = 101
Property: Viscosity, Pa*s (Liquid); method: Capillary tube (Ostwald; Ubbelohde) method
Temperature, K	Molality, mol/kg of 1-methyl-2-pyrrolidinone p-toluenesulfonate	Viscosity, Pa*s	uncertainty
298.15	0.0499	0.0009405	1.09e-05
298.15	0.1012	0.0009707	1.12e-05
298.15	0.1588	0.0009996	1.16e-05
298.15	0.1983	0.0010208	1.18e-05
298.15	0.2691	0.0010588	1.23e-05
298.15	0.3004	0.0010775	1.25e-05
298.15	0.3421	0.0010997	1.27e-05
298.15	0.398	0.0011299	1.31e-05
298.15	0.4495	0.0011547	1.34e-05
298.15	0.5139	0.0011914	1.38e-05
298.15	0.6053	0.0012414	1.44e-05
298.15	0.6615	0.0012717	1.48e-05
298.15	0.7504	0.0013192	1.54e-05
298.15	0.7605	0.0013243	1.54e-05
298.15	0.8335	0.0013663	1.6e-05
298.15	0.9023	0.0014107	1.65e-05
298.15	1.0067	0.0014769	1.73e-05
298.15	1.2007	0.0016098	1.89e-05
303.15	0.0499	0.0008355	9.7e-06
303.15	0.1012	0.0008613	1e-05
303.15	0.1588	0.0008905	1.03e-05
303.15	0.1983	0.0009097	1.06e-05
303.15	0.2691	0.0009445	1.1e-05
303.15	0.3004	0.0009602	1.12e-05
303.15	0.3421	0.0009826	1.14e-05
303.15	0.398	0.0010075	1.17e-05
303.15	0.4495	0.0010295	1.2e-05
303.15	0.5139	0.0010578	1.23e-05
303.15	0.6053	0.0010987	1.28e-05
303.15	0.6615	0.0011273	1.32e-05
303.15	0.7504	0.0011695	1.37e-05
303.15	0.7605	0.0011726	1.37e-05
303.15	0.8335	0.0012074	1.41e-05
303.15	0.9023	0.0012439	1.46e-05
303.15	1.0067	0.0012991	1.53e-05
303.15	1.2007	0.0014094	1.66e-05
308.15	0.0499	0.0007579	8.8e-06
308.15	0.1012	0.0007776	9.1e-06
308.15	0.1588	0.0008002	9.3e-06
308.15	0.1983	0.0008164	9.5e-06
308.15	0.2691	0.0008406	9.8e-06
308.15	0.3004	0.0008511	9.9e-06
308.15	0.3421	0.0008691	1.01e-05
308.15	0.398	0.000892	1.04e-05
308.15	0.4495	0.0009131	1.07e-05
308.15	0.5139	0.0009369	1.1e-05
308.15	0.6053	0.0009752	1.14e-05
308.15	0.6615	0.0009976	1.17e-05
308.15	0.7504	0.0010361	1.22e-05
308.15	0.7605	0.0010399	1.22e-05
308.15	0.8335	0.0010723	1.26e-05
308.15	0.9023	0.0011057	1.3e-05
308.15	1.0067	0.0011608	1.37e-05
308.15	1.2007	0.0012658	1.5e-05

System: water + 1-methyl-2-pyrrolidinone benzenesulfonate; phases: Liquid
Fixed: Pressure, kPa = 101
Property: Mass density, kg/m3 (Liquid); method: VIBTUB:UFactor:24
Temperature, K	Molality, mol/kg of 1-methyl-2-pyrrolidinone benzenesulfonate	Mass density, kg/m3	uncertainty
298.15	0.0521	1000.25	0.76
298.15	0.1042	1003.16	0.79
298.15	0.1369	1004.9	0.8
298.15	0.2057	1008.79	0.84
298.15	0.2512	1011.09	0.87
298.15	0.2984	1013.59	0.89
298.15	0.3556	1016.55	0.92
298.15	0.4028	1018.9	0.95
298.15	0.4537	1021.44	0.98
298.15	0.5093	1024.16	1
298.15	0.6018	1028.61	1.05
298.15	0.6492	1030.83	1.08
298.15	0.7511	1035.5	1.13
298.15	0.8129	1038.24	1.16
298.15	0.871	1040.72	1.18
298.15	0.9001	1042.02	1.2
298.15	1.0189	1047.01	1.25
298.15	1.199	1054.33	1.33
303.15	0.0521	998.54	0.77
303.15	0.1042	1001.68	0.77
303.15	0.1369	1003.46	0.79
303.15	0.2057	1007.07	0.83
303.15	0.2512	1009.23	0.85
303.15	0.2984	1011.55	0.87
303.15	0.3556	1014.41	0.9
303.15	0.4028	1016.7	0.93
303.15	0.4537	1019.25	0.96
303.15	0.5093	1022.14	0.99
303.15	0.6018	1026.63	1.03
303.15	0.6492	1028.91	1.06
303.15	0.7511	1033.54	1.11
303.15	0.8129	1036.23	1.14
303.15	0.871	1038.49	1.16
303.15	0.9001	1039.67	1.17
303.15	1.0189	1044.27	1.23
303.15	1.199	1052.06	1.31
308.15	0.0521	996.69	0.79
308.15	0.1042	999.93	0.76
308.15	0.1369	1001.57	0.77
308.15	0.2057	1004.83	0.81
308.15	0.2512	1006.69	0.83
308.15	0.2984	1008.84	0.85
308.15	0.3556	1011.59	0.88
308.15	0.4028	1013.74	0.9
308.15	0.4537	1016.36	0.93
308.15	0.5093	1019.21	0.96
308.15	0.6018	1023.82	1.01
308.15	0.6492	1026.28	1.03
308.15	0.7511	1030.78	1.08
308.15	0.8129	1033.29	1.11
308.15	0.871	1035.54	1.13
308.15	0.9001	1036.66	1.15
308.15	1.0189	1041.12	1.2
308.15	1.199	1049.61	1.29

System: water + 1-methyl-2-pyrrolidinone benzenesulfonate; phases: Liquid
Fixed: Pressure, kPa = 101
Property: Viscosity, Pa*s (Liquid); method: Capillary tube (Ostwald; Ubbelohde) method
Temperature, K	Molality, mol/kg of 1-methyl-2-pyrrolidinone benzenesulfonate	Viscosity, Pa*s	uncertainty
298.15	0.0521	0.0009266	1.07e-05
298.15	0.1042	0.0009506	1.1e-05
298.15	0.1369	0.0009685	1.12e-05
298.15	0.2057	0.0010028	1.16e-05
298.15	0.2512	0.0010277	1.19e-05
298.15	0.2984	0.0010553	1.22e-05
298.15	0.3556	0.0010825	1.25e-05
298.15	0.4028	0.0011075	1.28e-05
298.15	0.4537	0.0011325	1.31e-05
298.15	0.5093	0.0011602	1.35e-05
298.15	0.6018	0.0012044	1.4e-05
298.15	0.6492	0.0012262	1.43e-05
298.15	0.7511	0.0012766	1.49e-05
298.15	0.8129	0.001309	1.53e-05
298.15	0.871	0.0013412	1.57e-05
298.15	0.9001	0.0013581	1.59e-05
298.15	1.0189	0.0014229	1.67e-05
298.15	1.199	0.0015402	1.81e-05
303.15	0.0521	0.0008213	9.5e-06
303.15	0.1042	0.000845	9.8e-06
303.15	0.1369	0.0008602	1e-05
303.15	0.2057	0.0008912	1.04e-05
303.15	0.2512	0.0009109	1.06e-05
303.15	0.2984	0.0009313	1.08e-05
303.15	0.3556	0.0009567	1.11e-05
303.15	0.4028	0.0009774	1.14e-05
303.15	0.4537	0.0010017	1.17e-05
303.15	0.5093	0.0010252	1.19e-05
303.15	0.6018	0.0010646	1.24e-05
303.15	0.6492	0.0010851	1.27e-05
303.15	0.7511	0.0011299	1.32e-05
303.15	0.8129	0.0011578	1.36e-05
303.15	0.871	0.0011847	1.39e-05
303.15	0.9001	0.0011985	1.4e-05
303.15	1.0189	0.0012575	1.48e-05
303.15	1.199	0.0013582	1.6e-05
308.15	0.0521	0.0007506	8.7e-06
308.15	0.1042	0.0007706	9e-06
308.15	0.1369	0.0007809	9.1e-06
308.15	0.2057	0.0008063	9.4e-06
308.15	0.2512	0.0008208	9.6e-06
308.15	0.2984	0.0008393	9.8e-06
308.15	0.3556	0.0008611	1e-05
308.15	0.4028	0.0008786	1.03e-05
308.15	0.4537	0.0008972	1.05e-05
308.15	0.5093	0.0009174	1.07e-05
308.15	0.6018	0.0009514	1.11e-05
308.15	0.6492	0.0009692	1.14e-05
308.15	0.7511	0.001009	1.18e-05
308.15	0.8129	0.0010343	1.21e-05
308.15	0.871	0.0010591	1.24e-05
308.15	0.9001	0.0010719	1.26e-05
308.15	1.0189	0.0011269	1.33e-05
308.15	1.199	0.0012189	1.44e-05

System: water + 1-cyclohexyl-2-pyrrolidinone 4-methylbenzenesulfonate + 1-cyclohexyl-2-oxopyrrolidin-1-ium benzenesulfonate; phases: Liquid
Fixed: Pressure, kPa = 101
Property: Mass density, kg/m3 (Liquid); method: VIBTUB:UFactor:24
Temperature, K	Molality, mol/kg of 1-cyclohexyl-2-pyrrolidinone 4-methylbenzenesulfonate	Molality, mol/kg of 1-cyclohexyl-2-oxopyrrolidin-1-ium benzenesulfonate	Mass density, kg/m3	uncertainty
298.15	0.0201	0.0801	1003.29	0.79
298.15	0.0604	0.2433	1014.45	0.91
298.15	0.1276	0.4806	1029.03	1.07
298.15	0.1857	0.7215	1042.33	1.22
298.15	0.0502	0.0497	1002.26	0.78
298.15	0.1499	0.1506	1014.09	0.9
298.15	0.3037	0.3014	1029.14	1.07
298.15	0.4513	0.4498	1041.33	1.21
298.15	0.0803	0.0205	1003.05	0.79
298.15	0.2422	0.0599	1014.12	0.9
298.15	0.4731	0.1227	1028.52	1.06
298.15	0.7201	0.1831	1041.51	1.21
303.15	0.0201	0.0801	1001.49	0.77
303.15	0.0604	0.2433	1012.3	0.89
303.15	0.1276	0.4806	1026.22	1.04
303.15	0.1857	0.7215	1039.33	1.19
303.15	0.0502	0.0497	1000.55	0.77
303.15	0.1499	0.1506	1011.58	0.88
303.15	0.3037	0.3014	1027.02	1.05
303.15	0.4513	0.4498	1039.13	1.19
303.15	0.0803	0.0205	1000.91	0.77
303.15	0.2422	0.0599	1012.32	0.89
303.15	0.4731	0.1227	1026.44	1.04
303.15	0.7201	0.1831	1039.08	1.19
308.15	0.0201	0.0801	999.46	0.76
308.15	0.0604	0.2433	1009.52	0.86
308.15	0.1276	0.4806	1023.81	1.02
308.15	0.1857	0.7215	1037.35	1.17
308.15	0.0502	0.0497	998.61	0.77
308.15	0.1499	0.1506	1009.02	0.86
308.15	0.3037	0.3014	1024.06	1.02
308.15	0.4513	0.4498	1036.86	1.17
308.15	0.0803	0.0205	998.72	0.77
308.15	0.2422	0.0599	1010.27	0.87
308.15	0.4731	0.1227	1024.03	1.02
308.15	0.7201	0.1831	1036.91	1.17

System: water + 1-cyclohexyl-2-pyrrolidinone 4-methylbenzenesulfonate + 1-cyclohexyl-2-oxopyrrolidin-1-ium benzenesulfonate; phases: Liquid
Fixed: Pressure, kPa = 101
Property: Viscosity, Pa*s (Liquid); method: Capillary tube (Ostwald; Ubbelohde) method
Temperature, K	Molality, mol/kg of 1-cyclohexyl-2-pyrrolidinone 4-methylbenzenesulfonate	Molality, mol/kg of 1-cyclohexyl-2-oxopyrrolidin-1-ium benzenesulfonate	Viscosity, Pa*s	uncertainty
298.15	0.0201	0.0801	0.0009741	1.13e-05
298.15	0.0604	0.2433	0.0011611	1.34e-05
298.15	0.1276	0.4806	0.0014514	1.69e-05
298.15	0.1857	0.7215	0.0017615	2.06e-05
298.15	0.0502	0.0497	0.0009818	1.14e-05
298.15	0.1499	0.1506	0.001165	1.35e-05
298.15	0.3037	0.3014	0.0014669	1.71e-05
298.15	0.4513	0.4498	0.0017817	2.09e-05
298.15	0.0803	0.0205	0.0009918	1.15e-05
298.15	0.2422	0.0599	0.0011766	1.36e-05
298.15	0.4731	0.1227	0.0014768	1.72e-05
298.15	0.7201	0.1831	0.0018135	2.12e-05
303.15	0.0201	0.0801	0.0008628	1e-05
303.15	0.0604	0.2433	0.0010155	1.18e-05
303.15	0.1276	0.4806	0.001283	1.5e-05
303.15	0.1857	0.7215	0.0015531	1.82e-05
303.15	0.0502	0.0497	0.0008721	1.01e-05
303.15	0.1499	0.1506	0.0010204	1.19e-05
303.15	0.3037	0.3014	0.0012933	1.51e-05
303.15	0.4513	0.4498	0.001564	1.84e-05
303.15	0.0803	0.0205	0.0008799	1.02e-05
303.15	0.2422	0.0599	0.0010267	1.19e-05
303.15	0.4731	0.1227	0.0012951	1.51e-05
303.15	0.7201	0.1831	0.0015827	1.86e-05
308.15	0.0201	0.0801	0.0007788	9.1e-06
308.15	0.0604	0.2433	0.0009144	1.07e-05
308.15	0.1276	0.4806	0.0011368	1.33e-05
308.15	0.1857	0.7215	0.0013863	1.63e-05
308.15	0.0502	0.0497	0.0007847	9.1e-06
308.15	0.1499	0.1506	0.000918	1.07e-05
308.15	0.3037	0.3014	0.0011384	1.33e-05
308.15	0.4513	0.4498	0.0013903	1.64e-05
308.15	0.0803	0.0205	0.0007902	9.2e-06
308.15	0.2422	0.0599	0.0009233	1.08e-05
308.15	0.4731	0.1227	0.0011391	1.33e-05
308.15	0.7201	0.1831	0.0014024	1.65e-05

System: water + 1-methyl-2-pyrrolidinone p-toluenesulfonate + 1-methyl-2-pyrrolidinone benzenesulfonate; phases: Liquid
Fixed: Pressure, kPa = 101
Property: Mass density, kg/m3 (Liquid); method: VIBTUB:UFactor:24
Temperature, K	Molality, mol/kg of 1-methyl-2-pyrrolidinone p-toluenesulfonate	Molality, mol/kg of 1-methyl-2-pyrrolidinone benzenesulfonate	Mass density, kg/m3	uncertainty
298.15	0.02	0.0802	1003.04	0.79
298.15	0.0602	0.2426	1014.05	0.9
298.15	0.1197	0.4853	1028.45	1.05
298.15	0.1821	0.7202	1041.74	1.2
298.15	0.0503	0.0499	1002.99	0.79
298.15	0.1503	0.1524	1013.59	0.9
298.15	0.3007	0.3104	1028.6	1.05
298.15	0.4524	0.4498	1041.88	1.2
298.15	0.0811	0.0199	1002.74	0.79
298.15	0.2399	0.0616	1013.32	0.89
298.15	0.4806	0.1189	1027.97	1.05
298.15	0.7237	0.1787	1041.82	1.2
303.15	0.02	0.0802	1001.54	0.77
303.15	0.0602	0.2426	1011.48	0.88
303.15	0.1197	0.4853	1026.5	1.03
303.15	0.1821	0.7202	1039.46	1.17
303.15	0.0503	0.0499	1000.54	0.76
303.15	0.1503	0.1524	1012.02	0.88
303.15	0.3007	0.3104	1026.64	1.04
303.15	0.4524	0.4498	1039.73	1.18
303.15	0.0811	0.0199	1000.85	0.77
303.15	0.2399	0.0616	1011.63	0.88
303.15	0.4806	0.1189	1026.08	1.03
303.15	0.7237	0.1787	1038.81	1.17
308.15	0.02	0.0802	999.58	0.76
308.15	0.0602	0.2426	1009.47	0.86
308.15	0.1197	0.4853	1023.81	1.01
308.15	0.1821	0.7202	1036.25	1.14
308.15	0.0503	0.0499	998.9	0.77
308.15	0.1503	0.1524	1009.78	0.86
308.15	0.3007	0.3104	1024.38	1.01
308.15	0.4524	0.4498	1036.33	1.15
308.15	0.0811	0.0199	998.4	0.77
308.15	0.2399	0.0616	1009.18	0.85
308.15	0.4806	0.1189	1023.38	1
308.15	0.7237	0.1787	1036.4	1.15

System: water + 1-methyl-2-pyrrolidinone p-toluenesulfonate + 1-methyl-2-pyrrolidinone benzenesulfonate; phases: Liquid
Fixed: Pressure, kPa = 101
Property: Viscosity, Pa*s (Liquid); method: Capillary tube (Ostwald; Ubbelohde) method
Temperature, K	Molality, mol/kg of 1-methyl-2-pyrrolidinone p-toluenesulfonate	Molality, mol/kg of 1-methyl-2-pyrrolidinone benzenesulfonate	Viscosity, Pa*s	uncertainty
298.15	0.02	0.0802	0.000956	1.11e-05
298.15	0.0602	0.2426	0.0010632	1.23e-05
298.15	0.1197	0.4853	0.0012084	1.4e-05
298.15	0.1821	0.7202	0.0013702	1.6e-05
298.15	0.0503	0.0499	0.0009567	1.11e-05
298.15	0.1503	0.1524	0.001072	1.24e-05
298.15	0.3007	0.3104	0.0012206	1.42e-05
298.15	0.4524	0.4498	0.0013904	1.63e-05
298.15	0.0811	0.0199	0.0009628	1.11e-05
298.15	0.2399	0.0616	0.001079	1.25e-05
298.15	0.4806	0.1189	0.0012248	1.42e-05
298.15	0.7237	0.1787	0.0014011	1.64e-05
303.15	0.02	0.0802	0.0008452	9.8e-06
303.15	0.0602	0.2426	0.0009446	1.1e-05
303.15	0.1197	0.4853	0.0010715	1.25e-05
303.15	0.1821	0.7202	0.0012107	1.42e-05
303.15	0.0503	0.0499	0.0008497	9.9e-06
303.15	0.1503	0.1524	0.0009536	1.11e-05
303.15	0.3007	0.3104	0.0010797	1.26e-05
303.15	0.4524	0.4498	0.0012174	1.43e-05
303.15	0.0811	0.0199	0.000856	9.9e-06
303.15	0.2399	0.0616	0.0009575	1.11e-05
303.15	0.4806	0.1189	0.0010909	1.27e-05
303.15	0.7237	0.1787	0.0012299	1.44e-05
308.15	0.02	0.0802	0.0007713	9e-06
308.15	0.0602	0.2426	0.0008435	9.8e-06
308.15	0.1197	0.4853	0.0009521	1.11e-05
308.15	0.1821	0.7202	0.0010714	1.26e-05
308.15	0.0503	0.0499	0.0007695	9e-06
308.15	0.1503	0.1524	0.0008517	9.9e-06
308.15	0.3007	0.3104	0.0009612	1.13e-05
308.15	0.4524	0.4498	0.0010838	1.27e-05
308.15	0.0811	0.0199	0.0007718	9e-06
308.15	0.2399	0.0616	0.0008569	1e-05
308.15	0.4806	0.1189	0.0009608	1.13e-05
308.15	0.7237	0.1787	0.0010988	1.29e-05
