Measured thermophysical data. Experimental Vapor Liquid Equilibria for the Systems {2-Ethyl-1-hexanol + Glycerol + CO2} and {2-Methyl-2-propanol + Glycerol + CO2}
Source: J. Chem. Eng. Data, 2013, 10.1021/je400398e
Compound 1: carbon dioxide, CO2, InChI=1S/CO2/c2-1-3, purity 99.9%
Compound 2: 2-ethyl-1-hexanol, C8H18O, InChI=1S/C8H18O/c1-3-5-6-8(4-2)7-9/h8-9H,3-7H2,1-2H3, purity 99%
Compound 3: 2-methylpropan-2-ol, C4H10O, InChI=1S/C4H10O/c1-4(2,3)5/h5H,1-3H3, purity 99%
Compound 4: glycerol, C3H8O3, InChI=1S/C3H8O3/c4-1-3(6)2-5/h3-6H,1-2H2, purity 99.5%

System: 2-methylpropan-2-ol + carbon dioxide; phases: Liquid, Gas
Property: Vapor or sublimation pressure, kPa (Liquid); method: Closed cell (Static) method
Temperature, K	Mole fraction of carbon dioxide	Vapor or sublimation pressure, kPa	uncertainty
333	0.497	7000	190
333	0.607	8020	200
333	0.7	9000	190
333	0.795	9710	210
333	0.905	10470	210
343	0.497	7800	190
343	0.607	8920	200
343	0.7	9700	210
353	0.497	8560	180
353	0.607	9750	170
353	0.7	10830	180
368	0.497	9600	170
368	0.607	10580	160
368	0.7	11520	140

System: 2-methylpropan-2-ol + carbon dioxide; phases: Gas, Liquid
Property: Vapor or sublimation pressure, kPa (Gas); method: Closed cell (Static) method
Temperature, K	Mole fraction of carbon dioxide	Vapor or sublimation pressure, kPa	uncertainty
343	0.795	10350	260
343	0.905	11070	150
353	0.795	11560	170
353	0.905	11630	120
368	0.795	12030	120
368	0.905	11780	110

System: 2-ethyl-1-hexanol + carbon dioxide; phases: Liquid, Gas
Property: Vapor or sublimation pressure, kPa (Liquid); method: Closed cell (Static) method
Temperature, K	Mole fraction of carbon dioxide	Vapor or sublimation pressure, kPa	uncertainty
343	0.497	9140	500
343	0.599	11580	500
343	0.7	13360	500
343	0.8	13930	500
353	0.497	9880	500
353	0.599	12600	500
353	0.7	14000	500
353	0.8	15070	500
368	0.497	10630	500
368	0.599	13680	500
368	0.7	15160	500
368	0.8	16470	500
383	0.497	11340	500
383	0.599	14500	500
383	0.7	16630	500
383	0.8	18150	500
393	0.497	11710	500
393	0.599	14970	500
393	0.7	17250	500
393	0.8	18850	500

System: 2-ethyl-1-hexanol + carbon dioxide; phases: Gas, Liquid
Fixed: Mole fraction of carbon dioxide = 0.901
Property: Vapor or sublimation pressure, kPa (Gas); method: Closed cell (Static) method
Temperature, K	Vapor or sublimation pressure, kPa	uncertainty
343	13980	350
353	15620	270
368	17080	220
383	18510	220
393	19400	200

System: glycerol + 2-methylpropan-2-ol + carbon dioxide; phases: Liquid, Gas
Property: Vapor or sublimation pressure, kPa (Liquid); method: Closed cell (Static) method
Temperature, K	Mole fraction of carbon dioxide	Mole fraction of 2-methylpropan-2-ol	Vapor or sublimation pressure, kPa	uncertainty
343	0.508	0.487	8000	180
343	0.599	0.397	9000	210
343	0.699	0.298	9700	250
343	0.808	0.19	10400	240
353	0.508	0.487	8700	180
353	0.599	0.397	9900	170
353	0.699	0.298	10840	170
353	0.808	0.19	11500	240
368	0.508	0.487	9760	160
368	0.599	0.397	10700	150
368	0.699	0.298	11440	130
383	0.508	0.487	10580	140
383	0.599	0.397	11440	140
383	0.699	0.298	11820	120
393	0.508	0.487	10910	130
393	0.599	0.397	11830	130
393	0.699	0.298	12210	130

System: glycerol + 2-methylpropan-2-ol + carbon dioxide; phases: Gas, Liquid
Property: Vapor or sublimation pressure, kPa (Gas); method: Closed cell (Static) method
Temperature, K	Mole fraction of carbon dioxide	Mole fraction of 2-methylpropan-2-ol	Vapor or sublimation pressure, kPa	uncertainty
343	0.901	0.098	11000	1100
353	0.901	0.098	11650	130
368	0.808	0.19	12060	110
368	0.901	0.098	11890	120
383	0.808	0.19	12250	110
383	0.901	0.098	12100	120
393	0.808	0.19	12400	110
393	0.901	0.098	12300	120

System: glycerol + 2-ethyl-1-hexanol + carbon dioxide; phases: Liquid, Gas
Property: Vapor or sublimation pressure, kPa (Liquid); method: Closed cell (Static) method
Temperature, K	Mole fraction of carbon dioxide	Mole fraction of 2-ethyl-1-hexanol	Vapor or sublimation pressure, kPa	uncertainty
343	0.501	0.494	9100	180
343	0.602	0.394	11480	250
343	0.7	0.297	13360	250
343	0.801	0.196	14900	250
353	0.501	0.494	9820	250
353	0.602	0.394	12580	250
353	0.7	0.297	14260	250
353	0.801	0.196	16170	250
368	0.501	0.494	10550	250
368	0.602	0.394	13680	250
368	0.7	0.297	15500	250
368	0.801	0.196	17500	250
383	0.501	0.494	11260	250
383	0.602	0.394	14420	250
383	0.7	0.297	16740	250
383	0.801	0.196	18500	250
393	0.501	0.494	11920	250
393	0.602	0.394	14960	250
393	0.7	0.297	17690	250
393	0.801	0.196	19000	250

System: glycerol + 2-ethyl-1-hexanol + carbon dioxide; phases: Gas, Liquid
Fixed: Mole fraction of carbon dioxide = 0.899
Fixed: Mole fraction of 2-ethyl-1-hexanol = 0.099
Property: Vapor or sublimation pressure, kPa (Gas); method: Closed cell (Static) method
Temperature, K	Vapor or sublimation pressure, kPa	uncertainty
343	15230	250
353	16570	250
368	17910	250
383	19070	250
393	20000	250
