Measured thermophysical data. Excess Heat Capacities for Lactam + Chlorotoluene Binary Mixtures
Source: J. Chem. Eng. Data, 2013, 10.1021/je400408w
Compound 1: N-methylpyrrolidone, C5H9NO, InChI=1S/C5H9NO/c1-6-4-2-3-5(6)7/h2-4H2,1H3
Compound 2: 2-pyrrolidinone, C4H7NO, InChI=1S/C4H7NO/c6-4-2-1-3-5-4/h1-3H2,(H,5,6)
Compound 3: 2-chlorotoluene, C7H7Cl, InChI=1S/C7H7Cl/c1-6-4-2-3-5-7(6)8/h2-5H,1H3
Compound 4: 3-chlorotoluene, C7H7Cl, InChI=1S/C7H7Cl/c1-6-3-2-4-7(8)5-6/h2-5H,1H3
Compound 5: 4-chlorotoluene, C7H7Cl, InChI=1S/C7H7Cl/c1-6-2-4-7(8)5-3-6/h2-5H,1H3

System: N-methylpyrrolidone; phases: Liquid
Fixed: Pressure, kPa = 101.325
Property: Mass density, kg/m3 (Liquid); method: Vibrating tube method
Temperature, K	Mass density, kg/m3	uncertainty
293.15	1033.28	0.26
298.15	1028.26	0.25
303.15	1023.49	0.25

System: N-methylpyrrolidone; phases: Liquid
Fixed: Pressure, kPa = 101.325
Property: Speed of sound, m/s (Liquid); method: Pulse-echo method
Temperature, K	Speed of sound, m/s	uncertainty
293.15	1565.59	1.26
298.15	1546.09	1.25
303.15	1527.31	1.25

System: N-methylpyrrolidone; phases: Liquid
Fixed: Pressure, kPa = 100
Property: Molar heat capacity at constant pressure, J/K/mol (Liquid); method: SDSC:UFactor:0.5
Temperature, K	Molar heat capacity at constant pressure, J/K/mol	uncertainty
293.15	165.44	1.53
298.15	166.22	1.54
303.15	166.92	1.55

System: 2-pyrrolidinone; phases: Liquid
Fixed: Pressure, kPa = 101.325
Property: Mass density, kg/m3 (Liquid); method: Vibrating tube method
Temperature, K	Mass density, kg/m3	uncertainty
293.15	1111.28	0.32
298.15	1107.15	0.32
303.15	1103.06	0.31

System: 2-pyrrolidinone; phases: Liquid
Fixed: Pressure, kPa = 101.325
Property: Speed of sound, m/s (Liquid); method: Pulse-echo method
Temperature, K	Speed of sound, m/s	uncertainty
293.15	1651.44	1.28
298.15	1635.02	1.27
303.15	1618.7	1.27

System: 2-pyrrolidinone; phases: Liquid
Fixed: Pressure, kPa = 100
Property: Molar heat capacity at constant pressure, J/K/mol (Liquid); method: SDSC:UFactor:0.5
Temperature, K	Molar heat capacity at constant pressure, J/K/mol	uncertainty
293.15	168.36	1.56
298.15	169.55	1.57
303.15	171.18	1.59

System: 2-chlorotoluene; phases: Liquid
Fixed: Pressure, kPa = 101.325
Property: Mass density, kg/m3 (Liquid); method: Vibrating tube method
Temperature, K	Mass density, kg/m3	uncertainty
293.15	1082.22	1.01
298.15	1077.34	1
303.15	1072.46	0.99

System: 2-chlorotoluene; phases: Liquid
Fixed: Pressure, kPa = 101.325
Property: Speed of sound, m/s (Liquid); method: Pulse-echo method
Temperature, K	Speed of sound, m/s	uncertainty
293.15	1316.77	2.11
298.15	1298.7	2.11
303.15	1280.66	2.1

System: 2-chlorotoluene; phases: Liquid
Fixed: Pressure, kPa = 100
Property: Molar heat capacity at constant pressure, J/K/mol (Liquid); method: SDSC:UFactor:0.5
Temperature, K	Molar heat capacity at constant pressure, J/K/mol	uncertainty
293.15	176.43	1.64
298.15	178.21	1.65
303.15	180.01	1.67

System: 3-chlorotoluene; phases: Liquid
Fixed: Pressure, kPa = 101.325
Property: Mass density, kg/m3 (Liquid); method: Vibrating tube method
Temperature, K	Mass density, kg/m3	uncertainty
293.15	1072.12	0.99
298.15	1067.23	0.98
303.15	1062.33	0.97

System: 3-chlorotoluene; phases: Liquid
Fixed: Pressure, kPa = 101.325
Property: Speed of sound, m/s (Liquid); method: Pulse-echo method
Temperature, K	Speed of sound, m/s	uncertainty
293.15	1313.63	2.11
298.15	1295.46	2.11
303.15	1277.31	2.1

System: 3-chlorotoluene; phases: Liquid
Fixed: Pressure, kPa = 100
Property: Molar heat capacity at constant pressure, J/K/mol (Liquid); method: SDSC:UFactor:0.5
Temperature, K	Molar heat capacity at constant pressure, J/K/mol	uncertainty
293.15	175.21	1.62
298.15	176.46	1.64
303.15	177.67	1.65

System: 4-chlorotoluene; phases: Liquid
Fixed: Pressure, kPa = 101.325
Property: Mass density, kg/m3 (Liquid); method: Vibrating tube method
Temperature, K	Mass density, kg/m3	uncertainty
293.15	1069.27	0.29
298.15	1064.37	0.28
303.15	1059.46	0.28

System: 4-chlorotoluene; phases: Liquid
Fixed: Pressure, kPa = 101.325
Property: Speed of sound, m/s (Liquid); method: Pulse-echo method
Temperature, K	Speed of sound, m/s	uncertainty
293.15	1306.55	1.2
298.15	1288.37	1.2
303.15	1270.29	1.19

System: 4-chlorotoluene; phases: Liquid
Fixed: Pressure, kPa = 100
Property: Molar heat capacity at constant pressure, J/K/mol (Liquid); method: SDSC:UFactor:0.5
Temperature, K	Molar heat capacity at constant pressure, J/K/mol	uncertainty
293.15	175.66	1.63
298.15	177.95	1.65
303.15	180.37	1.67

System: 2-chlorotoluene + N-methylpyrrolidone; phases: Liquid
Fixed: Pressure, kPa = 100
Property: Molar heat capacity at constant pressure, J/K/mol (Liquid); method: SDSC:UFactor:0.5
Temperature, K	Mole fraction of N-methylpyrrolidone	Molar heat capacity at constant pressure, J/K/mol	uncertainty
293.15	0	176.43	1.64
293.15	0.0766	177.61	1.65
293.15	0.1176	178.19	1.65
293.15	0.1545	178.64	1.66
293.15	0.1932	179.13	1.66
293.15	0.2387	179.69	1.67
293.15	0.2768	180.04	1.67
293.15	0.3121	180.38	1.67
293.15	0.3543	180.68	1.68
293.15	0.3871	180.8	1.68
293.15	0.4267	180.94	1.68
293.15	0.4653	180.97	1.68
293.15	0.5065	180.95	1.68
293.15	0.5412	180.74	1.68
293.15	0.5849	180.46	1.67
293.15	0.6219	180.05	1.67
293.15	0.6618	179.44	1.66
293.15	0.7064	178.51	1.66
293.15	0.7417	177.61	1.65
293.15	0.7817	176.49	1.64
293.15	0.8213	175.04	1.62
293.15	0.8543	173.73	1.61
293.15	0.8886	172.09	1.6
293.15	0.9133	170.81	1.58
293.15	0.9476	168.91	1.57
293.15	1	165.44	1.53
298.15	0	178.21	1.65
298.15	0.0766	179.54	1.67
298.15	0.1176	180.12	1.67
298.15	0.1545	180.7	1.68
298.15	0.1932	181.09	1.68
298.15	0.2387	181.63	1.68
298.15	0.2768	181.98	1.69
298.15	0.3121	182.21	1.69
298.15	0.3543	182.53	1.69
298.15	0.5412	182.59	1.69
298.15	0.5849	182.25	1.69
298.15	0.6219	181.77	1.69
298.15	0.6618	181.22	1.68
298.15	0.7064	180.31	1.67
298.15	0.7417	179.4	1.66
298.15	0.7817	178.16	1.65
298.15	0.8213	176.75	1.64
298.15	0.8543	175.32	1.63
298.15	0.3871	182.64	1.69
298.15	0.4267	182.73	1.69
298.15	0.4653	182.78	1.7
298.15	0.5065	182.72	1.69
298.15	0.8886	173.57	1.61
298.15	0.9133	172.18	1.6
298.15	0.9476	170.02	1.58
298.15	1	166.22	1.54
303.15	0	180.01	1.67
303.15	0.0766	181.65	1.68
303.15	0.1176	182.31	1.69
303.15	0.1545	182.82	1.7
303.15	0.1932	183.22	1.7
303.15	0.2387	183.63	1.7
303.15	0.2768	183.93	1.71
303.15	0.3121	184.15	1.71
303.15	0.3543	184.34	1.71
303.15	0.3871	184.39	1.71
303.15	0.4267	184.44	1.71
303.15	0.4653	184.48	1.71
303.15	0.5065	184.39	1.71
303.15	0.5412	184.2	1.71
303.15	0.5849	183.84	1.7
303.15	0.6219	183.46	1.7
303.15	0.6618	182.89	1.7
303.15	0.7064	182.03	1.69
303.15	0.7417	181.15	1.68
303.15	0.7817	179.97	1.67
303.15	0.8213	178.4	1.65
303.15	0.8543	176.97	1.64
303.15	0.8886	175.14	1.62
303.15	0.9133	173.6	1.61
303.15	0.9476	171.22	1.59
303.15	1	166.92	1.55

System: 3-chlorotoluene + N-methylpyrrolidone; phases: Liquid
Fixed: Pressure, kPa = 100
Property: Molar heat capacity at constant pressure, J/K/mol (Liquid); method: SDSC:UFactor:0.5
Temperature, K	Mole fraction of N-methylpyrrolidone	Molar heat capacity at constant pressure, J/K/mol	uncertainty
293.15	0	175.21	1.62
293.15	0.0566	176.9	1.64
293.15	0.0976	178.07	1.65
293.15	0.1345	179.19	1.66
293.15	0.1724	180.12	1.67
293.15	0.2187	181.31	1.68
293.15	0.2565	182.12	1.69
293.15	0.2934	182.85	1.7
293.15	0.3342	183.56	1.7
293.15	0.3745	184.2	1.71
293.15	0.5386	185.06	1.72
293.15	0.5783	184.78	1.71
293.15	0.6112	184.42	1.71
293.15	0.6542	183.69	1.7
293.15	0.6923	182.87	1.7
293.15	0.7328	181.83	1.69
293.15	0.7786	179.95	1.67
293.15	0.8189	178.11	1.65
293.15	0.8324	177.43	1.65
293.15	0.8621	175.85	1.63
293.15	0.4187	184.71	1.71
293.15	0.4568	184.96	1.72
293.15	0.4986	185.09	1.72
293.15	0.9078	172.92	1.6
293.15	0.9427	170.28	1.58
293.15	1	165.44	1.53
298.15	0	176.46	1.64
298.15	0.0566	178.51	1.66
298.15	0.0976	179.91	1.67
298.15	0.1345	181.07	1.68
298.15	0.1724	182.1	1.69
298.15	0.2187	183.26	1.7
298.15	0.2565	184.06	1.71
298.15	0.2934	184.82	1.71
298.15	0.3342	185.46	1.72
298.15	0.3745	185.98	1.72
298.15	0.4187	186.4	1.73
298.15	0.4568	186.73	1.73
298.15	0.4986	186.84	1.73
298.15	0.5386	186.75	1.73
298.15	0.5783	186.58	1.73
298.15	0.6112	186.25	1.73
298.15	0.6542	185.54	1.72
298.15	0.6923	184.66	1.71
298.15	0.7328	183.55	1.7
298.15	0.7786	181.8	1.69
298.15	0.8189	180	1.67
298.15	0.8324	179.29	1.66
298.15	0.8621	177.56	1.65
298.15	0.9078	174.43	1.62
298.15	0.9427	171.62	1.59
298.15	1	166.22	1.54
303.15	0	177.67	1.65
303.15	0.0566	180.44	1.67
303.15	0.0976	182.2	1.69
303.15	0.1345	183.53	1.7
303.15	0.1724	184.76	1.71
303.15	0.2187	186.04	1.73
303.15	0.2565	186.9	1.73
303.15	0.2934	187.61	1.74
303.15	0.3342	188.27	1.75
303.15	0.3745	188.79	1.75
303.15	0.4187	189.2	1.75
303.15	0.4568	189.36	1.76
303.15	0.4986	189.47	1.76
303.15	1	166.92	1.55
303.15	0.5386	189.31	1.76
303.15	0.5783	189.08	1.75
303.15	0.6112	188.68	1.75
303.15	0.6542	187.92	1.74
303.15	0.6923	187.08	1.73
303.15	0.7328	185.83	1.72
303.15	0.7786	183.95	1.71
303.15	0.8189	182.01	1.69
303.15	0.8324	181.17	1.68
303.15	0.8621	179.36	1.66
303.15	0.9078	175.98	1.63
303.15	0.9427	172.92	1.6

System: 4-chlorotoluene + N-methylpyrrolidone; phases: Liquid
Fixed: Pressure, kPa = 100
Property: Molar heat capacity at constant pressure, J/K/mol (Liquid); method: SDSC:UFactor:0.5
Temperature, K	Mole fraction of N-methylpyrrolidone	Molar heat capacity at constant pressure, J/K/mol	uncertainty
293.15	0	175.66	1.63
293.15	0.0671	176.7	1.64
293.15	0.1128	177.44	1.65
293.15	0.1487	178.03	1.65
293.15	0.1876	178.67	1.66
293.15	0.2219	179.21	1.66
293.15	0.2615	179.85	1.67
293.15	0.2987	180.33	1.67
293.15	0.3328	180.77	1.68
293.15	0.3728	181.29	1.68
293.15	0.4137	181.62	1.68
293.15	0.4512	181.89	1.69
293.15	0.4928	182.07	1.69
293.15	0.5316	182.09	1.69
293.15	0.5773	181.94	1.69
293.15	0.6154	181.61	1.68
293.15	0.6542	181.16	1.68
293.15	0.6927	180.46	1.67
293.15	0.7326	179.54	1.67
293.15	0.7732	178.32	1.65
293.15	0.8142	176.8	1.64
293.15	0.8315	176	1.63
293.15	0.8715	174.08	1.61
293.15	0.9153	171.57	1.59
293.15	0.9534	169.04	1.57
293.15	1	165.44	1.53
298.15	0	177.95	1.65
298.15	0.0671	178.71	1.66
298.15	0.1128	179.35	1.66
298.15	0.1487	179.8	1.67
298.15	0.1876	180.38	1.67
298.15	0.2219	180.88	1.68
298.15	0.2615	181.44	1.68
298.15	0.2987	181.87	1.69
298.15	0.3328	182.28	1.69
298.15	0.3728	182.72	1.69
298.15	0.4137	183.02	1.7
298.15	0.4512	183.22	1.7
298.15	0.4928	183.31	1.7
298.15	0.5316	183.2	1.7
298.15	0.5773	182.93	1.7
298.15	0.6154	182.53	1.69
298.15	0.6542	182.01	1.69
298.15	0.6927	181.23	1.68
298.15	0.7326	180.21	1.67
298.15	0.7732	178.9	1.66
298.15	0.8142	177.33	1.64
298.15	0.8315	176.54	1.64
298.15	0.8715	174.58	1.62
298.15	0.9153	172.16	1.6
298.15	0.9534	169.62	1.57
298.15	1	166.22	1.54
303.15	0	180.37	1.67
303.15	0.0671	180.9	1.68
303.15	0.1128	181.36	1.68
303.15	0.1487	181.81	1.69
303.15	0.1876	182.29	1.69
303.15	0.2219	182.72	1.69
303.15	0.2615	183.16	1.7
303.15	0.2987	183.61	1.7
303.15	0.3328	183.94	1.71
303.15	0.3728	184.22	1.71
303.15	0.4137	184.44	1.71
303.15	0.4512	184.54	1.71
303.15	0.4928	184.53	1.71
303.15	0.5316	184.46	1.71
303.15	0.5773	184.08	1.71
303.15	0.6154	183.54	1.7
303.15	0.6542	182.89	1.7
303.15	0.6927	182.04	1.69
303.15	0.7326	180.88	1.68
303.15	0.7732	179.49	1.66
303.15	0.8142	177.84	1.65
303.15	0.8315	177.12	1.64
303.15	0.8715	175.13	1.62
303.15	0.9153	172.62	1.6
303.15	0.9534	170.26	1.58
303.15	1	166.92	1.55

System: 2-chlorotoluene + 2-pyrrolidinone; phases: Liquid
Fixed: Pressure, kPa = 100
Property: Molar heat capacity at constant pressure, J/K/mol (Liquid); method: SDSC:UFactor:0.5
Temperature, K	Mole fraction of 2-pyrrolidinone	Molar heat capacity at constant pressure, J/K/mol	uncertainty
293.15	0	176.43	1.64
293.15	0.0426	177.32	1.64
293.15	0.0815	178.2	1.65
293.15	0.1243	179.12	1.66
293.15	0.1654	180	1.67
293.15	0.2067	180.7	1.68
293.15	0.2432	181.17	1.68
293.15	0.2851	181.73	1.69
293.15	0.3215	182.2	1.69
293.15	0.3645	182.46	1.69
293.15	0.4088	182.43	1.69
293.15	0.4426	182.43	1.69
293.15	0.4854	182.08	1.69
293.15	0.5231	181.74	1.69
293.15	0.5612	181.22	1.68
293.15	0.5987	180.54	1.67
293.15	0.6316	179.75	1.67
293.15	0.6724	178.85	1.66
293.15	0.7143	177.56	1.65
293.15	0.7543	176.48	1.64
293.15	0.796	175.15	1.62
293.15	0.8342	173.85	1.61
293.15	0.8724	172.53	1.6
293.15	0.9088	171.32	1.59
293.15	0.9426	170.19	1.58
293.15	1	168.36	1.56
298.15	0	178.21	1.65
298.15	0.0426	179.22	1.66
298.15	0.0815	180.1	1.67
298.15	0.1243	181.15	1.68
298.15	0.1654	182.08	1.69
298.15	0.2067	182.94	1.7
298.15	0.2432	183.62	1.7
298.15	0.2851	184.27	1.71
298.15	0.3215	184.63	1.71
298.15	0.3645	184.96	1.72
298.15	0.4088	185.2	1.72
298.15	0.4426	185.07	1.72
298.15	0.4854	184.93	1.72
298.15	0.5231	184.55	1.71
298.15	0.5612	183.98	1.71
298.15	0.5987	183.29	1.7
298.15	0.6316	182.48	1.69
298.15	0.6724	181.51	1.68
298.15	0.7143	180.26	1.67
298.15	0.7543	178.86	1.66
298.15	0.796	177.45	1.65
298.15	0.8342	176.13	1.63
298.15	0.8724	174.47	1.62
298.15	0.9088	173.04	1.6
298.15	0.9426	171.72	1.59
298.15	1	169.55	1.57
303.15	0	180.01	1.67
303.15	0.0426	181.34	1.68
303.15	0.0815	182.4	1.69
303.15	0.1243	183.61	1.7
303.15	0.1654	184.67	1.71
303.15	0.2067	185.64	1.72
303.15	0.2432	186.37	1.73
303.15	0.2851	186.97	1.73
303.15	0.3215	187.49	1.74
303.15	0.3645	187.88	1.74
303.15	0.4088	188.02	1.74
303.15	0.4426	187.93	1.74
303.15	0.4854	187.72	1.74
303.15	0.5231	187.37	1.74
303.15	0.5612	186.88	1.73
303.15	0.5987	186.2	1.73
303.15	0.6316	185.46	1.72
303.15	0.6724	184.4	1.71
303.15	0.7143	183.11	1.7
303.15	0.7543	181.78	1.69
303.15	0.796	180.2	1.67
303.15	0.8342	178.66	1.66
303.15	0.8724	177.02	1.64
303.15	0.9088	175.4	1.63
303.15	0.9426	173.87	1.61
303.15	1	171.18	1.59

System: 3-chlorotoluene + 2-pyrrolidinone; phases: Liquid
Fixed: Pressure, kPa = 100
Property: Molar heat capacity at constant pressure, J/K/mol (Liquid); method: SDSC:UFactor:0.5
Temperature, K	Mole fraction of 2-pyrrolidinone	Molar heat capacity at constant pressure, J/K/mol	uncertainty
293.15	0	175.21	1.62
293.15	0.5213	177.98	1.65
293.15	0.0398	175.59	1.63
293.15	0.0798	176.05	1.63
293.15	0.1089	176.37	1.64
293.15	0.1443	176.74	1.64
293.15	0.1853	177.1	1.64
293.15	0.2234	177.49	1.65
293.15	0.2613	177.74	1.65
293.15	0.3095	178.12	1.65
293.15	0.3452	178.21	1.65
293.15	0.3865	178.3	1.65
293.15	0.4432	178.35	1.65
293.15	0.4836	178.22	1.65
293.15	0.5643	177.56	1.65
293.15	0.6074	177.17	1.64
293.15	0.6408	176.64	1.64
293.15	0.6853	175.94	1.63
293.15	0.7214	175.28	1.63
293.15	0.7654	174.4	1.62
293.15	0.8069	173.44	1.61
293.15	0.8453	172.56	1.6
293.15	0.8812	171.61	1.59
293.15	0.9203	170.57	1.58
293.15	0.9564	169.6	1.57
293.15	1	168.36	1.56
298.15	0	176.46	1.64
298.15	0.0398	176.89	1.64
298.15	0.0798	177.3	1.64
298.15	0.1089	177.6	1.65
298.15	0.1443	178.08	1.65
298.15	0.1853	178.48	1.66
298.15	0.2234	178.84	1.66
298.15	0.2613	179.25	1.66
298.15	0.3095	179.52	1.66
298.15	0.3452	179.69	1.67
298.15	0.3865	179.9	1.67
298.15	0.4432	179.92	1.67
298.15	0.4836	179.73	1.67
298.15	0.5213	179.53	1.66
298.15	0.5643	179.17	1.66
298.15	0.6074	178.68	1.66
298.15	0.6408	178.24	1.65
298.15	0.6853	177.56	1.65
298.15	0.7214	176.81	1.64
298.15	0.7654	175.89	1.63
298.15	0.8069	174.91	1.62
298.15	0.8453	173.94	1.61
298.15	0.8812	172.99	1.6
298.15	0.9203	171.93	1.59
298.15	0.9564	170.88	1.58
298.15	1	169.55	1.57
303.15	0	177.67	1.65
303.15	0.0398	178.18	1.65
303.15	0.0798	178.65	1.66
303.15	0.5213	181.21	1.68
303.15	0.5643	180.87	1.68
303.15	0.6074	180.45	1.67
303.15	0.1089	179.06	1.66
303.15	0.1443	179.55	1.67
303.15	0.1853	179.99	1.67
303.15	0.2234	180.42	1.67
303.15	0.2613	180.77	1.68
303.15	0.3095	181.15	1.68
303.15	0.3452	181.37	1.68
303.15	0.3865	181.5	1.68
303.15	0.4432	181.58	1.68
303.15	0.4836	181.43	1.68
303.15	0.6408	179.95	1.67
303.15	0.6853	179.23	1.66
303.15	0.7214	178.55	1.66
303.15	0.7654	177.62	1.65
303.15	0.8069	176.65	1.64
303.15	0.8453	175.71	1.63
303.15	0.8812	174.68	1.62
303.15	0.9203	173.57	1.61
303.15	0.9564	172.55	1.6
303.15	1	171.18	1.59

System: 4-chlorotoluene + 2-pyrrolidinone; phases: Liquid
Fixed: Pressure, kPa = 100
Property: Molar heat capacity at constant pressure, J/K/mol (Liquid); method: SDSC:UFactor:0.5
Temperature, K	Mole fraction of 2-pyrrolidinone	Molar heat capacity at constant pressure, J/K/mol	uncertainty
293.15	0	175.66	1.63
293.15	0.0386	175.99	1.63
293.15	0.0724	176.3	1.63
293.15	0.1123	176.65	1.64
293.15	0.1526	177.03	1.64
293.15	0.1926	177.35	1.64
293.15	0.2317	177.67	1.65
293.15	0.2725	177.98	1.65
293.15	0.3126	178.18	1.65
293.15	0.3516	178.38	1.65
293.15	0.3916	178.43	1.65
293.15	0.4332	178.43	1.65
293.15	0.4753	178.35	1.65
293.15	0.5121	178.24	1.65
293.15	0.5512	177.97	1.65
293.15	0.5925	177.61	1.65
293.15	0.6325	177.15	1.64
293.15	0.6715	176.58	1.64
293.15	0.7122	175.92	1.63
293.15	0.7534	175.18	1.62
293.15	0.7921	174.31	1.62
293.15	0.8324	173.32	1.61
293.15	0.8731	172.28	1.6
293.15	0.9123	171.14	1.59
293.15	0.9543	169.86	1.58
293.15	1	168.36	1.56
298.15	0	177.95	1.65
298.15	0.0386	178.08	1.65
298.15	0.0724	178.23	1.65
298.15	0.1123	178.52	1.66
298.15	0.5121	179.47	1.66
298.15	0.5512	179.17	1.66
298.15	0.5925	178.79	1.66
298.15	0.6325	178.25	1.65
298.15	0.1526	178.78	1.66
298.15	0.1926	179.04	1.66
298.15	0.2317	179.22	1.66
298.15	0.2725	179.48	1.66
298.15	0.3126	179.64	1.67
298.15	0.3516	179.7	1.67
298.15	0.3916	179.77	1.67
298.15	0.4332	179.72	1.67
298.15	0.4753	179.67	1.67
298.15	0.6715	177.74	1.65
298.15	0.7122	176.99	1.64
298.15	0.7534	176.18	1.63
298.15	0.7921	175.32	1.63
298.15	0.8324	174.4	1.62
298.15	0.8731	173.34	1.61
298.15	0.9123	172.21	1.6
298.15	0.9543	171	1.59
298.15	1	169.55	1.57
303.15	0	180.37	1.67
303.15	0.0386	180.47	1.67
303.15	0.0724	180.58	1.67
303.15	0.1123	180.66	1.68
303.15	0.1526	180.84	1.68
303.15	0.1926	180.93	1.68
303.15	0.2317	181.06	1.68
303.15	0.2725	181.12	1.68
303.15	0.3126	181.1	1.68
303.15	0.3516	181.14	1.68
303.15	0.3916	181.06	1.68
303.15	0.4332	180.88	1.68
303.15	0.4753	180.61	1.67
303.15	0.5121	180.38	1.67
303.15	0.5512	180.03	1.67
303.15	0.5925	179.53	1.66
303.15	0.6325	179.05	1.66
303.15	0.6715	178.48	1.66
303.15	0.7122	177.81	1.65
303.15	0.7534	177	1.64
303.15	0.7921	176.22	1.63
303.15	0.8324	175.34	1.63
303.15	0.8731	174.46	1.62
303.15	0.9123	173.5	1.61
303.15	0.9543	172.43	1.6
303.15	1	171.18	1.59
