Measured thermophysical data. Measurement and Prediction of Excess Enthalpies for Ternary Solutions 1-Ethyl-3-methylimidazolium Dimethylphosphate + Methanol or Ethanol + Water at 298.15 K and at Normal Atmospheric Pressure
Source: J. Chem. Eng. Data, 2014, 10.1021/je400158p
Compound 1: 1-ethyl-3-methylimidazolium dimethylphosphate, C8H17N2O4P, InChI=1S/C6H11N2.C2H7O4P/c1-3-8-5-4-7(2)6-8;1-5-7(3,4)6-2/h4-6H,3H2,1-2H3;1-2H3,(H,3,4)/q+1;/p-1
Compound 2: diethylene glycol, C4H10O3, InChI=1S/C4H10O3/c5-1-3-7-4-2-6/h5-6H,1-4H2, purity 99.8%
Compound 3: water, H2O, InChI=1S/H2O/h1H2, purity 99.8%
Compound 4: methanol, CH4O, InChI=1S/CH4O/c1-2/h2H,1H3, purity 99.8%
Compound 5: ethanol, C2H6O, InChI=1S/C2H6O/c1-2-3/h3H,2H2,1H3, purity 99.8%

System: diethylene glycol + water; phases: Liquid
Fixed: Temperature, K = 298.15
Fixed: Pressure, kPa = 101
Property: Excess molar enthalpy (molar enthalpy of mixing), kJ/mol (Liquid); method: Calvet calorimetry
Mole fraction of diethylene glycol	Excess molar enthalpy (molar enthalpy of mixing), kJ/mol	uncertainty
0.2	-1.219	0.014
0.401	-1.217	0.014
0.501	-1.149	0.013
0.804	-0.463	0.011

System: water + 1-ethyl-3-methylimidazolium dimethylphosphate; phases: Liquid
Fixed: Temperature, K = 298.15
Fixed: Pressure, kPa = 101
Property: Excess molar enthalpy (molar enthalpy of mixing), kJ/mol (Liquid); method: Calvet calorimetry
Mole fraction of 1-ethyl-3-methylimidazolium dimethylphosphate	Excess molar enthalpy (molar enthalpy of mixing), kJ/mol	uncertainty
0.1	-3.686	0.034
0.2	-5.439	0.044
0.4	-6.12	0.048
0.5	-5.777	0.046
0.7	-4.216	0.034

System: methanol + 1-ethyl-3-methylimidazolium dimethylphosphate; phases: Liquid
Fixed: Temperature, K = 298.15
Fixed: Pressure, kPa = 101
Property: Excess molar enthalpy (molar enthalpy of mixing), kJ/mol (Liquid); method: Calvet calorimetry
Mole fraction of 1-ethyl-3-methylimidazolium dimethylphosphate	Excess molar enthalpy (molar enthalpy of mixing), kJ/mol	uncertainty
0.2	-2.815	0.023
0.4	-3.572	0.028
0.7	-2.329	0.02

System: ethanol + 1-ethyl-3-methylimidazolium dimethylphosphate; phases: Liquid
Fixed: Temperature, K = 298.15
Fixed: Pressure, kPa = 101
Property: Excess molar enthalpy (molar enthalpy of mixing), kJ/mol (Liquid); method: Calvet calorimetry
Mole fraction of 1-ethyl-3-methylimidazolium dimethylphosphate	Excess molar enthalpy (molar enthalpy of mixing), kJ/mol	uncertainty
0.1	-1.301	0.017
0.2	-2.169	0.02
0.4	-2.814	0.023
0.7	-1.813	0.017

System: methanol + water + 1-ethyl-3-methylimidazolium dimethylphosphate; phases: Liquid
Fixed: Temperature, K = 298.15
Fixed: Pressure, kPa = 101
Property: Excess molar enthalpy (molar enthalpy of mixing), kJ/mol (Liquid); method: Calvet calorimetry
Mole fraction of 1-ethyl-3-methylimidazolium dimethylphosphate	Mole fraction of methanol	Excess molar enthalpy (molar enthalpy of mixing), kJ/mol	uncertainty
0.2	0.16	-4.625	0.151
0.397	0.121	-5.556	0.181
0.501	0.099	-5.14	0.168
0.701	0.062	-3.86	0.126
0.201	0.318	-4.173	0.136
0.404	0.24	-4.932	0.161
0.5	0.2	-4.515	0.148
0.695	0.125	-3.41	0.112
0.2	0.48	-3.684	0.12
0.401	0.359	-4.406	0.144
0.502	0.298	-4.118	0.135
0.695	0.184	-3.098	0.102
0.201	0.638	-3.143	0.103
0.401	0.481	-4.033	0.132
0.5	0.398	-3.644	0.119
0.699	0.24	-2.779	0.091

System: ethanol + water + 1-ethyl-3-methylimidazolium dimethylphosphate; phases: Liquid
Fixed: Temperature, K = 298.15
Fixed: Pressure, kPa = 101
Property: Excess molar enthalpy (molar enthalpy of mixing), kJ/mol (Liquid); method: Calvet calorimetry
Mole fraction of 1-ethyl-3-methylimidazolium dimethylphosphate	Mole fraction of ethanol	Excess molar enthalpy (molar enthalpy of mixing), kJ/mol	uncertainty
0.2	0.159	-4.407	0.144
0.399	0.121	-5.292	0.173
0.5	0.1	-4.936	0.161
0.702	0.065	-3.695	0.121
0.201	0.319	-3.852	0.126
0.4	0.24	-4.683	0.153
0.499	0.2	-4.398	0.144
0.701	0.116	-3.24	0.106
0.2	0.477	-3.38	0.11
0.401	0.359	-4.119	0.135
0.5	0.3	-3.862	0.127
0.7	0.18	-2.62	0.086
0.201	0.638	-2.798	0.091
0.401	0.479	-3.383	0.111
0.5	0.4	-3.135	0.103
0.7	0.241	-2.23	0.074
