Measured thermophysical data. Speed of Sound, Density, and Derivative Properties of Methyl Oleate and Methyl Linoleate under High Pressure
Source: J. Chem. Eng. Data, 2013, 10.1021/je4005323
Compound 1: methyl cis-9-octadecenoate, C19H36O2, InChI=1S/C19H36O2/c1-3-4-5-6-7-8-9-10-11-12-13-14-15-16-17-18-19(20)21-2/h10-11H,3-9,12-18H2,1-2H3/b11-10-, purity 99%
Compound 2: methyl (Z,Z)-9,12-octadecadienate, C19H34O2, InChI=1S/C19H34O2/c1-3-4-5-6-7-8-9-10-11-12-13-14-15-16-17-18-19(20)21-2/h7-8,10-11H,3-6,9,12-18H2,1-2H3/b8-7-,11-10-, purity 99%

System: methyl cis-9-octadecenoate; phases: Liquid
Property: Speed of sound, m/s (Liquid); method: Pulse-echo method
Pressure, kPa	Temperature, K	Speed of sound, m/s	uncertainty
101.3	283.15	1443.2	3.2
101.3	363.15	1170.9	2.7
101.3	303.15	1370.5	3.1
101.3	383.15	1108.9	2.6
101.3	323.15	1301.9	2.9
101.3	393.15	1078.5	2.5
101.3	343.15	1235.8	2.8
10000	283.15	1486.1	3.3
10000	363.15	1228.2	2.8
10000	303.15	1416.8	3.1
10000	383.15	1170.4	2.7
10000	323.15	1352.1	3
10000	393.15	1142.4	2.6
10000	343.15	1289	2.9
20000	363.15	1280.6	2.9
20000	283.15	1526.5	3.4
20000	303.15	1460	3.2
20000	383.15	1226.5	2.8
20000	323.15	1397.7	3.1
20000	393.15	1200	2.7
20000	343.15	1338.1	3
30000	363.15	1329.3	3
30000	303.15	1502	3.3
30000	283.15	1564.5	3.4
30000	383.15	1277.8	2.9
30000	323.15	1441.1	3.2
30000	393.15	1252	2.8
30000	343.15	1383.7	3.1
40000	303.15	1540.9	3.4
40000	383.15	1324.6	2.9
40000	283.15	1600.5	3.5
40000	363.15	1374	3
40000	323.15	1482.3	3.3
40000	393.15	1299.9	2.9
40000	343.15	1426	3.1
50000	303.15	1578.3	3.4
50000	383.15	1367.4	3
50000	323.15	1521.2	3.3
50000	283.15	1634.5	3.5
50000	363.15	1414.4	3.1
50000	393.15	1343.8	3
50000	343.15	1466.7	3.2
60000	303.15	1613.7	3.5
60000	383.15	1407.7	3.1
60000	323.15	1558.5	3.4
60000	393.15	1384.5	3
60000	283.15	1668.6	3.6
60000	363.15	1454.6	3.2
60000	343.15	1505.4	3.3
70000	283.15	1701	3.7
70000	383.15	1446.1	3.2
70000	323.15	1593.5	3.5
70000	363.15	1492.2	3.3
70000	393.15	1423.6	3.1
70000	303.15	1647	3.6
70000	343.15	1542.2	3.4
80000	303.15	1678.8	3.6
80000	363.15	1527.5	3.3
80000	383.15	1481.7	3.2
80000	283.15	1732.7	3.7
80000	323.15	1627.2	3.5
80000	393.15	1460.2	3.2
80000	343.15	1575.4	3.4
90000	303.15	1709.5	3.7
90000	383.15	1516.9	3.3
90000	363.15	1563.5	3.4
90000	323.15	1659.3	3.6
90000	393.15	1495.7	3.3
90000	283.15	1762.7	3.8
90000	343.15	1609.4	3.5
100000	383.15	1550.2	4.9
100000	363.15	1597.2	5
100000	303.15	1739.7	5.4
100000	323.15	1690.2	5.3
100000	393.15	1529.7	4.8
100000	283.15	1790.8	5.6
100000	343.15	1641.6	5.1
110000	283.15	1819.3	5.7
110000	363.15	1629.1	5.1
110000	383.15	1583.4	5
110000	323.15	1719.3	5.4
110000	303.15	1768.5	5.5
110000	393.15	1562.8	4.9
110000	343.15	1672.6	5.2
120000	323.15	1747.7	5.4
120000	283.15	1846	5.7
120000	363.15	1659.3	5.2
120000	303.15	1796.4	5.6
120000	383.15	1615.8	5.1
120000	393.15	1593.9	5
120000	343.15	1701.9	5.3
130000	323.15	1775.4	5.5
130000	393.15	1624.5	5.1
130000	283.15	1872.5	5.8
130000	363.15	1687.5	5.3
130000	303.15	1821.2	5.7
130000	383.15	1645.9	5.1
130000	343.15	1729.9	5.4
140000	393.15	1654.6	5.2
140000	363.15	1715.4	5.3
140000	303.15	1848.1	5.7
140000	283.15	1897.8	5.9
140000	323.15	1801.6	5.6
140000	383.15	1674.2	5.2
140000	343.15	1757.3	5.5
150000	363.15	1741.8	5.4
150000	303.15	1874.2	5.8
150000	393.15	1683	5.2
150000	283.15	1923.3	6
150000	383.15	1701.5	5.3
150000	323.15	1827.1	5.7
150000	343.15	1783.8	5.5
160000	323.15	1853	5.7
160000	383.15	1729.4	5.4
160000	393.15	1710.3	5.3
160000	283.15	1947.8	6
160000	303.15	1899	5.9
160000	363.15	1766.9	5.5
160000	343.15	1809.7	5.6
170000	393.15	1736.2	5.4
170000	323.15	1878.4	5.8
170000	303.15	1923.1	6
170000	383.15	1755.3	5.5
170000	363.15	1793.1	5.6
170000	283.15	1971.2	6.1
170000	343.15	1834.3	5.7
180000	393.15	1761.2	5.5
180000	283.15	1994.3	6.2
180000	323.15	1902.6	5.9
180000	363.15	1817.7	5.6
180000	383.15	1781.4	5.5
180000	303.15	1947	6
180000	343.15	1859.7	5.8
190000	393.15	1785.3	5.5
190000	383.15	1805.7	5.6
190000	303.15	1970.3	6.1
190000	283.15	2016.8	6.2
190000	363.15	1841.2	5.7
190000	323.15	1925.8	6
190000	343.15	1883.4	5.8
200000	283.15	2036.4	6.3
200000	323.15	1949.2	6
200000	303.15	1992.7	6.2
200000	343.15	1905.8	5.9
200000	363.15	1864.9	5.8
200000	383.15	1828.3	5.7
200000	393.15	1809.7	5.6

System: methyl cis-9-octadecenoate; phases: Liquid
Property: Mass density, kg/m3 (Liquid); method: Vibrating tube method
Pressure, kPa	Temperature, K	Mass density, kg/m3	uncertainty
101.3	293.15	873.8	0.6
10000	293.15	880	0.6
20000	293.15	885.3	0.6
30000	293.15	890.6	0.6
40000	293.15	895.5	0.6
50000	293.15	900.1	0.6
60000	293.15	904.5	0.7
70000	293.15	908.9	0.7
80000	293.15	912.6	0.7
90000	293.15	916.9	0.7
100000	293.15	920.7	0.7
101.3	353.15	830.4	0.6
10000	353.15	838	0.6
20000	353.15	845.1	0.6
30000	353.15	851.5	0.6
40000	353.15	857.5	0.7
50000	353.15	863.3	0.7
60000	353.15	868.7	0.7
70000	353.15	873.8	0.7
80000	353.15	878.7	0.8
90000	353.15	883.6	0.8
100000	353.15	888.2	0.8
101.3	303.15	866.3	0.6
10000	303.15	872.8	0.6
20000	303.15	878.4	0.6
30000	303.15	883.9	0.6
40000	303.15	888.9	0.6
50000	303.15	893.7	0.7
60000	303.15	898.3	0.7
70000	303.15	902.7	0.7
80000	303.15	906.9	0.7
90000	303.15	910.9	0.7
100000	303.15	915.4	0.7
101.3	363.15	823.2	0.6
10000	363.15	831.3	0.6
20000	363.15	838.7	0.6
30000	363.15	845.5	0.6
40000	363.15	851.8	0.7
50000	363.15	857.7	0.7
60000	363.15	863.1	0.7
70000	363.15	868.4	0.7
80000	363.15	873.3	0.8
90000	363.15	878.1	0.8
100000	363.15	882.9	0.8
101.3	313.15	859.6	0.6
10000	313.15	865.8	0.6
20000	313.15	871.7	0.6
30000	313.15	877.5	0.6
40000	313.15	882.5	0.6
50000	313.15	887.5	0.7
60000	313.15	892.2	0.7
70000	313.15	896.7	0.7
80000	313.15	901.2	0.7
90000	313.15	905.2	0.7
100000	313.15	909.7	0.7
101.3	373.15	815.8	0.6
10000	373.15	824.2	0.6
20000	373.15	832	0.6
30000	373.15	839.1	0.6
40000	373.15	845.7	0.7
50000	373.15	851.8	0.7
60000	373.15	857.5	0.7
70000	373.15	862.9	0.8
80000	373.15	868.2	0.8
90000	373.15	873	0.8
100000	373.15	878.1	0.8
101.3	323.15	852.4	0.6
10000	323.15	858.9	0.6
20000	323.15	865.1	0.6
30000	323.15	870.9	0.6
40000	323.15	876.1	0.6
50000	323.15	881.1	0.7
60000	323.15	886.2	0.7
70000	323.15	891	0.7
80000	323.15	895.5	0.7
90000	323.15	899.7	0.7
100000	323.15	904.1	0.8
101.3	383.15	808.4	0.6
10000	383.15	817.4	0.6
20000	383.15	825.5	0.6
30000	383.15	832.7	0.7
40000	383.15	839.5	0.7
50000	383.15	845.9	0.7
60000	383.15	851.8	0.7
70000	383.15	857.5	0.8
80000	383.15	862.8	0.8
90000	383.15	867.9	0.8
100000	383.15	873.2	0.8
101.3	333.15	844.8	0.6
10000	333.15	851.7	0.6
20000	333.15	858.3	0.6
30000	333.15	864.2	0.6
40000	333.15	869.7	0.7
50000	333.15	875	0.7
60000	333.15	880.1	0.7
70000	333.15	884.9	0.7
80000	333.15	889.4	0.7
90000	333.15	893.9	0.8
100000	333.15	898.2	0.8
101.3	393.15	800.8	0.6
10000	393.15	810.2	0.6
20000	393.15	818.5	0.6
30000	393.15	826.2	0.7
40000	393.15	833.2	0.7
50000	393.15	839.6	0.7
60000	393.15	845.7	0.7
70000	393.15	851.7	0.8
80000	393.15	857.2	0.8
90000	393.15	862.4	0.8
100000	393.15	867.6	0.9
101.3	343.15	837.8	0.6
10000	343.15	845.2	0.6
20000	343.15	851.9	0.6
30000	343.15	858.1	0.6
40000	343.15	864	0.7
50000	343.15	869.5	0.7
60000	343.15	874.6	0.7
70000	343.15	879.5	0.7
80000	343.15	884.4	0.7
90000	343.15	889	0.8
100000	343.15	893.4	0.8

System: methyl (Z,Z)-9,12-octadecadienate; phases: Liquid
Property: Speed of sound, m/s (Liquid); method: Pulse-echo method
Pressure, kPa	Temperature, K	Speed of sound, m/s	uncertainty
101.3	283.15	1455	3.2
101.3	363.15	1180.3	2.7
101.3	303.15	1382.9	3.1
101.3	383.15	1118.2	2.6
101.3	323.15	1312.6	3
101.3	393.15	1088	2.5
101.3	343.15	1245.1	2.8
10000	283.15	1498.2	3.3
10000	363.15	1237	2.8
10000	303.15	1428.9	3.2
10000	383.15	1178.7	2.7
10000	323.15	1361.4	3
10000	393.15	1150.9	2.6
10000	343.15	1297.9	2.9
20000	363.15	1288.6	2.9
20000	283.15	1539	3.4
20000	303.15	1472.2	3.2
20000	383.15	1233.8	2.8
20000	323.15	1407.2	3.1
20000	393.15	1207.3	2.7
20000	343.15	1346.9	3
30000	303.15	1513.6	3.3
30000	283.15	1577.6	3.4
30000	383.15	1283.1	2.9
30000	323.15	1450.8	3.2
30000	363.15	1336.6	3
30000	393.15	1258.5	2.8
30000	343.15	1392.6	3.1
40000	303.15	1552	3.4
40000	383.15	1329	3
40000	283.15	1614.3	3.5
40000	323.15	1491.3	3.3
40000	393.15	1304.7	2.9
40000	363.15	1381.1	3.1
40000	343.15	1435.4	3.2
50000	363.15	1422.6	3.1
50000	303.15	1588.6	3.5
50000	383.15	1372.3	3
50000	323.15	1530.3	3.3
50000	283.15	1649.2	3.6
50000	393.15	1348.4	3
50000	343.15	1475.1	3.2
60000	363.15	1462.6	3.2
60000	383.15	1413.2	3.1
60000	323.15	1567.2	3.4
60000	393.15	1389.4	3.1
60000	283.15	1682.6	3.6
60000	303.15	1623.5	3.5
60000	343.15	1513.2	3.3
70000	303.15	1656.3	3.6
70000	363.15	1500.2	3.3
70000	283.15	1714	3.7
70000	383.15	1452.3	3.2
70000	323.15	1601.4	3.5
70000	393.15	1428.7	3.1
70000	343.15	1549.4	3.4
80000	283.15	1745.2	3.8
80000	303.15	1688.3	3.6
80000	383.15	1489.5	3.2
80000	363.15	1536.1	3.3
80000	323.15	1634.3	3.5
80000	393.15	1466.7	3.2
80000	343.15	1583.9	3.4
90000	383.15	1525.2	3.3
90000	303.15	1719.1	3.7
90000	323.15	1666.2	3.6
90000	363.15	1570.2	3.4
90000	283.15	1774.4	3.8
90000	393.15	1503.1	3.3
90000	343.15	1616.7	3.5
100000	383.15	1558.2	4.9
100000	323.15	1697.2	5.3
100000	363.15	1602.5	5
100000	303.15	1748.7	5.5
100000	393.15	1537.7	4.8
100000	283.15	1803.2	5.6
100000	343.15	1648.6	5.2
110000	383.15	1590.3	5
110000	323.15	1726.4	5.4
110000	283.15	1830.9	5.7
110000	393.15	1570	4.9
110000	303.15	1776.9	5.5
110000	363.15	1634	5.1
110000	343.15	1679	5.2
120000	323.15	1754.6	5.5
120000	363.15	1663.9	5.2
120000	283.15	1857.8	5.8
120000	383.15	1621.1	5.1
120000	393.15	1600.8	5
120000	303.15	1804.4	5.6
120000	343.15	1708.5	5.3
130000	323.15	1782.4	5.5
130000	383.15	1650.8	5.2
130000	393.15	1630.7	5.1
130000	283.15	1884.6	5.8
130000	303.15	1831.3	5.7
130000	363.15	1693	5.3
130000	343.15	1736.1	5.4
140000	363.15	1720.3	5.4
140000	303.15	1857	5.8
140000	383.15	1679.1	5.2
140000	393.15	1660.1	5.2
140000	323.15	1808.7	5.6
140000	283.15	1909.9	5.9
140000	343.15	1763.4	5.5
150000	393.15	1688	5.3
150000	303.15	1883.6	5.8
150000	363.15	1747.4	5.4
150000	383.15	1707.1	5.3
150000	283.15	1934.7	6
150000	323.15	1834.7	5.7
150000	343.15	1789.7	5.6
170000	383.15	1759.8	5.5
170000	323.15	1884.5	5.8
170000	363.15	1799.1	5.6
170000	393.15	1740.7	5.4
170000	303.15	1932.3	6
170000	343.15	1840.9	5.7
190000	363.15	1847.3	5.7
190000	383.15	1808.6	5.6
190000	323.15	1931.7	6
190000	393.15	1790	5.6
190000	303.15	1979.7	6.1
190000	343.15	1889.3	5.8
210000	303.15	2023.6	6.2
210000	393.15	1838.1	5.7
210000	323.15	1977.6	6.1
210000	383.15	1855.8	5.7
210000	363.15	1894.7	5.9
210000	343.15	1935.4	6

System: methyl (Z,Z)-9,12-octadecadienate; phases: Liquid
Property: Mass density, kg/m3 (Liquid); method: Vibrating tube method
Pressure, kPa	Temperature, K	Mass density, kg/m3	uncertainty
101.3	293.15	885.2	0.6
10000	293.15	891.2	0.6
20000	293.15	896.6	0.6
30000	293.15	901.8	0.6
40000	293.15	906.8	0.6
50000	293.15	911.4	0.6
60000	293.15	915.9	0.6
70000	293.15	920.2	0.7
80000	293.15	924	0.7
90000	293.15	928.2	0.7
100000	293.15	931.3	0.7
101.3	353.15	841.8	0.6
10000	353.15	849.3	0.6
20000	353.15	856.2	0.6
30000	353.15	862.8	0.6
40000	353.15	868.9	0.7
50000	353.15	874.6	0.7
60000	353.15	879.9	0.7
70000	353.15	885.2	0.7
80000	353.15	890	0.7
90000	353.15	894.7	0.8
100000	353.15	899.3	0.8
101.3	303.15	877.7	0.6
10000	303.15	884	0.6
20000	303.15	889.6	0.6
30000	303.15	895	0.6
40000	303.15	900.1	0.6
50000	303.15	905	0.6
60000	303.15	909.5	0.7
70000	303.15	914	0.7
80000	303.15	918.1	0.7
90000	303.15	922.2	0.7
100000	303.15	926.2	0.7
101.3	363.15	834.7	0.6
10000	363.15	842.2	0.6
20000	363.15	849.5	0.6
30000	363.15	856.4	0.6
40000	363.15	862.6	0.7
50000	363.15	868.4	0.7
60000	363.15	873.9	0.7
70000	363.15	879.1	0.7
80000	363.15	884.1	0.7
90000	363.15	889	0.8
100000	363.15	893.9	0.8
101.3	313.15	870.9	0.6
10000	313.15	877.1	0.6
20000	313.15	882.9	0.6
30000	313.15	888.5	0.6
40000	313.15	893.7	0.6
50000	313.15	898.8	0.6
60000	313.15	903.3	0.7
70000	313.15	908	0.7
80000	313.15	912.2	0.7
90000	313.15	916.6	0.7
100000	313.15	920.6	0.7
101.3	373.15	826.5	0.6
10000	373.15	835.3	0.6
20000	373.15	842.9	0.6
30000	373.15	849.9	0.6
40000	373.15	856.4	0.7
50000	373.15	862.4	0.7
60000	373.15	868.3	0.7
70000	373.15	873.9	0.7
80000	373.15	879.3	0.8
90000	373.15	884.3	0.8
100000	373.15	889.1	0.8
101.3	323.15	863.7	0.6
10000	323.15	870.1	0.6
20000	323.15	876.3	0.6
30000	323.15	882	0.6
40000	323.15	887.3	0.6
50000	323.15	892.4	0.7
60000	323.15	897.4	0.7
70000	323.15	902.1	0.7
80000	323.15	906.7	0.7
90000	323.15	910.9	0.7
100000	323.15	915.1	0.7
101.3	383.15	819.3	0.6
10000	383.15	828.2	0.6
20000	383.15	836.2	0.6
30000	383.15	843.5	0.6
40000	383.15	850.2	0.7
50000	383.15	856.8	0.7
60000	383.15	862.7	0.7
70000	383.15	868.2	0.7
80000	383.15	873.5	0.8
90000	383.15	878.7	0.8
100000	383.15	883.9	0.8
101.3	333.15	856.3	0.6
10000	333.15	863	0.6
20000	333.15	869.5	0.6
30000	333.15	875.4	0.6
40000	333.15	881.3	0.6
50000	333.15	886.5	0.7
60000	333.15	891.5	0.7
70000	333.15	896.4	0.7
80000	333.15	900.9	0.7
90000	333.15	905.4	0.7
100000	333.15	910	0.7
101.3	393.15	811.9	0.6
10000	393.15	820.9	0.6
20000	393.15	829.3	0.6
30000	393.15	837	0.6
40000	393.15	844.1	0.7
50000	393.15	850.5	0.7
60000	393.15	856.7	0.7
70000	393.15	862.4	0.8
80000	393.15	867.9	0.8
90000	393.15	873	0.8
100000	393.15	878.1	0.8
101.3	343.15	849.1	0.6
10000	343.15	856.2	0.6
20000	343.15	863	0.6
30000	343.15	869.3	0.6
40000	343.15	875.1	0.6
50000	343.15	880.8	0.7
60000	343.15	885.9	0.7
70000	343.15	890.9	0.7
80000	343.15	895.7	0.7
90000	343.15	900.3	0.7
100000	343.15	904.7	0.8
