Measured thermophysical data. Solubility of Naringenin in Ethanol and Water Mixtures
Source: J. Chem. Eng. Data, 2013, 10.1021/je4000718
Compound 1: ethanol, C2H6O, InChI=1S/C2H6O/c1-2-3/h3H,2H2,1H3, purity 98%
Compound 2: 4',5,7-trihydroxyflavanone, C15H12O5, InChI=1S/C15H12O5/c16-9-3-1-8(2-4-9)13-7-12(19)15-11(18)5-10(17)6-14(15)20-13/h1-6,13,16-18H,7H2, purity 98%
Compound 3: water, H2O, InChI=1S/H2O/h1H2, purity 99.9%

System: ethanol + 4',5,7-trihydroxyflavanone + water; phases: Liquid, Crystal
Fixed: Pressure, kPa = 100
Property: Mole fraction of 4',5,7-trihydroxyflavanone (Liquid); method: Chromatography
Temperature, K	Solvent: Mole fraction of ethanol	Mole fraction of 4',5,7-trihydroxyflavanone	uncertainty
283.15	0	3.97e-07	4e-08
288.15	0	4.63e-07	4.7e-08
293.15	0	6.62e-07	6.7e-08
298.15	0	9.27e-07	9.3e-08
303.15	0	1.125e-06	1.14e-07
308.15	0	1.876e-06	1.9e-07
313.15	0	2.542e-06	2.56e-07
318.15	0	3.508e-06	3.52e-07
323.15	0	4.038e-06	4.04e-07
283.15	0.2	9.95e-05	1.95e-05
288.15	0.2	0.0001403	1.42e-05
293.15	0.2	0.0001887	1.91e-05
298.15	0.2	0.0002316	2.34e-05
303.15	0.2	0.000266	2.69e-05
308.15	0.2	0.0003377	3.42e-05
313.15	0.2	0.000459	4.64e-05
318.15	0.2	0.0006039	6.08e-05
323.15	0.2	0.0007401	9.14e-05
283.15	0.4	0.001577	0.000158
288.15	0.4	0.001693	0.00017
293.15	0.4	0.002142	0.000215
298.15	0.4	0.002556	0.000256
303.15	0.4	0.003072	0.000308
308.15	0.4	0.003255	0.000326
313.15	0.4	0.003665	0.000367
318.15	0.4	0.004241	0.000425
323.15	0.4	0.00507	0.00051
283.15	0.6	0.00451	0.00045
288.15	0.6	0.0047	0.00047
293.15	0.6	0.00512	0.00051
298.15	0.6	0.00608	0.00061
303.15	0.6	0.00681	0.00068
308.15	0.6	0.00757	0.00076
313.15	0.6	0.00855	0.00086
318.15	0.6	0.00922	0.00092
323.15	0.6	0.01062	0.00106
283.15	0.8	0.0065	0.00065
288.15	0.8	0.0072	0.00072
293.15	0.8	0.00791	0.00079
298.15	0.8	0.00884	0.00088
303.15	0.8	0.00966	0.00097
308.15	0.8	0.01028	0.00103
313.15	0.8	0.01172	0.00117
318.15	0.8	0.01238	0.00124
323.15	0.8	0.01316	0.00132
283.15	1	0.00863	0.00086
288.15	1	0.00881	0.00088
293.15	1	0.0092	0.00092
298.15	1	0.01018	0.00102
303.15	1	0.0114	0.00114
308.15	1	0.01231	0.00123
313.15	1	0.01366	0.00137
318.15	1	0.01471	0.00147
323.15	1	0.01584	0.00159

System: ethanol + 4',5,7-trihydroxyflavanone; phases: Liquid, Crystal
Fixed: Pressure, kPa = 100
Property: Mole fraction of 4',5,7-trihydroxyflavanone (Liquid); method: Chromatography
Temperature, K	Mole fraction of 4',5,7-trihydroxyflavanone	uncertainty
283.15	0.00863	0.00086
288.15	0.00881	0.00088
293.15	0.0092	0.00092
298.15	0.01018	0.00102
303.15	0.0114	0.00114
308.15	0.01231	0.00123
313.15	0.01366	0.00137
318.15	0.01471	0.00147
323.15	0.01584	0.00159

System: 4',5,7-trihydroxyflavanone + water; phases: Liquid, Crystal
Fixed: Pressure, kPa = 100
Property: Mole fraction of 4',5,7-trihydroxyflavanone (Liquid); method: Chromatography
Temperature, K	Mole fraction of 4',5,7-trihydroxyflavanone	uncertainty
283.15	3.97e-07	4e-08
288.15	4.63e-07	4.7e-08
293.15	6.62e-07	6.7e-08
298.15	9.27e-07	9.3e-08
303.15	1.125e-06	1.14e-07
308.15	1.876e-06	1.9e-07
313.15	2.542e-06	2.56e-07
318.15	3.508e-06	3.52e-07
323.15	4.038e-06	4.04e-07
