Measured thermophysical data. Thermodynamics of Solution of Hemato- and Deuteroporphyrins in N,N-Dimethylformamide
Source: J. Chem. Eng. Data, 2013, 10.1021/je400388j
Compound 1: dimethyl 3,3'-(3,7,12,17-tetramethylporphyrin-2,18-diyl)dipropanoate, C32H34N4O4, InChI=1S/C32H34N4O4/c1-17-11-22-14-27-19(3)23(7-9-31(37)39-5)29(35-27)16-30-24(8-10-32(38)40-6)20(4)28(36-30)15-26-18(2)12-21(34-26)13-25(17)33-22/h11-16,33,36H,7-10H2,1-6H3/b21-13-,22-14-,25-13-,26-15-,27-14-,28-15-,29-16-,30-16-
Compound 2: dimethyl 3,3'-[7,12-bis(1-methoxyethyl)-3,8,13,17-tetramethylporphyrin-2,18-diyl]dipropanoate, C38H46N4O6, InChI=1S/C38H46N4O6/c1-19-25(11-13-35(43)47-9)31-18-32-26(12-14-36(44)48-10)20(2)28(40-32)16-33-38(24(6)46-8)22(4)30(42-33)17-34-37(23(5)45-7)21(3)29(41-34)15-27(19)39-31/h15-18,23-24,40-41H,11-14H2,1-10H3/b27-15-,28-16-,29-15-,30-17-,31-18-,32-18-,33-16-,34-17-
Compound 3: dimethylformamide, C3H7NO, InChI=1S/C3H7NO/c1-4(2)3-5/h3H,1-2H3, purity 99%

System: dimethylformamide + dimethyl 3,3'-(3,7,12,17-tetramethylporphyrin-2,18-diyl)dipropanoate; phases: Liquid, Crystal
Fixed: Pressure, kPa = 101
Property: Molality, mol/kg of dimethyl 3,3'-(3,7,12,17-tetramethylporphyrin-2,18-diyl)dipropanoate (Liquid); method: Spectrophotometry
Temperature, K	Molality, mol/kg of dimethyl 3,3'-(3,7,12,17-tetramethylporphyrin-2,18-diyl)dipropanoate	uncertainty
288.15	0.0222	0.0004
298.15	0.0322	0.0006
308.15	0.0418	0.0008
318.15	0.0521	0.001

System: dimethylformamide + dimethyl 3,3'-[7,12-bis(1-methoxyethyl)-3,8,13,17-tetramethylporphyrin-2,18-diyl]dipropanoate; phases: Liquid, Crystal
Fixed: Pressure, kPa = 101
Property: Molality, mol/kg of dimethyl 3,3'-[7,12-bis(1-methoxyethyl)-3,8,13,17-tetramethylporphyrin-2,18-diyl]dipropanoate (Liquid); method: Spectrophotometry
Temperature, K	Molality, mol/kg of dimethyl 3,3'-[7,12-bis(1-methoxyethyl)-3,8,13,17-tetramethylporphyrin-2,18-diyl]dipropanoate	uncertainty
288.15	0.238	0.005
298.15	0.273	0.006
308.15	0.309	0.006
318.15	0.344	0.007
