Measured thermophysical data. Equilibrium Total Pressure and CO2 Solubility in Binary and Ternary Aqueous Solutions of 2-(Diethylamino)ethanol (DEEA) and 3-(Methylamino)propylamine (MAPA)
Source: J. Chem. Eng. Data, 2014, 10.1021/je400886w
Compound 1: (diethylamino)ethanol, C6H15NO, InChI=1S/C6H15NO/c1-3-7(4-2)5-6-8/h8H,3-6H2,1-2H3, purity 99%
Compound 2: N-methyl-1,3-diaminopropane, C4H12N2, InChI=1S/C4H12N2/c1-6-4-2-3-5/h6H,2-5H2,1H3, purity 99%
Compound 3: water, H2O, InChI=1S/H2O/h1H2, purity 99.8%
Compound 4: 2-aminoethan-1-ol, C2H7NO, InChI=1S/C2H7NO/c3-1-2-4/h4H,1-3H2, purity 99%
Compound 5: carbon dioxide, CO2, InChI=1S/CO2/c2-1-3, purity 99.99%

System: carbon dioxide + 2-aminoethan-1-ol + water; phases: Liquid, Gas
Fixed: Molality, mol/kg of 2-aminoethan-1-ol = 7.017
Property: Molality, mol/kg of carbon dioxide (Liquid); method: pressure drop
Temperature, K	Pressure, kPa	Molality, mol/kg of carbon dioxide	uncertainty
313.15	9.6	3.485	0.07
313.15	36	4.086	0.082
313.15	142.8	4.65	0.093
313.15	336.7	5.115	0.103
313.15	586.6	5.474	0.11
353.15	48.4	2.476	0.05
353.15	56.3	3.054	0.061
353.15	82	3.478	0.07
353.15	176.6	3.901	0.078
353.15	303.1	4.159	0.083
353.15	477	4.387	0.088
353.15	551.5	4.472	0.09
353.15	579.5	4.506	0.09
393.15	178.1	0.48	0.011
393.15	181.4	0.967	0.02
393.15	187.6	1.452	0.03
393.15	199.2	1.909	0.039
393.15	212.3	2.209	0.044
393.15	234.7	2.502	0.05
393.15	270.7	2.79	0.056
393.15	332.8	3.063	0.061
393.15	434.6	3.348	0.067
393.15	587.2	3.595	0.072

System: (diethylamino)ethanol + carbon dioxide + water; phases: Liquid, Gas
Fixed: Molality, mol/kg of (diethylamino)ethanol = 13.392
Property: Molality, mol/kg of carbon dioxide (Liquid); method: pressure drop
Temperature, K	Pressure, kPa	Molality, mol/kg of carbon dioxide	uncertainty
313.15	12.3	0.601	0.045
313.15	13.4	1.208	0.041
313.15	15	1.826	0.037
313.15	16.6	2.435	0.058
313.15	18.7	3.029	0.067
313.15	20.9	3.623	0.078
313.15	23.3	4.209	0.088
313.15	26.3	4.794	0.1
313.15	29.3	5.374	0.111
313.15	32.3	5.987	0.123
313.15	36.3	6.547	0.134
313.15	40.1	7.098	0.146
313.15	50.2	7.716	0.156
313.15	56.2	8.333	0.169
313.15	63.2	8.945	0.18
313.15	71.7	9.54	0.21
313.15	82.2	10.112	0.204
313.15	97	10.691	0.215
313.15	119.6	11.246	0.227
313.15	155.1	11.783	0.237
313.15	218.1	12.289	0.247
313.15	330.5	12.773	0.257
313.15	446.6	13.057	0.263
313.15	527.7	13.213	0.266
313.15	588.7	13.262	0.267
313.15	12	0.527	0.04
313.15	13.6	1.359	0.044
313.15	15.8	2.201	0.054
313.15	18.3	3.006	0.066
313.15	21.2	3.805	0.082
313.15	26.3	4.845	0.101
313.15	32	5.868	0.121
313.15	38.9	6.869	0.14
313.15	47.6	8.004	0.162
313.15	58	9.098	0.184
313.15	72.7	10.17	0.224
313.15	96.6	11.212	0.226
313.15	130.5	11.961	0.241
313.15	199.2	12.708	0.256
313.15	287.5	13.162	0.265
313.15	385.6	13.46	0.271
313.15	469.7	13.653	0.275
313.15	500.1	13.811	0.278
313.15	549.9	13.902	0.28
353.15	62	0.554	0.017
353.15	94.1	1.393	0.032
353.15	119.7	1.932	0.041
353.15	149.3	2.48	0.052
353.15	182.1	3.014	0.062
353.15	218	3.55	0.072
353.15	257	4.071	0.082
353.15	299.9	4.582	0.093
353.15	346	5.089	0.103
353.15	397.5	5.595	0.113
353.15	451.3	6.079	0.123
353.15	509.1	6.607	0.133
353.15	529.2	6.803	0.137
353.15	542.3	6.926	0.14
353.15	553.4	7.041	0.142
353.15	60.7	0.51	0.016
353.15	78.1	1.035	0.025
353.15	111.3	1.793	0.039
353.15	151.2	2.529	0.053
353.15	197.6	3.256	0.066
353.15	249.8	3.969	0.08
353.15	307.6	4.654	0.095
353.15	370.5	5.326	0.108
353.15	441.6	5.987	0.121
353.15	496.3	6.5	0.131
353.15	519.9	6.72	0.136
353.15	537.7	6.892	0.139
353.15	550.4	7.024	0.142
393.15	284.3	0.465	0.011
393.15	393.3	0.886	0.019
393.15	526.7	1.313	0.028
393.15	580.6	1.486	0.031
393.15	226	0.204	0.007
393.15	258.3	0.385	0.01
393.15	325.9	0.668	0.015
393.15	384.3	0.88	0.019
393.15	447.2	1.091	0.023
393.15	502.1	1.266	0.027
393.15	539.7	1.39	0.029
393.15	565.6	1.484	0.031
393.15	229.6	0.229	0.007
393.15	271.3	0.43	0.01
393.15	332.7	0.67	0.015
393.15	407.2	0.926	0.02
393.15	490.2	1.175	0.025
393.15	545	1.339	0.028
393.15	575.6	1.436	0.03

System: carbon dioxide + N-methyl-1,3-diaminopropane + water; phases: Liquid, Gas
Fixed: Molality, mol/kg of N-methyl-1,3-diaminopropane = 2.469
Property: Molality, mol/kg of carbon dioxide (Liquid); method: pressure drop
Temperature, K	Pressure, kPa	Molality, mol/kg of carbon dioxide	uncertainty
313.15	10.1	2.33	0.048
313.15	13.4	2.703	0.054
313.15	24.2	2.924	0.059
313.15	99.2	3.372	0.068
313.15	176.3	3.593	0.072
313.15	266.6	3.784	0.076
313.15	338.3	3.912	0.078
313.15	10.6	2.44	0.049
313.15	17.9	2.801	0.056
313.15	63.4	3.181	0.064
313.15	160.9	3.497	0.07
313.15	276.6	3.715	0.074
313.15	395.3	3.883	0.078
353.15	47.7	1.72	0.035
353.15	48.7	2.008	0.041
353.15	52.3	2.308	0.046
353.15	73	2.666	0.053
353.15	153.4	2.964	0.059
353.15	264.9	3.144	0.063
353.15	388.1	3.277	0.066
353.15	473.7	3.357	0.067
353.15	48.1	1.768	0.036
353.15	50.5	2.164	0.043
353.15	64.4	2.55	0.051
353.15	164.6	2.951	0.059
353.15	364.9	3.215	0.064
353.15	504.9	3.337	0.067
393.15	192.4	0.979	0.022
393.15	194.4	1.269	0.026
393.15	198.2	1.558	0.032
393.15	207.1	1.866	0.038
393.15	229.2	2.163	0.043
393.15	289.6	2.457	0.049
393.15	445.2	2.726	0.055
393.15	518.4	2.807	0.056
393.15	550.5	2.843	0.057
393.15	193.5	1.123	0.024
393.15	199.2	1.519	0.03
393.15	212.6	1.894	0.038
393.15	258.1	2.255	0.045
393.15	434.7	2.632	0.053
393.15	520	2.727	0.055
393.15	558.2	2.768	0.055
