Measured thermophysical data. Experimental Measurements and Thermodynamic Modeling of the Dissociation Conditions of Clathrate Hydrates for (Refrigerant + NaCl + Water) Systems
Source: J. Chem. Eng. Data, 2014, 10.1021/je400919u
Compound 1: pentafluoroethane, C2HF5, InChI=1S/C2HF5/c3-1(4)2(5,6)7/h1H, purity 99.8%
Compound 2: 1,1,1-trifluoroethane, C2H3F3, InChI=1S/C2H3F3/c1-2(3,4)5/h1H3, purity 99.8%
Compound 3: 1,1,1,2-tetrafluoroethane, C2H2F4, InChI=1S/C2H2F4/c3-1-2(4,5)6/h1H2, purity 99.9%
Compound 4: difluoromethane, CH2F2, InChI=1S/CH2F2/c2-1-3/h1H2, purity 99.8%
Compound 5: chlorodifluoromethane, CHClF2, InChI=1S/CHClF2/c2-1(3)4/h1H, purity 99.7%
Compound 6: 2,2,3-trifluoro-3-(trifluoromethyl)oxirane, C3F6O, InChI=1S/C3F6O/c4-1(2(5,6)7)3(8,9)10-1, purity 98%
Compound 7: carbon dioxide, CO2, InChI=1S/CO2/c2-1-3, purity 99%

System: 1,1,1,2-tetrafluoroethane; phases: Liquid, Gas
Property: Vapor or sublimation pressure, kPa (Liquid); method: Closed cell (Static) method
Temperature, K	Vapor or sublimation pressure, kPa	uncertainty
258.2	162	5
262.2	193	5
272.2	286	5
282.6	411	5
292.9	569	5
302.7	763	6

System: chlorodifluoromethane; phases: Liquid, Gas
Property: Vapor or sublimation pressure, kPa (Liquid); method: Closed cell (Static) method
Temperature, K	Vapor or sublimation pressure, kPa	uncertainty
273	495	5
275	528	5
277	562	5
285.1	718	6
286.9	761	6
289	807	6
283	677	5
281	637	5
279	599	5
291.1	855	6
295.1	955	6

System: 2,2,3-trifluoro-3-(trifluoromethyl)oxirane; phases: Liquid, Gas
Property: Vapor or sublimation pressure, kPa (Liquid); method: Closed cell (Static) method
Temperature, K	Vapor or sublimation pressure, kPa	uncertainty
293	588	6
288	505	6
283	431	6
278	366	6
273	309	5

System: carbon dioxide; phases: Liquid, Gas
Property: Vapor or sublimation pressure, kPa (Liquid); method: Closed cell (Static) method
Temperature, K	Vapor or sublimation pressure, kPa	uncertainty
283	4406	89
273	3387	69
293	5627	114
298.1	6323	128

System: pentafluoroethane + 1,1,1-trifluoroethane; phases: Liquid, Gas
Fixed: Mass fraction of pentafluoroethane = 0.5
Property: Vapor or sublimation pressure, kPa (Liquid); method: Closed cell (Static) method
Temperature, K	Vapor or sublimation pressure, kPa	uncertainty
258.2	381	5
261.9	435	5
269.2	555	6
277.6	725	6
282.6	843	6
287.6	974	6
293.1	1133	7
297.8	1287	7
302.9	1475	8

System: difluoromethane + pentafluoroethane; phases: Liquid, Gas
Fixed: Mass fraction of difluoromethane = 0.5
Property: Vapor or sublimation pressure, kPa (Liquid); method: Closed cell (Static) method
Temperature, K	Vapor or sublimation pressure, kPa	uncertainty
262.5	570	6
271.4	758	6
273.3	807	6
277.6	922	6
282.6	1070	7
287.6	1246	7
292.6	1429	8
297.6	1635	8
302.7	1855	8
