Measured thermophysical data. Interactions between Sulpha Drugs and Magnesium Chloride in Aqueous Solutions at T = (288.15 to 318.15) K: Volumetric and Viscometric Approach
Source: J. Chem. Eng. Data, 2013, 10.1021/je4002448
Compound 1: 4-aminobenzenesulfonamide, C6H8N2O2S, InChI=1S/C6H8N2O2S/c7-5-1-3-6(4-2-5)11(8,9)10/h1-4H,7H2,(H2,8,9,10), purity 99%
Compound 2: 4-aminobenzenesulfonic acid, C6H7NO3S, InChI=1S/C6H7NO3S/c7-5-1-3-6(4-2-5)11(8,9)10/h1-4H,7H2,(H,8,9,10), purity 99%
Compound 3: 2-hydroxy-5-sulfobenzoic acid dihydrate, C7H10O8S, InChI=1S/C7H6O6S.2H2O/c8-6-2-1-4(14(11,12)13)3-5(6)7(9)10;;/h1-3,8H,(H,9,10)(H,11,12,13);2*1H2, purity 99.5%
Compound 4: magnesium chloride hexahydrate, Cl2H12MgO6, InChI=1S/2ClH.Mg.6H2O/h2*1H;;6*1H2/q;;+2;;;;;;/p-2, purity 99.5%
Compound 5: water, H2O, InChI=1S/H2O/h1H2

System: 4-aminobenzenesulfonamide + water + magnesium chloride hexahydrate; phases: Liquid, Crystal
Property: Mass density, kg/m3 (Liquid); method: VIBTUB:UFactor:2
Temperature, K	Molality, mol/kg of magnesium chloride hexahydrate	Molality, mol/kg of 4-aminobenzenesulfonamide	Mass density, kg/m3	uncertainty
288.15	0.05	0.00512	1003.379	0.112
288.15	0.05	0.01006	1003.632	0.112
288.15	0.05	0.01605	1003.946	0.112
288.15	0.05	0.02565	1004.468	0.112
288.15	0.05	0.02785	1004.587	0.112
288.15	0.1	0.00966	1007.33	0.112
288.15	0.1	0.01178	1007.437	0.112
288.15	0.1	0.02654	1008.208	0.112
288.15	0.1	0.02674	1008.22	0.112
288.15	0.1	0.04387	1009.161	0.112
288.15	0.25	0.0048	1018.007	0.112
288.15	0.25	0.00926	1018.212	0.112
288.15	0.25	0.01517	1018.491	0.112
288.15	0.25	0.01679	1018.568	0.112
288.15	0.25	0.02087	1018.764	0.112
288.15	0.5	0.006	1035.231	0.112
288.15	0.5	0.00852	1035.34	0.112
288.15	0.5	0.01459	1035.608	0.112
288.15	0.5	0.0219	1035.939	0.112
288.15	0.5	0.02782	1036.215	0.112
298.15	0.05	0.00512	1001.208	0.112
298.15	0.05	0.01006	1001.454	0.112
298.15	0.05	0.01605	1001.757	0.112
298.15	0.05	0.02565	1002.258	0.112
298.15	0.05	0.02785	1002.372	0.112
298.15	0.1	0.00966	1005.07	0.112
298.15	0.1	0.01178	1005.171	0.112
298.15	0.1	0.02654	1005.884	0.112
298.15	0.1	0.02674	1005.895	0.112
298.15	0.1	0.04387	1006.741	0.112
298.15	0.25	0.0048	1015.542	0.112
298.15	0.25	0.00926	1015.745	0.112
298.15	0.25	0.01517	1016.024	0.112
298.15	0.25	0.01679	1016.101	0.112
298.15	0.25	0.02087	1016.302	0.112
298.15	0.5	0.006	1032.524	0.112
298.15	0.5	0.00852	1032.633	0.112
298.15	0.5	0.01459	1032.9	0.112
298.15	0.5	0.0219	1033.232	0.112
298.15	0.5	0.02782	1033.51	0.112
308.15	0.05	0.00512	998.126	0.112
308.15	0.05	0.01006	998.364	0.112
308.15	0.05	0.01605	998.661	0.112
308.15	0.05	0.02565	999.149	0.112
308.15	0.05	0.02785	999.266	0.112
308.15	0.1	0.00966	1002.078	0.112
308.15	0.1	0.01178	1002.178	0.112
308.15	0.1	0.02674	1002.89	0.112
308.15	0.1	0.02654	1002.881	0.112
308.15	0.1	0.04387	1003.721	0.112
308.15	0.25	0.0048	1012.748	0.112
308.15	0.25	0.00926	1012.949	0.112
308.15	0.25	0.01517	1013.222	0.112
308.15	0.25	0.01679	1013.299	0.112
308.15	0.25	0.02087	1013.5	0.112
308.15	0.5	0.006	1029.849	0.112
308.15	0.5	0.00852	1029.957	0.112
308.15	0.5	0.01459	1030.222	0.112
308.15	0.5	0.0219	1030.556	0.112
308.15	0.5	0.02782	1030.833	0.112
318.15	0.05	0.00512	994.273	0.112
318.15	0.05	0.01006	994.51	0.112
318.15	0.05	0.01605	994.807	0.112
318.15	0.05	0.02565	995.293	0.112
318.15	0.05	0.02785	995.407	0.112
318.15	0.1	0.00966	998.3	0.112
318.15	0.1	0.01178	998.399	0.112
318.15	0.1	0.02654	999.104	0.112
318.15	0.1	0.02674	999.115	0.112
318.15	0.1	0.04387	999.955	0.112
318.15	0.25	0.0048	1009.135	0.112
318.15	0.25	0.00926	1009.336	0.112
318.15	0.25	0.01517	1009.611	0.112
318.15	0.25	0.01679	1009.687	0.112
318.15	0.25	0.02087	1009.882	0.112
318.15	0.5	0.006	1026.286	0.112
318.15	0.5	0.00852	1026.391	0.112
318.15	0.5	0.01459	1026.645	0.112
318.15	0.5	0.0219	1026.957	0.112
318.15	0.5	0.02782	1027.212	0.112

System: 4-aminobenzenesulfonamide + water + magnesium chloride hexahydrate; phases: Liquid, Crystal
Property: Viscosity, Pa*s (Liquid); method: CAPTUB:UFactor:2
Temperature, K	Molality, mol/kg of magnesium chloride hexahydrate	Molality, mol/kg of 4-aminobenzenesulfonamide	Viscosity, Pa*s	uncertainty
288.15	0.05	0.00601	0.001094	1.4e-05
288.15	0.05	0.01061	0.0011	1.4e-05
288.15	0.05	0.01548	0.001106	1.4e-05
288.15	0.05	0.01944	0.00111	1.4e-05
288.15	0.05	0.02923	0.001121	1.5e-05
288.15	0.1	0.00851	0.001214	1.6e-05
288.15	0.1	0.01762	0.001218	1.6e-05
288.15	0.1	0.01763	0.001219	1.6e-05
288.15	0.1	0.02316	0.001221	1.6e-05
288.15	0.1	0.02705	0.001223	1.6e-05
288.15	0.25	0.00605	0.001255	1.6e-05
288.15	0.25	0.01238	0.001257	1.6e-05
288.15	0.25	0.01661	0.001258	1.6e-05
288.15	0.25	0.01975	0.001259	1.6e-05
288.15	0.25	0.02856	0.001262	1.6e-05
288.15	0.5	0.00564	0.00137	1.7e-05
288.15	0.5	0.01008	0.001372	1.7e-05
288.15	0.5	0.01538	0.001374	1.7e-05
288.15	0.5	0.02316	0.001377	1.7e-05
288.15	0.5	0.03183	0.001381	1.7e-05
298.15	0.05	0.00601	0.000847	1.1e-05
298.15	0.05	0.01061	0.000848	1.1e-05
298.15	0.05	0.01548	0.00085	1.2e-05
298.15	0.05	0.01944	0.000852	1.2e-05
298.15	0.05	0.02923	0.000856	1.2e-05
298.15	0.1	0.00851	0.000937	1.3e-05
298.15	0.1	0.01762	0.000939	1.3e-05
298.15	0.1	0.01763	0.00094	1.3e-05
298.15	0.1	0.02316	0.000942	1.3e-05
298.15	0.1	0.02705	0.000943	1.3e-05
298.15	0.25	0.00605	0.000988	1.3e-05
298.15	0.25	0.01238	0.00099	1.3e-05
298.15	0.25	0.01661	0.000991	1.3e-05
298.15	0.25	0.01975	0.000992	1.3e-05
298.15	0.25	0.02856	0.000995	1.3e-05
298.15	0.5	0.00564	0.001075	1.4e-05
298.15	0.5	0.01008	0.001077	1.4e-05
298.15	0.5	0.01538	0.001079	1.4e-05
298.15	0.5	0.02316	0.001082	1.4e-05
298.15	0.5	0.03183	0.001086	1.4e-05
308.15	0.05	0.00601	0.000684	1e-05
308.15	0.05	0.01061	0.000686	1e-05
308.15	0.05	0.01548	0.000687	1e-05
308.15	0.05	0.01944	0.000689	1e-05
308.15	0.05	0.02923	0.000692	1e-05
308.15	0.1	0.00851	0.00076	1e-05
308.15	0.1	0.01762	0.000762	1e-05
308.15	0.1	0.01763	0.000763	1e-05
308.15	0.1	0.02316	0.000765	1e-05
308.15	0.1	0.02705	0.000766	1e-05
308.15	0.25	0.00605	0.000798	1.1e-05
308.15	0.25	0.01238	0.000799	1.1e-05
308.15	0.25	0.01661	0.0008	1.1e-05
308.15	0.25	0.01975	0.000801	1.1e-05
308.15	0.25	0.02856	0.000803	1.1e-05
308.15	0.5	0.00564	0.00087	1.2e-05
308.15	0.5	0.01008	0.000872	1.2e-05
308.15	0.5	0.01538	0.000875	1.2e-05
308.15	0.5	0.02316	0.000878	1.2e-05
308.15	0.5	0.03183	0.000882	1.2e-05
318.15	0.05	0.00601	0.000569	8e-06
318.15	0.05	0.01061	0.00057	8e-06
318.15	0.05	0.01548	0.000572	8e-06
318.15	0.05	0.01944	0.000574	8e-06
318.15	0.05	0.02923	0.000577	8e-06
318.15	0.1	0.00851	0.000631	9e-06
318.15	0.1	0.01762	0.000634	9e-06
318.15	0.1	0.01763	0.000635	9e-06
318.15	0.1	0.02316	0.000637	9e-06
318.15	0.1	0.02705	0.000639	9e-06
318.15	0.25	0.00605	0.000662	9e-06
318.15	0.25	0.01238	0.000663	9e-06
318.15	0.25	0.01661	0.000664	9e-06
318.15	0.25	0.01975	0.000665	9e-06
318.15	0.25	0.02856	0.000668	9e-06
318.15	0.5	0.00564	0.000721	1e-05
318.15	0.5	0.01008	0.000723	1e-05
318.15	0.5	0.01538	0.000725	1e-05
318.15	0.5	0.02316	0.000728	1e-05
318.15	0.5	0.03183	0.000732	1e-05

System: 4-aminobenzenesulfonic acid + water + magnesium chloride hexahydrate; phases: Liquid, Crystal
Property: Mass density, kg/m3 (Liquid); method: VIBTUB:UFactor:2
Temperature, K	Molality, mol/kg of magnesium chloride hexahydrate	Molality, mol/kg of 4-aminobenzenesulfonic acid	Mass density, kg/m3	uncertainty
288.15	0.05	0.00577	1003.505	0.12
288.15	0.05	0.01281	1003.972	0.121
288.15	0.05	0.01383	1004.04	0.12
288.15	0.05	0.02164	1004.57	0.121
288.15	0.05	0.0303	1005.161	0.121
288.15	0.1	0.00665	1007.292	0.135
288.15	0.1	0.00841	1007.404	0.12
288.15	0.1	0.01394	1007.758	0.121
288.15	0.1	0.02533	1008.489	0.121
288.15	0.1	0.03169	1008.901	0.121
288.15	0.25	0.00539	1018.133	0.134
288.15	0.25	0.00783	1018.287	0.126
288.15	0.25	0.01443	1018.708	0.126
288.15	0.25	0.02486	1019.379	0.12
288.15	0.25	0.02933	1019.67	0.127
288.15	0.5	0.00615	1035.356	0.132
288.15	0.5	0.00937	1035.556	0.132
288.15	0.5	0.01612	1035.98	0.133
288.15	0.5	0.02319	1036.426	0.133
288.15	0.5	0.02563	1036.584	0.134
298.15	0.05	0.00577	1001.333	0.149
298.15	0.05	0.01281	1001.797	0.375
298.15	0.05	0.01383	1001.864	0.252
298.15	0.05	0.02164	1002.388	0.12
298.15	0.05	0.0303	1002.98	0.109
298.15	0.1	0.00665	1005.039	0.166
298.15	0.1	0.00841	1005.152	0.13
298.15	0.1	0.01394	1005.505	0.122
298.15	0.1	0.02533	1006.238	0.117
298.15	0.1	0.03169	1006.653	0.101
298.15	0.25	0.00539	1015.667	0.127
298.15	0.25	0.00783	1015.822	0.124
298.15	0.25	0.01443	1016.239	0.124
298.15	0.25	0.02486	1016.908	0.119
298.15	0.25	0.02933	1017.2	0.114
298.15	0.5	0.00615	1032.649	0.128
298.15	0.5	0.00937	1032.847	0.13
298.15	0.5	0.01612	1033.266	0.13
298.15	0.5	0.02319	1033.704	0.131
298.15	0.5	0.02563	1033.856	0.133
308.15	0.05	0.00577	998.257	0.146
308.15	0.05	0.01281	998.716	0.334
308.15	0.05	0.01383	998.784	0.214
308.15	0.05	0.02164	999.302	0.12
308.15	0.05	0.0303	999.886	0.11
308.15	0.1	0.00665	1002.049	0.172
308.15	0.1	0.00841	1002.16	0.13
308.15	0.1	0.01394	1002.51	0.121
308.15	0.1	0.02533	1003.236	0.117
308.15	0.1	0.03169	1003.646	0.101
308.15	0.25	0.00539	1012.873	0.175
308.15	0.25	0.00783	1013.026	0.129
308.15	0.25	0.01443	1013.445	0.125
308.15	0.25	0.02486	1014.116	0.116
308.15	0.25	0.02933	1014.409	0.105
308.15	0.5	0.00615	1029.971	0.19
308.15	0.5	0.00937	1030.168	0.134
308.15	0.5	0.01612	1030.582	0.129
308.15	0.5	0.02319	1031.016	0.122
308.15	0.5	0.02563	1031.167	0.128
318.15	0.05	0.00577	994.405	0.123
318.15	0.05	0.01281	994.862	0.123
318.15	0.05	0.01383	994.93	0.123
318.15	0.05	0.02164	995.44	0.121
318.15	0.05	0.0303	996.008	0.122
318.15	0.1	0.00665	998.269	0.139
318.15	0.1	0.00841	998.379	0.118
318.15	0.1	0.01394	998.727	0.119
318.15	0.1	0.02533	999.454	0.119
318.15	0.1	0.03169	999.864	0.12
318.15	0.25	0.00539	1009.258	0.134
318.15	0.25	0.00783	1009.41	0.123
318.15	0.25	0.01443	1009.826	0.123
318.15	0.25	0.02486	1010.499	0.115
318.15	0.25	0.02933	1010.791	0.124
318.15	0.5	0.00615	1026.408	0.127
318.15	0.5	0.00937	1026.602	0.127
318.15	0.5	0.01612	1027.009	0.127
318.15	0.5	0.02319	1027.437	0.127
318.15	0.5	0.02563	1027.585	0.127

System: 4-aminobenzenesulfonic acid + water + magnesium chloride hexahydrate; phases: Liquid, Crystal
Property: Viscosity, Pa*s (Liquid); method: CAPTUB:UFactor:2
Temperature, K	Molality, mol/kg of magnesium chloride hexahydrate	Molality, mol/kg of 4-aminobenzenesulfonic acid	Viscosity, Pa*s	uncertainty
288.15	0.05	0.00529	0.001079	1.4e-05
288.15	0.05	0.01071	0.001081	1.4e-05
288.15	0.05	0.01414	0.001082	1.4e-05
288.15	0.05	0.02313	0.001086	1.4e-05
288.15	0.05	0.033	0.001089	1.4e-05
288.15	0.1	0.00532	0.001212	1.6e-05
288.15	0.1	0.00914	0.001214	1.5e-05
288.15	0.1	0.02161	0.001219	1.5e-05
288.15	0.1	0.02638	0.001221	1.6e-05
288.15	0.1	0.03221	0.001224	1.6e-05
288.15	0.25	0.0084	0.001255	1.6e-05
288.15	0.25	0.014	0.001256	1.6e-05
288.15	0.25	0.01919	0.001258	1.6e-05
288.15	0.25	0.02734	0.001261	1.6e-05
288.15	0.25	0.03441	0.001263	1.6e-05
288.15	0.5	0.0055	0.001371	1.7e-05
288.15	0.5	0.00777	0.001372	1.7e-05
288.15	0.5	0.01491	0.001374	1.7e-05
288.15	0.5	0.02184	0.001377	1.7e-05
288.15	0.5	0.03624	0.001383	1.8e-05
298.15	0.05	0.00529	0.000848	1.1e-05
298.15	0.05	0.01071	0.00085	1.1e-05
298.15	0.05	0.01414	0.000851	1.1e-05
298.15	0.05	0.02313	0.000854	1.1e-05
298.15	0.05	0.033	0.000857	1.2e-05
298.15	0.1	0.00532	0.000937	1.3e-05
298.15	0.1	0.00914	0.000939	1.3e-05
298.15	0.1	0.02161	0.000944	1.3e-05
298.15	0.1	0.02638	0.000946	1.3e-05
298.15	0.1	0.03221	0.000948	1.3e-05
298.15	0.25	0.0084	0.000988	1.3e-05
298.15	0.25	0.014	0.000989	1.3e-05
298.15	0.25	0.01919	0.000991	1.3e-05
298.15	0.25	0.02734	0.000993	1.3e-05
298.15	0.25	0.03441	0.000995	1.3e-05
298.15	0.5	0.0055	0.001076	1.4e-05
298.15	0.5	0.00777	0.001077	1.4e-05
298.15	0.5	0.01491	0.001079	1.4e-05
298.15	0.5	0.02184	0.001082	1.4e-05
298.15	0.5	0.03624	0.001086	1.4e-05
308.15	0.05	0.00529	0.000687	1e-05
308.15	0.05	0.01071	0.000689	1e-05
308.15	0.05	0.01414	0.00069	1e-05
308.15	0.05	0.02313	0.000694	1e-05
308.15	0.05	0.033	0.000698	1e-05
308.15	0.1	0.00532	0.000759	1e-05
308.15	0.1	0.00914	0.000761	1e-05
308.15	0.1	0.02161	0.000765	1e-05
308.15	0.1	0.02638	0.000767	1e-05
308.15	0.1	0.03221	0.000769	1e-05
308.15	0.25	0.0084	0.000798	1.1e-05
308.15	0.25	0.014	0.000799	1.1e-05
308.15	0.25	0.01919	0.000801	1.1e-05
308.15	0.25	0.02734	0.000803	1.1e-05
308.15	0.25	0.03441	0.000805	1.1e-05
308.15	0.5	0.0055	0.000868	1.2e-05
308.15	0.5	0.00777	0.000869	1.2e-05
308.15	0.5	0.01491	0.000871	1.2e-05
308.15	0.5	0.02184	0.000873	1.2e-05
308.15	0.5	0.03624	0.000878	1.2e-05
318.15	0.05	0.00529	0.000569	8e-06
318.15	0.05	0.01071	0.00057	8e-06
318.15	0.05	0.01414	0.000571	8e-06
318.15	0.05	0.02313	0.000573	8e-06
318.15	0.05	0.033	0.000576	9e-06
318.15	0.1	0.00532	0.000629	9e-06
318.15	0.1	0.00914	0.00063	9e-06
318.15	0.1	0.02161	0.000634	9e-06
318.15	0.1	0.02638	0.000636	9e-06
318.15	0.1	0.03221	0.000637	9e-06
318.15	0.25	0.0084	0.000662	9e-06
318.15	0.25	0.014	0.000664	9e-06
318.15	0.25	0.01919	0.000666	9e-06
318.15	0.25	0.02734	0.000669	9e-06
318.15	0.25	0.03441	0.000672	9e-06
318.15	0.5	0.0055	0.00072	1e-05
318.15	0.5	0.00777	0.000721	1e-05
318.15	0.5	0.01491	0.000725	1e-05
318.15	0.5	0.02184	0.000728	1e-05
318.15	0.5	0.03624	0.000735	1e-05

System: 2-hydroxy-5-sulfobenzoic acid dihydrate + water + magnesium chloride hexahydrate; phases: Liquid, Crystal
Property: Mass density, kg/m3 (Liquid); method: VIBTUB:UFactor:2
Temperature, K	Molality, mol/kg of magnesium chloride hexahydrate	Molality, mol/kg of 2-hydroxy-5-sulfobenzoic acid dihydrate	Mass density, kg/m3	uncertainty
288.15	0.05	0.00858	1003.975	0.14
288.15	0.05	0.01624	1004.725	0.139
288.15	0.05	0.03085	1006.115	0.138
288.15	0.05	0.03883	1006.86	0.14
288.15	0.05	0.05887	1008.7	0.14
288.15	0.1	0.00946	1007.778	0.143
288.15	0.1	0.017	1008.495	0.139
288.15	0.1	0.04332	1010.943	0.137
288.15	0.1	0.0664	1013.034	0.138
288.15	0.1	0.08388	1014.573	0.137
288.15	0.25	0.00674	1018.436	0.113
288.15	0.25	0.01035	1018.777	0.145
288.15	0.25	0.01276	1019.004	0.231
288.15	0.25	0.0345	1021.033	0.143
288.15	0.25	0.07723	1024.891	0.144
288.15	0.5	0.01023	1035.935	0.149
288.15	0.5	0.02386	1037.192	0.149
288.15	0.5	0.0339	1038.103	0.148
288.15	0.5	0.04728	1039.298	0.148
288.15	0.5	0.06978	1041.266	0.149
298.15	0.05	0.00858	1001.779	0.169
298.15	0.05	0.01624	1002.506	0.141
298.15	0.05	0.03085	1003.866	0.133
298.15	0.05	0.03883	1004.603	0.14
298.15	0.05	0.05887	1006.407	0.131
298.15	0.1	0.00946	1005.509	0.153
298.15	0.1	0.017	1006.215	0.139
298.15	0.1	0.04332	1008.648	0.135
298.15	0.1	0.0664	1010.743	0.135
298.15	0.1	0.08388	1012.304	0.126
298.15	0.25	0.00674	1015.952	0.124
298.15	0.25	0.01035	1016.284	0.141
298.15	0.25	0.01276	1016.501	0.176
298.15	0.25	0.0345	1018.436	0.137
298.15	0.25	0.07723	1022.008	0.137
298.15	0.5	0.01023	1033.208	0.146
298.15	0.5	0.02386	1034.448	0.147
298.15	0.5	0.0339	1035.352	0.147
298.15	0.5	0.04728	1036.548	0.147
298.15	0.5	0.06978	1038.536	0.148
308.15	0.05	0.00858	998.69	0.164
308.15	0.05	0.01624	999.403	0.14
308.15	0.05	0.03085	1000.741	0.132
308.15	0.05	0.03883	1001.458	0.138
308.15	0.05	0.05887	1003.233	0.131
308.15	0.1	0.00946	1002.496	0.152
308.15	0.1	0.017	1003.182	0.137
308.15	0.1	0.04332	1005.555	0.134
308.15	0.1	0.0664	1007.611	0.134
308.15	0.1	0.08388	1009.151	0.126
308.15	0.25	0.00674	1013.147	0.145
308.15	0.25	0.01035	1013.471	0.134
308.15	0.25	0.01276	1013.687	0.145
308.15	0.25	0.0345	1015.597	0.137
308.15	0.25	0.07723	1019.187	0.132
308.15	0.5	0.01023	1030.52	0.159
308.15	0.5	0.02386	1031.742	0.143
308.15	0.5	0.0339	1032.634	0.146
308.15	0.5	0.04728	1033.814	0.146
308.15	0.5	0.06978	1035.774	0.137
318.15	0.05	0.00858	994.816	0.138
318.15	0.05	0.01624	995.511	0.137
318.15	0.05	0.03085	996.816	0.135
318.15	0.05	0.03883	997.518	0.134
318.15	0.05	0.05887	999.249	0.134
318.15	0.1	0.00946	998.701	0.139
318.15	0.1	0.017	999.372	0.134
318.15	0.1	0.04332	1001.696	0.132
318.15	0.1	0.0664	1003.711	0.133
318.15	0.1	0.08388	1005.222	0.133
318.15	0.25	0.00674	1009.519	0.103
318.15	0.25	0.01035	1009.836	0.139
318.15	0.25	0.01276	1010.046	0.251
318.15	0.25	0.0345	1011.929	0.136
318.15	0.25	0.07723	1015.516	0.136
318.15	0.5	0.01023	1026.938	0.142
318.15	0.5	0.02386	1028.126	0.142
318.15	0.5	0.0339	1028.991	0.142
318.15	0.5	0.04728	1030.136	0.142
318.15	0.5	0.06978	1032.031	0.143

System: 2-hydroxy-5-sulfobenzoic acid dihydrate + water + magnesium chloride hexahydrate; phases: Liquid, Crystal
Property: Viscosity, Pa*s (Liquid); method: CAPTUB:UFactor:2
Temperature, K	Molality, mol/kg of magnesium chloride hexahydrate	Molality, mol/kg of 2-hydroxy-5-sulfobenzoic acid dihydrate	Viscosity, Pa*s	uncertainty
288.15	0.05	0.00515	0.001082	1.4e-05
288.15	0.05	0.02052	0.001089	1.4e-05
288.15	0.05	0.03638	0.001096	1.4e-05
288.15	0.05	0.0426	0.001099	1.4e-05
288.15	0.05	0.05633	0.001106	1.4e-05
288.15	0.1	0.00537	0.001213	1.5e-05
288.15	0.1	0.00814	0.001214	1.5e-05
288.15	0.1	0.018	0.001218	1.6e-05
288.15	0.1	0.03543	0.001225	1.6e-05
288.15	0.1	0.05733	0.001233	1.6e-05
288.15	0.25	0.00563	0.001257	1.6e-05
288.15	0.25	0.0094	0.001258	1.6e-05
288.15	0.25	0.01492	0.001261	1.6e-05
288.15	0.25	0.03013	0.001269	1.6e-05
288.15	0.25	0.04067	0.001275	1.6e-05
288.15	0.5	0.0058	0.00137	1.7e-05
288.15	0.5	0.00901	0.001372	1.7e-05
288.15	0.5	0.0122	0.001374	1.7e-05
288.15	0.5	0.02901	0.001385	1.7e-05
288.15	0.5	0.04724	0.001397	1.8e-05
298.15	0.05	0.00515	0.000849	1.1e-05
298.15	0.05	0.02052	0.000855	1.2e-05
298.15	0.05	0.03638	0.00086	1.2e-05
298.15	0.05	0.0426	0.000862	1.2e-05
298.15	0.05	0.05633	0.000867	1.2e-05
298.15	0.1	0.00537	0.000937	1.3e-05
298.15	0.1	0.00814	0.000938	1.3e-05
298.15	0.1	0.018	0.000941	1.3e-05
298.15	0.1	0.03543	0.000946	1.3e-05
298.15	0.1	0.05733	0.000953	1.3e-05
298.15	0.25	0.00563	0.000988	1.3e-05
298.15	0.25	0.0094	0.000989	1.3e-05
298.15	0.25	0.01492	0.00099	1.3e-05
298.15	0.25	0.03013	0.000995	1.3e-05
298.15	0.25	0.04067	0.000998	1.3e-05
298.15	0.5	0.0058	0.001081	1.4e-05
298.15	0.5	0.00901	0.001084	1.4e-05
298.15	0.5	0.0122	0.001087	1.4e-05
298.15	0.5	0.02901	0.001102	1.4e-05
298.15	0.5	0.04724	0.001117	1.4e-05
308.15	0.05	0.00515	0.000685	1e-05
308.15	0.05	0.02052	0.000689	1e-05
308.15	0.05	0.03638	0.000694	1e-05
308.15	0.05	0.0426	0.000696	1e-05
308.15	0.05	0.05633	0.0007	1e-05
308.15	0.1	0.00537	0.000759	1e-05
308.15	0.1	0.00814	0.00076	1e-05
308.15	0.1	0.018	0.000763	1e-05
308.15	0.1	0.03543	0.000767	1e-05
308.15	0.1	0.05733	0.000774	1e-05
308.15	0.25	0.00563	0.000798	1.1e-05
308.15	0.25	0.0094	0.000799	1.1e-05
308.15	0.25	0.01492	0.0008	1.1e-05
308.15	0.25	0.03013	0.000804	1.1e-05
308.15	0.25	0.04067	0.00081	1.1e-05
308.15	0.5	0.0058	0.000872	1.2e-05
308.15	0.5	0.00901	0.000874	1.2e-05
308.15	0.5	0.0122	0.000877	1.2e-05
308.15	0.5	0.02901	0.00089	1.2e-05
308.15	0.5	0.04724	0.000905	1.2e-05
318.15	0.05	0.00515	0.000569	8e-06
318.15	0.05	0.02052	0.000573	8e-06
318.15	0.05	0.03638	0.000577	9e-06
318.15	0.05	0.0426	0.000578	9e-06
318.15	0.05	0.05633	0.000582	9e-06
318.15	0.1	0.00537	0.000629	9e-06
318.15	0.1	0.00814	0.00063	9e-06
318.15	0.1	0.018	0.000632	9e-06
318.15	0.1	0.03543	0.000636	9e-06
318.15	0.1	0.05733	0.000641	9e-06
318.15	0.25	0.00563	0.000661	9e-06
318.15	0.25	0.0094	0.000662	9e-06
318.15	0.25	0.01492	0.000664	9e-06
318.15	0.25	0.03013	0.000667	9e-06
318.15	0.25	0.04067	0.00067	9e-06
318.15	0.5	0.0058	0.000726	1e-05
318.15	0.5	0.00901	0.000728	1e-05
318.15	0.5	0.0122	0.000731	1e-05
318.15	0.5	0.02901	0.000743	1e-05
318.15	0.5	0.04724	0.000758	1e-05
