Measured thermophysical data. Determination and Modeling of the Solubility of 2,4-Dimethoxybenzoic Acid in Six Pure and Isopropanol + Ethyl Acetate Mixed Organic Solvents at Temperatures From (288.15 to 323.15) K
Source: J. Chem. Eng. Data, 2015, 10.1021/je501045s
Compound 1: 2,4-dimethoxybenzoic acid, C9H10O4, InChI=1S/C9H10O4/c1-12-6-3-4-7(9(10)11)8(5-6)13-2/h3-5H,1-2H3,(H,10,11), purity 99%
Compound 2: ethanol, C2H6O, InChI=1S/C2H6O/c1-2-3/h3H,2H2,1H3, purity 99.5%
Compound 3: propan-1-ol, C3H8O, InChI=1S/C3H8O/c1-2-3-4/h4H,2-3H2,1H3, purity 99.8%
Compound 4: propan-2-ol, C3H8O, InChI=1S/C3H8O/c1-3(2)4/h3-4H,1-2H3, purity 99.7%
Compound 5: butan-1-ol, C4H10O, InChI=1S/C4H10O/c1-2-3-4-5/h5H,2-4H2,1H3, purity 99.5%
Compound 6: 2-methyl-1-propanol, C4H10O, InChI=1S/C4H10O/c1-4(2)3-5/h4-5H,3H2,1-2H3, purity 99.5%
Compound 7: ethyl acetate, C4H8O2, InChI=1S/C4H8O2/c1-3-6-4(2)5/h3H2,1-2H3, purity 99.5%

System: 2,4-dimethoxybenzoic acid; phases: Crystal, Liquid, Air at 1 atmosphere
Property: Normal melting temperature, K (Crystal); method: DTA
Normal melting temperature, K	uncertainty
384.855	0.534

System: 2,4-dimethoxybenzoic acid; phases: Crystal, Liquid, Air at 1 atmosphere
Property: Molar enthalpy of transition or fusion, kJ/mol (Crystal); method: DSC
Molar enthalpy of transition or fusion, kJ/mol	uncertainty
27.901	1.251

System: ethanol + 2,4-dimethoxybenzoic acid; phases: Liquid, Crystal
Fixed: Pressure, kPa = 100
Property: Mole fraction of 2,4-dimethoxybenzoic acid (Liquid); method: laser monitoring dynamic method
Temperature, K	Mole fraction of 2,4-dimethoxybenzoic acid	uncertainty
288.15	0.0116	0.0008
293.15	0.0149	0.0008
298.15	0.0191	0.0008
303.15	0.0244	0.0008
308.15	0.0312	0.0008
313.15	0.0398	0.0008
318.15	0.0507	0.0008
323.15	0.0644	0.0009

System: propan-1-ol + 2,4-dimethoxybenzoic acid; phases: Liquid, Crystal
Fixed: Pressure, kPa = 100
Property: Mole fraction of 2,4-dimethoxybenzoic acid (Liquid); method: laser monitoring dynamic method
Temperature, K	Mole fraction of 2,4-dimethoxybenzoic acid	uncertainty
288.15	0.0087	0.0008
293.15	0.0114	0.0008
298.15	0.015	0.0008
303.15	0.0195	0.0008
308.15	0.0252	0.0008
313.15	0.0325	0.0008
318.15	0.0417	0.0008
323.15	0.0532	0.0008

System: propan-2-ol + 2,4-dimethoxybenzoic acid; phases: Liquid, Crystal
Fixed: Pressure, kPa = 100
Property: Mole fraction of 2,4-dimethoxybenzoic acid (Liquid); method: laser monitoring dynamic method
Temperature, K	Mole fraction of 2,4-dimethoxybenzoic acid	uncertainty
288.15	0.0059	0.0008
293.15	0.0081	0.0008
298.15	0.0109	0.0008
303.15	0.0147	0.0008
308.15	0.0195	0.0008
313.15	0.0259	0.0008
318.15	0.034	0.0008
323.15	0.0445	0.0008

System: butan-1-ol + 2,4-dimethoxybenzoic acid; phases: Liquid, Crystal
Fixed: Pressure, kPa = 100
Property: Mole fraction of 2,4-dimethoxybenzoic acid (Liquid); method: laser monitoring dynamic method
Temperature, K	Mole fraction of 2,4-dimethoxybenzoic acid	uncertainty
288.15	0.0086	0.0008
293.15	0.0112	0.0008
298.15	0.0146	0.0008
303.15	0.0188	0.0008
308.15	0.0242	0.0008
313.15	0.0309	0.0008
318.15	0.0393	0.0008
323.15	0.0498	0.0008

System: 2-methyl-1-propanol + 2,4-dimethoxybenzoic acid; phases: Liquid, Crystal
Fixed: Pressure, kPa = 100
Property: Mole fraction of 2,4-dimethoxybenzoic acid (Liquid); method: laser monitoring dynamic method
Temperature, K	Mole fraction of 2,4-dimethoxybenzoic acid	uncertainty
288.15	0.0059	0.0008
293.15	0.0079	0.0008
298.15	0.0105	0.0008
303.15	0.0139	0.0008
308.15	0.0183	0.0008
313.15	0.0239	0.0008
318.15	0.0311	0.0008
323.15	0.0401	0.0008

System: 2,4-dimethoxybenzoic acid + ethyl acetate; phases: Liquid, Crystal
Fixed: Pressure, kPa = 100
Property: Mole fraction of 2,4-dimethoxybenzoic acid (Liquid); method: laser monitoring dynamic method
Temperature, K	Mole fraction of 2,4-dimethoxybenzoic acid	uncertainty
288.15	0.0165	0.0008
293.15	0.0205	0.0008
298.15	0.0253	0.0008
303.15	0.0312	0.0008
308.15	0.0382	0.0008
313.15	0.0467	0.0008
318.15	0.0567	0.0008
323.15	0.0687	0.0008

System: propan-2-ol + 2,4-dimethoxybenzoic acid + ethyl acetate; phases: Liquid, Crystal
Fixed: Pressure, kPa = 100
Property: Mole fraction of 2,4-dimethoxybenzoic acid (Liquid); method: laser monitoring dynamic method
Solvent: Mass fraction of propan-2-ol	Temperature, K	Mole fraction of 2,4-dimethoxybenzoic acid	uncertainty
0.1	288.15	0.0218	0.0008
0.1	293.15	0.0266	0.0008
0.1	298.15	0.0324	0.0008
0.1	303.15	0.0392	0.0008
0.2	288.15	0.0245	0.0008
0.2	293.15	0.0298	0.0008
0.2	298.15	0.036	0.0008
0.2	303.15	0.0434	0.0008
0.3	288.15	0.0252	0.0008
0.3	293.15	0.0306	0.0008
0.3	298.15	0.0371	0.0008
0.3	303.15	0.0449	0.0008
0.4	288.15	0.0244	0.0008
0.4	293.15	0.0297	0.0008
0.4	298.15	0.0361	0.0008
0.4	303.15	0.0437	0.0008
0.5	288.15	0.0224	0.0008
0.5	293.15	0.0275	0.0008
0.5	298.15	0.0336	0.0008
0.5	303.15	0.041	0.0008
0.6	288.15	0.0194	0.0008
0.6	293.15	0.0241	0.0008
0.6	298.15	0.0298	0.0008
0.6	303.15	0.0367	0.0008
0.7	288.15	0.0165	0.0008
0.7	293.15	0.0208	0.0008
0.7	298.15	0.0261	0.0008
0.7	303.15	0.0326	0.0008
0.8	288.15	0.0126	0.0008
0.8	293.15	0.0162	0.0008
0.8	298.15	0.0207	0.0008
0.8	303.15	0.0262	0.0008
0.9	288.15	0.0094	0.0008
0.9	293.15	0.0122	0.0008
0.9	298.15	0.0159	0.0008
0.9	303.15	0.0206	0.0008
