Measured thermophysical data. Partial Molar Volumes and Partial Molar Isentropic Compressions of 15-Crown-5 and 18-Crown-6 Ethers at Infinite Dilution in Water at Temperatures T = (278 to 343) K and Atmospheric Pressure
Source: J. Chem. Eng. Data, 2014, 10.1021/je500265v
Compound 1: 1,4,7,10,13-pentaoxacyclopentadecane, C10H20O5, InChI=1S/C10H20O5/c1-2-12-5-6-14-9-10-15-8-7-13-4-3-11-1/h1-10H2, purity 98%
Compound 2: 1,4,7,10,13,16-hexaoxacyclooctadecane, C12H24O6, InChI=1S/C12H24O6/c1-2-14-5-6-16-9-10-18-12-11-17-8-7-15-4-3-13-1/h1-12H2, purity 99%
Compound 3: water, H2O, InChI=1S/H2O/h1H2

System: water + 1,4,7,10,13-pentaoxacyclopentadecane; phases: Liquid
Fixed: Pressure, kPa = 101
Property: Mass density, kg/m3 (Liquid); method: VIBTUB:UFactor:0.5
Temperature, K	Molality, mol/kg of 1,4,7,10,13-pentaoxacyclopentadecane	Mass density, kg/m3	uncertainty
278.15	0.055724	2.101	0.018
278.15	0.101838	3.821	0.019
278.15	0.176907	6.572	0.019
278.15	0.229722	8.485	0.02
278.15	0.298682	10.95	0.021
283.15	0.055724	2.045	0.018
283.15	0.101838	3.717	0.019
283.15	0.176907	6.393	0.019
283.15	0.229722	8.249	0.02
283.15	0.298682	10.642	0.021
288.15	0.055724	1.997	0.018
288.15	0.101838	3.626	0.019
288.15	0.176907	6.235	0.019
288.15	0.229722	8.043	0.02
288.15	0.298682	10.371	0.021
293.15	0.055724	1.953	0.018
293.15	0.101838	3.549	0.019
293.15	0.176907	6.096	0.019
293.15	0.229722	7.861	0.02
293.15	0.298682	10.132	0.021
298.15	0.055724	1.915	0.018
298.15	0.101838	3.476	0.018
298.15	0.176907	5.97	0.019
298.15	0.229722	7.696	0.02
298.15	0.298682	9.917	0.02
303.15	0.055724	1.879	0.018
303.15	0.101838	3.412	0.018
303.15	0.176907	5.856	0.019
303.15	0.229722	7.548	0.02
303.15	0.298682	9.72	0.02
308.15	0.055724	1.847	0.018
308.15	0.101838	3.352	0.018
308.15	0.176907	5.751	0.019
308.15	0.229722	7.41	0.02
308.15	0.298682	9.54	0.02
313.15	0.055724	1.817	0.018
313.15	0.101838	3.296	0.018
313.15	0.176907	5.654	0.019
313.15	0.229722	7.282	0.02
313.15	0.298682	9.372	0.02
318.15	0.055724	1.789	0.018
318.15	0.101838	3.243	0.018
318.15	0.176907	5.562	0.019
318.15	0.229722	7.164	0.02
318.15	0.298682	9.217	0.02
323.15	0.055724	1.764	0.018
323.15	0.101838	3.195	0.018
323.15	0.176907	5.478	0.019
323.15	0.229722	7.054	0.02
323.15	0.298682	9.072	0.02
328.15	0.055724	1.738	0.018
328.15	0.101838	3.149	0.018
328.15	0.176907	5.396	0.019
328.15	0.229722	6.947	0.02
328.15	0.298682	8.933	0.02
333.15	0.055724	1.713	0.018
333.15	0.101838	3.106	0.018
333.15	0.176907	5.321	0.019
333.15	0.229722	6.846	0.019
333.15	0.298682	8.801	0.02
338.15	0.055724	1.692	0.018
338.15	0.101838	3.064	0.018
338.15	0.176907	5.245	0.019
338.15	0.229722	6.751	0.019
338.15	0.298682	8.676	0.02
343.15	0.055724	1.67	0.018
343.15	0.101838	3.022	0.018
343.15	0.176907	5.177	0.019
343.15	0.229722	6.659	0.019
343.15	0.298682	8.557	0.02

System: water + 1,4,7,10,13-pentaoxacyclopentadecane; phases: Liquid
Fixed: Pressure, kPa = 101
Property: Speed of sound, m/s (Liquid); method: PULSEH:UFactor:0.5
Temperature, K	Molality, mol/kg of 1,4,7,10,13-pentaoxacyclopentadecane	Speed of sound, m/s	uncertainty
278.15	0.055724	9.43	0.5
278.15	0.101838	17.1	0.5
278.15	0.176907	29.32	0.5
278.15	0.229722	37.69	0.5
278.15	0.298682	48.48	0.5
283.15	0.055724	8.64	0.5
283.15	0.101838	15.65	0.5
283.15	0.176907	26.85	0.5
283.15	0.229722	34.48	0.5
283.15	0.298682	44.33	0.5
288.15	0.055724	7.94	0.5
288.15	0.101838	14.33	0.5
288.15	0.176907	24.58	0.5
288.15	0.229722	31.59	0.5
288.15	0.298682	40.6	0.5
293.15	0.055724	7.26	0.5
293.15	0.101838	13.16	0.5
293.15	0.176907	22.53	0.5
293.15	0.229722	28.93	0.5
293.15	0.298682	37.17	0.5
298.15	0.055724	6.66	0.5
298.15	0.101838	12.05	0.5
298.15	0.176907	20.66	0.5
298.15	0.229722	26.5	0.5
298.15	0.298682	34.04	0.5
303.15	0.055724	6.11	0.5
303.15	0.101838	11.06	0.5
303.15	0.176907	18.91	0.5
303.15	0.229722	24.26	0.5
303.15	0.298682	31.15	0.5
308.15	0.055724	5.57	0.5
308.15	0.101838	10.09	0.5
308.15	0.176907	17.28	0.5
308.15	0.229722	22.19	0.5
308.15	0.298682	28.47	0.5
313.15	0.055724	5.1	0.5
313.15	0.101838	9.25	0.5
313.15	0.176907	15.82	0.5
313.15	0.229722	20.27	0.5
313.15	0.298682	25.93	0.5
318.15	0.055724	4.66	0.5
318.15	0.101838	8.44	0.5
318.15	0.176907	14.4	0.5
318.15	0.229722	18.4	0.5
318.15	0.298682	23.59	0.5
323.15	0.055724	4.25	0.5
323.15	0.101838	7.66	0.5
323.15	0.176907	13.07	0.5
323.15	0.229722	16.68	0.5
323.15	0.298682	21.37	0.5
328.15	0.055724	3.83	0.5
328.15	0.101838	6.9	0.5
328.15	0.176907	11.79	0.5
328.15	0.229722	15.05	0.5
328.15	0.298682	19.29	0.5
333.15	0.055724	3.45	0.5
333.15	0.101838	6.21	0.5
333.15	0.176907	10.6	0.5
333.15	0.229722	13.52	0.5
333.15	0.298682	17.32	0.5
338.15	0.055724	3.08	0.5
338.15	0.101838	5.56	0.5
338.15	0.176907	9.48	0.5
338.15	0.229722	12.06	0.5
338.15	0.298682	15.46	0.5
343.15	0.055724	2.74	0.5
343.15	0.101838	4.96	0.5
343.15	0.176907	8.39	0.5
343.15	0.229722	10.66	0.5
343.15	0.298682	13.66	0.5

System: water + 1,4,7,10,13,16-hexaoxacyclooctadecane; phases: Liquid
Fixed: Pressure, kPa = 101
Property: Mass density, kg/m3 (Liquid); method: VIBTUB:UFactor:0.5
Temperature, K	Molality, mol/kg of 1,4,7,10,13,16-hexaoxacyclooctadecane	Mass density, kg/m3	uncertainty
278.15	0.051773	2.327	0.018
278.15	0.091089	4.073	0.019
278.15	0.151327	6.721	0.02
278.15	0.206616	9.112	0.02
278.15	0.278466	12.166	0.021
283.15	0.051773	2.269	0.018
283.15	0.091089	3.97	0.019
283.15	0.151327	6.545	0.019
283.15	0.206616	8.87	0.02
283.15	0.278466	11.841	0.021
288.15	0.051773	2.217	0.018
288.15	0.091089	3.877	0.019
288.15	0.151327	6.393	0.019
288.15	0.206616	8.662	0.02
288.15	0.278466	11.555	0.021
293.15	0.051773	2.173	0.018
293.15	0.091089	3.798	0.019
293.15	0.151327	6.259	0.019
293.15	0.206616	8.478	0.02
293.15	0.278466	11.305	0.021
298.15	0.051773	2.132	0.018
298.15	0.091089	3.726	0.019
298.15	0.151327	6.138	0.019
298.15	0.206616	8.31	0.02
298.15	0.278466	11.077	0.021
303.15	0.051773	2.095	0.018
303.15	0.091089	3.659	0.019
303.15	0.151327	6.028	0.019
303.15	0.206616	8.156	0.02
303.15	0.278466	10.869	0.021
308.15	0.051773	2.062	0.018
308.15	0.091089	3.599	0.019
308.15	0.151327	5.923	0.019
308.15	0.206616	8.013	0.02
308.15	0.278466	10.673	0.021
313.15	0.051773	2.028	0.018
313.15	0.091089	3.541	0.019
313.15	0.151327	5.827	0.019
313.15	0.206616	7.881	0.02
313.15	0.278466	10.494	0.021
318.15	0.051773	1.999	0.018
318.15	0.091089	3.488	0.019
318.15	0.151327	5.735	0.019
318.15	0.206616	7.755	0.02
318.15	0.278466	10.322	0.021
323.15	0.051773	1.97	0.018
323.15	0.091089	3.437	0.018
323.15	0.151327	5.649	0.019
323.15	0.206616	7.636	0.02
323.15	0.278466	10.16	0.021
328.15	0.051773	1.94	0.018
328.15	0.091089	3.386	0.018
328.15	0.151327	5.566	0.019
328.15	0.206616	7.522	0.02
328.15	0.278466	10.005	0.021
333.15	0.051773	1.914	0.018
333.15	0.091089	3.341	0.018
333.15	0.151327	5.488	0.019
333.15	0.206616	7.413	0.02
333.15	0.278466	9.855	0.02
338.15	0.051773	1.89	0.018
338.15	0.091089	3.294	0.018
338.15	0.151327	5.412	0.019
338.15	0.206616	7.308	0.02
338.15	0.278466	9.713	0.02
343.15	0.051773	1.863	0.018
343.15	0.091089	3.251	0.018
343.15	0.151327	5.337	0.019
343.15	0.206616	7.206	0.02
343.15	0.278466	9.576	0.02

System: water + 1,4,7,10,13,16-hexaoxacyclooctadecane; phases: Liquid
Fixed: Pressure, kPa = 101
Property: Speed of sound, m/s (Liquid); method: PULSEH:UFactor:0.5
Temperature, K	Molality, mol/kg of 1,4,7,10,13,16-hexaoxacyclooctadecane	Speed of sound, m/s	uncertainty
278.15	0.051773	11.09	0.5
278.15	0.091089	19.27	0.5
278.15	0.151327	31.59	0.5
278.15	0.206616	42.72	0.5
278.15	0.278466	56.83	0.5
283.15	0.051773	10.17	0.5
283.15	0.091089	17.66	0.5
283.15	0.151327	28.96	0.5
283.15	0.206616	39.14	0.5
283.15	0.278466	52.08	0.5
288.15	0.051773	9.35	0.5
288.15	0.091089	16.24	0.5
288.15	0.151327	26.58	0.5
288.15	0.206616	35.93	0.5
288.15	0.278466	47.82	0.5
293.15	0.051773	8.58	0.5
293.15	0.091089	14.93	0.5
293.15	0.151327	24.42	0.5
293.15	0.206616	33.01	0.5
293.15	0.278466	43.88	0.5
298.15	0.051773	7.87	0.5
298.15	0.091089	13.71	0.5
298.15	0.151327	22.46	0.5
298.15	0.206616	30.3	0.5
298.15	0.278466	40.32	0.5
303.15	0.051773	7.22	0.5
303.15	0.091089	12.6	0.5
303.15	0.151327	20.6	0.5
303.15	0.206616	27.83	0.5
303.15	0.278466	37	0.5
308.15	0.051773	6.61	0.5
308.15	0.091089	11.55	0.5
308.15	0.151327	18.9	0.5
308.15	0.206616	25.52	0.5
308.15	0.278466	33.91	0.5
313.15	0.051773	6.09	0.5
313.15	0.091089	10.61	0.5
313.15	0.151327	17.33	0.5
313.15	0.206616	23.36	0.5
313.15	0.278466	31.03	0.5
318.15	0.051773	5.6	0.5
318.15	0.091089	9.72	0.5
318.15	0.151327	15.83	0.5
318.15	0.206616	21.33	0.5
318.15	0.278466	28.32	0.5
323.15	0.051773	5.11	0.5
323.15	0.091089	8.84	0.5
323.15	0.151327	14.4	0.5
323.15	0.206616	19.41	0.5
323.15	0.278466	25.75	0.5
328.15	0.051773	4.65	0.5
328.15	0.091089	8.01	0.5
328.15	0.151327	13.05	0.5
328.15	0.206616	17.59	0.5
328.15	0.278466	23.31	0.5
333.15	0.051773	4.21	0.5
333.15	0.091089	7.24	0.5
333.15	0.151327	11.78	0.5
333.15	0.206616	15.87	0.5
333.15	0.278466	21.01	0.5
338.15	0.051773	3.79	0.5
338.15	0.091089	6.5	0.5
338.15	0.151327	10.55	0.5
338.15	0.206616	14.22	0.5
338.15	0.278466	18.81	0.5
343.15	0.051773	3.38	0.5
343.15	0.091089	5.79	0.5
343.15	0.151327	9.4	0.5
343.15	0.206616	12.64	0.5
343.15	0.278466	16.69	0.5
