Measured thermophysical data. Solubility of Methane in Propylene Carbonate
Source: J. Chem. Eng. Data, 2015, 10.1021/je500849m
Compound 1: methane, CH4, InChI=1S/CH4/h1H4, purity 99.99%
Compound 2: 4-methyl-1,3-dioxolan-2-one, C4H6O3, InChI=1S/C4H6O3/c1-3-2-6-4(5)7-3/h3H,2H2,1H3, purity 99.3%

System: methane + 4-methyl-1,3-dioxolan-2-one; phases: Liquid, Gas
Property: Mole fraction of methane (Liquid); method: Phase equilibration
Temperature, K	Pressure, kPa	Mole fraction of methane	uncertainty
244.26	10342	0.0493	0.003
244.26	6895	0.037	0.0022
244.26	3447	0.0219	0.0013
248.15	10350	0.0495	0.003
248.15	7600	0.04	0.0024
248.15	4800	0.0272	0.0016
248.15	3450	0.0223	0.0013
248.15	2320	0.015	0.0009
248.15	1880	0.0122	0.0007
255.37	10342	0.0499	0.003
255.37	6895	0.0374	0.0022
255.37	3447	0.0215	0.0013
266.48	10342	0.0516	0.0031
266.48	8000	0.0411	0.0025
266.48	6895	0.0375	0.0023
266.48	5450	0.0315	0.0019
266.48	3970	0.0239	0.0014
266.48	2540	0.0167	0.001
273.15	11000	0.0502	0.003
273.15	8000	0.0413	0.0025
273.15	5100	0.0291	0.0017
273.15	2400	0.0151	0.0009
298.15	10500	0.052	0.0031
298.15	10342	0.0518	0.0031
298.15	7700	0.04	0.0024
298.15	6895	0.0419	0.0025
298.15	2500	0.0151	0.0009
333.15	10600	0.0548	0.0033
333.15	7960	0.0432	0.0026
333.15	5600	0.0318	0.0019
333.15	2400	0.0148	0.0009
373.15	11200	0.0598	0.0036
373.15	7700	0.0438	0.0026
373.15	6110	0.036	0.0022
373.15	4170	0.0252	0.0015
