Measured thermophysical data. Volumetric Properties of Glycine, l-Alanine, and l-Serine in Formamide Water Mixtures at 298.15 K
Source: J. Chem. Eng. Data, 2014, 10.1021/je5003797
Compound 1: 2-aminoacetic acid, C2H5NO2, InChI=1S/C2H5NO2/c3-1-2(4)5/h1,3H2,(H,4,5), purity 99%
Compound 2: (S)-2-aminopropanoic acid, C3H7NO2, InChI=1S/C3H7NO2/c1-2(4)3(5)6/h2H,4H2,1H3,(H,5,6)/t2-/m0/s1, purity 99%
Compound 3: L-serine, C3H7NO3, InChI=1S/C3H7NO3/c4-2(1-5)3(6)7/h2,5H,1,4H2,(H,6,7)/t2-/m0/s1, purity 99%
Compound 4: formamide, CH3NO, InChI=1S/CH3NO/c2-1-3/h1H,(H2,2,3), purity 99.5%
Compound 5: water, H2O, InChI=1S/H2O/h1H2, purity 99.9%

System: 2-aminoacetic acid + formamide + water; phases: Liquid
Fixed: Pressure, kPa = 101
Fixed: Temperature, K = 298.15
Property: Mass density, kg/m3 (Liquid); method: VIBTUB:UFactor:4
Solvent: Molality, mol/kg of formamide	Molality, mol/kg of 2-aminoacetic acid	Mass density, kg/m3	uncertainty
0.4985	0	1000.74	0.19
0.4985	0.1006	1003.91	0.19
0.4985	0.2032	1007.1	0.2
0.4985	0.2963	1009.94	0.2
0.4985	0.3981	1013.02	0.21
0.4985	0.4976	1015.97	0.21
0.9969	0	1004.03	0.19
0.9969	0.0993	1007.14	0.2
0.9969	0.199	1010.22	0.2
0.9969	0.2951	1013.14	0.21
0.9969	0.401	1016.31	0.21
0.9969	0.4925	1019.01	0.21
1.4995	0	1007.19	0.2
1.4995	0.0979	1010.23	0.2
1.4995	0.1999	1013.36	0.21
1.4995	0.294	1016.2	0.21
1.4995	0.3997	1019.35	0.22
1.4995	0.4989	1022.27	0.22
1.9994	0	1010.16	0.2
1.9994	0.106	1013.44	0.21
1.9994	0.2013	1016.35	0.21
1.9994	0.3008	1019.34	0.22
1.9994	0.3947	1022.11	0.22
1.9994	0.5008	1025.2	0.23
2.4878	0	1012.96	0.21
2.4878	0.0992	1016.02	0.21
2.4878	0.1989	1019.03	0.22
2.4878	0.3092	1022.32	0.22
2.4878	0.4	1024.99	0.22
2.4878	0.5013	1027.93	0.23
3.0018	0	1015.76	0.21
3.0018	0.1	1018.82	0.21
3.0018	0.1985	1021.8	0.22
3.0018	0.298	1024.75	0.22
3.0018	0.3945	1027.58	0.23
3.0018	0.5009	1030.64	0.23
3.5352	0	1018.55	0.21
3.5352	0.1022	1021.66	0.22
3.5352	0.2007	1024.62	0.22
3.5352	0.2998	1027.54	0.23
3.5352	0.4012	1030.48	0.23
3.5352	0.5015	1033.36	0.24
4.1369	0	1021.53	0.22
4.1369	0.0989	1024.53	0.22
4.1369	0.202	1027.61	0.23
4.1369	0.3035	1030.58	0.23
4.1369	0.3931	1033.17	0.24
4.1369	0.4935	1036.04	0.24
4.5016	0	1023.26	0.22
4.5016	0.1102	1026.59	0.23
4.5016	0.1936	1029.06	0.23
4.5016	0.3	1032.17	0.24
4.5016	0.4033	1035.15	0.24
4.5016	0.5003	1037.91	0.25
5.0669	0	1025.86	0.23
5.0669	0.1039	1028.98	0.23
5.0669	0.2065	1032	0.24
5.0669	0.2938	1034.55	0.24
5.0669	0.3974	1037.51	0.25
5.0669	0.4958	1040.29	0.25
5.4901	0	1027.73	0.23
5.4901	0.0983	1030.68	0.23
5.4901	0.1959	1033.56	0.24
5.4901	0.2971	1036.49	0.24
5.4901	0.3923	1039.21	0.25
5.4901	0.5052	1042.39	0.25
6.0083	0	1029.91	0.23
6.0083	0.0997	1032.9	0.24
6.0083	0.202	1035.91	0.24
6.0083	0.3022	1038.79	0.25
6.0083	0.4035	1041.68	0.25
6.0083	0.5086	1044.62	0.26
6.5027	0	1031.93	0.24
6.5027	0.1052	1035.05	0.24
6.5027	0.203	1037.91	0.25
6.5027	0.2983	1040.65	0.25
6.5027	0.3962	1043.42	0.26
6.5027	0.4992	1046.29	0.26
7.0557	0	1034.12	0.24
7.0557	0.0985	1037.04	0.24
7.0557	0.196	1039.88	0.25
7.0557	0.3017	1042.9	0.25
7.0557	0.3979	1045.62	0.26
7.0557	0.4959	1048.34	0.26
7.4926	0	1035.75	0.24
7.4926	0.0991	1038.67	0.25
7.4926	0.2028	1041.68	0.25
7.4926	0.3004	1044.47	0.26
7.4926	0.397	1047.18	0.26
7.4926	0.5035	1050.13	0.27
8.0369	0	1037.77	0.25
8.0369	0.1071	1040.91	0.25
8.0369	0.199	1043.56	0.26
8.0369	0.3002	1046.43	0.26
8.0369	0.3894	1048.93	0.26
8.0369	0.5008	1052.01	0.27
8.5222	0	1039.45	0.25
8.5222	0.0996	1042.37	0.25
8.5222	0.2046	1045.39	0.26
8.5222	0.3016	1048.15	0.26
8.5222	0.3994	1050.86	0.27
8.5222	0.5041	1053.76	0.27
8.99	0	1041.07	0.25
8.99	0.1052	1044.14	0.26
8.99	0.1921	1046.64	0.26
8.99	0.299	1049.67	0.27
8.99	0.3966	1052.36	0.27
8.99	0.5055	1055.34	0.28

System: (S)-2-aminopropanoic acid + formamide + water; phases: Liquid
Fixed: Pressure, kPa = 101
Fixed: Temperature, K = 298.15
Property: Mass density, kg/m3 (Liquid); method: VIBTUB:UFactor:4
Solvent: Molality, mol/kg of formamide	Molality, mol/kg of (S)-2-aminopropanoic acid	Mass density, kg/m3	uncertainty
0.5191	0	1000.9	0.18
0.5191	0.1118	1004.06	0.19
0.5191	0.208	1006.72	0.19
0.5191	0.2962	1009.13	0.2
0.5191	0.4226	1012.51	0.2
0.5191	0.5093	1014.79	0.21
1.0855	0	1004.61	0.19
1.0855	0.0998	1007.41	0.2
1.0855	0.2074	1010.35	0.2
1.0855	0.2983	1012.81	0.2
1.0855	0.4041	1015.62	0.21
1.0855	0.496	1018.02	0.21
1.4988	0	1007.18	0.2
1.4988	0.1065	1010.14	0.2
1.4988	0.1975	1012.63	0.2
1.4988	0.2988	1015.34	0.21
1.4988	0.4014	1018.05	0.21
1.4988	0.4975	1020.53	0.22
2.0067	0	1010.21	0.2
2.0067	0.1031	1013.05	0.2
2.0067	0.1929	1015.5	0.21
2.0067	0.3045	1018.45	0.21
2.0067	0.406	1021.1	0.22
2.0067	0.508	1023.72	0.22
2.4802	0	1012.92	0.2
2.4802	0.1005	1015.67	0.21
2.4802	0.195	1018.2	0.21
2.4802	0.2966	1020.89	0.22
2.4802	0.4009	1023.6	0.22
2.4802	0.5002	1026.12	0.23
2.9937	0	1015.72	0.21
2.9937	0.1113	1018.73	0.21
2.9937	0.2015	1021.14	0.22
2.9937	0.3001	1023.72	0.22
2.9937	0.4087	1026.51	0.23
2.9937	0.5004	1028.79	0.23
3.4757	0	1018.24	0.21
3.4757	0.1021	1020.99	0.22
3.4757	0.195	1023.46	0.22
3.4757	0.3055	1026.33	0.23
3.4757	0.4052	1028.88	0.23
3.4757	0.5054	1031.4	0.23
3.9988	0	1020.84	0.22
3.9988	0.107	1023.71	0.22
3.9988	0.1934	1025.98	0.23
3.9988	0.3079	1028.92	0.23
3.9988	0.4062	1031.41	0.24
3.9988	0.4927	1033.58	0.24
4.4899	0	1023.21	0.22
4.4899	0.1084	1026.08	0.23
4.4899	0.199	1028.44	0.23
4.4899	0.3014	1031.06	0.23
4.4899	0.4094	1033.78	0.24
4.4899	0.4919	1035.83	0.24
5.0021	0	1025.56	0.23
5.0021	0.1094	1028.45	0.23
5.0021	0.1911	1030.57	0.23
5.0021	0.3002	1033.36	0.24
5.0021	0.3917	1035.65	0.24
5.0021	0.4961	1038.21	0.25
5.5752	0	1028.1	0.23
5.5752	0.1063	1030.89	0.23
5.5752	0.2041	1033.4	0.24
5.5752	0.3085	1036.03	0.24
5.5752	0.406	1038.45	0.25
5.5752	0.4938	1040.59	0.25
5.973	0	1029.8	0.23
5.973	0.1066	1032.58	0.24
5.973	0.2123	1035.27	0.24
5.973	0.3007	1037.49	0.25
5.973	0.4031	1040.01	0.25
5.973	0.4997	1042.36	0.25
6.4965	0	1031.91	0.24
6.4965	0.106	1034.66	0.24
6.4965	0.195	1036.92	0.24
6.4965	0.3083	1039.76	0.25
6.4965	0.402	1042.05	0.25
6.4965	0.5031	1044.49	0.26
6.9904	0	1033.87	0.24
6.9904	0.105	1036.57	0.24
6.9904	0.2006	1038.99	0.25
6.9904	0.2959	1041.36	0.25
6.9904	0.3896	1043.65	0.26
6.9904	0.5001	1046.31	0.26
7.4675	0	1035.69	0.24
7.4675	0.1003	1038.26	0.25
7.4675	0.1934	1040.6	0.25
7.4675	0.2935	1043.08	0.25
7.4675	0.3938	1045.51	0.26
7.4675	0.4989	1048.02	0.26
7.9898	0	1037.61	0.25
7.9898	0.1095	1040.4	0.25
7.9898	0.2019	1042.7	0.25
7.9898	0.3017	1045.15	0.26
7.9898	0.4036	1047.6	0.26
7.9898	0.5036	1049.96	0.27
8.4676	0	1039.27	0.25
8.4676	0.1018	1041.85	0.25
8.4676	0.2014	1044.32	0.26
8.4676	0.3066	1046.89	0.26
8.4676	0.3955	1049.02	0.26
8.4676	0.4996	1051.47	0.27
8.9474	0	1040.93	0.25
8.9474	0.1141	1043.79	0.26
8.9474	0.2055	1046.05	0.26
8.9474	0.3076	1048.52	0.26
8.9474	0.3942	1050.59	0.27
8.9474	0.5013	1053.09	0.27

System: L-serine + formamide + water; phases: Liquid
Fixed: Pressure, kPa = 101
Fixed: Temperature, K = 298.15
Property: Mass density, kg/m3 (Liquid); method: VIBTUB:UFactor:4
Solvent: Molality, mol/kg of formamide	Molality, mol/kg of L-serine	Mass density, kg/m3	uncertainty
0.5096	0	1000.84	0.19
0.5096	0.1027	1005.36	0.2
0.5096	0.2002	1009.55	0.2
0.5096	0.3043	1013.98	0.21
0.5096	0.4069	1018.25	0.22
0.5096	0.5049	1022.23	0.22
1.0808	0	1004.59	0.19
1.0808	0.11	1009.39	0.2
1.0808	0.2001	1013.25	0.21
1.0808	0.3003	1017.47	0.21
1.0808	0.4085	1021.93	0.22
1.0808	0.5037	1025.79	0.23
1.4988	0	1007.2	0.2
1.4988	0.1093	1011.94	0.21
1.4988	0.2068	1016.1	0.21
1.4988	0.3035	1020.15	0.22
1.4988	0.4005	1024.15	0.23
1.4988	0.5103	1028.57	0.23
1.9994	0	1010.19	0.2
1.9994	0.1031	1014.66	0.21
1.9994	0.2002	1018.78	0.22
1.9994	0.2979	1022.84	0.22
1.9994	0.4009	1027.05	0.23
1.9994	0.5059	1031.29	0.24
2.5015	0	1013.04	0.21
2.5015	0.1099	1017.77	0.22
2.5015	0.1989	1021.53	0.22
2.5015	0.3015	1025.78	0.23
2.5015	0.4048	1029.98	0.23
2.5015	0.5008	1033.83	0.24
2.9998	0	1015.76	0.21
2.9998	0.1038	1020.2	0.22
2.9998	0.1991	1024.21	0.23
2.9998	0.2956	1028.19	0.23
2.9998	0.4062	1032.67	0.24
2.9998	0.5046	1036.6	0.25
3.502	0	1018.39	0.22
3.502	0.1116	1023.14	0.22
3.502	0.1964	1026.68	0.23
3.502	0.2983	1030.88	0.24
3.502	0.4071	1035.27	0.24
3.502	0.4969	1038.83	0.25
4.0437	0	1021.08	0.22
4.0437	0.1123	1025.83	0.23
4.0437	0.2	1029.48	0.23
4.0437	0.3055	1033.8	0.24
4.0437	0.4087	1037.92	0.25
4.0437	0.5079	1041.85	0.25
4.505	0	1023.29	0.22
4.505	0.1103	1027.94	0.23
4.505	0.1979	1031.58	0.24
4.505	0.2997	1035.73	0.24
4.505	0.4078	1040.06	0.25
4.505	0.4933	1043.42	0.26
5.0118	0	1025.61	0.23
5.0118	0.0998	1029.8	0.23
5.0118	0.1903	1033.55	0.24
5.0118	0.3022	1038.11	0.25
5.0118	0.3906	1041.62	0.25
5.0118	0.5021	1045.99	0.26
5.5469	0	1027.97	0.23
5.5469	0.1116	1032.65	0.24
5.5469	0.2023	1036.37	0.25
5.5469	0.3094	1040.71	0.25
5.5469	0.399	1044.27	0.26
5.5469	0.4991	1048.17	0.26
6.0098	0	1029.95	0.24
6.0098	0.1054	1034.34	0.24
6.0098	0.1977	1038.13	0.25
6.0098	0.307	1042.52	0.26
6.0098	0.4046	1046.38	0.26
6.0098	0.5124	1050.58	0.27
6.5097	0	1031.98	0.24
6.5097	0.1031	1036.27	0.25
6.5097	0.2042	1040.4	0.25
6.5097	0.298	1044.17	0.26
6.5097	0.3972	1048.08	0.26
6.5097	0.4971	1051.97	0.27
7.0037	0	1033.94	0.24
7.0037	0.0992	1038.06	0.25
7.0037	0.195	1041.96	0.25
7.0037	0.2962	1046.02	0.26
7.0037	0.3873	1049.6	0.27
7.0037	0.4905	1053.6	0.27
7.4807	0	1035.75	0.24
7.4807	0.104	1040.05	0.25
7.4807	0.2019	1044.01	0.26
7.4807	0.3059	1048.16	0.26
7.4807	0.4022	1051.94	0.27
7.4807	0.5069	1055.96	0.28
8.0024	0	1037.64	0.25
8.0024	0.0963	1041.62	0.25
8.0024	0.1976	1045.72	0.26
8.0024	0.2948	1049.58	0.27
8.0024	0.3974	1053.6	0.27
8.0024	0.503	1057.65	0.28
8.5056	0	1039.42	0.25
8.5056	0.1102	1043.95	0.26
8.5056	0.2067	1047.84	0.26
8.5056	0.2979	1051.45	0.27
8.5056	0.4046	1055.62	0.28
8.5056	0.5002	1059.27	0.28
9.032	0	1041.2	0.25
9.032	0.0998	1045.29	0.26
9.032	0.2007	1049.35	0.27
9.032	0.3157	1053.89	0.27
9.032	0.4201	1057.93	0.28
9.032	0.4928	1060.68	0.29

System: formamide + water; phases: Liquid
Fixed: Pressure, kPa = 101
Fixed: Temperature, K = 298.15
Property: Mass density, kg/m3 (Liquid); method: VIBTUB:UFactor:4
Molality, mol/kg of formamide	Mass density, kg/m3	uncertainty
0.4985	1000.74	0.19
0.9969	1004.03	0.19
1.4995	1007.19	0.2
1.9994	1010.16	0.2
2.4878	1012.96	0.21
3.0018	1015.76	0.21
3.5352	1018.55	0.21
4.1369	1021.53	0.22
4.5016	1023.26	0.22
5.0669	1025.86	0.23
5.4901	1027.73	0.23
6.0083	1029.91	0.23
6.5027	1031.93	0.24
7.0557	1034.12	0.24
7.4926	1035.75	0.24
8.0369	1037.77	0.25
8.5222	1039.45	0.25
8.99	1041.07	0.25
0.5191	1000.9	0.18
1.0855	1004.61	0.19
1.4988	1007.18	0.2
2.0067	1010.21	0.2
2.4802	1012.92	0.2
2.9937	1015.72	0.21
3.4757	1018.24	0.21
3.9988	1020.84	0.22
4.4899	1023.21	0.22
5.0021	1025.56	0.23
5.5752	1028.1	0.23
5.973	1029.8	0.23
6.4965	1031.91	0.24
6.9904	1033.87	0.24
7.4675	1035.69	0.24
7.9898	1037.61	0.25
8.4676	1039.27	0.25
8.9474	1040.93	0.25
0.5096	1000.84	0.19
1.0808	1004.59	0.19
1.4988	1007.2	0.2
1.9994	1010.19	0.2
2.5015	1013.04	0.21
2.9998	1015.76	0.21
3.502	1018.39	0.22
4.0437	1021.08	0.22
4.505	1023.29	0.22
5.0118	1025.61	0.23
5.5469	1027.97	0.23
6.0098	1029.95	0.24
6.5097	1031.98	0.24
7.0037	1033.94	0.24
7.4807	1035.75	0.24
8.0024	1037.64	0.25
8.5056	1039.42	0.25
9.032	1041.2	0.25
