Measured thermophysical data. Isobaric Vapor Liquid Equilibrium for Methanol + Dimethyl Carbonate + Trifluoromethanesulfonate-based Ionic Liquids at 101.3 kPa
Source: J. Chem. Eng. Data, 2014, 10.1021/je500443v
Compound 1: methanol, CH4O, InChI=1S/CH4O/c1-2/h2H,1H3, purity 99.9%
Compound 2: dimethyl carbonate, C3H6O3, InChI=1S/C3H6O3/c1-5-3(4)6-2/h1-2H3, purity 99.9%
Compound 3: 1-ethyl-3-methylimidazolium trifluoromethanesulfonate, C7H11F3N2O3S, InChI=1S/C6H11N2.CHF3O3S/c1-3-8-5-4-7(2)6-8;2-1(3,4)8(5,6)7/h4-6H,3H2,1-2H3;(H,5,6,7)/q+1;/p-1
Compound 4: 1-butyl-3-methylimidazolium trifluoromethanesulfonate, C9H15F3N2O3S, InChI=1S/C8H15N2.CHF3O3S/c1-3-4-5-10-7-6-9(2)8-10;2-1(3,4)8(5,6)7/h6-8H,3-5H2,1-2H3;(H,5,6,7)/q+1;/p-1

System: methanol + dimethyl carbonate; phases: Liquid, Gas
Fixed: Pressure, kPa = 101.3
Property: Boiling temperature at pressure P, K (Liquid); method: EBULLIO:UFactor:4
Mole fraction of methanol	Boiling temperature at pressure P, K	uncertainty
0	363.2	0.4
0.086	352.5	1.2
0.123	350	0.7
0.181	346.5	0.7
0.227	344	0.5
0.284	342.7	0.5
0.354	340.4	0.4
0.464	338.9	0.4
0.558	338	0.4
0.649	337.3	0.4
0.718	337	0.4
0.797	336.7	0.4
0.862	336.6	0.4
0.902	336.8	0.4
0.944	337	0.4
1	337.9	0.4

System: methanol + dimethyl carbonate; phases: Gas, Liquid
Fixed: Pressure, kPa = 101.3
Property: Mole fraction of methanol (Gas); method: Chromatography
Mole fraction of methanol	Mole fraction of methanol	uncertainty
0	0	
0.086	0.35	0.037
0.123	0.426	0.02
0.181	0.511	0.018
0.227	0.57	0.014
0.284	0.613	0.013
0.354	0.673	0.012
0.464	0.717	0.011
0.558	0.74	0.011
0.649	0.776	0.011
0.718	0.804	0.011
0.797	0.824	0.011
0.862	0.865	0.012
0.902	0.887	0.013
0.944	0.933	0.015
1	1	

System: methanol + dimethyl carbonate + 1-ethyl-3-methylimidazolium trifluoromethanesulfonate; phases: Liquid, Gas
Fixed: Pressure, kPa = 101.3
Property: Mole fraction of dimethyl carbonate (Liquid); method: Chromatography
Property: Mole fraction of dimethyl carbonate (Gas); method: Chromatography
Property: Mole fraction of methanol (Gas); method: Chromatography
Temperature, K	Mole fraction of methanol	Mole fraction of dimethyl carbonate	uncertainty	Mole fraction of dimethyl carbonate	uncertainty	Mole fraction of methanol	uncertainty
353.6	0.119	0.829	0.01	0.632	0.01	0.368	
356	0.112	0.787	0.01	0.67	0.01	0.33	
351	0.183	0.718	0.01	0.573	0.011	0.427	
348.5	0.265	0.634	0.01	0.49	0.011	0.51	
345.6	0.346	0.553	0.011	0.414	0.011	0.586	
343.7	0.436	0.463	0.011	0.369	0.01	0.631	
342.1	0.524	0.376	0.01	0.308	0.01	0.692	
341.7	0.623	0.275	0.01	0.257	0.01	0.743	
340.4	0.716	0.185	0.01	0.175	0.01	0.825	
340.4	0.811	0.09	0.01	0.096	0.01	0.904	
358	0.107	0.744	0.01	0.693	0.01	0.307	
347.8	0.198	0.752	0.01	0.524	0.011	0.476	
354	0.175	0.676	0.01	0.607	0.011	0.393	
351	0.252	0.597	0.01	0.531	0.011	0.469	
348.5	0.332	0.519	0.011	0.459	0.011	0.541	
346.4	0.398	0.451	0.011	0.405	0.011	0.595	
345	0.468	0.381	0.01	0.344	0.01	0.656	
343.6	0.585	0.265	0.01	0.247	0.01	0.753	
342.9	0.678	0.172	0.01	0.171	0.01	0.829	
342.5	0.765	0.083	0.01	0.09	0.01	0.91	
345	0.291	0.658	0.01	0.435	0.011	0.565	
342.6	0.369	0.58	0.01	0.368	0.01	0.632	
341.3	0.46	0.488	0.011	0.335	0.01	0.665	
339.9	0.562	0.388	0.01	0.3	0.01	0.7	
339	0.66	0.288	0.01	0.247	0.01	0.753	
338.5	0.757	0.193	0.01	0.178	0.01	0.822	
338.6	0.859	0.091	0.01	0.105	0.01	0.895	

System: methanol + dimethyl carbonate + 1-butyl-3-methylimidazolium trifluoromethanesulfonate; phases: Liquid, Gas
Fixed: Pressure, kPa = 101.3
Property: Mole fraction of dimethyl carbonate (Liquid); method: Chromatography
Property: Mole fraction of dimethyl carbonate (Gas); method: Chromatography
Property: Mole fraction of methanol (Gas); method: Chromatography
Temperature, K	Mole fraction of methanol	Mole fraction of dimethyl carbonate	uncertainty	Mole fraction of dimethyl carbonate	uncertainty	Mole fraction of methanol	uncertainty
353.5	0.117	0.833	0.01	0.619	0.011	0.381	
355.5	0.111	0.79	0.01	0.649	0.01	0.351	
353	0.15	0.748	0.01	0.595	0.011	0.405	
350.5	0.223	0.676	0.01	0.511	0.011	0.489	
346	0.335	0.565	0.01	0.415	0.011	0.585	
343.6	0.419	0.48	0.011	0.341	0.01	0.659	
342.1	0.514	0.385	0.01	0.286	0.01	0.714	
341.4	0.616	0.282	0.01	0.234	0.01	0.766	
340.9	0.711	0.189	0.01	0.162	0.01	0.838	
340.6	0.805	0.096	0.01	0.093	0.01	0.907	
357.3	0.102	0.749	0.01	0.679	0.01	0.321	
350	0.171	0.779	0.01	0.528	0.011	0.472	
355.5	0.134	0.713	0.01	0.636	0.01	0.364	
352.3	0.213	0.636	0.01	0.526	0.011	0.474	
349.5	0.304	0.544	0.011	0.432	0.011	0.568	
347	0.403	0.448	0.011	0.357	0.01	0.643	
346.4	0.484	0.366	0.01	0.296	0.01	0.704	
344.8	0.588	0.263	0.01	0.199	0.01	0.801	
343.9	0.663	0.188	0.01	0.145	0.01	0.855	
342.8	0.759	0.092	0.01	0.082	0.01	0.918	
345.8	0.269	0.682	0.01	0.436	0.011	0.564	
343.6	0.341	0.609	0.01	0.37	0.01	0.63	
342	0.403	0.547	0.011	0.333	0.01	0.667	
340.8	0.526	0.423	0.01	0.282	0.01	0.718	
340	0.599	0.351	0.01	0.254	0.01	0.746	
338.1	0.745	0.203	0.01	0.184	0.01	0.816	
338.5	0.853	0.097	0.01	0.107	0.01	0.893	
