Measured thermophysical data. Measurements and Correlation of Liquid Liquid Equilibria for the Ternary System Water + Cyclohexanol + Cyclohexanone
Source: J. Chem. Eng. Data, 2014, 10.1021/je500099u
Compound 1: water, H2O, InChI=1S/H2O/h1H2, purity 99.8%
Compound 2: cyclohexanol, C6H12O, InChI=1S/C6H12O/c7-6-4-2-1-3-5-6/h6-7H,1-5H2, purity 99%
Compound 3: cyclohexanone, C6H10O, InChI=1S/C6H10O/c7-6-4-2-1-3-5-6/h1-5H2, purity 99%

System: cyclohexanol + cyclohexanone + water; phases: Liquid mixture 1, Liquid mixture 2
Fixed: Pressure, kPa = 101
Property: Mass fraction of water (Liquid mixture 1); method: CHROM:UFactor:2
Property: Mass fraction of cyclohexanol (Liquid mixture 2); method: CHROM:UFactor:2
Property: Mass fraction of water (Liquid mixture 2); method: CHROM:UFactor:2
Temperature, K	Mass fraction of cyclohexanol	Mass fraction of water	uncertainty	Mass fraction of cyclohexanol	uncertainty	Mass fraction of water	uncertainty
303.2	0.1055	0.0809	0.0017	0.0071	0.0022	0.9152	
313.2	0.0911	0.0837	0.0017	0.0063	0.0028	0.9251	
313.2	0.1843	0.0984	0.0018	0.0111	0.0021	0.9274	
313.2	0.2761	0.1111	0.002	0.0157	0.0017	0.9314	
313.2	0.3624	0.1194	0.0021	0.0191	0.0016	0.9352	
313.2	0.4442	0.126	0.0022	0.0224	0.0015	0.9396	
313.2	0.5255	0.1322	0.0022	0.0258	0.0015	0.9432	
313.2	0.6112	0.1311	0.0022	0.0285	0.0013	0.9482	
313.2	0.6915	0.1382	0.0023	0.0305	0.0013	0.954	
313.2	0.7773	0.1327	0.0022	0.0326	0.0013	0.959	
323.2	0.0979	0.089	0.0018	0.0056	0.0021	0.9309	
303.2	0.1868	0.0967	0.0018	0.0127	0.0022	0.9188	
323.2	0.1719	0.1024	0.0019	0.0105	0.0017	0.9318	
323.2	0.2675	0.1163	0.002	0.0147	0.0017	0.9364	
323.2	0.336	0.1255	0.0021	0.018	0.0016	0.9396	
323.2	0.4375	0.1312	0.0022	0.0211	0.0015	0.9438	
323.2	0.5152	0.1359	0.0023	0.0239	0.0015	0.948	
323.2	0.6149	0.1353	0.0023	0.0271	0.0015	0.9517	
323.2	0.691	0.1372	0.0023	0.0294	0.0013	0.9562	
323.2	0.7703	0.1373	0.0023	0.031	0.0013	0.9614	
333.2	0.0968	0.0943	0.0018	0.0056	0.0021	0.9331	
333.2	0.1807	0.107	0.0019	0.0099	0.0019	0.9362	
303.2	0.2833	0.112	0.002	0.0178	0.0016	0.9225	
333.2	0.2735	0.1179	0.0021	0.014	0.0021	0.9398	
333.2	0.3578	0.1267	0.0022	0.0177	0.002	0.9414	
333.2	0.4441	0.128	0.0022	0.0212	0.0014	0.9448	
333.2	0.5181	0.1371	0.0023	0.0232	0.0014	0.9504	
333.2	0.608	0.1373	0.0023	0.026	0.0015	0.9539	
333.2	0.694	0.1384	0.0023	0.0287	0.0015	0.9576	
333.2	0.7748	0.1366	0.0023	0.0313	0.0015	0.9614	
303.2	0.3539	0.1214	0.0021	0.0211	0.0015	0.9282	
303.2	0.4433	0.1263	0.0022	0.0248	0.0015	0.9325	
303.2	0.5259	0.1317	0.0022	0.0282	0.0014	0.9372	
303.2	0.614	0.1327	0.0022	0.0311	0.0013	0.9427	
303.2	0.6981	0.1335	0.0022	0.0326	0.0013	0.9503	
303.2	0.7843	0.1272	0.0022	0.0357	0.0015	0.9549	
