Measured thermophysical data. Solubility of Isobutane in Ionic Liquids [BMIm][PF6], [BMIm][BF4], and [BMIm][Tf2N]
Source: J. Chem. Eng. Data, 2015, 10.1021/je501083d
Compound 1: 2-methylpropane, C4H10, InChI=1S/C4H10/c1-4(2)3/h4H,1-3H3, purity 99.5%
Compound 2: 1-butyl-3-methylimidazolium tetrafluoroborate, C8H15BF4N2, InChI=1S/C8H15N2.BF4/c1-3-4-5-10-7-6-9(2)8-10;2-1(3,4)5/h6-8H,3-5H2,1-2H3;/q+1;-1, purity 99%
Compound 3: 1-butyl-3-methylimidazolium hexafluorophosphate, C8H15F6N2P, InChI=1S/C8H15N2.F6P/c1-3-4-5-10-7-6-9(2)8-10;1-7(2,3,4,5)6/h6-8H,3-5H2,1-2H3;/q+1;-1, purity 99%
Compound 4: 1-butyl-3-methylimidazolium bis(trifluoromethylsulfonyl)imide, C10H15F6N3O4S2, InChI=1S/C8H15N2.C2F6NO4S2/c1-3-4-5-10-7-6-9(2)8-10;3-1(4,5)14(10,11)9-15(12,13)2(6,7)8/h6-8H,3-5H2,1-2H3;/q+1;-1, purity 98%

System: 1-butyl-3-methylimidazolium tetrafluoroborate; phases: Liquid
Fixed: Pressure, kPa = 101.325
Property: Mass density, kg/m3 (Liquid); method: Pycnometric method
Temperature, K	Mass density, kg/m3	uncertainty
288.2	1205.4	2.5
293.2	1202.1	2.5
298.2	1199.4	2.5
303.2	1195.4	2.5
308.2	1191.7	2.5
313.2	1188	2.5

System: 1-butyl-3-methylimidazolium hexafluorophosphate; phases: Liquid
Fixed: Pressure, kPa = 101.325
Property: Mass density, kg/m3 (Liquid); method: Pycnometric method
Temperature, K	Mass density, kg/m3	uncertainty
288.2	1375.8	2.8
293.2	1371.5	2.8
298.2	1368.4	2.8
303.2	1363.5	2.8
308.2	1359.3	2.8
313.2	1355	2.8

System: 1-butyl-3-methylimidazolium bis(trifluoromethylsulfonyl)imide; phases: Liquid
Fixed: Pressure, kPa = 101.325
Property: Mass density, kg/m3 (Liquid); method: Pycnometric method
Temperature, K	Mass density, kg/m3	uncertainty
288.2	1443.6	6.1
293.2	1439.7	6.1
298.2	1435.6	6
303.2	1431.3	6
308.2	1426.8	6
313.2	1421.9	6

System: 2-methylpropane + 1-butyl-3-methylimidazolium hexafluorophosphate; phases: Liquid, Gas
Property: Mole fraction of 2-methylpropane (Liquid); method: pressure drop
Temperature, K	Pressure, kPa	Mole fraction of 2-methylpropane	uncertainty
288.2	31.5	0.00462	0.0002
288.2	45.8	0.00663	0.00024
288.2	63.2	0.00917	0.0003
288.2	75.8	0.011	0.0003
288.2	91.7	0.0133	0.0004
298.2	35.3	0.00408	0.0002
298.2	50.4	0.00601	0.00023
298.2	69.2	0.00841	0.00029
298.2	84.2	0.00978	0.00033
298.2	101.4	0.0119	0.0004
308.2	38.3	0.00374	0.00019
308.2	54.9	0.00547	0.00023
308.2	75.6	0.00763	0.00029
308.2	91.5	0.00893	0.00033
308.2	110.4	0.0109	0.0004
293.2	33.2	0.00439	0.0002
293.2	48.2	0.0063	0.00023
293.2	66.4	0.00874	0.00029
293.2	79.9	0.0104	0.0003
293.2	96.8	0.0126	0.0004
303.2	36.6	0.00395	0.00019
303.2	52.5	0.00578	0.00023
303.2	72.2	0.00806	0.00029
303.2	87.6	0.00941	0.00033
303.2	105.9	0.0114	0.0004
313.2	39.9	0.00354	0.00019
313.2	57.4	0.00518	0.00023
313.2	78.8	0.00727	0.00029
313.2	95.3	0.00851	0.00033
313.2	114.9	0.0104	0.0004

System: 2-methylpropane + 1-butyl-3-methylimidazolium tetrafluoroborate; phases: Liquid, Gas
Property: Mole fraction of 2-methylpropane (Liquid); method: pressure drop
Temperature, K	Pressure, kPa	Mole fraction of 2-methylpropane	uncertainty
288.2	37.3	0.00386	0.00029
288.2	50.3	0.00545	0.00033
288.2	69.4	0.00758	0.00041
288.2	87.6	0.00961	0.00047
288.2	101.8	0.0112	0.0005
298.2	40.1	0.00339	0.00029
298.2	54.2	0.00477	0.00033
298.2	74.8	0.00665	0.0004
298.2	94.7	0.00835	0.00046
298.2	110.1	0.00971	0.00052
308.2	43.1	0.0029	0.00029
308.2	57.9	0.0042	0.00032
308.2	80.1	0.00584	0.00038
308.2	101.1	0.00742	0.00046
308.2	117.6	0.00861	0.00052
293.2	38.8	0.00359	0.00029
293.2	52.1	0.00513	0.00033
293.2	72	0.00714	0.00041
293.2	91.1	0.00897	0.00046
293.2	106.1	0.0104	0.0005
303.2	41.6	0.00314	0.00029
303.2	56.1	0.00448	0.00032
303.2	77.4	0.00624	0.0004
303.2	97.9	0.00788	0.00046
303.2	113.8	0.00915	0.00052
313.2	44.4	0.00272	0.00028
313.2	59.6	0.00399	0.00032
313.2	82.5	0.00552	0.00038
313.2	104.3	0.00698	0.00046
313.2	121.1	0.00815	0.00052

System: 2-methylpropane + 1-butyl-3-methylimidazolium bis(trifluoromethylsulfonyl)imide; phases: Liquid, Gas
Property: Mole fraction of 2-methylpropane (Liquid); method: pressure drop
Temperature, K	Pressure, kPa	Mole fraction of 2-methylpropane	uncertainty
288.2	34.1	0.0178	0.0007
288.2	44.8	0.0234	0.0007
288.2	51.9	0.027	0.0007
288.2	62.4	0.0323	0.0009
288.2	70.1	0.0359	0.0009
298.2	38.6	0.016	0.0007
298.2	50.8	0.0209	0.0007
298.2	58.9	0.0241	0.0007
298.2	70.9	0.0289	0.0008
298.2	79.3	0.0322	0.0008
308.2	43.1	0.0142	0.0006
308.2	56.6	0.0187	0.0006
308.2	65.3	0.0218	0.0006
308.2	78.4	0.0262	0.0008
308.2	87.9	0.0291	0.0008
293.2	36.4	0.0169	0.0007
293.2	47.8	0.0221	0.0007
293.2	55.1	0.0257	0.0007
293.2	66.4	0.0307	0.0009
293.2	74.6	0.0341	0.0009
303.2	40.9	0.0151	0.0006
303.2	53.8	0.0197	0.0007
303.2	62.1	0.0229	0.0006
303.2	74.8	0.0274	0.0008
303.2	83.8	0.0305	0.0008
313.2	45.4	0.0134	0.0006
313.2	59.3	0.0178	0.0006
313.2	68.4	0.0206	0.0006
313.2	82.1	0.0249	0.0008
313.2	91.9	0.0278	0.0008
