Measured thermophysical data. Liquid Liquid Equilibria for the Ternary System Water + Benzyl Alcohol + Methylbenzene at (303.2 to 343.2) K
Source: J. Chem. Eng. Data, 2014, 10.1021/je500195p
Compound 1: toluene, C7H8, InChI=1S/C7H8/c1-7-5-3-2-4-6-7/h2-6H,1H3, purity 99%
Compound 2: benzenemethanol, C7H8O, InChI=1S/C7H8O/c8-6-7-4-2-1-3-5-7/h1-5,8H,6H2, purity 99%
Compound 3: water, H2O, InChI=1S/H2O/h1H2, purity 99.9%

System: benzenemethanol + toluene + water; phases: Liquid mixture 2, Liquid mixture 1
Fixed: Pressure, kPa = 101.3
Property: Mass fraction of water (Liquid mixture 2); method: CHROM:UFactor:2
Property: Mass fraction of benzenemethanol (Liquid mixture 1); method: CHROM:UFactor:2
Property: Mass fraction of water (Liquid mixture 1); method: CHROM:UFactor:2
Temperature, K	Mass fraction of benzenemethanol	Mass fraction of water	uncertainty	Mass fraction of benzenemethanol	uncertainty	Mass fraction of water	uncertainty
303.2	0	0.0013	0.0013	0		0.9969	
303.2	0.1042	0.0044	0.002	0.0152	0.0029	0.9833	
303.2	0.2027	0.0084	0.002	0.0194	0.0028	0.9781	
303.2	0.2963	0.0153	0.002	0.0212	0.0028	0.9769	
303.2	0.3738	0.0204	0.002	0.0242	0.0028	0.9741	
303.2	0.4508	0.0264	0.002	0.0266	0.0029	0.9712	
303.2	0.5167	0.0329	0.0021	0.0282	0.0029	0.9701	
303.2	0.5742	0.0388	0.0021	0.0301	0.0031	0.9683	
303.2	0.6216	0.043	0.0021	0.0321	0.003	0.9666	
303.2	0.6732	0.0474	0.0021	0.0332	0.003	0.9656	
303.2	0.7054	0.052	0.0022	0.0343	0.003	0.9649	
303.2	0.8973	0.1027	0.0025	0.0448	0.003	0.9552	
313.2	0	0.0014	0.0014	0		0.9958	
313.2	0.1224	0.0048	0.002	0.0154	0.003	0.9815	
313.2	0.1946	0.0105	0.002	0.0196	0.003	0.9778	
313.2	0.2863	0.0171	0.002	0.0226	0.003	0.9751	
313.2	0.3697	0.0224	0.002	0.025	0.003	0.9732	
313.2	0.4199	0.0285	0.002	0.0275	0.0029	0.9708	
313.2	0.5157	0.0338	0.0021	0.0301	0.0027	0.9683	
313.2	0.5712	0.0406	0.0021	0.0325	0.003	0.9653	
313.2	0.6184	0.0447	0.0021	0.0341	0.003	0.9647	
313.2	0.6612	0.05	0.0021	0.0353	0.003	0.9636	
313.2	0.7019	0.0564	0.0022	0.0368	0.003	0.9622	
313.2	0.8944	0.1056	0.0026	0.0471	0.0031	0.9529	
323.2	0	0.0022	0.002	0		0.9942	
323.2	0.1005	0.0066	0.002	0.0157	0.0031	0.9814	
323.2	0.2021	0.0142	0.002	0.0196	0.003	0.9778	
323.2	0.2858	0.018	0.002	0.0241	0.003	0.9736	
323.2	0.3739	0.0262	0.002	0.0252	0.003	0.9728	
323.2	0.4432	0.0311	0.0021	0.0276	0.0028	0.9704	
323.2	0.5103	0.0357	0.0021	0.0306	0.0029	0.9671	
323.2	0.5538	0.0434	0.0021	0.0322	0.0029	0.966	
323.2	0.6067	0.0472	0.0021	0.0352	0.0031	0.9631	
323.2	0.6559	0.0529	0.0022	0.0363	0.0031	0.9622	
323.2	0.7011	0.0596	0.0022	0.0374	0.0031	0.9613	
323.2	0.8872	0.1128	0.0026	0.0479	0.0031	0.9521	
333.2	0	0.0025	0.002	0		0.9935	
333.2	0.1019	0.0044	0.002	0.0169	0.003	0.9802	
333.2	0.1928	0.0115	0.002	0.0198	0.003	0.9777	
333.2	0.2846	0.0176	0.002	0.0244	0.0029	0.9734	
333.2	0.3727	0.0282	0.002	0.0269	0.0029	0.9711	
333.2	0.4393	0.0321	0.0021	0.03	0.003	0.9681	
333.2	0.5172	0.0392	0.0021	0.034	0.003	0.9649	
333.2	0.5683	0.0437	0.0021	0.0367	0.0027	0.9618	
333.2	0.6238	0.0534	0.0022	0.0388	0.0031	0.9594	
333.2	0.6572	0.061	0.0022	0.0399	0.0031	0.9583	
333.2	0.6992	0.0675	0.0022	0.0406	0.0031	0.9577	
333.2	0.875	0.125	0.0028	0.0485	0.0033	0.9515	
343.2	0	0.005	0.002	0		0.9914	
343.2	0.1044	0.0076	0.002	0.0172	0.0035	0.9799	
343.2	0.2066	0.0178	0.002	0.0214	0.0029	0.976	
343.2	0.2976	0.0247	0.002	0.0259	0.0029	0.9715	
343.2	0.3788	0.03	0.0021	0.028	0.0029	0.9697	
343.2	0.4508	0.0368	0.0021	0.0304	0.0029	0.9674	
343.2	0.5305	0.0461	0.0021	0.0329	0.003	0.966	
343.2	0.5727	0.0482	0.0021	0.0341	0.0026	0.9639	
343.2	0.6336	0.0552	0.0022	0.0366	0.0029	0.9615	
343.2	0.6766	0.0601	0.0022	0.0384	0.0029	0.9598	
343.2	0.694	0.0686	0.0024	0.0429	0.0032	0.9554	
343.2	0.8589	0.1411	0.003	0.0501	0.0034	0.9499	

System: toluene + water; phases: Liquid mixture 2, Liquid mixture 1
Fixed: Pressure, kPa = 101.3
Property: Mass fraction of water (Liquid mixture 2); method: CHROM:UFactor:2
Temperature, K	Mass fraction of water	uncertainty
303.2	0.0013	0.0013
313.2	0.0014	0.0014
323.2	0.0022	0.002
333.2	0.0025	0.002
343.2	0.005	0.002

System: toluene + water; phases: Liquid mixture 1, Liquid mixture 2
Fixed: Pressure, kPa = 101.3
Property: Mass fraction of water (Liquid mixture 1); method: CHROM:UFactor:2
Temperature, K	Mass fraction of water	uncertainty
303.2	0.9969	0.002
313.2	0.9958	0.002
323.2	0.9942	0.002
333.2	0.9935	0.002
343.2	0.9914	0.002

System: benzenemethanol + water; phases: Liquid mixture 2, Liquid mixture 1
Fixed: Pressure, kPa = 101.3
Property: Mass fraction of water (Liquid mixture 2); method: CHROM:UFactor:2
Temperature, K	Mass fraction of water	uncertainty
303.2	0.1027	0.0025
313.2	0.1056	0.0026
323.2	0.1128	0.0026
333.2	0.125	0.0028
343.2	0.1411	0.003

System: benzenemethanol + water; phases: Liquid mixture 1, Liquid mixture 2
Fixed: Pressure, kPa = 101.3
Property: Mass fraction of benzenemethanol (Liquid mixture 1); method: CHROM:UFactor:2
Temperature, K	Mass fraction of benzenemethanol	uncertainty
303.2	0.0448	0.003
313.2	0.0471	0.0031
323.2	0.0479	0.0031
333.2	0.0485	0.0033
343.2	0.0501	0.0034
