Measured thermophysical data. Solubility of Carbon Dioxide in Aqueous Potassium Salts of Glycine and Taurine at Absorber and Desorber Conditions
Source: J. Chem. Eng. Data, 2014, 10.1021/je500305u
Compound 1: carbon dioxide, CO2, InChI=1S/CO2/c2-1-3, purity 99.9998%
Compound 2: potassium glycinate, C2H4KNO2, InChI=1S/C2H5NO2.K/c3-1-2(4)5;/h1,3H2,(H,4,5);/q;+1/p-1, purity 98%
Compound 3: potassium taurate, C2H6KNO3S, InChI=1S/C2H7NO3S.K/c3-1-2-7(4,5)6;/h1-3H2,(H,4,5,6);/q;+1/p-1, purity 98%
Compound 4: water, H2O, InChI=1S/H2O/h1H2, purity 99%

System: water + potassium glycinate; phases: Liquid
Fixed: Pressure, kPa = 101
Property: Mass density, kg/m3 (Liquid); method: Vibrating tube method
Molality, mol/kg of potassium glycinate	Temperature, K	Mass density, kg/m3	uncertainty
0.99	293	1065	53
0.99	298	1064	53
0.99	303	1062	53
0.99	308	1060	53
0.99	313	1058	53
0.99	318	1056	53
0.99	323	1053	53
0.99	328	1051	53
0.99	333	1048	52
0.99	338	1045	52
0.99	343	1042	52
0.99	348	1039	52
0.99	353	1036	52
0.99	358	1033	52
0.99	363	1030	52
0.99	373	1023	51
0.99	393	1007	50
1.78	293	1130	58
1.78	298	1128	57
1.78	303	1126	57
1.78	308	1124	57
1.78	313	1121	57
1.78	318	1119	57
1.78	323	1116	57
1.78	328	1114	57
1.78	333	1111	57
1.78	338	1108	56
1.78	343	1105	56
1.78	348	1102	56
1.78	353	1099	56
1.78	358	1096	56
1.78	363	1093	56
1.78	373	1086	55

System: water + potassium taurate; phases: Liquid, Crystal
Property: Mass density, kg/m3 (Liquid); method: Vibrating tube method
Molality, mol/kg of potassium taurate	Temperature, K	Mass density, kg/m3	uncertainty
0.89	283	1084	54
0.89	288	1083	54
0.89	293	1081	54
0.89	298	1079	54
0.89	303	1078	54
0.89	308	1076	54
0.89	313	1073	54
0.89	318	1071	54
0.89	323	1069	53
0.89	328	1066	53
0.89	333	1064	53
0.89	338	1061	53
0.89	343	1058	53
0.89	353	1051	53
0.89	373	1037	52
0.89	393	1021	51
1.6	293	1145	58
1.6	298	1143	58
1.6	303	1141	58
1.6	308	1139	58
1.6	313	1136	58
1.6	318	1134	58
1.6	323	1131	58
1.6	328	1129	57
1.6	333	1126	57
1.6	338	1123	57
1.6	343	1120	57
1.6	348	1117	56
1.6	353	1114	57
1.6	358	1111	56
1.6	363	1108	56
1.6	373	1101	56
1.6	393	1086	55

System: carbon dioxide + water + potassium glycinate; phases: Liquid, Gas
Property: Molality, mol/kg of carbon dioxide (Liquid); method: UNKNOWN
Temperature, K	Solvent: Molality, mol/kg of potassium glycinate	Pressure, kPa of carbon dioxide	Molality, mol/kg of carbon dioxide	uncertainty
313	0.953	0.5	0.4452	0.0276
313	0.953	0.78	0.4815	0.0296
313	0.953	2.3	0.5299	0.0319
313	0.953	4.09	0.5657	0.0341
313	0.953	6.64	0.5973	0.0358
313	0.953	9.41	0.622	0.0374
313	0.953	11.45	0.6366	0.0382
313	1.689	0.49	0.7755	0.0473
313	1.689	0.92	0.846	0.051
313	1.689	1.95	0.9103	0.0546
313	1.689	3.67	0.9599	0.0401
313	1.689	5.32	0.9893	0.0107
313	1.689	6.95	1.0123	0.0609
313	1.689	8.75	1.0324	0.0621
313	1.689	10.41	1.0486	0.0631
333	1.001	0.46	0.3092	0.0193
333	1.001	0.86	0.3707	0.0229
333	1.001	1.37	0.414	0.025
333	1.001	2.05	0.4488	0.0271
333	1.001	3.17	0.487	0.0293
333	1.001	5.72	0.5267	0.0317
333	1.001	8.36	0.5555	0.0334
333	1.001	11.8	0.5814	0.0348
333	1.761	0.48	0.5081	0.037
333	1.761	0.6	0.5772	0.045
333	1.761	0.81	0.6466	0.0424
333	1.761	1.08	0.7098	0.0432
333	1.761	1.8	0.7913	0.0475
333	1.761	4.17	0.8908	0.0534
333	1.761	7.72	0.9526	0.0474
333	1.761	10.8	0.9847	0.0153
353	0.984	0.46	0.2264	0.016
353	0.984	0.68	0.2632	0.0169
353	0.984	1.026	0.2965	0.0184
353	0.984	1.253	0.3172	0.0193
353	0.984	1.63	0.3381	0.0204
353	0.984	1.9	0.3548	0.0214
353	0.984	2.985	0.3943	0.0237
353	0.984	5	0.4372	0.0263
353	0.984	5.872	0.4508	0.027
353	0.984	8.33	0.4798	0.0289
353	0.984	11.583	0.5064	0.0305
353	1.783	0.501	0.32	0.0242
353	1.783	0.697	0.3776	0.027
353	1.783	1.507	0.4471	0.0272
353	1.783	1.947	0.4886	0.0299
353	1.783	2.904	0.5929	0.0359
353	1.783	3.888	0.6589	0.0397
353	1.783	5.172	0.7139	0.0429
353	1.783	7.575	0.7748	0.0464
353	1.783	9.305	0.8036	0.0482
353	1.783	10.275	0.8171	0.049
373	1.024	26.32	0.4981	0.03
373	1.024	40.5	0.5438	0.0328
373	1.024	55.52	0.5745	0.0345
373	1.024	72.02	0.6005	0.0361
373	1.024	94.69	0.6286	0.0379
373	1.024	105.1	0.6423	0.0387
373	1.843	15.83	0.6804	0.0421
373	1.843	27.47	0.7999	0.0483
373	1.843	53.41	0.9057	0.0545
373	1.843	64.84	0.9449	0.0551
373	1.843	87.27	0.986	0.0141
373	1.843	106.22	1.015	0.0611

System: carbon dioxide + water + potassium taurate; phases: Liquid, Gas
Property: Molality, mol/kg of carbon dioxide (Liquid); method: UNKNOWN
Temperature, K	Solvent: Molality, mol/kg of potassium taurate	Pressure, kPa of carbon dioxide	Molality, mol/kg of carbon dioxide	uncertainty
313	0.873	0.24	0.2322	0.0167
313	0.873	0.83	0.3397	0.0215
313	0.873	1.31	0.3709	0.0223
313	0.873	2.09	0.4008	0.0241
313	0.873	4.14	0.4411	0.0264
313	0.873	7.52	0.4759	0.0286
313	0.873	11.51	0.5007	0.0301
313	1.553	0.35	0.4793	0.0324
313	1.553	0.51	0.5449	0.0357
313	1.553	0.78	0.6056	0.0376
313	1.553	1.35	0.6689	0.0404
313	1.553	2.3	0.7189	0.0433
313	1.553	4.12	0.7673	0.046
313	1.553	6.41	0.8009	0.048
313	1.553	8.4	0.8215	0.0492
313	1.553	10.36	0.8372	0.0502
333	0.904	0.51	0.1797	0.0121
333	0.904	1.01	0.2411	0.0149
333	0.904	1.84	0.291	0.0175
333	0.904	3.22	0.3245	0.0194
333	0.904	4.64	0.3511	0.021
333	0.904	6.07	0.3725	0.0224
333	0.904	7.72	0.3908	0.0234
333	0.904	9.69	0.4065	0.0244
333	1.555	0.45	0.2783	0.0173
333	1.555	0.86	0.3648	0.0232
333	1.555	1.31	0.4249	0.0259
333	1.555	1.87	0.4695	0.0283
333	1.555	4.01	0.5597	0.0337
333	1.555	6.66	0.6137	0.0369
333	1.555	7.83	0.6297	0.0378
333	1.555	10.21	0.6552	0.0394
353	0.884	0.177	0.0707	0.0069
353	0.884	0.718	0.1299	0.009
353	0.884	1.2	0.1617	0.0102
353	0.884	1.692	0.1835	0.0112
353	0.884	2.456	0.2089	0.0127
353	0.884	3.34	0.2326	0.0141
353	0.884	4.29	0.2515	0.015
353	0.884	7.39	0.2933	0.0176
353	0.884	8.516	0.3062	0.0184
353	0.884	9.79	0.3156	0.019
353	0.884	10.837	0.3233	0.0194
353	1.583	0.46	0.1876	0.0134
353	1.583	0.642	0.2144	0.0148
353	1.583	0.855	0.2457	0.0156
353	1.583	1.259	0.2683	0.0163
353	1.583	1.408	0.2818	0.0173
353	1.583	1.802	0.302	0.0185
353	1.583	2.04	0.3228	0.0198
353	1.583	2.531	0.3573	0.0216
353	1.583	3.51	0.4113	0.0247
353	1.583	4.445	0.4468	0.0269
353	1.583	5.66	0.4792	0.0289
353	1.583	6.55	0.5008	0.0301
353	1.583	7.68	0.5229	0.0315
353	1.583	8.66	0.5391	0.0324
353	1.583	9.687	0.5554	0.0334
373	0.919	20.13	0.2716	0.0165
373	0.919	39.63	0.3324	0.0202
373	0.919	58.1	0.3689	0.0223
373	0.919	67.7	0.3897	0.0235
373	0.919	93.89	0.4223	0.0255
373	0.919	113.53	0.4416	0.0265
373	1.624	19.01	0.412	0.0253
373	1.624	33.12	0.4836	0.0293
373	1.624	52.62	0.5454	0.033
373	1.624	68.43	0.5796	0.0349
373	1.624	79.85	0.6008	0.0361
373	1.624	96.5	0.6238	0.0375
393	0.912	19.14	0.1724	0.0108
393	0.912	38.22	0.2282	0.0139
393	0.912	51.23	0.2596	0.0157
393	0.912	65.67	0.2842	0.0171
393	0.912	86.74	0.3101	0.0186
393	0.912	105.49	0.3288	0.0198
393	1.617	16.43	0.3001	0.0187
393	1.617	30.3	0.3677	0.0225
393	1.617	45.19	0.4272	0.0259
393	1.617	59.52	0.4696	0.0284
393	1.617	77.69	0.5127	0.0309
393	1.617	100.87	0.5499	0.0331
