Measured thermophysical data. Solubility of Metoclopramide Hydrochloride in Six Green Solvents at (298.15 to 338.15) K
Source: J. Chem. Eng. Data, 2014, 10.1021/je500154k
Compound 1: Metoclopramide hydrochloride, C14H23Cl2N3O2, InChI=1S/C14H22ClN3O2.ClH/c1-4-18(5-2)7-6-17-14(19)10-8-11(15)12(16)9-13(10)20-3;/h8-9H,4-7,16H2,1-3H3,(H,17,19);1H, purity 99.3%
Compound 2: 3,6-dioxa-1-octanol, C6H14O3, InChI=1S/C6H14O3/c1-2-8-5-6-9-4-3-7/h7H,2-6H2,1H3, purity 99.9%
Compound 3: ethanol, C2H6O, InChI=1S/C2H6O/c1-2-3/h3H,2H2,1H3, purity 99.9%
Compound 4: 1,2-ethanediol, C2H6O2, InChI=1S/C2H6O2/c3-1-2-4/h3-4H,1-2H2, purity 99.7%
Compound 5: 1,2-propanediol, C3H8O2, InChI=1S/C3H8O2/c1-3(5)2-4/h3-5H,2H2,1H3, purity 99.5%
Compound 6: water, H2O, InChI=1S/H2O/h1H2

System: Metoclopramide hydrochloride + water; phases: Liquid, Crystal
Fixed: Pressure, kPa = 101
Property: Mole fraction of Metoclopramide hydrochloride (Liquid); method: Chromatography
Temperature, K	Mole fraction of Metoclopramide hydrochloride	uncertainty
298.15	0.05161	0.00173
308.15	0.0584	0.00195
318.15	0.06427	0.00214
328.15	0.06949	0.00231
338.15	0.07534	0.0025

System: ethanol + Metoclopramide hydrochloride; phases: Liquid, Crystal
Fixed: Pressure, kPa = 101
Property: Mole fraction of Metoclopramide hydrochloride (Liquid); method: Chromatography
Temperature, K	Mole fraction of Metoclopramide hydrochloride	uncertainty
298.15	0.03288	0.00109
308.15	0.03471	0.00115
318.15	0.03695	0.00123
328.15	0.03952	0.00131
338.15	0.04251	0.00141

System: 1,2-propanediol + Metoclopramide hydrochloride; phases: Liquid, Crystal
Fixed: Pressure, kPa = 101
Property: Mole fraction of Metoclopramide hydrochloride (Liquid); method: Chromatography
Temperature, K	Mole fraction of Metoclopramide hydrochloride	uncertainty
298.15	0.04557	0.00151
308.15	0.0489	0.00162
318.15	0.05155	0.00171
328.15	0.05481	0.00182
338.15	0.05822	0.00193

System: 3,6-dioxa-1-octanol + Metoclopramide hydrochloride; phases: Liquid, Crystal
Fixed: Pressure, kPa = 101
Property: Mole fraction of Metoclopramide hydrochloride (Liquid); method: Chromatography
Temperature, K	Mole fraction of Metoclopramide hydrochloride	uncertainty
298.15	0.04817	0.0016
308.15	0.05115	0.0017
318.15	0.0552	0.00183
328.15	0.05955	0.00198
338.15	0.06395	0.00212

System: 1,2-ethanediol + Metoclopramide hydrochloride; phases: Liquid, Crystal
Fixed: Pressure, kPa = 101
Property: Mole fraction of Metoclopramide hydrochloride (Liquid); method: Chromatography
Temperature, K	Mole fraction of Metoclopramide hydrochloride	uncertainty
298.15	0.13493	0.00448
308.15	0.14566	0.00484
318.15	0.15713	0.00522
328.15	0.17182	0.00572
338.15	0.18893	0.00628
