Measured thermophysical data. Densities at Pressures up to 200 MPa and Atmospheric Pressure Viscosities of Ionic Liquids 1-Ethyl-3-methylimidazolium Methylphosphate, 1-Ethyl-3-methylimidazolium Diethylphosphate, 1-Butyl-3-methylimidazolium Acetate, and 1-Butyl-3-methylimidazolium Bis(trifluoromethylsulfonyl)imide
Source: J. Chem. Eng. Data, 2015, 10.1021/je5009679
Compound 1: 1-ethyl-3-methylimidazolium methyl phosphonate, C7H15N2O3P, InChI=1S/C6H11N2.CH5O3P/c1-3-8-5-4-7(2)6-8;1-4-5(2)3/h4-6H,3H2,1-2H3;5H,1H3,(H,2,3)/q+1;/p-1, purity 97%
Compound 2: 1-ethyl-3-methylimidazolium diethyl phosphate, C10H21N2O4P, InChI=1S/C6H11N2.C4H11O4P/c1-3-8-5-4-7(2)6-8;1-3-7-9(5,6)8-4-2/h4-6H,3H2,1-2H3;3-4H2,1-2H3,(H,5,6)/q+1;/p-1, purity 98%
Compound 3: 1-butyl-3-methylimidazolium acetate, C10H18N2O2, InChI=1S/C8H15N2.C2H4O2/c1-3-4-5-10-7-6-9(2)8-10;1-2(3)4/h6-8H,3-5H2,1-2H3;1H3,(H,3,4)/q+1;/p-1, purity 98%
Compound 4: 1-butyl-3-methylimidazolium bis(trifluoromethylsulfonyl)imide, C10H15F6N3O4S2, InChI=1S/C8H15N2.C2F6NO4S2/c1-3-4-5-10-7-6-9(2)8-10;3-1(4,5)14(10,11)9-15(12,13)2(6,7)8/h6-8H,3-5H2,1-2H3;/q+1;-1, purity 98%

System: 1-ethyl-3-methylimidazolium methyl phosphonate; phases: Liquid
Fixed: Pressure, kPa = 101.325
Property: Mass density, kg/m3 (Liquid); method: Vibrating tube method
Temperature, K	Mass density, kg/m3	uncertainty
293.15	1198.3	1.1
303.15	1191.7	1.1
313.15	1185.3	1.1
323.15	1178.8	1.1
333.15	1172.5	1.1
343.15	1166.1	1.1
353.15	1159.9	1.1
363.15	1153.8	1.1
373.15	1147.6	1.1

System: 1-ethyl-3-methylimidazolium methyl phosphonate; phases: Liquid
Fixed: Pressure, kPa = 101.325
Property: Viscosity, Pa*s (Liquid); method: Concentric cylinders viscometry
Temperature, K	Viscosity, Pa*s	uncertainty
293.15	0.1564	0.0076
303.15	0.0899	0.00426
313.15	0.05611	0.00263
323.15	0.03741	0.00175
333.15	0.0263	0.00123
343.15	0.01932	0.00091
353.15	0.01471	0.00069
363.15	0.01154	0.00054
373.15	0.009289	0.000436

System: 1-ethyl-3-methylimidazolium methyl phosphonate; phases: Liquid
Property: Mass density, kg/m3 (Liquid); method: Bellows volumetry
Temperature, K	Pressure, kPa	Mass density, kg/m3	uncertainty
311.2	10000	1189.6	1.5
311.2	20000	1193.3	1.5
311.2	30000	1197.1	1.5
311.2	40000	1200.8	1.5
311.2	50000	1204.4	1.5
311.2	60000	1207.8	1.5
311.2	70000	1211.3	1.5
311.2	80000	1214.6	1.5
311.2	90000	1217.9	1.5
311.2	100000	1221	1.5
311.2	110000	1224.2	1.5
311.2	120000	1227.2	1.5
311.2	130000	1230.3	1.5
311.2	140000	1233.1	1.5
311.2	150000	1236.1	1.5
311.2	160000	1238.9	1.5
311.2	170000	1241.7	1.5
311.2	180000	1244.5	1.5
311.2	190000	1247.2	1.5
311.2	200000	1249.9	1.5
330.9	10000	1176.8	1.5
330.9	20000	1180.9	1.5
330.9	30000	1184.9	1.5
330.9	40000	1188.8	1.5
330.9	50000	1192.5	1.5
330.9	60000	1196.1	1.5
330.9	70000	1199.8	1.5
330.9	80000	1203.3	1.5
330.9	90000	1206.6	1.5
330.9	100000	1210	1.5
330.9	110000	1213.3	1.5
330.9	120000	1216.4	1.5
330.9	130000	1219.5	1.5
330.9	140000	1222.5	1.5
330.9	150000	1225.4	1.5
330.9	160000	1228.3	1.5
330.9	170000	1231.2	1.5
330.9	180000	1234	1.5
330.9	190000	1236.7	1.5
330.9	200000	1239.6	1.5
351.3	10000	1164.2	1.5
351.3	20000	1168.7	1.5
351.3	30000	1172.8	1.5
351.3	40000	1176.9	1.5
351.3	50000	1180.9	1.5
351.3	60000	1184.7	1.5
351.3	70000	1188.4	1.5
351.3	80000	1192	1.5
351.3	90000	1195.5	1.5
351.3	100000	1198.9	1.5
351.3	110000	1202.1	1.5
351.3	120000	1205.4	1.5
351.3	130000	1208.7	1.5
351.3	140000	1211.8	1.5
351.3	150000	1214.8	1.5
351.3	160000	1217.8	1.5
351.3	170000	1220.8	1.5
351.3	180000	1223.7	1.5
351.3	190000	1226.6	1.5
351.3	200000	1229.5	1.5
371.3	10000	1152.1	1.5
371.3	20000	1156.2	1.5
371.3	30000	1161	1.5
371.3	40000	1165.2	1.5
371.3	50000	1169.2	1.5
371.3	60000	1173.3	1.5
371.3	70000	1177.2	1.5
371.3	80000	1180.9	1.5
371.3	90000	1184.5	1.5
371.3	100000	1188.2	1.5
371.3	110000	1191.6	1.5
371.3	120000	1195	1.5
371.3	130000	1198.3	1.5
371.3	140000	1201.6	1.5
371.3	150000	1204.7	1.5
371.3	160000	1207.9	1.5
371.3	170000	1210.9	1.5
371.3	180000	1213.9	1.5
371.3	190000	1216.8	1.5
371.3	200000	1219.8	1.5
391.2	10000	1140.6	1.5
391.2	20000	1144.9	1.5
391.2	30000	1149.5	1.5
391.2	40000	1154	1.5
391.2	50000	1158.2	1.5
391.2	60000	1162.3	1.5
391.2	70000	1166.4	1.5
391.2	80000	1170.4	1.5
391.2	90000	1174.1	1.5
391.2	100000	1177.9	1.5
391.2	110000	1181.4	1.5
391.2	120000	1184.9	1.5
391.2	130000	1188.3	1.5
391.2	140000	1191.6	1.5
391.2	150000	1194.9	1.5
391.2	160000	1198.1	1.5
391.2	170000	1201.2	1.5
391.2	180000	1204.2	1.5
391.2	190000	1207.2	1.5
391.2	200000	1210.2	1.5
411.1	10000	1128.7	1.5
411.1	20000	1133.3	1.5
411.1	30000	1138.1	1.5
411.1	40000	1142.8	1.5
411.1	50000	1147.3	1.5
411.1	60000	1151.7	1.5
411.1	70000	1155.8	1.5
411.1	80000	1159.9	1.5
411.1	90000	1163.9	1.5
411.1	100000	1167.6	1.5
411.1	110000	1171.3	1.5
411.1	120000	1174.9	1.5
411.1	130000	1178.4	1.5
411.1	140000	1181.8	1.5
411.1	150000	1185.3	1.5
411.1	160000	1188.5	1.5
411.1	170000	1191.7	1.5
411.1	180000	1194.8	1.5
411.1	190000	1197.9	1.5
411.1	200000	1201	1.5

System: 1-ethyl-3-methylimidazolium diethyl phosphate; phases: Liquid
Fixed: Pressure, kPa = 101.325
Property: Mass density, kg/m3 (Liquid); method: Vibrating tube method
Temperature, K	Mass density, kg/m3	uncertainty
293.15	1148.2	1.1
303.15	1141.2	1.1
313.15	1134.4	1
323.15	1127.8	1
333.15	1121.2	1
343.15	1114.6	1
353.15	1108	1
363.15	1101.5	1
373.15	1094.9	1

System: 1-ethyl-3-methylimidazolium diethyl phosphate; phases: Liquid
Fixed: Pressure, kPa = 101.325
Property: Viscosity, Pa*s (Liquid); method: Concentric cylinders viscometry
Temperature, K	Viscosity, Pa*s	uncertainty
293.15	0.6647	0.0376
303.15	0.3173	0.0165
313.15	0.1739	0.0086
323.15	0.1038	0.005
333.15	0.06637	0.00312
343.15	0.04492	0.00211
353.15	0.03186	0.00149
363.15	0.0235	0.0011
373.15	0.01792	0.00084

System: 1-ethyl-3-methylimidazolium diethyl phosphate; phases: Liquid
Property: Mass density, kg/m3 (Liquid); method: Bellows volumetry
Temperature, K	Pressure, kPa	Mass density, kg/m3	uncertainty
311.4	10000	1140.5	1.4
311.4	20000	1145.4	1.4
311.4	30000	1150.1	1.4
311.4	40000	1154.6	1.4
311.4	50000	1158.9	1.4
311.4	60000	1163	1.4
311.4	70000	1167	1.4
311.4	80000	1170.9	1.4
311.4	90000	1174.6	1.4
311.4	100000	1178.3	1.4
311.4	110000	1181.8	1.4
311.4	120000	1185.2	1.4
311.4	130000	1188.6	1.4
311.4	140000	1191.8	1.4
311.4	150000	1195.2	1.4
311.4	160000	1198.2	1.4
311.4	170000	1201.4	1.4
311.4	180000	1204.4	1.4
311.4	190000	1207.3	1.4
311.4	200000	1210.3	1.4
331.3	10000	1127.5	1.4
331.3	20000	1132.6	1.4
331.3	30000	1137.6	1.4
331.3	40000	1142.3	1.4
331.3	50000	1146.8	1.4
331.3	60000	1151.2	1.4
331.3	70000	1155.3	1.4
331.3	80000	1159.4	1.4
331.3	90000	1163.2	1.4
331.3	100000	1167.1	1.4
331.3	110000	1170.7	1.4
331.3	120000	1174.4	1.4
331.3	130000	1177.8	1.4
331.3	140000	1181.3	1.4
331.3	150000	1184.8	1.4
331.3	160000	1187.9	1.4
331.3	170000	1191	1.4
331.3	180000	1194.1	1.4
331.3	190000	1197.3	1.4
331.3	200000	1200.2	1.4
351.4	10000	1114.6	1.4
351.4	20000	1120	1.4
351.4	30000	1125.2	1.4
351.4	40000	1130.2	1.4
351.4	50000	1134.9	1.4
351.4	60000	1139.5	1.4
351.4	70000	1144	1.4
351.4	80000	1148.1	1.4
351.4	90000	1152.2	1.4
351.4	100000	1156.1	1.4
351.4	110000	1159.9	1.4
351.4	120000	1163.6	1.4
351.4	130000	1167.2	1.4
351.4	140000	1170.7	1.4
351.4	150000	1174.2	1.4
351.4	160000	1177.5	1.4
351.4	170000	1180.8	1.4
351.4	180000	1184	1.4
351.4	190000	1187.1	1.4
351.4	200000	1190.3	1.4
371.6	10000	1102	1.4
371.6	20000	1107.7	1.4
371.6	30000	1113.3	1.4
371.6	40000	1118.5	1.4
371.6	50000	1123.4	1.4
371.6	60000	1128.2	1.4
371.6	70000	1132.7	1.4
371.6	80000	1137.2	1.4
371.6	90000	1141.3	1.4
371.6	100000	1145.5	1.4
371.6	110000	1149.4	1.4
371.6	120000	1153.2	1.4
371.6	130000	1157	1.4
371.6	140000	1160.6	1.4
371.6	150000	1164.2	1.4
371.6	160000	1167.7	1.4
371.6	170000	1171	1.4
371.6	180000	1174.3	1.4
371.6	190000	1177.5	1.4
371.6	200000	1180.8	1.4
391.6	10000	1089.8	1.4
391.6	20000	1095.6	1.4
391.6	30000	1101.5	1.4
391.6	40000	1107	1.4
391.6	50000	1112.3	1.4
391.6	60000	1117.2	1.4
391.6	70000	1122	1.4
391.6	80000	1126.6	1.4
391.6	90000	1131	1.4
391.6	100000	1135.2	1.4
391.6	110000	1139.4	1.4
391.6	120000	1143.4	1.4
391.6	130000	1147.1	1.4
391.6	140000	1151	1.4
391.6	150000	1154.6	1.4
391.6	160000	1158.1	1.4
391.6	170000	1161.5	1.4
391.6	180000	1165	1.4
391.6	190000	1168.2	1.4
391.6	200000	1171.5	1.4
411.7	10000	1077.9	1.4
411.7	20000	1084.3	1.4
411.7	30000	1090.4	1.4
411.7	40000	1096.2	1.4
411.7	50000	1101.7	1.4
411.7	60000	1106.9	1.4
411.7	70000	1111.9	1.4
411.7	80000	1116.7	1.4
411.7	90000	1120.6	1.4
411.7	100000	1125.1	1.4
411.7	110000	1129.3	1.4
411.7	120000	1133.4	1.4
411.7	130000	1137.4	1.4
411.7	140000	1141.2	1.4
411.7	150000	1145	1.4
411.7	160000	1148.7	1.4
411.7	170000	1152.3	1.4
411.7	180000	1155.8	1.4
411.7	190000	1159.2	1.4
411.7	200000	1162.6	1.4

System: 1-butyl-3-methylimidazolium acetate; phases: Liquid
Fixed: Pressure, kPa = 101.325
Property: Mass density, kg/m3 (Liquid); method: Vibrating tube method
Temperature, K	Mass density, kg/m3	uncertainty
293.15	1053.8	1
303.15	1047.4	1
313.15	1041.4	1
323.15	1035.4	1
333.15	1029.5	1
343.15	1023.7	1
353.15	1017.9	1
363.15	1012	1
373.15	1006.1	1

System: 1-butyl-3-methylimidazolium acetate; phases: Liquid
Fixed: Pressure, kPa = 101.325
Property: Viscosity, Pa*s (Liquid); method: Concentric cylinders viscometry
Temperature, K	Viscosity, Pa*s	uncertainty
293.15	0.5923	0.033
303.15	0.2741	0.014
313.15	0.1424	0.0069
323.15	0.08188	0.00385
333.15	0.05111	0.00238
343.15	0.03365	0.00157
353.15	0.02351	0.0011
363.15	0.01709	0.0008
373.15	0.01293	0.0006

System: 1-butyl-3-methylimidazolium acetate; phases: Liquid
Property: Mass density, kg/m3 (Liquid); method: Bellows volumetry
Temperature, K	Pressure, kPa	Mass density, kg/m3	uncertainty
311.4	10000	1046.7	1.4
311.4	20000	1050.8	1.4
311.4	30000	1054.8	1.4
311.4	40000	1058.6	1.4
311.4	50000	1062.3	1.4
311.4	60000	1065.8	1.4
311.4	70000	1069.3	1.4
311.4	80000	1072.7	1.4
311.4	90000	1076	1.4
311.4	100000	1079	1.4
311.4	110000	1082.1	1.4
311.4	120000	1085.1	1.4
311.4	130000	1088.1	1.4
311.4	140000	1090.9	1.4
311.4	150000	1093.7	1.4
311.4	160000	1096.5	1.4
311.4	170000	1099.1	1.4
311.4	180000	1101.9	1.4
311.4	190000	1104.5	1.4
311.4	200000	1107.1	1.4
331.1	10000	1034.7	1.4
331.1	20000	1039.1	1.4
331.1	30000	1043.3	1.4
331.1	40000	1047.3	1.4
331.1	50000	1051.2	1.4
331.1	60000	1054.9	1.4
331.1	70000	1058.5	1.4
331.1	80000	1062.1	1.4
331.1	90000	1065.2	1.4
331.1	100000	1068.7	1.4
331.1	110000	1071.9	1.4
331.1	120000	1075	1.4
331.1	130000	1078.2	1.4
331.1	140000	1081.1	1.4
331.1	150000	1084	1.4
331.1	160000	1086.8	1.4
331.1	170000	1089.6	1.4
331.1	180000	1092.4	1.4
331.1	190000	1095.1	1.4
331.1	200000	1097.7	1.4
351.3	10000	1023.2	1.4
351.3	20000	1027.7	1.4
351.3	30000	1032.1	1.4
351.3	40000	1036.4	1.4
351.3	50000	1040.4	1.4
351.3	60000	1044.3	1.4
351.3	70000	1048	1.4
351.3	80000	1051.6	1.4
351.3	90000	1055	1.4
351.3	100000	1058.4	1.4
351.3	110000	1061.7	1.4
351.3	120000	1065	1.4
351.3	130000	1068.1	1.4
351.3	140000	1071.2	1.4
351.3	150000	1074.3	1.4
351.3	160000	1077.3	1.4
351.3	170000	1080.2	1.4
351.3	180000	1083	1.4
351.3	190000	1086	1.4
351.3	200000	1088.5	1.4
371.3	10000	1011.7	1.4
371.3	20000	1016.5	1.4
371.3	30000	1021.2	1.4
371.3	40000	1025.5	1.4
371.3	50000	1029.6	1.4
371.3	60000	1033.8	1.4
371.3	70000	1037.7	1.4
371.3	80000	1041.5	1.4
371.3	90000	1045	1.4
371.3	100000	1048.5	1.4
371.3	110000	1051.9	1.4
371.3	120000	1055.3	1.4
371.3	130000	1058.6	1.4
371.3	140000	1061.8	1.4
371.3	150000	1064.9	1.4
371.3	160000	1067.8	1.4
371.3	170000	1071	1.4
371.3	180000	1073.9	1.4
371.3	190000	1076.8	1.4
371.3	200000	1079.5	1.4

System: 1-butyl-3-methylimidazolium bis(trifluoromethylsulfonyl)imide; phases: Liquid
Fixed: Pressure, kPa = 101.325
Property: Mass density, kg/m3 (Liquid); method: Vibrating tube method
Temperature, K	Mass density, kg/m3	uncertainty
293.15	1440.9	1.3
303.15	1431.6	1.3
313.15	1422.1	1.3
323.15	1412.6	1.3
333.15	1403.4	1.3
343.15	1394	1.3
353.15	1384.8	1.3
363.15	1375.6	1.3
373.15	1366.7	1.3

System: 1-butyl-3-methylimidazolium bis(trifluoromethylsulfonyl)imide; phases: Liquid
Fixed: Pressure, kPa = 101.325
Property: Viscosity, Pa*s (Liquid); method: Concentric cylinders viscometry
Temperature, K	Viscosity, Pa*s	uncertainty
293.15	0.06341	0.00296
303.15	0.04126	0.00193
313.15	0.02846	0.00133
323.15	0.02058	0.00096
333.15	0.01547	0.00072
343.15	0.012	0.00056
353.15	0.009562	0.000446
363.15	0.007788	0.000364
373.15	0.006469	0.000302

System: 1-butyl-3-methylimidazolium bis(trifluoromethylsulfonyl)imide; phases: Liquid
Property: Mass density, kg/m3 (Liquid); method: Bellows volumetry
Temperature, K	Pressure, kPa	Mass density, kg/m3	uncertainty
311.8	10000	1430.7	1.8
311.8	20000	1437.5	1.8
311.8	30000	1444.6	1.8
311.8	40000	1451.2	1.8
311.8	50000	1457.5	1.8
311.8	60000	1463.6	1.8
311.8	70000	1469.5	1.8
311.8	80000	1475.2	1.8
311.8	90000	1480.5	1.8
311.8	100000	1485.7	1.8
311.8	110000	1490.9	1.8
311.8	120000	1496	1.8
311.8	130000	1500.9	1.8
311.8	140000	1505.6	1.8
311.8	150000	1510.2	1.8
311.8	160000	1514.8	1.8
311.8	170000	1519.3	1.8
311.8	180000	1523.5	1.8
311.8	190000	1527.7	1.8
311.8	200000	1531.8	1.8
331.9	10000	1412.5	1.8
331.9	20000	1420.1	1.8
331.9	30000	1427.4	1.8
331.9	40000	1434.5	1.8
331.9	50000	1441.1	1.8
331.9	60000	1447.6	1.8
331.9	70000	1453.6	1.8
331.9	80000	1459.5	1.8
331.9	90000	1464.9	1.8
331.9	100000	1470.5	1.8
331.9	110000	1476	1.8
331.9	120000	1481.1	1.8
331.9	130000	1486.2	1.8
331.9	140000	1491.2	1.8
331.9	150000	1495.9	1.8
331.9	160000	1500.5	1.8
331.9	170000	1505.2	1.8
331.9	180000	1509.6	1.8
331.9	190000	1513.9	1.8
331.9	200000	1518.3	1.8
352	10000	1394	1.8
352	20000	1402.4	1.8
352	30000	1410	1.8
352	40000	1417.4	1.8
352	50000	1424.3	1.8
352	60000	1431.2	1.8
352	70000	1437.5	1.8
352	80000	1443.8	1.8
352	90000	1449.5	1.8
352	100000	1455.3	1.8
352	110000	1460.8	1.8
352	120000	1466.3	1.8
352	130000	1471.5	1.8
352	140000	1476.5	1.8
352	150000	1481.4	1.8
352	160000	1486.3	1.8
352	170000	1491	1.8
352	180000	1495.8	1.8
352	190000	1500.2	1.8
352	200000	1504.7	1.8
372.2	10000	1376.1	1.8
372.2	20000	1384.9	1.8
372.2	30000	1393.3	1.8
372.2	40000	1401.1	1.8
372.2	50000	1408.4	1.8
372.2	60000	1415.5	1.8
372.2	70000	1422.1	1.8
372.2	80000	1428.4	1.8
372.2	90000	1434.4	1.8
372.2	100000	1440.3	1.8
372.2	110000	1446.2	1.8
372.2	120000	1452	1.8
372.2	130000	1457.4	1.8
372.2	140000	1462.6	1.8
372.2	150000	1467.8	1.8
372.2	160000	1472.5	1.8
372.2	170000	1477.5	1.8
372.2	180000	1482.1	1.8
372.2	190000	1487	1.8
372.2	200000	1491.4	1.8
392.4	10000	1358.5	1.8
392.4	20000	1367.8	1.8
392.4	30000	1376.7	1.8
392.4	40000	1385	1.8
392.4	50000	1392.8	1.8
392.4	60000	1400.2	1.7
392.4	70000	1407.2	1.7
392.4	80000	1414	1.7
392.4	90000	1420.7	1.8
392.4	100000	1426.6	1.8
392.4	110000	1432.6	1.8
392.4	120000	1438.2	1.8
392.4	130000	1443.8	1.8
392.4	140000	1449.2	1.8
392.4	150000	1454.4	1.8
392.4	160000	1459.3	1.8
392.4	170000	1464.5	1.8
392.4	180000	1469.2	1.8
392.4	190000	1474.1	1.8
392.4	200000	1478.8	1.8
412.1	10000	1341.1	1.8
412.1	20000	1351	1.8
412.1	30000	1360.4	1.8
412.1	40000	1369.2	1.8
412.1	50000	1377.5	1.7
412.1	60000	1385.1	1.7
412.1	70000	1392.6	1.7
412.1	80000	1399.6	1.7
412.1	90000	1406.1	1.8
412.1	100000	1412.5	1.8
412.1	110000	1418.8	1.8
412.1	120000	1424.8	1.8
412.1	130000	1430.5	1.8
412.1	140000	1436.2	1.8
412.1	150000	1441.4	1.8
412.1	160000	1446.8	1.8
412.1	170000	1451.9	1.8
412.1	180000	1456.9	1.8
412.1	190000	1461.6	1.8
412.1	200000	1466.6	1.8
