Measured thermophysical data. Vapor Liquid Equilibrium Data for 1-Methyl-2-Pyrrolidone + (1-Butanol or 1-Hexene or Water) Binary Mixtures
Source: J. Chem. Eng. Data, 2014, 10.1021/je500092v
Compound 1: butan-1-ol, C4H10O, InChI=1S/C4H10O/c1-2-3-4-5/h5H,2-4H2,1H3, purity 99.9%
Compound 2: N-methylpyrrolidone, C5H9NO, InChI=1S/C5H9NO/c1-6-4-2-3-5(6)7/h2-4H2,1H3, purity 99.9%
Compound 3: hex-1-ene, C6H12, InChI=1S/C6H12/c1-3-5-6-4-2/h3H,1,4-6H2,2H3, purity 99.09%
Compound 4: water, H2O, InChI=1S/H2O/h1H2, purity 99.9%

System: butan-1-ol; phases: Liquid
Property: Refractive index (Na D-line) (Liquid); method: Standard Abbe refractometry
Temperature, K	Pressure, kPa	Refractive index (Na D-line)	uncertainty
293.15	101.325	1.3992	0.0004

System: butan-1-ol; phases: Liquid, Gas
Property: Vapor or sublimation pressure, kPa (Liquid); method: Ebulliometric method (Recirculating still)
Temperature, K	Vapor or sublimation pressure, kPa	uncertainty
337.8	10	0.235
355.78	25	0.4375
371.94	50	0.775

System: N-methylpyrrolidone; phases: Liquid
Property: Refractive index (Na D-line) (Liquid); method: Standard Abbe refractometry
Temperature, K	Pressure, kPa	Refractive index (Na D-line)	uncertainty
293.15	101.325	1.4703	0.0004

System: N-methylpyrrolidone; phases: Liquid, Gas
Property: Vapor or sublimation pressure, kPa (Liquid); method: Ebulliometric method (Recirculating still)
Temperature, K	Vapor or sublimation pressure, kPa	uncertainty
313.15	0.13	0.13
335.15	0.51	0.13
363.15	2.18	0.26
399.53	10	0.335
425.91	25	0.6125
448.97	50	1.05
343.15	0.79	0.26
363.15	2.17	0.26
380.15	4.98	0.27

System: hex-1-ene; phases: Liquid
Property: Refractive index (Na D-line) (Liquid); method: Standard Abbe refractometry
Temperature, K	Pressure, kPa	Refractive index (Na D-line)	uncertainty
293.15	101.325	1.3838	0.0004

System: hex-1-ene; phases: Liquid, Gas
Property: Vapor or sublimation pressure, kPa (Liquid); method: Ebulliometric method (Recirculating still)
Temperature, K	Vapor or sublimation pressure, kPa	uncertainty
313.15	45.01	0.48
335.15	96.56	0.7
363.15	218.59	1.16

System: hex-1-ene + N-methylpyrrolidone; phases: Liquid, Gas
Property: Vapor or sublimation pressure, kPa (Liquid); method: Ebulliometric method (Recirculating still)
Mole fraction of hex-1-ene	Temperature, K	Vapor or sublimation pressure, kPa	uncertainty
0	313.15	0.13	0.26
0.212	313.15	30.32	1.4
0.295	313.15	33.28	0.49
0.468	313.15	37.52	0.5
0.543	313.15	39.05	0.47
0.666	313.15	40.76	0.47
0.811	313.15	42.07	0.47
0.948	313.15	43.48	0.49
1	313.15	45.01	0.48
0	335.15	0.51	0.26
0.103	335.15	39.21	3.3
0.129	335.15	44.92	2.41
0.202	335.15	56.03	1.26
0.309	335.15	67.24	1.2
0.384	335.15	73.84	0.98
0.502	335.15	81.75	0.85
0.578	335.15	85.35	1.08
0.59	335.15	86.35	0.81
0.607	335.15	86.96	0.65
0.65	335.15	88.26	0.68
0.695	335.15	90.06	0.7
0.715	335.15	90.65	0.62
0.729	335.15	90.88	0.58
0.748	335.15	91.03	0.59
0.762	335.15	91.36	0.59
0.783	335.15	91.58	0.58
0.819	335.15	91.96	0.58
0.845	335.15	92.24	0.58
0.881	335.15	92.46	0.59
0.896	335.15	92.86	0.61
0.935	335.15	93.46	2.37
0.989	335.15	95.26	4.12
1	335.15	96.56	0.7
0	363.15	2.18	0.26
0.013	363.15	13.89	9.93
0.027	363.15	25.7	9.02
0.038	363.15	35.2	9.06
0.064	363.15	54.41	7.91
0.091	363.15	71.94	7.65
0.11	363.15	85.3	6.58
0.133	363.15	96.26	5.46
1	363.15	218.59	1.16

System: hex-1-ene + N-methylpyrrolidone; phases: Gas, Liquid
Property: Mole fraction of hex-1-ene (Gas); method: Chromatography
Mole fraction of hex-1-ene	Temperature, K	Mole fraction of hex-1-ene	uncertainty
0	313.15	0	
0.212	313.15	0.996	0.004
0.295	313.15	0.996	0.004
0.468	313.15	0.997	0.003
0.543	313.15	0.997	0.003
0.666	313.15	0.998	0.002
0.811	313.15	0.998	0.002
0.948	313.15	0.998	0.002
1	313.15	1	
0	335.15	0	
0.103	335.15	0.99	0.01
0.129	335.15	0.991	0.009
0.202	335.15	0.991	0.009
0.309	335.15	0.991	0.009
0.384	335.15	0.992	0.008
0.502	335.15	0.992	0.008
0.578	335.15	0.993	0.007
0.59	335.15	0.991	0.009
0.607	335.15	0.994	0.006
0.65	335.15	0.994	0.006
0.695	335.15	0.999	0.001
0.715	335.15	0.999	0.001
0.729	335.15	0.996	0.004
0.748	335.15	0.994	0.006
0.762	335.15	0.996	0.004
0.783	335.15	0.992	0.008
0.819	335.15	0.995	0.005
0.845	335.15	0.996	0.004
0.881	335.15	0.997	0.003
0.896	335.15	0.997	0.003
0.935	335.15	0.998	0.002
0.989	335.15	0.998	0.002
1	335.15	1	
0	363.15	0	
0.013	363.15	0.845	0.155
0.027	363.15	0.915	0.028
0.038	363.15	0.941	0.03
0.064	363.15	0.969	0.013
0.091	363.15	0.971	0.012
0.11	363.15	0.978	0.012
0.133	363.15	0.98	0.011
1	363.15	1	

System: butan-1-ol + N-methylpyrrolidone; phases: Liquid, Gas
Property: Boiling temperature at pressure P, K (Liquid); method: Ebulliometric method (Recirculating still)
Mole fraction of butan-1-ol	Pressure, kPa	Boiling temperature at pressure P, K	uncertainty
0	10	399.53	0.67
0.011	10	397.98	1.7
0.016	10	397.06	1.74
0.045	10	393.15	1.6
0.083	10	388.47	1.34
0.135	10	383.73	1.31
0.159	10	380.51	1.57
0.185	10	377.39	1.14
0.249	10	372.68	1.06
0.341	10	365.38	0.96
0.568	10	350.55	0.84
0.655	10	347.35	0.68
0.74	10	343.89	0.62
0.865	10	340.65	0.56
0.927	10	339.22	0.53
1	10	337.8	0.47
0	25	425.91	0.49
0.013	25	423.6	1.19
0.021	25	422.54	1.3
0.049	25	418.32	2.16
0.063	25	416.11	0.67
0.102	25	411.16	1.34
0.13	25	407.16	1.11
0.182	25	401.6	1.08
0.271	25	393.54	1.17
0.316	25	389.56	1.11
0.371	25	384.68	0.78
0.513	25	374.41	1.04
0.579	25	370.44	0.57
0.635	25	367.98	0.86
0.686	25	365.31	0.5
0.873	25	358.9	0.6
0.928	25	357.27	0.4
1	25	355.78	0.35
0	50	448.97	0.42
0.014	50	446.08	2.08
0.019	50	444.56	2.07
0.052	50	439.55	1.92
0.069	50	436.22	1.76
0.109	50	430.81	1.53
0.182	50	421.48	1.28
0.286	50	411.75	1.12
0.348	50	406.06	0.93
0.528	50	393.37	0.81
0.655	50	386.84	0.7
0.708	50	383.86	0.61
0.855	50	378.08	0.59
0.89	50	376.6	0.59
1	50	371.94	0.31

System: butan-1-ol + N-methylpyrrolidone; phases: Gas, Liquid
Property: Mole fraction of butan-1-ol (Gas); method: Chromatography
Mole fraction of butan-1-ol	Pressure, kPa	Mole fraction of butan-1-ol	uncertainty
0	10	0	
0.011	10	0.087	0.063
0.016	10	0.124	0.07
0.045	10	0.278	0.055
0.083	10	0.44	0.039
0.135	10	0.577	0.031
0.159	10	0.626	0.027
0.185	10	0.682	0.021
0.249	10	0.764	0.017
0.341	10	0.855	0.013
0.568	10	0.955	0.012
0.655	10	0.97	0.011
0.74	10	0.975	0.011
0.865	10	0.992	0.008
0.927	10	0.998	0.002
1	10	1	
0	25	0	
0.013	25	0.091	0.057
0.021	25	0.131	0.057
0.049	25	0.252	0.052
0.063	25	0.314	0.037
0.102	25	0.441	0.043
0.13	25	0.562	0.033
0.182	25	0.671	0.021
0.271	25	0.779	0.017
0.316	25	0.824	0.015
0.371	25	0.867	0.013
0.513	25	0.933	0.012
0.579	25	0.953	0.012
0.635	25	0.968	0.012
0.686	25	0.975	0.011
0.873	25	0.99	0.01
0.928	25	0.995	0.005
1	25	1	
0	50	0	
0.014	50	0.087	0.062
0.019	50	0.15	0.061
0.052	50	0.282	0.051
0.069	50	0.37	0.036
0.109	50	0.462	0.031
0.182	50	0.648	0.022
0.286	50	0.766	0.017
0.348	50	0.839	0.014
0.528	50	0.934	0.012
0.655	50	0.964	0.012
0.708	50	0.977	0.011
0.855	50	0.986	0.012
0.89	50	0.992	0.008
1	50	1	

System: N-methylpyrrolidone + water; phases: Liquid, Gas
Property: Vapor or sublimation pressure, kPa (Liquid); method: Ebulliometric method (Recirculating still)
Mole fraction of water	Temperature, K	Vapor or sublimation pressure, kPa	uncertainty
0	343.15	0.79	0.26
0.34	343.15	9.01	0.4
0.462	343.15	12.69	0.46
0.523	343.15	14.79	0.49
0.605	343.15	17.49	0.51
0.657	343.15	19.29	0.5
0.733	343.15	21.7	0.55
0.812	343.15	24.9	0.54
0.923	343.15	28.4	0.55
1	343.15	31.1	0.41
0	363.15	2.17	0.26
0.182	363.15	11.39	0.72
0.322	363.15	20.9	0.91
0.407	363.15	26.09	0.94
0.519	363.15	34.81	0.83
0.674	363.15	45.22	0.98
0.782	363.15	54.04	1.01
0.879	363.15	61.73	0.96
0.959	363.15	67.24	1.39
1	363.15	70.14	0.54
0	380.15	4.98	0.27
0.12	380.15	17.29	1.28
0.231	380.15	30.2	1.49
0.33	380.15	44.22	1.61
0.405	380.15	54.07	1.57
0.472	380.15	63.03	1.67
0.504	380.15	68.14	1.68
0.577	380.15	77.95	1.55
0.682	380.15	91.03	1.51
1	380.15	129.9	0.75

System: N-methylpyrrolidone + water; phases: Gas, Liquid
Property: Mole fraction of water (Gas); method: Chromatography
Mole fraction of water	Temperature, K	Mole fraction of water	uncertainty
0	343.15	0	
0.34	343.15	0.948	0.028
0.462	343.15	0.968	0.012
0.523	343.15	0.98	0.012
0.605	343.15	0.989	0.011
0.657	343.15	0.993	0.007
0.733	343.15	0.994	0.006
0.812	343.15	0.996	0.004
0.923	343.15	0.996	0.004
1	343.15	1	
0	363.15	0	
0.182	363.15	0.843	0.036
0.322	363.15	0.936	0.013
0.407	363.15	0.954	0.012
0.519	363.15	0.971	0.012
0.674	363.15	0.991	0.009
0.782	363.15	0.995	0.005
0.879	363.15	0.997	0.003
0.959	363.15	0.998	0.002
1	363.15	1	
0	380.15	0	
0.12	380.15	0.767	0.045
0.231	380.15	0.879	0.014
0.33	380.15	0.927	0.012
0.405	380.15	0.948	0.012
0.472	380.15	0.966	0.012
0.504	380.15	0.971	0.012
0.577	380.15	0.98	0.011
0.682	380.15	0.985	0.011
1	380.15	1	
