Measured thermophysical data. Solubilities of 1,3,2-Dioxaphosphorinane-2-methanol-a,5,5-trimethyl-a-phenyl-2-oxide in Selected Solvents between 278.15 K and 343.15 K
Source: J. Chem. Eng. Data, 2015, 10.1021/je500806u
Compound 1: .alpha.,5,5-trimethyl-.alpha.-phenyl-1,3,2-dioxaphosphorinane-2-methanol 2-oxide (DMPO), C13H19O4P, InChI=1S/C13H19O4P/c1-12(2)9-16-18(15,17-10-12)13(3,14)11-7-5-4-6-8-11/h4-8,14H,9-10H2,1-3H3, purity 99%
Compound 2: acetone, C3H6O, InChI=1S/C3H6O/c1-3(2)4/h1-2H3, purity 99.5%
Compound 3: acetonitrile, C2H3N, InChI=1S/C2H3N/c1-2-3/h1H3, purity 99.8%
Compound 4: trichloromethane, CHCl3, InChI=1S/CHCl3/c2-1(3)4/h1H, purity 99.7%
Compound 5: 1,2-dichloroethane, C2H4Cl2, InChI=1S/C2H4Cl2/c3-1-2-4/h1-2H2, purity 99%
Compound 6: ethanol, C2H6O, InChI=1S/C2H6O/c1-2-3/h3H,2H2,1H3, purity 99.7%
Compound 7: ethyl acetate, C4H8O2, InChI=1S/C4H8O2/c1-3-6-4(2)5/h3H2,1-2H3, purity 99.5%
Compound 8: methanol, CH4O, InChI=1S/CH4O/c1-2/h2H,1H3, purity 99.5%

System: ethyl acetate + .alpha.,5,5-trimethyl-.alpha.-phenyl-1,3,2-dioxaphosphorinane-2-methanol 2-oxide (DMPO); phases: Liquid, Crystal
Fixed: Pressure, kPa = 100
Property: Mole fraction of .alpha.,5,5-trimethyl-.alpha.-phenyl-1,3,2-dioxaphosphorinane-2-methanol 2-oxide (DMPO) (Liquid); method: gravimetric
Temperature, K	Mole fraction of .alpha.,5,5-trimethyl-.alpha.-phenyl-1,3,2-dioxaphosphorinane-2-methanol 2-oxide (DMPO)	uncertainty
297.95	0.00054	1e-05
303.35	0.00092	1e-05
308.45	0.00131	1e-05
313.15	0.00166	2e-05
318.05	0.00221	2e-05
323.05	0.0024	2e-05
328.35	0.00283	2e-05
333.25	0.00307	3e-05
338.15	0.00336	3e-05
342.95	0.0036	3e-05

System: trichloromethane + .alpha.,5,5-trimethyl-.alpha.-phenyl-1,3,2-dioxaphosphorinane-2-methanol 2-oxide (DMPO); phases: Liquid, Crystal
Fixed: Pressure, kPa = 100
Property: Mole fraction of .alpha.,5,5-trimethyl-.alpha.-phenyl-1,3,2-dioxaphosphorinane-2-methanol 2-oxide (DMPO) (Liquid); method: gravimetric
Temperature, K	Mole fraction of .alpha.,5,5-trimethyl-.alpha.-phenyl-1,3,2-dioxaphosphorinane-2-methanol 2-oxide (DMPO)	uncertainty
278.25	0.0048	0.00031
283.35	0.00547	0.00035
288.15	0.00651	0.00042
293.05	0.00768	0.00049
298.45	0.00866	0.00055
303.35	0.00944	0.0006
308.15	0.01114	0.00071
313.05	0.01276	0.00081
317.95	0.0154	0.00098
323.15	0.01878	0.0012

System: acetonitrile + .alpha.,5,5-trimethyl-.alpha.-phenyl-1,3,2-dioxaphosphorinane-2-methanol 2-oxide (DMPO); phases: Liquid, Crystal
Fixed: Pressure, kPa = 100
Property: Mole fraction of .alpha.,5,5-trimethyl-.alpha.-phenyl-1,3,2-dioxaphosphorinane-2-methanol 2-oxide (DMPO) (Liquid); method: gravimetric
Temperature, K	Mole fraction of .alpha.,5,5-trimethyl-.alpha.-phenyl-1,3,2-dioxaphosphorinane-2-methanol 2-oxide (DMPO)	uncertainty
283.25	0.00144	1e-05
288.45	0.00169	2e-05
293.35	0.00198	2e-05
298.25	0.00221	2e-05
303.25	0.00268	3e-05
308.15	0.00342	3e-05
313.35	0.00392	3e-05
318.15	0.0046	4e-05
323.05	0.00562	5e-05
327.95	0.00654	6e-05
333.05	0.00866	8e-05

System: acetone + .alpha.,5,5-trimethyl-.alpha.-phenyl-1,3,2-dioxaphosphorinane-2-methanol 2-oxide (DMPO); phases: Liquid, Crystal
Fixed: Pressure, kPa = 100
Property: Mole fraction of .alpha.,5,5-trimethyl-.alpha.-phenyl-1,3,2-dioxaphosphorinane-2-methanol 2-oxide (DMPO) (Liquid); method: gravimetric
Temperature, K	Mole fraction of .alpha.,5,5-trimethyl-.alpha.-phenyl-1,3,2-dioxaphosphorinane-2-methanol 2-oxide (DMPO)	uncertainty
278.15	0.00106	1e-05
283.25	0.00132	1e-05
288.45	0.0018	2e-05
293.25	0.0023	2e-05
298.35	0.0031	3e-05
303.35	0.00363	3e-05
308.15	0.00469	4e-05
313.25	0.00547	5e-05
318.05	0.00593	5e-05
323.15	0.00616	5e-05

System: methanol + .alpha.,5,5-trimethyl-.alpha.-phenyl-1,3,2-dioxaphosphorinane-2-methanol 2-oxide (DMPO); phases: Liquid, Crystal
Fixed: Pressure, kPa = 100
Property: Mole fraction of .alpha.,5,5-trimethyl-.alpha.-phenyl-1,3,2-dioxaphosphorinane-2-methanol 2-oxide (DMPO) (Liquid); method: gravimetric
Temperature, K	Mole fraction of .alpha.,5,5-trimethyl-.alpha.-phenyl-1,3,2-dioxaphosphorinane-2-methanol 2-oxide (DMPO)	uncertainty
283.35	0.01121	0.0001
288.15	0.01316	0.00011
293.25	0.01461	0.00013
298.31	0.01676	0.00015
303.15	0.01957	0.00017
307.95	0.02227	0.0002
313.05	0.02588	0.00022
317.95	0.02851	0.00024
323.15	0.03213	0.00027

System: 1,2-dichloroethane + .alpha.,5,5-trimethyl-.alpha.-phenyl-1,3,2-dioxaphosphorinane-2-methanol 2-oxide (DMPO); phases: Liquid, Crystal
Fixed: Pressure, kPa = 100
Property: Mole fraction of .alpha.,5,5-trimethyl-.alpha.-phenyl-1,3,2-dioxaphosphorinane-2-methanol 2-oxide (DMPO) (Liquid); method: gravimetric
Temperature, K	Mole fraction of .alpha.,5,5-trimethyl-.alpha.-phenyl-1,3,2-dioxaphosphorinane-2-methanol 2-oxide (DMPO)	uncertainty
278.35	0.00107	7e-05
283.25	0.00117	7e-05
288.45	0.00154	0.0001
293.35	0.00171	0.00011
298.25	0.00218	0.00014
303.15	0.00258	0.00016
308.25	0.00291	0.00019
313.15	0.00359	0.00023
318.05	0.00454	0.00029
322.95	0.00542	0.00035
328.15	0.00651	0.00042
333.25	0.00803	0.00051
338.15	0.00933	0.00059

System: ethanol + .alpha.,5,5-trimethyl-.alpha.-phenyl-1,3,2-dioxaphosphorinane-2-methanol 2-oxide (DMPO); phases: Liquid, Crystal
Fixed: Pressure, kPa = 100
Property: Mole fraction of .alpha.,5,5-trimethyl-.alpha.-phenyl-1,3,2-dioxaphosphorinane-2-methanol 2-oxide (DMPO) (Liquid); method: gravimetric
Temperature, K	Mole fraction of .alpha.,5,5-trimethyl-.alpha.-phenyl-1,3,2-dioxaphosphorinane-2-methanol 2-oxide (DMPO)	uncertainty
278.45	0.00558	5e-05
283.25	0.00618	5e-05
288.15	0.0068	6e-05
293.25	0.00786	7e-05
298.35	0.00933	8e-05
303.05	0.01055	9e-05
307.95	0.01254	0.00011
313.05	0.01402	0.00012
318.15	0.01687	0.00015
323.05	0.01947	0.00018
327.95	0.02387	0.00022
333.15	0.02926	0.00026
338.05	0.03267	0.00028
343.15	0.03738	0.00032
