Measured thermophysical data. Isobaric Vapor Liquid Equilibrium for Two Binary Systems{Propane-1,2-diol + Ethane-1,2-diol and Propane-1,2-diol + Butane-1,2-diol} at p = (10.0, 20.0, and 40.0) kPa
Source: J. Chem. Eng. Data, 2015, 10.1021/je5010824
Compound 1: 1,2-ethanediol, C2H6O2, InChI=1S/C2H6O2/c3-1-2-4/h3-4H,1-2H2, purity 99.8%
Compound 2: 1,2-propanediol, C3H8O2, InChI=1S/C3H8O2/c1-3(5)2-4/h3-5H,2H2,1H3, purity 99%
Compound 3: 1,2-butanediol, C4H10O2, InChI=1S/C4H10O2/c1-2-4(6)3-5/h4-6H,2-3H2,1H3, purity 98%

System: 1,2-ethanediol; phases: Liquid
Property: Mass density, kg/m3 (Liquid); method: Vibrating tube method
Temperature, K	Pressure, kPa	Mass density, kg/m3	uncertainty
298.15	101.325	1109.82	0.12

System: 1,2-ethanediol; phases: Liquid
Property: Refractive index (Na D-line) (Liquid); method: Standard Abbe refractometry
Temperature, K	Pressure, kPa	Refractive index (Na D-line)	uncertainty
298.15	101.325	1.431	0.0007

System: 1,2-ethanediol; phases: Liquid, Gas
Property: Vapor or sublimation pressure, kPa (Liquid); method: Ebulliometric method (Recirculating still)
Temperature, K	Vapor or sublimation pressure, kPa	uncertainty
406.1	10	0.335
423.29	20	0.49
442.17	40	0.86
470.4	101.3	2

System: 1,2-propanediol; phases: Liquid
Property: Mass density, kg/m3 (Liquid); method: Vibrating tube method
Temperature, K	Pressure, kPa	Mass density, kg/m3	uncertainty
298.15	101.325	1031.9	0.33

System: 1,2-propanediol; phases: Liquid
Property: Refractive index (Na D-line) (Liquid); method: Standard Abbe refractometry
Temperature, K	Pressure, kPa	Refractive index (Na D-line)	uncertainty
298.15	101.325	1.432	0.0008

System: 1,2-propanediol; phases: Liquid, Gas
Property: Vapor or sublimation pressure, kPa (Liquid); method: Ebulliometric method (Recirculating still)
Temperature, K	Vapor or sublimation pressure, kPa	uncertainty
398.25	10	0.325
414.88	20	0.48
433.22	40	0.86
398.26	10	0.325
460.69	101.3	2

System: 1,2-butanediol; phases: Liquid
Property: Mass density, kg/m3 (Liquid); method: Vibrating tube method
Temperature, K	Pressure, kPa	Mass density, kg/m3	uncertainty
298.15	101.325	998.78	1.08

System: 1,2-butanediol; phases: Liquid
Property: Refractive index (Na D-line) (Liquid); method: Standard Abbe refractometry
Temperature, K	Pressure, kPa	Refractive index (Na D-line)	uncertainty
298.15	101.325	1.4378	0.0008

System: 1,2-butanediol; phases: Liquid, Gas
Property: Vapor or sublimation pressure, kPa (Liquid); method: Ebulliometric method (Recirculating still)
Temperature, K	Vapor or sublimation pressure, kPa	uncertainty
392.06	5.62	0.27
397.24	7.21	0.27
402.31	8.86	0.27
432.29	29.56	0.34
437.41	35.54	0.36
442.77	41.92	0.4
406.54	10.62	0.28
412.23	13.56	0.28
417.66	16.89	0.29
422.48	20.34	0.31
427.21	24.45	0.32
447.52	50.54	0.46
452.13	58.86	0.48
457.24	69.36	0.53
462.57	81.92	0.58
466.64	92.78	0.62
405.41	10	0.33
422.15	20	0.4
440.83	40	0.62
469.71	101.3	2

System: 1,2-propanediol + 1,2-ethanediol; phases: Liquid, Gas
Property: Boiling temperature at pressure P, K (Liquid); method: Ebulliometric method (Recirculating still)
Mole fraction of 1,2-propanediol	Pressure, kPa	Boiling temperature at pressure P, K	uncertainty
1	10	398.25	0.65
0.939	10	398.46	0.66
0.859	10	398.79	0.66
0.768	10	399.27	0.66
0.662	10	399.86	0.66
0.596	10	400.31	0.66
0.452	10	401.23	0.66
0.339	10	402.02	0.66
0.28	10	402.57	0.67
0.156	10	403.82	0.67
0.075	10	404.83	0.67
0	10	406.1	0.67
1	20	414.88	0.48
0.976	20	415.05	0.47
0.854	20	415.62	0.47
0.732	20	416.19	0.47
0.577	20	417.08	0.47
0.476	20	417.82	0.47
0.349	20	418.87	0.47
0.223	20	420.12	0.47
0.151	20	421.01	0.49
0.079	20	422.02	0.48
0	20	423.29	0.49
1	40	433.22	0.43
0.928	40	433.64	0.43
0.796	40	434.27	0.43
0.699	40	434.77	0.43
0.629	40	435.14	0.43
0.561	40	435.54	0.43
0.468	40	436.19	0.43
0.417	40	436.59	0.43
0.308	40	437.53	0.43
0.205	40	438.61	0.43
0.091	40	440.14	0.43
0.051	40	440.91	0.43
0	40	442.17	0.43

System: 1,2-propanediol + 1,2-ethanediol; phases: Gas, Liquid
Property: Mole fraction of 1,2-propanediol (Gas); method: Chromatography
Mole fraction of 1,2-propanediol	Pressure, kPa	Mole fraction of 1,2-propanediol	uncertainty
1	10	1	
0.939	10	0.945	0.011
0.859	10	0.883	0.011
0.768	10	0.81	0.011
0.662	10	0.728	0.011
0.596	10	0.667	0.011
0.452	10	0.543	0.012
0.339	10	0.434	0.012
0.28	10	0.364	0.011
0.156	10	0.227	0.011
0.075	10	0.12	0.012
0	10	0	
1	20	1	
0.976	20	0.978	0.01
0.854	20	0.884	0.011
0.732	20	0.785	0.011
0.577	20	0.648	0.011
0.476	20	0.551	0.012
0.349	20	0.436	0.011
0.223	20	0.299	0.011
0.151	20	0.212	0.011
0.079	20	0.115	0.012
0	20	0	
1	40	1	
0.928	40	0.933	0.011
0.796	40	0.825	0.011
0.699	40	0.747	0.011
0.629	40	0.693	0.011
0.561	40	0.632	0.011
0.468	40	0.543	0.012
0.417	40	0.497	0.012
0.308	40	0.392	0.011
0.205	40	0.284	0.011
0.091	40	0.145	0.011
0.051	40	0.084	0.012
0	40	0	

System: 1,2-propanediol + 1,2-butanediol; phases: Liquid, Gas
Property: Boiling temperature at pressure P, K (Liquid); method: Ebulliometric method (Recirculating still)
Mole fraction of 1,2-propanediol	Pressure, kPa	Boiling temperature at pressure P, K	uncertainty
1	10	398.26	0.65
0.942	10	398.55	0.65
0.832	10	399.14	0.65
0.757	10	399.51	0.65
0.667	10	399.92	0.66
0.57	10	400.37	0.66
0.436	10	401.06	0.67
0.291	10	401.89	0.67
0.179	10	402.78	0.68
0.107	10	403.58	0.68
0.02	10	404.96	0.68
0	10	405.41	0.66
1	20	414.88	0.48
0.969	20	415.01	0.47
0.846	20	415.62	0.46
0.751	20	416.09	0.45
0.625	20	416.82	0.45
0.564	20	417.17	0.45
0.469	20	417.78	0.44
0.344	20	418.67	0.42
0.282	20	419.16	0.42
0.157	20	420.31	0.41
0.032	20	421.73	0.4
0	20	422.15	0.4
1	40	433.22	0.43
0.953	40	433.53	0.43
0.848	40	434.14	0.42
0.695	40	434.97	0.41
0.66	40	435.17	0.4
0.56	40	435.79	0.39
0.404	40	436.82	0.37
0.339	40	437.27	0.37
0.235	40	438.12	0.36
0.112	40	439.42	0.34
0.011	40	440.68	0.31
0	40	440.83	0.31

System: 1,2-propanediol + 1,2-butanediol; phases: Gas, Liquid
Property: Mole fraction of 1,2-propanediol (Gas); method: Chromatography
Mole fraction of 1,2-propanediol	Pressure, kPa	Mole fraction of 1,2-propanediol	uncertainty
1	10	1	
0.942	10	0.954	0.011
0.832	10	0.859	0.011
0.757	10	0.798	0.011
0.667	10	0.721	0.011
0.57	10	0.637	0.012
0.436	10	0.511	0.013
0.291	10	0.373	0.012
0.179	10	0.254	0.011
0.107	10	0.164	0.012
0.02	10	0.031	0.012
0	10	0	
1	20	1	
0.969	20	0.974	0.011
0.846	20	0.873	0.011
0.751	20	0.792	0.011
0.625	20	0.683	0.012
0.564	20	0.628	0.012
0.469	20	0.541	0.013
0.344	20	0.419	0.012
0.282	20	0.354	0.012
0.157	20	0.213	0.011
0.032	20	0.048	0.011
0	20	0	
1	40	1	
0.953	40	0.962	0.011
0.848	40	0.869	0.011
0.695	40	0.737	0.011
0.66	40	0.706	0.012
0.56	40	0.615	0.012
0.404	40	0.467	0.012
0.339	40	0.404	0.012
0.235	40	0.297	0.011
0.112	40	0.159	0.011
0.011	40	0.02	0.01
0	40	0	
