Measured thermophysical data. Design of a Gamma Densitometer for Hydrocarbon Fuel at High Temperature and Supercritical Pressure
Source: J. Chem. Eng. Data, 2014, 10.1021/je500314x
Compound 1: water, H2O, InChI=1S/H2O/h1H2, purity 99.95%
Compound 2: nitrogen, N2, InChI=1S/N2/c1-2, purity 99.8%
Compound 3: cyclohexane, C6H12, InChI=1S/C6H12/c1-2-4-6-5-3-1/h1-6H2, purity 99.5%
Compound 4: heptane, C7H16, InChI=1S/C7H16/c1-3-5-7-6-4-2/h3-7H2,1-2H3, purity 99.5%
Compound 5: octane, C8H18, InChI=1S/C8H18/c1-3-5-7-8-6-4-2/h3-8H2,1-2H3, purity 99.5%

System: water; phases: Liquid
Property: Mass density, kg/m3 (Liquid); method: gamma densitometer
Pressure, kPa	Temperature, K	Mass density, kg/m3	uncertainty
5000	288.3	1001.4	3.3
5000	303.5	996.5	3.2
5000	324.8	990.7	3.3
5000	344.3	981.8	4.1
5000	358.6	966.8	4.6
5000	372.3	957.1	4.3
5000	384	947	4.6
5000	393.6	938.5	4.2
5000	403.8	932.6	4.3
5000	414.2	923	4.7
5000	423.2	915.2	5.2
5000	432.8	903.3	5.3
5000	442.7	893.8	4.9
5000	452.6	884.3	4.6
5000	462	876.7	4.7
5000	474.3	864.5	5
5000	484.1	854.6	6.5
5000	491.4	839.5	7
5000	502.5	824.9	6
5000	511	814.1	5.9
3000	286	1000.7	3.1
3000	305	996.2	3.3
3000	322.6	988.4	3.6
3000	343.4	977.7	3.8
3000	356.4	969	3.6
3000	374.7	962.3	4.1
3000	391.2	945	4.7
3000	412.5	927.7	4.3
3000	423.8	920.4	4.9
3000	442.5	899.6	5.1
3000	462.5	880.9	4.7
3000	471.4	873.1	5.2
3000	483.9	858.3	6.6
3000	492.5	841.7	8
3000	500.4	827.9	7.6

System: nitrogen; phases: Gas
Property: Mass density, kg/m3 (Gas); method: gamma densitometer
Pressure, kPa	Temperature, K	Mass density, kg/m3	uncertainty
6000	293.2	69.11	1.51
5600	293.2	62.2	1.5
5100	293.2	58.28	1.57
4600	293.2	53.49	1.56
4100	293.2	46.43	1.56
3600	293.2	40.54	1.55
3100	293.2	33.96	1.53
2600	293.2	27.88	1.53
2100	293.2	23.64	1.51
1600	293.2	17.77	1.51
1100	293.2	11.22	1.5
4000	473.2	27.65	1.55
3100	473.2	21.05	1.53
2100	473.2	14.69	1.51
1600	473.2	11.8	1.51
1000	473.2	8	1.5
600	473.2	3.79	1.5
100	473.2	0.68	1.5
600	293.2	7.36	1.5
100	293.2	1.15	1.503

System: cyclohexane; phases: Fluid (supercritical or subcritical phases)
Fixed: Pressure, kPa = 5000
Property: Mass density, kg/m3 (Fluid (supercritical or subcritical phases)); method: gamma densitometer
Temperature, K	Mass density, kg/m3	uncertainty
287	788.3	5.7
305.9	763.7	4.5
324.9	752.1	3.7
351	731.8	4.4
375	704.3	4.7
394.8	686.7	4.3
416.6	666.5	4.9
431.9	646.2	5.7
452.4	620.2	5.2
475.1	595.5	5.6
488.4	573.5	7.1
504.4	546.3	7.5
513.9	527.5	8.2
522.6	510.3	9.3
531.9	487	11.2
543	454.5	11.7
553.2	426.2	18.9
561.7	365.6	35.6
572.1	259.5	31.6
584.2	187	18.7
592.5	167	8
603.6	149.3	5.6
618.8	133	4.6
635	118.3	3.5
654.2	109.8	3.3
672.3	96.5	3.2
687.5	92	2.5
698.5	89.9	2.4

System: octane + heptane; phases: Liquid
Property: Mass density, kg/m3 (Liquid); method: gamma densitometer
Mass fraction of heptane	Pressure, kPa	Temperature, K	Mass density, kg/m3	uncertainty
0.5	5100	303.1	686.2	3.9
0.5	5100	313.3	678.1	3.9
0.5	5100	323	670	3.8
0.5	5100	332.7	663.3	3.7
0.5	5100	344.1	655.9	3.9
0.5	5100	353.2	645.5	3.9
0.5	5100	362.9	638.9	3.8
0.5	5100	372.3	632.3	3.8
0.5	5100	383.2	623.2	3.9
0.5	5100	393	611.8	3.9
0.5	5100	405.1	604.3	4
0.5	5100	413.8	592.5	4.7
0.5	5100	424.2	584.4	4.5
0.5	5100	433.2	573.5	5.5
0.5	5100	443	560.6	4.4
0.5	5100	453.1	554.4	3.8
0.5	5100	464.5	545.2	4.8
0.5	5100	473.6	531.6	4.8
0.5	5100	484.2	524	5.3
0.5	5100	492.8	508	6.3
0.5	5100	503.1	495.9	5.3
0.5	5100	513.2	483.6	5.4
0.5	5100	522.4	470.1	7.2
0.5	5100	533	451.2	6.6
0.5	5100	543.3	437.7	7.5
0.5	5100	553	415.1	8.9
0.5	5100	563.5	394	7.9
0.5	5100	575.1	372.9	9.2
0.5	5100	583.8	348.2	13.5
0.5	5100	591.2	319	15.9
0.255	3300	374.7	633.2	4.2
0.255	8000	374.8	640.4	4.2
0.255	3500	429.4	584	4.2
0.255	8300	429.4	592.3	4.4
0.255	4400	475.8	538.4	5.8
0.255	8500	475.9	554.4	4.4
0.255	4700	525.5	473.6	5.8
0.255	7300	525.5	493.5	4.9
0.255	5300	557.2	427.1	6.3
0.255	8200	557.2	460.9	4.9
0.51	3200	380.5	619.9	4.2
0.51	8700	380.5	631.1	4.2
0.51	4900	424.4	582.4	4.8
0.51	7200	424.5	588	4.2
0.51	3200	466.6	535.5	4.2
0.51	8600	466.7	554.2	4.7
0.51	4900	518	479.1	5.4
0.51	7500	518	494.8	4.6
0.51	5400	549.3	427.9	6.9
0.51	8700	549.4	461.2	5.5
