Measured thermophysical data. Solid Liquid Phase Equilibria in the Ternary Systems (LiCl + MgCl2 + H2O) and (Li2SO4 + MgSO4 + H2O) at 288.15 K
Source: J. Chem. Eng. Data, 2015, 10.1021/je500946w
Compound 1: magnesium sulfate, MgO4S, InChI=1S/Mg.H2O4S/c;1-5(2,3)4/h;(H2,1,2,3,4)/q+2;/p-2, purity 0.995%
Compound 2: magnesium chloride, Cl2Mg, InChI=1S/2ClH.Mg/h2*1H;/q;;+2/p-2, purity 0.992%
Compound 3: lithium chloride, ClLi, InChI=1S/ClH.Li/h1H;/q;+1/p-1, purity 0.99%
Compound 4: lithium sulfate, Li2O4S, InChI=1S/2Li.H2O4S/c;;1-5(2,3)4/h;;(H2,1,2,3,4)/q2*+1;/p-2, purity 0.991%
Compound 5: water, H2O, InChI=1S/H2O/h1H2, purity 99.8%

System: lithium chloride + water + magnesium chloride; phases: Liquid, Crystal of intercomponent compound 1
Fixed: Temperature, K = 288.15
Fixed: Pressure, kPa = 100
Property: Mass fraction of magnesium chloride (Liquid); method: gravimetric
Mass fraction of lithium chloride	Mass fraction of magnesium chloride	uncertainty
0.4395	0	
0.408	0.0345	0.0108
0.3979	0.0498	0.0121
0.3991	0.0502	0.0133

System: lithium chloride + water + magnesium chloride; phases: Liquid, Crystal of intercomponent compound 2
Fixed: Temperature, K = 288.15
Fixed: Pressure, kPa = 100
Property: Mass fraction of magnesium chloride (Liquid); method: gravimetric
Mass fraction of lithium chloride	Mass fraction of magnesium chloride	uncertainty
0.3805	0.0615	0.0089
0.3786	0.0639	0.0088
0.3453	0.0842	0.0089
0.3401	0.0862	0.0088
0.3267	0.0972	0.0094
0.3173	0.1046	0.0093

System: lithium chloride + water + magnesium chloride; phases: Liquid, Crystal of intercomponent compound 3
Fixed: Temperature, K = 288.15
Fixed: Pressure, kPa = 100
Property: Mass fraction of magnesium chloride (Liquid); method: gravimetric
Mass fraction of lithium chloride	Mass fraction of magnesium chloride	uncertainty
0.2381	0.161	0.009
0.194	0.1928	0.0091
0.144	0.2288	0.0092
0.0968	0.2668	0.0095
0.002	0.3501	0.0082
0	0.3522	0.008

System: lithium chloride + water + magnesium chloride; phases: Liquid, Crystal of intercomponent compound 1, Crystal of intercomponent compound 2
Property: Mass fraction of lithium chloride (Liquid); method: gravimetric
Temperature, K	Pressure, kPa	Mass fraction of lithium chloride	uncertainty
288.15	100	0.3982	0.0061

System: lithium chloride + water + magnesium chloride; phases: Liquid, Crystal of intercomponent compound 2, Crystal of intercomponent compound 3
Property: Mass fraction of lithium chloride (Liquid); method: gravimetric
Temperature, K	Pressure, kPa	Mass fraction of lithium chloride	uncertainty
288.15	100	0.2714	0.006

System: lithium chloride + water + magnesium chloride; phases: Liquid, Crystal of intercomponent compound 1, Crystal of intercomponent compound 2
Property: Mass fraction of magnesium chloride (Liquid); method: gravimetric
Temperature, K	Pressure, kPa	Mass fraction of magnesium chloride	uncertainty
288.15	100	0.0529	0.008

System: lithium chloride + water + magnesium chloride; phases: Liquid, Crystal of intercomponent compound 2, Crystal of intercomponent compound 3
Property: Mass fraction of magnesium chloride (Liquid); method: gravimetric
Temperature, K	Pressure, kPa	Mass fraction of magnesium chloride	uncertainty
288.15	100	0.1434	0.008

System: lithium chloride + water + magnesium chloride; phases: Liquid
Fixed: Pressure, kPa = 100
Fixed: Temperature, K = 288.15
Property: Mass density, kg/m3 (Liquid); method: Vibrating tube method
Mass fraction of lithium chloride	Mass fraction of magnesium chloride	Mass density, kg/m3	uncertainty
0.4395	0	1287	1921.2
0.408	0.0345	1297.8	2001.2
0.3979	0.0498	1307.4	2117.3
0.3991	0.0502	1310.7	2155.5
0.3982	0.0529	1312.7	2193.4
0.3805	0.0615	1309.2	2028.4
0.3786	0.0639	1308.8	2035.3
0.3453	0.0842	1305.7	1824.4
0.3173	0.1046	1306.7	1718.1
0.2714	0.1434	1310.4	1630.8
0.2381	0.161	1306.6	1425.4
0.194	0.1928	1307.8	1289.3
0.144	0.2288	1310.6	1151
0.0968	0.2668	1315.3	1071.9
0.002	0.3501	1332	995.5
0	0.3522	1333.9	999.2

System: magnesium sulfate + water + lithium sulfate; phases: Liquid, Crystal of intercomponent compound 1
Fixed: Pressure, kPa = 100
Fixed: Temperature, K = 288.15
Property: Mass fraction of magnesium sulfate (Liquid); method: gravimetric
Mass fraction of lithium sulfate	Mass fraction of magnesium sulfate	uncertainty
0.2598	0	
0.2517	0.0141	0.0141
0.2469	0.021	0.021
0.2406	0.0285	0.0285
0.2325	0.0379	0.0318
0.2288	0.0443	0.0318
0.2157	0.0718	0.0316
0.1972	0.0966	0.0315
0.1918	0.1113	0.0315
0.1727	0.1407	0.0314

System: magnesium sulfate + water + lithium sulfate; phases: Liquid, Crystal of intercomponent compound 2
Fixed: Pressure, kPa = 100
Fixed: Temperature, K = 288.15
Property: Mass fraction of magnesium sulfate (Liquid); method: gravimetric
Mass fraction of lithium sulfate	Mass fraction of magnesium sulfate	uncertainty
0.1677	0.1493	0.0301
0.1487	0.1578	0.0301
0.1323	0.1633	0.0302
0.0713	0.1967	0.0302
0.0461	0.2103	0.0303
0.0243	0.2271	0.0304
0	0.2462	0.03

System: magnesium sulfate + water + lithium sulfate; phases: Liquid, Crystal of intercomponent compound 1, Crystal of intercomponent compound 2
Property: Mass fraction of lithium sulfate (Liquid); method: gravimetric
Temperature, K	Pressure, kPa	Mass fraction of lithium sulfate	uncertainty
288.15	100	0.1664	0.006

System: magnesium sulfate + water + lithium sulfate; phases: Liquid, Crystal of intercomponent compound 1, Crystal of intercomponent compound 2
Property: Mass fraction of magnesium sulfate (Liquid); method: gravimetric
Temperature, K	Pressure, kPa	Mass fraction of magnesium sulfate	uncertainty
288.15	100	0.1493	0.03

System: magnesium sulfate + water + lithium sulfate; phases: Liquid
Fixed: Pressure, kPa = 100
Fixed: Temperature, K = 288.15
Property: Mass density, kg/m3 (Liquid); method: Vibrating tube method
Mass fraction of lithium sulfate	Mass fraction of magnesium sulfate	Mass density, kg/m3	uncertainty
0.2598	0	1237.6	466.6
0.2517	0.0141	1246.1	503
0.2469	0.021	1248	518
0.2406	0.0285	1251.7	524.9
0.2325	0.0379	1258.3	537.3
0.2288	0.0443	1262.6	555.8
0.2157	0.0718	1278.1	656
0.1972	0.0966	1294.3	715.5
0.1918	0.1113	1304.2	793.2
0.1727	0.1407	1322.3	897.3
0.1664	0.1493	1332.8	931.1
0.1677	0.1493	1328.4	935.9
0.1487	0.1578	1318.5	837
0.1323	0.1633	1313.1	748.7
0.0713	0.1967	1291	554
0.0461	0.2103	1280.9	484.2
0.0243	0.2271	1276.8	458.3
0	0.2462	1269.1	433.1
