Measured thermophysical data. Density of 1-Butyl-3-methylimidazolium Bis(trifluoromethanesulfonyl)amide and 1-Hexyl-3-methylimidazolium Bis(trifluoromethanesulfonyl)amide over an Extended Pressure Range up to 250 MPa
Source: J. Chem. Eng. Data, 2015, 10.1021/je501118w
Compound 1: 1-butyl-3-methylimidazolium bis(trifluoromethylsulfonyl)imide, C10H15F6N3O4S2, InChI=1S/C8H15N2.C2F6NO4S2/c1-3-4-5-10-7-6-9(2)8-10;3-1(4,5)14(10,11)9-15(12,13)2(6,7)8/h6-8H,3-5H2,1-2H3;/q+1;-1, purity 99%
Compound 2: 1-hexyl-3-methylimidazolium bis[(trifluoromethyl)sulfonyl]imide, C12H19F6N3O4S2, InChI=1S/C10H19N2.C2F6NO4S2/c1-3-4-5-6-7-12-9-8-11(2)10-12;3-1(4,5)14(10,11)9-15(12,13)2(6,7)8/h8-10H,3-7H2,1-2H3;/q+1;-1, purity 99%

System: 1-butyl-3-methylimidazolium bis(trifluoromethylsulfonyl)imide; phases: Liquid
Fixed: Pressure, kPa = 100
Property: Mass density, kg/m3 (Liquid); method: Vibrating tube method
Temperature, K	Mass density, kg/m3	uncertainty
273.15	1460.67	0.83
278.15	1455.84	0.83
283.15	1451.04	0.83
288.15	1446.23	0.82
323.15	1412.87	0.8
323.15	1412.85	0.8
293.15	1441.43	0.82
293.15	1441.42	0.82
298.15	1436.64	0.82
298.15	1436.6	0.82
333.15	1403.48	0.8
343.15	1394.15	0.79
303.15	1431.86	0.82
313.15	1422.34	0.81
353.15	1384.88	0.79
363.15	1375.67	0.78

System: 1-butyl-3-methylimidazolium bis(trifluoromethylsulfonyl)imide; phases: Liquid
Property: Mass density, kg/m3 (Liquid); method: Vibrating tube method
Temperature, K	Pressure, kPa	Mass density, kg/m3	uncertainty
288.15	10320	1453.8	3.1
288.15	15130	1457.1	3.1
288.15	20090	1460.4	3.1
288.15	24820	1463.6	3.2
288.15	25120	1463.3	3.2
288.15	30620	1467.3	3.2
288.15	39770	1473	3.3
288.15	49640	1478.8	3.3
288.15	50970	1479.2	3.3
288.15	76000	1493.8	3.6
288.16	99600	1506	3.8
288.15	100500	1506	3.9
288.15	124500	1517.8	4.2
288.15	150400	1528.9	4.6
288.15	151000	1529.4	4.6
288.15	175100	1539.3	5
288.15	199900	1548.8	5.4
323.16	10250	1420.7	3.1
323.15	15150	1424.4	3.1
323.16	20180	1428.1	3.1
323.15	24310	1431.5	3.1
323.15	24670	1431.2	3.1
323.15	30100	1435.1	3.2
323.15	39780	1441.8	3.2
323.15	49910	1448.4	3.3
323.15	50470	1449.4	3.3
323.15	75400	1463.9	3.5
323.15	99600	1478.1	3.8
323.15	100500	1478	3.8
323.15	124700	1490.3	4.1
323.15	149600	1502.1	4.5
323.15	149600	1502.8	4.5
323.15	174600	1513	4.8
323.15	200000	1524.7	5.3
323.16	201000	1524.3	5.3
323.15	225000	1533.7	5.7
323.15	251500	1543	6.3
298.15	9760	1444.2	3.1
298.15	15200	1448.1	3.1
298.16	20120	1451.5	3.1
298.15	24770	1454.6	3.2
298.15	24930	1454.4	3.2
298.16	30400	1458.4	3.2
298.15	39560	1464.3	3.2
298.16	50110	1470.9	3.3
298.15	50280	1470.6	3.3
298.16	75200	1485.4	3.6
298.16	100200	1498.6	3.9
298.15	100700	1498.7	3.8
298.15	124500	1510.5	4.2
298.16	150100	1522.3	4.6
298.15	150300	1522.1	4.6
298.15	174400	1532.5	5
298.15	200400	1543.2	5.4
298.15	200400	1542.9	5.4
298.16	225500	1553	5.9
298.15	249600	1561.5	6.4
348.15	10050	1397.8	3.1
348.15	15200	1402	3.1
348.15	20220	1405.9	3.1
348.15	24790	1410.4	3.1
348.15	24830	1409.3	3.1
348.15	30300	1413.4	3.2
348.15	39980	1420.5	3.2
348.15	49890	1427.3	3.3
348.15	50730	1429.7	3.3
348.15	75400	1443.5	3.5
348.15	100300	1460.9	3.8
348.15	100500	1458.5	3.8
348.15	125100	1471.9	4
348.15	150000	1484.2	6.5
348.15	150500	1487.2	6.5
348.15	174700	1495.6	4.8
348.15	199200	1509.2	5.4
348.15	200600	1506.6	5.4
348.15	225700	1517	5.6
348.15	250700	1526.9	6.1

System: 1-hexyl-3-methylimidazolium bis[(trifluoromethyl)sulfonyl]imide; phases: Liquid
Property: Mass density, kg/m3 (Liquid); method: Vibrating tube method
Temperature, K	Pressure, kPa	Mass density, kg/m3	uncertainty
288.15	14950	1393.3	3.1
288.15	20180	1396.8	3.1
288.15	25080	1400	3.1
288.15	30100	1403.2	3.1
288.15	40120	1409.5	3.2
288.15	49940	1415.3	3.3
288.15	75500	1429.5	3.5
288.16	100000	1442.2	3.7
288.15	124700	1453.9	4
288.16	150500	1465	4.3
288.15	174600	1474.9	4.6

System: 1-hexyl-3-methylimidazolium bis[(trifluoromethyl)sulfonyl]imide; phases: Liquid
Fixed: Pressure, kPa = 101.325
Property: Mass density, kg/m3 (Liquid); method: Vibrating tube method
Temperature, K	Mass density, kg/m3	uncertainty
273.15	1395.63	0.8
278.15	1390.93	0.79
283.15	1386.23	0.79
288.15	1381.54	0.79
293.15	1376.88	0.79
293.15	1376.86	0.79
298.15	1372.22	0.78
303.15	1367.61	0.78
313.15	1358.44	0.78
323.15	1349.35	0.77
333.15	1340.33	0.77
343.15	1331.36	0.76
353.15	1322.46	0.76
363.15	1313.62	0.75
273.15	1395.14	0.8
278.15	1390.37	0.79
283.15	1385.72	0.79
288.15	1381.16	0.79
293.15	1376.59	0.79
298.15	1372.04	0.78
298.15	1372.07	0.78
303.15	1367.48	0.78
313.15	1358.37	0.78
323.15	1349.3	0.77
333.15	1340.27	0.77
343.15	1331.29	0.76
353.15	1322.34	0.76
363.15	1313.44	0.75
273.15	1395.28	0.8
283.15	1385.89	0.79
293.15	1376.75	0.79
298.15	1372.17	0.78
303.15	1367.61	0.78
313.15	1358.51	0.78
323.15	1349.43	0.77
333.15	1340.4	0.77
343.15	1331.38	0.76
353.15	1322.43	0.76
363.15	1313.52	0.75
