Measured thermophysical data. Isothermal Vapor Liquid Equilibrium Data and Thermodynamic Modeling for Binary Systems of Perfluorobutane (R610) + (Methane or Hydrogen Sulfide) at (293, 313, and 333) K
Source: J. Chem. Eng. Data, 2014, 10.1021/je500496y
Compound 1: decafluorobutane, C4F10, InChI=1S/C4F10/c5-1(6,3(9,10)11)2(7,8)4(12,13)14
Compound 2: methane, CH4, InChI=1S/CH4/h1H4
Compound 3: hydrogen sulfide, H2S, InChI=1S/H2S/h1H2

System: methane + decafluorobutane; phases: Liquid, Gas
Property: Vapor or sublimation pressure, kPa (Liquid); method: Closed cell (Static) method
Mole fraction of methane	Temperature, K	Vapor or sublimation pressure, kPa	uncertainty
0.012	293.05	473	254
0.085	293.05	2015	263
0.181	293.05	3988	246
0.307	293.05	6587	218
0.393	293.05	8058	219
0.234	293.05	5188	247
0.123	293.05	2914	245
0.434	293.05	8901	202
0.552	293.05	10276	114
0.606	293.05	10655	92
0.483	293.05	9562	143
0.029	313.09	1052	285
0.061	313.09	1853	300
0.092	313.09	2687	285
0.149	313.09	3924	262
0.191	313.09	4788	259
0.226	313.09	5603	254
0.268	313.09	6459	253
0.318	313.09	7447	221
0.379	313.09	8432	164
0.467	313.09	9446	126
0.519	313.09	9837	97
0.355	332.97	7753	146
0.029	332.97	1321	290
0.064	332.97	2168	281
0.094	332.97	2839	267
0.133	332.97	3704	273
0.169	332.97	4541	275
0.203	332.97	5301	254
0.239	332.97	6017	229
0.279	332.97	6743	213
0.316	332.97	7368	162
0.435	332.97	8466	79
0.38	332.97	8138	106

System: methane + decafluorobutane; phases: Gas, Liquid
Property: Mole fraction of methane (Gas); method: Chromatography
Mole fraction of methane	Temperature, K	Mole fraction of methane	uncertainty
0.012	293.05	0.423	0.064
0.085	293.05	0.803	0.05
0.181	293.05	0.867	0.012
0.307	293.05	0.875	0.012
0.393	293.05	0.858	0.012
0.234	293.05	0.875	0.012
0.123	293.05	0.847	0.014
0.434	293.05	0.846	0.013
0.552	293.05	0.804	0.014
0.606	293.05	0.773	0.014
0.483	293.05	0.834	0.013
0.029	313.09	0.467	0.073
0.061	313.09	0.626	0.046
0.092	313.09	0.699	0.021
0.149	313.09	0.754	0.015
0.191	313.09	0.767	0.013
0.226	313.09	0.774	0.012
0.268	313.09	0.775	0.012
0.318	313.09	0.768	0.012
0.379	313.09	0.749	0.013
0.467	313.09	0.706	0.014
0.519	313.09	0.665	0.016
0.355	332.97	0.619	0.014
0.029	332.97	0.336	0.057
0.064	332.97	0.499	0.044
0.094	332.97	0.563	0.024
0.133	332.97	0.618	0.017
0.169	332.97	0.635	0.014
0.203	332.97	0.646	0.013
0.239	332.97	0.648	0.013
0.279	332.97	0.645	0.013
0.316	332.97	0.634	0.013
0.435	332.97	0.547	0.017
0.38	332.97	0.597	0.017

System: decafluorobutane + hydrogen sulfide; phases: Liquid, Gas
Property: Vapor or sublimation pressure, kPa (Liquid); method: Closed cell (Static) method
Mole fraction of hydrogen sulfide	Temperature, K	Vapor or sublimation pressure, kPa	uncertainty
0.027	293.08	394	70
0.051	293.08	533	63
0.081	293.08	679	63
0.108	293.08	834	69
0.131	293.08	965	57
0.168	293.08	1119	49
0.213	293.08	1301	46
0.249	293.08	1426	39
0.319	293.08	1639	29
0.57	293.08	2010	11
0.433	293.08	1863	19
0.683	293.08	2014	8
0.718	293.08	2015	8
0.97	293.08	2014	62
0.997	293.08	1844	29
0.991	293.08	1906	47
0.982	293.08	1987	115
0.043	313	721	84
0.069	313	923	90
0.095	313	1112	83
0.13	313	1343	87
0.159	313	1553	77
0.196	313	1769	67
0.268	313	2153	54
0.355	313	2481	37
0.507	313	2899	28
0.672	313	3155	21
0.76	313	3202	12
0.996	313	2958	18
0.957	313	3222	36
0.952	313	3228	35
0.93	313	3242	14
0.931	313	3239	12
0.052	333.03	1163	108
0.088	333.03	1487	102
0.149	333.03	1989	93
0.215	333.03	2464	82
0.284	333.03	2907	76
0.349	333.03	3303	64
0.479	333.03	3931	56
0.554	333.03	4203	41
0.771	333.03	4769	23
0.692	333.03	4602	36
0.915	333.03	4861	30
0.892	333.03	4874	18
0.976	333.03	4708	34

System: decafluorobutane + hydrogen sulfide; phases: Gas, Liquid
Property: Mole fraction of hydrogen sulfide (Gas); method: Chromatography
Mole fraction of hydrogen sulfide	Temperature, K	Mole fraction of hydrogen sulfide	uncertainty
0.027	293.08	0.396	0.081
0.051	293.08	0.555	0.056
0.081	293.08	0.644	0.034
0.108	293.08	0.706	0.028
0.131	293.08	0.747	0.019
0.168	293.08	0.78	0.015
0.213	293.08	0.81	0.014
0.249	293.08	0.819	0.013
0.319	293.08	0.84	0.012
0.57	293.08	0.879	0.012
0.433	293.08	0.859	0.012
0.683	293.08	0.884	0.012
0.718	293.08	0.894	0.013
0.97	293.08	0.891	0.032
0.997	293.08	0.972	0.018
0.991	293.08	0.943	0.025
0.982	293.08	0.907	0.053
0.043	313	0.395	0.053
0.069	313	0.508	0.043
0.095	313	0.573	0.028
0.13	313	0.635	0.023
0.159	313	0.676	0.019
0.196	313	0.715	0.016
0.268	313	0.763	0.014
0.355	313	0.796	0.013
0.507	313	0.826	0.012
0.672	313	0.853	0.012
0.76	313	0.865	0.012
0.996	313	0.981	0.015
0.957	313	0.895	0.021
0.952	313	0.89	0.021
0.93	313	0.888	0.012
0.931	313	0.883	0.013
0.052	333.03	0.324	0.039
0.088	333.03	0.435	0.03
0.149	333.03	0.547	0.022
0.215	333.03	0.625	0.017
0.284	333.03	0.675	0.015
0.349	333.03	0.714	0.013
0.479	333.03	0.748	0.013
0.554	333.03	0.768	0.013
0.771	333.03	0.841	0.013
0.692	333.03	0.807	0.013
0.915	333.03	0.89	0.014
0.892	333.03	0.878	0.014
0.976	333.03	0.933	0.015
