Measured thermophysical data. Phase Equilibrium for the Ternary System KH2PO4 + NaH2PO4 + H2O at 303.15 K
Source: J. Chem. Eng. Data, 2015, 10.1021/je5009872
Compound 1: sodium dihydrogen phosphate, H2NaO4P, InChI=1S/Na.H3O4P/c;1-5(2,3)4/h;(H3,1,2,3,4)/q+1;/p-1, purity 99%
Compound 2: water, H2O, InChI=1S/H2O/h1H2, purity 99.9%
Compound 3: monopotassium phosphate, H2KO4P, InChI=1S/K.H3O4P/c;1-5(2,3)4/h;(H3,1,2,3,4)/q+1;/p-1, purity 99.5%

System: sodium dihydrogen phosphate + water + monopotassium phosphate; phases: Liquid, Crystal of intercomponent compound 1
Fixed: Temperature, K = 303.15
Fixed: Pressure, kPa = 100
Property: Mass fraction of sodium dihydrogen phosphate (Liquid); method: Gravimetric
Mass fraction of monopotassium phosphate	Mass fraction of sodium dihydrogen phosphate	uncertainty
0	0.5315	0.02
0.0318	0.5148	0.02
0.0491	0.5074	0.02
0.0688	0.5013	0.02
0.0824	0.4922	0.02

System: sodium dihydrogen phosphate + water + monopotassium phosphate; phases: Liquid, Crystal
Fixed: Temperature, K = 303.15
Fixed: Pressure, kPa = 100
Property: Mass fraction of sodium dihydrogen phosphate (Liquid); method: Gravimetric
Mass fraction of monopotassium phosphate	Mass fraction of sodium dihydrogen phosphate	uncertainty
0.0911	0.4533	0.0882
0.0941	0.4245	0.0781
0.098	0.408	0.077
0.1063	0.3801	0.0764
0.1101	0.3475	0.0616
0.1249	0.3082	0.0759
0.1342	0.2773	0.0729
0.1415	0.2553	0.0719
0.1525	0.2084	0.0751
0.1612	0.169	0.076
0.1866	0.085	0.066
0.2021	0.0469	0.0469
0.2147	0	

System: sodium dihydrogen phosphate + water + monopotassium phosphate; phases: Liquid, Crystal of intercomponent compound 1, Crystal
Property: Mass fraction of sodium dihydrogen phosphate (Liquid); method: Gravimetric
Temperature, K	Pressure, kPa	Mass fraction of sodium dihydrogen phosphate	uncertainty
303.15	100	0.4893	0.02

System: sodium dihydrogen phosphate + water + monopotassium phosphate; phases: Liquid, Crystal of intercomponent compound 1, Crystal
Property: Mass fraction of monopotassium phosphate (Liquid); method: Gravimetric
Temperature, K	Pressure, kPa	Mass fraction of monopotassium phosphate	uncertainty
303.15	100	0.0887	0.02

System: sodium dihydrogen phosphate + water + monopotassium phosphate; phases: Liquid
Fixed: Pressure, kPa = 100
Fixed: Temperature, K = 303.15
Property: Mass density, kg/m3 (Liquid); method: Pycnometric method
Mass fraction of monopotassium phosphate	Mass fraction of sodium dihydrogen phosphate	Mass density, kg/m3	uncertainty
0	0.5315	1492	27.9
0.0318	0.5148	1502.6	38.7
0.0491	0.5074	1526.6	34.7
0.0688	0.5013	1537.7	40.1
0.0824	0.4922	1539.8	38.3
0.0887	0.4893	1541.5	37.6
0.0911	0.4533	1498	34.8
0.0941	0.4245	1473.1	33.3
0.098	0.408	1456.1	35.2
0.1063	0.3801	1435.2	33.4
0.1101	0.3475	1406.4	33
0.1249	0.3082	1380.5	29
0.1342	0.2773	1358.8	37.1
0.1415	0.2553	1341.2	66.7
0.1525	0.2084	1304.6	35.9
0.1612	0.169	1271.5	52.7
0.1866	0.085	1219.9	25.2
0.2021	0.0469	1197.7	29.8
0.2147	0	1165.9	24.3
