Measured thermophysical data. Vapor Pressures and Activity Coefficients of Methanol in Binary Mixtures with 1-Hexyl-3-methylimidazolium Bis(trifluoromethylsulfonyl)imide
Source: J. Chem. Eng. Data, 2015, 10.1021/je501033z
Compound 1: methanol, CH4O, InChI=1S/CH4O/c1-2/h2H,1H3, purity 99.9%
Compound 2: 1-hexyl-3-methylimidazolium bis[(trifluoromethyl)sulfonyl]imide, C12H19F6N3O4S2, InChI=1S/C10H19N2.C2F6NO4S2/c1-3-4-5-6-7-12-9-8-11(2)10-12;3-1(4,5)14(10,11)9-15(12,13)2(6,7)8/h8-10H,3-7H2,1-2H3;/q+1;-1, purity 99%
Compound 3: water, H2O, InChI=1S/H2O/h1H2

System: methanol; phases: Liquid, Gas
Property: Vapor or sublimation pressure, kPa (Liquid); method: Closed cell (Static) method
Temperature, K	Vapor or sublimation pressure, kPa	uncertainty
274.15	4.252	0.04
278.15	5.501	0.043
283.15	7.411	0.047
293.15	12.996	0.061
303.15	21.861	0.086
313.15	35.43	0.13
323.15	55.54	0.194
333.15	84.932	0.288
343.15	125.739	8.009
353.15	181.556	8.019
363.15	256.274	8.036
373.15	354.351	8.068
383.15	480.818	8.123
393.15	641.267	8.215
403.15	841.83	8.365
413.15	1089.155	8.595

System: water; phases: Liquid, Gas
Property: Vapor or sublimation pressure, kPa (Liquid); method: Closed cell (Static) method
Temperature, K	Vapor or sublimation pressure, kPa	uncertainty
279.48	0.953	0.031
286.16	1.508	0.031
291.39	2.094	0.032
293.14	2.337	0.032
296.32	2.834	0.032
296.31	2.839	0.032
298.81	3.288	0.032
301.37	3.827	0.033
303.57	4.36	0.033
307.73	5.507	0.034
308.26	5.666	0.034
312.87	7.275	0.035
313.07	7.345	0.035
314.62	7.977	0.036
318.13	9.585	0.038
318.13	9.578	0.038
322.99	12.26	0.04
323.1	12.32	0.04
323.17	12.362	0.04
328.14	15.748	0.045
328.14	15.746	0.045
328.88	16.312	0.045

System: methanol + 1-hexyl-3-methylimidazolium bis[(trifluoromethyl)sulfonyl]imide; phases: Liquid, Gas
Property: Vapor or sublimation pressure, kPa (Liquid); method: Closed cell (Static) method
Temperature, K	Mole fraction of methanol	Vapor or sublimation pressure, kPa	uncertainty
274.15	0.0342	0.162	0.03
278.15	0.0342	0.191	0.03
283.15	0.0342	0.234	0.03
274.15	0.0812	0.327	0.031
293.15	0.0342	0.342	0.031
278.15	0.0812	0.381	0.031
283.15	0.0812	0.46	0.031
303.15	0.0342	0.485	0.031
274.15	0.1175	0.512	0.031
278.15	0.1175	0.615	0.032
293.15	0.0812	0.654	0.032
313.15	0.0342	0.669	0.032
283.15	0.1175	0.736	0.032
274.15	0.1823	0.876	0.033
323.15	0.0342	0.901	0.033
303.15	0.0812	0.908	0.033
293.15	0.1175	1.041	0.034
278.15	0.1823	1.056	0.034
333.15	0.0342	1.187	0.035
313.15	0.0812	1.233	0.036
283.15	0.1823	1.265	0.036
274.15	0.2684	1.374	0.035
303.15	0.1175	1.456	0.035
343.15	0.0342	1.534	0.035
278.15	0.2684	1.602	0.035
323.15	0.0812	1.642	0.036
274.15	0.3342	1.705	0.036
293.15	0.1823	1.799	0.036
274.15	0.3733	1.859	0.036
283.15	0.2684	1.924	0.036
313.15	0.1175	1.93	0.036
274.15	0.3938	1.936	0.036
353.15	0.0342	1.948	0.036
278.15	0.3342	1.949	0.036
274.15	0.4394	2.115	0.036
333.15	0.0812	2.147	0.036
278.15	0.3733	2.151	0.036
274.15	0.4785	2.261	0.037
278.15	0.3938	2.262	0.037
283.15	0.3342	2.365	0.037
363.15	0.0342	2.434	0.037
278.15	0.4394	2.489	0.037
303.15	0.1823	2.497	0.037
274.15	0.55	2.515	0.037
323.15	0.1175	2.582	0.037
283.15	0.3733	2.637	0.037
278.15	0.4785	2.691	0.037
343.15	0.0812	2.763	0.038
283.15	0.3938	2.777	0.037
274.15	0.6246	2.794	0.037
293.15	0.2684	2.811	0.038
373.15	0.0342	3	0.038
274.15	0.6845	3.014	0.038
278.15	0.55	3.046	0.038
283.15	0.4394	3.049	0.038
274.15	0.7367	3.202	0.038
274.15	0.7502	3.258	0.038
283.15	0.4785	3.285	0.038
333.15	0.1175	3.326	0.039
313.15	0.1823	3.365	0.039
278.15	0.6246	3.42	0.039
274.15	0.7996	3.459	0.039
353.15	0.0812	3.501	0.039
293.15	0.3342	3.542	0.039
383.15	0.0342	3.648	0.039
274.15	0.8445	3.67	0.039
278.15	0.6845	3.722	0.039
283.15	0.55	3.754	0.039
274.15	0.8703	3.803	0.039
274.15	0.8803	3.855	0.039
303.15	0.2684	3.935	0.04
293.15	0.3733	3.952	0.04
278.15	0.7367	3.991	0.04
274.15	0.9245	4.051	0.04
278.15	0.7502	4.071	0.04
274.15	0.9521	4.148	0.04
293.15	0.3938	4.177	0.04
274.15	0.97	4.197	0.04
274.15	0.9728	4.204	0.04
274.15	1	4.252	0.04
343.15	0.1175	4.263	0.041
283.15	0.6246	4.273	0.04
278.15	0.7996	4.37	0.04
363.15	0.0812	4.377	0.041
393.15	0.0342	4.385	0.041
323.15	0.1823	4.498	0.041
293.15	0.4394	4.648	0.041
278.15	0.8445	4.673	0.041
283.15	0.6845	4.742	0.041
278.15	0.8703	4.856	0.041
278.15	0.8803	4.923	0.042
303.15	0.3342	5.002	0.042
293.15	0.4785	5.065	0.042
283.15	0.7367	5.167	0.042
278.15	0.9245	5.207	0.042
403.15	0.0342	5.214	0.043
283.15	0.7502	5.285	0.042
353.15	0.1175	5.33	0.043
278.15	0.9521	5.35	0.042
313.15	0.2684	5.361	0.043
373.15	0.0812	5.404	0.043
278.15	0.97	5.422	0.043
278.15	0.9728	5.431	0.043
278.15	1	5.501	0.043
303.15	0.3733	5.659	0.043
283.15	0.7996	5.769	0.044
333.15	0.1823	5.816	0.044
293.15	0.55	5.898	0.044
303.15	0.3938	6.005	0.044
413.15	0.0342	6.138	0.045
283.15	0.8445	6.222	0.045
283.15	0.8703	6.483	0.045
283.15	0.8803	6.583	0.045
383.15	0.0812	6.596	0.046
363.15	0.1175	6.606	0.046
303.15	0.4394	6.808	0.046
293.15	0.6246	6.886	0.046
313.15	0.3342	6.911	0.046
283.15	0.9245	6.983	0.046
283.15	0.9521	7.191	0.047
323.15	0.2684	7.25	0.047
283.15	0.97	7.293	0.047
283.15	0.9728	7.308	0.047
343.15	0.1823	7.331	0.048
283.15	1	7.411	0.047
303.15	0.4785	7.536	0.048
293.15	0.6845	7.807	0.048
313.15	0.3733	7.906	0.049
393.15	0.0812	7.966	0.05
373.15	0.1175	8.129	0.05
313.15	0.3938	8.439	0.05
293.15	0.7367	8.696	0.05
293.15	0.7502	8.937	0.051
303.15	0.55	9.014	0.051
353.15	0.1823	9.173	0.053
333.15	0.2684	9.355	0.053
323.15	0.3342	9.408	0.053
403.15	0.0812	9.527	0.054
313.15	0.4394	9.7	0.053
383.15	0.1175	9.802	0.055
293.15	0.7996	9.853	0.053
293.15	0.8445	10.738	0.055
323.15	0.3733	10.813	0.056
303.15	0.6246	10.818	0.056
313.15	0.4785	10.865	0.056
293.15	0.8703	11.233	0.056
413.15	0.0812	11.292	0.059
363.15	0.1823	11.307	0.058
293.15	0.8803	11.418	0.057
393.15	0.1175	11.595	0.06
323.15	0.3938	11.634	0.058
343.15	0.2684	11.86	0.059
293.15	0.9245	12.183	0.059
333.15	0.3342	12.438	0.061
303.15	0.6845	12.506	0.06
293.15	0.9521	12.578	0.06
293.15	0.97	12.775	0.06
293.15	0.9728	12.802	0.06
293.15	1	12.996	0.061
313.15	0.55	13.352	0.062
323.15	0.4394	13.523	0.063
403.15	0.1175	13.681	0.066
373.15	0.1823	13.757	0.065
303.15	0.7367	14.123	0.064
333.15	0.3733	14.371	0.066
303.15	0.7502	14.56	0.065
353.15	0.2684	14.897	0.068
323.15	0.4785	15.367	0.068
333.15	0.3938	15.588	0.069
343.15	0.3342	16.087	0.071
413.15	0.1175	16.147	0.073
303.15	0.7996	16.277	0.07
313.15	0.6246	16.484	0.071
383.15	0.1823	16.548	0.074
303.15	0.8445	17.851	0.074
363.15	0.2684	18.268	0.078
333.15	0.4394	18.424	0.077
303.15	0.8703	18.744	0.076
343.15	0.3733	18.777	0.078
303.15	0.8803	19.066	0.077
323.15	0.55	19.362	0.079
313.15	0.6845	19.4	0.079
393.15	0.1823	19.703	0.084
303.15	0.9245	20.388	0.082
343.15	0.3938	20.507	0.084
353.15	0.3342	20.521	0.085
303.15	0.9521	21.097	0.084
333.15	0.4785	21.233	0.086
303.15	0.97	21.462	0.085
303.15	0.9728	21.514	0.085
303.15	1	21.861	0.086
373.15	0.2684	22.155	0.091
313.15	0.7367	22.217	0.088
313.15	0.7502	23.043	0.091
403.15	0.1823	23.05	0.095
353.15	0.3733	24.397	0.097
323.15	0.6246	24.45	0.096
343.15	0.4394	24.583	0.097
363.15	0.3342	25.66	0.102
313.15	0.7996	25.951	0.1
353.15	0.3938	26.532	0.104
383.15	0.2684	26.615	0.106
413.15	0.1823	27.052	0.109
333.15	0.55	27.322	0.106
313.15	0.8445	28.606	0.108
343.15	0.4785	28.805	0.111
323.15	0.6845	29.33	0.111
313.15	0.8703	30.058	0.113
313.15	0.8803	30.603	0.115
363.15	0.3733	30.843	0.119
393.15	0.2684	31.364	0.123
373.15	0.3342	31.638	0.123
353.15	0.4394	32.29	0.123
313.15	0.9245	32.895	0.122
363.15	0.3938	33.724	0.129
323.15	0.7367	34.03	0.126
313.15	0.9521	34.114	0.126
313.15	0.97	34.739	0.128
313.15	0.9728	34.836	0.128
333.15	0.6246	35.222	0.131
323.15	0.7502	35.303	0.13
313.15	1	35.43	0.13
403.15	0.2684	36.716	0.141
343.15	0.55	37.967	0.141
373.15	0.3733	38.143	0.144
353.15	0.4785	38.412	0.143
383.15	0.3342	38.526	0.146
323.15	0.7996	40.063	0.145
363.15	0.4394	41.623	0.154
373.15	0.3938	42.191	0.157
413.15	0.2684	42.58	0.162
333.15	0.6845	42.867	0.155
323.15	0.8445	44.392	0.159
393.15	0.3342	46.394	0.173
383.15	0.3733	46.526	0.172
323.15	0.8703	46.806	0.167
323.15	0.8803	47.697	0.17
343.15	0.6246	49.915	0.179
363.15	0.4785	50.345	0.183
333.15	0.7367	50.415	0.179
323.15	0.9245	51.382	0.181
353.15	0.55	51.922	0.187
383.15	0.3938	52.197	0.191
333.15	0.7502	52.448	0.186
373.15	0.4394	52.891	0.192
323.15	0.9521	53.366	0.188
323.15	0.97	54.378	0.191
323.15	0.9728	54.526	0.191
403.15	0.3342	55.113	0.202
323.15	1	55.54	0.194
393.15	0.3733	56.434	0.206
333.15	0.7996	60.096	0.21
343.15	0.6845	61.631	0.216
393.15	0.3938	63.549	0.229
413.15	0.3342	64.762	0.235
373.15	0.4785	65.12	0.232
383.15	0.4394	66.361	0.237
333.15	0.8445	66.954	0.232
403.15	0.3733	67.484	0.243
353.15	0.6246	69.439	0.243
363.15	0.55	69.68	0.245
333.15	0.8703	70.978	0.244
333.15	0.8803	72.484	0.249
343.15	0.7367	73.21	0.253
343.15	0.7502	76.311	0.263
403.15	0.3938	76.73	0.273
333.15	0.9245	78.35	0.267
413.15	0.3733	80.315	0.286
333.15	0.9521	81.451	0.277
393.15	0.4394	82.105	0.29
333.15	0.97	83.075	0.282
383.15	0.4785	83.077	0.292
333.15	0.9728	83.314	0.283
333.15	1	84.932	0.288
353.15	0.6845	86.763	0.298
343.15	0.7996	88.034	0.3
413.15	0.3938	91.557	0.323
373.15	0.55	92.25	0.319
363.15	0.6246	94.801	0.325
343.15	0.8445	98.394	0.332
403.15	0.4394	100.589	8.007
353.15	0.7367	104.08	8.007
343.15	0.8703	104.363	8.006
393.15	0.4785	104.908	8.007
343.15	0.8803	106.673	8.007
353.15	0.7502	108.672	8.007
343.15	0.9245	115.608	8.008
363.15	0.6845	119.98	8.009
383.15	0.55	120.276	8.009
343.15	0.9521	120.357	8.008
413.15	0.4394	121.721	8.01
343.15	0.97	122.834	8.009
343.15	0.9728	123.217	8.009
343.15	1	125.739	8.009
353.15	0.7996	126.047	8.009
373.15	0.6246	127.577	8.01
403.15	0.4785	130.171	8.011
353.15	0.8445	141.25	8.012
363.15	0.7367	144.546	8.012
353.15	0.8703	149.852	8.013
363.15	0.7502	151.29	8.013
353.15	0.8803	153.247	8.013
393.15	0.55	155.687	8.015
413.15	0.4785	160.181	8.016
373.15	0.6845	162.988	8.016
353.15	0.9245	166.379	8.016
383.15	0.6246	169.309	8.017
353.15	0.9521	173.479	8.017
363.15	0.7996	175.879	8.018
353.15	0.97	177.186	8.018
353.15	0.9728	177.725	8.018
353.15	1	181.556	8.019
373.15	0.7367	197.068	8.022
403.15	0.55	197.382	8.023
363.15	0.8445	197.846	8.022
373.15	0.7502	206.448	8.024
363.15	0.8703	210.146	8.025
363.15	0.8803	215.037	8.026
383.15	0.6845	217.248	8.027
393.15	0.6246	221.622	8.029
363.15	0.9245	234.078	8.03
373.15	0.7996	241.008	8.033
363.15	0.9521	244.289	8.033
413.15	0.55	246.529	8.036
363.15	0.97	249.813	8.034
363.15	0.9728	250.648	8.035
363.15	1	256.274	8.036
383.15	0.7367	263.412	8.039
373.15	0.8445	271.544	8.041
383.15	0.7502	276.017	8.043
403.15	0.6246	284.079	8.047
393.15	0.6845	284.798	8.046
373.15	0.8703	288.661	8.046
373.15	0.8803	295.133	8.048
373.15	0.9245	322.42	8.057
383.15	0.7996	323.006	8.058
373.15	0.9521	337.152	8.062
373.15	0.97	345.037	8.064
393.15	0.7367	346.2	8.067
373.15	0.9728	346.292	8.065
373.15	1	354.351	8.068
413.15	0.6246	358.736	8.074
393.15	0.7502	362.325	8.073
383.15	0.8445	365.108	8.073
403.15	0.6845	366.315	8.076
383.15	0.8703	388.56	8.082
383.15	0.8803	397.673	8.086
393.15	0.7996	424.435	8.098
383.15	0.9245	435.324	8.102
403.15	0.7367	446.347	8.11
383.15	0.9521	456.57	8.111
413.15	0.6845	464.618	8.12
403.15	0.7502	467.637	8.12
383.15	0.97	467.661	8.117
383.15	0.9728	469.361	8.117
383.15	1	480.818	8.123
393.15	0.8445	481.228	8.125
393.15	0.8703	513.624	8.141
393.15	0.8803	525.78	8.148
403.15	0.7996	548.728	8.162
413.15	0.7367	567.345	8.175
393.15	0.9245	577.523	8.176
413.15	0.7502	595.444	8.191
393.15	0.9521	607.213	8.194
393.15	0.97	622.801	8.204
403.15	0.8445	624.09	8.207
393.15	0.9728	625.086	8.205
393.15	1	641.267	8.215
403.15	0.8703	667.209	8.235
403.15	0.8803	683.02	8.246
413.15	0.7996	701.171	8.261
403.15	0.9245	753.598	8.296
403.15	0.9521	794.098	8.327
413.15	0.8445	799.642	8.334
403.15	0.97	816.015	8.344
403.15	0.9728	819.224	8.346
403.15	1	841.83	8.365
413.15	0.8703	854.469	8.378
413.15	0.8803	876.285	8.396
413.15	0.9245	969.109	8.478
413.15	0.9521	1023.816	8.53
413.15	0.97	1052.896	8.559
413.15	0.9728	1057.733	8.563
413.15	1	1089.155	8.595
