Measured thermophysical data. Phase Equilibrium for the Ternary System K2SO4 + KCl + H2O in Aqueous Solution at 303.15 K
Source: J. Chem. Eng. Data, 2015, 10.1021/je501175q
Compound 1: potassium sulfate, K2O4S, InChI=1S/2K.H2O4S/c;;1-5(2,3)4/h;;(H2,1,2,3,4)/q2*+1;/p-2, purity 99%
Compound 2: potassium chloride, ClK, InChI=1S/ClH.K/h1H;/q;+1/p-1, purity 99%
Compound 3: water, H2O, InChI=1S/H2O/h1H2, purity 99.9%

System: potassium chloride + water + potassium sulfate; phases: Liquid, Crystal
Fixed: Temperature, K = 303.15
Fixed: Pressure, kPa = 100
Property: Mass fraction of potassium sulfate (Liquid); method: Titration method
Mass fraction of potassium chloride	Mass fraction of potassium sulfate	uncertainty
0	0.115	0.02
0.029	0.0944	0.0249
0.0568	0.0731	0.0241
0.0837	0.0579	0.0228
0.1091	0.0445	0.0218
0.1359	0.0352	0.0212
0.1619	0.026	0.0208
0.18	0.0213	0.0206
0.1985	0.0167	0.0167
0.2226	0.0147	0.0147
0.2423	0.0134	0.0134
0.254	0.0126	0.0126

System: potassium chloride + water + potassium sulfate; phases: Liquid, Crystal
Fixed: Temperature, K = 303.15
Fixed: Pressure, kPa = 100
Property: Mass fraction of potassium sulfate (Liquid); method: Titration method
Mass fraction of potassium chloride	Mass fraction of potassium sulfate	uncertainty
0.266	0.0074	0.0074
0.2696	0	

System: potassium chloride + water + potassium sulfate; phases: Liquid, Crystal, Crystal
Property: Mass fraction of potassium sulfate (Liquid); method: Titration method
Temperature, K	Pressure, kPa	Mass fraction of potassium sulfate	uncertainty
303.15	100	0.0117	0.0117

System: potassium chloride + water + potassium sulfate; phases: Liquid
Fixed: Pressure, kPa = 100
Fixed: Temperature, K = 303.15
Property: Mass density, kg/m3 (Liquid); method: Pycnometric method
Mass fraction of potassium chloride	Mass fraction of potassium sulfate	Mass density, kg/m3	uncertainty
0	0.115	1092.4	20.2
0.029	0.0944	1093.1	20.3
0.0568	0.0731	1096.4	20.3
0.0837	0.0579	1100.7	20.3
0.1091	0.0445	1108	20.3
0.1359	0.0352	1118	20.3
0.1619	0.026	1129.1	20.3
0.18	0.0213	1137.2	20.3
0.1985	0.0167	1147.7	20.3
0.2226	0.0147	1163	20.2
0.2423	0.0134	1176	20.2
0.254	0.0126	1184.7	20.2
0.2628	0.0117	1191.4	20.2
0.2628	0.0117	1190.2	20.2
0.266	0.0074	1187.9	20.2
0.2696	0	1184.7	20.2

System: potassium chloride + water + potassium sulfate; phases: Liquid, Crystal, Crystal
Property: Mass fraction of potassium chloride (Liquid); method: Titration method
Temperature, K	Pressure, kPa	Mass fraction of potassium chloride	uncertainty
303.15	100	0.2628	0.02

System: water + potassium sulfate; phases: Liquid, Crystal
Property: Mass fraction of potassium sulfate (Liquid); method: Titration method
Pressure, kPa	Temperature, K	Mass fraction of potassium sulfate	uncertainty
100	303.15	0.115	0.02

System: water + potassium sulfate; phases: Liquid
Property: Mass density, kg/m3 (Liquid); method: Pycnometric method
Mass fraction of potassium sulfate	Pressure, kPa	Temperature, K	Mass density, kg/m3	uncertainty
0.115	100	303.15	1092.4	20.2

System: potassium chloride + water; phases: Liquid, Crystal
Property: Mass fraction of potassium chloride (Liquid); method: Titration method
Pressure, kPa	Temperature, K	Mass fraction of potassium chloride	uncertainty
100	303.15	0.2696	0.02

System: potassium chloride + water; phases: Liquid
Property: Mass density, kg/m3 (Liquid); method: Pycnometric method
Mass fraction of potassium chloride	Pressure, kPa	Temperature, K	Mass density, kg/m3	uncertainty
0.2696	100	303.15	1184.7	20.2
