Measured thermophysical data. Volumetric and Viscometric Studies of Amino Acids in Mannitol Aqueous Solutions at T = (293.15 to 323.15) K
Source: J. Chem. Eng. Data, 2015, 10.1021/je501178z
Compound 1: 2-aminoacetic acid, C2H5NO2, InChI=1S/C2H5NO2/c3-1-2(4)5/h1,3H2,(H,4,5), purity 99.5%
Compound 2: (S)-2-aminopropanoic acid, C3H7NO2, InChI=1S/C3H7NO2/c1-2(4)3(5)6/h2H,4H2,1H3,(H,5,6)/t2-/m0/s1, purity 99%
Compound 3: L-valine, C5H11NO2, InChI=1S/C5H11NO2/c1-3(2)4(6)5(7)8/h3-4H,6H2,1-2H3,(H,7,8)/t4-/m0/s1, purity 99%
Compound 4: L-threonine, C4H9NO3, InChI=1S/C4H9NO3/c1-2(6)3(5)4(7)8/h2-3,6H,5H2,1H3,(H,7,8)/t2-,3+/m1/s1, purity 99%
Compound 5: L-arginine, C6H14N4O2, InChI=1S/C6H14N4O2/c7-4(5(11)12)2-1-3-10-6(8)9/h4H,1-3,7H2,(H,11,12)(H4,8,9,10)/t4-/m0/s1, purity 98%
Compound 6: D-mannitol, C6H14O6, InChI=1S/C6H14O6/c7-1-3(9)5(11)6(12)4(10)2-8/h3-12H,1-2H2/t3-,4-,5-,6-/m1/s1, purity 99%
Compound 7: water, H2O, InChI=1S/H2O/h1H2, purity 99.8%

System: 2-aminoacetic acid + D-mannitol + water; phases: Liquid
Fixed: Pressure, kPa = 101.3
Property: Mass density, kg/m3 (Liquid); method: Vibrating tube method
Solvent: Molality, mol/kg of D-mannitol	Temperature, K	Molality, mol/kg of 2-aminoacetic acid	Mass density, kg/m3	uncertainty
0	293.15	0	998.19	0.15
0	293.15	0.1002	1001.41	0.15
0	293.15	0.2	1004.57	0.15
0	293.15	0.3002	1007.7	0.15
0	293.15	0.4001	1010.77	0.15
0	293.15	0.5001	1013.8	0.15
0	293.15	0.6	1016.78	0.16
0	293.15	0.6998	1019.71	0.16
0	303.15	0	995.64	0.15
0	303.15	0.1002	998.8	0.15
0	303.15	0.2	1001.91	0.15
0	303.15	0.3002	1004.98	0.15
0	303.15	0.4001	1008	0.15
0	303.15	0.5001	1010.98	0.15
0	303.15	0.6	1013.91	0.15
0	303.15	0.6998	1016.8	0.16
0	313.15	0	992.2	0.15
0	313.15	0.1002	995.32	0.15
0	313.15	0.2	998.38	0.15
0	313.15	0.3002	1001.42	0.15
0	313.15	0.4001	1004.4	0.15
0	313.15	0.5001	1007.35	0.15
0	313.15	0.6	1010.25	0.15
0	313.15	0.6998	1013.11	0.15
0	323.15	0	988.03	0.15
0	323.15	0.1002	991.11	0.15
0	323.15	0.2	994.14	0.15
0	323.15	0.3002	997.14	0.15
0	323.15	0.4001	1000.09	0.15
0	323.15	0.5001	1003.01	0.15
0	323.15	0.6	1005.88	0.15
0	323.15	0.6998	1008.72	0.15
0.2	293.15	0	1010.52	0.15
0.2	293.15	0.1	1013.68	0.15
0.2	293.15	0.1998	1016.79	0.16
0.2	293.15	0.3	1019.88	0.16
0.2	293.15	0.4	1022.91	0.16
0.2	293.15	0.5003	1025.9	0.16
0.2	293.15	0.6004	1028.85	0.16
0.2	293.15	0.6994	1031.73	0.16
0.2	303.15	0	1007.82	0.15
0.2	303.15	0.1	1010.92	0.15
0.2	303.15	0.1998	1013.98	0.15
0.2	303.15	0.3	1017	0.16
0.2	303.15	0.4	1019.97	0.16
0.2	303.15	0.5003	1022.91	0.16
0.2	303.15	0.6004	1025.81	0.16
0.2	303.15	0.6994	1028.63	0.16
0.2	313.15	0	1004.26	0.15
0.2	313.15	0.1	1007.32	0.15
0.2	313.15	0.1998	1010.33	0.15
0.2	313.15	0.3	1013.32	0.15
0.2	313.15	0.4	1016.27	0.16
0.2	313.15	0.5003	1019.18	0.16
0.2	313.15	0.6004	1022.05	0.16
0.2	313.15	0.6994	1024.84	0.16
0.2	323.15	0	999.96	0.15
0.2	323.15	0.1	1002.98	0.15
0.2	323.15	0.1998	1005.95	0.15
0.2	323.15	0.3	1008.91	0.15
0.2	323.15	0.4	1011.83	0.15
0.2	323.15	0.5003	1014.73	0.15
0.2	323.15	0.6004	1017.59	0.16
0.2	323.15	0.6994	1020.38	0.16
0.4	293.15	0	1022.31	0.16
0.4	293.15	0.1001	1025.44	0.16
0.4	293.15	0.2001	1028.51	0.16
0.4	293.15	0.3	1031.53	0.16
0.4	293.15	0.4	1034.51	0.16
0.4	293.15	0.5	1037.42	0.16
0.4	293.15	0.6	1040.29	0.16
0.4	293.15	0.7	1043.13	0.16
0.4	303.15	0	1019.39	0.16
0.4	303.15	0.1001	1022.46	0.16
0.4	303.15	0.2001	1025.49	0.16
0.4	303.15	0.3	1028.47	0.16
0.4	303.15	0.4	1031.41	0.16
0.4	303.15	0.5	1034.31	0.16
0.4	303.15	0.6	1037.15	0.16
0.4	303.15	0.7	1039.97	0.16
0.4	313.15	0	1015.74	0.16
0.4	313.15	0.1001	1018.76	0.16
0.4	313.15	0.2001	1021.74	0.16
0.4	313.15	0.3	1024.67	0.16
0.4	313.15	0.4	1027.57	0.16
0.4	313.15	0.5	1030.42	0.16
0.4	313.15	0.6	1033.22	0.16
0.4	313.15	0.7	1035.99	0.16
0.4	323.15	0	1011.28	0.15
0.4	323.15	0.1001	1014.26	0.15
0.4	323.15	0.2001	1017.21	0.16
0.4	323.15	0.3	1020.12	0.16
0.4	323.15	0.4	1023.01	0.16
0.4	323.15	0.5	1025.86	0.16
0.4	323.15	0.6	1028.69	0.16
0.4	323.15	0.7	1031.47	0.16
0.6	293.15	0	1033.43	0.16
0.6	293.15	0.1001	1036.52	0.16
0.6	293.15	0.2001	1039.55	0.16
0.6	293.15	0.3001	1042.52	0.16
0.6	293.15	0.4001	1045.43	0.16
0.6	293.15	0.5001	1048.29	0.17
0.6	293.15	0.5999	1051.09	0.17
0.6	293.15	0.7001	1053.84	0.17
0.6	303.15	0	1030.35	0.16
0.6	303.15	0.1001	1033.38	0.16
0.6	303.15	0.2001	1036.36	0.16
0.6	303.15	0.3001	1039.28	0.16
0.6	303.15	0.4001	1042.16	0.16
0.6	303.15	0.5001	1044.98	0.16
0.6	303.15	0.5999	1047.76	0.17
0.6	303.15	0.7001	1050.49	0.17
0.6	313.15	0	1026.6	0.16
0.6	313.15	0.1001	1029.59	0.16
0.6	313.15	0.2001	1032.52	0.16
0.6	313.15	0.3001	1035.4	0.16
0.6	313.15	0.4001	1038.24	0.16
0.6	313.15	0.5001	1041.04	0.16
0.6	313.15	0.5999	1043.78	0.16
0.6	313.15	0.7001	1046.49	0.17
0.6	323.15	0	1022.09	0.16
0.6	323.15	0.1001	1025.03	0.16
0.6	323.15	0.2001	1027.93	0.16
0.6	323.15	0.3001	1030.79	0.16
0.6	323.15	0.4001	1033.62	0.16
0.6	323.15	0.5001	1036.41	0.16
0.6	323.15	0.5999	1039.16	0.16
0.6	323.15	0.7001	1041.87	0.16
0.8	293.15	0	1043.98	0.16
0.8	293.15	0.1001	1047.04	0.17
0.8	293.15	0.2	1050.04	0.17
0.8	293.15	0.3001	1053	0.17
0.8	293.15	0.4001	1055.89	0.17
0.8	293.15	0.5	1058.74	0.17
0.8	293.15	0.6	1061.54	0.17
0.8	293.15	0.7	1064.28	0.17
0.8	303.15	0	1040.88	0.16
0.8	303.15	0.1001	1043.88	0.16
0.8	303.15	0.2	1046.83	0.17
0.8	303.15	0.3001	1049.73	0.17
0.8	303.15	0.4001	1052.59	0.17
0.8	303.15	0.5	1055.39	0.17
0.8	303.15	0.6	1058.14	0.17
0.8	303.15	0.7	1060.85	0.17
0.8	313.15	0	1036.92	0.16
0.8	313.15	0.1001	1039.88	0.16
0.8	313.15	0.2	1042.78	0.16
0.8	313.15	0.3001	1045.65	0.17
0.8	313.15	0.4001	1048.47	0.17
0.8	313.15	0.5	1051.25	0.17
0.8	313.15	0.6	1054	0.17
0.8	313.15	0.7	1056.69	0.17
0.8	323.15	0	1032.28	0.16
0.8	323.15	0.1001	1035.19	0.16
0.8	323.15	0.2	1038.06	0.16
0.8	323.15	0.3001	1040.89	0.16
0.8	323.15	0.4001	1043.7	0.16
0.8	323.15	0.5	1046.47	0.17
0.8	323.15	0.6	1049.2	0.17
0.8	323.15	0.7	1051.9	0.17
1	293.15	0	1054.13	0.17
1	293.15	0.1001	1057.15	0.17
1	293.15	0.2003	1060.11	0.17
1	293.15	0.3001	1063.01	0.17
1	293.15	0.4001	1065.86	0.17
1	293.15	0.5003	1068.66	0.17
1	293.15	0.6	1071.39	0.17
1	293.15	0.6999	1074.07	0.18
1	303.15	0	1050.85	0.17
1	303.15	0.1001	1053.81	0.17
1	303.15	0.2003	1056.72	0.17
1	303.15	0.3001	1059.57	0.17
1	303.15	0.4001	1062.37	0.17
1	303.15	0.5003	1065.13	0.17
1	303.15	0.6	1067.82	0.17
1	303.15	0.6999	1070.47	0.17
1	313.15	0	1046.79	0.17
1	313.15	0.1001	1049.7	0.17
1	313.15	0.2003	1052.57	0.17
1	313.15	0.3001	1055.38	0.17
1	313.15	0.4001	1058.15	0.17
1	313.15	0.5003	1060.87	0.17
1	313.15	0.6	1063.54	0.17
1	313.15	0.6999	1066.17	0.17
1	323.15	0	1042.15	0.16
1	323.15	0.1001	1045.02	0.16
1	323.15	0.2003	1047.85	0.17
1	323.15	0.3001	1050.63	0.17
1	323.15	0.4001	1053.38	0.17
1	323.15	0.5003	1056.1	0.17
1	323.15	0.6	1058.77	0.17
1	323.15	0.6999	1061.4	0.17

System: 2-aminoacetic acid + D-mannitol + water; phases: Liquid
Fixed: Pressure, kPa = 101.3
Property: Viscosity, Pa*s (Liquid); method: Capillary tube (Ostwald; Ubbelohde) method
Solvent: Molality, mol/kg of D-mannitol	Temperature, K	Molality, mol/kg of 2-aminoacetic acid	Viscosity, Pa*s	uncertainty
0	293.15	0	0.001002	2.11e-05
0	293.15	0.1002	0.001015	2.1e-05
0	293.15	0.2	0.001029	2.2e-05
0	293.15	0.3002	0.001042	2.2e-05
0	293.15	0.4001	0.001057	2.2e-05
0	293.15	0.5001	0.001072	2.3e-05
0	293.15	0.6	0.001086	2.3e-05
0	293.15	0.6998	0.001101	2.3e-05
0	303.15	0	0.0007975	1.68e-05
0	303.15	0.1002	0.000809	1.7e-05
0	303.15	0.2	0.00082	1.7e-05
0	303.15	0.3002	0.000831	1.8e-05
0	303.15	0.4001	0.000842	1.8e-05
0	303.15	0.5001	0.000855	1.8e-05
0	303.15	0.6	0.000867	1.8e-05
0	303.15	0.6998	0.000878	1.8e-05
0	313.15	0	0.0006532	1.38e-05
0	313.15	0.1002	0.000663	1.4e-05
0	313.15	0.2	0.000672	1.4e-05
0	313.15	0.3002	0.000681	1.4e-05
0	313.15	0.4001	0.000691	1.5e-05
0	313.15	0.5001	0.000701	1.5e-05
0	313.15	0.6	0.000711	1.5e-05
0	313.15	0.6998	0.000721	1.5e-05
0	323.15	0	0.0005471	1.16e-05
0	323.15	0.1002	0.000555	1.2e-05
0	323.15	0.2	0.000563	1.2e-05
0	323.15	0.3002	0.000571	1.2e-05
0	323.15	0.4001	0.000579	1.2e-05
0	323.15	0.5001	0.000587	1.2e-05
0	323.15	0.6	0.000596	1.3e-05
0	323.15	0.6998	0.000605	1.3e-05
0.2	293.15	0	0.001104	2.3e-05
0.2	293.15	0.1	0.001119	2.4e-05
0.2	293.15	0.1998	0.001135	2.4e-05
0.2	293.15	0.3	0.001152	2.4e-05
0.2	293.15	0.4	0.001169	2.5e-05
0.2	293.15	0.5003	0.001186	2.5e-05
0.2	293.15	0.6004	0.001202	2.5e-05
0.2	293.15	0.6994	0.001218	2.6e-05
0.2	303.15	0	0.000874	1.8e-05
0.2	303.15	0.1	0.000886	1.9e-05
0.2	303.15	0.1998	0.000899	1.9e-05
0.2	303.15	0.3	0.000913	1.9e-05
0.2	303.15	0.4	0.000926	1.9e-05
0.2	303.15	0.5003	0.000939	2e-05
0.2	303.15	0.6004	0.000952	2e-05
0.2	303.15	0.6994	0.000966	2e-05
0.2	313.15	0	0.000711	1.5e-05
0.2	313.15	0.1	0.000721	1.5e-05
0.2	313.15	0.1998	0.000732	1.5e-05
0.2	313.15	0.3	0.000743	1.6e-05
0.2	313.15	0.4	0.000754	1.6e-05
0.2	313.15	0.5003	0.000765	1.6e-05
0.2	313.15	0.6004	0.000775	1.6e-05
0.2	313.15	0.6994	0.000786	1.7e-05
0.2	323.15	0	0.000592	1.3e-05
0.2	323.15	0.1	0.0006	1.3e-05
0.2	323.15	0.1998	0.00061	1.3e-05
0.2	323.15	0.3	0.000619	1.3e-05
0.2	323.15	0.4	0.000628	1.3e-05
0.2	323.15	0.5003	0.000637	1.3e-05
0.2	323.15	0.6004	0.000647	1.4e-05
0.2	323.15	0.6994	0.000655	1.4e-05
0.4	293.15	0	0.001221	2.6e-05
0.4	293.15	0.1001	0.001239	2.6e-05
0.4	293.15	0.2001	0.001257	2.6e-05
0.4	293.15	0.3	0.001275	2.7e-05
0.4	293.15	0.4	0.001293	2.7e-05
0.4	293.15	0.5	0.001311	2.8e-05
0.4	293.15	0.6	0.001329	2.8e-05
0.4	293.15	0.7	0.001348	2.8e-05
0.4	303.15	0	0.000959	2e-05
0.4	303.15	0.1001	0.000974	2e-05
0.4	303.15	0.2001	0.000988	2.1e-05
0.4	303.15	0.3	0.001003	2.1e-05
0.4	303.15	0.4	0.001017	2.1e-05
0.4	303.15	0.5	0.001031	2.2e-05
0.4	303.15	0.6	0.001045	2.2e-05
0.4	303.15	0.7	0.00106	2.2e-05
0.4	313.15	0	0.000776	1.6e-05
0.4	313.15	0.1001	0.000788	1.7e-05
0.4	313.15	0.2001	0.000799	1.7e-05
0.4	313.15	0.3	0.000811	1.7e-05
0.4	313.15	0.4	0.000823	1.7e-05
0.4	313.15	0.5	0.000834	1.8e-05
0.4	313.15	0.6	0.000846	1.8e-05
0.4	313.15	0.7	0.000858	1.8e-05
0.4	323.15	0	0.000642	1.4e-05
0.4	323.15	0.1001	0.000653	1.4e-05
0.4	323.15	0.2001	0.000662	1.4e-05
0.4	323.15	0.3	0.000672	1.4e-05
0.4	323.15	0.4	0.000682	1.4e-05
0.4	323.15	0.5	0.000692	1.5e-05
0.4	323.15	0.6	0.000702	1.5e-05
0.4	323.15	0.7	0.000712	1.5e-05
0.6	293.15	0	0.001336	2.8e-05
0.6	293.15	0.1001	0.001355	2.8e-05
0.6	293.15	0.2001	0.001376	2.9e-05
0.6	293.15	0.3001	0.001398	2.9e-05
0.6	293.15	0.4001	0.001419	3e-05
0.6	293.15	0.5001	0.001441	3e-05
0.6	293.15	0.5999	0.001462	3.1e-05
0.6	293.15	0.7001	0.001484	3.1e-05
0.6	303.15	0	0.001044	2.2e-05
0.6	303.15	0.1001	0.00106	2.2e-05
0.6	303.15	0.2001	0.001077	2.3e-05
0.6	303.15	0.3001	0.001094	2.3e-05
0.6	303.15	0.4001	0.00111	2.3e-05
0.6	303.15	0.5001	0.001128	2.4e-05
0.6	303.15	0.5999	0.001145	2.4e-05
0.6	303.15	0.7001	0.001162	2.4e-05
0.6	313.15	0	0.000841	1.8e-05
0.6	313.15	0.1001	0.000854	1.8e-05
0.6	313.15	0.2001	0.000867	1.8e-05
0.6	313.15	0.3001	0.000881	1.9e-05
0.6	313.15	0.4001	0.000895	1.9e-05
0.6	313.15	0.5001	0.000909	1.9e-05
0.6	313.15	0.5999	0.000923	1.9e-05
0.6	313.15	0.7001	0.000937	2e-05
0.6	323.15	0	0.000693	1.5e-05
0.6	323.15	0.1001	0.000704	1.5e-05
0.6	323.15	0.2001	0.000715	1.5e-05
0.6	323.15	0.3001	0.000727	1.5e-05
0.6	323.15	0.4001	0.000738	1.6e-05
0.6	323.15	0.5001	0.00075	1.6e-05
0.6	323.15	0.5999	0.000761	1.6e-05
0.6	323.15	0.7001	0.000773	1.6e-05
0.8	293.15	0	0.001494	3.1e-05
0.8	293.15	0.1001	0.001517	3.2e-05
0.8	293.15	0.2	0.00154	3.2e-05
0.8	293.15	0.3001	0.001565	3.3e-05
0.8	293.15	0.4001	0.001588	3.3e-05
0.8	293.15	0.5	0.001613	3.4e-05
0.8	293.15	0.6	0.001637	3.4e-05
0.8	293.15	0.7	0.001661	3.5e-05
0.8	303.15	0	0.001151	2.4e-05
0.8	303.15	0.1001	0.001169	2.5e-05
0.8	303.15	0.2	0.001187	2.5e-05
0.8	303.15	0.3001	0.001206	2.5e-05
0.8	303.15	0.4001	0.001224	2.6e-05
0.8	303.15	0.5	0.001243	2.6e-05
0.8	303.15	0.6	0.001263	2.7e-05
0.8	303.15	0.7	0.001281	2.7e-05
0.8	313.15	0	0.000917	1.9e-05
0.8	313.15	0.1001	0.000932	2e-05
0.8	313.15	0.2	0.000947	2e-05
0.8	313.15	0.3001	0.000961	2e-05
0.8	313.15	0.4001	0.000976	2.1e-05
0.8	313.15	0.5	0.000991	2.1e-05
0.8	313.15	0.6	0.001007	2.1e-05
0.8	313.15	0.7	0.001022	2.1e-05
0.8	323.15	0	0.000752	1.6e-05
0.8	323.15	0.1001	0.000764	1.6e-05
0.8	323.15	0.2	0.000777	1.6e-05
0.8	323.15	0.3001	0.000789	1.7e-05
0.8	323.15	0.4001	0.000802	1.7e-05
0.8	323.15	0.5	0.000814	1.7e-05
0.8	323.15	0.6	0.000827	1.7e-05
0.8	323.15	0.7	0.00084	1.8e-05
1	293.15	0	0.001643	3.4e-05
1	293.15	0.1001	0.001669	3.5e-05
1	293.15	0.2003	0.001695	3.6e-05
1	293.15	0.3001	0.001721	3.6e-05
1	293.15	0.4001	0.001748	3.7e-05
1	293.15	0.5003	0.001774	3.7e-05
1	293.15	0.6	0.001801	3.8e-05
1	293.15	0.6999	0.001827	3.8e-05
1	303.15	0	0.001262	2.6e-05
1	303.15	0.1001	0.001283	2.7e-05
1	303.15	0.2003	0.001303	2.7e-05
1	303.15	0.3001	0.001323	2.8e-05
1	303.15	0.4001	0.001344	2.8e-05
1	303.15	0.5003	0.001365	2.9e-05
1	303.15	0.6	0.001386	2.9e-05
1	303.15	0.6999	0.001407	3e-05
1	313.15	0	0.001001	2.1e-05
1	313.15	0.1001	0.001018	2.1e-05
1	313.15	0.2003	0.001034	2.2e-05
1	313.15	0.3001	0.001051	2.2e-05
1	313.15	0.4001	0.001068	2.2e-05
1	313.15	0.5003	0.001084	2.3e-05
1	313.15	0.6	0.001102	2.3e-05
1	313.15	0.6999	0.001118	2.3e-05
1	323.15	0	0.000814	1.7e-05
1	323.15	0.1001	0.000829	1.7e-05
1	323.15	0.2003	0.000842	1.8e-05
1	323.15	0.3001	0.000856	1.8e-05
1	323.15	0.4001	0.00087	1.8e-05
1	323.15	0.5003	0.000883	1.9e-05
1	323.15	0.6	0.000898	1.9e-05
1	323.15	0.6999	0.000912	1.9e-05

System: (S)-2-aminopropanoic acid + D-mannitol + water; phases: Liquid
Fixed: Pressure, kPa = 101.3
Property: Mass density, kg/m3 (Liquid); method: Vibrating tube method
Solvent: Molality, mol/kg of D-mannitol	Temperature, K	Molality, mol/kg of (S)-2-aminopropanoic acid	Mass density, kg/m3	uncertainty
0	293.15	0	998.19	0.18
0	293.15	0.1	1001.06	0.18
0	293.15	0.2	1003.88	0.18
0	293.15	0.3	1006.66	0.18
0	293.15	0.4002	1009.39	0.18
0	293.15	0.5001	1012.06	0.18
0	293.15	0.6002	1014.69	0.18
0	293.15	0.6999	1017.27	0.18
0	303.15	0	995.64	0.18
0	303.15	0.1	998.48	0.18
0	303.15	0.2	1001.27	0.18
0	303.15	0.3	1004.01	0.18
0	303.15	0.4002	1006.71	0.18
0	303.15	0.5001	1009.35	0.18
0	303.15	0.6002	1011.95	0.18
0	303.15	0.6999	1014.5	0.18
0	313.15	0	992.2	0.18
0	313.15	0.1	995.01	0.18
0	313.15	0.2	997.76	0.18
0	313.15	0.3	1000.47	0.18
0	313.15	0.4002	1003.14	0.18
0	313.15	0.5001	1005.76	0.18
0	313.15	0.6002	1008.33	0.18
0	313.15	0.6999	1010.86	0.18
0	323.15	0	988.03	0.18
0	323.15	0.1	990.81	0.18
0	323.15	0.2	993.55	0.18
0	323.15	0.3	996.24	0.18
0	323.15	0.4002	998.9	0.18
0	323.15	0.5001	1001.5	0.18
0	323.15	0.6002	1004.06	0.18
0	323.15	0.6999	1006.58	0.18
0.2	293.15	0	1010.52	0.18
0.2	293.15	0.1001	1013.32	0.18
0.2	293.15	0.2	1016.08	0.18
0.2	293.15	0.3001	1018.79	0.18
0.2	293.15	0.4001	1021.45	0.18
0.2	293.15	0.5001	1024.08	0.19
0.2	293.15	0.6	1026.66	0.19
0.2	293.15	0.7	1029.2	0.19
0.2	303.15	0	1007.82	0.18
0.2	303.15	0.1001	1010.58	0.18
0.2	303.15	0.2	1013.29	0.18
0.2	303.15	0.3001	1015.97	0.18
0.2	303.15	0.4001	1018.6	0.18
0.2	303.15	0.5001	1021.19	0.18
0.2	303.15	0.6	1023.74	0.19
0.2	303.15	0.7	1026.25	0.19
0.2	313.15	0	1004.26	0.18
0.2	313.15	0.1001	1006.99	0.18
0.2	313.15	0.2	1009.67	0.18
0.2	313.15	0.3001	1012.32	0.18
0.2	313.15	0.4001	1014.92	0.18
0.2	313.15	0.5001	1017.49	0.18
0.2	313.15	0.6	1020.02	0.18
0.2	313.15	0.7	1022.52	0.19
0.2	323.15	0	999.96	0.18
0.2	323.15	0.1001	1002.66	0.18
0.2	323.15	0.2	1005.32	0.18
0.2	323.15	0.3001	1007.95	0.18
0.2	323.15	0.4001	1010.54	0.18
0.2	323.15	0.5001	1013.09	0.18
0.2	323.15	0.6	1015.61	0.18
0.2	323.15	0.7	1018.09	0.18
0.4	293.15	0	1022.31	0.19
0.4	293.15	0.1001	1025.05	0.19
0.4	293.15	0.2001	1027.73	0.19
0.4	293.15	0.3	1030.38	0.19
0.4	293.15	0.4001	1032.98	0.19
0.4	293.15	0.5	1035.53	0.19
0.4	293.15	0.5999	1038.05	0.19
0.4	293.15	0.7001	1040.52	0.19
0.4	303.15	0	1019.39	0.18
0.4	303.15	0.1001	1022.09	0.18
0.4	303.15	0.2001	1024.74	0.19
0.4	303.15	0.3	1027.35	0.19
0.4	303.15	0.4001	1029.92	0.19
0.4	303.15	0.5	1032.45	0.19
0.4	303.15	0.5999	1034.93	0.19
0.4	303.15	0.7001	1037.39	0.19
0.4	313.15	0	1015.71	0.18
0.4	313.15	0.1001	1018.37	0.18
0.4	313.15	0.2001	1020.99	0.18
0.4	313.15	0.3	1023.57	0.19
0.4	313.15	0.4001	1026.11	0.19
0.4	313.15	0.5	1028.61	0.19
0.4	313.15	0.5999	1031.06	0.19
0.4	313.15	0.7001	1033.49	0.19
0.4	323.15	0	1011.28	0.18
0.4	323.15	0.1001	1013.92	0.18
0.4	323.15	0.2001	1016.52	0.18
0.4	323.15	0.3	1019.08	0.18
0.4	323.15	0.4001	1021.61	0.18
0.4	323.15	0.5	1024.1	0.19
0.4	323.15	0.5999	1026.55	0.19
0.4	323.15	0.7001	1028.97	0.19
0.6	293.15	0	1033.43	0.19
0.6	293.15	0.1001	1036.11	0.19
0.6	293.15	0.2001	1038.75	0.19
0.6	293.15	0.3001	1041.33	0.19
0.6	293.15	0.4001	1043.87	0.19
0.6	293.15	0.5001	1046.37	0.2
0.6	293.15	0.6	1048.82	0.2
0.6	293.15	0.7	1051.24	0.2
0.6	303.15	0	1030.35	0.19
0.6	303.15	0.1001	1032.99	0.19
0.6	303.15	0.2001	1035.58	0.19
0.6	303.15	0.3001	1038.13	0.19
0.6	303.15	0.4001	1040.64	0.19
0.6	303.15	0.5001	1043.11	0.19
0.6	303.15	0.6	1045.52	0.2
0.6	303.15	0.7	1047.9	0.2
0.6	313.15	0	1026.6	0.19
0.6	313.15	0.1001	1029.21	0.19
0.6	313.15	0.2001	1031.77	0.19
0.6	313.15	0.3001	1034.29	0.19
0.6	313.15	0.4001	1036.76	0.19
0.6	313.15	0.5001	1039.2	0.19
0.6	313.15	0.6	1041.61	0.19
0.6	313.15	0.7	1043.96	0.19
0.6	323.15	0	1022.09	0.18
0.6	323.15	0.1001	1024.67	0.19
0.6	323.15	0.2001	1027.21	0.19
0.6	323.15	0.3001	1029.71	0.19
0.6	323.15	0.4001	1032.17	0.19
0.6	323.15	0.5001	1034.59	0.19
0.6	323.15	0.6	1036.98	0.19
0.6	323.15	0.7	1039.32	0.19
0.8	293.15	0	1043.98	0.19
0.8	293.15	0.1	1046.59	0.2
0.8	293.15	0.2	1049.16	0.2
0.8	293.15	0.3001	1051.68	0.2
0.8	293.15	0.4001	1054.17	0.2
0.8	293.15	0.5	1056.6	0.2
0.8	293.15	0.6	1059.01	0.2
0.8	293.15	0.7	1061.37	0.2
0.8	303.15	0	1040.88	0.19
0.8	303.15	0.1	1043.45	0.19
0.8	303.15	0.2	1045.97	0.2
0.8	303.15	0.3001	1048.45	0.2
0.8	303.15	0.4001	1050.9	0.2
0.8	303.15	0.5	1053.31	0.2
0.8	303.15	0.6	1055.68	0.2
0.8	303.15	0.7	1058.01	0.2
0.8	313.15	0	1036.92	0.19
0.8	313.15	0.1	1039.45	0.19
0.8	313.15	0.2	1041.94	0.19
0.8	313.15	0.3001	1044.4	0.19
0.8	313.15	0.4001	1046.82	0.2
0.8	313.15	0.5	1049.21	0.2
0.8	313.15	0.6	1051.56	0.2
0.8	313.15	0.7	1053.88	0.2
0.8	323.15	0	1032.28	0.19
0.8	323.15	0.1	1034.79	0.19
0.8	323.15	0.2	1037.26	0.19
0.8	323.15	0.3001	1039.69	0.19
0.8	323.15	0.4001	1042.09	0.19
0.8	323.15	0.5	1044.46	0.19
0.8	323.15	0.6	1046.79	0.2
0.8	323.15	0.7	1049.09	0.2
1	293.15	0	1054.13	0.2
1	293.15	0.1	1056.66	0.2
1	293.15	0.2	1059.15	0.2
1	293.15	0.3001	1061.6	0.2
1	293.15	0.4	1064	0.2
1	293.15	0.5	1066.36	0.21
1	293.15	0.6	1068.68	0.21
1	293.15	0.7	1070.97	0.21
1	303.15	0	1050.85	0.2
1	303.15	0.1	1053.35	0.2
1	303.15	0.2	1055.81	0.2
1	303.15	0.3001	1058.24	0.2
1	303.15	0.4	1060.62	0.2
1	303.15	0.5	1062.97	0.2
1	303.15	0.6	1065.29	0.2
1	303.15	0.7	1067.57	0.21
1	313.15	0	1046.79	0.2
1	313.15	0.1	1049.26	0.2
1	313.15	0.2	1051.69	0.2
1	313.15	0.3001	1054.08	0.2
1	313.15	0.4	1056.44	0.2
1	313.15	0.5	1058.77	0.2
1	313.15	0.6	1061.07	0.2
1	313.15	0.7	1063.33	0.2
1	323.15	0	1042.15	0.19
1	323.15	0.1	1044.59	0.2
1	323.15	0.2	1047	0.2
1	323.15	0.3001	1049.38	0.2
1	323.15	0.4	1051.72	0.2
1	323.15	0.5	1054.03	0.2
1	323.15	0.6	1056.31	0.2
1	323.15	0.7	1058.55	0.2

System: (S)-2-aminopropanoic acid + D-mannitol + water; phases: Liquid
Fixed: Pressure, kPa = 101.3
Property: Viscosity, Pa*s (Liquid); method: Capillary tube (Ostwald; Ubbelohde) method
Solvent: Molality, mol/kg of D-mannitol	Temperature, K	Molality, mol/kg of (S)-2-aminopropanoic acid	Viscosity, Pa*s	uncertainty
0	293.15	0	0.001002	2.12e-05
0	293.15	0.1	0.001027	2.2e-05
0	293.15	0.2	0.001053	2.2e-05
0	293.15	0.3	0.001079	2.3e-05
0	293.15	0.4002	0.001107	2.3e-05
0	293.15	0.5001	0.001134	2.4e-05
0	293.15	0.6002	0.001163	2.5e-05
0	293.15	0.6999	0.001191	2.5e-05
0	303.15	0	0.0007975	1.69e-05
0	303.15	0.1	0.000817	1.7e-05
0	303.15	0.2	0.000837	1.8e-05
0	303.15	0.3	0.000856	1.8e-05
0	303.15	0.4002	0.000877	1.9e-05
0	303.15	0.5001	0.000897	1.9e-05
0	303.15	0.6002	0.000919	1.9e-05
0	303.15	0.6999	0.00094	2e-05
0	313.15	0	0.0006532	1.39e-05
0	313.15	0.1	0.000668	1.4e-05
0	313.15	0.2	0.000684	1.5e-05
0	313.15	0.3	0.0007	1.5e-05
0	313.15	0.4002	0.000715	1.5e-05
0	313.15	0.5001	0.000731	1.6e-05
0	313.15	0.6002	0.000749	1.6e-05
0	313.15	0.6999	0.000765	1.6e-05
0	323.15	0	0.0005471	1.16e-05
0	323.15	0.1	0.000559	1.2e-05
0	323.15	0.2	0.000571	1.2e-05
0	323.15	0.3	0.000584	1.2e-05
0	323.15	0.4002	0.000596	1.3e-05
0	323.15	0.5001	0.000609	1.3e-05
0	323.15	0.6002	0.000622	1.3e-05
0	323.15	0.6999	0.000635	1.3e-05
0.2	293.15	0	0.001104	2.3e-05
0.2	293.15	0.1001	0.00113	2.4e-05
0.2	293.15	0.2	0.001157	2.4e-05
0.2	293.15	0.3001	0.001184	2.5e-05
0.2	293.15	0.4001	0.001214	2.6e-05
0.2	293.15	0.5001	0.001245	2.6e-05
0.2	293.15	0.6	0.001277	2.7e-05
0.2	293.15	0.7	0.001314	2.8e-05
0.2	303.15	0	0.000874	1.9e-05
0.2	303.15	0.1001	0.000893	1.9e-05
0.2	303.15	0.2	0.000914	1.9e-05
0.2	303.15	0.3001	0.000934	2e-05
0.2	303.15	0.4001	0.000957	2e-05
0.2	303.15	0.5001	0.00098	2.1e-05
0.2	303.15	0.6	0.001006	2.1e-05
0.2	303.15	0.7	0.001033	2.2e-05
0.2	313.15	0	0.000711	1.5e-05
0.2	313.15	0.1001	0.000726	1.5e-05
0.2	313.15	0.2	0.000742	1.6e-05
0.2	313.15	0.3001	0.000758	1.6e-05
0.2	313.15	0.4001	0.000775	1.6e-05
0.2	313.15	0.5001	0.000793	1.7e-05
0.2	313.15	0.6	0.000813	1.7e-05
0.2	313.15	0.7	0.000833	1.8e-05
0.2	323.15	0	0.000592	1.3e-05
0.2	323.15	0.1001	0.000603	1.3e-05
0.2	323.15	0.2	0.000616	1.3e-05
0.2	323.15	0.3001	0.000629	1.3e-05
0.2	323.15	0.4001	0.000642	1.4e-05
0.2	323.15	0.5001	0.000657	1.4e-05
0.2	323.15	0.6	0.000671	1.4e-05
0.2	323.15	0.7	0.000686	1.5e-05
0.4	293.15	0	0.001221	2.6e-05
0.4	293.15	0.1001	0.00125	2.6e-05
0.4	293.15	0.2001	0.00128	2.7e-05
0.4	293.15	0.3	0.001311	2.8e-05
0.4	293.15	0.4001	0.001343	2.8e-05
0.4	293.15	0.5	0.001379	2.9e-05
0.4	293.15	0.5999	0.001413	3e-05
0.4	293.15	0.7001	0.001453	3.1e-05
0.4	303.15	0	0.000959	2e-05
0.4	303.15	0.1001	0.000981	2.1e-05
0.4	303.15	0.2001	0.001004	2.1e-05
0.4	303.15	0.3	0.001027	2.2e-05
0.4	303.15	0.4001	0.001051	2.2e-05
0.4	303.15	0.5	0.001078	2.3e-05
0.4	303.15	0.5999	0.001105	2.3e-05
0.4	303.15	0.7001	0.001134	2.4e-05
0.4	313.15	0	0.000775	1.6e-05
0.4	313.15	0.1001	0.000792	1.7e-05
0.4	313.15	0.2001	0.00081	1.7e-05
0.4	313.15	0.3	0.000828	1.8e-05
0.4	313.15	0.4001	0.000847	1.8e-05
0.4	313.15	0.5	0.000867	1.8e-05
0.4	313.15	0.5999	0.000888	1.9e-05
0.4	313.15	0.7001	0.000909	1.9e-05
0.4	323.15	0	0.000642	1.4e-05
0.4	323.15	0.1001	0.000655	1.4e-05
0.4	323.15	0.2001	0.000669	1.4e-05
0.4	323.15	0.3	0.000684	1.5e-05
0.4	323.15	0.4001	0.000698	1.5e-05
0.4	323.15	0.5	0.000714	1.5e-05
0.4	323.15	0.5999	0.00073	1.5e-05
0.4	323.15	0.7001	0.000746	1.6e-05
0.6	293.15	0	0.001336	2.8e-05
0.6	293.15	0.1001	0.001368	2.9e-05
0.6	293.15	0.2001	0.001403	3e-05
0.6	293.15	0.3001	0.00144	3e-05
0.6	293.15	0.4001	0.001481	3.1e-05
0.6	293.15	0.5001	0.001522	3.2e-05
0.6	293.15	0.6	0.001568	3.3e-05
0.6	293.15	0.7	0.001612	3.4e-05
0.6	303.15	0	0.001044	2.2e-05
0.6	303.15	0.1001	0.001068	2.3e-05
0.6	303.15	0.2001	0.001095	2.3e-05
0.6	303.15	0.3001	0.001123	2.4e-05
0.6	303.15	0.4001	0.001152	2.4e-05
0.6	303.15	0.5001	0.001183	2.5e-05
0.6	303.15	0.6	0.001215	2.6e-05
0.6	303.15	0.7	0.001249	2.6e-05
0.6	313.15	0	0.000841	1.8e-05
0.6	313.15	0.1001	0.000859	1.8e-05
0.6	313.15	0.2001	0.00088	1.9e-05
0.6	313.15	0.3001	0.0009	1.9e-05
0.6	313.15	0.4001	0.000922	2e-05
0.6	313.15	0.5001	0.000945	2e-05
0.6	313.15	0.6	0.000969	2e-05
0.6	313.15	0.7	0.000994	2.1e-05
0.6	323.15	0	0.000693	1.5e-05
0.6	323.15	0.1001	0.000707	1.5e-05
0.6	323.15	0.2001	0.000723	1.5e-05
0.6	323.15	0.3001	0.000739	1.6e-05
0.6	323.15	0.4001	0.000756	1.6e-05
0.6	323.15	0.5001	0.000774	1.6e-05
0.6	323.15	0.6	0.000792	1.7e-05
0.6	323.15	0.7	0.000811	1.7e-05
0.8	293.15	0	0.001494	3.2e-05
0.8	293.15	0.1	0.001531	3.2e-05
0.8	293.15	0.2	0.001572	3.3e-05
0.8	293.15	0.3001	0.001614	3.4e-05
0.8	293.15	0.4001	0.00166	3.5e-05
0.8	293.15	0.5	0.001708	3.6e-05
0.8	293.15	0.6	0.001756	3.7e-05
0.8	293.15	0.7	0.001811	3.8e-05
0.8	303.15	0	0.001151	2.4e-05
0.8	303.15	0.1	0.001178	2.5e-05
0.8	303.15	0.2	0.001208	2.6e-05
0.8	303.15	0.3001	0.001239	2.6e-05
0.8	303.15	0.4001	0.001272	2.7e-05
0.8	303.15	0.5	0.001307	2.8e-05
0.8	303.15	0.6	0.001344	2.8e-05
0.8	303.15	0.7	0.001381	2.9e-05
0.8	313.15	0	0.000917	1.9e-05
0.8	313.15	0.1	0.000938	2e-05
0.8	313.15	0.2	0.000961	2e-05
0.8	313.15	0.3001	0.000984	2.1e-05
0.8	313.15	0.4001	0.001008	2.1e-05
0.8	313.15	0.5	0.001035	2.2e-05
0.8	313.15	0.6	0.001062	2.2e-05
0.8	313.15	0.7	0.001091	2.3e-05
0.8	323.15	0	0.000752	1.6e-05
0.8	323.15	0.1	0.000768	1.6e-05
0.8	323.15	0.2	0.000786	1.7e-05
0.8	323.15	0.3001	0.000803	1.7e-05
0.8	323.15	0.4001	0.000822	1.7e-05
0.8	323.15	0.5	0.000842	1.8e-05
0.8	323.15	0.6	0.000861	1.8e-05
0.8	323.15	0.7	0.000884	1.9e-05
1	293.15	0	0.001643	3.5e-05
1	293.15	0.1	0.001686	3.6e-05
1	293.15	0.2	0.00173	3.7e-05
1	293.15	0.3001	0.001778	3.8e-05
1	293.15	0.4	0.001829	3.9e-05
1	293.15	0.5	0.001881	4e-05
1	293.15	0.6	0.001937	4.1e-05
1	293.15	0.7	0.001997	4.2e-05
1	303.15	0	0.001262	2.7e-05
1	303.15	0.1	0.001293	2.7e-05
1	303.15	0.2	0.001326	2.8e-05
1	303.15	0.3001	0.00136	2.9e-05
1	303.15	0.4	0.001396	2.9e-05
1	303.15	0.5	0.001435	3e-05
1	303.15	0.6	0.001474	3.1e-05
1	303.15	0.7	0.001516	3.2e-05
1	313.15	0	0.001001	2.1e-05
1	313.15	0.1	0.001024	2.2e-05
1	313.15	0.2	0.001049	2.2e-05
1	313.15	0.3001	0.001075	2.3e-05
1	313.15	0.4	0.001103	2.3e-05
1	313.15	0.5	0.00113	2.4e-05
1	313.15	0.6	0.001161	2.5e-05
1	313.15	0.7	0.001192	2.5e-05
1	323.15	0	0.000814	1.7e-05
1	323.15	0.1	0.000833	1.8e-05
1	323.15	0.2	0.000852	1.8e-05
1	323.15	0.3001	0.000872	1.8e-05
1	323.15	0.4	0.000893	1.9e-05
1	323.15	0.5	0.000914	1.9e-05
1	323.15	0.6	0.000937	2e-05
1	323.15	0.7	0.00096	2e-05

System: D-mannitol + L-valine + water; phases: Liquid
Fixed: Pressure, kPa = 101.3
Property: Mass density, kg/m3 (Liquid); method: Vibrating tube method
Solvent: Molality, mol/kg of D-mannitol	Temperature, K	Molality, mol/kg of L-valine	Mass density, kg/m3	uncertainty
0	293.15	0	998.19	0.18
0	293.15	0.1	1000.88	0.18
0	293.15	0.2001	1003.51	0.18
0	293.15	0.3001	1006.08	0.18
0	293.15	0.4002	1008.6	0.18
0	293.15	0.5	1011.05	0.18
0	303.15	0	995.64	0.18
0	303.15	0.1	998.29	0.18
0	303.15	0.2001	1000.88	0.18
0	303.15	0.3001	1003.41	0.18
0	303.15	0.4002	1005.89	0.18
0	303.15	0.5	1008.31	0.18
0	313.15	0	992.2	0.18
0	313.15	0.1	994.81	0.18
0	313.15	0.2001	997.37	0.18
0	313.15	0.3001	999.88	0.18
0	313.15	0.4002	1002.33	0.18
0	313.15	0.5	1004.72	0.18
0	323.15	0	988.03	0.18
0	323.15	0.1	990.6	0.18
0	323.15	0.2001	993.11	0.18
0	323.15	0.3001	995.57	0.18
0	323.15	0.4002	997.98	0.18
0	323.15	0.5	1000.34	0.18
0.2	293.15	0	1010.52	0.18
0.2	293.15	0.1	1013.13	0.18
0.2	293.15	0.2001	1015.67	0.18
0.2	293.15	0.3001	1018.15	0.18
0.2	293.15	0.4	1020.57	0.18
0.2	293.15	0.5	1022.94	0.19
0.2	303.15	0	1007.82	0.18
0.2	303.15	0.1	1010.39	0.18
0.2	303.15	0.2001	1012.89	0.18
0.2	303.15	0.3001	1015.34	0.18
0.2	303.15	0.4	1017.73	0.18
0.2	303.15	0.5	1020.06	0.18
0.2	313.15	0	1004.26	0.18
0.2	313.15	0.1	1006.78	0.18
0.2	313.15	0.2001	1009.25	0.18
0.2	313.15	0.3001	1011.65	0.18
0.2	313.15	0.4	1014	0.18
0.2	313.15	0.5	1016.29	0.18
0.2	323.15	0	999.96	0.18
0.2	323.15	0.1	1002.44	0.18
0.2	323.15	0.2001	1004.86	0.18
0.2	323.15	0.3001	1007.24	0.18
0.2	323.15	0.4	1009.57	0.18
0.2	323.15	0.5	1011.85	0.18
0.4	293.15	0	1022.31	0.19
0.4	293.15	0.1001	1024.82	0.19
0.4	293.15	0.2	1027.26	0.19
0.4	293.15	0.3	1029.63	0.19
0.4	293.15	0.4	1031.95	0.19
0.4	293.15	0.5	1034.2	0.19
0.4	303.15	0	1019.39	0.18
0.4	303.15	0.1001	1021.86	0.18
0.4	303.15	0.2	1024.26	0.19
0.4	303.15	0.3	1026.6	0.19
0.4	303.15	0.4	1028.89	0.19
0.4	303.15	0.5	1031.13	0.19
0.4	313.15	0	1015.74	0.18
0.4	313.15	0.1001	1018.16	0.18
0.4	313.15	0.2	1020.53	0.18
0.4	313.15	0.3	1022.84	0.19
0.4	313.15	0.4	1025.1	0.19
0.4	313.15	0.5	1027.32	0.19
0.4	323.15	0	1011.28	0.18
0.4	323.15	0.1001	1013.66	0.18
0.4	323.15	0.2	1015.98	0.18
0.4	323.15	0.3	1018.26	0.18
0.4	323.15	0.4	1020.49	0.18
0.4	323.15	0.5	1022.68	0.19
0.6	293.15	0	1033.43	0.19
0.6	293.15	0.1001	1035.83	0.19
0.6	293.15	0.2	1038.17	0.19
0.6	293.15	0.3	1040.45	0.19
0.6	293.15	0.4	1042.67	0.19
0.6	293.15	0.5001	1044.85	0.2
0.6	303.15	0	1030.35	0.19
0.6	303.15	0.1001	1032.71	0.19
0.6	303.15	0.2	1035.02	0.19
0.6	303.15	0.3	1037.27	0.19
0.6	303.15	0.4	1039.46	0.19
0.6	303.15	0.5001	1041.61	0.19
0.6	313.15	0	1026.6	0.19
0.6	313.15	0.1001	1028.92	0.19
0.6	313.15	0.2	1031.18	0.19
0.6	313.15	0.3	1033.39	0.19
0.6	313.15	0.4	1035.55	0.19
0.6	313.15	0.5001	1037.66	0.19
0.6	323.15	0	1022.09	0.18
0.6	323.15	0.1001	1024.36	0.19
0.6	323.15	0.2	1026.59	0.19
0.6	323.15	0.3	1028.77	0.19
0.6	323.15	0.4	1030.9	0.19
0.6	323.15	0.5001	1032.99	0.19
0.8	293.15	0	1043.98	0.19
0.8	293.15	0.1	1046.3	0.2
0.8	293.15	0.2	1048.56	0.2
0.8	293.15	0.3	1050.76	0.2
0.8	293.15	0.4	1052.91	0.2
0.8	293.15	0.5	1055.01	0.2
0.8	303.15	0	1040.88	0.19
0.8	303.15	0.1	1043.16	0.19
0.8	303.15	0.2	1045.39	0.2
0.8	303.15	0.3	1047.56	0.2
0.8	303.15	0.4	1049.7	0.2
0.8	303.15	0.5	1051.78	0.2
0.8	313.15	0	1036.92	0.19
0.8	313.15	0.1	1039.16	0.19
0.8	313.15	0.2	1041.35	0.19
0.8	313.15	0.3	1043.5	0.19
0.8	313.15	0.4	1045.6	0.2
0.8	313.15	0.5	1047.65	0.2
0.8	323.15	0	1032.28	0.19
0.8	323.15	0.1	1034.47	0.19
0.8	323.15	0.2	1036.62	0.19
0.8	323.15	0.3	1038.72	0.19
0.8	323.15	0.4	1040.78	0.19
0.8	323.15	0.5	1042.79	0.19
1	293.15	0	1054.13	0.2
1	293.15	0.1	1056.36	0.2
1	293.15	0.2	1058.53	0.2
1	293.15	0.3	1060.64	0.2
1	293.15	0.4	1062.7	0.2
1	293.15	0.5	1064.7	0.2
1	303.15	0	1050.85	0.2
1	303.15	0.1	1053.04	0.2
1	303.15	0.2	1055.17	0.2
1	303.15	0.3	1057.26	0.2
1	303.15	0.4	1059.3	0.2
1	303.15	0.5	1061.29	0.2
1	313.15	0	1046.79	0.2
1	313.15	0.1	1048.94	0.2
1	313.15	0.2	1051.04	0.2
1	313.15	0.3	1053.1	0.2
1	313.15	0.4	1055.12	0.2
1	313.15	0.5	1057.09	0.2
1	323.15	0	1042.15	0.19
1	323.15	0.1	1044.25	0.19
1	323.15	0.2	1046.31	0.2
1	323.15	0.3	1048.32	0.2
1	323.15	0.4	1050.29	0.2
1	323.15	0.5	1052.22	0.2

System: D-mannitol + L-valine + water; phases: Liquid
Fixed: Pressure, kPa = 101.3
Property: Viscosity, Pa*s (Liquid); method: Capillary tube (Ostwald; Ubbelohde) method
Solvent: Molality, mol/kg of D-mannitol	Temperature, K	Molality, mol/kg of L-valine	Viscosity, Pa*s	uncertainty
0	293.15	0	0.001002	2.12e-05
0	293.15	0.1	0.001044	2.2e-05
0	293.15	0.2001	0.001089	2.3e-05
0	293.15	0.3001	0.001135	2.4e-05
0	293.15	0.4002	0.001184	2.5e-05
0	293.15	0.5	0.001233	2.6e-05
0	303.15	0	0.0007975	1.69e-05
0	303.15	0.1	0.000829	1.8e-05
0	303.15	0.2001	0.000862	1.8e-05
0	303.15	0.3001	0.000896	1.9e-05
0	303.15	0.4002	0.000929	2e-05
0	303.15	0.5	0.000965	2e-05
0	313.15	0	0.0006532	1.39e-05
0	313.15	0.1	0.000678	1.4e-05
0	313.15	0.2001	0.000702	1.5e-05
0	313.15	0.3001	0.000728	1.5e-05
0	313.15	0.4002	0.000753	1.6e-05
0	313.15	0.5	0.000779	1.7e-05
0	323.15	0	0.0005471	1.16e-05
0	323.15	0.1	0.000565	1.2e-05
0	323.15	0.2001	0.000585	1.2e-05
0	323.15	0.3001	0.000604	1.3e-05
0	323.15	0.4002	0.000624	1.3e-05
0	323.15	0.5	0.000644	1.4e-05
0.2	293.15	0	0.001104	2.3e-05
0.2	293.15	0.1	0.00115	2.4e-05
0.2	293.15	0.2001	0.001199	2.5e-05
0.2	293.15	0.3001	0.001252	2.6e-05
0.2	293.15	0.4	0.001308	2.8e-05
0.2	293.15	0.5	0.001369	2.9e-05
0.2	303.15	0	0.000874	1.9e-05
0.2	303.15	0.1	0.000909	1.9e-05
0.2	303.15	0.2001	0.000944	2e-05
0.2	303.15	0.3001	0.000981	2.1e-05
0.2	303.15	0.4	0.001022	2.2e-05
0.2	303.15	0.5	0.001064	2.2e-05
0.2	313.15	0	0.000711	1.5e-05
0.2	313.15	0.1	0.000739	1.6e-05
0.2	313.15	0.2001	0.000765	1.6e-05
0.2	313.15	0.3001	0.000792	1.7e-05
0.2	313.15	0.4	0.000823	1.7e-05
0.2	313.15	0.5	0.000854	1.8e-05
0.2	323.15	0	0.000592	1.3e-05
0.2	323.15	0.1	0.000612	1.3e-05
0.2	323.15	0.2001	0.000633	1.3e-05
0.2	323.15	0.3001	0.000655	1.4e-05
0.2	323.15	0.4	0.000678	1.4e-05
0.2	323.15	0.5	0.000701	1.5e-05
0.4	293.15	0	0.001221	2.6e-05
0.4	293.15	0.1001	0.001273	2.7e-05
0.4	293.15	0.2	0.001327	2.8e-05
0.4	293.15	0.3	0.001388	2.9e-05
0.4	293.15	0.4	0.00145	3.1e-05
0.4	293.15	0.5	0.001516	3.2e-05
0.4	303.15	0	0.000959	2e-05
0.4	303.15	0.1001	0.000997	2.1e-05
0.4	303.15	0.2	0.001038	2.2e-05
0.4	303.15	0.3	0.001081	2.3e-05
0.4	303.15	0.4	0.001125	2.4e-05
0.4	303.15	0.5	0.001171	2.5e-05
0.4	313.15	0	0.000775	1.6e-05
0.4	313.15	0.1001	0.000805	1.7e-05
0.4	313.15	0.2	0.000836	1.8e-05
0.4	313.15	0.3	0.000868	1.8e-05
0.4	313.15	0.4	0.000901	1.9e-05
0.4	313.15	0.5	0.000934	2e-05
0.4	323.15	0	0.000642	1.4e-05
0.4	323.15	0.1001	0.000665	1.4e-05
0.4	323.15	0.2	0.000689	1.5e-05
0.4	323.15	0.3	0.000713	1.5e-05
0.4	323.15	0.4	0.000738	1.6e-05
0.4	323.15	0.5	0.000763	1.6e-05
0.6	293.15	0	0.001336	2.8e-05
0.6	293.15	0.1001	0.001394	2.9e-05
0.6	293.15	0.2	0.001457	3.1e-05
0.6	293.15	0.3	0.001529	3.2e-05
0.6	293.15	0.4	0.001604	3.4e-05
0.6	293.15	0.5001	0.001682	3.6e-05
0.6	303.15	0	0.001044	2.2e-05
0.6	303.15	0.1001	0.001089	2.3e-05
0.6	303.15	0.2	0.001136	2.4e-05
0.6	303.15	0.3	0.001185	2.5e-05
0.6	303.15	0.4	0.001236	2.6e-05
0.6	303.15	0.5001	0.001296	2.7e-05
0.6	313.15	0	0.000841	1.8e-05
0.6	313.15	0.1001	0.000875	1.9e-05
0.6	313.15	0.2	0.000909	1.9e-05
0.6	313.15	0.3	0.000946	2e-05
0.6	313.15	0.4	0.000983	2.1e-05
0.6	313.15	0.5001	0.001024	2.2e-05
0.6	323.15	0	0.000693	1.5e-05
0.6	323.15	0.1001	0.000719	1.5e-05
0.6	323.15	0.2	0.000744	1.6e-05
0.6	323.15	0.3	0.000772	1.6e-05
0.6	323.15	0.4	0.000799	1.7e-05
0.6	323.15	0.5001	0.000826	1.7e-05
0.8	293.15	0	0.001494	3.2e-05
0.8	293.15	0.1	0.001562	3.3e-05
0.8	293.15	0.2	0.001633	3.4e-05
0.8	293.15	0.3	0.001711	3.6e-05
0.8	293.15	0.4	0.001795	3.8e-05
0.8	293.15	0.5	0.001883	4e-05
0.8	303.15	0	0.001151	2.4e-05
0.8	303.15	0.1	0.001201	2.5e-05
0.8	303.15	0.2	0.001253	2.6e-05
0.8	303.15	0.3	0.001309	2.8e-05
0.8	303.15	0.4	0.001367	2.9e-05
0.8	303.15	0.5	0.001431	3e-05
0.8	313.15	0	0.000917	1.9e-05
0.8	313.15	0.1	0.000956	2e-05
0.8	313.15	0.2	0.000994	2.1e-05
0.8	313.15	0.3	0.001035	2.2e-05
0.8	313.15	0.4	0.001079	2.3e-05
0.8	313.15	0.5	0.001125	2.4e-05
0.8	323.15	0	0.000752	1.6e-05
0.8	323.15	0.1	0.000781	1.7e-05
0.8	323.15	0.2	0.000811	1.7e-05
0.8	323.15	0.3	0.000842	1.8e-05
0.8	323.15	0.4	0.000874	1.9e-05
0.8	323.15	0.5	0.000907	1.9e-05
1	293.15	0	0.001643	3.5e-05
1	293.15	0.1	0.00172	3.6e-05
1	293.15	0.2	0.001801	3.8e-05
1	293.15	0.3	0.001891	4e-05
1	293.15	0.4	0.001985	4.2e-05
1	293.15	0.5	0.002087	4.4e-05
1	303.15	0	0.001262	2.7e-05
1	303.15	0.1	0.001318	2.8e-05
1	303.15	0.2	0.001376	2.9e-05
1	303.15	0.3	0.00144	3e-05
1	303.15	0.4	0.001507	3.2e-05
1	303.15	0.5	0.001578	3.3e-05
1	313.15	0	0.001001	2.1e-05
1	313.15	0.1	0.001044	2.2e-05
1	313.15	0.2	0.001087	2.3e-05
1	313.15	0.3	0.001132	2.4e-05
1	313.15	0.4	0.00118	2.5e-05
1	313.15	0.5	0.001231	2.6e-05
1	323.15	0	0.000814	1.7e-05
1	323.15	0.1	0.000848	1.8e-05
1	323.15	0.2	0.000879	1.9e-05
1	323.15	0.3	0.000914	1.9e-05
1	323.15	0.4	0.000948	2e-05
1	323.15	0.5	0.000984	2.1e-05

System: D-mannitol + L-threonine + water; phases: Liquid
Fixed: Pressure, kPa = 101.3
Property: Mass density, kg/m3 (Liquid); method: Vibrating tube method
Solvent: Molality, mol/kg of D-mannitol	Temperature, K	Molality, mol/kg of L-threonine	Mass density, kg/m3	uncertainty
0	293.15	0	998.19	0.18
0	293.15	0.0999	1002.41	0.18
0	293.15	0.1999	1006.56	0.18
0	293.15	0.2999	1010.63	0.18
0	293.15	0.4002	1014.64	0.18
0	293.15	0.5	1018.55	0.18
0	293.15	0.6	1022.4	0.19
0	293.15	0.6998	1026.16	0.19
0	303.15	0	995.64	0.18
0	303.15	0.0999	999.81	0.18
0	303.15	0.1999	1003.9	0.18
0	303.15	0.2999	1007.92	0.18
0	303.15	0.4002	1011.87	0.18
0	303.15	0.5	1015.73	0.18
0	303.15	0.6	1019.52	0.18
0	303.15	0.6998	1023.24	0.19
0	313.15	0	992.2	0.18
0	313.15	0.0999	996.32	0.18
0	313.15	0.1999	1000.37	0.18
0	313.15	0.2999	1004.34	0.18
0	313.15	0.4002	1008.25	0.18
0	313.15	0.5	1012.07	0.18
0	313.15	0.6	1015.83	0.18
0	313.15	0.6998	1019.52	0.18
0	323.15	0	988.03	0.18
0	323.15	0.0999	992.11	0.18
0	323.15	0.1999	996.12	0.18
0	323.15	0.2999	1000.05	0.18
0	323.15	0.4002	1003.93	0.18
0	323.15	0.5	1007.71	0.18
0	323.15	0.6	1011.44	0.18
0	323.15	0.6998	1015.1	0.18
0.2	293.15	0	1010.52	0.18
0.2	293.15	0.1	1014.7	0.18
0.2	293.15	0.2003	1018.78	0.18
0.2	293.15	0.3	1022.77	0.19
0.2	293.15	0.4002	1026.69	0.19
0.2	293.15	0.5	1030.52	0.19
0.2	293.15	0.5997	1034.25	0.19
0.2	293.15	0.6998	1037.93	0.19
0.2	303.15	0	1007.82	0.18
0.2	303.15	0.1	1011.93	0.18
0.2	303.15	0.2003	1015.97	0.18
0.2	303.15	0.3	1019.9	0.18
0.2	303.15	0.4002	1023.76	0.19
0.2	303.15	0.5	1027.54	0.19
0.2	303.15	0.5997	1031.23	0.19
0.2	303.15	0.6998	1034.86	0.19
0.2	313.15	0	1004.26	0.18
0.2	313.15	0.1	1008.32	0.18
0.2	313.15	0.2003	1012.31	0.18
0.2	313.15	0.3	1016.2	0.18
0.2	313.15	0.4002	1020.03	0.18
0.2	313.15	0.5	1023.77	0.19
0.2	313.15	0.5997	1027.41	0.19
0.2	313.15	0.6998	1031	0.19
0.2	323.15	0	999.96	0.18
0.2	323.15	0.1	1003.98	0.18
0.2	323.15	0.2003	1007.93	0.18
0.2	323.15	0.3	1011.79	0.18
0.2	323.15	0.4002	1015.59	0.18
0.2	323.15	0.5	1019.3	0.18
0.2	323.15	0.5997	1022.93	0.19
0.2	323.15	0.6998	1026.51	0.19
0.4	293.15	0	1022.31	0.19
0.4	293.15	0.0999	1026.42	0.19
0.4	293.15	0.2001	1030.43	0.19
0.4	293.15	0.3	1034.36	0.19
0.4	293.15	0.3998	1038.18	0.19
0.4	293.15	0.5	1041.93	0.19
0.4	293.15	0.6	1045.59	0.2
0.4	293.15	0.7	1049.16	0.2
0.4	303.15	0	1019.39	0.18
0.4	303.15	0.0999	1023.45	0.19
0.4	303.15	0.2001	1027.41	0.19
0.4	303.15	0.3	1031.28	0.19
0.4	303.15	0.3998	1035.06	0.19
0.4	303.15	0.5	1038.78	0.19
0.4	303.15	0.6	1042.39	0.19
0.4	303.15	0.7	1045.93	0.2
0.4	313.15	0	1015.74	0.18
0.4	313.15	0.0999	1019.73	0.18
0.4	313.15	0.2001	1023.65	0.19
0.4	313.15	0.3	1027.48	0.19
0.4	313.15	0.3998	1031.23	0.19
0.4	313.15	0.5	1034.91	0.19
0.4	313.15	0.6	1038.51	0.19
0.4	313.15	0.7	1042.03	0.19
0.4	323.15	0	1011.28	0.18
0.4	323.15	0.0999	1015.24	0.18
0.4	323.15	0.2001	1019.12	0.18
0.4	323.15	0.3	1022.93	0.19
0.4	323.15	0.3998	1026.66	0.19
0.4	323.15	0.5	1030.34	0.19
0.4	323.15	0.6	1033.95	0.19
0.4	323.15	0.7	1037.48	0.19
0.6	293.15	0	1033.43	0.19
0.6	293.15	0.1	1037.49	0.19
0.6	293.15	0.1998	1041.44	0.19
0.6	293.15	0.3	1045.31	0.2
0.6	293.15	0.3999	1049.08	0.2
0.6	293.15	0.5	1052.76	0.2
0.6	293.15	0.6	1056.35	0.2
0.6	293.15	0.7	1059.85	0.2
0.6	303.15	0	1030.35	0.19
0.6	303.15	0.1	1034.34	0.19
0.6	303.15	0.1998	1038.24	0.19
0.6	303.15	0.3	1042.06	0.19
0.6	303.15	0.3999	1045.79	0.2
0.6	303.15	0.5	1049.43	0.2
0.6	303.15	0.6	1052.98	0.2
0.6	303.15	0.7	1056.46	0.2
0.6	313.15	0	1026.6	0.19
0.6	313.15	0.1	1030.53	0.19
0.6	313.15	0.1998	1034.38	0.19
0.6	313.15	0.3	1038.16	0.19
0.6	313.15	0.3999	1041.84	0.19
0.6	313.15	0.5	1045.44	0.2
0.6	313.15	0.6	1048.99	0.2
0.6	313.15	0.7	1052.43	0.2
0.6	323.15	0	1022.09	0.18
0.6	323.15	0.1	1025.98	0.19
0.6	323.15	0.1998	1029.79	0.19
0.6	323.15	0.3	1033.54	0.19
0.6	323.15	0.3999	1037.21	0.19
0.6	323.15	0.5	1040.82	0.19
0.6	323.15	0.6	1044.34	0.19
0.6	323.15	0.7	1047.79	0.2
0.8	293.15	0	1043.98	0.19
0.8	293.15	0.1	1047.99	0.2
0.8	293.15	0.2001	1051.88	0.2
0.8	293.15	0.3	1055.68	0.2
0.8	293.15	0.4	1059.37	0.2
0.8	293.15	0.4999	1062.96	0.2
0.8	293.15	0.6001	1066.47	0.21
0.8	293.15	0.6998	1069.86	0.21
0.8	303.15	0	1040.88	0.19
0.8	303.15	0.1	1044.82	0.2
0.8	303.15	0.2001	1048.65	0.2
0.8	303.15	0.3	1052.38	0.2
0.8	303.15	0.4	1056.01	0.2
0.8	303.15	0.4999	1059.54	0.2
0.8	303.15	0.6001	1062.99	0.2
0.8	303.15	0.6998	1066.34	0.21
0.8	313.15	0	1036.92	0.19
0.8	313.15	0.1	1040.8	0.19
0.8	313.15	0.2001	1044.6	0.2
0.8	313.15	0.3	1048.29	0.2
0.8	313.15	0.4	1051.9	0.2
0.8	313.15	0.4999	1055.43	0.2
0.8	313.15	0.6001	1058.89	0.2
0.8	313.15	0.6998	1062.24	0.2
0.8	323.15	0	1032.28	0.19
0.8	323.15	0.1	1036.11	0.19
0.8	323.15	0.2001	1039.87	0.19
0.8	323.15	0.3	1043.55	0.19
0.8	323.15	0.4	1047.15	0.2
0.8	323.15	0.4999	1050.69	0.2
0.8	323.15	0.6001	1054.17	0.2
0.8	323.15	0.6998	1057.55	0.2
1	293.15	0	1054.13	0.2
1	293.15	0.1002	1058.09	0.2
1	293.15	0.2002	1061.91	0.2
1	293.15	0.3	1065.6	0.2
1	293.15	0.4001	1069.19	0.21
1	293.15	0.5002	1072.67	0.21
1	293.15	0.6	1076.04	0.21
1	293.15	0.7	1079.29	0.21
1	303.15	0	1050.85	0.2
1	303.15	0.1002	1054.74	0.2
1	303.15	0.2002	1058.5	0.2
1	303.15	0.3	1062.16	0.2
1	303.15	0.4001	1065.72	0.2
1	303.15	0.5002	1069.17	0.21
1	303.15	0.6	1072.53	0.21
1	303.15	0.7	1075.79	0.21
1	313.15	0	1046.79	0.2
1	313.15	0.1002	1050.62	0.2
1	313.15	0.2002	1054.34	0.2
1	313.15	0.3	1057.95	0.2
1	313.15	0.4001	1061.47	0.2
1	313.15	0.5002	1064.9	0.2
1	313.15	0.6	1068.25	0.21
1	313.15	0.7	1071.49	0.21
1	323.15	0	1042.15	0.19
1	323.15	0.1002	1045.92	0.2
1	323.15	0.2002	1049.6	0.2
1	323.15	0.3	1053.19	0.2
1	323.15	0.4001	1056.7	0.2
1	323.15	0.5002	1060.14	0.2
1	323.15	0.6	1063.5	0.2
1	323.15	0.7	1066.78	0.21

System: D-mannitol + L-threonine + water; phases: Liquid
Fixed: Pressure, kPa = 101.3
Property: Viscosity, Pa*s (Liquid); method: Capillary tube (Ostwald; Ubbelohde) method
Solvent: Molality, mol/kg of D-mannitol	Temperature, K	Molality, mol/kg of L-threonine	Viscosity, Pa*s	uncertainty
0	293.15	0	0.001002	2.12e-05
0	293.15	0.0999	0.001035	2.2e-05
0	293.15	0.1999	0.001072	2.3e-05
0	293.15	0.2999	0.001107	2.3e-05
0	293.15	0.4002	0.001145	2.4e-05
0	293.15	0.5	0.001184	2.5e-05
0	293.15	0.6	0.001225	2.6e-05
0	293.15	0.6998	0.001269	2.7e-05
0	303.15	0	0.0007975	1.69e-05
0	303.15	0.0999	0.000823	1.7e-05
0	303.15	0.1999	0.000849	1.8e-05
0	303.15	0.2999	0.000876	1.9e-05
0	303.15	0.4002	0.000905	1.9e-05
0	303.15	0.5	0.000934	2e-05
0	303.15	0.6	0.000965	2e-05
0	303.15	0.6998	0.000996	2.1e-05
0	313.15	0	0.0006532	1.39e-05
0	313.15	0.0999	0.000673	1.4e-05
0	313.15	0.1999	0.000693	1.5e-05
0	313.15	0.2999	0.000714	1.5e-05
0	313.15	0.4002	0.000736	1.6e-05
0	313.15	0.5	0.000759	1.6e-05
0	313.15	0.6	0.000782	1.7e-05
0	313.15	0.6998	0.000806	1.7e-05
0	323.15	0	0.0005471	1.16e-05
0	323.15	0.0999	0.000562	1.2e-05
0	323.15	0.1999	0.000579	1.2e-05
0	323.15	0.2999	0.000595	1.3e-05
0	323.15	0.4002	0.000613	1.3e-05
0	323.15	0.5	0.00063	1.3e-05
0	323.15	0.6	0.000649	1.4e-05
0	323.15	0.6998	0.000667	1.4e-05
0.2	293.15	0	0.001104	2.3e-05
0.2	293.15	0.1	0.001143	2.4e-05
0.2	293.15	0.2003	0.001184	2.5e-05
0.2	293.15	0.3	0.001227	2.6e-05
0.2	293.15	0.4002	0.001269	2.7e-05
0.2	293.15	0.5	0.001313	2.8e-05
0.2	293.15	0.5997	0.00136	2.9e-05
0.2	293.15	0.6998	0.001412	3e-05
0.2	303.15	0	0.000874	1.9e-05
0.2	303.15	0.1	0.000902	1.9e-05
0.2	303.15	0.2003	0.000933	2e-05
0.2	303.15	0.3	0.000965	2e-05
0.2	303.15	0.4002	0.000996	2.1e-05
0.2	303.15	0.5	0.001029	2.2e-05
0.2	303.15	0.5997	0.001063	2.2e-05
0.2	303.15	0.6998	0.0011	2.3e-05
0.2	313.15	0	0.000711	1.5e-05
0.2	313.15	0.1	0.000733	1.6e-05
0.2	313.15	0.2003	0.000757	1.6e-05
0.2	313.15	0.3	0.000781	1.7e-05
0.2	313.15	0.4002	0.000805	1.7e-05
0.2	313.15	0.5	0.00083	1.8e-05
0.2	313.15	0.5997	0.000856	1.8e-05
0.2	313.15	0.6998	0.000886	1.9e-05
0.2	323.15	0	0.000592	1.3e-05
0.2	323.15	0.1	0.00061	1.3e-05
0.2	323.15	0.2003	0.000628	1.3e-05
0.2	323.15	0.3	0.000646	1.4e-05
0.2	323.15	0.4002	0.000666	1.4e-05
0.2	323.15	0.5	0.000686	1.5e-05
0.2	323.15	0.5997	0.000707	1.5e-05
0.2	323.15	0.6998	0.00073	1.5e-05
0.4	293.15	0	0.001221	2.6e-05
0.4	293.15	0.0999	0.001266	2.7e-05
0.4	293.15	0.2001	0.001311	2.8e-05
0.4	293.15	0.3	0.001359	2.9e-05
0.4	293.15	0.3998	0.001409	3e-05
0.4	293.15	0.5	0.001462	3.1e-05
0.4	293.15	0.6	0.001513	3.2e-05
0.4	293.15	0.7	0.001566	3.3e-05
0.4	303.15	0	0.000959	2e-05
0.4	303.15	0.0999	0.000992	2.1e-05
0.4	303.15	0.2001	0.001025	2.2e-05
0.4	303.15	0.3	0.001061	2.2e-05
0.4	303.15	0.3998	0.001098	2.3e-05
0.4	303.15	0.5	0.001137	2.4e-05
0.4	303.15	0.6	0.001175	2.5e-05
0.4	303.15	0.7	0.001215	2.6e-05
0.4	313.15	0	0.000775	1.6e-05
0.4	313.15	0.0999	0.000801	1.7e-05
0.4	313.15	0.2001	0.000826	1.7e-05
0.4	313.15	0.3	0.000853	1.8e-05
0.4	313.15	0.3998	0.000881	1.9e-05
0.4	313.15	0.5	0.000911	1.9e-05
0.4	313.15	0.6	0.000939	2e-05
0.4	313.15	0.7	0.00097	2.1e-05
0.4	323.15	0	0.000642	1.4e-05
0.4	323.15	0.0999	0.000661	1.4e-05
0.4	323.15	0.2001	0.000681	1.4e-05
0.4	323.15	0.3	0.000702	1.5e-05
0.4	323.15	0.3998	0.000725	1.5e-05
0.4	323.15	0.5	0.000747	1.6e-05
0.4	323.15	0.6	0.000769	1.6e-05
0.4	323.15	0.7	0.000793	1.7e-05
0.6	293.15	0	0.001336	2.8e-05
0.6	293.15	0.1	0.001387	2.9e-05
0.6	293.15	0.1998	0.001438	3e-05
0.6	293.15	0.3	0.001491	3.1e-05
0.6	293.15	0.3999	0.001545	3.3e-05
0.6	293.15	0.5	0.001605	3.4e-05
0.6	293.15	0.6	0.001662	3.5e-05
0.6	293.15	0.7	0.001723	3.6e-05
0.6	303.15	0	0.001044	2.2e-05
0.6	303.15	0.1	0.001082	2.3e-05
0.6	303.15	0.1998	0.00112	2.4e-05
0.6	303.15	0.3	0.001161	2.5e-05
0.6	303.15	0.3999	0.001198	2.5e-05
0.6	303.15	0.5	0.001242	2.6e-05
0.6	303.15	0.6	0.001285	2.7e-05
0.6	303.15	0.7	0.001332	2.8e-05
0.6	313.15	0	0.000841	1.8e-05
0.6	313.15	0.1	0.000868	1.8e-05
0.6	313.15	0.1998	0.000897	1.9e-05
0.6	313.15	0.3	0.000929	2e-05
0.6	313.15	0.3999	0.000959	2e-05
0.6	313.15	0.5	0.000991	2.1e-05
0.6	313.15	0.6	0.001023	2.2e-05
0.6	313.15	0.7	0.001058	2.2e-05
0.6	323.15	0	0.000693	1.5e-05
0.6	323.15	0.1	0.000714	1.5e-05
0.6	323.15	0.1998	0.000736	1.6e-05
0.6	323.15	0.3	0.00076	1.6e-05
0.6	323.15	0.3999	0.000784	1.7e-05
0.6	323.15	0.5	0.00081	1.7e-05
0.6	323.15	0.6	0.000835	1.8e-05
0.6	323.15	0.7	0.00086	1.8e-05
0.8	293.15	0	0.001494	3.2e-05
0.8	293.15	0.1	0.001552	3.3e-05
0.8	293.15	0.2001	0.001613	3.4e-05
0.8	293.15	0.3	0.001676	3.5e-05
0.8	293.15	0.4	0.001744	3.7e-05
0.8	293.15	0.4999	0.001814	3.8e-05
0.8	293.15	0.6001	0.001885	4e-05
0.8	293.15	0.6998	0.00196	4.1e-05
0.8	303.15	0	0.001151	2.4e-05
0.8	303.15	0.1	0.001192	2.5e-05
0.8	303.15	0.2001	0.001237	2.6e-05
0.8	303.15	0.3	0.001283	2.7e-05
0.8	303.15	0.4	0.001331	2.8e-05
0.8	303.15	0.4999	0.00138	2.9e-05
0.8	303.15	0.6001	0.001432	3e-05
0.8	303.15	0.6998	0.001485	3.1e-05
0.8	313.15	0	0.000917	1.9e-05
0.8	313.15	0.1	0.00095	2e-05
0.8	313.15	0.2001	0.000982	2.1e-05
0.8	313.15	0.3	0.001016	2.1e-05
0.8	313.15	0.4	0.001053	2.2e-05
0.8	313.15	0.4999	0.00109	2.3e-05
0.8	313.15	0.6001	0.001129	2.4e-05
0.8	313.15	0.6998	0.001169	2.5e-05
0.8	323.15	0	0.000752	1.6e-05
0.8	323.15	0.1	0.000777	1.6e-05
0.8	323.15	0.2001	0.000802	1.7e-05
0.8	323.15	0.3	0.000828	1.8e-05
0.8	323.15	0.4	0.000856	1.8e-05
0.8	323.15	0.4999	0.000884	1.9e-05
0.8	323.15	0.6001	0.000914	1.9e-05
0.8	323.15	0.6998	0.000945	2e-05
1	293.15	0	0.001643	3.5e-05
1	293.15	0.1002	0.001708	3.6e-05
1	293.15	0.2002	0.001776	3.7e-05
1	293.15	0.3	0.001846	3.9e-05
1	293.15	0.4001	0.001923	4.1e-05
1	293.15	0.5002	0.001998	4.2e-05
1	293.15	0.6	0.002074	4.4e-05
1	293.15	0.7	0.002159	4.6e-05
1	303.15	0	0.001262	2.7e-05
1	303.15	0.1002	0.001309	2.8e-05
1	303.15	0.2002	0.001358	2.9e-05
1	303.15	0.3	0.001411	3e-05
1	303.15	0.4001	0.001466	3.1e-05
1	303.15	0.5002	0.001519	3.2e-05
1	303.15	0.6	0.001574	3.3e-05
1	303.15	0.7	0.001638	3.5e-05
1	313.15	0	0.001	2.1e-05
1	313.15	0.1002	0.001036	2.2e-05
1	313.15	0.2002	0.001074	2.3e-05
1	313.15	0.3	0.001112	2.3e-05
1	313.15	0.4001	0.001152	2.4e-05
1	313.15	0.5002	0.001192	2.5e-05
1	313.15	0.6	0.001235	2.6e-05
1	313.15	0.7	0.001281	2.7e-05
1	323.15	0	0.000814	1.7e-05
1	323.15	0.1002	0.000842	1.8e-05
1	323.15	0.2002	0.00087	1.8e-05
1	323.15	0.3	0.0009	1.9e-05
1	323.15	0.4001	0.000931	2e-05
1	323.15	0.5002	0.000961	2e-05
1	323.15	0.6	0.000994	2.1e-05
1	323.15	0.7	0.00103	2.2e-05

System: D-mannitol + L-arginine + water; phases: Liquid
Fixed: Pressure, kPa = 101.3
Property: Mass density, kg/m3 (Liquid); method: Vibrating tube method
Solvent: Molality, mol/kg of D-mannitol	Temperature, K	Molality, mol/kg of L-arginine	Mass density, kg/m3	uncertainty
0	293.15	0	998.19	0.27
0	293.15	0.1	1003.17	0.27
0	293.15	0.2	1008	0.27
0	293.15	0.3001	1012.68	0.28
0	293.15	0.4	1017.21	0.28
0	293.15	0.5	1021.6	0.28
0	293.15	0.6	1025.86	0.29
0	293.15	0.7	1030	0.29
0	303.15	0	995.64	0.27
0	303.15	0.1	1000.55	0.27
0	303.15	0.2	1005.3	0.27
0	303.15	0.3001	1009.91	0.27
0	303.15	0.4	1014.38	0.28
0	303.15	0.5	1018.71	0.28
0	303.15	0.6	1022.9	0.29
0	303.15	0.7	1026.97	0.29
0	313.15	0	992.2	0.27
0	313.15	0.1	997.05	0.27
0	313.15	0.2	1001.75	0.27
0	313.15	0.3001	1006.31	0.27
0	313.15	0.4	1010.73	0.28
0	313.15	0.5	1015.01	0.28
0	313.15	0.6	1019.15	0.28
0	313.15	0.7	1023.18	0.29
0	323.15	0	988.03	0.27
0	323.15	0.1	992.84	0.27
0	323.15	0.2	997.5	0.27
0	323.15	0.3001	1002.03	0.27
0	323.15	0.4	1006.41	0.27
0	323.15	0.5	1010.67	0.27
0	323.15	0.6	1014.8	0.28
0	323.15	0.7	1018.82	0.28
0.2	293.15	0	1010.52	0.27
0.2	293.15	0.1	1015.35	0.28
0.2	293.15	0.2	1020.05	0.28
0.2	293.15	0.3	1024.61	0.29
0.2	293.15	0.4	1029.04	0.29
0.2	293.15	0.5	1033.35	0.29
0.2	293.15	0.6001	1037.53	0.3
0.2	293.15	0.7	1041.61	0.3
0.2	303.15	0	1007.82	0.27
0.2	303.15	0.1	1012.58	0.28
0.2	303.15	0.2	1017.21	0.28
0.2	303.15	0.3	1021.7	0.28
0.2	303.15	0.4	1026.07	0.29
0.2	303.15	0.5	1030.31	0.29
0.2	303.15	0.6001	1034.44	0.29
0.2	303.15	0.7	1038.46	0.3
0.2	313.15	0	1004.26	0.27
0.2	313.15	0.1	1008.97	0.27
0.2	313.15	0.2	1013.55	0.28
0.2	313.15	0.3	1017.99	0.28
0.2	313.15	0.4	1022.31	0.28
0.2	313.15	0.5	1026.5	0.29
0.2	313.15	0.6001	1030.59	0.29
0.2	313.15	0.7	1034.56	0.3
0.2	323.15	0	999.96	0.27
0.2	323.15	0.1	1004.63	0.27
0.2	323.15	0.2	1009.17	0.27
0.2	323.15	0.3	1013.58	0.28
0.2	323.15	0.4	1017.87	0.28
0.2	323.15	0.5	1022.03	0.28
0.2	323.15	0.6001	1026.09	0.29
0.2	323.15	0.7	1030.03	0.29
0.4	293.15	0	1022.31	0.28
0.4	293.15	0.1	1027	0.29
0.4	293.15	0.2	1031.56	0.29
0.4	293.15	0.3	1035.98	0.3
0.4	293.15	0.4	1040.28	0.3
0.4	293.15	0.5	1044.47	0.3
0.4	293.15	0.6	1048.54	0.31
0.4	293.15	0.7	1052.5	0.31
0.4	303.15	0	1019.39	0.28
0.4	303.15	0.1	1024.03	0.29
0.4	303.15	0.2	1028.53	0.29
0.4	303.15	0.3	1032.9	0.29
0.4	303.15	0.4	1037.16	0.3
0.4	303.15	0.5	1041.29	0.3
0.4	303.15	0.6	1045.31	0.3
0.4	303.15	0.7	1049.22	0.31
0.4	313.15	0	1015.74	0.28
0.4	313.15	0.1	1020.33	0.28
0.4	313.15	0.2	1024.78	0.29
0.4	313.15	0.3	1029.11	0.29
0.4	313.15	0.4	1033.32	0.29
0.4	313.15	0.5	1037.41	0.3
0.4	313.15	0.6	1041.4	0.3
0.4	313.15	0.7	1045.27	0.3
0.4	323.15	0	1011.28	0.28
0.4	323.15	0.1	1015.84	0.28
0.4	323.15	0.2	1020.27	0.28
0.4	323.15	0.3	1024.57	0.29
0.4	323.15	0.4	1028.76	0.29
0.4	323.15	0.5	1032.83	0.29
0.4	323.15	0.6	1036.81	0.3
0.4	323.15	0.7	1040.66	0.3
0.6	293.15	0	1033.43	0.29
0.6	293.15	0.1	1038.02	0.3
0.6	293.15	0.2	1042.48	0.3
0.6	293.15	0.3	1046.79	0.31
0.6	293.15	0.4	1050.98	0.31
0.6	293.15	0.5	1055.05	0.31
0.6	293.15	0.6	1059	0.32
0.6	293.15	0.6999	1062.83	0.32
0.6	303.15	0	1030.35	0.29
0.6	303.15	0.1	1034.88	0.3
0.6	303.15	0.2	1039.28	0.3
0.6	303.15	0.3	1043.55	0.3
0.6	303.15	0.4	1047.71	0.31
0.6	303.15	0.5	1051.75	0.31
0.6	303.15	0.6	1055.66	0.31
0.6	303.15	0.6999	1059.46	0.32
0.6	313.15	0	1026.6	0.29
0.6	313.15	0.1	1031.08	0.29
0.6	313.15	0.2	1035.44	0.3
0.6	313.15	0.3	1039.66	0.3
0.6	313.15	0.4	1043.78	0.3
0.6	313.15	0.5	1047.77	0.31
0.6	313.15	0.6	1051.66	0.31
0.6	313.15	0.6999	1055.43	0.31
0.6	323.15	0	1022.09	0.28
0.6	323.15	0.1	1026.55	0.29
0.6	323.15	0.2	1030.88	0.29
0.6	323.15	0.3	1035.09	0.3
0.6	323.15	0.4	1039.18	0.3
0.6	323.15	0.5	1043.16	0.3
0.6	323.15	0.6	1047.03	0.31
0.6	323.15	0.6999	1050.79	0.31
0.8	293.15	0	1043.98	0.3
0.8	293.15	0.1001	1048.45	0.31
0.8	293.15	0.2	1052.79	0.31
0.8	293.15	0.3	1057	0.31
0.8	293.15	0.4	1061.07	0.32
0.8	293.15	0.5	1065.04	0.32
0.8	293.15	0.5999	1068.88	0.32
0.8	293.15	0.7	1072.61	0.33
0.8	303.15	0	1040.88	0.3
0.8	303.15	0.1001	1045.29	0.3
0.8	303.15	0.2	1049.56	0.31
0.8	303.15	0.3	1053.71	0.31
0.8	303.15	0.4	1057.74	0.31
0.8	303.15	0.5	1061.65	0.32
0.8	303.15	0.5999	1065.44	0.32
0.8	303.15	0.7	1069.13	0.32
0.8	313.15	0	1036.92	0.3
0.8	313.15	0.1001	1041.28	0.3
0.8	313.15	0.2	1045.5	0.3
0.8	313.15	0.3	1049.59	0.31
0.8	313.15	0.4	1053.57	0.31
0.8	313.15	0.5	1057.44	0.31
0.8	313.15	0.5999	1061.19	0.32
0.8	313.15	0.7	1064.83	0.32
0.8	323.15	0	1032.28	0.29
0.8	323.15	0.1001	1036.6	0.3
0.8	323.15	0.2	1040.8	0.3
0.8	323.15	0.3	1044.88	0.3
0.8	323.15	0.4	1048.84	0.31
0.8	323.15	0.5	1052.7	0.31
0.8	323.15	0.5999	1056.44	0.31
0.8	323.15	0.7	1060.09	0.32
1	293.15	0	1054.13	0.31
1	293.15	0.1	1058.5	0.32
1	293.15	0.2	1062.73	0.32
1	293.15	0.3	1066.83	0.32
1	293.15	0.4	1070.8	0.33
1	293.15	0.5	1074.64	0.33
1	293.15	0.5999	1078.35	0.33
1	293.15	0.7	1081.96	0.34
1	303.15	0	1050.85	0.31
1	303.15	0.1	1055.16	0.31
1	303.15	0.2	1059.34	0.32
1	303.15	0.3	1063.38	0.32
1	303.15	0.4	1067.3	0.32
1	303.15	0.5	1071.09	0.33
1	303.15	0.5999	1074.77	0.33
1	303.15	0.7	1078.34	0.33
1	313.15	0	1046.79	0.31
1	313.15	0.1	1051.05	0.31
1	313.15	0.2	1055.18	0.31
1	313.15	0.3	1059.19	0.32
1	313.15	0.4	1063.08	0.32
1	313.15	0.5	1066.84	0.32
1	313.15	0.5999	1070.51	0.33
1	313.15	0.7	1074.04	0.33
1	323.15	0	1042.15	0.3
1	323.15	0.1	1046.38	0.31
1	323.15	0.2	1050.48	0.31
1	323.15	0.3	1054.46	0.31
1	323.15	0.4	1058.33	0.32
1	323.15	0.5	1062.08	0.32
1	323.15	0.5999	1065.73	0.32
1	323.15	0.7	1069.27	0.32

System: D-mannitol + L-arginine + water; phases: Liquid
Fixed: Pressure, kPa = 101.3
Property: Viscosity, Pa*s (Liquid); method: Capillary tube (Ostwald; Ubbelohde) method
Solvent: Molality, mol/kg of D-mannitol	Temperature, K	Molality, mol/kg of L-arginine	Viscosity, Pa*s	uncertainty
0	293.15	0	0.001002	2.15e-05
0	293.15	0.1	0.001054	2.3e-05
0	293.15	0.2	0.001108	2.4e-05
0	293.15	0.3001	0.001167	2.5e-05
0	293.15	0.4	0.00123	2.6e-05
0	293.15	0.5	0.001298	2.8e-05
0	293.15	0.6	0.001362	2.9e-05
0	293.15	0.7	0.001435	3.1e-05
0	303.15	0	0.0007975	1.72e-05
0	303.15	0.1	0.000838	1.8e-05
0	303.15	0.2	0.000879	1.9e-05
0	303.15	0.3001	0.000923	2e-05
0	303.15	0.4	0.00097	2.1e-05
0	303.15	0.5	0.001021	2.2e-05
0	303.15	0.6	0.001069	2.3e-05
0	303.15	0.7	0.001124	2.4e-05
0	313.15	0	0.0006532	1.41e-05
0	313.15	0.1	0.000685	1.5e-05
0	313.15	0.2	0.000717	1.5e-05
0	313.15	0.3001	0.000751	1.6e-05
0	313.15	0.4	0.000788	1.7e-05
0	313.15	0.5	0.000826	1.8e-05
0	313.15	0.6	0.000864	1.9e-05
0	313.15	0.7	0.000905	1.9e-05
0	323.15	0	0.0005471	1.18e-05
0	323.15	0.1	0.000572	1.2e-05
0	323.15	0.2	0.000598	1.3e-05
0	323.15	0.3001	0.000625	1.4e-05
0	323.15	0.4	0.000654	1.4e-05
0	323.15	0.5	0.000684	1.5e-05
0	323.15	0.6	0.000714	1.5e-05
0	323.15	0.7	0.000747	1.6e-05
0.2	293.15	0	0.001104	2.4e-05
0.2	293.15	0.1	0.001164	2.5e-05
0.2	293.15	0.2	0.00123	2.6e-05
0.2	293.15	0.3	0.001298	2.8e-05
0.2	293.15	0.4	0.001374	3e-05
0.2	293.15	0.5	0.001449	3.1e-05
0.2	293.15	0.6001	0.001534	3.3e-05
0.2	293.15	0.7	0.001623	3.5e-05
0.2	303.15	0	0.000874	1.9e-05
0.2	303.15	0.1	0.000919	2e-05
0.2	303.15	0.2	0.000968	2.1e-05
0.2	303.15	0.3	0.001019	2.2e-05
0.2	303.15	0.4	0.001075	2.3e-05
0.2	303.15	0.5	0.001132	2.4e-05
0.2	303.15	0.6001	0.001194	2.6e-05
0.2	303.15	0.7	0.00126	2.7e-05
0.2	313.15	0	0.000711	1.5e-05
0.2	313.15	0.1	0.000746	1.6e-05
0.2	313.15	0.2	0.000784	1.7e-05
0.2	313.15	0.3	0.000824	1.8e-05
0.2	313.15	0.4	0.000866	1.9e-05
0.2	313.15	0.5	0.000911	2e-05
0.2	313.15	0.6001	0.000958	2.1e-05
0.2	313.15	0.7	0.001009	2.2e-05
0.2	323.15	0	0.000592	1.3e-05
0.2	323.15	0.1	0.000619	1.3e-05
0.2	323.15	0.2	0.00065	1.4e-05
0.2	323.15	0.3	0.000682	1.5e-05
0.2	323.15	0.4	0.000715	1.5e-05
0.2	323.15	0.5	0.000751	1.6e-05
0.2	323.15	0.6001	0.000787	1.7e-05
0.2	323.15	0.7	0.000826	1.8e-05
0.4	293.15	0	0.001221	2.6e-05
0.4	293.15	0.1	0.001289	2.8e-05
0.4	293.15	0.2	0.001363	2.9e-05
0.4	293.15	0.3	0.001441	3.1e-05
0.4	293.15	0.4	0.001529	3.3e-05
0.4	293.15	0.5	0.001618	3.5e-05
0.4	293.15	0.6	0.001714	3.7e-05
0.4	293.15	0.7	0.001814	3.9e-05
0.4	303.15	0	0.000959	2.1e-05
0.4	303.15	0.1	0.00101	2.2e-05
0.4	303.15	0.2	0.001065	2.3e-05
0.4	303.15	0.3	0.001124	2.4e-05
0.4	303.15	0.4	0.001188	2.6e-05
0.4	303.15	0.5	0.001254	2.7e-05
0.4	303.15	0.6	0.001324	2.8e-05
0.4	303.15	0.7	0.001398	3e-05
0.4	313.15	0	0.000776	1.7e-05
0.4	313.15	0.1	0.000815	1.8e-05
0.4	313.15	0.2	0.000857	1.8e-05
0.4	313.15	0.3	0.000903	1.9e-05
0.4	313.15	0.4	0.000952	2e-05
0.4	313.15	0.5	0.001002	2.2e-05
0.4	313.15	0.6	0.001056	2.3e-05
0.4	313.15	0.7	0.001112	2.4e-05
0.4	323.15	0	0.000642	1.4e-05
0.4	323.15	0.1	0.000673	1.5e-05
0.4	323.15	0.2	0.000707	1.5e-05
0.4	323.15	0.3	0.000743	1.6e-05
0.4	323.15	0.4	0.000781	1.7e-05
0.4	323.15	0.5	0.00082	1.8e-05
0.4	323.15	0.6	0.000862	1.9e-05
0.4	323.15	0.7	0.000906	1.9e-05
0.6	293.15	0	0.001336	2.9e-05
0.6	293.15	0.1	0.001413	3e-05
0.6	293.15	0.2	0.001499	3.2e-05
0.6	293.15	0.3	0.001591	3.4e-05
0.6	293.15	0.4	0.001691	3.6e-05
0.6	293.15	0.5	0.001801	3.9e-05
0.6	293.15	0.6	0.001916	4.1e-05
0.6	293.15	0.6999	0.002039	4.4e-05
0.6	303.15	0	0.001044	2.2e-05
0.6	303.15	0.1	0.001102	2.4e-05
0.6	303.15	0.2	0.001167	2.5e-05
0.6	303.15	0.3	0.001233	2.6e-05
0.6	303.15	0.4	0.001306	2.8e-05
0.6	303.15	0.5	0.001385	3e-05
0.6	303.15	0.6	0.001466	3.1e-05
0.6	303.15	0.6999	0.001559	3.3e-05
0.6	313.15	0	0.000841	1.8e-05
0.6	313.15	0.1	0.000885	1.9e-05
0.6	313.15	0.2	0.000934	2e-05
0.6	313.15	0.3	0.000986	2.1e-05
0.6	313.15	0.4	0.001042	2.2e-05
0.6	313.15	0.5	0.001099	2.4e-05
0.6	313.15	0.6	0.001164	2.5e-05
0.6	313.15	0.6999	0.00123	2.6e-05
0.6	323.15	0	0.000693	1.5e-05
0.6	323.15	0.1	0.000727	1.6e-05
0.6	323.15	0.2	0.000767	1.7e-05
0.6	323.15	0.3	0.000807	1.7e-05
0.6	323.15	0.4	0.00085	1.8e-05
0.6	323.15	0.5	0.000897	1.9e-05
0.6	323.15	0.6	0.000944	2e-05
0.6	323.15	0.6999	0.000997	2.1e-05
0.8	293.15	0	0.001494	3.2e-05
0.8	293.15	0.1001	0.001582	3.4e-05
0.8	293.15	0.2	0.00168	3.6e-05
0.8	293.15	0.3	0.001783	3.8e-05
0.8	293.15	0.4	0.001897	4.1e-05
0.8	293.15	0.5	0.002018	4.3e-05
0.8	293.15	0.5999	0.002146	4.6e-05
0.8	293.15	0.7	0.002284	4.9e-05
0.8	303.15	0	0.001151	2.5e-05
0.8	303.15	0.1001	0.001216	2.6e-05
0.8	303.15	0.2	0.001288	2.8e-05
0.8	303.15	0.3	0.001363	2.9e-05
0.8	303.15	0.4	0.001447	3.1e-05
0.8	303.15	0.5	0.001536	3.3e-05
0.8	303.15	0.5999	0.001629	3.5e-05
0.8	303.15	0.7	0.001732	3.7e-05
0.8	313.15	0	0.000917	2e-05
0.8	313.15	0.1001	0.000967	2.1e-05
0.8	313.15	0.2	0.001022	2.2e-05
0.8	313.15	0.3	0.001079	2.3e-05
0.8	313.15	0.4	0.001142	2.5e-05
0.8	313.15	0.5	0.00121	2.6e-05
0.8	313.15	0.5999	0.00128	2.7e-05
0.8	313.15	0.7	0.001356	2.9e-05
0.8	323.15	0	0.000752	1.6e-05
0.8	323.15	0.1001	0.00079	1.7e-05
0.8	323.15	0.2	0.000834	1.8e-05
0.8	323.15	0.3	0.000879	1.9e-05
0.8	323.15	0.4	0.000927	2e-05
0.8	323.15	0.5	0.000979	2.1e-05
0.8	323.15	0.5999	0.001032	2.2e-05
0.8	323.15	0.7	0.001091	2.3e-05
1	293.15	0	0.001643	3.5e-05
1	293.15	0.1	0.00174	3.7e-05
1	293.15	0.2	0.001857	4e-05
1	293.15	0.3	0.001977	4.2e-05
1	293.15	0.4	0.002099	4.5e-05
1	293.15	0.5	0.002243	4.8e-05
1	293.15	0.5999	0.002398	5.1e-05
1	293.15	0.7	0.002555	5.5e-05
1	303.15	0	0.001262	2.7e-05
1	303.15	0.1	0.001333	2.9e-05
1	303.15	0.2	0.001415	3e-05
1	303.15	0.3	0.001505	3.2e-05
1	303.15	0.4	0.001593	3.4e-05
1	303.15	0.5	0.001698	3.6e-05
1	303.15	0.5999	0.001807	3.9e-05
1	303.15	0.7	0.001919	4.1e-05
1	313.15	0	0.001001	2.2e-05
1	313.15	0.1	0.001055	2.3e-05
1	313.15	0.2	0.001118	2.4e-05
1	313.15	0.3	0.001183	2.5e-05
1	313.15	0.4	0.001252	2.7e-05
1	313.15	0.5	0.001328	2.9e-05
1	313.15	0.5999	0.001408	3e-05
1	313.15	0.7	0.001493	3.2e-05
1	323.15	0	0.000814	1.8e-05
1	323.15	0.1	0.000857	1.8e-05
1	323.15	0.2	0.000906	1.9e-05
1	323.15	0.3	0.000956	2.1e-05
1	323.15	0.4	0.00101	2.2e-05
1	323.15	0.5	0.001067	2.3e-05
1	323.15	0.5999	0.001128	2.4e-05
1	323.15	0.7	0.001192	2.6e-05

System: 2-aminoacetic acid + water; phases: Liquid
Fixed: Pressure, kPa = 101.3
Property: Mass density, kg/m3 (Liquid); method: Vibrating tube method
Temperature, K	Molality, mol/kg of 2-aminoacetic acid	Mass density, kg/m3	uncertainty
293.15	0.1002	1001.41	0.15
293.15	0.2	1004.57	0.15
293.15	0.3002	1007.7	0.15
293.15	0.4001	1010.77	0.15
293.15	0.5001	1013.8	0.15
293.15	0.6	1016.78	0.16
293.15	0.6998	1019.71	0.16
303.15	0.1002	998.8	0.15
303.15	0.2	1001.91	0.15
303.15	0.3002	1004.98	0.15
303.15	0.4001	1008	0.15
303.15	0.5001	1010.98	0.15
303.15	0.6	1013.91	0.15
303.15	0.6998	1016.8	0.16
313.15	0.1002	995.32	0.15
313.15	0.2	998.38	0.15
313.15	0.3002	1001.42	0.15
313.15	0.4001	1004.4	0.15
313.15	0.5001	1007.35	0.15
313.15	0.6	1010.25	0.15
313.15	0.6998	1013.11	0.15
323.15	0.1002	991.11	0.15
323.15	0.2	994.14	0.15
323.15	0.3002	997.14	0.15
323.15	0.4001	1000.09	0.15
323.15	0.5001	1003.01	0.15
323.15	0.6	1005.88	0.15
323.15	0.6998	1008.72	0.15

System: 2-aminoacetic acid + water; phases: Liquid
Fixed: Pressure, kPa = 101.3
Property: Viscosity, Pa*s (Liquid); method: Capillary tube (Ostwald; Ubbelohde) method
Temperature, K	Molality, mol/kg of 2-aminoacetic acid	Viscosity, Pa*s	uncertainty
293.15	0.1002	0.001015	2.1e-05
293.15	0.2	0.001029	2.2e-05
293.15	0.3002	0.001042	2.2e-05
293.15	0.4001	0.001057	2.2e-05
293.15	0.5001	0.001072	2.3e-05
293.15	0.6	0.001086	2.3e-05
293.15	0.6998	0.001101	2.3e-05
303.15	0.1002	0.000809	1.7e-05
303.15	0.2	0.00082	1.7e-05
303.15	0.3002	0.000831	1.8e-05
303.15	0.4001	0.000842	1.8e-05
303.15	0.5001	0.000855	1.8e-05
303.15	0.6	0.000867	1.8e-05
303.15	0.6998	0.000878	1.8e-05
313.15	0.1002	0.000663	1.4e-05
313.15	0.2	0.000672	1.4e-05
313.15	0.3002	0.000681	1.4e-05
313.15	0.4001	0.000691	1.5e-05
313.15	0.5001	0.000701	1.5e-05
313.15	0.6	0.000711	1.5e-05
313.15	0.6998	0.000721	1.5e-05
323.15	0.1002	0.000555	1.2e-05
323.15	0.2	0.000563	1.2e-05
323.15	0.3002	0.000571	1.2e-05
323.15	0.4001	0.000579	1.2e-05
323.15	0.5001	0.000587	1.2e-05
323.15	0.6	0.000596	1.3e-05
323.15	0.6998	0.000605	1.3e-05

System: D-mannitol + water; phases: Liquid
Fixed: Pressure, kPa = 101.3
Property: Mass density, kg/m3 (Liquid); method: Vibrating tube method
Molality, mol/kg of D-mannitol	Temperature, K	Mass density, kg/m3	uncertainty
0.2	293.15	1010.52	0.15
0.2	303.15	1007.82	0.15
0.2	313.15	1004.26	0.15
0.2	323.15	999.96	0.15
0.4	293.15	1022.31	0.16
0.4	303.15	1019.39	0.16
0.4	313.15	1015.74	0.16
0.4	323.15	1011.28	0.15
0.6	293.15	1033.43	0.16
0.6	303.15	1030.35	0.16
0.6	313.15	1026.6	0.16
0.6	323.15	1022.09	0.16
0.8	293.15	1043.98	0.16
0.8	303.15	1040.88	0.16
0.8	313.15	1036.92	0.16
0.8	323.15	1032.28	0.16
1	293.15	1054.13	0.17
1	303.15	1050.85	0.17
1	313.15	1046.79	0.17
1	323.15	1042.15	0.16
0.4	313.15	1015.71	0.18

System: D-mannitol + water; phases: Liquid
Fixed: Pressure, kPa = 101.3
Property: Viscosity, Pa*s (Liquid); method: Capillary tube (Ostwald; Ubbelohde) method
Molality, mol/kg of D-mannitol	Temperature, K	Viscosity, Pa*s	uncertainty
0.2	293.15	0.001104	2.3e-05
0.2	303.15	0.000874	1.8e-05
0.2	313.15	0.000711	1.5e-05
0.2	323.15	0.000592	1.3e-05
0.4	293.15	0.001221	2.6e-05
0.4	303.15	0.000959	2e-05
0.4	313.15	0.000776	1.6e-05
0.4	323.15	0.000642	1.4e-05
0.6	293.15	0.001336	2.8e-05
0.6	303.15	0.001044	2.2e-05
0.6	313.15	0.000841	1.8e-05
0.6	323.15	0.000693	1.5e-05
0.8	293.15	0.001494	3.1e-05
0.8	303.15	0.001151	2.4e-05
0.8	313.15	0.000917	1.9e-05
0.8	323.15	0.000752	1.6e-05
1	293.15	0.001643	3.4e-05
1	303.15	0.001262	2.6e-05
1	313.15	0.001001	2.1e-05
1	323.15	0.000814	1.7e-05
0.4	313.15	0.000775	1.6e-05
1	313.15	0.001	2.1e-05

System: (S)-2-aminopropanoic acid + water; phases: Liquid
Fixed: Pressure, kPa = 101.3
Property: Mass density, kg/m3 (Liquid); method: Vibrating tube method
Temperature, K	Molality, mol/kg of (S)-2-aminopropanoic acid	Mass density, kg/m3	uncertainty
293.15	0.1	1001.06	0.18
293.15	0.2	1003.88	0.18
293.15	0.3	1006.66	0.18
293.15	0.4002	1009.39	0.18
293.15	0.5001	1012.06	0.18
293.15	0.6002	1014.69	0.18
293.15	0.6999	1017.27	0.18
303.15	0.1	998.48	0.18
303.15	0.2	1001.27	0.18
303.15	0.3	1004.01	0.18
303.15	0.4002	1006.71	0.18
303.15	0.5001	1009.35	0.18
303.15	0.6002	1011.95	0.18
303.15	0.6999	1014.5	0.18
313.15	0.1	995.01	0.18
313.15	0.2	997.76	0.18
313.15	0.3	1000.47	0.18
313.15	0.4002	1003.14	0.18
313.15	0.5001	1005.76	0.18
313.15	0.6002	1008.33	0.18
313.15	0.6999	1010.86	0.18
323.15	0.1	990.81	0.18
323.15	0.2	993.55	0.18
323.15	0.3	996.24	0.18
323.15	0.4002	998.9	0.18
323.15	0.5001	1001.5	0.18
323.15	0.6002	1004.06	0.18
323.15	0.6999	1006.58	0.18

System: (S)-2-aminopropanoic acid + water; phases: Liquid
Fixed: Pressure, kPa = 101.3
Property: Viscosity, Pa*s (Liquid); method: Capillary tube (Ostwald; Ubbelohde) method
Temperature, K	Molality, mol/kg of (S)-2-aminopropanoic acid	Viscosity, Pa*s	uncertainty
293.15	0.1	0.001027	2.2e-05
293.15	0.2	0.001053	2.2e-05
293.15	0.3	0.001079	2.3e-05
293.15	0.4002	0.001107	2.3e-05
293.15	0.5001	0.001134	2.4e-05
293.15	0.6002	0.001163	2.5e-05
293.15	0.6999	0.001191	2.5e-05
303.15	0.1	0.000817	1.7e-05
303.15	0.2	0.000837	1.8e-05
303.15	0.3	0.000856	1.8e-05
303.15	0.4002	0.000877	1.9e-05
303.15	0.5001	0.000897	1.9e-05
303.15	0.6002	0.000919	1.9e-05
303.15	0.6999	0.00094	2e-05
313.15	0.1	0.000668	1.4e-05
313.15	0.2	0.000684	1.5e-05
313.15	0.3	0.0007	1.5e-05
313.15	0.4002	0.000715	1.5e-05
313.15	0.5001	0.000731	1.6e-05
313.15	0.6002	0.000749	1.6e-05
313.15	0.6999	0.000765	1.6e-05
323.15	0.1	0.000559	1.2e-05
323.15	0.2	0.000571	1.2e-05
323.15	0.3	0.000584	1.2e-05
323.15	0.4002	0.000596	1.3e-05
323.15	0.5001	0.000609	1.3e-05
323.15	0.6002	0.000622	1.3e-05
323.15	0.6999	0.000635	1.3e-05

System: L-valine + water; phases: Liquid
Fixed: Pressure, kPa = 101.3
Property: Mass density, kg/m3 (Liquid); method: Vibrating tube method
Temperature, K	Molality, mol/kg of L-valine	Mass density, kg/m3	uncertainty
293.15	0.1	1000.88	0.18
293.15	0.2001	1003.51	0.18
293.15	0.3001	1006.08	0.18
293.15	0.4002	1008.6	0.18
293.15	0.5	1011.05	0.18
303.15	0.1	998.29	0.18
303.15	0.2001	1000.88	0.18
303.15	0.3001	1003.41	0.18
303.15	0.4002	1005.89	0.18
303.15	0.5	1008.31	0.18
313.15	0.1	994.81	0.18
313.15	0.2001	997.37	0.18
313.15	0.3001	999.88	0.18
313.15	0.4002	1002.33	0.18
313.15	0.5	1004.72	0.18
323.15	0.1	990.6	0.18
323.15	0.2001	993.11	0.18
323.15	0.3001	995.57	0.18
323.15	0.4002	997.98	0.18
323.15	0.5	1000.34	0.18

System: L-valine + water; phases: Liquid
Fixed: Pressure, kPa = 101.3
Property: Viscosity, Pa*s (Liquid); method: Capillary tube (Ostwald; Ubbelohde) method
Temperature, K	Molality, mol/kg of L-valine	Viscosity, Pa*s	uncertainty
293.15	0.1	0.001044	2.2e-05
293.15	0.2001	0.001089	2.3e-05
293.15	0.3001	0.001135	2.4e-05
293.15	0.4002	0.001184	2.5e-05
293.15	0.5	0.001233	2.6e-05
303.15	0.1	0.000829	1.8e-05
303.15	0.2001	0.000862	1.8e-05
303.15	0.3001	0.000896	1.9e-05
303.15	0.4002	0.000929	2e-05
303.15	0.5	0.000965	2e-05
313.15	0.1	0.000678	1.4e-05
313.15	0.2001	0.000702	1.5e-05
313.15	0.3001	0.000728	1.5e-05
313.15	0.4002	0.000753	1.6e-05
313.15	0.5	0.000779	1.7e-05
323.15	0.1	0.000565	1.2e-05
323.15	0.2001	0.000585	1.2e-05
323.15	0.3001	0.000604	1.3e-05
323.15	0.4002	0.000624	1.3e-05
323.15	0.5	0.000644	1.4e-05

System: L-threonine + water; phases: Liquid
Fixed: Pressure, kPa = 101.3
Property: Mass density, kg/m3 (Liquid); method: Vibrating tube method
Temperature, K	Molality, mol/kg of L-threonine	Mass density, kg/m3	uncertainty
293.15	0.0999	1002.41	0.18
293.15	0.1999	1006.56	0.18
293.15	0.2999	1010.63	0.18
293.15	0.4002	1014.64	0.18
293.15	0.5	1018.55	0.18
293.15	0.6	1022.4	0.19
293.15	0.6998	1026.16	0.19
303.15	0.0999	999.81	0.18
303.15	0.1999	1003.9	0.18
303.15	0.2999	1007.92	0.18
303.15	0.4002	1011.87	0.18
303.15	0.5	1015.73	0.18
303.15	0.6	1019.52	0.18
303.15	0.6998	1023.24	0.19
313.15	0.0999	996.32	0.18
313.15	0.1999	1000.37	0.18
313.15	0.2999	1004.34	0.18
313.15	0.4002	1008.25	0.18
313.15	0.5	1012.07	0.18
313.15	0.6	1015.83	0.18
313.15	0.6998	1019.52	0.18
323.15	0.0999	992.11	0.18
323.15	0.1999	996.12	0.18
323.15	0.2999	1000.05	0.18
323.15	0.4002	1003.93	0.18
323.15	0.5	1007.71	0.18
323.15	0.6	1011.44	0.18
323.15	0.6998	1015.1	0.18

System: L-threonine + water; phases: Liquid
Fixed: Pressure, kPa = 101.3
Property: Viscosity, Pa*s (Liquid); method: Capillary tube (Ostwald; Ubbelohde) method
Temperature, K	Molality, mol/kg of L-threonine	Viscosity, Pa*s	uncertainty
293.15	0.0999	0.001035	2.2e-05
293.15	0.1999	0.001072	2.3e-05
293.15	0.2999	0.001107	2.3e-05
293.15	0.4002	0.001145	2.4e-05
293.15	0.5	0.001184	2.5e-05
293.15	0.6	0.001225	2.6e-05
293.15	0.6998	0.001269	2.7e-05
303.15	0.0999	0.000823	1.7e-05
303.15	0.1999	0.000849	1.8e-05
303.15	0.2999	0.000876	1.9e-05
303.15	0.4002	0.000905	1.9e-05
303.15	0.5	0.000934	2e-05
303.15	0.6	0.000965	2e-05
303.15	0.6998	0.000996	2.1e-05
313.15	0.0999	0.000673	1.4e-05
313.15	0.1999	0.000693	1.5e-05
313.15	0.2999	0.000714	1.5e-05
313.15	0.4002	0.000736	1.6e-05
313.15	0.5	0.000759	1.6e-05
313.15	0.6	0.000782	1.7e-05
313.15	0.6998	0.000806	1.7e-05
323.15	0.0999	0.000562	1.2e-05
323.15	0.1999	0.000579	1.2e-05
323.15	0.2999	0.000595	1.3e-05
323.15	0.4002	0.000613	1.3e-05
323.15	0.5	0.00063	1.3e-05
323.15	0.6	0.000649	1.4e-05
323.15	0.6998	0.000667	1.4e-05

System: L-arginine + water; phases: Liquid
Fixed: Pressure, kPa = 101.3
Property: Mass density, kg/m3 (Liquid); method: Vibrating tube method
Temperature, K	Molality, mol/kg of L-arginine	Mass density, kg/m3	uncertainty
293.15	0.1	1003.17	0.27
293.15	0.2	1008	0.27
293.15	0.3001	1012.68	0.28
293.15	0.4	1017.21	0.28
293.15	0.5	1021.6	0.28
293.15	0.6	1025.86	0.29
293.15	0.7	1030	0.29
303.15	0.1	1000.55	0.27
303.15	0.2	1005.3	0.27
303.15	0.3001	1009.91	0.27
303.15	0.4	1014.38	0.28
303.15	0.5	1018.71	0.28
303.15	0.6	1022.9	0.29
303.15	0.7	1026.97	0.29
313.15	0.1	997.05	0.27
313.15	0.2	1001.75	0.27
313.15	0.3001	1006.31	0.27
313.15	0.4	1010.73	0.28
313.15	0.5	1015.01	0.28
313.15	0.6	1019.15	0.28
313.15	0.7	1023.18	0.29
323.15	0.1	992.84	0.27
323.15	0.2	997.5	0.27
323.15	0.3001	1002.03	0.27
323.15	0.4	1006.41	0.27
323.15	0.5	1010.67	0.27
323.15	0.6	1014.8	0.28
323.15	0.7	1018.82	0.28

System: L-arginine + water; phases: Liquid
Fixed: Pressure, kPa = 101.3
Property: Viscosity, Pa*s (Liquid); method: Capillary tube (Ostwald; Ubbelohde) method
Temperature, K	Molality, mol/kg of L-arginine	Viscosity, Pa*s	uncertainty
293.15	0.1	0.001054	2.3e-05
293.15	0.2	0.001108	2.4e-05
293.15	0.3001	0.001167	2.5e-05
293.15	0.4	0.00123	2.6e-05
293.15	0.5	0.001298	2.8e-05
293.15	0.6	0.001362	2.9e-05
293.15	0.7	0.001435	3.1e-05
303.15	0.1	0.000838	1.8e-05
303.15	0.2	0.000879	1.9e-05
303.15	0.3001	0.000923	2e-05
303.15	0.4	0.00097	2.1e-05
303.15	0.5	0.001021	2.2e-05
303.15	0.6	0.001069	2.3e-05
303.15	0.7	0.001124	2.4e-05
313.15	0.1	0.000685	1.5e-05
313.15	0.2	0.000717	1.5e-05
313.15	0.3001	0.000751	1.6e-05
313.15	0.4	0.000788	1.7e-05
313.15	0.5	0.000826	1.8e-05
313.15	0.6	0.000864	1.9e-05
313.15	0.7	0.000905	1.9e-05
323.15	0.1	0.000572	1.2e-05
323.15	0.2	0.000598	1.3e-05
323.15	0.3001	0.000625	1.4e-05
323.15	0.4	0.000654	1.4e-05
323.15	0.5	0.000684	1.5e-05
323.15	0.6	0.000714	1.5e-05
323.15	0.7	0.000747	1.6e-05
