Measured thermophysical data. Osmotic and Activity Coefficients for Binary Aqueous Solutions of 1-Butyl-3-methylimidazolium Based Amino Acid Ionic Liquids at 298.15 K and at 0.1 MPa
Source: J. Chem. Eng. Data, 2015, 10.1021/je500772z
Compound 1: 1-butyl-3-methylimidazolium glycinate, C10H19N3O2, InChI=1S/C8H15N2.C2H5NO2/c1-3-4-5-10-7-6-9(2)8-10;3-1-2(4)5/h6-8H,3-5H2,1-2H3;1,3H2,(H,4,5)/q+1;/p-1
Compound 2: 3-butyl-1-methyl-1H-imidazolium L-alaninate, C11H21N3O2, InChI=1S/C8H15N2.C3H7NO2/c1-3-4-5-10-7-6-9(2)8-10;1-2(4)3(5)6/h6-8H,3-5H2,1-2H3;2H,4H2,1H3,(H,5,6)/q+1;/p-1/t;2-/m.0/s1
Compound 3: 1-butyl-3-methylimidazolium L-valinate, C13H25N3O2, InChI=1S/C8H15N2.C5H11NO2/c1-3-4-5-10-7-6-9(2)8-10;1-3(2)4(6)5(7)8/h6-8H,3-5H2,1-2H3;3-4H,6H2,1-2H3,(H,7,8)/q+1;/p-1/t;4-/m.0/s1
Compound 4: 1-butyl-3-methylimidazolium L-leucinate, C14H27N3O2, InChI=1S/C8H15N2.C6H13NO2/c1-3-4-5-10-7-6-9(2)8-10;1-4(2)3-5(7)6(8)9/h6-8H,3-5H2,1-2H3;4-5H,3,7H2,1-2H3,(H,8,9)/q+1;/p-1/t;5-/m.0/s1
Compound 5: water, H2O, InChI=1S/H2O/h1H2

System: water + 1-butyl-3-methylimidazolium glycinate; phases: Liquid, Gas
Fixed: Temperature, K = 298.15
Property: Osmotic coefficient (Liquid); method: ISOPIE
Molality, mol/kg of 1-butyl-3-methylimidazolium glycinate	Osmotic coefficient	uncertainty
0	1	0.004
0.0179	0.941	0.004
0.0266	0.9408	0.004
0.0509	0.9167	0.004
0.0737	0.9076	0.004
0.0978	0.8916	0.004
0.1314	0.8739	0.004
0.1811	0.8658	0.004
0.2166	0.853	0.004
0.263	0.8465	0.004
0.3181	0.8432	0.004
0.3693	0.8407	0.004
0.4305	0.8405	0.004
0.5055	0.8474	0.004
0.5791	0.8523	0.004
0.6439	0.8526	0.004

System: water + 3-butyl-1-methyl-1H-imidazolium L-alaninate; phases: Liquid, Gas
Fixed: Temperature, K = 298.15
Property: Osmotic coefficient (Liquid); method: ISOPIE
Molality, mol/kg of 3-butyl-1-methyl-1H-imidazolium L-alaninate	Osmotic coefficient	uncertainty
0	1	0.0004
0.0134	0.9617	0.0015
0.0183	0.9405	0.0023
0.0416	0.9262	0.0029
0.0612	0.9103	0.0035
0.0821	0.9008	0.0038
0.109	0.8865	0.0044
0.1518	0.8725	0.0049
0.1962	0.8661	0.0052
0.242	0.8654	0.0052
0.2834	0.863	0.0053
0.3192	0.8594	0.0054
0.3741	0.8633	0.0053
0.4453	0.8672	0.0051
0.5047	0.8715	0.005
0.5755	0.8812	0.0046

System: water + 1-butyl-3-methylimidazolium L-valinate; phases: Liquid, Gas
Fixed: Temperature, K = 298.15
Property: Osmotic coefficient (Liquid); method: ISOPIE
Molality, mol/kg of 1-butyl-3-methylimidazolium L-valinate	Osmotic coefficient	uncertainty
0	1	0.0004
0.013	0.9595	0.0016
0.0202	0.9384	0.0024
0.0421	0.923	0.003
0.0582	0.9121	0.0034
0.0723	0.9019	0.0038
0.1086	0.8899	0.0043
0.1458	0.8851	0.0045
0.1932	0.8794	0.0047
0.2434	0.8759	0.0048
0.2848	0.879	0.0047
0.3283	0.8828	0.0045
0.4013	0.8908	0.0042
0.4421	0.8986	0.0039
0.5035	0.9098	0.0035
0.576	0.9279	0.0028

System: water + 1-butyl-3-methylimidazolium L-leucinate; phases: Liquid, Gas
Fixed: Temperature, K = 298.15
Property: Osmotic coefficient (Liquid); method: ISOPIE
Molality, mol/kg of 1-butyl-3-methylimidazolium L-leucinate	Osmotic coefficient	uncertainty
0	1	0.0005
0.0117	0.9528	0.0019
0.0184	0.9362	0.0025
0.0387	0.9254	0.0029
0.0649	0.9104	0.0035
0.0795	0.9093	0.0035
0.1123	0.9025	0.0038
0.1532	0.8977	0.004
0.1914	0.8982	0.0039
0.2319	0.9005	0.0039
0.2687	0.9029	0.0038
0.3111	0.9101	0.0035
0.3711	0.9187	0.0031
0.4373	0.9255	0.0029
0.4915	0.9328	0.0026
0.5503	0.9423	0.0022
