Measured thermophysical data. P ? T Data for 1-Butanol and Isobutyl Alcohol from (283.15 to 363.15) K at Pressures up to 66 MPa
Source: J. Chem. Eng. Data, 2015, 10.1021/je5010214
Compound 1: butan-1-ol, C4H10O, InChI=1S/C4H10O/c1-2-3-4-5/h5H,2-4H2,1H3, purity 99.9%
Compound 2: 2-methyl-1-propanol, C4H10O, InChI=1S/C4H10O/c1-4(2)3-5/h4-5H,3H2,1-2H3, purity 99.8%
Compound 3: heptane, C7H16, InChI=1S/C7H16/c1-3-5-7-6-4-2/h3-7H2,1-2H3, purity 99.9%

System: butan-1-ol; phases: Liquid
Property: Mass density, kg/m3 (Liquid); method: Vibrating tube method
Temperature, K	Pressure, kPa	Mass density, kg/m3	uncertainty
283.151	550.8	818.14	0.806
283.151	11959	825.705	0.817
283.151	18047	829.455	0.824
283.151	32971	838.117	0.846
283.151	62025	852.74	0.897
283.152	267.6	817.937	0.806
283.152	2020.2	819.134	0.807
283.152	7034.8	822.538	0.812
283.152	9991.9	824.485	0.815
283.152	15011	827.609	0.821
283.152	25044	833.615	0.834
283.152	28046	835.368	0.839
283.152	32970	838.092	0.846
283.152	34960	839.141	0.849
283.152	37943	840.737	0.854
283.152	44940	844.325	0.866
283.152	49996	846.902	0.875
283.152	51982	847.942	0.879
283.152	57949	850.826	0.889
283.153	991.3	818.415	0.806
283.153	2914.8	819.722	0.808
283.153	4946.5	821.145	0.81
283.153	9021.6	823.807	0.814
283.153	34017	838.557	0.848
283.153	40004	841.811	0.858
283.153	42058	842.896	0.861
283.153	54965	849.358	0.884
283.153	64998	854.215	0.902
283.154	878.6	818.388	0.806
283.154	20045	830.642	0.827
283.154	30052	836.501	0.842
283.154	48022	845.954	0.872
283.154	59996	851.847	0.893
283.155	22057	831.928	0.83
283.156	65971	854.69	0.904
283.157	101.2	817.825	0.806
288.15	882.7	814.204	0.807
288.15	2917.8	815.651	0.808
288.15	9018.6	819.847	0.814
288.15	10040	820.583	0.815
288.15	20693	827.38	0.829
288.15	32084	834.074	0.847
288.15	37993	837.311	0.857
288.15	40041	838.449	0.86
288.15	44979	841.064	0.869
288.15	52032	844.696	0.882
288.15	55077	846.251	0.887
288.15	61974	849.542	0.9
288.15	64942	850.93	0.906
288.15	391.3	813.84	0.806
288.15	66025	851.488	0.908
288.151	7088.8	818.541	0.812
288.151	12072	821.91	0.818
288.151	17968	825.72	0.825
288.151	78.5	813.612	0.806
288.151	25002	829.984	0.835
288.151	28026	831.832	0.84
288.151	30035	832.896	0.843
288.151	33050	834.714	0.848
288.151	34036	835.152	0.85
288.151	50068	843.734	0.878
288.151	554.4	813.953	0.806
288.152	2057.5	815.033	0.808
288.152	5041.4	817.16	0.81
288.152	15001	823.877	0.821
288.152	20068	826.976	0.828
288.152	22020	828.211	0.831
288.152	35077	835.674	0.852
288.152	42023	839.459	0.864
288.153	989.1	814.282	0.809
288.153	48045	842.655	0.874
288.154	58004	847.666	0.893
288.154	59988	848.618	0.896
293.15	33151	832.036	0.85
293.151	28066	829.163	0.841
293.151	58072	845.282	0.895
293.152	825.1	811.053	0.807
293.152	66045	849.224	0.911
293.154	21987	825.417	0.832
293.154	27986	829.06	0.841
293.154	35000	833.078	0.853
293.154	45068	838.658	0.871
293.155	1971.7	811.916	0.808
293.155	3060.6	812.72	0.809
293.155	5011	814.074	0.81
293.155	9042.1	816.992	0.815
293.155	91.1	810.528	0.807
293.155	10036	817.626	0.816
293.155	11947	818.963	0.818
293.155	14941	820.924	0.822
293.155	34099	832.526	0.851
293.155	40081	835.959	0.862
293.155	42099	837.008	0.865
293.155	54966	843.81	0.889
293.156	1045.2	811.221	0.807
293.156	7096.8	815.616	0.813
293.156	17889	822.832	0.826
293.156	19992	824.147	0.829
293.156	24983	827.251	0.836
293.156	29976	830.11	0.844
293.156	32232	831.521	0.848
293.156	476.4	810.81	0.806
293.156	38027	834.783	0.858
293.156	48022	840.192	0.876
293.156	50085	841.31	0.88
293.156	52032	842.308	0.884
293.156	60018	846.257	0.899
293.156	64991	848.649	0.909
293.156	305.2	810.686	0.806
293.157	61962	847.209	0.903
298.15	33113	828.365	0.852
298.15	45021	835.052	0.874
298.151	55016	840.375	0.893
298.151	65018	845.412	0.913
298.152	10107	813.67	0.816
298.152	38097	831.213	0.861
298.152	40161	832.357	0.864
298.152	57931	841.819	0.899
298.152	59914	842.826	0.903
298.153	22004	821.641	0.833
298.153	50068	837.797	0.883
298.153	62036	843.934	0.907
298.154	5067.6	810.04	0.811
298.154	305.4	806.45	0.806
298.154	42029	833.462	0.868
298.154	1980.9	807.747	0.808
298.154	48107	836.745	0.879
298.154	3167.8	808.637	0.809
298.155	7065.3	811.55	0.813
298.155	854.5	806.874	0.807
298.155	20128	820.445	0.83
298.155	25081	823.55	0.838
298.155	33924	828.845	0.853
298.155	98.1	806.282	0.806
298.155	42359	833.614	0.869
298.156	9120.9	813.012	0.815
298.156	11970	814.957	0.819
298.156	15220	817.234	0.823
298.156	17984	819.076	0.827
298.156	28040	825.42	0.843
298.156	30089	826.686	0.846
298.156	32030	827.814	0.85
298.156	35217	829.575	0.855
298.156	52020	838.835	0.887
298.156	493.7	806.599	0.807
298.156	1012.6	806.992	0.807
298.156	66118	845.919	0.915
303.151	498.9	802.435	0.807
303.151	32862	824.267	0.853
303.151	34081	824.9	0.855
303.151	39904	828.27	0.867
303.151	1977.6	803.554	0.808
303.151	52073	834.942	0.891
303.151	55075	836.525	0.897
303.151	57989	838.099	0.903
303.151	64988	841.599	0.918
303.152	33112	824.372	0.854
303.152	304.1	802.278	0.807
303.152	62052	840.165	0.912
303.153	4930.4	805.792	0.811
303.153	42014	829.398	0.871
303.153	44896	831.035	0.876
303.153	50065	833.864	0.887
303.153	979.1	802.787	0.807
303.154	19974	816.207	0.831
303.154	21920	817.555	0.834
303.154	31958	823.711	0.851
303.154	34980	825.355	0.857
303.154	59979	839.13	0.907
303.154	66030	842.119	0.92
303.155	11975	810.901	0.819
303.155	900.6	802.733	0.807
303.155	15044	812.956	0.824
303.155	24992	819.44	0.839
303.155	37951	827.164	0.863
303.155	47951	832.781	0.882
303.156	10014	809.449	0.817
303.156	18021	814.973	0.828
303.156	27933	821.256	0.844
303.156	29990	822.537	0.848
303.156	8858.2	808.638	0.816
303.156	2964.9	804.3	0.809
303.156	100	802.125	0.806
303.156	7045.6	807.335	0.813
308.15	12009	807.267	0.82
308.15	803.3	798.75	0.807
308.15	17850	811.315	0.829
308.151	21988	814.131	0.835
308.151	27955	817.999	0.846
308.151	32886	820.911	0.855
308.151	1916.7	799.642	0.808
308.151	4990.2	802.048	0.811
308.151	2980.7	800.489	0.809
308.152	19930	812.759	0.832
308.152	25012	816.144	0.84
308.152	31929	820.41	0.853
308.152	32941	821.059	0.855
308.152	37971	823.987	0.865
308.152	54982	833.542	0.9
308.153	9863.1	805.692	0.817
308.153	40011	825.154	0.869
308.153	8864.3	804.962	0.816
308.153	494.1	798.504	0.807
308.153	58009	835.036	0.907
308.154	1039.5	798.954	0.807
308.154	29906	819.191	0.849
308.154	34011	821.636	0.857
308.154	45017	828.081	0.879
308.154	50044	830.856	0.89
308.154	61985	837.136	0.915
308.154	64981	838.691	0.922
308.155	41998	826.392	0.873
308.155	48033	829.748	0.885
308.155	51977	831.933	0.894
308.155	6964.9	803.548	0.814
308.155	274.3	798.317	0.807
308.155	60030	836.098	0.911
308.156	15069	809.4	0.824
308.156	34949	822.224	0.859
308.156	85.2	798.155	0.807
308.156	66088	839.237	0.924
313.15	17921	807.72	0.83
313.15	24862	812.41	0.842
313.15	15059	805.716	0.825
313.151	19932	809.082	0.833
313.151	10209	802.164	0.818
313.151	6921.8	799.704	0.814
313.151	12020	803.525	0.821
313.152	5111.8	798.292	0.812
313.152	27869	814.438	0.847
313.152	29957	815.731	0.851
313.152	54924	830.321	0.903
313.153	32980	817.674	0.857
313.153	33981	818.214	0.859
313.153	2109.7	795.902	0.809
313.153	41978	822.973	0.875
313.153	59932	832.96	0.914
313.153	1088.8	795.074	0.808
313.154	32107	817.091	0.855
313.154	33002	817.783	0.857
313.154	38127	820.76	0.867
313.154	47880	826.39	0.888
313.154	103.1	794.254	0.807
313.154	52097	828.677	0.897
313.154	62004	834.048	0.919
313.154	66113	836.222	0.928
313.155	22058	810.55	0.837
313.155	316	794.433	0.807
313.155	9210.7	801.445	0.817
313.155	35045	818.819	0.861
313.155	44946	824.676	0.882
313.155	3137	796.707	0.81
313.155	58082	831.994	0.91
313.155	569.6	794.643	0.807
313.155	64954	835.652	0.925
313.156	860.7	794.888	0.808
313.156	39997	821.817	0.871
313.156	50021	827.556	0.893
318.15	11896	799.896	0.821
318.151	66028	833.327	0.932
318.152	33016	814.458	0.859
318.152	37838	817.415	0.869
318.152	59923	830.12	0.918
318.152	2933.2	792.866	0.81
318.153	8989	797.678	0.817
318.153	44884	821.648	0.884
318.153	72.7	790.456	0.807
318.154	18102	804.461	0.831
318.154	47944	823.402	0.891
318.154	150.1	790.516	0.807
318.154	57972	829.016	0.913
318.155	336.3	790.675	0.807
318.155	22094	807.257	0.838
318.155	29998	812.541	0.853
318.155	19985	805.78	0.834
318.155	40093	818.817	0.874
318.155	1105.7	791.334	0.808
318.155	54944	827.433	0.906
318.155	10075	798.523	0.819
318.155	1929.1	792.026	0.809
318.155	65022	832.785	0.93
318.156	27909	811.139	0.849
318.156	31957	813.824	0.857
318.156	891	791.16	0.808
318.156	34110	815.009	0.861
318.156	35048	815.63	0.863
318.156	6926.7	796.098	0.814
318.156	41996	819.89	0.878
318.156	5020.8	794.556	0.812
318.156	49950	824.565	0.895
318.156	14800	802.072	0.826
318.156	52037	825.741	0.9
318.156	61930	831.241	0.922
318.156	24873	809.191	0.843
318.156	590.9	790.894	0.808
323.15	296.1	786.326	0.807
323.15	49934	820.799	0.899
323.15	58045	825.293	0.918
323.151	17981	800.333	0.832
323.152	2006.9	787.814	0.809
323.152	54964	823.594	0.911
323.152	60050	826.448	0.923
323.152	64999	829.093	0.934
323.153	35113	811.773	0.865
323.153	9029.9	793.564	0.818
323.153	2966.6	788.632	0.81
323.153	48025	819.642	0.894
323.153	95	786.145	0.807
323.153	52114	821.994	0.904
323.153	20038	801.815	0.835
323.154	4996.2	790.328	0.813
323.154	34081	811.155	0.863
323.154	24993	805.264	0.845
323.154	7042.1	792.001	0.815
323.154	15111	798.229	0.827
323.154	62131	827.565	0.928
323.155	32079	809.955	0.859
323.155	37953	813.623	0.872
323.155	528.4	786.535	0.808
323.155	10090	794.392	0.819
323.155	42011	816.075	0.881
323.155	21995	803.198	0.839
323.155	994.2	786.944	0.808
323.155	11914	795.8	0.822
323.156	30055	808.674	0.855
323.156	27958	807.28	0.85
323.156	33067	810.61	0.861
323.156	40047	814.861	0.876
323.156	44937	817.856	0.887
323.156	920.7	786.888	0.808
323.156	66131	829.687	0.937
328.15	33066	807.772	0.863
328.15	35030	808.989	0.867
328.15	38010	810.915	0.874
328.15	44953	815.144	0.89
328.15	47978	816.959	0.897
328.15	49927	818.128	0.901
328.15	54947	821.045	0.913
328.15	59991	823.77	0.926
328.15	27979	804.324	0.852
328.15	61982	824.89	0.931
328.15	65032	826.439	0.938
328.15	66046	826.965	0.941
328.151	5013.4	786.446	0.813
328.151	2996.7	784.66	0.81
328.151	24924	802.164	0.846
328.151	57939	822.658	0.921
328.152	994.1	782.825	0.815
328.152	39969	812.181	0.878
328.153	34013	808.285	0.865
328.153	41959	813.311	0.883
328.153	289.9	782.179	0.808
328.153	51997	819.32	0.906
328.153	32060	807.104	0.86
328.153	29958	805.68	0.856
328.154	33107	807.703	0.863
328.154	9017	789.881	0.818
328.154	97.9	781.987	0.808
328.155	10040	790.727	0.82
328.155	897.5	782.733	0.811
328.155	6974.9	788.15	0.815
328.155	1988.8	783.741	0.809
328.156	20279	798.799	0.837
328.156	12210	792.522	0.823
328.156	18061	797.122	0.833
328.156	22013	800.057	0.84
328.156	15055	794.783	0.828
328.156	501	782.371	0.808
333.15	34086	805.827	0.866
333.15	37894	808.332	0.875
333.15	4997.4	783.921	0.813
333.15	47936	814.509	0.899
333.15	51953	816.927	0.909
333.15	58057	820.5	0.924
333.15	32067	804.524	0.862
333.15	62049	822.689	0.934
333.151	35075	806.492	0.869
333.151	40111	809.759	0.88
333.151	30016	803.156	0.857
333.151	22034	797.567	0.841
333.151	66005	824.853	0.944
333.152	44974	812.823	0.892
333.152	45490	813.093	0.893
333.152	49920	815.727	0.904
333.152	54876	818.691	0.916
333.152	7002.4	785.686	0.816
333.152	59993	821.547	0.929
333.152	64970	824.293	0.941
333.153	10210	788.367	0.82
333.153	41947	810.938	0.884
333.153	9032	787.401	0.819
333.154	532.6	779.903	0.808
333.154	28040	801.782	0.853
333.154	1987.2	781.249	0.81
333.155	897.8	780.245	0.808
333.155	3023.4	782.177	0.811
333.155	15008	792.251	0.828
333.156	303.5	779.691	0.808
333.156	25027	799.667	0.847
333.156	12011	789.847	0.823
333.156	20036	796.123	0.837
333.156	1003	780.346	0.812
333.156	17992	794.568	0.833
333.156	87.7	779.482	0.81
333.156	33073	805.134	0.864
338.15	25026	796.362	0.848
338.15	22041	794.077	0.842
338.15	14885	788.349	0.829
338.151	35012	803.345	0.87
338.151	52127	814.375	0.912
338.151	60014	819.058	0.932
338.151	65012	821.872	0.945
338.151	66057	822.451	0.947
338.152	47971	811.881	0.901
338.152	57940	817.865	0.927
338.152	32882	801.907	0.866
338.152	10034	784.276	0.821
338.153	44978	809.926	0.894
338.153	19927	792.473	0.838
338.153	49999	813.099	0.907
338.153	898.5	775.911	0.809
338.154	41990	808.025	0.887
338.154	5018.6	779.821	0.814
338.154	309.8	775.333	0.808
338.154	2936.1	777.859	0.811
338.155	29994	799.911	0.859
338.155	39987	806.717	0.882
338.155	17956	790.925	0.834
338.155	80.9	775.106	0.809
338.155	33937	802.603	0.868
338.155	561.6	775.578	0.808
338.155	1014.1	776.019	0.809
338.156	2000.2	776.987	0.81
338.156	6917.3	781.55	0.816
338.156	11959	785.981	0.824
338.156	27976	798.446	0.855
338.156	54992	816.085	0.919
338.156	31949	801.318	0.863
338.156	62074	820.252	0.937
338.156	37962	805.345	0.877
338.156	9046.9	783.457	0.819
338.156	67534	823.221	0.951
343.15	1017.7	770.563	0.812
343.15	52026	808.534	0.918
343.151	4994.8	774.313	0.814
343.151	30082	794.441	0.862
343.151	297.3	769.853	0.808
343.151	911.7	770.459	0.809
343.151	65070	815.911	0.953
343.152	44927	804.186	0.899
343.152	33097	796.546	0.869
343.152	520.3	770.07	0.809
343.152	2332.5	771.83	0.811
343.152	2968.3	772.434	0.811
343.152	61967	814.212	0.945
343.152	10060	778.847	0.822
343.152	6976.6	776.117	0.817
343.153	47908	806.033	0.907
343.153	1994.6	771.497	0.81
343.153	73.7	769.631	0.808
343.153	12025	780.506	0.825
343.153	59944	813.181	0.939
343.153	19985	786.983	0.84
343.153	66059	816.518	0.956
343.154	17975	785.398	0.836
343.154	9002.6	777.941	0.82
343.154	28045	793.012	0.857
343.154	40012	801.058	0.886
343.154	25091	790.858	0.851
343.154	14928	782.929	0.83
343.155	35030	797.771	0.874
343.155	50059	807.349	0.913
343.155	22033	788.56	0.844
343.155	32170	795.891	0.867
343.155	41972	802.307	0.891
343.155	37943	799.701	0.881
343.156	34034	797.101	0.872
343.156	54919	810.24	0.926
343.156	57986	812.021	0.934
348.15	49950	804.611	0.915
348.15	88.8	765.578	0.809
348.15	3051.1	768.513	0.812
348.15	859.8	766.355	0.809
348.15	64942	813.608	0.956
348.15	5094	770.529	0.815
348.151	40026	798.192	0.889
348.152	47915	803.304	0.909
348.152	22163	785.27	0.846
348.152	66153	814.319	0.959
348.153	1974.9	767.461	0.81
348.153	35045	794.751	0.876
348.153	57945	809.531	0.937
348.154	52167	805.991	0.921
348.154	20111	783.649	0.841
348.154	55022	807.759	0.929
348.154	33959	793.985	0.873
348.154	30149	791.333	0.864
348.154	32161	792.797	0.869
348.155	462.2	765.945	0.809
348.155	14792	779.258	0.831
348.155	974.2	766.465	0.809
348.155	37937	796.729	0.883
348.155	10025	775.087	0.822
348.155	60030	810.761	0.942
348.155	42066	799.57	0.894
348.155	28080	789.8	0.859
348.156	7050.2	772.352	0.817
348.156	45051	801.465	0.902
348.156	32942	793.364	0.871
348.156	9003.2	774.145	0.821
348.156	291.7	765.77	0.808
348.156	62063	811.961	0.948
348.156	17899	781.843	0.837
348.156	25100	787.55	0.852
348.156	12187	777.001	0.826
353.15	21894	781.405	0.847
353.15	4963.9	766.051	0.815
353.15	17977	778.173	0.838
353.15	336	761.273	0.809
353.15	40143	795.172	0.891
353.15	19937	779.792	0.842
353.151	29936	787.797	0.865
353.151	12128	772.98	0.827
353.151	52082	803.184	0.924
353.151	10005	771.015	0.823
353.151	45002	798.55	0.904
353.151	48029	800.525	0.913
353.152	926	761.914	0.809
353.152	7000.9	768.126	0.818
353.152	32961	790.048	0.873
353.152	37913	793.571	0.886
353.152	1016.4	762.008	0.81
353.152	50145	801.944	0.918
353.153	34945	791.423	0.878
353.153	60098	808.146	0.946
353.153	14954	775.544	0.832
353.153	42067	796.559	0.896
353.153	65063	811.071	0.96
353.154	2992.1	764.106	0.812
353.154	31876	789.263	0.87
353.154	86.2	760.995	0.809
353.154	24908	783.869	0.853
353.154	27850	786.199	0.86
353.154	9062.3	770.136	0.821
353.155	57980	806.879	0.94
353.155	55132	805.077	0.932
353.155	572.6	761.533	0.809
353.156	2113.4	763.181	0.811
353.156	62043	809.275	0.952
353.156	33964	790.701	0.875
353.156	66024	811.636	0.963
358.15	60043	804.453	0.951
358.15	17041	772.871	0.837
358.15	32793	786.01	0.875
358.15	50038	798.154	0.922
358.151	926.8	756.64	0.818
358.151	31978	785.37	0.873
358.151	4930	760.98	0.815
358.152	52081	799.474	0.928
358.152	37872	789.731	0.888
358.152	55073	801.393	0.937
358.152	62067	805.674	0.957
358.152	28035	782.278	0.863
358.152	33850	786.716	0.878
358.152	17965	773.738	0.839
358.152	66109	808.067	0.969
358.153	47958	796.761	0.916
358.153	40037	791.31	0.894
358.153	35027	787.554	0.881
358.153	64986	807.407	0.965
358.153	22175	777.415	0.849
358.154	14905	770.903	0.833
358.154	1013.9	756.732	0.824
358.154	12137	768.259	0.828
358.154	42100	792.749	0.9
358.154	25059	779.849	0.856
358.154	3021.2	758.947	0.813
358.155	508.4	756.19	0.809
358.155	57918	803.161	0.945
358.155	10073	766.29	0.824
358.155	264.1	755.935	0.809
358.155	30002	783.844	0.868
358.156	2083.9	757.886	0.811
358.156	95.1	755.754	0.81
358.156	45054	794.81	0.908
358.156	9030.2	765.202	0.822
358.156	20162	775.665	0.844
358.156	6993.5	763.142	0.819
363.151	50050	794.458	0.926
363.151	34000	783.178	0.88
363.151	54940	797.589	0.941
363.151	37919	786.081	0.891
363.152	31961	781.745	0.875
363.152	4979.2	757.84	0.816
363.152	11971	764.806	0.828
363.152	47947	793.03	0.92
363.152	27993	778.673	0.864
363.152	94	752.456	0.809
363.152	35028	783.945	0.883
363.152	42016	788.986	0.903
363.152	59980	800.724	0.956
363.152	30062	780.285	0.87
363.153	17973	770.255	0.84
363.153	33033	782.563	0.878
363.153	57917	799.479	0.95
363.154	601.7	753.061	0.81
363.154	892.9	753.404	0.81
363.154	19940	771.991	0.845
363.154	39916	787.488	0.897
363.154	52023	795.718	0.932
363.155	334	752.741	0.809
363.155	2940.4	755.648	0.813
363.155	961.6	753.487	0.81
363.155	1986	754.594	0.811
363.155	64924	803.734	0.971
363.155	66088	804.418	0.974
363.155	1034.7	753.567	0.81
363.155	9959.5	762.855	0.824
363.155	62043	802.008	0.962
363.155	14936	767.534	0.834
363.155	24872	776.146	0.857
363.156	8964.8	761.886	0.822
363.156	21933	773.696	0.85
363.156	44987	791.029	0.911
363.156	6920.2	759.821	0.819

System: 2-methyl-1-propanol; phases: Liquid
Property: Mass density, kg/m3 (Liquid); method: Vibrating tube method
Temperature, K	Pressure, kPa	Mass density, kg/m3	uncertainty
283.154	89.4	809.726	0.807
283.156	289.9	810.056	0.807
283.15	478.2	810.123	0.807
283.152	489.9	810.142	0.807
283.153	930.2	810.437	0.807
283.152	1027.3	810.557	0.807
283.15	2172.1	811.348	0.808
283.151	2992.9	811.865	0.809
283.152	4993.8	813.245	0.811
283.15	6906.9	814.669	0.813
283.151	8995.7	816.167	0.815
283.152	10003	816.885	0.817
283.153	12183	818.287	0.819
283.151	14910	820.439	0.823
283.15	17915	822.056	0.827
283.151	20110	823.875	0.83
283.151	22168	825.177	0.833
283.15	24886	826.625	0.838
283.15	27713	828.29	0.842
283.151	30148	829.717	0.846
283.15	32117	830.745	0.85
283.152	33086	831.522	0.851
283.15	33288	831.507	0.852
283.15	34077	832.073	0.853
283.155	35107	832.469	0.855
283.153	38030	834.322	0.86
283.156	39967	835.34	0.863
283.156	41406	835.909	0.866
283.154	44591	837.752	0.872
283.156	48034	839.7	0.878
283.156	49830	840.462	0.882
283.157	51952	841.796	0.886
283.152	54994	843.308	0.892
283.155	57756	844.723	0.897
283.155	59886	845.575	0.901
283.154	61822	846.524	0.905
283.154	64894	848.158	0.911
283.156	66072	848.566	0.914
288.152	85.3	806.159	0.807
288.153	351.1	806.381	0.807
288.156	549.3	806.494	0.807
288.155	718.6	806.519	0.807
288.154	928.3	806.632	0.808
288.152	1132.3	807.006	0.808
288.153	1931.6	807.42	0.808
288.151	3433.9	808.429	0.81
288.153	5023.9	809.62	0.811
288.154	6893.9	810.983	0.813
288.152	8406.4	812.175	0.815
288.156	9959.1	813.184	0.817
288.154	12498	814.345	0.82
288.152	13061	815.035	0.821
288.152	15159	815.414	0.824
288.151	16159	816.818	0.825
288.154	17078	817.715	0.827
288.151	19062	818.283	0.83
288.151	20120	819.399	0.831
288.15	21983	820.3	0.834
288.154	22948	821.319	0.836
288.155	24955	821.837	0.839
288.159	27092	823.174	0.843
288.156	29078	824.509	0.846
288.15	31002	825.774	0.85
288.156	33729	826.936	0.855
288.154	36056	828.477	0.859
288.154	38602	829.859	0.864
288.15	40698	831.363	0.868
288.151	42984	832.313	0.872
288.153	44991	833.694	0.876
288.152	46862	834.848	0.879
288.154	49740	835.692	0.886
288.153	53748	837.321	0.895
288.155	55203	839.369	0.896
288.156	57016	840.129	0.9
288.154	60810	841.135	0.909
288.156	62338	843.086	0.911
288.15	65611	844.144	0.918
293.153	63.4	802.054	0.807
293.152	194.5	802.316	0.807
293.158	310.4	802.406	0.807
293.157	463.5	802.612	0.807
293.151	662.6	802.599	0.807
293.156	1059.7	802.921	0.808
293.156	2037.1	803.747	0.809
293.159	2922	804.089	0.81
293.156	3431.5	804.593	0.81
293.156	5298.8	805.894	0.812
293.152	5367.8	806.019	0.812
293.151	5979.3	806.327	0.813
293.156	7111.4	807.238	0.814
293.153	8031.4	807.842	0.815
293.157	9968.5	809.474	0.818
293.15	12279	811.587	0.821
293.156	14057	812.743	0.823
293.153	16110	814.191	0.826
293.155	18001	815.385	0.829
293.159	20853	817.066	0.833
293.156	22118	818.157	0.835
293.158	24057	819.188	0.839
293.158	25922	820.412	0.842
293.156	27187	821.228	0.844
293.154	30253	822.999	0.849
293.155	32967	824.811	0.854
293.157	34602	825.683	0.857
293.156	38051	827.567	0.864
293.156	40103	828.763	0.868
293.152	42984	830.218	0.874
293.152	44913	831.278	0.878
293.151	47933	833.008	0.884
293.153	50078	834.047	0.888
293.156	52135	835.387	0.892
293.156	55036	836.79	0.898
293.156	58004	838.271	0.905
293.156	60107	839.502	0.909
293.156	62061	840.325	0.913
293.156	66037	842.335	0.921
298.155	122.4	798.281	0.808
298.15	162.6	798.371	0.807
298.152	405.5	798.562	0.807
298.151	632.8	798.678	0.808
298.152	956.4	798.832	0.808
298.156	1152.2	799.011	0.808
298.156	2046.3	799.798	0.809
298.156	3021.1	800.42	0.81
298.156	5107.4	801.927	0.812
298.155	6988.8	803.491	0.814
298.157	9044.3	804.777	0.817
298.156	9996.8	805.681	0.818
298.157	11947	807.14	0.821
298.155	14555	809.311	0.824
298.151	18284	812.068	0.83
298.154	20164	813.104	0.833
298.153	22781	814.894	0.838
298.155	25076	816.275	0.842
298.155	27604	817.904	0.846
298.155	30046	819.519	0.851
298.155	32326	821.055	0.855
298.156	33072	821.357	0.856
298.155	33317	821.248	0.857
298.156	34997	822.338	0.86
298.156	37948	823.936	0.866
298.156	39972	825.207	0.87
298.156	41983	826.345	0.874
298.155	44911	827.946	0.88
298.156	48045	829.528	0.887
298.156	49997	830.783	0.891
298.157	52020	832.399	0.895
298.156	54851	833.381	0.901
298.157	57898	835.245	0.908
298.155	60006	836.063	0.913
298.153	62079	837.121	0.917
298.155	65330	838.566	0.925
298.153	66093	839.052	0.926
303.155	50.6	793.736	0.807
303.156	270.1	793.901	0.807
303.157	464.4	794.084	0.808
303.156	779.6	794.287	0.808
303.151	974.4	794.496	0.812
303.153	1922.5	795.367	0.809
303.156	2945	796.031	0.81
303.156	4911.2	797.923	0.812
303.156	7058.6	799.569	0.815
303.155	9012.3	801.25	0.817
303.15	10062	802.346	0.819
303.16	12047	803.47	0.822
303.155	14908	805.823	0.826
303.155	18109	808.133	0.831
303.153	20042	809.402	0.834
303.156	22055	811.092	0.837
303.155	25084	812.578	0.843
303.157	28094	815.049	0.848
303.154	30167	816.191	0.852
303.155	32070	817.319	0.856
303.155	33147	817.694	0.859
303.157	32939	817.604	0.859
303.156	34037	818.139	0.86
303.152	35162	818.815	0.863
303.151	38019	820.574	0.868
303.153	39970	821.716	0.873
303.155	42004	823.024	0.877
303.154	45033	824.95	0.883
303.156	48317	826.769	0.89
303.154	49864	827.592	0.894
303.155	52115	829.036	0.898
303.154	55239	830.776	0.905
303.155	58089	832.479	0.911
303.154	60079	833.282	0.916
303.154	62294	834.706	0.921
303.155	65137	835.715	0.928
303.156	66124	836.43	0.93
308.153	96.7	791.579	0.812
308.154	250.6	791.714	0.808
308.152	562.2	791.995	0.808
308.156	770.2	792.158	0.808
308.155	991.9	792.349	0.809
308.156	2101.2	793.3	0.809
308.158	3195.1	794.224	0.811
308.151	5219.3	795.881	0.813
308.156	7083	797.398	0.815
308.156	9108	799.011	0.818
308.154	10282	799.926	0.819
308.158	12379	801.538	0.822
308.154	15083	803.575	0.827
308.158	18161	805.827	0.832
308.158	20006	807.165	0.835
308.158	22192	808.686	0.839
308.159	25100	810.705	0.844
308.158	27887	812.568	0.849
308.157	30041	813.99	0.853
308.158	31933	815.242	0.857
308.158	33077	815.959	0.86
308.151	32866	815.75	0.859
308.158	34026	816.482	0.861
308.151	35203	817.171	0.864
308.157	35193	817.245	0.864
308.158	38088	818.995	0.87
308.158	40106	820.225	0.874
308.157	42282	821.541	0.879
308.157	45145	823.251	0.885
308.155	48031	824.96	0.891
308.157	50089	826.126	0.896
308.158	52047	827.233	0.9
308.155	55094	828.952	0.907
308.156	58085	830.585	0.914
308.153	60161	831.729	0.918
308.155	62192	832.798	0.923
308.157	65217	834.405	0.93
308.15	66004	834.804	0.932
313.151	82.9	787.4	0.808
313.151	316.8	787.607	0.808
313.153	491.8	787.767	0.808
313.154	890.9	788.108	0.808
313.15	981.5	788.182	0.809
313.153	1939.6	789.038	0.81
313.151	2951	789.905	0.811
313.155	4889.1	791.537	0.813
313.152	6856.5	793.195	0.815
313.154	8886.9	794.841	0.818
313.153	10029	795.77	0.82
313.155	11886	797.214	0.822
313.155	14927	799.577	0.827
313.155	17845	801.775	0.832
313.155	20040	803.389	0.836
313.15	21942	804.76	0.839
313.15	24894	806.85	0.845
313.155	28132	809.095	0.851
313.153	29974	810.333	0.855
313.155	32058	811.716	0.859
313.156	33053	812.371	0.861
313.156	33131	812.356	0.861
313.156	34040	812.94	0.863
313.152	35162	813.664	0.866
313.15	37952	815.444	0.872
313.151	40011	816.732	0.876
313.153	41939	817.878	0.881
313.15	45098	819.95	0.887
313.151	47966	821.512	0.894
313.155	49918	822.65	0.899
313.15	52024	823.857	0.903
313.151	54951	825.557	0.91
313.155	58062	827.336	0.917
313.155	60202	828.515	0.922
313.156	62187	829.599	0.927
313.15	65050	831.15	0.934
313.15	66082	831.7	0.936
318.157	128.5	783.253	0.808
318.152	368.3	783.457	0.808
318.153	589.4	783.667	0.808
318.156	858.2	783.902	0.809
318.156	1069.5	784.105	0.809
318.156	1979.1	784.923	0.81
318.157	2997.4	785.79	0.811
318.156	4942.6	787.513	0.813
318.156	6987.2	789.27	0.816
318.156	8967.5	790.929	0.819
318.154	9887.6	791.657	0.82
318.156	11870	793.265	0.823
318.156	14863	795.639	0.828
318.156	17735	797.848	0.833
318.157	19860	799.438	0.837
318.156	21987	801.004	0.841
318.156	25193	803.357	0.847
318.156	27823	805.216	0.852
318.157	30119	806.799	0.857
318.157	32145	808.205	0.861
318.153	33128	808.894	0.863
318.152	33065	808.852	0.863
318.157	34164	809.488	0.866
318.155	35190	810.134	0.868
318.157	38074	812.009	0.874
318.157	40048	813.265	0.879
318.156	41997	814.496	0.883
318.157	45096	816.426	0.89
318.155	48088	818.249	0.897
318.157	50173	819.491	0.902
318.155	52184	820.67	0.907
318.156	55235	822.46	0.914
318.156	58075	824.084	0.921
318.153	60194	825.273	0.926
318.154	62260	826.409	0.931
318.152	65194	828.017	0.938
318.154	66060	828.484	0.941
323.155	62.1	778.89	0.808
323.151	338	779.159	0.808
323.15	557.5	779.374	0.809
323.151	917.3	779.697	0.809
323.156	1117.8	779.897	0.809
323.155	2125.4	780.833	0.81
323.154	3154.8	781.778	0.811
323.153	5126.4	783.557	0.814
323.155	7366.8	785.517	0.817
323.151	9081.6	787.01	0.819
323.15	10156	787.907	0.821
323.151	12167	789.544	0.824
323.151	15030	791.876	0.829
323.151	18076	794.274	0.835
323.15	19932	795.694	0.838
323.152	22079	797.333	0.842
323.15	25085	799.541	0.848
323.154	28006	801.644	0.854
323.154	30029	803.084	0.859
323.154	31969	804.431	0.863
323.151	32903	805.081	0.865
323.15	33102	805.154	0.866
323.15	33950	805.707	0.867
323.151	34958	806.425	0.87
323.153	37883	808.369	0.876
323.15	39891	809.68	0.881
323.153	42065	811.076	0.886
323.155	44846	812.852	0.893
323.156	47886	814.721	0.9
323.153	49935	815.968	0.905
323.154	52064	817.249	0.91
323.155	54897	818.944	0.917
323.152	57818	820.634	0.925
323.153	59855	821.787	0.93
323.152	61856	822.928	0.935
323.152	64838	824.6	0.942
323.155	65957	825.209	0.945
328.15	96.5	774.907	0.808
328.152	395.8	775.157	0.809
328.156	515	775.262	0.809
328.155	904.1	775.603	0.809
328.154	1030.6	775.74	0.809
328.156	2069.7	776.794	0.81
328.155	2999.3	777.646	0.812
328.153	5042	779.515	0.814
328.156	6936.7	781.257	0.817
328.156	8874.2	782.985	0.82
328.155	10121	784.077	0.822
328.15	11905	785.621	0.825
328.156	14954	788.149	0.83
328.156	17891	790.513	0.835
328.156	20040	792.21	0.839
328.158	22054	793.773	0.843
328.15	24953	795.929	0.849
328.153	27874	798.098	0.856
328.151	29949	799.588	0.86
328.154	31948	800.996	0.865
328.156	33018	801.745	0.867
328.155	33061	801.681	0.867
328.154	34111	802.415	0.87
328.15	34984	803.007	0.872
328.153	37913	805.001	0.879
328.156	39966	806.346	0.884
328.15	41958	807.674	0.889
328.155	44806	809.5	0.896
328.156	47820	811.414	0.903
328.156	49817	812.637	0.908
328.156	52099	814.145	0.914
328.152	55150	815.995	0.921
328.151	58100	817.75	0.929
328.155	60045	818.881	0.934
328.154	62082	820.048	0.939
328.156	64955	821.692	0.947
328.15	66095	822.334	0.949
333.152	95.7	770.629	0.809
333.157	295.9	770.818	0.809
333.157	574.5	771.11	0.809
333.155	913.6	771.467	0.809
333.156	1069.5	771.621	0.809
333.156	2110.6	772.649	0.811
333.156	3100	773.622	0.812
333.157	5034	775.464	0.815
333.152	6965.6	777.259	0.817
333.154	8937.3	779.076	0.82
333.152	9995.1	780.005	0.822
333.155	11970	781.72	0.825
333.155	14915	784.255	0.831
333.157	17954	786.777	0.836
333.157	19985	788.397	0.841
333.155	22033	790.027	0.845
333.156	24923	792.261	0.851
333.156	27922	794.514	0.858
333.155	29996	796.045	0.862
333.155	31986	797.49	0.867
333.152	32928	798.124	0.869
333.157	33031	798.137	0.869
333.156	34001	798.837	0.872
333.157	35030	799.567	0.874
333.156	37925	801.558	0.881
333.157	39862	802.861	0.886
333.155	41792	804.162	0.891
333.156	44782	806.126	0.898
333.153	47830	808.087	0.906
333.154	49895	809.38	0.912
333.153	51876	810.61	0.917
333.153	54830	812.44	0.924
333.153	58116	814.429	0.933
333.154	59975	815.509	0.938
333.154	61974	816.676	0.943
333.152	65057	818.467	0.951
333.152	66042	819.039	0.954
338.154	72.5	765.803	0.809
338.155	267.1	766.009	0.809
338.153	496.5	766.255	0.809
338.15	821.3	766.6	0.81
338.153	1007.7	766.796	0.81
338.154	2012.4	767.824	0.811
338.151	3039.1	768.845	0.812
338.156	5091.1	770.879	0.815
338.152	7018.5	772.739	0.818
338.153	8987.6	774.596	0.821
338.153	10054	775.578	0.823
338.156	12131	777.462	0.827
338.157	15171	780.113	0.832
338.155	18105	782.627	0.838
338.156	20167	784.349	0.842
338.155	22120	785.947	0.846
338.156	25290	788.465	0.853
338.155	28029	790.565	0.86
338.156	30041	792.069	0.865
338.155	32010	793.527	0.869
338.154	32776	794.103	0.871
338.155	32995	794.184	0.872
338.153	33922	794.869	0.874
338.156	35102	795.7	0.877
338.152	38056	797.798	0.884
338.156	39987	799.156	0.889
338.154	42127	800.629	0.895
338.156	45109	802.623	0.903
338.153	48090	804.572	0.91
338.154	50121	805.906	0.916
338.154	52094	807.168	0.921
338.151	55116	809.055	0.929
338.153	58010	810.837	0.937
338.151	60191	812.149	0.943
338.15	62244	813.373	0.949
338.15	65243	815.143	0.957
338.152	65986	815.583	0.959
338.155	66355	815.805	0.96
343.15	55.6	761.239	0.809
343.152	101.8	761.279	0.809
343.15	277.3	761.484	0.809
343.151	487.7	761.699	0.809
343.151	881.6	762.13	0.81
343.15	1037	762.294	0.81
343.151	1941.4	763.263	0.811
343.153	3000.3	764.362	0.813
343.15	4957	766.378	0.815
343.152	6956.1	768.377	0.818
343.151	8969.5	770.304	0.822
343.154	10003	771.264	0.824
343.151	11997	773.149	0.827
343.154	14895	775.758	0.833
343.15	17840	778.358	0.839
343.155	20135	780.417	0.844
343.155	21925	781.908	0.847
343.152	24920	784.349	0.854
343.15	27949	786.755	0.861
343.15	29863	788.238	0.866
343.152	31874	789.777	0.871
343.15	32981	790.602	0.874
343.151	32927	790.544	0.874
343.151	34026	791.305	0.877
343.152	35028	792.011	0.879
343.15	38080	794.257	0.887
343.155	39908	795.53	0.892
343.154	41973	796.98	0.897
343.155	44972	799.034	0.905
343.152	47997	801.072	0.914
343.151	50016	802.401	0.919
343.153	52079	803.724	0.925
343.154	54997	805.581	0.933
343.154	57987	807.46	0.941
343.156	60015	808.691	0.947
343.153	62074	809.959	0.953
343.155	65051	811.734	0.961
343.151	66170	812.401	0.964
348.152	94	756.672	0.809
348.152	293.8	756.914	0.81
348.152	481.9	757.128	0.81
348.155	763.5	757.435	0.81
348.154	1011	757.701	0.81
348.15	1981.1	758.826	0.812
348.153	3073.2	759.88	0.813
348.155	5089.9	762.131	0.816
348.152	7034.6	764.092	0.819
348.151	9052.5	766.106	0.823
348.151	9991.3	767.026	0.824
348.156	12060	769.03	0.828
348.152	15042	771.822	0.834
348.154	17922	774.408	0.84
348.154	19893	776.137	0.844
348.153	22033	777.985	0.849
348.155	22381	778.265	0.85
348.156	25066	780.513	0.856
348.154	28023	782.927	0.864
348.155	29922	784.471	0.868
348.156	32007	786.046	0.874
348.156	32760	786.619	0.876
348.156	32941	786.66	0.876
348.154	33999	787.493	0.879
348.152	34980	788.228	0.881
348.151	37995	790.467	0.889
348.152	40072	791.973	0.895
348.151	41992	793.388	0.9
348.153	45082	795.525	0.909
348.151	48031	797.589	0.917
348.156	50014	798.878	0.923
348.154	52067	800.261	0.929
348.155	55099	802.242	0.937
348.156	58146	804.186	0.946
348.152	60084	805.42	0.952
348.153	62302	806.758	0.958
348.154	65219	808.569	0.967
348.15	66250	809.201	0.969
353.15	98.1	752.221	0.809
353.15	305.8	752.433	0.81
353.15	384	752.511	0.81
353.15	558.5	752.696	0.81
353.151	929.4	753.125	0.811
353.15	1073.7	753.289	0.811
353.151	2082.7	754.432	0.812
353.152	3025.9	755.465	0.813
353.153	5017.9	757.656	0.816
353.153	6957.8	759.69	0.82
353.154	8976.6	761.781	0.823
353.154	9990.3	762.812	0.825
353.15	11934	764.803	0.829
353.155	14917	767.603	0.835
353.152	18020	770.471	0.841
353.155	19983	772.259	0.846
353.155	22060	773.965	0.851
353.153	24899	776.429	0.858
353.155	27951	778.961	0.865
353.155	29947	780.584	0.871
353.15	31942	782.185	0.876
353.154	32982	782.978	0.879
353.151	33037	783.002	0.879
353.155	33907	783.604	0.881
353.15	35053	784.493	0.884
353.153	37939	786.664	0.892
353.155	39830	788.076	0.897
353.154	41863	789.556	0.903
353.152	44753	791.642	0.911
353.155	47880	793.816	0.92
353.153	49780	795.14	0.926
353.154	51876	796.535	0.932
353.152	55023	798.765	0.941
353.155	55678	799.178	0.943
353.155	57869	800.594	0.95
353.151	59971	801.962	0.956
353.153	62015	803.245	0.962
353.154	64989	805.09	0.971
353.154	66151	805.82	0.974
358.15	91.6	747.694	0.81
358.152	304.9	747.895	0.81
358.155	517.3	748.147	0.81
358.151	850.1	748.568	0.811
358.153	1095.5	748.835	0.811
358.151	2101.6	750.029	0.813
358.151	3210.6	751.303	0.814
358.15	5324.2	753.465	0.817
358.15	7190.1	755.483	0.821
358.15	9074.3	757.505	0.824
358.15	10165	758.644	0.826
358.15	12208	760.738	0.83
358.155	13986	762.552	0.834
358.15	15000	763.577	0.836
358.155	17866	766.293	0.842
358.155	20104	768.379	0.848
358.156	22005	770.073	0.852
358.157	25079	772.781	0.86
358.153	27962	775.177	0.867
358.151	30131	776.699	0.873
358.151	32076	778.299	0.879
358.15	33039	779.08	0.882
358.154	32938	778.904	0.882
358.154	33914	779.672	0.884
358.153	34978	780.53	0.887
358.155	37986	782.876	0.895
358.155	39996	784.402	0.901
358.152	42079	785.976	0.907
358.152	45119	788.207	0.916
358.152	48100	790.343	0.925
358.15	49987	791.672	0.93
358.15	52101	793.112	0.937
358.153	54983	795.084	0.946
358.152	58017	797.106	0.955
358.152	60055	798.438	0.961
358.152	62083	799.766	0.967
358.155	65016	801.626	0.976
358.155	66339	802.467	0.98
363.152	53.2	742.307	0.81
363.152	125.5	742.405	0.81
363.15	320.3	742.647	0.81
363.15	562.5	742.935	0.811
363.15	892.5	743.339	0.811
363.153	1001.3	743.446	0.811
363.153	1911.6	744.576	0.813
363.153	2977.3	745.832	0.814
363.155	4957.5	748.169	0.817
363.15	6937.4	750.436	0.821
363.152	8892.9	752.564	0.825
363.15	10033	753.801	0.827
363.153	11914	755.769	0.831
363.15	14908	758.826	0.837
363.154	17925	761.773	0.844
363.151	19995	763.754	0.849
363.151	21953	765.578	0.854
363.154	24962	768.273	0.862
363.155	27932	770.858	0.87
363.155	30163	772.879	0.876
363.153	32029	774.439	0.881
363.151	33151	775.369	0.884
363.153	33315	775.421	0.884
363.155	34086	776.049	0.887
363.15	35189	776.934	0.89
363.15	37932	779.076	0.898
363.152	40070	780.754	0.904
363.15	41883	782.107	0.91
363.15	44755	784.308	0.918
363.151	48054	786.713	0.928
363.152	50037	788.134	0.935
363.15	51977	789.492	0.941
363.151	55048	791.627	0.95
363.15	57990	793.615	0.959
363.152	60071	794.972	0.966
363.153	62073	796.302	0.972
363.152	64996	798.178	0.981
363.155	66050	798.847	0.985

System: heptane; phases: Liquid
Property: Mass density, kg/m3 (Liquid); method: Vibrating tube method
Temperature, K	Pressure, kPa	Mass density, kg/m3	uncertainty
283.152	101	692.398	0.813
283.152	267.6	692.646	0.813
283.151	550.8	692.799	0.813
283.154	878.6	693.177	0.814
283.153	991.3	693.192	0.814
283.152	2020.2	694.161	0.816
283.153	2914.8	694.997	0.818
283.153	4946.5	696.597	0.822
283.152	7034.8	698.638	0.828
283.153	9021.6	700.052	0.833
283.152	9991.9	700.869	0.836
283.151	11958.7	702.48	0.841
283.152	15011.2	704.783	0.851
283.151	18047.4	706.965	0.862
283.154	20045.4	708.637	0.869
283.155	22056.5	709.841	0.877
283.152	25044.1	712	0.888
283.152	28046.3	714.05	0.901
283.154	30051.7	715.435	0.909
283.151	32054.8	716.688	0.918
283.151	32971.3	717.342	0.922
283.152	32999.6	717.432	0.922
283.153	34016.5	718.012	0.927
283.152	34959.5	718.734	0.931
283.152	37943	720.455	0.945
283.153	40004	721.755	0.955
283.153	42057.9	723.102	0.965
283.152	44939.9	724.839	0.979
283.154	48022.4	726.526	0.994
283.152	49996.4	727.851	1.004
283.152	51981.8	728.904	1.014
283.153	54965	730.736	1.03
283.152	57949.3	732.407	1.045
283.154	59996.4	733.467	1.056
283.151	62025.4	734.345	1.067
283.153	64997.5	735.98	1.083
283.156	65971	736.499	1.088
288.152	102	688.224	0.813
288.15	391.3	688.682	0.813
288.151	554.4	688.232	0.814
288.15	882.7	689.214	0.814
288.153	989.1	688.618	0.814
288.152	2057.5	689.559	0.817
288.15	2917.8	690.931	0.818
288.152	5041.4	692.738	0.823
288.151	7088.8	693.96	0.828
288.15	9018.6	695.614	0.834
288.15	10039.9	696.278	0.837
288.151	12071.6	698.584	0.843
288.152	15001.4	700.836	0.852
288.151	17968.2	703.23	0.863
288.152	20067.6	704.758	0.871
288.152	22019.6	705.649	0.878
288.151	25001.5	707.645	0.891
288.151	28025.7	709.735	0.903
288.151	30034.7	711.006	0.912
288.15	32084	712.959	0.921
288.151	33050	713.818	0.925
288.152	33096.2	713.93	0.926
288.151	34035.6	714.067	0.93
288.152	35077	714.575	0.935
288.15	37992.9	716.378	0.949
288.15	40040.8	717.608	0.959
288.152	42022.8	718.735	0.969
288.15	44979.3	720.398	0.984
288.153	48045.1	723.18	0.999
288.151	50067.6	724.245	1.009
288.15	52032	724.841	1.02
288.15	55076.9	726.211	1.037
288.154	58004	729.214	1.05
288.154	59987.5	729.723	1.062
288.15	61973.6	731.101	1.072
288.15	64941.6	731.745	1.09
288.15	66025.4	732.751	1.095
293.152	100.5	683.714	0.814
293.156	305.2	684.504	0.814
293.156	476.4	684.708	0.813
293.152	825.1	684.796	0.814
293.156	1045.2	685.167	0.815
293.155	1971.7	685.978	0.816
293.155	3060.6	686.787	0.819
293.155	5011	688.859	0.824
293.156	7096.8	690.796	0.829
293.155	9042.1	692.394	0.834
293.155	10035.7	693.252	0.837
293.155	11946.5	694.459	0.843
293.155	14940.6	697.266	0.853
293.156	17888.6	698.789	0.864
293.156	19991.6	701.345	0.872
293.154	21987.1	701.769	0.88
293.156	24983.2	704.2	0.892
293.154	27986	706.659	0.905
293.156	29975.8	708.599	0.914
293.156	32232.4	710.098	0.924
293.15	33150.8	710.425	0.928
293.155	33149.7	710.401	0.928
293.155	34098.9	710.557	0.933
293.154	34999.6	711.53	0.937
293.156	38026.5	712.948	0.952
293.155	40081	714.898	0.962
293.155	42099.2	716.347	0.972
293.154	45068.2	718.234	0.987
293.156	48021.5	720.258	1.002
293.156	50084.5	721.322	1.013
293.156	52032.4	722.789	1.023
293.155	54965.5	724.479	1.039
293.151	58071.9	726.215	1.055
293.156	60018.3	727.31	1.066
293.157	61962.2	728.261	1.077
293.156	64991	729.973	1.093
293.152	66045.2	730.5	1.099
298.152	102.3	679.807	0.814
298.154	305.4	680.336	0.814
298.156	493.7	680.581	0.814
298.155	854.5	680.896	0.814
298.156	1012.6	680.891	0.815
298.154	1980.9	681.933	0.817
298.154	3167.8	682.97	0.82
298.154	5067.6	684.841	0.824
298.155	7065.3	686.383	0.83
298.156	9120.9	688.48	0.835
298.152	10106.6	689.119	0.838
298.156	11970.2	689.977	0.845
298.156	15219.7	693.294	0.856
298.156	17984.1	694.869	0.866
298.155	20127.8	696.696	0.874
298.153	22004.2	699.062	0.881
298.155	25080.5	701.29	0.894
298.156	28040.2	703.578	0.907
298.156	30089.1	704.725	0.917
298.156	32033.9	706.093	0.926
298.15	33112.8	707.026	0.931
298.156	33092.7	706.936	0.931
298.155	33924.3	706.971	0.935
298.156	35216.6	707.884	0.942
298.152	38096.9	709.948	0.956
298.152	40161.3	711.975	0.965
298.154	42028.5	713.324	0.975
298.15	45020.9	715.087	0.99
298.154	48106.6	717.001	1.007
298.153	50068.1	718.317	1.017
298.156	52019.7	719.461	1.027
298.151	55016	721.123	1.044
298.152	57930.9	723.027	1.059
298.152	59914.4	724.031	1.071
298.153	62036.3	725.393	1.082
298.151	65017.5	726.954	1.099
298.156	66118.4	727.501	1.105
303.152	100.7	675.559	0.813
303.152	304.1	675.598	0.814
303.151	498.9	675.77	0.814
303.155	900.6	675.904	0.815
303.153	979.1	676.053	0.815
303.151	1977.6	677.27	0.817
303.156	2964.9	678.337	0.82
303.153	4930.4	680.06	0.824
303.156	7045.6	682.343	0.83
303.156	8858.2	683.448	0.836
303.156	10013.9	684.334	0.839
303.155	11975.1	686.61	0.845
303.155	15043.6	689.15	0.856
303.156	18021.3	692.198	0.867
303.154	19974.4	693.813	0.875
303.154	21919.6	695.403	0.883
303.155	24991.7	697.736	0.896
303.156	27933.4	699.906	0.909
303.156	29990.4	701.007	0.919
303.154	31957.8	702.727	0.928
303.151	32862.1	703.514	0.932
303.152	33111.7	703.9	0.933
303.151	34080.7	704.468	0.938
303.154	34979.9	705.109	0.943
303.155	37951	707.216	0.957
303.151	39903.5	708.418	0.967
303.153	42013.8	709.635	0.978
303.153	44896.2	711.236	0.994
303.155	47951.4	713.224	1.01
303.153	50065.3	714.711	1.022
303.151	52072.6	715.915	1.033
303.151	55074.5	717.452	1.05
303.151	57989.3	719.654	1.065
303.154	59978.6	720.537	1.077
303.152	62052.4	721.855	1.088
303.151	64988.2	723.925	1.104
303.154	66029.7	724.328	1.111
308.152	105	671.006	0.814
308.155	274.3	671.143	0.814
308.153	494.1	671.318	0.814
308.15	803.3	671.687	0.815
308.154	1039.5	672.093	0.816
308.151	1916.7	672.909	0.818
308.151	2980.7	674.097	0.82
308.151	4990.2	676.132	0.825
308.155	6964.9	678.143	0.831
308.153	8864.3	679.887	0.836
308.153	9863.1	680.761	0.839
308.15	12008.6	682.857	0.846
308.156	15068.7	685.368	0.857
308.15	17849.8	687.815	0.868
308.152	19930.2	689.488	0.877
308.151	21988.3	691.177	0.885
308.152	25012.2	693.658	0.898
308.151	27955.2	695.718	0.912
308.154	29906.2	696.905	0.921
308.152	31928.7	698.302	0.931
308.152	32941.4	698.96	0.936
308.151	32885.9	699.002	0.936
308.154	34010.8	700.438	0.941
308.156	34949.3	701.078	0.946
308.152	37971.2	703.176	0.961
308.153	40011.4	704.309	0.972
308.155	41998.1	705.614	0.983
308.154	45016.6	707.854	0.999
308.155	48033.4	709.906	1.015
308.154	50043.6	711.265	1.026
308.155	51977.4	712.584	1.037
308.152	54981.9	714.563	1.053
308.153	58008.9	716.265	1.071
308.155	60030	717.688	1.082
308.154	61984.8	718.959	1.093
308.154	64980.5	720.569	1.11
308.156	66087.8	721.543	1.116
313.152	100.8	666.87	0.814
313.155	316	667.185	0.814
313.155	569.6	667.234	0.815
313.156	860.7	667.671	0.816
313.153	1088.8	668.002	0.816
313.153	2109.7	669.053	0.818
313.155	3137	670.192	0.821
313.152	5111.8	672.198	0.826
313.151	6921.8	674.169	0.831
313.155	9210.7	676.379	0.838
313.151	10209.3	677.309	0.841
313.151	12019.7	679.079	0.847
313.15	15058.6	681.665	0.859
313.15	17921.1	684.308	0.87
313.151	19931.9	686.1	0.878
313.155	22058.2	687.733	0.887
313.15	24861.6	690.068	0.9
313.152	27868.7	692.385	0.914
313.152	29956.8	693.806	0.924
313.154	32107.1	695.43	0.934
313.153	32980.3	696.141	0.939
313.154	33002.2	696.147	0.939
313.153	33981.2	697.086	0.944
313.155	35045.4	697.948	0.949
313.154	38126.6	700.098	0.965
313.156	39996.9	701.327	0.975
313.153	41978.4	702.778	0.986
313.155	44946.3	704.758	1.002
313.154	47879.7	706.851	1.018
313.156	50020.8	708.33	1.03
313.154	52097.4	709.812	1.041
313.152	54924	711.549	1.057
313.155	58081.5	713.474	1.076
313.153	59932.2	714.707	1.086
313.154	62004	716.103	1.098
313.155	64954.1	717.814	1.115
313.154	66113.1	718.367	1.122
318.152	100.7	662.812	0.815
318.155	336.3	663.228	0.815
318.156	590.9	663.443	0.815
318.156	891	663.766	0.816
318.155	1105.7	663.94	0.816
318.155	1929.1	664.905	0.818
318.152	2933.2	665.972	0.821
318.156	5020.8	668.355	0.826
318.156	6926.7	670.309	0.832
318.153	8989	672.331	0.838
318.155	10074.5	673.533	0.842
318.15	11896	675.253	0.848
318.156	14800.1	678.075	0.859
318.154	18102.4	681.046	0.872
318.155	19985.1	682.727	0.88
318.155	22093.7	684.679	0.889
318.156	24872.8	686.865	0.902
318.156	27909.4	689.38	0.916
318.155	29997.5	691.196	0.926
318.156	31957.1	692.414	0.936
318.152	33015.6	693.259	0.941
318.155	33179.6	693.331	0.942
318.156	34110.3	694.119	0.947
318.156	35047.6	694.934	0.952
318.152	37838.4	697.046	0.966
318.155	40092.5	698.439	0.979
318.156	41996	699.6	0.989
318.153	44884	701.561	1.005
318.154	47944.4	703.663	1.022
318.156	49950.2	705.2	1.033
318.156	52037.3	706.412	1.046
318.155	54944.2	708.215	1.063
318.154	57972.3	710.506	1.08
318.152	59922.5	711.605	1.091
318.156	61930	712.85	1.103
318.155	65021.8	714.898	1.121
318.151	66027.5	715.438	1.127
323.152	102.3	658.378	0.815
323.15	296.1	658.71	0.815
323.155	528.4	658.782	0.815
323.156	920.7	659.343	0.816
323.155	994.2	659.429	0.817
323.152	2006.9	660.61	0.819
323.153	2966.6	661.806	0.821
323.154	4996.2	663.968	0.827
323.154	7042.1	666.276	0.833
323.153	9029.9	667.858	0.839
323.155	10089.7	669.742	0.843
323.155	11913.7	670.973	0.849
323.154	15110.7	674.373	0.861
323.151	17980.7	677.251	0.873
323.153	20037.8	678.71	0.882
323.155	21994.9	680.737	0.89
323.154	24993.4	683.213	0.904
323.156	27958.4	685.975	0.918
323.156	30054.6	687.083	0.929
323.155	32079.2	689.177	0.939
323.156	33067.4	689.946	0.944
323.152	33103.2	689.972	0.944
323.154	34080.8	690.434	0.95
323.153	35113	691.624	0.955
323.155	37952.8	693.659	0.97
323.156	40047	695.097	0.982
323.155	42011.1	696.516	0.993
323.156	44936.9	698.783	1.009
323.153	48025.4	700.814	1.026
323.15	49933.5	702.105	1.038
323.153	52114.3	703.681	1.05
323.152	54963.5	705.509	1.067
323.15	58044.9	707.475	1.085
323.152	60049.8	708.827	1.097
323.154	62131	710.008	1.11
323.152	64998.7	711.842	1.127
323.156	66131.2	712.551	1.134
328.152	100.8	653.868	0.815
328.153	289.9	654.182	0.815
328.156	501	654.211	0.816
328.155	897.5	654.815	0.817
328.152	994.1	655.012	0.817
328.155	1988.8	656.162	0.819
328.151	2996.7	657.408	0.822
328.151	5013.4	659.794	0.827
328.155	6974.9	662.023	0.833
328.154	9017	664.204	0.84
328.155	10040	665.257	0.843
328.156	12209.6	667.562	0.851
328.156	15054.8	670.204	0.862
328.156	18061.3	673.216	0.875
328.156	20279	675.247	0.885
328.156	22012.9	676.775	0.892
328.151	24924.1	679.489	0.906
328.15	27979.2	682.036	0.921
328.153	29958.3	683.395	0.931
328.153	32059.5	685.102	0.942
328.15	33065.5	685.969	0.948
328.154	33107.2	685.992	0.948
328.153	34013.4	687.01	0.952
328.15	35029.6	687.796	0.958
328.15	38009.8	690.025	0.974
328.152	39969	691.415	0.985
328.153	41958.8	692.865	0.996
328.15	44952.6	695.094	1.013
328.15	47977.5	697.371	1.031
328.15	49926.5	698.804	1.042
328.153	51996.9	700.259	1.054
328.15	54946.6	702.284	1.072
328.151	57938.7	704.221	1.09
328.15	59990.9	705.64	1.102
328.15	61981.5	707.057	1.114
328.15	65031.6	708.835	1.133
328.15	66046.2	709.499	1.139
333.152	100.4	649.302	0.815
333.156	303.5	649.622	0.815
333.154	532.6	649.653	0.816
333.155	897.8	650.259	0.817
333.156	1003	650.554	0.819
333.154	1987.2	651.687	0.82
333.155	3023.4	653.063	0.822
333.15	4997.4	655.338	0.828
333.152	7002.4	657.844	0.834
333.153	9032	660.047	0.841
333.153	10209.5	661.268	0.845
333.156	12011.1	663.322	0.852
333.155	15008.4	666.206	0.863
333.156	17991.9	669.217	0.876
333.156	20035.9	671.108	0.885
333.151	22033.6	672.882	0.894
333.156	25027.1	675.678	0.909
333.154	28039.9	678.188	0.924
333.151	30015.6	679.579	0.934
333.15	32067.1	681.185	0.945
333.153	32976.9	681.946	0.95
333.156	33072.7	682.004	0.951
333.15	34085.9	683.474	0.956
333.151	35075.4	684.235	0.961
333.15	37893.7	686.324	0.977
333.151	40110.9	687.848	0.99
333.153	41946.8	689.191	1
333.152	44974	691.567	1.018
333.15	47935.6	693.899	1.035
333.152	49919.6	695.372	1.047
333.15	51953.3	696.893	1.059
333.152	54875.9	699.008	1.076
333.15	58057.2	700.988	1.096
333.152	59992.7	702.482	1.107
333.15	62048.6	703.927	1.12
333.152	64970.4	705.65	1.138
333.151	66005	706.481	1.144
338.152	100.4	644.915	0.815
338.154	309.8	645.161	0.816
338.155	561.6	645.341	0.817
338.153	898.5	645.924	0.818
338.155	1014.1	646.212	0.819
338.156	2000.2	647.409	0.82
338.154	2936.1	648.694	0.823
338.154	5018.6	651.205	0.829
338.156	6917.3	653.552	0.835
338.156	9046.9	656.063	0.842
338.152	10033.6	657.126	0.845
338.156	11959.4	659.361	0.852
338.15	14884.9	662.203	0.864
338.155	17955.8	665.481	0.877
338.153	19927	667.369	0.886
338.15	22041.1	669.319	0.896
338.15	25026.2	672.169	0.911
338.156	27975.5	674.704	0.926
338.155	29993.7	676.134	0.937
338.156	31948.9	677.899	0.947
338.152	32881.5	678.515	0.952
338.156	32881.5	678.499	0.953
338.155	33937.4	679.921	0.958
338.151	35012.4	680.879	0.964
338.156	37962.1	683.24	0.98
338.155	39986.9	684.582	0.992
338.154	41989.9	686.092	1.004
338.153	44978.2	688.463	1.021
338.152	47971.4	690.744	1.039
338.153	49998.6	692.38	1.051
338.151	52127.2	693.976	1.064
338.156	54992.2	696.066	1.081
338.152	57939.9	697.82	1.1
338.151	60013.8	699.459	1.113
338.156	62073.5	700.918	1.125
338.151	65011.9	702.688	1.144
338.151	66056.8	703.55	1.15
343.152	105.1	640.758	0.816
343.151	297.3	640.918	0.816
343.152	520.3	641.218	0.817
343.151	911.7	641.765	0.818
343.15	1017.7	641.938	0.818
343.153	1994.6	643.242	0.821
343.152	2968.3	644.553	0.823
343.151	4994.8	647.152	0.829
343.152	6976.6	649.726	0.835
343.154	9002.6	652.141	0.842
343.152	10060.4	653.267	0.846
343.153	12024.5	655.625	0.854
343.154	14927.5	658.769	0.866
343.154	17975.2	661.975	0.879
343.153	19985	664	0.888
343.155	22032.8	666.001	0.898
343.154	25090.5	668.93	0.913
343.154	28044.7	671.724	0.928
343.151	30082	673.379	0.939
343.155	32169.6	675.296	0.951
343.15	33053.3	676.043	0.956
343.152	33096.8	676.076	0.956
343.156	34034.1	676.976	0.961
343.155	35030.1	677.808	0.967
343.155	37943.2	680.185	0.983
343.154	40012.3	681.817	0.995
343.155	41972.2	683.353	1.007
343.152	44927.3	685.751	1.024
343.153	47907.9	688	1.042
343.155	50058.9	689.668	1.055
343.15	52026.2	691.103	1.068
343.156	54918.5	693.158	1.085
343.156	57986.2	695.23	1.105
343.153	59944.4	696.69	1.117
343.152	61966.5	697.921	1.13
343.151	65069.9	699.939	1.15
343.153	66059.2	700.533	1.156
348.152	100.3	636.109	0.816
348.156	291.7	636.475	0.817
348.155	462.2	636.505	0.817
348.15	859.8	637.192	0.818
348.155	974.2	637.393	0.818
348.153	1974.9	638.781	0.821
348.15	3051.1	640.295	0.824
348.15	5094	643.002	0.83
348.156	7050.2	645.632	0.836
348.156	9003.2	648.038	0.843
348.155	10025.4	649.256	0.847
348.156	12186.9	651.83	0.856
348.155	14792	654.622	0.866
348.156	17899	658.098	0.88
348.154	20111.4	660.386	0.891
348.152	22163.4	662.539	0.901
348.156	25099.8	665.329	0.915
348.155	28080.1	668.108	0.931
348.154	30148.9	670.002	0.942
348.154	32161.3	671.799	0.953
348.156	32941.6	672.463	0.958
348.154	32935.2	672.452	0.958
348.153	33958.6	673.504	0.964
348.155	35044.6	674.428	0.97
348.151	37937.4	676.834	0.987
348.155	40025.6	678.502	0.999
348.156	42065.8	680.23	1.011
348.152	45050.6	682.511	1.029
348.15	47914.7	684.825	1.047
348.154	49949.8	686.336	1.059
348.154	52166.8	688.088	1.073
348.153	55021.9	690.168	1.091
348.155	57945.3	692.261	1.109
348.156	60030	693.748	1.123
348.15	62063.3	695.106	1.136
348.152	64941.6	696.91	1.155
348.154	66153.4	697.788	1.162
353.152	100.5	631.649	0.817
353.15	336	631.995	0.817
353.155	572.6	632.233	0.818
353.152	926	632.774	0.819
353.152	1016.4	632.95	0.819
353.156	2113.4	634.631	0.822
353.154	2992.1	635.919	0.824
353.15	4963.9	638.644	0.83
353.152	7000.9	641.284	0.837
353.154	9062.3	643.911	0.844
353.151	10005	645.176	0.848
353.151	12127.5	647.788	0.856
353.153	14954.2	651.028	0.868
353.15	17977.4	654.406	0.882
353.15	19937	656.492	0.892
353.15	21893.6	658.507	0.901
353.154	24908.2	661.562	0.917
353.154	27850.3	664.482	0.932
353.151	29936.2	666.345	0.944
353.154	31876	668.022	0.955
353.153	32911	668.934	0.961
353.152	32960.8	669.075	0.961
353.156	33963.7	670.126	0.967
353.153	34945.4	670.985	0.972
353.152	37913.1	673.509	0.99
353.15	40142.8	675.336	1.003
353.153	42067.3	677.003	1.015
353.151	45001.7	679.292	1.033
353.151	48029.2	681.775	1.052
353.152	50145.1	683.478	1.065
353.151	52082.2	685.052	1.077
353.155	55132.2	687.213	1.096
353.155	57980.3	689.013	1.115
353.153	60098.4	690.731	1.129
353.156	62042.5	692.223	1.141
353.153	65062.7	694.154	1.161
353.156	66024.3	694.802	1.167
358.152	100.4	626.935	0.817
358.155	264.1	627.168	0.817
358.155	508.4	627.316	0.818
358.151	926.8	628.098	0.82
358.154	1013.9	628.327	0.82
358.156	2083.9	629.903	0.822
358.154	3021.2	631.365	0.825
358.151	4930	634.077	0.831
358.156	6993.5	637.086	0.838
358.156	9030.2	639.755	0.845
358.155	10072.7	641.066	0.849
358.154	12136.8	643.735	0.858
358.154	14904.9	646.944	0.87
358.152	17965.4	650.491	0.884
358.156	20162	652.87	0.894
358.153	22174.6	654.965	0.905
358.154	25059.4	657.993	0.92
358.152	28035.2	660.974	0.936
358.155	30001.9	662.532	0.947
358.151	31977.7	664.488	0.958
358.15	32792.6	665.093	0.963
358.154	33039.3	665.404	0.965
358.152	33850	666.525	0.969
358.153	35026.5	667.567	0.976
358.152	37872.3	669.996	0.993
358.153	40037.4	671.748	1.006
358.154	42100.1	673.454	1.019
358.156	45054	675.954	1.037
358.153	47958.1	678.424	1.056
358.15	50037.9	680.129	1.069
358.152	52080.7	681.85	1.082
358.152	55073.4	684.059	1.101
358.155	57918.4	685.685	1.12
358.15	60042.7	687.68	1.133
358.152	62066.5	689.111	1.147
358.153	64986.1	691.283	1.166
358.151	66108.6	692.023	1.173
363.152	104.1	622.138	0.817
363.155	334	622.474	0.818
363.154	601.7	622.649	0.819
363.154	892.9	623.267	0.82
363.155	1034.7	623.668	0.821
363.155	1986	625.081	0.822
363.155	2940.4	626.678	0.825
363.152	4979.2	629.757	0.832
363.156	6920.2	632.642	0.838
363.156	8964.8	635.395	0.846
363.155	9959.5	636.563	0.85
363.152	11970.7	639.421	0.858
363.155	14935.5	642.887	0.871
363.153	17973.3	646.544	0.886
363.154	19939.9	648.708	0.895
363.156	21932.9	650.806	0.906
363.155	24872.2	654.024	0.921
363.152	27992.7	657.078	0.938
363.152	30062.3	659.006	0.95
363.152	31961.1	660.63	0.961
363.153	33053.3	661.633	0.968
363.153	33032.6	661.606	0.968
363.151	33999.5	663.017	0.973
363.152	35028.3	664.03	0.979
363.151	37919.2	666.495	0.997
363.154	39916	668.059	1.009
363.152	42015.5	669.917	1.022
363.156	44986.8	672.551	1.041
363.152	47947.2	675.063	1.06
363.151	50050.3	676.807	1.074
363.154	52022.6	678.457	1.086
363.151	54940.4	680.815	1.105
363.153	57916.5	682.78	1.125
363.152	59980	684.625	1.138
363.155	62042.9	686.168	1.152
363.155	64924.1	688.267	1.171
363.155	66088.4	689.169	1.179
