Measured thermophysical data. Density, Viscosity, Speed of Sound, Bulk Modulus, Surface Tension, and Flash Point of Binary Mixtures of 2,2,4,6,6-Pentamethylheptane and 2,2,4,4,6,8,8-Heptamethylnonane at (293.15 to 373.15) K and 0.1 MPa and Comparisons with Alcohol-to-Jet Fuel
Source: J. Chem. Eng. Data, 2015, 10.1021/je501141e
Compound 1: 2,2,4,6,6-pentamethylheptane, C12H26, InChI=1S/C12H26/c1-10(8-11(2,3)4)9-12(5,6)7/h10H,8-9H2,1-7H3, purity 99.5%
Compound 2: 2,2,4,4,6,8,8-heptamethylnonane, C16H34, InChI=1S/C16H34/c1-13(10-14(2,3)4)11-16(8,9)12-15(5,6)7/h13H,10-12H2,1-9H3, purity 99.2%

System: 2,2,4,6,6-pentamethylheptane; phases: Liquid
Fixed: Pressure, kPa = 101.325
Property: Mass density, kg/m3 (Liquid); method: Vibrating tube method
Temperature, K	Mass density, kg/m3	uncertainty
293.15	745.21	0.19
303.15	737.93	0.19
313.15	730.61	0.19
323.15	723.26	0.19
333.15	715.86	0.2
343.15	708.42	0.2
353.15	700.7	0.4
363.15	693.1	0.4
373.15	685.4	0.4

System: 2,2,4,6,6-pentamethylheptane; phases: Liquid
Fixed: Pressure, kPa = 101.325
Property: Speed of sound, m/s (Liquid); method: Sing-around technique in a fixed-path interferometer
Temperature, K	Speed of sound, m/s	uncertainty
293.15	1203.7	1.3
303.15	1164.9	1.3
313.15	1126.7	1.2
323.15	1089.3	1.2
333.15	1052.6	1.2
343.15	1016.5	1.2

System: 2,2,4,6,6-pentamethylheptane; phases: Liquid
Fixed: Pressure, kPa = 101.325
Property: Viscosity, Pa*s (Liquid); method: Concentric cylinders viscometry
Temperature, K	Viscosity, Pa*s	uncertainty
293.15	0.00131	2e-05
303.15	0.00111	2e-05
313.15	0.00094	2e-05
323.15	0.00082	2e-05
333.15	0.00071	2e-05
343.15	0.00063	2e-05
353.15	0.00056	2e-05
363.15	0.0005	2e-05
373.15	0.00045	2e-05
313.15	0.000948	2.1e-05
333.15	0.000715	2.1e-05
343.15	0.000632	2.1e-05
353.15	0.000562	2.1e-05
363.15	0.000505	2.1e-05
373.15	0.000459	2.1e-05

System: 2,2,4,4,6,8,8-heptamethylnonane; phases: Liquid
Fixed: Pressure, kPa = 101.325
Property: Mass density, kg/m3 (Liquid); method: Vibrating tube method
Temperature, K	Mass density, kg/m3	uncertainty
293.15	784.48	0.21
303.15	777.78	0.22
313.15	771.07	0.22
323.15	764.34	0.22
333.15	757.59	0.22
343.15	750.83	0.22
353.15	743.9	0.4
363.15	737	0.4
373.15	730.2	0.4

System: 2,2,4,4,6,8,8-heptamethylnonane; phases: Liquid
Fixed: Pressure, kPa = 101.325
Property: Speed of sound, m/s (Liquid); method: Sing-around technique in a fixed-path interferometer
Temperature, K	Speed of sound, m/s	uncertainty
293.15	1285.8	1.4
303.15	1248.6	1.4
313.15	1212	1.4
323.15	1176.2	1.4
333.15	1141	1.4
343.15	1106.5	1.4

System: 2,2,4,4,6,8,8-heptamethylnonane; phases: Liquid
Fixed: Pressure, kPa = 101.325
Property: Viscosity, Pa*s (Liquid); method: Concentric cylinders viscometry
Temperature, K	Viscosity, Pa*s	uncertainty
293.15	0.00371	3e-05
303.15	0.00293	3e-05
313.15	0.00237	3e-05
323.15	0.00195	2e-05
333.15	0.00164	2e-05
343.15	0.00139	2e-05
353.15	0.00119	2e-05
363.15	0.00104	2e-05
373.15	0.00091	2e-05
373.15	0.000913	2.1e-05

System: 2,2,4,4,6,8,8-heptamethylnonane + 2,2,4,6,6-pentamethylheptane; phases: Liquid
Fixed: Pressure, kPa = 100
Property: Mass density, kg/m3 (Liquid); method: Vibrating tube method
Mole fraction of 2,2,4,4,6,8,8-heptamethylnonane	Temperature, K	Mass density, kg/m3	uncertainty
0.8711	293.15	780.52	0.24
0.7506	293.15	776.56	0.23
0.6371	293.15	772.47	0.23
0.5302	293.15	768.56	0.22
0.4293	293.15	764.68	0.22
0.334	293.15	760.65	0.21
0.2439	293.15	756.76	0.21
0.1584	293.15	752.89	0.21
0.0772	293.15	749.05	0.21
0.8711	303.15	773.76	0.24
0.7506	303.15	769.74	0.24
0.6371	303.15	765.59	0.23
0.5302	303.15	761.62	0.23
0.4293	303.15	757.69	0.22
0.334	303.15	753.6	0.22
0.2439	303.15	749.65	0.21
0.1584	303.15	745.73	0.21
0.0772	303.15	741.82	0.21
0.8711	313.15	766.98	0.24
0.7506	313.15	762.9	0.24
0.6371	313.15	758.69	0.23
0.5302	313.15	754.66	0.23
0.4293	313.15	750.67	0.22
0.334	313.15	746.52	0.22
0.2439	313.15	742.51	0.22
0.1584	313.15	738.53	0.21
0.0772	313.15	734.56	0.21
0.8711	323.15	760.19	0.25
0.7506	323.15	756.05	0.24
0.6371	323.15	751.78	0.23
0.5302	323.15	747.69	0.23
0.4293	323.15	743.63	0.23
0.334	323.15	739.41	0.22
0.2439	323.15	735.34	0.22
0.1584	323.15	731.3	0.22
0.0772	323.15	727.27	0.21
0.8711	333.15	753.38	0.25
0.7506	333.15	749.18	0.24
0.6371	333.15	744.84	0.24
0.5302	333.15	740.68	0.23
0.4293	333.15	736.56	0.23
0.334	333.15	732.28	0.23
0.2439	333.15	728.14	0.22
0.1584	333.15	724.04	0.22
0.0772	333.15	719.94	0.22
0.8711	343.15	746.55	0.25
0.7506	343.15	742.28	0.24
0.6371	343.15	737.87	0.24
0.5302	343.15	733.65	0.24
0.4293	343.15	729.46	0.23
0.334	343.15	725.11	0.23
0.2439	343.15	720.9	0.23
0.1584	343.15	716.73	0.22
0.0772	343.15	712.57	0.22
0.8711	353.15	739.5	0.3
0.7506	353.15	735.1	0.3
0.6371	353.15	730.8	0.2
0.5302	353.15	726.4	0.2
0.4293	353.15	722.1	0.2
0.334	353.15	717.7	0.2
0.2439	353.15	713.4	0.2
0.1584	353.15	709.3	0.2
0.0772	353.15	705	0.2
0.8711	363.15	732.5	0.3
0.7506	363.15	728.1	0.3
0.6371	363.15	723.7	0.3
0.5302	363.15	719.2	0.2
0.4293	363.15	714.8	0.2
0.334	363.15	710.4	0.2
0.2439	363.15	706.1	0.2
0.1584	363.15	701.8	0.2
0.0772	363.15	697.5	0.2
0.8711	373.15	725.6	0.3
0.7506	373.15	721.1	0.3
0.6371	373.15	716.7	0.3
0.5302	373.15	712.1	0.2
0.4293	373.15	707.5	0.2
0.334	373.15	703.1	0.2
0.2439	373.15	698.6	0.2
0.1584	373.15	694.2	0.2
0.0772	373.15	689.9	0.2

System: 2,2,4,4,6,8,8-heptamethylnonane + 2,2,4,6,6-pentamethylheptane; phases: Liquid
Fixed: Pressure, kPa = 100
Fixed: Frequency, MHz = 200
Property: Speed of sound, m/s (Liquid); method: Sing-around technique in a fixed-path interferometer
Mole fraction of 2,2,4,4,6,8,8-heptamethylnonane	Temperature, K	Speed of sound, m/s	uncertainty
0.8711	293.15	1276.9	1
0.7506	293.15	1268.2	1
0.6371	293.15	1259.6	1
0.5302	293.15	1251.1	1
0.4293	293.15	1242.9	1
0.334	293.15	1234.8	0.9
0.2439	293.15	1226.7	0.9
0.1584	293.15	1219.4	0.9
0.0772	293.15	1211.7	0.9
0.8711	303.15	1239.6	1
0.7506	303.15	1230.8	1
0.6371	303.15	1221.9	1
0.5302	303.15	1213.3	1
0.4293	303.15	1205	0.9
0.334	303.15	1196.6	0.9
0.2439	303.15	1188.4	0.9
0.1584	303.15	1180.9	0.9
0.0772	303.15	1173	0.9
0.8711	313.15	1202.8	1
0.7506	313.15	1193.9	1
0.6371	313.15	1184.8	1
0.5302	313.15	1176.1	1
0.4293	313.15	1167.6	0.9
0.334	313.15	1159	0.9
0.2439	313.15	1150.7	0.9
0.1584	313.15	1143	0.9
0.0772	313.15	1135	0.9
0.8711	323.15	1166.8	1
0.7506	323.15	1157.7	1
0.6371	323.15	1148.5	1
0.5302	323.15	1139.7	0.9
0.4293	323.15	1131	0.9
0.334	323.15	1122.2	0.9
0.2439	323.15	1113.7	0.9
0.1584	323.15	1105.9	0.9
0.0772	323.15	1097.7	0.9
0.8711	333.15	1131.6	1
0.7506	333.15	1122.3	1
0.6371	333.15	1112.9	1
0.5302	333.15	1103.9	0.9
0.4293	333.15	1095.1	0.9
0.334	333.15	1086.1	0.9
0.2439	333.15	1077.5	0.9
0.1584	333.15	1069.5	0.9
0.0772	333.15	1061.1	0.8
0.8711	343.15	1096.9	1
0.7506	343.15	1087.5	1
0.6371	343.15	1077.9	1
0.5302	343.15	1068.8	0.9
0.4293	343.15	1059.8	0.9
0.334	343.15	1050.7	0.9
0.2439	343.15	1041.9	0.9
0.1584	343.15	1033.7	0.9
0.0772	343.15	1025.2	0.8

System: 2,2,4,4,6,8,8-heptamethylnonane + 2,2,4,6,6-pentamethylheptane; phases: Liquid
Fixed: Pressure, kPa = 100
Property: Viscosity, Pa*s (Liquid); method: Concentric cylinders viscometry
Mole fraction of 2,2,4,4,6,8,8-heptamethylnonane	Temperature, K	Viscosity, Pa*s	uncertainty
1	293.15	0.00371	3e-05
0.8711	293.15	0.00325	3e-05
0.7506	293.15	0.00286	3e-05
0.6371	293.15	0.00256	3e-05
0.5302	293.15	0.00229	2e-05
0.4293	293.15	0.00208	2e-05
0.334	293.15	0.00187	2e-05
0.2439	293.15	0.0017	2e-05
0.1584	293.15	0.00155	2e-05
0.0772	293.15	0.00143	2e-05
0	293.15	0.00131	2e-05
1	303.15	0.00293	3e-05
0.8711	303.15	0.00259	3e-05
0.7506	303.15	0.00231	2e-05
0.6371	303.15	0.00208	2e-05
0.5302	303.15	0.00188	2e-05
0.4293	303.15	0.00171	2e-05
0.334	303.15	0.00155	2e-05
0.2439	303.15	0.00142	2e-05
0.1584	303.15	0.0013	2e-05
0.0772	303.15	0.0012	2e-05
0	303.15	0.00111	2e-05
1	313.15	0.00237	3e-05
0.8711	313.15	0.00212	2e-05
0.7506	313.15	0.0019	2e-05
0.6371	313.15	0.00172	2e-05
0.5302	313.15	0.00156	2e-05
0.4293	313.15	0.00143	2e-05
0.334	313.15	0.0013	2e-05
0.2439	313.15	0.0012	2e-05
0.1584	313.15	0.0011	2e-05
0.0772	313.15	0.00102	2e-05
0	313.15	0.000948	2.1e-05
1	323.15	0.00195	2e-05
0.8711	323.15	0.00176	2e-05
0.7506	323.15	0.00159	2e-05
0.6371	323.15	0.00144	2e-05
0.5302	323.15	0.00132	2e-05
0.4293	323.15	0.00121	2e-05
0.334	323.15	0.00111	2e-05
0.2439	323.15	0.00103	2e-05
0.1584	323.15	0.000947	2.1e-05
0.0772	323.15	0.000882	2.1e-05
0	323.15	0.00082	2.1e-05
1	333.15	0.00164	2e-05
0.8711	333.15	0.00148	2e-05
0.7506	333.15	0.00134	2e-05
0.6371	333.15	0.00123	2e-05
0.5302	333.15	0.00113	2e-05
0.4293	333.15	0.00104	2e-05
0.334	333.15	0.000956	2.1e-05
0.2439	333.15	0.000889	2.1e-05
0.1584	333.15	0.000822	2.1e-05
0.0772	333.15	0.000768	2.1e-05
0	333.15	0.000715	2.1e-05
1	343.15	0.00139	2e-05
0.8711	343.15	0.00126	2e-05
0.7506	343.15	0.00115	2e-05
0.6371	343.15	0.00106	2e-05
0.5302	343.15	0.000975	2.1e-05
0.4293	343.15	0.000906	2.1e-05
0.334	343.15	0.000834	2.1e-05
0.2439	343.15	0.000778	2.1e-05
0.1584	343.15	0.000721	2.1e-05
0.0772	343.15	0.000676	2.1e-05
0	343.15	0.000632	2.1e-05
1	353.15	0.00119	2e-05
0.8711	353.15	0.00109	2e-05
0.7506	353.15	0.000998	2.1e-05
0.6371	353.15	0.000923	2.1e-05
0.5302	353.15	0.000852	2.1e-05
0.4293	353.15	0.000794	2.1e-05
0.334	353.15	0.000734	2.1e-05
0.2439	353.15	0.000687	2.1e-05
0.1584	353.15	0.000638	2.1e-05
0.0772	353.15	0.0006	2.1e-05
0	353.15	0.000562	2.1e-05
1	363.15	0.00104	2e-05
0.8711	363.15	0.000954	2.1e-05
0.7506	363.15	0.00088	2.1e-05
0.6371	363.15	0.000813	2.1e-05
0.5302	363.15	0.000753	2.1e-05
0.4293	363.15	0.000704	2.1e-05
0.334	363.15	0.000653	2.1e-05
0.2439	363.15	0.000613	2.1e-05
0.1584	363.15	0.00057	2.1e-05
0.0772	363.15	0.000538	2.1e-05
0	363.15	0.000505	2.1e-05
1	373.15	0.000913	2.1e-05
0.8711	373.15	0.000841	2.1e-05
0.7506	373.15	0.00078	2.1e-05
0.6371	373.15	0.000723	2.1e-05
0.5302	373.15	0.000673	2.1e-05
0.4293	373.15	0.00063	2.1e-05
0.334	373.15	0.000586	2.1e-05
0.2439	373.15	0.000553	2.1e-05
0.1584	373.15	0.000515	2.1e-05
0.0772	373.15	0.000487	2.1e-05
0	373.15	0.000459	2.1e-05
