Measured thermophysical data. Solubility of Trehalose in Water + Ethanol Solvent System from (288.15 to 318.15) K
Source: J. Chem. Eng. Data, 2014, 10.1021/je5000428
Compound 1: .alpha.-trehalose, C12H22O11, InChI=1S/C12H22O11/c13-1-3-5(15)7(17)9(19)11(21-3)23-12-10(20)8(18)6(16)4(2-14)22-12/h3-20H,1-2H2/t3-,4-,5-,6-,7+,8+,9-,10-,11-,12-/m1/s1, purity 98%
Compound 2: water, H2O, InChI=1S/H2O/h1H2
Compound 3: ethanol, C2H6O, InChI=1S/C2H6O/c1-2-3/h3H,2H2,1H3, purity 99.7%

System: ethanol + .alpha.-trehalose + water; phases: Liquid, Crystal
Fixed: Pressure, kPa = 101
Property: Mole fraction of .alpha.-trehalose (Liquid); method: Chromatography
Temperature, K	Solvent: Mole fraction of water	Mole fraction of .alpha.-trehalose	uncertainty
288.15	0	0.0006525	0.000261
293.15	0	0.0007007	0.0002803
298.15	0	0.000778	0.0003112
303.15	0	0.0008516	0.0003406
308.15	0	0.0009053	0.0003621
313.15	0	0.0009885	0.0003954
318.15	0	0.0010805	0.0004322
288.15	0.009	0.0006307	0.0002523
308.15	0.01	0.0009412	0.0003765
313.15	0.01	0.001002	0.0004008
298.15	0.011	0.0008095	0.0003238
293.15	0.011	0.0006733	0.0002693
318.15	0.011	0.0010413	0.0004165
288.15	0.012	0.0004883	0.0001953
303.15	0.012	0.0008651	0.000346
298.15	0.019	0.0003507	0.0001403
293.15	0.019	0.0006146	0.0002458
303.15	0.02	0.0007761	0.0003104
313.15	0.02	0.001016	0.0004064
288.15	0.02	0.0004719	0.0001888
308.15	0.021	0.0006846	0.0002738
288.15	0.025	0.0002753	0.0001101
303.15	0.03	0.0002594	0.0001038
318.15	0.03	0.0001422	5.69e-05
308.15	0.031	0.0006914	0.0002766
293.15	0.037	8.22e-05	3.29e-05
288.15	0.039	0.0001928	7.71e-05
298.15	0.043	4.21e-05	1.68e-05

System: ethanol + .alpha.-trehalose + water; phases: Liquid, Crystal of intercomponent compound 1
Fixed: Pressure, kPa = 101
Property: Mole fraction of .alpha.-trehalose (Liquid); method: Chromatography
Temperature, K	Solvent: Mole fraction of water	Mole fraction of .alpha.-trehalose	uncertainty
303.15	0.04	4.48e-05	1.79e-05
308.15	0.04	6.69e-05	2.68e-05
318.15	0.041	0.0001139	4.56e-05
313.15	0.046	9.32e-05	3.73e-05
288.15	0.048	3.14e-05	1.26e-05
303.15	0.048	5.11e-05	2.04e-05
308.15	0.049	0.0001099	4.4e-05
293.15	0.05	4.03e-05	1.61e-05
313.15	0.05	0.0001232	4.93e-05
298.15	0.051	4.64e-05	1.86e-05
318.15	0.051	0.0001403	5.61e-05
313.15	0.098	0.000137	5.48e-05
318.15	0.098	0.0002008	8.03e-05
308.15	0.099	0.000196	7.84e-05
303.15	0.1	0.0001568	6.27e-05
288.15	0.1	8.28e-05	3.31e-05
293.15	0.1	8.27e-05	3.31e-05
298.15	0.101	0.0001218	4.87e-05
298.15	0.117	0.0001376	5.5e-05
308.15	0.14	0.0002321	9.28e-05
313.15	0.146	0.0002893	0.0001157
293.15	0.148	8.38e-05	3.35e-05
288.15	0.148	7.55e-05	3.02e-05
318.15	0.148	0.0003696	0.0001478
298.15	0.156	0.0001171	4.68e-05
303.15	0.161	0.0001611	6.44e-05
298.15	0.199	0.0001704	6.82e-05
308.15	0.199	0.000258	0.0001032
303.15	0.2	0.0002144	8.58e-05
288.15	0.2	0.0001127	4.51e-05
313.15	0.2	0.0003445	0.0001378
318.15	0.2	0.0004889	0.0001956
293.15	0.201	0.0001209	4.84e-05
303.15	0.299	0.0004034	6.05e-05
308.15	0.299	0.0005096	7.64e-05
298.15	0.299	0.000313	4.7e-05
313.15	0.299	0.0006602	9.9e-05
318.15	0.299	0.0009273	0.0001391
293.15	0.3	0.0002417	3.63e-05
288.15	0.3	0.0001769	2.65e-05
303.15	0.399	0.0009364	0.0001405
308.15	0.399	0.0011863	0.000178
318.15	0.399	0.0019407	0.0002911
293.15	0.4	0.000552	8.28e-05
288.15	0.4	0.0004704	7.06e-05
298.15	0.4	0.0007255	0.0001088
313.15	0.4	0.0015213	0.0002282
288.15	0.499	0.0010717	0.0001608
293.15	0.499	0.0013668	0.000205
318.15	0.499	0.0047141	0.0007072
303.15	0.5	0.0021738	0.0003261
308.15	0.5	0.0028007	0.0004201
313.15	0.5	0.0036079	0.0005412
298.15	0.5	0.0016944	0.0002542
318.15	0.589	0.0103401	0.0015512
298.15	0.597	0.0038425	0.0005764
293.15	0.598	0.0029313	0.0004397
288.15	0.599	0.0023879	0.0003582
303.15	0.6	0.0045427	0.0006815
313.15	0.6	0.0083312	0.0012498
308.15	0.61	0.0065068	0.0009761
293.15	0.699	0.0060955	0.0009144
288.15	0.7	0.0048475	0.0007272
303.15	0.7	0.0099425	0.0014915
298.15	0.7	0.0081224	0.0012185
318.15	0.7	0.0218481	0.0032775
313.15	0.701	0.0179826	0.0026977
308.15	0.71	0.0132056	0.001981
308.15	0.783	0.0249008	0.0037355
303.15	0.798	0.0192631	0.0028898
288.15	0.798	0.009159	0.001374
313.15	0.8	0.0313391	0.0047013
293.15	0.8	0.0111557	0.0016735
298.15	0.8	0.0150212	0.0022534
318.15	0.809	0.040835	0.0061259
288.15	0.897	0.0175972	0.0026398
313.15	0.897	0.047729	0.0071601
318.15	0.897	0.0824981	0.012376
298.15	0.898	0.0261257	0.0039192
303.15	0.898	0.0327518	0.0049133
308.15	0.898	0.0423724	0.0063565
293.15	0.898	0.0211164	0.0031678
308.15	1	0.0635541	0.0095341
303.15	1	0.0544558	0.0081692
298.15	1	0.0436626	0.00655
288.15	1	0.0344214	0.0051637
293.15	1	0.0380608	0.0057097
313.15	1	0.0682549	0.0102393
318.15	1	0.1142871	0.0171448

System: ethanol + .alpha.-trehalose; phases: Liquid, Crystal
Fixed: Pressure, kPa = 101
Property: Mole fraction of .alpha.-trehalose (Liquid); method: Chromatography
Temperature, K	Mole fraction of .alpha.-trehalose	uncertainty
288.15	0.0006525	0.000261
293.15	0.0007007	0.0002803
298.15	0.000778	0.0003112
303.15	0.0008516	0.0003406
308.15	0.0009053	0.0003621
313.15	0.0009885	0.0003954
318.15	0.0010805	0.0004322

System: .alpha.-trehalose + water; phases: Liquid, Crystal of intercomponent compound 1
Fixed: Pressure, kPa = 101
Property: Mole fraction of .alpha.-trehalose (Liquid); method: Chromatography
Temperature, K	Mole fraction of .alpha.-trehalose	uncertainty
308.15	0.0635541	0.0095341
303.15	0.0544558	0.0081692
298.15	0.0436626	0.00655
288.15	0.0344214	0.0051637
293.15	0.0380608	0.0057097
313.15	0.0682549	0.0102393
318.15	0.1142871	0.0171448
