Measured thermophysical data. Solid-Liquid Phase Equilibrium and Ternary Phase Diagrams of Ibuprofen-Nicotinamide Cocrystals in Ethanol and Ethanol/Water Mixtures at (298.15 and 313.15) K
Source: J. Chem. Eng. Data, 2015, 10.1021/je5011455
Compound 1: ibuprofen, C13H18O2, InChI=1S/C13H18O2/c1-9(2)8-11-4-6-12(7-5-11)10(3)13(14)15/h4-7,9-10H,8H2,1-3H3,(H,14,15), purity 99%
Compound 2: 3-pyridinecarboxamide, C6H6N2O, InChI=1S/C6H6N2O/c7-6(9)5-2-1-3-8-4-5/h1-4H,(H2,7,9), purity 99%
Compound 3: ethanol, C2H6O, InChI=1S/C2H6O/c1-2-3/h3H,2H2,1H3, purity 99.5%
Compound 4: water, H2O, InChI=1S/H2O/h1H2

System: ibuprofen + 3-pyridinecarboxamide + ethanol; phases: Liquid, Crystal
Fixed: Pressure, kPa = 101.3
Property: Mass fraction of 3-pyridinecarboxamide (Liquid); method: Phase equilibration
Temperature, K	Mass fraction of ibuprofen	Mass fraction of 3-pyridinecarboxamide	uncertainty
298.15	0	0.1075	0.1
298.15	0.0491	0.1163	0.1
298.15	0.0818	0.1129	0.1
298.15	0.1287	0.1143	0.1
298.15	0.1801	0.1155	0.1
313.15	0	0.172	0.1
313.15	0.0314	0.167	0.1
313.15	0.0735	0.1742	0.1
313.15	0.126	0.174	0.1
313.15	0.1988	0.1766	0.1
313.15	0.2511	0.1817	0.1

System: ibuprofen + 3-pyridinecarboxamide + ethanol; phases: Liquid, Crystal
Fixed: Pressure, kPa = 101.3
Property: Mass fraction of 3-pyridinecarboxamide (Liquid); method: Phase equilibration
Temperature, K	Mass fraction of ibuprofen	Mass fraction of 3-pyridinecarboxamide	uncertainty
298.15	0.5294	0.0348	0.0348
298.15	0.504	0	
313.15	0.643	0.0604	0.0604
313.15	0.6545	0	

System: 3-pyridinecarboxamide + ethanol + water; phases: Liquid, Crystal
Fixed: Pressure, kPa = 101.3
Fixed: Solvent: Mass fraction of water = 0.3
Property: Mass fraction of 3-pyridinecarboxamide (Liquid); method: Phase equilibration
Temperature, K	Mass fraction of 3-pyridinecarboxamide	uncertainty
298.15	0.33	0.1
313.15	0.4405	0.1

System: ibuprofen + ethanol + water; phases: Liquid, Crystal
Fixed: Pressure, kPa = 101.3
Fixed: Solvent: Mass fraction of water = 0.3
Property: Mass fraction of ibuprofen (Liquid); method: Phase equilibration
Temperature, K	Mass fraction of ibuprofen	uncertainty
298.15	0.32	0.1
313.15	0.545	0.1

System: 3-pyridinecarboxamide + ethanol; phases: Liquid, Crystal
Fixed: Pressure, kPa = 101.3
Property: Mass fraction of 3-pyridinecarboxamide (Liquid); method: Chromatography
Temperature, K	Mass fraction of 3-pyridinecarboxamide	uncertainty
298.15	0.1075	0.1
313.15	0.172	0.1

System: ibuprofen + ethanol; phases: Liquid, Crystal
Fixed: Pressure, kPa = 101.3
Property: Mass fraction of ibuprofen (Liquid); method: Chromatography
Temperature, K	Mass fraction of ibuprofen	uncertainty
298.15	0.504	0.1
313.15	0.6545	0.1
