Measured thermophysical data. Dilution Enthalpies and Enthalpic Pairwise Self-Interactions of Nicotinamide and Isonicotinamide in (Dimethylformamide + Water) and (Dimethylsulfoxide + Water) Mixed Solvents at 298.15 K
Source: J. Chem. Eng. Data, 2014, 10.1021/je500447r
Compound 1: 3-pyridinecarboxamide, C6H6N2O, InChI=1S/C6H6N2O/c7-6(9)5-2-1-3-8-4-5/h1-4H,(H2,7,9), purity 98%
Compound 2: 4-pyridinecarboxamide, C6H6N2O, InChI=1S/C6H6N2O/c7-6(9)5-1-3-8-4-2-5/h1-4H,(H2,7,9), purity 98%
Compound 3: dimethyl sulfoxide, C2H6OS, InChI=1S/C2H6OS/c1-4(2)3/h1-2H3, purity 99%
Compound 4: dimethylformamide, C3H7NO, InChI=1S/C3H7NO/c1-4(2)3-5/h3H,1-2H3, purity 99%
Compound 5: water, H2O, InChI=1S/H2O/h1H2, purity 99.8%

System: dimethyl sulfoxide + 3-pyridinecarboxamide + water; phases: Liquid
Fixed: Temperature, K = 298.15
Fixed: Pressure, kPa = 101.35
Property: Molar enthalpy of dilution, kJ/mol (Liquid); method: Calvet calorimetry
Solvent: Mole fraction of dimethyl sulfoxide	Initial molality of solute, mol/kg	Final molality of solute, mol/kg	Molar enthalpy of dilution, kJ/mol	uncertainty
0	0.00267	0.00443	0.94746	0.00811
0	0.00443	0.00617	0.9254	0.00794
0	0.00617	0.00789	0.90135	0.00776
0	0.00789	0.00959	0.87391	0.00754
0	0.00959	0.01128	0.85377	0.00739
0	0.01128	0.01294	0.83312	0.00723
0	0.01294	0.01459	0.81419	0.00708
0	0.01459	0.01623	0.79391	0.00692
0	0.01623	0.01784	0.77419	0.00677
0	0.01784	0.01944	0.7572	0.00664
0	0.01944	0.02102	0.74016	0.00651
0	0.02102	0.02258	0.72368	0.00638
0	0.02258	0.02412	0.70382	0.00623
0	0.02412	0.02564	0.68854	0.00611
0	0.02564	0.02715	0.6714	0.00598
0	0.02715	0.02864	0.65649	0.00586
0	0.02864	0.03011	0.64068	0.00574
0	0.03011	0.03157	0.62531	0.00562
0.0121	0.00606	0.00775	0.82369	0.00716
0.0121	0.00775	0.00943	0.80272	0.00699
0.0121	0.00262	0.00435	0.86662	0.00749
0.0121	0.00943	0.01108	0.77719	0.00679
0.0121	0.01108	0.01272	0.75993	0.00666
0.0121	0.01272	0.01435	0.74286	0.00653
0.0121	0.01435	0.01595	0.72898	0.00642
0.0121	0.01595	0.01754	0.71268	0.0063
0.0121	0.01754	0.01911	0.69522	0.00616
0.0121	0.01911	0.02066	0.68231	0.00606
0.0121	0.00435	0.00606	0.84582	0.00733
0.0121	0.02066	0.02219	0.66769	0.00595
0.0121	0.02219	0.02371	0.65015	0.00581
0.0121	0.02371	0.02521	0.63504	0.00569
0.0121	0.02521	0.02669	0.62022	0.00558
0.0121	0.02669	0.02815	0.6074	0.00548
0.0121	0.02815	0.0296	0.59239	0.00536
0.0121	0.0296	0.03103	0.57788	0.00525
0.025	0.01096	0.01258	0.70481	0.00623
0.025	0.01258	0.01419	0.69004	0.00612
0.025	0.00767	0.00932	0.73951	0.0065
0.025	0.01419	0.01577	0.67406	0.006
0.025	0.01577	0.01734	0.6582	0.00587
0.025	0.01734	0.0189	0.64317	0.00576
0.025	0.0043	0.00599	0.77779	0.0068
0.025	0.0189	0.02043	0.62882	0.00565
0.025	0.00259	0.0043	0.79513	0.00693
0.025	0.02043	0.02195	0.61589	0.00555
0.025	0.02195	0.02345	0.60046	0.00543
0.025	0.00932	0.01096	0.72297	0.00637
0.025	0.02345	0.02493	0.58663	0.00532
0.025	0.02493	0.02639	0.57164	0.0052
0.025	0.02639	0.02784	0.56089	0.00512
0.025	0.02784	0.02927	0.54684	0.00501
0.025	0.00599	0.00767	0.76158	0.00667
0.025	0.02927	0.03069	0.53399	0.00491
0.0391	0.01564	0.0172	0.60532	0.00546
0.0391	0.00427	0.00594	0.72045	0.00636
0.0391	0.0172	0.01873	0.5926	0.00537
0.0391	0.01873	0.02026	0.58017	0.00527
0.0391	0.01248	0.01407	0.6345	0.00569
0.0391	0.01087	0.01248	0.64847	0.0058
0.0391	0.00924	0.01087	0.66228	0.0059
0.0391	0.02026	0.02176	0.56823	0.00518
0.0391	0.02176	0.02325	0.55357	0.00506
0.0391	0.02325	0.02472	0.54194	0.00497
0.0391	0.00257	0.00427	0.73929	0.0065
0.0391	0.02472	0.02617	0.52935	0.00488
0.0391	0.00594	0.0076	0.70378	0.00623
0.0391	0.02617	0.0276	0.51771	0.00478
0.0391	0.01407	0.01564	0.61998	0.00558
0.0391	0.0076	0.00924	0.68064	0.00605
0.0391	0.0276	0.02902	0.50824	0.00471
0.0391	0.02902	0.03042	0.49704	0.00462
0.0546	0.01908	0.02063	0.54436	0.00499
0.0546	0.01593	0.01752	0.56939	0.00519
0.0546	0.01271	0.01433	0.59628	0.00539
0.0546	0.02063	0.02217	0.53362	0.00491
0.0546	0.00435	0.00605	0.67567	0.00601
0.0546	0.01107	0.01271	0.60848	0.00549
0.0546	0.02217	0.02368	0.51969	0.0048
0.0546	0.02368	0.02518	0.50886	0.00472
0.0546	0.00942	0.01107	0.62396	0.00561
0.0546	0.02518	0.02666	0.49745	0.00463
0.0546	0.01752	0.01908	0.55696	0.00509
0.0546	0.02666	0.02812	0.48734	0.00455
0.0546	0.00774	0.00942	0.63734	0.00571
0.0546	0.02812	0.02957	0.4772	0.00447
0.0546	0.00262	0.00435	0.69177	0.00613
0.0546	0.01433	0.01593	0.58272	0.00529
0.0546	0.02957	0.03099	0.46579	0.00438
0.0546	0.00605	0.00774	0.65934	0.00588
0.0714	0.02324	0.02471	0.45716	0.00432
0.0714	0.01719	0.01873	0.49862	0.00464
0.0714	0.01563	0.01719	0.51088	0.00473
0.0714	0.00257	0.00426	0.6199	0.00558
0.0714	0.02471	0.02616	0.44614	0.00423
0.0714	0.01406	0.01563	0.52229	0.00482
0.0714	0.00924	0.01086	0.55568	0.00508
0.0714	0.02616	0.02759	0.43783	0.00417
0.0714	0.01247	0.01406	0.53403	0.00491
0.0714	0.00594	0.0076	0.5905	0.00535
0.0714	0.02759	0.02901	0.42795	0.00409
0.0714	0.02175	0.02324	0.46655	0.00439
0.0714	0.0076	0.00924	0.57353	0.00522
0.0714	0.00426	0.00594	0.60693	0.00548
0.0714	0.02025	0.02175	0.47821	0.00448
0.0714	0.02901	0.03041	0.41817	0.00401
0.0714	0.01873	0.02025	0.48858	0.00456
0.0714	0.01086	0.01247	0.54544	0.005
0.09	0.00606	0.00775	0.56468	0.00515
0.09	0.02668	0.02814	0.41727	0.00401
0.09	0.0191	0.02065	0.46575	0.00438
0.09	0.00262	0.00435	0.59142	0.00536
0.09	0.0237	0.0252	0.43617	0.00415
0.09	0.02065	0.02219	0.45699	0.00431
0.09	0.0252	0.02668	0.42642	0.00408
0.09	0.00942	0.01108	0.53331	0.00491
0.09	0.02814	0.02959	0.40733	0.00393
0.09	0.01108	0.01272	0.52011	0.0048
0.09	0.01595	0.01753	0.48693	0.00455
0.09	0.00435	0.00606	0.57834	0.00525
0.09	0.01753	0.0191	0.47575	0.00446
0.09	0.01434	0.01595	0.49786	0.00463
0.09	0.01272	0.01434	0.50863	0.00471
0.09	0.02959	0.03102	0.39891	0.00386
0.09	0.00775	0.00942	0.54403	0.00499
0.09	0.02219	0.0237	0.44518	0.00422

System: dimethyl sulfoxide + 4-pyridinecarboxamide + water; phases: Liquid
Fixed: Temperature, K = 298.15
Fixed: Pressure, kPa = 101.35
Property: Molar enthalpy of dilution, kJ/mol (Liquid); method: Calvet calorimetry
Solvent: Mole fraction of dimethyl sulfoxide	Initial molality of solute, mol/kg	Final molality of solute, mol/kg	Molar enthalpy of dilution, kJ/mol	uncertainty
0.0121	0.00243	0.00403	0.74245	0.00653
0.0121	0.00403	0.00561	0.72584	0.0064
0.0121	0.00561	0.00717	0.70841	0.00626
0.0121	0.00717	0.00872	0.68959	0.00612
0.0121	0.00872	0.01026	0.66887	0.00596
0.0121	0.01026	0.01177	0.6539	0.00584
0.0121	0.01177	0.01327	0.63989	0.00573
0.0121	0.01327	0.01476	0.62564	0.00562
0.0121	0.01476	0.01622	0.61066	0.0055
0.0121	0.01622	0.01768	0.59722	0.0054
0.0121	0.01768	0.01911	0.58504	0.00531
0.0121	0.01911	0.02053	0.57277	0.00521
0.0121	0.02053	0.02193	0.55856	0.0051
0.0121	0.02193	0.02332	0.54621	0.00501
0.0121	0.02332	0.02469	0.53408	0.00491
0.0121	0.02469	0.02605	0.52261	0.00482
0.0121	0.02605	0.02738	0.51124	0.00473
0.0121	0.02738	0.02871	0.49793	0.00463
0.025	0.00241	0.00399	0.69005	0.00612
0.025	0.00399	0.00556	0.67551	0.00601
0.025	0.00556	0.00711	0.65972	0.00588
0.025	0.00711	0.00865	0.63813	0.00572
0.025	0.00865	0.01017	0.62245	0.0056
0.025	0.01017	0.01168	0.60946	0.0055
0.025	0.01168	0.01317	0.5967	0.0054
0.025	0.01317	0.01464	0.583	0.00529
0.025	0.01464	0.01609	0.57071	0.0052
0.025	0.01609	0.01753	0.55552	0.00508
0.025	0.01753	0.01896	0.54562	0.005
0.025	0.01896	0.02037	0.53452	0.00492
0.025	0.02037	0.02176	0.52125	0.00481
0.025	0.02176	0.02313	0.50955	0.00472
0.025	0.02313	0.02449	0.49793	0.00463
0.025	0.02449	0.02584	0.4874	0.00455
0.025	0.02584	0.02716	0.46531	0.00438
0.025	0.02716	0.02847	0.46649	0.00439
0.0391	0.00263	0.00436	0.69397	0.00615
0.0391	0.00436	0.00607	0.67808	0.00603
0.0391	0.00607	0.00777	0.66166	0.0059
0.0391	0.00777	0.00945	0.63785	0.00572
0.0391	0.00945	0.01111	0.625	0.00562
0.0391	0.01111	0.01275	0.61001	0.0055
0.0391	0.01275	0.01438	0.5975	0.0054
0.0391	0.01438	0.01599	0.58366	0.0053
0.0391	0.01599	0.01758	0.57015	0.00519
0.0391	0.01758	0.01915	0.55728	0.00509
0.0391	0.01915	0.02071	0.5462	0.00501
0.0391	0.02071	0.02224	0.53437	0.00491
0.0391	0.02224	0.02376	0.52098	0.00481
0.0391	0.02376	0.02527	0.50954	0.00472
0.0391	0.02527	0.02675	0.49812	0.00463
0.0391	0.02675	0.02822	0.48738	0.00455
0.0391	0.02822	0.02967	0.47098	0.00442
0.0391	0.02967	0.0311	0.46574	0.00438
0.0546	0.00265	0.0044	0.64195	0.00575
0.0546	0.0044	0.00613	0.6278	0.00564
0.0546	0.00613	0.00784	0.61379	0.00553
0.0546	0.00784	0.00953	0.59696	0.0054
0.0546	0.00953	0.01121	0.58289	0.00529
0.0546	0.01121	0.01287	0.56659	0.00516
0.0546	0.01287	0.01451	0.55471	0.00507
0.0546	0.01451	0.01613	0.54103	0.00497
0.0546	0.01613	0.01773	0.52926	0.00487
0.0546	0.01773	0.01932	0.51838	0.00479
0.0546	0.01932	0.02089	0.50774	0.00471
0.0546	0.02089	0.02244	0.4972	0.00463
0.0546	0.02244	0.02397	0.48458	0.00453
0.0546	0.02397	0.02549	0.47442	0.00445
0.0546	0.02549	0.02699	0.46411	0.00437
0.0546	0.02699	0.02847	0.44706	0.00424
0.0546	0.02847	0.02993	0.44472	0.00422
0.0546	0.02993	0.03137	0.43459	0.00414
0.0714	0.00263	0.00437	0.5929	0.00537
0.0714	0.00437	0.00608	0.57816	0.00525
0.0714	0.00608	0.00778	0.5665	0.00516
0.0714	0.00778	0.00946	0.54901	0.00503
0.0714	0.00946	0.01112	0.53708	0.00493
0.0714	0.01112	0.01277	0.5226	0.00482
0.0714	0.01277	0.01439	0.51171	0.00474
0.0714	0.01439	0.016	0.5009	0.00465
0.0714	0.016	0.01759	0.489	0.00456
0.0714	0.01759	0.01917	0.47932	0.00449
0.0714	0.01917	0.02073	0.47008	0.00442
0.0714	0.02073	0.02227	0.46059	0.00434
0.0714	0.02227	0.02379	0.44996	0.00426
0.0714	0.02379	0.02529	0.44062	0.00419
0.0714	0.02529	0.02678	0.43098	0.00411
0.0714	0.02678	0.02825	0.42005	0.00403
0.0714	0.02825	0.0297	0.41257	0.00397
0.0714	0.0297	0.03113	0.40301	0.0039
0.09	0.00264	0.00438	0.53709	0.00494
0.09	0.00438	0.00611	0.52687	0.00486
0.09	0.00611	0.00781	0.51133	0.00474
0.09	0.00781	0.0095	0.4989	0.00464
0.09	0.0095	0.01117	0.48516	0.00453
0.09	0.01117	0.01282	0.47241	0.00443
0.09	0.01282	0.01446	0.46166	0.00435
0.09	0.01446	0.01607	0.45352	0.00429
0.09	0.01607	0.01767	0.44243	0.0042
0.09	0.01767	0.01925	0.43275	0.00413
0.09	0.01925	0.02082	0.42469	0.00406
0.09	0.02082	0.02236	0.41617	0.004
0.09	0.02236	0.02389	0.40567	0.00392
0.09	0.02389	0.0254	0.39749	0.00385
0.09	0.0254	0.02689	0.38443	0.00375
0.09	0.02689	0.02837	0.38053	0.00372
0.09	0.02837	0.02983	0.3724	0.00366
0.09	0.02983	0.03127	0.36346	0.00359

System: dimethylformamide + 3-pyridinecarboxamide + water; phases: Liquid
Fixed: Temperature, K = 298.15
Fixed: Pressure, kPa = 101.35
Property: Molar enthalpy of dilution, kJ/mol (Liquid); method: Calvet calorimetry
Solvent: Mole fraction of dimethylformamide	Initial molality of solute, mol/kg	Final molality of solute, mol/kg	Molar enthalpy of dilution, kJ/mol	uncertainty
0.0128	0.00269	0.00446	0.70937	0.00627
0.0128	0.00446	0.00621	0.69345	0.00615
0.0128	0.00621	0.00794	0.67567	0.00601
0.0128	0.00794	0.00966	0.65496	0.00585
0.0128	0.00966	0.01136	0.63959	0.00573
0.0128	0.01136	0.01304	0.62427	0.00561
0.0128	0.01304	0.0147	0.61057	0.0055
0.0128	0.0147	0.01634	0.59646	0.00539
0.0128	0.01634	0.01797	0.58242	0.00529
0.0128	0.01797	0.01958	0.56921	0.00518
0.0128	0.01958	0.02117	0.55681	0.00509
0.0128	0.02117	0.02274	0.54439	0.00499
0.0128	0.02274	0.02429	0.52995	0.00488
0.0128	0.02429	0.02583	0.51793	0.00479
0.0128	0.02583	0.02735	0.50673	0.0047
0.0128	0.02735	0.02885	0.49548	0.00461
0.0128	0.02885	0.03033	0.48378	0.00452
0.0128	0.03033	0.03179	0.47243	0.00443
0.0265	0.00261	0.00432	0.54375	0.00499
0.0265	0.00432	0.00602	0.53334	0.00491
0.0265	0.00602	0.0077	0.51954	0.0048
0.0265	0.0077	0.00936	0.5028	0.00467
0.0265	0.00936	0.01101	0.49269	0.00459
0.0265	0.01101	0.01264	0.48137	0.0045
0.0265	0.01264	0.01425	0.47097	0.00442
0.0265	0.01425	0.01584	0.46052	0.00434
0.0265	0.01584	0.01742	0.44911	0.00425
0.0265	0.01742	0.01898	0.43922	0.00418
0.0265	0.01898	0.02052	0.43039	0.00411
0.0265	0.02052	0.02204	0.42047	0.00403
0.0265	0.02204	0.02355	0.41002	0.00395
0.0265	0.02355	0.02503	0.4019	0.00389
0.0265	0.02503	0.02651	0.39143	0.00381
0.0265	0.02651	0.02796	0.38386	0.00375
0.0265	0.02796	0.0294	0.37604	0.00369
0.0265	0.0294	0.03082	0.36732	0.00362
0.0417	0.00267	0.00443	0.44345	0.00421
0.0417	0.00443	0.00617	0.43471	0.00414
0.0417	0.00617	0.0079	0.42544	0.00407
0.0417	0.0079	0.0096	0.41205	0.00397
0.0417	0.0096	0.01129	0.40199	0.00389
0.0417	0.01129	0.01296	0.39278	0.00382
0.0417	0.01296	0.01461	0.38408	0.00375
0.0417	0.01461	0.01624	0.37565	0.00368
0.0417	0.01624	0.01786	0.36809	0.00363
0.0417	0.01786	0.01946	0.36026	0.00357
0.0417	0.01946	0.02104	0.3527	0.00351
0.0417	0.02104	0.0226	0.3456	0.00345
0.0417	0.0226	0.02415	0.33672	0.00338
0.0417	0.02415	0.02567	0.33018	0.00333
0.0417	0.02567	0.02718	0.32122	0.00326
0.0417	0.02718	0.02867	0.31539	0.00322
0.0417	0.02867	0.03015	0.30982	0.00317
0.0417	0.03015	0.0316	0.30173	0.00311
0.0581	0.00303	0.00503	0.40746	0.00393
0.0581	0.00503	0.00701	0.39987	0.00387
0.0581	0.00701	0.00896	0.39123	0.00381
0.0581	0.00896	0.0109	0.38118	0.00373
0.0581	0.0109	0.01281	0.37142	0.00365
0.0581	0.01281	0.01471	0.36184	0.00358
0.0581	0.01471	0.01658	0.35435	0.00352
0.0581	0.01658	0.01844	0.34634	0.00346
0.0581	0.01844	0.02027	0.33797	0.00339
0.0581	0.02027	0.02208	0.33064	0.00334
0.0581	0.02208	0.02388	0.32396	0.00328
0.0581	0.02388	0.02565	0.31691	0.00323
0.0581	0.02565	0.0274	0.30924	0.00317
0.0581	0.0274	0.02914	0.30231	0.00312
0.0581	0.02914	0.03085	0.29619	0.00307
0.0581	0.03085	0.03254	0.28973	0.00302
0.0581	0.03254	0.03421	0.28341	0.00297
0.0581	0.03421	0.03586	0.27775	0.00293
0.0763	0.00368	0.00611	0.39493	0.00383
0.0763	0.00611	0.00851	0.38688	0.00377
0.0763	0.00851	0.01089	0.3784	0.00371
0.0763	0.01089	0.01324	0.3678	0.00362
0.0763	0.01324	0.01557	0.35961	0.00356
0.0763	0.01557	0.01787	0.35066	0.00349
0.0763	0.01787	0.02015	0.34303	0.00343
0.0763	0.02015	0.0224	0.33527	0.00337
0.0763	0.0224	0.02463	0.32729	0.00331
0.0763	0.02463	0.02683	0.31993	0.00325
0.0763	0.02683	0.02901	0.31306	0.0032
0.0763	0.02901	0.03117	0.30674	0.00315
0.0763	0.03117	0.0333	0.29948	0.00309
0.0763	0.0333	0.0354	0.29331	0.00305
0.0763	0.0354	0.03748	0.28601	0.00299
0.0763	0.03748	0.03954	0.28002	0.00294
0.0763	0.03954	0.04157	0.27446	0.0029
0.0763	0.04157	0.04358	0.26586	0.00283
0.0957	0.00385	0.00638	0.34631	0.00346
0.0957	0.00638	0.00889	0.33852	0.0034
0.0957	0.00889	0.01137	0.33046	0.00333
0.0957	0.01137	0.01383	0.3221	0.00327
0.0957	0.01383	0.01626	0.31385	0.00321
0.0957	0.01626	0.01867	0.30606	0.00315
0.0957	0.01867	0.02105	0.29965	0.0031
0.0957	0.02105	0.0234	0.29258	0.00304
0.0957	0.0234	0.02573	0.28529	0.00298
0.0957	0.02573	0.02803	0.27877	0.00293
0.0957	0.02803	0.03031	0.27272	0.00289
0.0957	0.03031	0.03256	0.26641	0.00284
0.0957	0.03256	0.03478	0.25946	0.00278
0.0957	0.03478	0.03698	0.25383	0.00274
0.0957	0.03698	0.03916	0.24756	0.00269
0.0957	0.03916	0.0413	0.2426	0.00265
0.0957	0.0413	0.04343	0.23751	0.00261
0.0957	0.04343	0.04552	0.2305	0.00256

System: dimethylformamide + 4-pyridinecarboxamide + water; phases: Liquid
Fixed: Temperature, K = 298.15
Fixed: Pressure, kPa = 101.35
Property: Molar enthalpy of dilution, kJ/mol (Liquid); method: Calvet calorimetry
Solvent: Mole fraction of dimethylformamide	Initial molality of solute, mol/kg	Final molality of solute, mol/kg	Molar enthalpy of dilution, kJ/mol	uncertainty
0.0128	0.00264	0.00438	0.64294	0.00575
0.0128	0.00438	0.0061	0.62805	0.00564
0.0128	0.0061	0.0078	0.61303	0.00552
0.0128	0.0078	0.00948	0.59297	0.00537
0.0128	0.00948	0.01115	0.57914	0.00526
0.0128	0.01115	0.0128	0.56525	0.00515
0.0128	0.0128	0.01443	0.55341	0.00506
0.0128	0.01443	0.01605	0.54032	0.00496
0.0128	0.01605	0.01764	0.52809	0.00487
0.0128	0.01764	0.01922	0.51563	0.00477
0.0128	0.01922	0.02078	0.50452	0.00468
0.0128	0.02078	0.02232	0.4928	0.00459
0.0128	0.02232	0.02385	0.48034	0.0045
0.0128	0.02385	0.02536	0.47026	0.00442
0.0128	0.02536	0.02685	0.459	0.00433
0.0128	0.02685	0.02832	0.44961	0.00426
0.0128	0.02832	0.02978	0.43919	0.00418
0.0128	0.02978	0.03121	0.42876	0.0041
0.0265	0.00261	0.00433	0.50349	0.00467
0.0265	0.00433	0.00603	0.49237	0.00459
0.0265	0.00603	0.00772	0.4811	0.0045
0.0265	0.00772	0.00938	0.46723	0.00439
0.0265	0.00938	0.01103	0.45664	0.00431
0.0265	0.01103	0.01267	0.44412	0.00421
0.0265	0.01267	0.01428	0.43451	0.00414
0.0265	0.01428	0.01588	0.42535	0.00407
0.0265	0.01588	0.01746	0.41552	0.00399
0.0265	0.01746	0.01902	0.40646	0.00392
0.0265	0.01902	0.02056	0.39916	0.00387
0.0265	0.02056	0.02209	0.39013	0.0038
0.0265	0.02209	0.0236	0.38021	0.00372
0.0265	0.0236	0.02509	0.37229	0.00366
0.0265	0.02509	0.02657	0.36365	0.00359
0.0265	0.02657	0.02802	0.3554	0.00353
0.0265	0.02802	0.02946	0.34776	0.00347
0.0265	0.02946	0.03089	0.3399	0.00341
0.0417	0.00277	0.00459	0.42164	0.00404
0.0417	0.00459	0.00639	0.4104	0.00395
0.0417	0.00639	0.00817	0.4025	0.00389
0.0417	0.00817	0.00994	0.38973	0.00379
0.0417	0.00994	0.01169	0.38053	0.00372
0.0417	0.01169	0.01341	0.37184	0.00366
0.0417	0.01341	0.01512	0.36352	0.00359
0.0417	0.01512	0.01682	0.35479	0.00352
0.0417	0.01682	0.01849	0.34644	0.00346
0.0417	0.01849	0.02014	0.33823	0.00339
0.0417	0.02014	0.02178	0.33149	0.00334
0.0417	0.02178	0.0234	0.32385	0.00328
0.0417	0.0234	0.025	0.31593	0.00322
0.0417	0.025	0.02658	0.30896	0.00317
0.0417	0.02658	0.02814	0.30158	0.00311
0.0417	0.02814	0.02968	0.29452	0.00306
0.0417	0.02968	0.03121	0.28764	0.003
0.0417	0.03121	0.03271	0.28073	0.00295
0.0581	0.00282	0.00468	0.35089	0.00349
0.0581	0.00468	0.00652	0.34298	0.00343
0.0581	0.00652	0.00835	0.33411	0.00336
0.0581	0.00835	0.01015	0.32386	0.00328
0.0581	0.01015	0.01193	0.31656	0.00323
0.0581	0.01193	0.0137	0.30951	0.00317
0.0581	0.0137	0.01544	0.3023	0.00312
0.0581	0.01544	0.01717	0.29568	0.00307
0.0581	0.01717	0.01888	0.28875	0.00301
0.0581	0.01888	0.02057	0.28196	0.00296
0.0581	0.02057	0.02224	0.27643	0.00292
0.0581	0.02224	0.02389	0.27007	0.00287
0.0581	0.02389	0.02552	0.26307	0.00281
0.0581	0.02552	0.02714	0.25747	0.00277
0.0581	0.02714	0.02873	0.25144	0.00272
0.0581	0.02873	0.03031	0.24588	0.00268
0.0581	0.03031	0.03186	0.24103	0.00264
0.0581	0.03186	0.0334	0.23562	0.0026
0.0763	0.00377	0.00626	0.38777	0.00378
0.0763	0.00626	0.00871	0.37847	0.00371
0.0763	0.00871	0.01115	0.36989	0.00364
0.0763	0.01115	0.01355	0.36027	0.00357
0.0763	0.01355	0.01594	0.35051	0.00349
0.0763	0.01594	0.01829	0.34123	0.00342
0.0763	0.01829	0.02063	0.33404	0.00336
0.0763	0.02063	0.02293	0.32632	0.0033
0.0763	0.02293	0.02521	0.31894	0.00325
0.0763	0.02521	0.02747	0.31186	0.00319
0.0763	0.02747	0.0297	0.30592	0.00314
0.0763	0.0297	0.03191	0.29894	0.00309
0.0763	0.03191	0.03409	0.28989	0.00302
0.0763	0.03409	0.03624	0.28551	0.00299
0.0763	0.03624	0.03837	0.27901	0.00294
0.0763	0.03837	0.04048	0.27294	0.00289
0.0763	0.04048	0.04256	0.2674	0.00285
0.0763	0.04256	0.04461	0.26175	0.0028
0.0957	0.0041	0.0068	0.34072	0.00341
0.0957	0.0068	0.00948	0.33294	0.00335
0.0957	0.00948	0.01212	0.32511	0.00329
0.0957	0.01212	0.01474	0.31587	0.00322
0.0957	0.01474	0.01733	0.3079	0.00316
0.0957	0.01733	0.01989	0.30103	0.00311
0.0957	0.01989	0.02243	0.29463	0.00306
0.0957	0.02243	0.02494	0.28793	0.00301
0.0957	0.02494	0.02742	0.28168	0.00296
0.0957	0.02742	0.02987	0.27581	0.00291
0.0957	0.02987	0.0323	0.26962	0.00286
0.0957	0.0323	0.03469	0.26425	0.00282
0.0957	0.03469	0.03707	0.25775	0.00277
0.0957	0.03707	0.03941	0.25232	0.00273
0.0957	0.03941	0.04172	0.24682	0.00269
0.0957	0.04172	0.04401	0.24182	0.00265
0.0957	0.04401	0.04627	0.235	0.0026
0.0957	0.04627	0.04851	0.2316	0.00257

System: 3-pyridinecarboxamide + water; phases: Liquid
Fixed: Temperature, K = 298.15
Fixed: Pressure, kPa = 101.35
Property: Molar enthalpy of dilution, kJ/mol (Liquid); method: Calvet calorimetry
Initial molality of solute, mol/kg	Final molality of solute, mol/kg	Molar enthalpy of dilution, kJ/mol	uncertainty
0.00267	0.00443	0.94746	0.00811
0.00443	0.00617	0.9254	0.00794
0.00617	0.00789	0.90135	0.00776
0.00789	0.00959	0.87391	0.00754
0.00959	0.01128	0.85377	0.00739
0.01128	0.01294	0.83312	0.00723
0.01294	0.01459	0.81419	0.00708
0.01459	0.01623	0.79391	0.00692
0.01623	0.01784	0.77419	0.00677
0.01784	0.01944	0.7572	0.00664
0.01944	0.02102	0.74016	0.00651
0.02102	0.02258	0.72368	0.00638
0.02258	0.02412	0.70382	0.00623
0.02412	0.02564	0.68854	0.00611
0.02564	0.02715	0.6714	0.00598
0.02715	0.02864	0.65649	0.00586
0.02864	0.03011	0.64068	0.00574
0.03011	0.03157	0.62531	0.00562
