Measured thermophysical data. Isothermal Vapor Liquid Equilibrium Data for the Binary System 1,1,2,3,3,3-Hexafluoro-1-propene (R1216) + 2,2,3-Trifluoro-3-(trifluoromethyl)oxirane from (268.13 to 308.19) K
Source: J. Chem. Eng. Data, 2015, 10.1021/je5006938
Compound 1: hexafluoropropene, C3F6, InChI=1S/C3F6/c4-1(2(5)6)3(7,8)9, purity 99.9%
Compound 2: 2,2,3-trifluoro-3-(trifluoromethyl)oxirane, C3F6O, InChI=1S/C3F6O/c4-1(2(5,6)7)3(8,9)10-1, purity 99.7%

System: hexafluoropropene; phases: Liquid, Gas
Property: Vapor or sublimation pressure, kPa (Liquid); method: Closed cell (Static) method
Temperature, K	Vapor or sublimation pressure, kPa	uncertainty
268.13	278.57	1.71
278.14	394.08	1.87
288.14	542.58	2.2
298.14	729.82	2.63
308.19	963.24	3.17
318.22	1251.16	3.58

System: 2,2,3-trifluoro-3-(trifluoromethyl)oxirane; phases: Liquid, Gas
Property: Vapor or sublimation pressure, kPa (Liquid); method: Closed cell (Static) method
Temperature, K	Vapor or sublimation pressure, kPa	uncertainty
268.13	258.47	1.65
278.13	365.66	1.8
288.15	503.71	2.1
298.17	678.24	2.49
308.2	894.42	2.99
318.21	1160.25	3.37

System: hexafluoropropene + 2,2,3-trifluoro-3-(trifluoromethyl)oxirane; phases: Liquid, Gas
Property: Vapor or sublimation pressure, kPa (Liquid); method: Closed cell (Static) method
Mole fraction of hexafluoropropene	Temperature, K	Vapor or sublimation pressure, kPa	uncertainty
0.0486	268.13	259.68	1.92
0.1427	268.13	261.83	2.13
0.2304	268.13	263.86	2.2
0.3122	268.14	265.55	1.95
0.4331	268.14	268.16	1.97
0.5259	268.14	270.07	1.96
0.6244	268.13	271.82	1.97
0.7347	268.14	273.95	1.97
0.8302	268.13	275.56	1.98
0.867	268.12	276.21	1.98
0.9584	268.14	277.73	1.99
0.9848	268.14	278.28	1.99
0.0272	278.15	366.58	2.01
0.074	278.15	368.21	2.02
0.1926	278.15	372.22	2.04
0.3328	278.13	376.63	2.05
0.4581	278.15	380.28	2.2
0.6285	278.16	385.05	2.23
0.7019	278.15	386.91	2.58
0.7722	278.15	388.72	2.25
0.9064	278.14	391.87	2.52
0.9356	278.14	392.5	2.09
0.9622	278.14	393.24	2.34
0.0196	288.14	504.65	2.67
0.0974	288.15	508.33	2.68
0.2168	288.16	513.67	2.74
0.2953	288.16	517.03	2.8
0.4009	288.16	521.4	2.69
0.5483	288.16	527.26	2.67
0.5825	288.14	528.48	2.67
0.8344	288.15	537.13	2.85
0.8669	288.14	538.29	2.56
0.9064	288.14	539.66	2.59
0.9673	288.15	541.68	2.56
0.0315	298.15	679.93	3.04
0.0932	298.17	683.72	3.34
0.1873	298.16	689.38	3.1
0.2426	298.17	692.57	3.34
0.315	298.15	696.82	3.09
0.439	298.15	703.53	3
0.4906	298.16	706.37	3.29
0.5425	298.18	709.19	3.03
0.5619	298.17	709.97	7
0.715	298.19	717.96	3.32
0.8286	298.15	722.58	3.2
0.9315	298.16	726.83	3.18
0.99	298.17	729.55	3.18
0.0025	308.18	895.33	3.62
0.036	308.18	897.97	3.6
0.0693	308.18	900.9	3.62
0.1631	308.19	908.22	3.67
0.225	308.18	912.35	3.69
0.3079	308.19	918.65	3.69
0.3781	308.19	923.91	3.8
0.4838	308.19	931.2	3.76
0.6001	308.18	939.14	3.76
0.691	308.18	944.9	3.91
0.7768	308.19	950.2	3.81
0.8603	308.19	955.17	3.78
0.9372	308.19	959.98	3.79
0.9514	308.18	960.9	3.8
0.9736	308.18	961.97	3.86

System: hexafluoropropene + 2,2,3-trifluoro-3-(trifluoromethyl)oxirane; phases: Gas, Liquid
Property: Mole fraction of hexafluoropropene (Gas); method: Chromatography
Mole fraction of hexafluoropropene	Temperature, K	Mole fraction of hexafluoropropene	uncertainty
0.0486	268.13	0.0536	0.0068
0.1427	268.13	0.152	0.0099
0.2304	268.13	0.2457	0.0103
0.3122	268.14	0.3287	0.0112
0.4331	268.14	0.4524	0.0116
0.5259	268.14	0.54	0.0129
0.6244	268.13	0.6391	0.0118
0.7347	268.14	0.7448	0.0102
0.8302	268.13	0.8385	0.0073
0.867	268.12	0.8733	0.0058
0.9584	268.14	0.9603	0.0017
0.9848	268.14	0.9854	0.001
0.0272	278.15	0.0286	0.0016
0.074	278.15	0.0768	0.0054
0.1926	278.15	0.2021	0.0073
0.3328	278.13	0.3473	0.0107
0.4581	278.15	0.4732	0.0117
0.6285	278.16	0.6405	0.0107
0.7019	278.15	0.7145	0.0096
0.7722	278.15	0.7813	0.0076
0.9064	278.14	0.9103	0.0038
0.9356	278.14	0.9387	0.0028
0.9622	278.14	0.9641	0.002
0.0196	288.14	0.0212	0.001
0.0974	288.15	0.1034	0.0061
0.2168	288.16	0.2284	0.0082
0.2953	288.16	0.3088	0.0098
0.4009	288.16	0.416	0.0114
0.5483	288.16	0.5635	0.0116
0.5825	288.14	0.5971	0.0109
0.8344	288.15	0.8435	0.0059
0.8669	288.14	0.8721	0.0053
0.9064	288.14	0.9103	0.0043
0.9673	288.15	0.9686	0.0016
0.0315	298.15	0.0338	0.0015
0.0932	298.17	0.0978	0.0044
0.1873	298.16	0.1975	0.0077
0.2426	298.17	0.2539	0.0089
0.315	298.15	0.3285	0.0105
0.439	298.15	0.4532	0.0121
0.4906	298.16	0.5033	0.0118
0.5425	298.18	0.5564	0.012
0.5619	298.17	0.5752	0.0121
0.715	298.19	0.7255	0.0092
0.8286	298.15	0.8351	0.0064
0.9315	298.16	0.9346	0.0031
0.99	298.17	0.9903	0.0006
0.0025	308.18	0.0027	0.0012
0.036	308.18	0.0381	0.0032
0.0693	308.18	0.0743	0.0078
0.1631	308.19	0.1697	0.0075
0.225	308.18	0.2351	0.0142
0.3079	308.19	0.3187	0.0109
0.3781	308.19	0.3891	0.0118
0.4838	308.19	0.492	0.016
0.6001	308.18	0.612	0.0114
0.691	308.18	0.7009	0.01
0.7768	308.19	0.7842	0.0079
0.8603	308.19	0.865	0.0059
0.9372	308.19	0.9394	0.0031
0.9514	308.18	0.9529	0.0026
0.9736	308.18	0.9744	0.002
