Measured thermophysical data. Density, Electrical Conductivity, pH and Polyborate Distribution of LiB(OH)4, Li2B4O5(OH)4 and LiB5O6(OH)4 Solutions
Source: J. Chem. Eng. Data, 2014, 10.1021/je500683z
Compound 1: boron(III) lithium tetrahydroxide, BH4LiO4, InChI=1S/B.Li.4H2O/h;;4*1H2/q+3;+1;;;;/p-4
Compound 2: tetraboron(III) dilithium tetrahydroxide pentaoxide, B4H4Li2O9, InChI=1S/4B.2Li.4H2O.5O/h;;;;;;4*1H2;;;;;/q4*+3;2*+1;;;;;5*-2/p-4
Compound 3: pentaboron(III) lithium tetrahydroxide hexaoxide, B5H4LiO10, InChI=1S/5B.Li.4H2O.6O/h;;;;;;4*1H2;;;;;;/q5*+3;+1;;;;;6*-2/p-4
Compound 4: water, H2O, InChI=1S/H2O/h1H2, purity 99.8%

System: water + boron(III) lithium tetrahydroxide; phases: Liquid
Fixed: Pressure, kPa = 101
Property: Mass density, kg/m3 (Liquid); method: Vibrating tube method
Temperature, K	Molality, mol/kg of boron(III) lithium tetrahydroxide	Mass density, kg/m3	uncertainty
288.15	0.003342	999.326	0.304
288.15	0.005755	999.526	0.303
288.15	0.01059	999.801	0.303
288.15	0.03182	1001.013	0.303
288.15	0.05313	1002.213	0.303
288.15	0.07451	1003.419	0.303
288.15	0.096	1004.599	0.304
288.15	0.1068	1005.259	0.304
288.15	0.1609	1008.188	0.304
288.15	0.2154	1011.321	0.305
288.15	0.2706	1014.255	0.305
288.15	0.3262	1017.157	0.306
288.15	0.3824	1020.171	0.307
288.15	0.439	1023.013	0.307
288.15	0.4963	1026.078	0.308
288.15	0.5541	1029.128	0.309
288.15	0.6124	1032.043	0.31
288.15	0.6712	1035.042	0.312
288.15	0.7308	1038.029	0.313
288.15	0.7906	1040.995	0.315
288.15	0.8514	1043.951	0.316
293.15	0.003342	998.415	0.304
293.15	0.005755	998.528	0.303
293.15	0.01059	998.81	0.303
293.15	0.03182	1000.055	0.303
293.15	0.05313	1001.255	0.303
293.15	0.07451	1002.446	0.303
293.15	0.096	1003.624	0.304
293.15	0.1068	1004.256	0.303
293.15	0.1609	1007.15	0.304
293.15	0.2154	1010.095	0.305
293.15	0.2706	1013.031	0.305
293.15	0.3262	1016.015	0.306
293.15	0.3824	1018.912	0.306
293.15	0.439	1021.814	0.307
293.15	0.4963	1024.74	0.308
293.15	0.5541	1027.683	0.309
293.15	0.6124	1030.62	0.31
293.15	0.6712	1033.561	0.312
293.15	0.7308	1036.525	0.313
293.15	0.7906	1039.407	0.315
293.15	0.8514	1042.407	0.316
298.15	0.003342	997.256	0.304
298.15	0.005755	997.387	0.303
298.15	0.01059	997.624	0.303
298.15	0.03182	998.854	0.303
298.15	0.05313	999.965	0.303
298.15	0.07451	1001.184	0.303
298.15	0.096	1002.333	0.304
298.15	0.1068	1002.921	0.304
298.15	0.1609	1005.822	0.304
298.15	0.2154	1008.737	0.305
298.15	0.2706	1011.62	0.305
298.15	0.3262	1014.498	0.306
298.15	0.3824	1017.413	0.306
298.15	0.439	1020.299	0.307
298.15	0.4963	1023.182	0.308
298.15	0.5541	1026.078	0.309
298.15	0.6124	1028.83	0.31
298.15	0.6712	1031.829	0.311
298.15	0.7308	1034.812	0.313
298.15	0.7906	1037.701	0.314
298.15	0.8514	1040.588	0.316
298.15	0.9128	1043.498	0.318
298.15	0.9744	1046.405	0.32
303.15	0.003342	995.847	0.304
303.15	0.005755	995.98	0.304
303.15	0.01059	996.281	0.303
303.15	0.03182	997.435	0.303
303.15	0.05313	998.572	0.303
303.15	0.07451	999.725	0.303
303.15	0.096	1000.887	0.303
303.15	0.1068	1001.468	0.303
303.15	0.1609	1004.335	0.304
303.15	0.2154	1007.205	0.304
303.15	0.2706	1010.062	0.305
303.15	0.3262	1012.937	0.306
303.15	0.3824	1015.797	0.306
303.15	0.439	1018.647	0.307
303.15	0.4963	1021.534	0.308
303.15	0.5541	1024.39	0.309
303.15	0.6124	1027.299	0.31
303.15	0.6712	1030.167	0.311
303.15	0.7308	1033.005	0.313
303.15	0.7906	1035.813	0.314
303.15	0.8514	1038.738	0.316
303.15	0.9128	1041.638	0.318
308.15	0.003342	994.249	0.304
308.15	0.005755	994.37	0.304
308.15	0.01059	994.644	0.303
308.15	0.03182	995.72	0.303
308.15	0.05313	996.896	0.304
308.15	0.07451	998.081	0.304
308.15	0.096	999.223	0.304
308.15	0.1068	999.797	0.303
308.15	0.1609	1002.623	0.304
308.15	0.2154	1005.477	0.304
308.15	0.2706	1008.317	0.305
308.15	0.3262	1011.146	0.306
308.15	0.3824	1013.99	0.306
308.15	0.439	1016.83	0.307
308.15	0.4963	1019.698	0.308
308.15	0.5541	1022.536	0.309
308.15	0.6124	1025.379	0.31
308.15	0.6712	1028.259	0.311
308.15	0.7308	1031.031	0.312
308.15	0.7906	1033.677	0.314
308.15	0.8514	1036.547	0.316
308.15	0.9128	1039.624	0.317
308.15	0.9744	1042.436	0.319
313.15	0.003342	992.435	0.305
313.15	0.005755	992.564	0.304
313.15	0.01059	992.829	0.303
313.15	0.03182	993.97	0.304
313.15	0.05313	995.099	0.304
313.15	0.07451	996.235	0.304
313.15	0.096	997.366	0.304
313.15	0.1068	997.931	0.304
313.15	0.1609	1000.757	0.304
313.15	0.2154	1003.503	0.304
313.15	0.2706	1006.4	0.305
313.15	0.3262	1009.201	0.305
313.15	0.3824	1012.037	0.306
313.15	0.439	1014.849	0.307
313.15	0.4963	1017.682	0.308
313.15	0.5541	1020.487	0.309
313.15	0.6124	1023.355	0.31
313.15	0.6712	1026.181	0.311
313.15	0.7308	1028.983	0.312
313.15	0.7906	1031.801	0.314
313.15	0.8514	1034.668	0.315
313.15	0.9128	1037.437	0.317
313.15	0.9744	1040.306	0.319
318.15	0.003342	990.407	0.305
318.15	0.005755	990.534	0.304
318.15	0.01059	990.855	0.304
318.15	0.03182	991.969	0.304
318.15	0.05313	993.089	0.304
318.15	0.07451	994.248	0.304
318.15	0.096	995.354	0.304
318.15	0.1068	995.78	0.303
318.15	0.1609	998.619	0.304
318.15	0.2154	1001.558	0.304
318.15	0.2706	1004.364	0.305
318.15	0.3262	1007.177	0.305
318.15	0.3824	1009.843	0.306
318.15	0.439	1012.824	0.307
318.15	0.4963	1015.617	0.308
318.15	0.5541	1018.41	0.309
318.15	0.6124	1021.275	0.31
318.15	0.6712	1024.101	0.311
318.15	0.7308	1026.867	0.312
318.15	0.7906	1029.58	0.313
318.15	0.8514	1032.328	0.315
318.15	0.9128	1035.09	0.317
318.15	0.9744	1037.976	0.319
323.15	0.003342	988.18	0.305
323.15	0.005755	988.376	0.304
323.15	0.01059	988.579	0.304
323.15	0.03182	989.67	0.304
323.15	0.05313	990.731	0.304
323.15	0.07451	991.328	0.304
323.15	0.096	993.057	0.305
323.15	0.1068	993.374	0.304
323.15	0.1609	996.213	0.304
323.15	0.2154	998.726	0.305
323.15	0.2706	1001.911	0.305
323.15	0.3262	1004.785	0.305
323.15	0.3824	1007.601	0.306
323.15	0.439	1010.247	0.307
323.15	0.4963	1013.145	0.308
323.15	0.5541	1015.908	0.308
323.15	0.6124	1018.852	0.309
323.15	0.6712	1021.638	0.311
323.15	0.7308	1024.367	0.312
323.15	0.7906	1027.209	0.313
323.15	0.8514	1029.266	0.315
323.15	0.9128	1032.668	0.317
323.15	0.9744	1035.493	0.318

System: water + boron(III) lithium tetrahydroxide; phases: Liquid
Fixed: Pressure, kPa = 101
Property: Electrical conductivity, S/m (Liquid); method: Alternating current cell with electrodes
Temperature, K	Molality, mol/kg of boron(III) lithium tetrahydroxide	Electrical conductivity, S/m	uncertainty
293.15	0.001261	0.01025	0.05005
293.15	0.004999	0.03215	0.05004
293.15	0.009765	0.05265	0.05004
293.15	0.02829	0.1493	0.05
293.15	0.04707	0.2346	0.05
293.15	0.0676	0.3469	0.05
293.15	0.08601	0.4319	0.05
293.15	0.09528	0.4528	0.05
293.15	0.1446	0.6426	0.05
293.15	0.1946	0.7776	0.05
293.15	0.244	0.9291	0.05
293.15	0.2922	1.031	0.05
293.15	0.3442	1.184	0.05
293.15	0.3921	1.259	0.05
293.15	0.4449	1.383	0.05
293.15	0.4966	1.521	0.05
293.15	0.5481	1.643	0.05
293.15	0.6005	1.722	0.05
293.15	0.6568	1.801	0.05
293.15	0.6775	1.791	0.05
293.15	0.7619	1.91	0.05
293.15	0.8184	1.944	0.05
293.15	0.8661	1.894	0.05
298.15	0.001261	0.01096	0.05007
298.15	0.004999	0.0349	0.0501
298.15	0.009765	0.07171	0.05006
298.15	0.02829	0.1753	0.05
298.15	0.04707	0.2772	0.05
298.15	0.0676	0.3629	0.05
298.15	0.08601	0.4356	0.05
298.15	0.09528	0.4807	0.05
298.15	0.1446	0.6543	0.05
298.15	0.1946	0.8542	0.05
298.15	0.244	1.026	0.05
298.15	0.2922	1.188	0.05
298.15	0.3442	1.371	0.05
298.15	0.3921	1.466	0.05
298.15	0.4449	1.571	0.05
298.15	0.4966	1.698	0.05
298.15	0.5481	1.794	0.05
298.15	0.6005	1.895	0.05
298.15	0.6568	1.996	0.05
298.15	0.6775	2.02	0.05
298.15	0.7619	2.142	0.05
298.15	0.8184	2.218	0.05
298.15	0.8661	2.208	0.05
303.15	0.001261	0.01178	0.05009
303.15	0.004999	0.04039	0.05008
303.15	0.009765	0.07333	0.05006
303.15	0.02829	0.1857	0.0501
303.15	0.04707	0.3159	0.0501
303.15	0.0676	0.4029	0.05
303.15	0.08601	0.507	0.05
303.15	0.09528	0.5191	0.05
303.15	0.1446	0.8069	0.0501
303.15	0.1946	0.9818	0.0501
303.15	0.244	1.188	0.05
303.15	0.2922	1.335	0.05
303.15	0.3442	1.518	0.05
303.15	0.3921	1.693	0.05
303.15	0.4449	1.795	0.05
303.15	0.4966	1.932	0.05
303.15	0.5481	2.031	0.05
303.15	0.6005	2.132	0.05
303.15	0.6568	2.284	0.05
303.15	0.6775	2.33	0.05
303.15	0.7619	2.441	0.05
303.15	0.8184	2.5	0.1
308.15	0.001261	0.01383	0.05013
308.15	0.004999	0.04646	0.05013
308.15	0.009765	0.08962	0.0501
308.15	0.02829	0.2273	0.0501
308.15	0.04707	0.3661	0.0501
308.15	0.0676	0.483	0.05
308.15	0.08601	0.591	0.05
308.15	0.09528	0.6333	0.05
308.15	0.1446	0.8869	0.0501
308.15	0.1946	1.132	0.05
308.15	0.244	1.307	0.05
308.15	0.2922	1.513	0.05
308.15	0.3442	1.7	0.1
308.15	0.3921	1.882	0.05
308.15	0.4449	1.991	0.05
308.15	0.4966	2.191	0.05
308.15	0.5481	2.266	0.05
308.15	0.6005	2.343	0.05
308.15	0.6568	2.462	0.05
308.15	0.6775	2.52	0.05
308.15	0.7619	2.682	0.05
308.15	0.8184	2.857	0.05
308.15	0.8661	2.983	0.05
313.15	0.001261	0.01131	0.05013
313.15	0.004999	0.04755	0.05013
313.15	0.009765	0.0879	0.0501
313.15	0.02829	0.2428	0.0501
313.15	0.04707	0.3888	0.0501
313.15	0.0676	0.5162	0.0501
313.15	0.08601	0.6561	0.0501
313.15	0.09528	0.697	0.05
313.15	0.1446	1.008	0.05
313.15	0.1946	1.239	0.05
313.15	0.244	1.439	0.05
313.15	0.2922	1.656	0.05
313.15	0.3442	1.829	0.05
313.15	0.3921	2.009	0.05
313.15	0.4449	2.19	0.05
313.15	0.4966	2.363	0.05
313.15	0.5481	2.482	0.05
313.15	0.6005	2.617	0.05
313.15	0.6568	2.736	0.05
313.15	0.6775	2.761	0.05
313.15	0.7619	2.991	0.05
313.15	0.8184	3.099	0.05
313.15	0.8661	3.166	0.05
318.15	0.001261	0.01623	0.05017
318.15	0.004999	0.05367	0.0502
318.15	0.009765	0.1113	0.0502
318.15	0.02829	0.2865	0.0501
318.15	0.04707	0.433	0.05
318.15	0.0676	0.6036	0.0501
318.15	0.08601	0.7361	0.0501
318.15	0.09528	0.8167	0.0501
318.15	0.1446	1.118	0.05
318.15	0.1946	1.352	0.05
318.15	0.244	1.641	0.05
318.15	0.2922	1.929	0.05
318.15	0.3442	2.171	0.05
318.15	0.3921	2.408	0.05
318.15	0.4449	2.579	0.05
318.15	0.4966	2.751	0.05
318.15	0.5481	2.873	0.05
318.15	0.6005	3.034	0.05
318.15	0.6568	3.125	0.05
318.15	0.6775	3.208	0.05
318.15	0.7619	3.335	0.05
318.15	0.8184	3.405	0.05
318.15	0.8661	3.503	0.05
323.15	0.001261	0.01716	0.05018
323.15	0.004999	0.05707	0.05022
323.15	0.009765	0.1163	0.0502
323.15	0.02829	0.3005	0.0501
323.15	0.04707	0.4613	0.0501
323.15	0.0676	0.6386	0.0501
323.15	0.08601	0.7652	0.0501
323.15	0.09528	0.8426	0.0501
323.15	0.1446	1.157	0.05
323.15	0.1946	1.457	0.05
323.15	0.244	1.711	0.05
323.15	0.2922	1.949	0.05
323.15	0.3442	2.256	0.05
323.15	0.3921	2.461	0.05
323.15	0.4449	2.65	0.05
323.15	0.4966	2.793	0.05
323.15	0.5481	2.953	0.05
323.15	0.6005	3.089	0.05
323.15	0.6568	3.228	0.05
323.15	0.6775	3.297	0.05
323.15	0.7619	3.434	0.05
323.15	0.8184	3.524	0.05
323.15	0.8661	3.596	0.05

System: water + tetraboron(III) dilithium tetrahydroxide pentaoxide; phases: Liquid
Fixed: Pressure, kPa = 101
Property: Mass density, kg/m3 (Liquid); method: Vibrating tube method
Temperature, K	Molality, mol/kg of tetraboron(III) dilithium tetrahydroxide pentaoxide	Mass density, kg/m3	uncertainty
288.15	0.09992	1015.056	0.309
288.15	0.1064	1015.91	0.309
288.15	0.1099	1016.355	0.309
288.15	0.1118	1016.591	0.31
288.15	0.114	1016.944	0.315
288.15	0.1141	1017.16	0.314
288.15	0.1185	1017.894	0.316
288.15	0.1194	1017.926	0.317
288.15	0.121	1018.416	0.31
288.15	0.1262	1018.964	0.308
288.15	0.1285	1019.223	0.31
288.15	0.1359	1020.236	0.305
288.15	0.1368	1020.249	0.305
288.15	0.1449	1021.504	0.313
288.15	0.1494	1022.423	0.313
288.15	0.1526	1022.802	0.31
288.15	0.1585	1023.524	0.313
288.15	0.163	1024.521	0.314
288.15	0.1673	1025.057	0.311
288.15	0.1777	1026.431	0.311
288.15	0.1819	1026.956	0.313
288.15	0.194	1028.91	0.314
288.15	0.1993	1029.763	0.314
288.15	0.2168	1032.576	0.31
288.15	0.2196	1032.772	0.31
288.15	0.2514	1037.444	0.316
288.15	0.2872	1042.542	0.317
288.15	0.3642	1053.193	0.323
288.15	0.4099	1059.523	0.327
288.15	0.6187	1084.937	0.351
293.15	0.09992	1013.876	0.311
293.15	0.1064	1014.783	0.309
293.15	0.1099	1015.209	0.309
293.15	0.1118	1015.476	0.311
293.15	0.114	1015.846	0.316
293.15	0.1141	1016.071	0.316
293.15	0.1185	1016.796	0.312
293.15	0.1194	1016.757	0.312
293.15	0.121	1017.132	0.313
293.15	0.1262	1017.973	0.31
293.15	0.1285	1018.147	0.312
293.15	0.1359	1019.369	0.326
293.15	0.1368	1019.401	0.315
293.15	0.1449	1020.408	0.311
293.15	0.1494	1021.27	0.314
293.15	0.1526	1021.775	0.31
293.15	0.1585	1022.389	0.31
293.15	0.163	1023.147	0.314
293.15	0.1673	1023.851	0.311
293.15	0.1777	1025.176	0.311
293.15	0.1819	1025.692	0.313
293.15	0.194	1027.639	0.314
293.15	0.1993	1028.521	0.314
293.15	0.2168	1031.274	0.311
293.15	0.2196	1031.607	0.311
293.15	0.2514	1036.2	0.315
293.15	0.2872	1041.273	0.317
293.15	0.3642	1051.548	0.322
293.15	0.4099	1058.103	0.327
293.15	0.6187	1084.182	0.351
298.15	0.09992	1012.437	0.31
298.15	0.1064	1013.392	0.311
298.15	0.1099	1014.025	0.31
298.15	0.1118	1014.147	0.307
298.15	0.114	1014.375	0.315
298.15	0.1141	1014.708	0.315
298.15	0.1185	1015.439	0.312
298.15	0.1194	1015.468	0.311
298.15	0.121	1015.755	0.311
298.15	0.1262	1016.49	0.31
298.15	0.1285	1016.757	0.311
298.15	0.1359	1017.828	0.306
298.15	0.1368	1017.931	0.307
298.15	0.1449	1018.918	0.311
298.15	0.1494	1019.872	0.315
298.15	0.1526	1020.333	0.31
298.15	0.1585	1020.975	0.311
298.15	0.163	1021.732	0.313
298.15	0.1673	1022.405	0.312
298.15	0.1777	1023.899	0.311
298.15	0.1819	1024.248	0.313
298.15	0.194	1026.18	0.314
298.15	0.1993	1027.087	0.316
298.15	0.2168	1030.208	0.311
298.15	0.2196	1030.163	0.309
298.15	0.2514	1034.766	0.315
298.15	0.2872	1039.758	0.317
298.15	0.3642	1050.09	0.322
298.15	0.4099	1056.488	0.326
298.15	0.6187	1082.299	0.351
303.15	0.09992	1011.001	0.311
303.15	0.1064	1011.898	0.31
303.15	0.1099	1012.477	0.311
303.15	0.1118	1012.755	0.311
303.15	0.114	1013.077	0.311
303.15	0.1141	1013.12	0.311
303.15	0.1185	1013.766	0.31
303.15	0.1194	1013.938	0.311
303.15	0.121	1014.139	0.311
303.15	0.1262	1014.956	0.311
303.15	0.1285	1015.22	0.312
303.15	0.1359	1016.44	0.305
303.15	0.1368	1016.332	0.308
303.15	0.1449	1017.436	0.312
303.15	0.1494	1018.306	0.314
303.15	0.1526	1018.766	0.31
303.15	0.1585	1019.409	0.311
303.15	0.163	1020.188	0.313
303.15	0.1673	1020.771	0.312
303.15	0.1777	1022.311	0.311
303.15	0.1819	1022.616	0.313
303.15	0.194	1024.618	0.314
303.15	0.1993	1025.445	0.314
303.15	0.2168	1028.15	0.312
303.15	0.2196	1028.497	0.311
303.15	0.2514	1033.031	0.315
303.15	0.2872	1038.026	0.317
303.15	0.3642	1048.25	0.322
303.15	0.4099	1054.627	0.326
303.15	0.6187	1080.408	0.35
308.15	0.09992	1009.161	0.31
308.15	0.1064	1010.149	0.311
308.15	0.1099	1010.706	0.311
308.15	0.1118	1010.991	0.311
308.15	0.114	1011.32	0.314
308.15	0.1141	1011.351	0.314
308.15	0.1185	1012.179	0.311
308.15	0.1194	1012.213	0.309
308.15	0.121	1012.45	0.311
308.15	0.1262	1013.203	0.31
308.15	0.1285	1013.435	0.312
308.15	0.1359	1014.717	0.313
308.15	0.1368	1014.791	0.307
308.15	0.1449	1015.658	0.31
308.15	0.1494	1016.565	0.314
308.15	0.1526	1017.009	0.311
308.15	0.1585	1017.629	0.309
308.15	0.163	1018.057	0.313
308.15	0.1673	1019.007	0.313
308.15	0.1777	1020.501	0.311
308.15	0.1819	1020.809	0.313
308.15	0.194	1022.743	0.314
308.15	0.1993	1023.569	0.314
308.15	0.2168	1026.236	0.311
308.15	0.2196	1026.492	0.31
308.15	0.2514	1031.198	0.316
308.15	0.2872	1036.202	0.317
308.15	0.3642	1046.364	0.322
308.15	0.4099	1052.711	0.326
308.15	0.6187	1078.534	0.35
313.15	0.09992	1007.366	0.311
313.15	0.1064	1008.283	0.311
313.15	0.1099	1009.035	0.313
313.15	0.1118	1009.257	0.307
313.15	0.114	1009.377	0.312
313.15	0.1141	1009.521	0.312
313.15	0.1185	1010.255	0.311
313.15	0.1194	1010.309	0.31
313.15	0.121	1010.566	0.31
313.15	0.1262	1011.198	0.309
313.15	0.1285	1011.538	0.312
313.15	0.1359	1012.746	0.309
313.15	0.1368	1012.796	0.306
313.15	0.1449	1013.631	0.31
313.15	0.1494	1014.414	0.309
313.15	0.1526	1014.303	0.312
313.15	0.1585	1015.723	0.317
313.15	0.163	1016.457	0.312
313.15	0.1673	1017.065	0.31
313.15	0.1777	1018.209	0.311
313.15	0.1819	1018.855	0.314
313.15	0.194	1020.79	0.314
313.15	0.1993	1021.665	0.314
313.15	0.2168	1024.286	0.309
313.15	0.2196	1024.32	0.31
313.15	0.2514	1029.011	0.315
313.15	0.2872	1034.079	0.317
313.15	0.3642	1044.281	0.322
313.15	0.4099	1050.642	0.326
313.15	0.6187	1076.33	0.349
318.15	0.09992	1005.209	0.313
318.15	0.1064	1006.316	0.311
318.15	0.1099	1006.707	0.309
318.15	0.1118	1007.042	0.312
318.15	0.114	1007.358	0.312
318.15	0.1141	1007.385	0.312
318.15	0.1185	1008.115	0.31
318.15	0.1194	1008.126	0.308
318.15	0.121	1008.292	0.312
318.15	0.1262	1009.154	0.311
318.15	0.1285	1009.444	0.312
318.15	0.1359	1010.621	0.307
318.15	0.1368	1010.578	0.308
318.15	0.1449	1011.719	0.311
318.15	0.1494	1012.502	0.312
318.15	0.1526	1012.929	0.311
318.15	0.1585	1013.591	0.309
318.15	0.163	1013.944	0.313
318.15	0.1673	1015	0.314
318.15	0.1777	1016.406	0.311
318.15	0.1819	1016.819	0.314
318.15	0.194	1018.835	0.314
318.15	0.1993	1019.609	0.314
318.15	0.2168	1022.147	0.316
318.15	0.2196	1022.578	0.309
318.15	0.2514	1027.053	0.315
318.15	0.2872	1031.966	0.316
318.15	0.3642	1042.001	0.321
318.15	0.4099	1048.387	0.325
318.15	0.6187	1074.066	0.349
323.15	0.09992	1002.845	0.312
323.15	0.1064	1003.932	0.311
323.15	0.1099	1004.389	0.31
323.15	0.1118	1004.673	0.31
323.15	0.114	1004.951	0.309
323.15	0.1141	1005.001	0.309
323.15	0.1185	1005.513	0.311
323.15	0.1194	1005.507	0.312
323.15	0.121	1005.883	0.312
323.15	0.1262	1006.632	0.312
323.15	0.1285	1007.134	0.312
323.15	0.1359	1008.203	0.306
323.15	0.1368	1008.248	0.306
323.15	0.1449	1009.194	0.312
323.15	0.1494	1010.223	0.312
323.15	0.1526	1010.303	0.31
323.15	0.1585	1011.212	0.31
323.15	0.163	1011.576	0.309
323.15	0.1673	1012.175	0.313
323.15	0.1777	1013.861	0.313
323.15	0.1819	1014.426	0.312
323.15	0.194	1016.154	0.313
323.15	0.1993	1016.777	0.315
323.15	0.2168	1019.851	0.308
323.15	0.2196	1019.829	0.309
323.15	0.2514	1024.371	0.316
323.15	0.2872	1029.604	0.317
323.15	0.3642	1039.84	0.321
323.15	0.4099	1045.95	0.325
323.15	0.6187	1071.547	0.348

System: water + tetraboron(III) dilithium tetrahydroxide pentaoxide; phases: Liquid
Fixed: Pressure, kPa = 101
Property: Electrical conductivity, S/m (Liquid); method: Alternating current cell with electrodes
Temperature, K	Molality, mol/kg of tetraboron(III) dilithium tetrahydroxide pentaoxide	Electrical conductivity, S/m	uncertainty
293.15	0.09992	0.8285	0.0501
293.15	0.1064	0.8697	0.0501
293.15	0.1099	0.8956	0.0501
293.15	0.1118	0.9059	0.0501
293.15	0.114	0.9196	0.0501
293.15	0.1141	0.9219	0.0501
293.15	0.1185	0.9425	0.0501
293.15	0.1194	0.9435	0.0501
293.15	0.121	0.961	0.05
293.15	0.1262	0.9872	0.0501
293.15	0.1285	1.001	0.05
293.15	0.136	1.052	0.05
293.15	0.1368	1.052	0.05
293.15	0.1449	1.093	0.05
293.15	0.1494	1.101	0.05
293.15	0.1526	1.134	0.05
293.15	0.1584	1.158	0.05
293.15	0.163	1.187	0.05
293.15	0.1673	1.209	0.05
293.15	0.1777	1.275	0.05
293.15	0.1819	1.289	0.05
293.15	0.194	1.361	0.05
293.15	0.1993	1.364	0.05
293.15	0.2168	1.462	0.05
293.15	0.2196	1.477	0.05
293.15	0.2514	1.565	0.05
293.15	0.2872	1.704	0.05
293.15	0.3642	1.94	0.05
293.15	0.4099	2.061	0.05
293.15	0.6187	2.242	0.05
298.15	0.09992	0.9021	0.0501
298.15	0.1064	0.9654	0.0501
298.15	0.1099	0.9885	0.0501
298.15	0.1118	0.9969	0.05
298.15	0.114	0.996	0.05
298.15	0.1141	0.9974	0.0501
298.15	0.1185	1.045	0.051
298.15	0.1194	1.052	0.05
298.15	0.121	1.077	0.05
298.15	0.1262	1.08	0.05
298.15	0.1285	1.091	0.05
298.15	0.136	1.148	0.05
298.15	0.1368	1.151	0.05
298.15	0.1449	1.222	0.05
298.15	0.1494	1.249	0.05
298.15	0.1526	1.263	0.05
298.15	0.1584	1.305	0.05
298.15	0.163	1.332	0.05
298.15	0.1673	1.36	0.05
298.15	0.1777	1.41	0.05
298.15	0.1819	1.457	0.05
298.15	0.194	1.533	0.05
298.15	0.1993	1.563	0.05
298.15	0.2168	1.658	0.05
298.15	0.2196	1.659	0.05
298.15	0.2514	1.791	0.05
298.15	0.2872	1.957	0.05
298.15	0.3642	2.201	0.05
298.15	0.4099	2.303	0.05
298.15	0.6187	2.498	0.05
303.15	0.09992	0.9859	0.0501
303.15	0.1064	1.03	0.05
303.15	0.1099	1.042	0.05
303.15	0.1118	1.064	0.05
303.15	0.114	1.08	0.05
303.15	0.1141	1.08	0.05
303.15	0.1185	1.105	0.05
303.15	0.1194	1.136	0.05
303.15	0.121	1.147	0.05
303.15	0.1262	1.169	0.05
303.15	0.1285	1.182	0.05
303.15	0.136	1.245	0.05
303.15	0.1368	1.253	0.053
303.15	0.1449	1.305	0.05
303.15	0.1494	1.343	0.05
303.15	0.1526	1.351	0.05
303.15	0.1584	1.369	0.05
303.15	0.163	1.425	0.05
303.15	0.1673	1.479	0.05
303.15	0.1777	1.511	0.05
303.15	0.1819	1.529	0.05
303.15	0.194	1.623	0.05
303.15	0.1993	1.668	0.05
303.15	0.2168	1.748	0.05
303.15	0.2196	1.785	0.05
303.15	0.2514	1.903	0.05
303.15	0.2872	2.066	0.05
303.15	0.3642	2.362	0.05
303.15	0.4099	2.451	0.05
303.15	0.6187	2.731	0.05
308.15	0.09992	1.06	0.05
308.15	0.1064	1.148	0.05
308.15	0.1099	1.185	0.05
308.15	0.1118	1.216	0.05
308.15	0.114	1.22	0.05
308.15	0.1141	1.229	0.05
308.15	0.1185	1.292	0.05
308.15	0.1194	1.282	0.05
308.15	0.121	1.295	0.05
308.15	0.1262	1.327	0.05
308.15	0.1285	1.368	0.05
308.15	0.136	1.394	0.053
308.15	0.1368	1.427	0.05
308.15	0.1449	1.481	0.05
308.15	0.1494	1.501	0.05
308.15	0.1526	1.534	0.05
308.15	0.1584	1.552	0.05
308.15	0.163	1.59	0.05
308.15	0.1673	1.618	0.05
308.15	0.1777	1.673	0.05
308.15	0.1819	1.694	0.05
308.15	0.194	1.776	0.05
308.15	0.1993	1.81	0.05
308.15	0.2168	1.895	0.05
308.15	0.2196	1.9	0.1
308.15	0.2514	2.071	0.05
308.15	0.2872	2.256	0.05
308.15	0.3642	2.542	0.05
308.15	0.4099	2.637	0.05
308.15	0.6187	2.995	0.05
313.15	0.09992	1.191	0.05
313.15	0.1064	1.258	0.05
313.15	0.1099	1.286	0.05
313.15	0.1118	1.317	0.05
313.15	0.114	1.349	0.05
313.15	0.1141	1.357	0.05
313.15	0.1185	1.365	0.05
313.15	0.1194	1.374	0.05
313.15	0.121	1.388	0.05
313.15	0.1262	1.455	0.05
313.15	0.1285	1.452	0.05
313.15	0.136	1.534	0.05
313.15	0.1368	1.541	0.052
313.15	0.1449	1.596	0.05
313.15	0.1494	1.634	0.05
313.15	0.1526	1.642	0.05
313.15	0.1584	1.722	0.05
313.15	0.163	1.732	0.05
313.15	0.1673	1.751	0.05
313.15	0.1777	1.83	0.05
313.15	0.1819	1.855	0.05
313.15	0.194	1.943	0.05
313.15	0.1993	1.956	0.05
313.15	0.2168	2.044	0.05
313.15	0.2196	2.063	0.051
313.15	0.2514	2.268	0.05
313.15	0.2872	2.427	0.05
313.15	0.3642	2.777	0.05
313.15	0.4099	2.974	0.05
313.15	0.6187	3.407	0.05
318.15	0.09992	1.355	0.05
318.15	0.1064	1.42	0.05
318.15	0.1099	1.454	0.05
318.15	0.1118	1.465	0.05
318.15	0.114	1.498	0.05
318.15	0.1141	1.508	0.05
318.15	0.1185	1.552	0.051
318.15	0.1194	1.563	0.05
318.15	0.121	1.578	0.05
318.15	0.1262	1.631	0.05
318.15	0.1285	1.646	0.05
318.15	0.136	1.719	0.052
318.15	0.1368	1.725	0.051
318.15	0.1449	1.796	0.05
318.15	0.1494	1.835	0.05
318.15	0.1526	1.858	0.05
318.15	0.1584	1.883	0.05
318.15	0.163	1.924	0.05
318.15	0.1673	1.959	0.05
318.15	0.1777	2.034	0.05
318.15	0.1819	2.057	0.05
318.15	0.194	2.184	0.05
318.15	0.1993	2.23	0.05
318.15	0.2168	2.379	0.051
318.15	0.2196	2.393	0.05
318.15	0.2514	2.613	0.05
318.15	0.2872	2.844	0.05
318.15	0.3642	3.163	0.05
318.15	0.4099	3.332	0.05
318.15	0.6187	3.723	0.05
323.15	0.09992	1.503	0.05
323.15	0.1064	1.566	0.05
323.15	0.1099	1.596	0.05
323.15	0.1118	1.615	0.05
323.15	0.114	1.635	0.05
323.15	0.1141	1.648	0.05
323.15	0.1185	1.683	0.05
323.15	0.1194	1.699	0.05
323.15	0.121	1.711	0.05
323.15	0.1262	1.749	0.05
323.15	0.1285	1.772	0.05
323.15	0.136	1.841	0.05
323.15	0.1368	1.842	0.05
323.15	0.1449	1.925	0.05
323.15	0.1494	1.974	0.05
323.15	0.1526	1.989	0.05
323.15	0.1584	2.052	0.05
323.15	0.163	2.091	0.05
323.15	0.1673	2.127	0.05
323.15	0.1777	2.221	0.05
323.15	0.1819	2.258	0.05
323.15	0.194	2.365	0.05
323.15	0.1993	2.407	0.05
323.15	0.2168	2.548	0.05
323.15	0.2196	2.57	0.05
323.15	0.2514	2.822	0.05
323.15	0.2872	3.09	0.05
323.15	0.3642	3.477	0.05
323.15	0.4099	3.648	0.05
323.15	0.6187	3.926	0.05

System: water + pentaboron(III) lithium tetrahydroxide hexaoxide; phases: Liquid
Fixed: Pressure, kPa = 101
Property: Mass density, kg/m3 (Liquid); method: Vibrating tube method
Temperature, K	Molality, mol/kg of pentaboron(III) lithium tetrahydroxide hexaoxide	Mass density, kg/m3	uncertainty
288.15	0.0001003	999.161	0.309
288.15	0.0004945	999.232	0.309
288.15	0.0009921	999.333	0.309
288.15	0.003041	999.645	0.309
288.15	0.005022	999.958	0.309
288.15	0.007012	1000.271	0.309
288.15	0.009034	1000.582	0.309
288.15	0.01102	1000.895	0.309
288.15	0.03022	1003.68	0.308
288.15	0.0506	1006.58	0.308
288.15	0.07076	1009.329	0.308
288.15	0.09201	1012.199	0.309
288.15	0.1128	1014.908	0.309
288.15	0.2094	1027.339	0.312
288.15	0.3218	1041.355	0.319
288.15	0.4396	1055.427	0.33
288.15	0.5634	1069.664	0.346
288.15	0.6936	1084.152	0.369
293.15	0.0001003	998.248	0.311
293.15	0.0004945	998.317	0.31
293.15	0.0009921	998.394	0.31
293.15	0.003041	998.715	0.308
293.15	0.005022	999.023	0.308
293.15	0.007012	999.295	0.308
293.15	0.009034	999.625	0.308
293.15	0.01102	999.934	0.307
293.15	0.03022	1002.681	0.308
293.15	0.0506	1005.424	0.308
293.15	0.07076	1008.284	0.308
293.15	0.09201	1011.14	0.309
293.15	0.1128	1013.865	0.309
293.15	0.2094	1026.174	0.312
293.15	0.3218	1040	0.319
293.15	0.4396	1054.006	0.329
293.15	0.5634	1068.202	0.345
293.15	0.6936	1082.546	0.369
293.15	0.831	1097.318	0.401
298.15	0.0001003	997.099	0.311
298.15	0.0004945	997.144	0.31
298.15	0.0009921	997.22	0.31
298.15	0.003041	997.542	0.308
298.15	0.005022	997.829	0.308
298.15	0.007012	998.113	0.308
298.15	0.009034	998.417	0.308
298.15	0.01102	998.73	0.307
298.15	0.03022	1001.455	0.308
298.15	0.0506	1004.251	0.308
298.15	0.07076	1007.01	0.308
298.15	0.09201	1009.814	0.308
298.15	0.1128	1012.501	0.309
298.15	0.2094	1024.745	0.312
298.15	0.3218	1038.408	0.319
298.15	0.4396	1052.211	0.329
298.15	0.5634	1066.431	0.345
298.15	0.6936	1080.737	0.368
298.15	0.831	1095.209	0.399
303.15	0.0001003	995.695	0.311
303.15	0.0004945	995.761	0.31
303.15	0.0009921	995.83	0.31
303.15	0.003041	996.14	0.308
303.15	0.005022	996.431	0.308
303.15	0.007012	996.724	0.308
303.15	0.009034	997.027	0.308
303.15	0.01102	997.321	0.307
303.15	0.03022	1000.015	0.308
303.15	0.0506	1002.839	0.308
303.15	0.07076	1005.539	0.308
303.15	0.09201	1008.341	0.308
303.15	0.1128	1011.007	0.309
303.15	0.2094	1023.145	0.312
303.15	0.3218	1036.806	0.318
303.15	0.4396	1050.579	0.329
303.15	0.5634	1064.643	0.345
303.15	0.6936	1078.913	0.367
303.15	0.831	1093.383	0.399
308.15	0.0001003	994.065	0.31
308.15	0.0004945	994.143	0.31
308.15	0.0009921	994.227	0.31
308.15	0.003041	994.502	0.309
308.15	0.005022	994.808	0.308
308.15	0.007012	995.106	0.309
308.15	0.009034	995.4	0.308
308.15	0.01102	995.696	0.307
308.15	0.03022	998.373	0.308
308.15	0.0506	1001.176	0.308
308.15	0.07076	1003.858	0.308
308.15	0.09201	1006.638	0.308
308.15	0.1128	1009.294	0.309
308.15	0.2094	1021.395	0.312
308.15	0.3218	1034.926	0.318
308.15	0.4396	1048.63	0.328
308.15	0.5634	1062.645	0.344
308.15	0.6936	1076.838	0.367
308.15	0.831	1091.22	0.398
308.15	0.9757	1105.702	0.438
313.15	0.0001003	992.251	0.311
313.15	0.0004945	992.316	0.309
313.15	0.0009921	992.397	0.309
313.15	0.003041	992.692	0.308
313.15	0.005022	992.982	0.308
313.15	0.007012	993.258	0.308
313.15	0.009034	993.564	0.308
313.15	0.01102	993.851	0.307
313.15	0.03022	996.32	0.308
313.15	0.0506	999.313	0.308
313.15	0.07076	1001.986	0.308
313.15	0.09201	1004.739	0.308
313.15	0.1128	1007.398	0.309
313.15	0.2094	1019.421	0.312
313.15	0.3218	1032.882	0.318
313.15	0.4396	1046.507	0.328
313.15	0.5634	1060.521	0.344
313.15	0.6936	1074.645	0.366
313.15	0.831	1088.995	0.397
313.15	0.9757	1103.561	0.437
318.15	0.0001003	990.239	0.311
318.15	0.0004945	990.341	0.31
318.15	0.0009921	990.412	0.31
318.15	0.003041	990.698	0.309
318.15	0.005022	991.018	0.309
318.15	0.007012	991.302	0.307
318.15	0.009034	991.583	0.307
318.15	0.01102	991.725	0.306
318.15	0.03022	994.494	0.308
318.15	0.0506	997.283	0.308
318.15	0.07076	999.942	0.308
318.15	0.09201	1002.702	0.308
318.15	0.1128	1005.327	0.308
318.15	0.2094	1017.321	0.312
318.15	0.3218	1030.739	0.318
318.15	0.4396	1044.337	0.328
318.15	0.5634	1058.268	0.343
318.15	0.6936	1072.355	0.365
318.15	0.831	1086.664	0.396
318.15	0.9757	1101.158	0.435
318.15	1.128	1116.15	0.486
323.15	0.0001003	988.065	0.31
323.15	0.0004945	988.155	0.308
323.15	0.0009921	988.223	0.308
323.15	0.003041	988.526	0.309
323.15	0.005022	988.802	0.309
323.15	0.007012	989.094	0.308
323.15	0.009034	989.382	0.308
323.15	0.01102	989.654	0.308
323.15	0.03022	992.288	0.308
323.15	0.0506	995.057	0.308
323.15	0.07076	997.706	0.308
323.15	0.09201	1000.44	0.308
323.15	0.1128	1003.079	0.308
323.15	0.2094	1015.004	0.311
323.15	0.3218	1028.148	0.317
323.15	0.4396	1041.91	0.327
323.15	0.5634	1055.76	0.342
323.15	0.6936	1069.789	0.364
323.15	0.831	1084.135	0.395
323.15	0.9757	1098.553	0.434
323.15	1.128	1113.363	0.484

System: water + pentaboron(III) lithium tetrahydroxide hexaoxide; phases: Liquid
Fixed: Pressure, kPa = 101
Property: Electrical conductivity, S/m (Liquid); method: Alternating current cell with electrodes
Temperature, K	Molality, mol/kg of pentaboron(III) lithium tetrahydroxide hexaoxide	Electrical conductivity, S/m	uncertainty
293.15	0.0001002	0.001938	0.050065
293.15	0.000513	0.005423	0.050061
293.15	0.0009939	0.00924	0.05006
293.15	0.003019	0.02162	0.05006
293.15	0.005051	0.03339	0.05006
293.15	0.007031	0.04526	0.05006
293.15	0.009032	0.05926	0.05006
293.15	0.01104	0.07122	0.05007
293.15	0.03011	0.1747	0.05
293.15	0.05056	0.2585	0.05
293.15	0.07124	0.337	0.05
293.15	0.09197	0.4148	0.05
293.15	0.1126	0.5125	0.05
293.15	0.2095	0.832	0.05
293.15	0.3219	1.138	0.05
293.15	0.4396	1.356	0.05
293.15	0.5633	1.56	0.05
293.15	0.6937	1.672	0.05
293.15	0.8308	1.803	0.05
293.15	0.9749	1.877	0.05
293.15	1.128	1.964	0.05
293.15	1.291	1.97	0.05
298.15	0.0001002	0.002841	0.050076
298.15	0.000513	0.005915	0.050075
298.15	0.0009939	0.0101	0.0501
298.15	0.003019	0.02325	0.05007
298.15	0.005051	0.0369	0.0501
298.15	0.007031	0.04833	0.05008
298.15	0.009032	0.06287	0.05008
298.15	0.01104	0.07875	0.05011
298.15	0.03011	0.19	0.05
298.15	0.05056	0.277	0.05
298.15	0.07124	0.3974	0.05
298.15	0.09197	0.4602	0.05
298.15	0.1126	0.5668	0.0501
298.15	0.2095	0.9569	0.05
298.15	0.3219	1.224	0.05
298.15	0.4396	1.475	0.05
298.15	0.5633	1.719	0.05
298.15	0.6937	1.854	0.05
298.15	0.8308	1.973	0.05
298.15	0.9749	2.068	0.05
298.15	1.128	2.109	0.05
303.15	0.0001002	0.003266	0.050091
303.15	0.000513	0.006	0.05
303.15	0.0009939	0.01101	0.05008
303.15	0.003019	0.02668	0.05009
303.15	0.005051	0.04066	0.0501
303.15	0.007031	0.05647	0.05012
303.15	0.009032	0.07492	0.05013
303.15	0.01104	0.09626	0.05013
303.15	0.03011	0.2261	0.0501
303.15	0.05056	0.3637	0.0501
303.15	0.07124	0.4705	0.05
303.15	0.09197	0.5785	0.0501
303.15	0.1126	0.6845	0.05
303.15	0.2095	1.017	0.05
303.15	0.3219	1.411	0.05
303.15	0.4396	1.657	0.05
303.15	0.5633	1.989	0.05
303.15	0.6937	2.135	0.05
303.15	0.8308	2.331	0.05
303.15	0.9749	2.423	0.05
308.15	0.0001002	0.003631	0.050141
308.15	0.000513	0.00811	0.05014
308.15	0.0009939	0.01229	0.05014
308.15	0.003019	0.0312	0.0501
308.15	0.005051	0.05018	0.05012
308.15	0.007031	0.06381	0.05013
308.15	0.009032	0.08328	0.05013
308.15	0.01104	0.1045	0.0502
308.15	0.03011	0.2537	0.0501
308.15	0.05056	0.4014	0.0501
308.15	0.07124	0.518	0.05
308.15	0.09197	0.6263	0.05
308.15	0.1126	0.731	0.05
308.15	0.2095	1.126	0.05
308.15	0.3219	1.478	0.05
308.15	0.4396	1.752	0.05
308.15	0.5633	2.101	0.05
308.15	0.6937	2.265	0.05
308.15	0.8308	2.417	0.05
308.15	0.9749	2.571	0.05
308.15	1.128	2.66	0.05
308.15	1.291	2.727	0.05
308.15	1.462	2.785	0.05
313.15	0.0001002	0.003975	0.050163
313.15	0.000513	0.008648	0.050159
313.15	0.0009939	0.01386	0.05016
313.15	0.003019	0.03402	0.05016
313.15	0.005051	0.05394	0.05016
313.15	0.007031	0.07352	0.05015
313.15	0.009032	0.0926	0.0501
313.15	0.01104	0.1111	0.0502
313.15	0.03011	0.2674	0.0501
313.15	0.05056	0.4106	0.0501
313.15	0.07124	0.5401	0.0501
313.15	0.09197	0.6591	0.0501
313.15	0.1126	0.7692	0.0501
313.15	0.2095	1.217	0.05
313.15	0.3219	1.64	0.05
313.15	0.4396	1.999	0.05
313.15	0.5633	2.293	0.05
313.15	0.6937	2.517	0.05
313.15	0.8308	2.667	0.05
313.15	0.9749	2.75	0.05
313.15	1.128	2.787	0.05
318.15	0.0001002	0.004336	0.05016
318.15	0.000513	0.00925	0.05016
318.15	0.0009939	0.01442	0.05015
318.15	0.003019	0.03677	0.05017
318.15	0.005051	0.05488	0.05017
318.15	0.007031	0.07689	0.05019
318.15	0.009032	0.09799	0.0502
318.15	0.01104	0.1239	0.0502
318.15	0.03011	0.2909	0.0501
318.15	0.05056	0.4448	0.0501
318.15	0.07124	0.6067	0.0501
318.15	0.09197	0.7315	0.05
318.15	0.1126	0.8236	0.05
318.15	0.2095	1.361	0.05
318.15	0.3219	1.807	0.05
318.15	0.4396	2.169	0.05
318.15	0.5633	2.512	0.05
318.15	0.6937	2.705	0.05
318.15	0.8308	2.899	0.05
318.15	0.9749	3.067	0.05
318.15	1.128	3.207	0.05
318.15	1.291	3.247	0.05
323.15	0.0001002	0.007595	0.050181
323.15	0.000513	0.01224	0.05018
323.15	0.0009939	0.01755	0.05018
323.15	0.003019	0.03924	0.05018
323.15	0.005051	0.06029	0.05017
323.15	0.007031	0.08031	0.05016
323.15	0.009032	0.1001	0.0502
323.15	0.01104	0.1196	0.0502
323.15	0.03011	0.2926	0.0501
323.15	0.05056	0.461	0.05
323.15	0.07124	0.6188	0.0501
323.15	0.09197	0.7669	0.0501
323.15	0.1126	0.9054	0.0501
323.15	0.2095	1.469	0.05
323.15	0.3219	1.98	0.05
323.15	0.4396	2.388	0.05
323.15	0.5633	2.706	0.05
323.15	0.6937	2.949	0.05
323.15	0.8308	3.14	0.05
323.15	0.9749	3.31	0.05
323.15	1.128	3.513	0.05
