Measured thermophysical data. Vapor Pressures and Vaporization Enthalpies of a Series of Dialkyl Phthalates by Correlation Gas Chromatography
Source: J. Chem. Eng. Data, 2014, 10.1021/je500110d
Compound 1: dimethyl 1,4-benzenedicarboxylate, C10H10O4, InChI=1S/C10H10O4/c1-13-9(11)7-3-5-8(6-4-7)10(12)14-2/h3-6H,1-2H3, purity 98%
Compound 2: dibutyl phthalate, C16H22O4, InChI=1S/C16H22O4/c1-3-5-11-19-15(17)13-9-7-8-10-14(13)16(18)20-12-6-4-2/h7-10H,3-6,11-12H2,1-2H3, purity 99%
Compound 3: benzyl butyl 1,2-benzenedioate, C19H20O4, InChI=1S/C19H20O4/c1-2-3-13-22-18(20)16-11-7-8-12-17(16)19(21)23-14-15-9-5-4-6-10-15/h4-12H,2-3,13-14H2,1H3, purity 99%
Compound 4: dicyclohexyl phthalate, C20H26O4, InChI=1S/C20H26O4/c21-19(23-15-9-3-1-4-10-15)17-13-7-8-14-18(17)20(22)24-16-11-5-2-6-12-16/h7-8,13-16H,1-6,9-12H2, purity 99%
Compound 5: bis(2-ethylhexyl) terephthalate, C24H38O4, InChI=1S/C24H38O4/c1-5-9-11-19(7-3)17-27-23(25)21-13-15-22(16-14-21)24(26)28-18-20(8-4)12-10-6-2/h13-16,19-20H,5-12,17-18H2,1-4H3, purity 96%
Compound 6: dioctyl 1,2-benzenedicarboxylate, C24H38O4, InChI=1S/C24H38O4/c1-3-5-7-9-11-15-19-27-23(25)21-17-13-14-18-22(21)24(26)28-20-16-12-10-8-6-4-2/h13-14,17-18H,3-12,15-16,19-20H2,1-2H3, purity 99%

System: dimethyl 1,4-benzenedicarboxylate; phases: Metastable liquid, Gas
Property: Vapor or sublimation pressure, kPa (Metastable liquid); method: Gas chromatography
Temperature, K	Vapor or sublimation pressure, kPa	uncertainty
298.15	2.14e-07	3.14e-08

System: dibutyl phthalate; phases: Liquid, Gas
Property: Molar enthalpy of vaporization or sublimation, kJ/mol (Liquid); method: Correlation gas chromatography
Temperature, K	Molar enthalpy of vaporization or sublimation, kJ/mol	uncertainty
298.15	95	3.9

System: dibutyl phthalate; phases: Liquid, Gas
Property: Vapor or sublimation pressure, kPa (Liquid); method: Transpiration method
Temperature, K	Vapor or sublimation pressure, kPa	uncertainty
333.2	0.000224	9e-06
338.4	0.000365	1.4e-05
343.4	0.000586	2.3e-05
348	0.000838	3.3e-05
353.6	0.0014	5e-05
358.7	0.00215	8e-05
363.7	0.00316	0.00012
368.7	0.00459	0.00018
373.6	0.00675	0.00026
378.5	0.00948	0.00037

System: benzyl butyl 1,2-benzenedioate; phases: Liquid, Gas
Property: Molar enthalpy of vaporization or sublimation, kJ/mol (Liquid); method: Correlation gas chromatography
Temperature, K	Molar enthalpy of vaporization or sublimation, kJ/mol	uncertainty
298.15	106.2	5.2

System: benzyl butyl 1,2-benzenedioate; phases: Liquid, Gas
Property: Vapor or sublimation pressure, kPa (Liquid); method: Gas chromatography
Temperature, K	Vapor or sublimation pressure, kPa	uncertainty
298.15	2e-07	1e-07

System: dicyclohexyl phthalate; phases: Crystal, Liquid, Gas
Property: Molar enthalpy of transition or fusion, kJ/mol (Crystal); method: DSC
Molar enthalpy of transition or fusion, kJ/mol	uncertainty
32.3	2.9

System: dicyclohexyl phthalate; phases: Crystal, Liquid, Gas
Property: Triple point temperature, K (Crystal); method: DTA
Triple point temperature, K	uncertainty
336.5	0.7

System: dicyclohexyl phthalate; phases: Metastable liquid, Gas
Property: Molar enthalpy of vaporization or sublimation, kJ/mol (Metastable liquid); method: Correlation gas chromatography
Temperature, K	Molar enthalpy of vaporization or sublimation, kJ/mol	uncertainty
298.15	109.9	2.9

System: dicyclohexyl phthalate; phases: Metastable liquid, Gas
Property: Vapor or sublimation pressure, kPa (Metastable liquid); method: Gas chromatography
Temperature, K	Vapor or sublimation pressure, kPa	uncertainty
298.15	8e-08	2e-08

System: bis(2-ethylhexyl) terephthalate; phases: Liquid, Gas
Property: Molar enthalpy of vaporization or sublimation, kJ/mol (Liquid); method: Correlation gas chromatography
Temperature, K	Molar enthalpy of vaporization or sublimation, kJ/mol	uncertainty
298.15	123.3	3.5

System: bis(2-ethylhexyl) terephthalate; phases: Liquid, Gas
Property: Vapor or sublimation pressure, kPa (Liquid); method: Gas chromatography
Temperature, K	Vapor or sublimation pressure, kPa	uncertainty
298.15	5.4e-09	1.05e-08

System: dioctyl 1,2-benzenedicarboxylate; phases: Liquid, Gas
Property: Molar enthalpy of vaporization or sublimation, kJ/mol (Liquid); method: Correlation gas chromatography
Temperature, K	Molar enthalpy of vaporization or sublimation, kJ/mol	uncertainty
298.15	122.6	3.6

System: dioctyl 1,2-benzenedicarboxylate; phases: Liquid, Gas
Property: Vapor or sublimation pressure, kPa (Liquid); method: Gas chromatography
Temperature, K	Vapor or sublimation pressure, kPa	uncertainty
298.15	5.5e-09	1.06e-08
