Measured thermophysical data. Solubility Measurement and Correlation for 3,5-Dichloroaniline in (Methanol + Water) and (Ethanol + Water) Mixed Solvents
Source: J. Chem. Eng. Data, 2014, 10.1021/je500744k
Compound 1: 3,5-dichloroaniline, C6H5Cl2N, InChI=1S/C6H5Cl2N/c7-4-1-5(8)3-6(9)2-4/h1-3H,9H2, purity 93.5%
Compound 2: methanol, CH4O, InChI=1S/CH4O/c1-2/h2H,1H3, purity 99.5%
Compound 3: ethanol, C2H6O, InChI=1S/C2H6O/c1-2-3/h3H,2H2,1H3, purity 99.7%
Compound 4: water, H2O, InChI=1S/H2O/h1H2

System: methanol + 3,5-dichloroaniline + water; phases: Liquid, Crystal
Fixed: Pressure, kPa = 100
Property: Mole fraction of 3,5-dichloroaniline (Liquid); method: gravimetric
Solvent: Mass fraction of methanol	Temperature, K	Mole fraction of 3,5-dichloroaniline	uncertainty
1	278.15	0.08543	0.01903
1	280.65	0.1007	0.0224
1	283.15	0.1163	0.0259
1	285.65	0.1362	0.0303
1	288.15	0.1585	0.0353
1	290.65	0.1834	0.0409
1	293.15	0.2078	0.0463
1	295.65	0.2376	0.0529
1	298.15	0.2736	0.0609
1	300.65	0.3128	0.0697
1	303.15	0.3538	0.0788
0.8768	278.15	0.05532	0.01232
0.8768	280.65	0.06625	0.01476
0.8768	283.15	0.07703	0.01716
0.8768	285.65	0.09134	0.02035
0.8768	288.15	0.1066	0.0237
0.8768	290.65	0.1239	0.0276
0.8768	293.15	0.1432	0.0319
0.8768	295.65	0.1642	0.0366
0.8768	298.15	0.1878	0.0418
0.8768	300.65	0.2093	0.0466
0.8768	303.15	0.2369	0.0528
0.7595	278.15	0.02606	0.0058
0.7595	280.65	0.03189	0.0071
0.7595	283.15	0.03868	0.00862
0.7595	285.65	0.04556	0.01015
0.7595	288.15	0.05457	0.01216
0.7595	290.65	0.06458	0.01439
0.7595	293.15	0.07748	0.01726
0.7595	295.65	0.09287	0.02069
0.7595	298.15	0.109	0.0243
0.7595	300.65	0.1278	0.0285
0.7595	303.15	0.1482	0.033
0.6486	278.15	0.00937	0.00209
0.6486	280.65	0.01233	0.00275
0.6486	283.15	0.01545	0.00344
0.6486	285.65	0.01945	0.00433
0.6486	288.15	0.02395	0.00534
0.6486	290.65	0.02959	0.00659
0.6486	293.15	0.03482	0.00776
0.6486	295.65	0.04191	0.00934
0.6486	298.15	0.04989	0.01111
0.6486	300.65	0.05787	0.01289
0.6486	303.15	0.06648	0.01481
0.5426	278.15	0.003502	0.00078
0.5426	280.65	0.004104	0.000914
0.5426	283.15	0.004781	0.001065
0.5426	285.65	0.005548	0.001236
0.5426	288.15	0.006473	0.001442
0.5426	290.65	0.007389	0.001646
0.5426	293.15	0.008623	0.001921
0.5426	295.65	0.01003	0.00223
0.5426	298.15	0.01141	0.00254
0.5426	300.65	0.01304	0.0029
0.5426	303.15	0.0152	0.00339
0.4417	278.15	0.000533	0.000119
0.4417	280.65	0.000689	0.000154
0.4417	283.15	0.000921	0.000205
0.4417	285.65	0.001194	0.000266
0.4417	288.15	0.001523	0.000339
0.4417	290.65	0.001988	0.000443
0.4417	293.15	0.002512	0.00056
0.4417	295.65	0.003083	0.000687
0.4417	298.15	0.003854	0.000859
0.4417	300.65	0.004702	0.001047
0.4417	303.15	0.005757	0.001282

System: ethanol + 3,5-dichloroaniline + water; phases: Liquid, Crystal
Fixed: Pressure, kPa = 100
Property: Mole fraction of 3,5-dichloroaniline (Liquid); method: gravimetric
Solvent: Mass fraction of ethanol	Temperature, K	Mole fraction of 3,5-dichloroaniline	uncertainty
1	278.15	0.1137	0.0253
1	280.65	0.1282	0.0286
1	283.15	0.1457	0.0325
1	285.65	0.1645	0.0366
1	288.15	0.1843	0.0411
1	290.65	0.2071	0.0461
1	293.15	0.2351	0.0524
1	295.65	0.2638	0.0588
1	298.15	0.2947	0.0656
1	300.65	0.3321	0.074
1	303.15	0.3767	0.0839
0.8766	278.15	0.06382	0.01422
0.8766	280.65	0.07375	0.01643
0.8766	283.15	0.08563	0.01908
0.8766	285.65	0.1003	0.0223
0.8766	288.15	0.1166	0.026
0.8766	290.65	0.1345	0.03
0.8766	293.15	0.1604	0.0357
0.8766	295.65	0.1872	0.0417
0.8766	298.15	0.2212	0.0493
0.8766	300.65	0.2598	0.0579
0.8766	303.15	0.3095	0.0689
0.7594	278.15	0.04483	0.00999
0.7594	280.65	0.05282	0.01177
0.7594	283.15	0.06143	0.01368
0.7594	285.65	0.07199	0.01604
0.7594	288.15	0.08417	0.01875
0.7594	290.65	0.0972	0.02165
0.7594	293.15	0.1146	0.0255
0.7594	295.65	0.1332	0.0297
0.7594	298.15	0.1541	0.0343
0.7594	300.65	0.1778	0.0396
0.7594	303.15	0.2084	0.0464
0.648	278.15	0.02386	0.00532
0.648	280.65	0.02803	0.00624
0.648	283.15	0.03258	0.00726
0.648	285.65	0.03823	0.00852
0.648	288.15	0.04401	0.0098
0.648	290.65	0.05089	0.01134
0.648	293.15	0.05926	0.0132
0.648	295.65	0.06905	0.01538
0.648	298.15	0.07967	0.01775
0.648	300.65	0.09122	0.02032
0.648	303.15	0.1073	0.0239
0.5423	278.15	0.005843	0.001303
0.5423	280.65	0.007451	0.00166
0.5423	283.15	0.009462	0.002108
0.5423	285.65	0.0119	0.00265
0.5423	288.15	0.01539	0.00343
0.5423	290.65	0.02004	0.00446
0.5423	293.15	0.02568	0.00572
0.5423	295.65	0.03254	0.00725
0.5423	298.15	0.04225	0.00941
0.5423	300.65	0.05515	0.01229
0.5423	303.15	0.07126	0.01587
0.441	278.15	0.004433	0.000988
0.441	280.65	0.005268	0.001174
0.441	283.15	0.006274	0.001398
0.441	285.65	0.007301	0.001626
0.441	288.15	0.008703	0.001939
0.441	290.65	0.01013	0.00226
0.441	293.15	0.01179	0.00263
0.441	295.65	0.01381	0.00308
0.441	298.15	0.01623	0.00362
0.441	300.65	0.01868	0.00416
0.441	303.15	0.02139	0.00476

System: methanol + 3,5-dichloroaniline; phases: Liquid, Crystal
Fixed: Pressure, kPa = 100
Property: Mole fraction of 3,5-dichloroaniline (Liquid); method: gravimetric
Temperature, K	Mole fraction of 3,5-dichloroaniline	uncertainty
278.15	0.08543	0.01903
280.65	0.1007	0.0224
283.15	0.1163	0.0259
285.65	0.1362	0.0303
288.15	0.1585	0.0353
290.65	0.1834	0.0409
293.15	0.2078	0.0463
295.65	0.2376	0.0529
298.15	0.2736	0.0609
300.65	0.3128	0.0697
303.15	0.3538	0.0788

System: ethanol + 3,5-dichloroaniline; phases: Liquid, Crystal
Fixed: Pressure, kPa = 100
Property: Mole fraction of 3,5-dichloroaniline (Liquid); method: gravimetric
Temperature, K	Mole fraction of 3,5-dichloroaniline	uncertainty
278.15	0.1137	0.0253
280.65	0.1282	0.0286
283.15	0.1457	0.0325
285.65	0.1645	0.0366
288.15	0.1843	0.0411
290.65	0.2071	0.0461
293.15	0.2351	0.0524
295.65	0.2638	0.0588
298.15	0.2947	0.0656
300.65	0.3321	0.074
303.15	0.3767	0.0839
