Measured thermophysical data. Measurement and Correlation for the Solid Solubility of Antioxidants Sodium l-Ascorbate and Sodium Erythorbate Monohydrate in Supercritical Carbon Dioxide
Source: J. Chem. Eng. Data, 2015, 10.1021/je5009153
Compound 1: carbon dioxide, CO2, InChI=1S/CO2/c2-1-3, purity 99.5%
Compound 2: sodium L-ascorbate, C6H7NaO6, InChI=1S/C6H8O6.Na/c7-1-2(8)5-3(9)4(10)6(11)12-5;/h2,5,7-10H,1H2;/q;+1/p-1/t2-,5+;/m0./s1, purity 99%
Compound 3: sodium (R)-2-((R)-1,2-dihydroxyethyl)-4-hydroxy-5-oxo-2,5-dihydrofuran-3-olate monohydrate, C6H9NaO7, InChI=1S/C6H8O6.Na.H2O/c7-1-2(8)5-3(9)4(10)6(11)12-5;;/h2,5,7-10H,1H2;;1H2/q;+1;/p-1/t2-,5-;;/m1../s1, purity 98%

System: carbon dioxide + sodium L-ascorbate; phases: Fluid (supercritical or subcritical phases), Crystal
Property: Mole fraction of sodium L-ascorbate (Fluid (supercritical or subcritical phases)); method: UV-VIS
Temperature, K	Pressure, kPa	Mole fraction of sodium L-ascorbate	uncertainty
308.15	12000	8.494e-08	8.01e-09
308.15	14000	1.165e-07	8e-09
308.15	16000	1.394e-07	8e-09
308.15	18000	1.546e-07	8e-09
308.15	20000	1.69e-07	8e-09
308.15	22000	1.853e-07	8e-09
308.15	24000	1.964e-07	8e-09
313.15	12000	9.639e-08	8.02e-09
313.15	14000	1.386e-07	8e-09
313.15	16000	1.757e-07	8e-09
313.15	18000	2.067e-07	8e-09
313.15	20000	2.312e-07	8e-09
313.15	22000	2.508e-07	8e-09
313.15	24000	2.801e-07	8e-09
318.15	12000	7.833e-08	8.03e-09
318.15	14000	1.496e-07	8e-09
318.15	16000	2.227e-07	8e-09
318.15	18000	2.636e-07	8e-09
318.15	20000	3.268e-07	8e-09
318.15	22000	3.484e-07	8e-09
318.15	24000	3.84e-07	8.1e-09

System: carbon dioxide + sodium (R)-2-((R)-1,2-dihydroxyethyl)-4-hydroxy-5-oxo-2,5-dihydrofuran-3-olate monohydrate; phases: Fluid (supercritical or subcritical phases), Crystal
Property: Mole fraction of sodium (R)-2-((R)-1,2-dihydroxyethyl)-4-hydroxy-5-oxo-2,5-dihydrofuran-3-olate monohydrate (Fluid (supercritical or subcritical phases)); method: UV-VIS
Temperature, K	Pressure, kPa	Mole fraction of sodium (R)-2-((R)-1,2-dihydroxyethyl)-4-hydroxy-5-oxo-2,5-dihydrofuran-3-olate monohydrate	uncertainty
308.15	12000	3.327e-08	2.5e-09
308.15	14000	3.839e-08	2.5e-09
308.15	16000	4.503e-08	2.5e-09
308.15	18000	5.016e-08	2.5e-09
308.15	20000	5.581e-08	2.5e-09
308.15	22000	6.384e-08	2.51e-09
308.15	24000	7.168e-08	2.51e-09
313.15	12000	3.136e-08	2.5e-09
313.15	14000	4.329e-08	2.5e-09
313.15	16000	5.353e-08	2.5e-09
313.15	18000	6.307e-08	2.51e-09
313.15	20000	7.248e-08	2.51e-09
313.15	22000	8.471e-08	2.51e-09
313.15	24000	1.031e-07	2.5e-09
318.15	12000	2.787e-08	2.51e-09
318.15	14000	5.14e-08	2.51e-09
318.15	16000	6.635e-08	2.51e-09
318.15	18000	8.045e-08	2.51e-09
318.15	20000	9.629e-08	2.51e-09
318.15	22000	1.085e-07	2.5e-09
318.15	24000	1.184e-07	2.5e-09
