Measured thermophysical data. Solubility of Aspartame in Water, Methanol, Ethanol and Different Binary Mixtures in the Temperature Range of (278.15 to 333.15) K
Source: J. Chem. Eng. Data, 2014, 10.1021/je500259m
Compound 1: L-Aspartame, C14H18N2O5, InChI=1S/C14H18N2O5/c1-21-14(20)11(7-9-5-3-2-4-6-9)16-13(19)10(15)8-12(17)18/h2-6,10-11H,7-8,15H2,1H3,(H,16,19)(H,17,18)/t10-,11-/m0/s1, purity 99.9%
Compound 2: water, H2O, InChI=1S/H2O/h1H2
Compound 3: methanol, CH4O, InChI=1S/CH4O/c1-2/h2H,1H3, purity 99.7%
Compound 4: ethanol, C2H6O, InChI=1S/C2H6O/c1-2-3/h3H,2H2,1H3, purity 99.7%

System: water + L-Aspartame; phases: Liquid, Crystal
Fixed: Pressure, kPa = 101
Property: Mole fraction of L-Aspartame (Liquid); method: UV Spectra
Temperature, K	Mole fraction of L-Aspartame	uncertainty
278.15	0.0003376	3.38e-05
308.15	0.0010236	0.0001025
283.15	0.0004078	4.08e-05
288.15	0.000483	4.83e-05
293.15	0.0005807	5.81e-05
298.15	0.0007014	7.02e-05
303.15	0.0008364	8.37e-05
313.15	0.0012261	0.0001227
318.15	0.0015011	0.0001503
323.15	0.0018239	0.0001826
328.15	0.0022421	0.0002244
333.15	0.0027395	0.0002742

System: methanol + L-Aspartame; phases: Liquid, Crystal
Fixed: Pressure, kPa = 101
Property: Mole fraction of L-Aspartame (Liquid); method: UV Spectra
Temperature, K	Mole fraction of L-Aspartame	uncertainty
278.15	0.0005316	5.32e-05
283.15	0.0005926	5.93e-05
288.15	0.0006647	6.65e-05
293.15	0.0007395	7.4e-05
298.15	0.0008323	8.33e-05
303.15	0.0009393	9.4e-05
308.15	0.0010654	0.0001066
313.15	0.0012008	0.0001201
318.15	0.0013583	0.0001359
323.15	0.0015506	0.0001551
328.15	0.0017488	0.000175
333.15	0.0020009	0.0002002

System: ethanol + L-Aspartame; phases: Liquid, Crystal
Fixed: Pressure, kPa = 101
Property: Mole fraction of L-Aspartame (Liquid); method: UV Spectra
Temperature, K	Mole fraction of L-Aspartame	uncertainty
278.15	3.16e-05	1.3e-06
283.15	4.533e-05	1.84e-06
288.15	6.191e-05	2.51e-06
293.15	8.48e-05	3.43e-06
298.15	0.0001128	4.6e-06
303.15	0.0001445	5.8e-06
308.15	0.0001874	7.6e-06
313.15	0.0002355	9.5e-06
318.15	0.0002906	1.17e-05
323.15	0.0003469	1.4e-05
328.15	0.0004184	1.68e-05
333.15	0.0004928	1.98e-05

System: ethanol + water + L-Aspartame; phases: Liquid, Crystal
Fixed: Pressure, kPa = 101
Property: Mole fraction of L-Aspartame (Liquid); method: UV Spectra
Temperature, K	Solvent: Mass fraction of ethanol	Mole fraction of L-Aspartame	uncertainty
278.15	0.1	0.000123	1.24e-05
283.15	0.1	0.0001804	1.81e-05
288.15	0.1	0.0002617	2.62e-05
293.15	0.1	0.0003662	3.67e-05
298.15	0.1	0.0005101	5.11e-05
303.15	0.1	0.0007059	7.07e-05
278.15	0.2	0.0001664	1.67e-05
283.15	0.2	0.0002218	2.22e-05
288.15	0.2	0.0002998	3e-05
293.15	0.2	0.000404	4.05e-05
298.15	0.2	0.0005529	5.54e-05
303.15	0.2	0.0007434	7.45e-05
278.15	0.3	0.0001762	1.77e-05
283.15	0.3	0.0002553	2.56e-05
288.15	0.3	0.0003712	3.72e-05
293.15	0.3	0.0005436	5.45e-05
298.15	0.3	0.0007793	7.81e-05
303.15	0.3	0.0010997	0.0001103
278.15	0.4	0.0002436	2.44e-05
283.15	0.4	0.000362	3.63e-05
288.15	0.4	0.000533	5.35e-05
293.15	0.4	0.0007791	7.81e-05
298.15	0.4	0.0011047	0.0001108
303.15	0.4	0.001572	0.0001576
278.15	0.5	0.0003962	3.98e-05
283.15	0.5	0.0005716	5.73e-05
288.15	0.5	0.00083407	8.364e-05
293.15	0.5	0.0011761	0.0001179
298.15	0.5	0.0016255	0.0001629
303.15	0.5	0.0022352	0.000224
308.15	0.1	0.000941	9.43e-05
313.15	0.1	0.0012585	0.0001261
318.15	0.1	0.0016647	0.0001667
323.15	0.1	0.0021163	0.0002119
328.15	0.1	0.0027095	0.0002714
333.15	0.1	0.0034813	0.0003486
308.15	0.2	0.0010276	0.000103
313.15	0.2	0.0014253	0.0001429
318.15	0.2	0.0019793	0.0001984
323.15	0.2	0.0027591	0.0002766
328.15	0.2	0.0038869	0.0003897
333.15	0.2	0.0054126	0.0005426
308.15	0.3	0.0015705	0.0001575
313.15	0.3	0.0022223	0.0002228
318.15	0.3	0.0031102	0.0003118
323.15	0.3	0.004319	0.000433
328.15	0.3	0.0060561	0.000607
333.15	0.3	0.0082116	0.000822
308.15	0.4	0.0021542	0.0002159
313.15	0.4	0.002999	0.0003006
318.15	0.4	0.004044	0.0004052
323.15	0.4	0.0053873	0.0005398
328.15	0.4	0.0071802	0.0007193
333.15	0.4	0.009344	0.0009358
308.15	0.5	0.0030296	0.0003036
313.15	0.5	0.004042	0.0004049
318.15	0.5	0.0052377	0.0005246
323.15	0.5	0.006821	0.0006831
328.15	0.5	0.008704	0.0008717
333.15	0.5	0.0111172	0.001113

System: methanol + water + L-Aspartame; phases: Liquid, Crystal
Fixed: Pressure, kPa = 101
Property: Mole fraction of L-Aspartame (Liquid); method: UV Spectra
Temperature, K	Solvent: Mass fraction of methanol	Mole fraction of L-Aspartame	uncertainty
278.15	0.1	0.0001115	1.12e-05
283.15	0.1	0.0001655	1.66e-05
288.15	0.1	0.000242	2.43e-05
293.15	0.1	0.0003459	3.47e-05
298.15	0.1	0.0004787	4.8e-05
303.15	0.1	0.0006567	6.58e-05
278.15	0.2	0.0001707	1.72e-05
283.15	0.2	0.000241	2.42e-05
288.15	0.2	0.0003326	3.33e-05
293.15	0.2	0.0004631	4.64e-05
298.15	0.2	0.0006316	6.33e-05
303.15	0.2	0.0008659	8.68e-05
278.15	0.3	0.0001932	1.94e-05
283.15	0.3	0.0002909	2.92e-05
288.15	0.3	0.0004233	4.25e-05
293.15	0.3	0.0006054	6.07e-05
298.15	0.3	0.0008589	8.61e-05
303.15	0.3	0.0011702	0.0001173
278.15	0.4	0.0002589	2.6e-05
283.15	0.4	0.000388	3.89e-05
288.15	0.4	0.0005579	5.6e-05
293.15	0.4	0.0008074	8.09e-05
298.15	0.4	0.0011095	0.0001112
303.15	0.4	0.0015369	0.000154
278.15	0.5	0.0003242	3.26e-05
283.15	0.5	0.0004795	4.81e-05
288.15	0.5	0.0006909	6.93e-05
293.15	0.5	0.0009745	9.77e-05
298.15	0.5	0.0013498	0.0001353
303.15	0.5	0.0018249	0.0001828
308.15	0.1	0.0008867	8.88e-05
313.15	0.1	0.0011798	0.0001182
318.15	0.1	0.0015368	0.0001539
323.15	0.1	0.0019721	0.0001975
328.15	0.1	0.0024552	0.0002458
333.15	0.1	0.0030817	0.0003085
308.15	0.2	0.0011617	0.0001164
313.15	0.2	0.0015585	0.0001561
318.15	0.2	0.0020133	0.0002017
323.15	0.2	0.0027169	0.0002722
328.15	0.2	0.0035611	0.0003566
333.15	0.2	0.0045012	0.0004505
308.15	0.3	0.0016002	0.0001603
313.15	0.3	0.0021084	0.0002112
318.15	0.3	0.0027511	0.0002755
323.15	0.3	0.0035225	0.0003528
328.15	0.3	0.0045022	0.0004508
333.15	0.3	0.0055836	0.0005589
308.15	0.4	0.0020255	0.0002029
313.15	0.4	0.0026865	0.0002691
318.15	0.4	0.0034345	0.000344
323.15	0.4	0.0044231	0.0004429
328.15	0.4	0.0055529	0.0005559
333.15	0.4	0.0067705	0.0006777
308.15	0.5	0.0024165	0.0002421
313.15	0.5	0.0032055	0.0003211
318.15	0.5	0.0041378	0.0004144
323.15	0.5	0.0052191	0.0005226
328.15	0.5	0.0066708	0.000668
333.15	0.5	0.0083197	0.0008328
