Measured thermophysical data. Measurement of Solid Liquid Phase Equilibrium for the Ternary 3-Nitrophthalic Anhydride + 4-Nitrophthalic Anhydride + 1,4-Dioxane System
Source: J. Chem. Eng. Data, 2014, 10.1021/je500171d
Compound 1: 3-nitro-1,2-benzenedicarboxylic acid anhydride, C8H3NO5, InChI=1S/C8H3NO5/c10-7-4-2-1-3-5(9(12)13)6(4)8(11)14-7/h1-3H, purity 99.2%
Compound 2: 4-nitro-1,2-benzenedicarboxylic acid anhydride, C8H3NO5, InChI=1S/C8H3NO5/c10-7-5-2-1-4(9(12)13)3-6(5)8(11)14-7/h1-3H, purity 99.2%
Compound 3: 1,4-dioxane, C4H8O2, InChI=1S/C4H8O2/c1-2-6-4-3-5-1/h1-4H2, purity 99.5%

System: 1,4-dioxane + 3-nitro-1,2-benzenedicarboxylic acid anhydride + 4-nitro-1,2-benzenedicarboxylic acid anhydride; phases: Liquid, Crystal
Fixed: Pressure, kPa = 101
Property: Mass fraction of 4-nitro-1,2-benzenedicarboxylic acid anhydride (Liquid); method: Chromatography
Temperature, K	Mass fraction of 3-nitro-1,2-benzenedicarboxylic acid anhydride	Mass fraction of 4-nitro-1,2-benzenedicarboxylic acid anhydride	uncertainty
283.15	0.3304	0	
283.15	0.3118	0.0282	0.0216
283.15	0.2933	0.0643	0.0189
283.15	0.2731	0.0903	0.0191
283.15	0.2626	0.1191	0.0292
303.15	0.4106	0	
303.15	0.4053	0.025	0.025
303.15	0.3864	0.0475	0.0244
303.15	0.3663	0.0863	0.0311
303.15	0.3535	0.1175	0.0348
323.15	0.536	0	
323.15	0.526	0.0197	0.0197
323.15	0.5045	0.0496	0.0322
323.15	0.4876	0.0813	0.0455
323.15	0.4791	0.1106	0.0662

System: 1,4-dioxane + 3-nitro-1,2-benzenedicarboxylic acid anhydride + 4-nitro-1,2-benzenedicarboxylic acid anhydride; phases: Liquid, Crystal
Fixed: Pressure, kPa = 101
Property: Mass fraction of 4-nitro-1,2-benzenedicarboxylic acid anhydride (Liquid); method: Chromatography
Temperature, K	Mass fraction of 3-nitro-1,2-benzenedicarboxylic acid anhydride	Mass fraction of 4-nitro-1,2-benzenedicarboxylic acid anhydride	uncertainty
283.15	0.2263	0.1603	0.0074
283.15	0.1829	0.1783	0.0077
283.15	0.148	0.1913	0.008
283.15	0.1108	0.2082	0.0087
283.15	0.0764	0.2313	0.0095
283.15	0.0496	0.2545	0.0103
283.15	0.0251	0.2759	0.0111
283.15	0	0.2951	0.0118
303.15	0.307	0.1549	0.0078
303.15	0.2681	0.1699	0.0076
303.15	0.2229	0.1821	0.0082
303.15	0.1704	0.2105	0.0091
303.15	0.1182	0.2342	0.0097
303.15	0.0733	0.2636	0.0108
303.15	0.0389	0.2901	0.0117
303.15	0	0.32	0.0128
323.15	0.4221	0.1467	0.0071
323.15	0.3674	0.1597	0.0074
323.15	0.3182	0.1737	0.0081
323.15	0.2697	0.1913	0.0087
323.15	0.2213	0.2105	0.0093
323.15	0.1659	0.2375	0.0102
323.15	0.1258	0.2629	0.0112
323.15	0.0813	0.2991	0.0122
323.15	0.035	0.3245	0.013
323.15	0	0.3459	0.0139

System: 1,4-dioxane + 3-nitro-1,2-benzenedicarboxylic acid anhydride + 4-nitro-1,2-benzenedicarboxylic acid anhydride; phases: Liquid, Crystal, Crystal
Fixed: Pressure, kPa = 101
Property: Mass fraction of 4-nitro-1,2-benzenedicarboxylic acid anhydride (Liquid); method: Chromatography
Temperature, K	Mass fraction of 4-nitro-1,2-benzenedicarboxylic acid anhydride	uncertainty
283.15	0.1489	0.006
303.15	0.1456	0.0058
323.15	0.136	0.005

System: 1,4-dioxane + 3-nitro-1,2-benzenedicarboxylic acid anhydride + 4-nitro-1,2-benzenedicarboxylic acid anhydride; phases: Liquid, Crystal, Crystal
Fixed: Pressure, kPa = 101
Property: Mass fraction of 3-nitro-1,2-benzenedicarboxylic acid anhydride (Liquid); method: Chromatography
Temperature, K	Mass fraction of 3-nitro-1,2-benzenedicarboxylic acid anhydride	uncertainty
283.15	0.2566	0.0103
303.15	0.3439	0.0138
323.15	0.4751	0.019

System: 1,4-dioxane + 3-nitro-1,2-benzenedicarboxylic acid anhydride + 4-nitro-1,2-benzenedicarboxylic acid anhydride; phases: Liquid
Fixed: Pressure, kPa = 101
Property: Mass density, kg/m3 (Liquid); method: Vibrating tube method
Temperature, K	Mass fraction of 4-nitro-1,2-benzenedicarboxylic acid anhydride	Mass fraction of 3-nitro-1,2-benzenedicarboxylic acid anhydride	Mass density, kg/m3	uncertainty
283.15	0	0.3304	1030.1	1.5
283.15	0.0282	0.3118	1032.6	1.4
283.15	0.0643	0.2933	1041.3	4.7
283.15	0.0903	0.2731	1046.7	5.1
283.15	0.1191	0.2626	1056.4	5.8
283.15	0.1489	0.2566	1070.4	6.4
283.15	0.1603	0.2263	1061.2	6
283.15	0.1783	0.1829	1047	2.7
283.15	0.1913	0.148	1041.5	2.6
283.15	0.2082	0.1108	1034.1	3.1
283.15	0.2313	0.0764	1029.6	0.7
283.15	0.2545	0.0496	1026	1.2
283.15	0.2759	0.0251	1022.9	9.7
283.15	0.2951	0	1022.1	0.7
303.15	0	0.4106	1053.1	1.8
303.15	0.025	0.4053	1060.7	5
303.15	0.0475	0.3864	1075.2	7
303.15	0.0863	0.3663	1084.1	9.2
303.15	0.1175	0.3535	1097.5	10.4
303.15	0.1456	0.3439	1114.4	13.6
303.15	0.1549	0.307	1089.3	12.2
303.15	0.1699	0.2681	1071.5	10.3
303.15	0.1821	0.2229	1062.4	1.2
303.15	0.2105	0.1704	1053.5	20.5
303.15	0.2342	0.1182	1044.7	2.4
303.15	0.2636	0.0733	1039	6.5
303.15	0.2901	0.0389	1032.2	1.5
303.15	0.32	0	1030.1	6.9
323.15	0	0.536	1132.5	1.6
323.15	0.0197	0.526	1135.7	5.5
323.15	0.0496	0.5045	1140.7	7.7
323.15	0.0813	0.4876	1149.4	11.6
323.15	0.1106	0.4791	1170.7	19.1
323.15	0.136	0.4751	1210.4	23.2
323.15	0.1467	0.4221	1169.9	19.2
323.15	0.1597	0.3674	1152.4	8.6
323.15	0.1737	0.3182	1134.6	8.8
323.15	0.1913	0.2697	1119.5	8.4
323.15	0.2105	0.2213	1099.3	5.3
323.15	0.2375	0.1659	1077.6	5.6
323.15	0.2629	0.1258	1064.3	1.7
323.15	0.2991	0.0813	1049.1	10
323.15	0.3245	0.035	1043.5	16.4
323.15	0.3459	0	1036.5	4.6
