Measured thermophysical data. Volumetric Properties of Disaccharides in Aqueous Solutions of Benzyldimethylammonium Acetate as a Function of Temperature
Source: J. Chem. Eng. Data, 2015, 10.1021/je501169y
Compound 1: D-cellobiose, C12H22O11, InChI=1S/C12H22O11/c13-1-3-5(15)6(16)9(19)12(22-3)23-10-4(2-14)21-11(20)8(18)7(10)17/h3-20H,1-2H2/t3-,4-,5-,6+,7-,8-,9-,10-,11-,12+/m1/s1, purity 98%
Compound 2: water, H2O, InChI=1S/H2O/h1H2
Compound 3: N,N-dimethylbenzylammonium acetate, C11H17NO2, InChI=1S/C9H13N.C2H4O2/c1-10(2)8-9-6-4-3-5-7-9;1-2(3)4/h3-7H,8H2,1-2H3;1H3,(H,3,4), purity 99%
Compound 4: D-(+)-maltose monohydrate, C12H24O12, InChI=1S/C12H22O11.H2O/c13-1-3-5(15)6(16)9(19)12(22-3)23-10-4(2-14)21-11(20)8(18)7(10)17;/h3-20H,1-2H2;1H2/t3-,4-,5-,6+,7-,8-,9-,10-,11-,12-;/m1./s1, purity 95%

System: D-cellobiose + water + N,N-dimethylbenzylammonium acetate; phases: Liquid
Fixed: Pressure, kPa = 101
Property: Mass density, kg/m3 (Liquid); method: Vibrating tube method
Temperature, K	Solvent: Molality, mol/kg of N,N-dimethylbenzylammonium acetate	Molality, mol/kg of D-cellobiose	Mass density, kg/m3	uncertainty
288.15	0	0	999.129	0.242
288.15	0	0.04565	1005.093	0.246
288.15	0	0.07217	1008.495	0.249
288.15	0	0.08095	1009.611	0.25
288.15	0	0.10052	1012.083	0.252
288.15	0	0.11911	1014.407	0.254
288.15	0	0.14	1016.995	0.256
298.15	0	0	997.049	0.242
298.15	0	0.04565	1002.978	0.245
298.15	0	0.07217	1006.365	0.247
298.15	0	0.08095	1007.477	0.248
298.15	0	0.10052	1009.94	0.25
298.15	0	0.11911	1012.259	0.252
298.15	0	0.14	1014.841	0.254
308.15	0	0	994.063	0.242
308.15	0	0.04565	999.945	0.242
308.15	0	0.07217	1003.299	0.245
308.15	0	0.08095	1004.399	0.246
308.15	0	0.10052	1006.834	0.248
308.15	0	0.11911	1009.13	0.25
308.15	0	0.14	1011.68	0.252
318.15	0	0	990.244	0.242
318.15	0	0.04565	996.094	0.242
318.15	0	0.07217	999.428	0.242
318.15	0	0.08095	1000.522	0.243
318.15	0	0.10052	1002.942	0.245
318.15	0	0.11911	1005.221	0.246
318.15	0	0.14	1007.752	0.249
288.15	0.05	0	1000.061	0.242
288.15	0.05	0.04137	1005.386	0.247
288.15	0.05	0.06856	1008.833	0.249
288.15	0.05	0.07664	1009.849	0.25
288.15	0.05	0.1072	1013.661	0.253
288.15	0.05	0.13185	1016.698	0.256
288.15	0.05	0.15504	1019.526	0.258
298.15	0.05	0	997.958	0.242
298.15	0.05	0.04137	1003.244	0.245
298.15	0.05	0.06856	1006.666	0.248
298.15	0.05	0.07664	1007.674	0.248
298.15	0.05	0.1072	1011.457	0.252
298.15	0.05	0.13185	1014.471	0.254
298.15	0.05	0.15504	1017.276	0.256
308.15	0.05	0	995.017	0.242
308.15	0.05	0.04137	1000.219	0.242
308.15	0.05	0.06856	1003.586	0.245
308.15	0.05	0.07664	1004.578	0.246
308.15	0.05	0.1072	1008.298	0.249
308.15	0.05	0.13185	1011.261	0.251
308.15	0.05	0.15504	1014.02	0.254
318.15	0.05	0	991.082	0.242
318.15	0.05	0.04137	996.245	0.242
318.15	0.05	0.06856	999.587	0.242
318.15	0.05	0.07664	1000.572	0.243
318.15	0.05	0.1072	1004.265	0.246
318.15	0.05	0.13185	1007.208	0.248
318.15	0.05	0.15504	1009.946	0.25
288.15	0.1	0	1001.058	0.243
288.15	0.1	0.04844	1007.337	0.248
288.15	0.1	0.06493	1009.442	0.25
288.15	0.1	0.08801	1012.366	0.252
288.15	0.1	0.11483	1015.725	0.255
288.15	0.1	0.1218	1016.591	0.256
288.15	0.1	0.16228	1021.574	0.26
298.15	0.1	0	999.043	0.242
298.15	0.1	0.04844	1005.249	0.246
298.15	0.1	0.06493	1007.329	0.248
298.15	0.1	0.08801	1010.217	0.25
298.15	0.1	0.11483	1013.536	0.253
298.15	0.1	0.1218	1014.391	0.254
298.15	0.1	0.16228	1019.311	0.258
308.15	0.1	0	995.871	0.242
308.15	0.1	0.04844	1002.018	0.244
308.15	0.1	0.06493	1004.08	0.246
308.15	0.1	0.08801	1006.941	0.248
308.15	0.1	0.11483	1010.23	0.251
308.15	0.1	0.1218	1011.076	0.251
308.15	0.1	0.16228	1015.95	0.255
318.15	0.1	0	991.952	0.242
318.15	0.1	0.04844	998.036	0.242
318.15	0.1	0.06493	1000.076	0.242
318.15	0.1	0.08801	1002.907	0.245
318.15	0.1	0.11483	1006.161	0.247
318.15	0.1	0.1218	1007	0.248
318.15	0.1	0.16228	1011.823	0.252
288.15	0.15	0	1001.82	0.244
288.15	0.15	0.05241	1008.645	0.249
288.15	0.15	0.06799	1010.643	0.251
288.15	0.15	0.09529	1014.11	0.254
288.15	0.15	0.12182	1017.441	0.256
288.15	0.15	0.13153	1018.648	0.257
288.15	0.15	0.13879	1019.548	0.258
298.15	0.15	0	999.682	0.242
298.15	0.15	0.05241	1006.446	0.247
298.15	0.15	0.06799	1008.425	0.249
298.15	0.15	0.09529	1011.862	0.252
298.15	0.15	0.12182	1015.161	0.255
298.15	0.15	0.13153	1016.358	0.256
298.15	0.15	0.13879	1017.249	0.256
308.15	0.15	0	996.548	0.242
308.15	0.15	0.05241	1003.21	0.245
308.15	0.15	0.06799	1005.16	0.246
308.15	0.15	0.09529	1008.545	0.249
308.15	0.15	0.12182	1011.795	0.252
308.15	0.15	0.13153	1012.976	0.253
308.15	0.15	0.13879	1013.852	0.254
318.15	0.15	0	992.662	0.242
318.15	0.15	0.05241	999.273	0.242
318.15	0.15	0.06799	1001.208	0.243
318.15	0.15	0.09529	1004.567	0.246
318.15	0.15	0.12182	1007.794	0.249
318.15	0.15	0.13153	1008.964	0.25
318.15	0.15	0.13879	1009.835	0.25
288.15	0.2	0	1002.847	0.244
288.15	0.2	0.05368	1009.871	0.25
288.15	0.2	0.07104	1012.106	0.252
288.15	0.2	0.08947	1014.461	0.254
288.15	0.2	0.11243	1017.369	0.256
288.15	0.2	0.12371	1018.784	0.257
288.15	0.2	0.13982	1020.796	0.259
298.15	0.2	0	1000.712	0.243
298.15	0.2	0.05368	1007.687	0.248
298.15	0.2	0.07104	1009.906	0.25
298.15	0.2	0.08947	1012.244	0.252
298.15	0.2	0.11243	1015.13	0.255
298.15	0.2	0.12371	1016.537	0.256
298.15	0.2	0.13982	1018.533	0.257
308.15	0.2	0	997.483	0.242
308.15	0.2	0.05368	1004.392	0.246
308.15	0.2	0.07104	1006.59	0.248
308.15	0.2	0.08947	1008.906	0.249
308.15	0.2	0.11243	1011.766	0.252
308.15	0.2	0.12371	1013.159	0.253
308.15	0.2	0.13982	1015.137	0.255
318.15	0.2	0	993.451	0.242
318.15	0.2	0.05368	1000.315	0.242
318.15	0.2	0.07104	1002.499	0.244
318.15	0.2	0.08947	1004.8	0.246
318.15	0.2	0.11243	1007.641	0.248
318.15	0.2	0.12371	1009.025	0.25
318.15	0.2	0.13982	1010.991	0.251

System: D-cellobiose + water + N,N-dimethylbenzylammonium acetate; phases: Liquid
Fixed: Pressure, kPa = 101
Fixed: Frequency, MHz = 3
Property: Speed of sound, m/s (Liquid); method: LVPAI:UFactor:3
Temperature, K	Solvent: Molality, mol/kg of N,N-dimethylbenzylammonium acetate	Molality, mol/kg of D-cellobiose	Speed of sound, m/s	uncertainty
288.15	0	0	1465.88	4.68
298.15	0	0	1496.51	4.75
308.15	0	0	1519.9	4.81
318.15	0	0	1536.68	4.84
288.15	0.05	0	1482.78	4.72
298.15	0.05	0	1504.54	4.77
308.15	0.05	0	1526.68	4.82
318.15	0.05	0	1542.62	4.86
288.15	0.1	0	1491.25	4.74
298.15	0.1	0	1512.04	4.79
308.15	0.1	0	1533.24	4.84
318.15	0.1	0	1548.36	4.87
288.15	0.15	0	1502.34	4.77
298.15	0.15	0	1517.72	4.8
308.15	0.15	0	1538.21	4.85
318.15	0.15	0	1552.71	4.88
288.15	0.2	0	1512.87	4.79
298.15	0.2	0	1526.72	4.82
308.15	0.2	0	1545.21	4.86
318.15	0.2	0	1558.83	4.89
288.15	0.05	0.04137	1486.71	4.73
298.15	0.05	0.04137	1507.65	4.78
308.15	0.05	0.04137	1530.38	4.83
318.15	0.05	0.04137	1545.65	4.86
318.15	0	0.04565	1540.19	4.85
288.15	0	0.04565	1470.63	4.69
298.15	0	0.04565	1500.93	4.76
308.15	0	0.04565	1525.1	4.82
288.15	0.1	0.04844	1496.85	4.75
298.15	0.1	0.04844	1516.37	4.8
308.15	0.1	0.04844	1537.68	4.85
318.15	0.1	0.04844	1552.97	4.88
288.15	0.15	0.05241	1508.69	4.78
298.15	0.15	0.05241	1523.37	4.81
308.15	0.15	0.05241	1543.18	4.86
318.15	0.15	0.05241	1556.86	4.89
288.15	0.2	0.05368	1518.51	4.8
298.15	0.2	0.05368	1531.67	4.83
308.15	0.2	0.05368	1549.98	4.87
318.15	0.2	0.05368	1563.89	4.91
288.15	0.1	0.06493	1498.66	4.76
298.15	0.1	0.06493	1517.98	4.8
308.15	0.1	0.06493	1539.11	4.85
318.15	0.1	0.06493	1554.24	4.88
288.15	0.15	0.06799	1510.47	4.78
298.15	0.15	0.06799	1524.92	4.82
308.15	0.15	0.06799	1544.62	4.86
318.15	0.15	0.06799	1558.19	4.89
318.15	0.05	0.06856	1547.65	4.87
288.15	0.05	0.06856	1489.52	4.74
308.15	0.05	0.06856	1532.6	4.84
298.15	0.05	0.06856	1510.08	4.78
288.15	0.2	0.07104	1520.53	4.81
298.15	0.2	0.07104	1533.44	4.84
308.15	0.2	0.07104	1551.61	4.88
318.15	0.2	0.07104	1565.4	4.91
298.15	0	0.07217	1503.68	4.77
318.15	0	0.07217	1542.63	4.86
288.15	0	0.07217	1473.62	4.7
308.15	0	0.07217	1527.68	4.82
288.15	0.05	0.07664	1490.36	4.74
308.15	0.05	0.07664	1533.26	4.84
318.15	0.05	0.07664	1548.25	4.87
298.15	0.05	0.07664	1510.81	4.79
298.15	0	0.08095	1504.59	4.77
318.15	0	0.08095	1543.44	4.86
288.15	0	0.08095	1474.62	4.7
308.15	0	0.08095	1528.54	4.83
308.15	0.1	0.08801	1541.13	4.85
318.15	0.1	0.08801	1556.01	4.89
288.15	0.1	0.08801	1501.2	4.76
298.15	0.1	0.08801	1520.23	4.81
288.15	0.2	0.08947	1522.68	4.81
298.15	0.2	0.08947	1535.34	4.84
308.15	0.2	0.08947	1553.35	4.88
318.15	0.2	0.08947	1567	4.91
288.15	0.15	0.09529	1513.6	4.79
298.15	0.15	0.09529	1527.66	4.82
308.15	0.15	0.09529	1547.15	4.87
318.15	0.15	0.09529	1560.53	4.9
288.15	0	0.10052	1476.85	4.71
298.15	0	0.10052	1506.63	4.78
318.15	0	0.10052	1545.26	4.86
308.15	0	0.10052	1530.47	4.83
288.15	0.05	0.1072	1493.56	4.75
308.15	0.05	0.1072	1535.78	4.84
318.15	0.05	0.1072	1550.52	4.88
298.15	0.05	0.1072	1513.57	4.79
288.15	0.2	0.11243	1525.37	4.82
298.15	0.2	0.11243	1537.72	4.85
308.15	0.2	0.11243	1555.53	4.89
318.15	0.2	0.11243	1569	4.92
318.15	0.1	0.11483	1558.09	4.89
288.15	0.1	0.11483	1504.18	4.77
298.15	0.1	0.11483	1522.86	4.81
308.15	0.1	0.11483	1543.49	4.86
298.15	0	0.11911	1508.59	4.78
288.15	0	0.11911	1478.98	4.71
318.15	0	0.11911	1547	4.87
308.15	0	0.11911	1532.31	4.83
288.15	0.1	0.1218	1504.95	4.77
318.15	0.1	0.1218	1558.64	4.89
298.15	0.1	0.1218	1523.54	4.81
308.15	0.1	0.1218	1544.1	4.86
318.15	0.15	0.12182	1562.82	4.9
288.15	0.15	0.12182	1516.66	4.8
308.15	0.15	0.12182	1549.62	4.87
298.15	0.15	0.12182	1530.34	4.83
288.15	0.2	0.12371	1526.7	4.82
298.15	0.2	0.12371	1538.89	4.85
308.15	0.2	0.12371	1556.61	4.89
318.15	0.2	0.12371	1569.99	4.92
298.15	0.15	0.13153	1531.33	4.83
288.15	0.15	0.13153	1517.79	4.8
318.15	0.15	0.13153	1563.66	4.91
308.15	0.15	0.13153	1550.52	4.88
288.15	0.05	0.13185	1496.15	4.75
298.15	0.05	0.13185	1515.81	4.8
318.15	0.05	0.13185	1552.36	4.88
308.15	0.05	0.13185	1537.84	4.85
298.15	0.15	0.13879	1532.06	4.83
308.15	0.15	0.13879	1551.21	4.88
288.15	0.15	0.13879	1518.64	4.8
318.15	0.15	0.13879	1564.29	4.91
298.15	0.2	0.13982	1540.56	4.85
288.15	0.2	0.13982	1528.61	4.83
308.15	0.2	0.13982	1558.15	4.89
318.15	0.2	0.13982	1571.41	4.92
318.15	0	0.14	1548.98	4.87
288.15	0	0.14	1481.4	4.72
298.15	0	0.14	1510.8	4.79
308.15	0	0.14	1534.38	4.84
288.15	0.05	0.15504	1498.6	4.76
318.15	0.05	0.15504	1554.1	4.88
308.15	0.05	0.15504	1539.77	4.85
298.15	0.05	0.15504	1517.92	4.8
298.15	0.1	0.16228	1527.55	4.82
308.15	0.1	0.16228	1547.7	4.87
288.15	0.1	0.16228	1509.48	4.78
318.15	0.1	0.16228	1561.81	4.9

System: D-(+)-maltose monohydrate + water + N,N-dimethylbenzylammonium acetate; phases: Liquid
Fixed: Pressure, kPa = 101
Property: Mass density, kg/m3 (Liquid); method: Vibrating tube method
Temperature, K	Solvent: Molality, mol/kg of N,N-dimethylbenzylammonium acetate	Molality, mol/kg of D-(+)-maltose monohydrate	Mass density, kg/m3	uncertainty
288.15	0	0.04928	1005.643	0.877
288.15	0	0.08226	1009.916	0.886
288.15	0	0.08926	1010.813	0.888
288.15	0	0.10447	1012.754	0.892
288.15	0	0.11714	1014.36	0.895
288.15	0	0.16144	1019.898	0.907
298.15	0	0.04928	1003.496	0.872
298.15	0	0.08226	1007.726	0.881
298.15	0	0.08926	1008.615	0.883
298.15	0	0.10447	1010.536	0.887
298.15	0	0.11714	1012.126	0.89
298.15	0	0.16144	1017.611	0.902
308.15	0	0.04928	1000.452	0.866
308.15	0	0.08226	1004.642	0.875
308.15	0	0.08926	1005.521	0.877
308.15	0	0.10447	1007.425	0.881
308.15	0	0.11714	1009.001	0.884
308.15	0	0.16144	1014.431	0.895
318.15	0	0.04928	996.572	0.861
318.15	0	0.08226	1000.721	0.867
318.15	0	0.08926	1001.593	0.869
318.15	0	0.10447	1003.476	0.872
318.15	0	0.11714	1005.036	0.876
318.15	0	0.16144	1010.411	0.887
288.15	0.05	0.05009	1006.577	0.879
288.15	0.05	0.06292	1008.22	0.882
288.15	0.05	0.08558	1011.099	0.888
288.15	0.05	0.09276	1012.004	0.89
288.15	0.05	0.12046	1015.469	0.897
288.15	0.05	0.13449	1017.206	0.901
298.15	0.05	0.05009	1004.386	0.874
298.15	0.05	0.06292	1006.007	0.878
298.15	0.05	0.08558	1008.846	0.883
298.15	0.05	0.09276	1009.738	0.885
298.15	0.05	0.12046	1013.155	0.892
298.15	0.05	0.13449	1014.867	0.896
308.15	0.05	0.05009	1001.342	0.868
308.15	0.05	0.06292	1002.937	0.871
308.15	0.05	0.08558	1005.728	0.877
308.15	0.05	0.09276	1006.606	0.879
308.15	0.05	0.12046	1009.964	0.886
308.15	0.05	0.13449	1011.647	0.889
318.15	0.05	0.05009	997.324	0.862
318.15	0.05	0.06292	998.898	0.864
318.15	0.05	0.08558	1001.654	0.869
318.15	0.05	0.09276	1002.521	0.87
318.15	0.05	0.12046	1005.836	0.877
318.15	0.05	0.13449	1007.499	0.881
288.15	0.1	0.04836	1007.381	0.88
288.15	0.1	0.07442	1010.727	0.887
288.15	0.1	0.09088	1012.819	0.892
288.15	0.1	0.10746	1014.909	0.896
288.15	0.1	0.13488	1018.328	0.903
288.15	0.1	0.15469	1020.771	0.908
298.15	0.1	0.04836	1005.276	0.876
298.15	0.1	0.07442	1008.574	0.883
298.15	0.1	0.09088	1010.635	0.887
298.15	0.1	0.10746	1012.693	0.891
298.15	0.1	0.13488	1016.063	0.899
298.15	0.1	0.15469	1018.47	0.904
308.15	0.1	0.04836	1002.025	0.869
308.15	0.1	0.07442	1005.281	0.876
308.15	0.1	0.09088	1007.316	0.88
308.15	0.1	0.10746	1009.35	0.885
308.15	0.1	0.13488	1012.677	0.891
308.15	0.1	0.15469	1015.054	0.896
318.15	0.1	0.04836	998.025	0.863
318.15	0.1	0.07442	1001.237	0.868
318.15	0.1	0.09088	1003.246	0.872
318.15	0.1	0.10746	1005.252	0.876
318.15	0.1	0.13488	1008.534	0.883
318.15	0.1	0.15469	1010.879	0.888
288.15	0.15	0.04096	1007.214	0.88
288.15	0.15	0.07588	1011.728	0.889
288.15	0.15	0.09222	1013.814	0.894
288.15	0.15	0.10025	1014.832	0.896
288.15	0.15	0.11246	1016.375	0.899
288.15	0.15	0.1556	1021.75	0.91
298.15	0.15	0.04096	1005.013	0.876
298.15	0.15	0.07588	1009.476	0.885
298.15	0.15	0.09222	1011.539	0.889
298.15	0.15	0.10025	1012.547	0.891
298.15	0.15	0.11246	1014.072	0.894
298.15	0.15	0.1556	1019.391	0.905
308.15	0.15	0.04096	1001.798	0.869
308.15	0.15	0.07588	1006.191	0.878
308.15	0.15	0.09222	1008.22	0.882
308.15	0.15	0.10025	1009.207	0.884
308.15	0.15	0.11246	1010.706	0.887
308.15	0.15	0.1556	1015.931	0.898
318.15	0.15	0.04096	997.853	0.862
318.15	0.15	0.07588	1002.197	0.87
318.15	0.15	0.09222	1004.204	0.874
318.15	0.15	0.10025	1005.184	0.876
318.15	0.15	0.11246	1006.667	0.879
318.15	0.15	0.1556	1011.841	0.89
288.15	0.2	0.05739	1010.396	0.887
288.15	0.2	0.07539	1012.721	0.892
288.15	0.2	0.0892	1014.491	0.895
288.15	0.2	0.1039	1016.362	0.899
288.15	0.2	0.12952	1019.593	0.906
288.15	0.2	0.14819	1021.922	0.911
298.15	0.2	0.05739	1008.174	0.882
298.15	0.2	0.07539	1010.47	0.887
298.15	0.2	0.0892	1012.219	0.891
298.15	0.2	0.1039	1014.067	0.894
298.15	0.2	0.12952	1017.259	0.901
298.15	0.2	0.14819	1019.56	0.906
308.15	0.2	0.05739	1004.867	0.875
308.15	0.2	0.07539	1007.14	0.88
308.15	0.2	0.0892	1008.871	0.884
308.15	0.2	0.1039	1010.701	0.887
308.15	0.2	0.12952	1013.858	0.894
308.15	0.2	0.14819	1016.135	0.899
318.15	0.2	0.05739	1000.75	0.867
318.15	0.2	0.07539	1002.997	0.871
318.15	0.2	0.0892	1004.705	0.875
318.15	0.2	0.1039	1006.51	0.879
318.15	0.2	0.12952	1009.627	0.885
318.15	0.2	0.14819	1011.873	0.89

System: D-(+)-maltose monohydrate + water + N,N-dimethylbenzylammonium acetate; phases: Liquid
Fixed: Pressure, kPa = 101
Fixed: Frequency, MHz = 3
Property: Speed of sound, m/s (Liquid); method: LVPAI:UFactor:2
Temperature, K	Solvent: Molality, mol/kg of N,N-dimethylbenzylammonium acetate	Molality, mol/kg of D-(+)-maltose monohydrate	Speed of sound, m/s	uncertainty
288.15	0	0.04928	1471.11	3.67
288.15	0	0.08226	1474.88	3.67
288.15	0	0.08926	1475.68	3.68
288.15	0	0.10447	1477.43	3.68
288.15	0	0.11714	1478.89	3.68
288.15	0	0.16144	1484.05	3.69
298.15	0	0.04928	1501.82	3.71
298.15	0	0.08226	1505.59	3.71
298.15	0	0.08926	1506.39	3.71
298.15	0	0.10447	1508.14	3.72
298.15	0	0.11714	1509.61	3.72
298.15	0	0.16144	1514.75	3.73
308.15	0	0.04928	1525.97	3.74
308.15	0	0.08226	1529.53	3.74
308.15	0	0.08926	1530.28	3.75
308.15	0	0.10447	1531.93	3.75
308.15	0	0.11714	1533.3	3.75
308.15	0	0.16144	1538.15	3.76
318.15	0	0.04928	1541.19	3.76
318.15	0	0.08226	1544.66	3.76
318.15	0	0.08926	1545.4	3.77
318.15	0	0.10447	1547.01	3.77
318.15	0	0.11714	1548.35	3.77
318.15	0	0.16144	1553.09	3.78
288.15	0.05	0.05009	1487.64	3.69
288.15	0.05	0.06292	1488.98	3.69
288.15	0.05	0.08558	1491.35	3.7
288.15	0.05	0.09276	1492.1	3.7
288.15	0.05	0.12046	1495.03	3.7
288.15	0.05	0.13449	1496.51	3.7
298.15	0.05	0.05009	1508.96	3.72
298.15	0.05	0.06292	1510.24	3.72
298.15	0.05	0.08558	1512.51	3.72
298.15	0.05	0.09276	1513.23	3.72
298.15	0.05	0.12046	1516.03	3.73
298.15	0.05	0.13449	1517.45	3.73
308.15	0.05	0.05009	1531.54	3.75
308.15	0.05	0.06292	1532.7	3.75
308.15	0.05	0.08558	1534.77	3.75
308.15	0.05	0.09276	1535.42	3.75
308.15	0.05	0.12046	1537.97	3.76
308.15	0.05	0.13449	1539.26	3.76
318.15	0.05	0.05009	1546.95	3.77
318.15	0.05	0.06292	1548.06	3.77
318.15	0.05	0.08558	1550.03	3.77
318.15	0.05	0.09276	1550.65	3.77
318.15	0.05	0.12046	1553.08	3.78
318.15	0.05	0.13449	1554.3	3.78
288.15	0.1	0.04836	1496.82	3.7
288.15	0.1	0.07442	1499.66	3.71
288.15	0.1	0.09088	1501.46	3.71
288.15	0.1	0.10746	1503.28	3.71
288.15	0.1	0.13488	1506.32	3.71
288.15	0.1	0.15469	1508.52	3.72
298.15	0.1	0.04836	1516.8	3.73
298.15	0.1	0.07442	1519.56	3.73
298.15	0.1	0.09088	1521.31	3.73
298.15	0.1	0.10746	1523.09	3.74
298.15	0.1	0.13488	1526.03	3.74
298.15	0.1	0.15469	1528.17	3.74
308.15	0.1	0.04836	1538.16	3.76
308.15	0.1	0.07442	1540.68	3.76
308.15	0.1	0.09088	1542.29	3.76
308.15	0.1	0.10746	1543.9	3.76
308.15	0.1	0.13488	1546.59	3.77
308.15	0.1	0.15469	1548.55	3.77
318.15	0.1	0.04836	1553.67	3.78
318.15	0.1	0.07442	1556.05	3.78
318.15	0.1	0.09088	1557.56	3.78
318.15	0.1	0.10746	1559.09	3.78
318.15	0.1	0.13488	1561.62	3.79
318.15	0.1	0.15469	1563.46	3.79
288.15	0.15	0.04096	1507.35	3.72
288.15	0.15	0.07588	1511.29	3.72
288.15	0.15	0.09222	1513.14	3.72
288.15	0.15	0.10025	1514.06	3.72
288.15	0.15	0.11246	1515.44	3.73
288.15	0.15	0.1556	1520.39	3.73
298.15	0.15	0.04096	1522.6	3.74
298.15	0.15	0.07588	1526.4	3.74
298.15	0.15	0.09222	1528.19	3.74
298.15	0.15	0.10025	1529.07	3.74
298.15	0.15	0.11246	1530.41	3.75
298.15	0.15	0.1556	1535.17	3.75
308.15	0.15	0.04096	1542.46	3.76
308.15	0.15	0.07588	1545.95	3.77
308.15	0.15	0.09222	1547.59	3.77
308.15	0.15	0.10025	1548.4	3.77
308.15	0.15	0.11246	1549.64	3.77
308.15	0.15	0.1556	1554.03	3.78
318.15	0.15	0.04096	1556.31	3.78
318.15	0.15	0.07588	1559.64	3.78
318.15	0.15	0.09222	1561.21	3.79
318.15	0.15	0.10025	1561.98	3.79
318.15	0.15	0.11246	1563.15	3.79
318.15	0.15	0.1556	1567.31	3.79
288.15	0.2	0.05739	1518.95	3.73
288.15	0.2	0.07539	1521.05	3.73
288.15	0.2	0.0892	1522.67	3.74
288.15	0.2	0.1039	1524.39	3.74
288.15	0.2	0.12952	1527.41	3.74
288.15	0.2	0.14819	1529.61	3.74
298.15	0.2	0.05739	1532.65	3.75
298.15	0.2	0.07539	1534.69	3.75
298.15	0.2	0.0892	1536.26	3.75
298.15	0.2	0.1039	1537.93	3.76
298.15	0.2	0.12952	1540.87	3.76
298.15	0.2	0.14819	1543.01	3.76
308.15	0.2	0.05739	1550.84	3.77
308.15	0.2	0.07539	1552.7	3.77
308.15	0.2	0.0892	1554.13	3.78
308.15	0.2	0.1039	1555.65	3.78
308.15	0.2	0.12952	1558.32	3.78
308.15	0.2	0.14819	1560.28	3.78
318.15	0.2	0.05739	1564.94	3.79
318.15	0.2	0.07539	1566.72	3.79
318.15	0.2	0.0892	1568.1	3.79
318.15	0.2	0.1039	1569.57	3.8
318.15	0.2	0.12952	1572.15	3.8
318.15	0.2	0.14819	1574.03	3.8

System: D-cellobiose + water; phases: Liquid
Fixed: Pressure, kPa = 101
Property: Mass density, kg/m3 (Liquid); method: Vibrating tube method
Temperature, K	Molality, mol/kg of D-cellobiose	Mass density, kg/m3	uncertainty
288.15	0.04565	1005.093	0.246
288.15	0.07217	1008.495	0.249
288.15	0.08095	1009.611	0.25
288.15	0.10052	1012.083	0.252
288.15	0.11911	1014.407	0.254
288.15	0.14	1016.995	0.256
298.15	0.04565	1002.978	0.245
298.15	0.07217	1006.365	0.247
298.15	0.08095	1007.477	0.248
298.15	0.10052	1009.94	0.25
298.15	0.11911	1012.259	0.252
298.15	0.14	1014.841	0.254
308.15	0.04565	999.945	0.242
308.15	0.07217	1003.299	0.245
308.15	0.08095	1004.399	0.246
308.15	0.10052	1006.834	0.248
308.15	0.11911	1009.13	0.25
308.15	0.14	1011.68	0.252
318.15	0.04565	996.094	0.242
318.15	0.07217	999.428	0.242
318.15	0.08095	1000.522	0.243
318.15	0.10052	1002.942	0.245
318.15	0.11911	1005.221	0.246
318.15	0.14	1007.752	0.249

System: D-cellobiose + water; phases: Liquid
Fixed: Pressure, kPa = 101
Fixed: Frequency, MHz = 3
Property: Speed of sound, m/s (Liquid); method: LVPAI:UFactor:3
Temperature, K	Molality, mol/kg of D-cellobiose	Speed of sound, m/s	uncertainty
318.15	0.04565	1540.19	4.85
288.15	0.04565	1470.63	4.69
298.15	0.04565	1500.93	4.76
308.15	0.04565	1525.1	4.82
298.15	0.07217	1503.68	4.77
318.15	0.07217	1542.63	4.86
288.15	0.07217	1473.62	4.7
308.15	0.07217	1527.68	4.82
298.15	0.08095	1504.59	4.77
318.15	0.08095	1543.44	4.86
288.15	0.08095	1474.62	4.7
308.15	0.08095	1528.54	4.83
288.15	0.10052	1476.85	4.71
298.15	0.10052	1506.63	4.78
318.15	0.10052	1545.26	4.86
308.15	0.10052	1530.47	4.83
298.15	0.11911	1508.59	4.78
288.15	0.11911	1478.98	4.71
318.15	0.11911	1547	4.87
308.15	0.11911	1532.31	4.83
318.15	0.14	1548.98	4.87
288.15	0.14	1481.4	4.72
298.15	0.14	1510.8	4.79
308.15	0.14	1534.38	4.84

System: water + N,N-dimethylbenzylammonium acetate; phases: Liquid
Fixed: Pressure, kPa = 101
Property: Mass density, kg/m3 (Liquid); method: Vibrating tube method
Temperature, K	Molality, mol/kg of N,N-dimethylbenzylammonium acetate	Mass density, kg/m3	uncertainty
288.15	0.05	1000.061	0.242
298.15	0.05	997.958	0.242
308.15	0.05	995.017	0.242
318.15	0.05	991.082	0.242
288.15	0.1	1001.058	0.243
298.15	0.1	999.043	0.242
308.15	0.1	995.871	0.242
318.15	0.1	991.952	0.242
288.15	0.15	1001.82	0.244
298.15	0.15	999.682	0.242
308.15	0.15	996.548	0.242
318.15	0.15	992.662	0.242
288.15	0.2	1002.847	0.244
298.15	0.2	1000.712	0.243
308.15	0.2	997.483	0.242
318.15	0.2	993.451	0.242

System: water + N,N-dimethylbenzylammonium acetate; phases: Liquid
Fixed: Pressure, kPa = 101
Fixed: Frequency, MHz = 3
Property: Speed of sound, m/s (Liquid); method: LVPAI:UFactor:3
Temperature, K	Molality, mol/kg of N,N-dimethylbenzylammonium acetate	Speed of sound, m/s	uncertainty
288.15	0.05	1482.78	4.72
298.15	0.05	1504.54	4.77
308.15	0.05	1526.68	4.82
318.15	0.05	1542.62	4.86
288.15	0.1	1491.25	4.74
298.15	0.1	1512.04	4.79
308.15	0.1	1533.24	4.84
318.15	0.1	1548.36	4.87
288.15	0.15	1502.34	4.77
298.15	0.15	1517.72	4.8
308.15	0.15	1538.21	4.85
318.15	0.15	1552.71	4.88
288.15	0.2	1512.87	4.79
298.15	0.2	1526.72	4.82
308.15	0.2	1545.21	4.86
318.15	0.2	1558.83	4.89

System: D-(+)-maltose monohydrate + water; phases: Liquid
Fixed: Pressure, kPa = 101
Property: Mass density, kg/m3 (Liquid); method: Vibrating tube method
Temperature, K	Molality, mol/kg of D-(+)-maltose monohydrate	Mass density, kg/m3	uncertainty
288.15	0.04928	1005.643	0.877
288.15	0.08226	1009.916	0.886
288.15	0.08926	1010.813	0.888
288.15	0.10447	1012.754	0.892
288.15	0.11714	1014.36	0.895
288.15	0.16144	1019.898	0.907
298.15	0.04928	1003.496	0.872
298.15	0.08226	1007.726	0.881
298.15	0.08926	1008.615	0.883
298.15	0.10447	1010.536	0.887
298.15	0.11714	1012.126	0.89
298.15	0.16144	1017.611	0.902
308.15	0.04928	1000.452	0.866
308.15	0.08226	1004.642	0.875
308.15	0.08926	1005.521	0.877
308.15	0.10447	1007.425	0.881
308.15	0.11714	1009.001	0.884
308.15	0.16144	1014.431	0.895
318.15	0.04928	996.572	0.861
318.15	0.08226	1000.721	0.867
318.15	0.08926	1001.593	0.869
318.15	0.10447	1003.476	0.872
318.15	0.11714	1005.036	0.876
318.15	0.16144	1010.411	0.887

System: D-(+)-maltose monohydrate + water; phases: Liquid
Fixed: Pressure, kPa = 101
Fixed: Frequency, MHz = 3
Property: Speed of sound, m/s (Liquid); method: LVPAI:UFactor:2
Temperature, K	Molality, mol/kg of D-(+)-maltose monohydrate	Speed of sound, m/s	uncertainty
288.15	0.04928	1471.11	3.67
288.15	0.08226	1474.88	3.67
288.15	0.08926	1475.68	3.68
288.15	0.10447	1477.43	3.68
288.15	0.11714	1478.89	3.68
288.15	0.16144	1484.05	3.69
298.15	0.04928	1501.82	3.71
298.15	0.08226	1505.59	3.71
298.15	0.08926	1506.39	3.71
298.15	0.10447	1508.14	3.72
298.15	0.11714	1509.61	3.72
298.15	0.16144	1514.75	3.73
308.15	0.04928	1525.97	3.74
308.15	0.08226	1529.53	3.74
308.15	0.08926	1530.28	3.75
308.15	0.10447	1531.93	3.75
308.15	0.11714	1533.3	3.75
308.15	0.16144	1538.15	3.76
318.15	0.04928	1541.19	3.76
318.15	0.08226	1544.66	3.76
318.15	0.08926	1545.4	3.77
318.15	0.10447	1547.01	3.77
318.15	0.11714	1548.35	3.77
318.15	0.16144	1553.09	3.78
