Measured thermophysical data. High-Pressure Solubility of Carbon Dioxide (CO2) in Aqueous 1-Methyl Piperazine Solution
Source: J. Chem. Eng. Data, 2014, 10.1021/je500526m
Compound 1: N-methylpiperazine, C5H12N2, InChI=1S/C5H12N2/c1-7-4-2-6-3-5-7/h6H,2-5H2,1H3, purity 99%
Compound 2: carbon dioxide, CO2, InChI=1S/CO2/c2-1-3, purity 99.99%
Compound 3: water, H2O, InChI=1S/H2O/h1H2, purity 99.8%

System: N-methylpiperazine + carbon dioxide + water; phases: Liquid, Gas
Property: Molality, mol/kg of carbon dioxide (Liquid); method: change in mass
Temperature, K	Molality, mol/kg of N-methylpiperazine	Pressure, kPa	Molality, mol/kg of carbon dioxide	uncertainty
313	1.76	6805	1.38	0.06
313	1.76	6403	1.36	0.05
313	1.76	5525	1.35	0.05
313	1.76	4883	1.31	0.05
313	1.76	4067	1.29	0.05
313	1.76	3486	1.18	0.05
313	1.76	2900	1.15	0.05
313	1.76	2236	1.12	0.05
313	1.76	1642	1.03	0.04
313	1.76	1163	1.01	0.04
313	1.76	753	1.01	0.04
313	1.76	443	0.91	0.04
313	1.76	271	0.86	0.03
313	4.28	7154	5.73	0.23
313	4.28	6491	5.51	0.22
313	4.28	6019	5.61	0.22
313	4.28	5725	5.5	0.22
313	4.28	5540	5.47	0.22
313	4.28	4648	5.27	0.21
313	4.28	4365	5.14	0.21
313	4.28	3558	5.22	0.21
313	4.28	3036	5.04	0.2
313	4.28	2702	4.77	0.19
313	4.28	2132	4.79	0.19
313	4.28	1579	4.74	0.19
313	4.28	1158	4.65	0.19
313	4.28	805	4.49	0.18
313	4.28	580	4.44	0.18
353	1.76	7815	1.32	0.05
353	1.76	6935	1.26	0.05
353	1.76	6773	1.26	0.05
353	1.76	5967	1.26	0.05
353	1.76	5628	1.25	0.05
353	1.76	5483	1.24	0.05
353	1.76	4908	1.2	0.05
353	1.76	4648	1.17	0.05
353	1.76	4145	1.13	0.05
353	1.76	3669	1.08	0.04
353	1.76	3173	1.01	0.04
353	1.76	2635	0.96	0.04
353	1.76	2149	0.95	0.04
353	1.76	1631	0.84	0.03
353	1.76	1132	0.83	0.03
353	1.76	726	0.8	0.03
353	1.76	406	0.72	0.03
353	1.76	253	0.68	0.03
353	4.28	7817	4.79	0.19
353	4.28	5526	4.79	0.19
353	4.28	5048	4.79	0.19
353	4.28	4320	4.69	0.19
353	4.28	3775	4.55	0.18
353	4.28	3497	4.28	0.17
353	4.28	2728	4.29	0.17
353	4.28	2477	4	0.16
353	4.28	2323	3.91	0.16
353	4.28	1920	3.85	0.15
353	4.28	1468	3.75	0.15
353	4.28	909	3.71	0.15
353	4.28	615	3.7	0.15
353	4.28	425	3.63	0.15
353	4.28	215	3.49	0.14
