Measured thermophysical data. Experimental VLE data of Methyl Acetate or Ethyl Acetate with 2-Butanol at 0.3 and 0.6 MPa. Quality assessment and predictions.
Source: J. Chem. Eng. Data, 2014, 10.1021/je5003225
Compound 1: methyl ethanoate, C3H6O2, InChI=1S/C3H6O2/c1-3(4)5-2/h1-2H3, purity 99%
Compound 2: ethyl acetate, C4H8O2, InChI=1S/C4H8O2/c1-3-6-4(2)5/h3H2,1-2H3, purity 99.9%
Compound 3: butan-2-ol, C4H10O, InChI=1S/C4H10O/c1-3-4(2)5/h4-5H,3H2,1-2H3, purity 99.5%

System: butan-2-ol; phases: Liquid, Gas
Property: Normal boiling temperature, K (Liquid); method: Ebulliometric method (Recirculating still)
Normal boiling temperature, K	uncertainty
372.76	0.3

System: butan-2-ol; phases: Liquid
Property: Refractive index (Na D-line) (Liquid); method: Standard Abbe refractometry
Temperature, K	Pressure, kPa	Refractive index (Na D-line)	uncertainty
298.15	101.325	1.3949	0.0005

System: butan-2-ol + methyl ethanoate; phases: Liquid
Fixed: Pressure, kPa = 101
Fixed: Temperature, K = 298.15
Property: Mass density, kg/m3 (Liquid); method: Vibrating tube method
Mole fraction of methyl ethanoate	Mass density, kg/m3	uncertainty
0	802.5	0.2
0.058	807.2	0.2
0.1719	817.3	0.3
0.2756	827.5	0.3
0.3391	834.2	0.3
0.4544	847.3	0.3
0.4714	849.3	0.3
0.5051	853.4	0.3
0.5458	858.5	0.3
0.593	864.5	0.3
0.6822	876.6	0.3
0.799	893.7	0.3
0.8576	902.9	0.3
0.8788	906.3	0.3
0.9586	919.9	0.3
1	927.3	0.3

System: butan-2-ol + methyl ethanoate; phases: Liquid, Gas
Property: Boiling temperature at pressure P, K (Liquid); method: Ebulliometric method (Recirculating still)
Mole fraction of methyl ethanoate	Pressure, kPa	Boiling temperature at pressure P, K	uncertainty
0	300	405.81	0.98
0.005	300	405.49	1.03
0.022	300	404.12	1.09
0.061	300	400.37	1.11
0.1	300	397.22	1.11
0.121	300	395.28	1.15
0.146	300	393.43	1.12
0.227	300	388.94	1.13
0.289	300	386.31	1.13
0.326	300	384.92	1.13
0.358	300	383.72	1.12
0.396	300	382.48	1.12
0.441	300	380.95	1.12
0.467	300	379.81	1.13
0.494	300	379.02	1.12
0.544	300	377.93	1.1
0.575	300	376.85	1.1
0.606	300	376.14	1.09
0.623	300	375.53	1.09
0.645	300	374.91	1.09
0.678	300	374.05	1.08
0.709	300	373.4	1.08
0.782	300	371.33	1.07
0.81	300	370.79	1.08
0.849	300	369.74	1.06
0.884	300	368.78	1.06
0.909	300	367.91	1.06
0.947	300	367.01	1.05
0.977	300	366.43	1.04
0.989	300	366.19	1.05
1	300	365.55	1.04
0	600	431.73	1
0.038	600	429.62	1.04
0.063	600	428.08	1.1
0.148	600	422.35	1.16
0.181	600	420.53	1.13
0.225	600	418.52	1.15
0.269	600	416.51	1.15
0.297	600	415.44	1.14
0.365	600	412.92	1.15
0.41	600	411.28	1.14
0.429	600	410.61	1.14
0.456	600	409.73	1.15
0.484	600	408.68	1.14
0.512	600	407.71	1.14
0.538	600	406.8	1.11
0.562	600	406.03	1.12
0.592	600	405.19	1.11
0.61	600	404.54	1.11
0.631	600	403.82	1.11
0.657	600	403.11	1.11
0.678	600	402.47	1.1
0.716	600	401.42	1.1
0.74	600	400.86	1.1
0.786	600	399.48	1.1
0.856	600	397.34	1.08
0.88	600	396.61	1.08
0.922	600	395.43	1.08
0.964	600	394.16	1.06
0.979	600	393.7	1.06
1	600	393.01	1.06

System: butan-2-ol + methyl ethanoate; phases: Gas, Liquid
Property: Mole fraction of methyl ethanoate (Gas); method: Density calibration data
Mole fraction of methyl ethanoate	Pressure, kPa	Mole fraction of methyl ethanoate	uncertainty
0	300	0	
0.005	300	0.018	0.014
0.022	300	0.074	0.014
0.061	300	0.206	0.013
0.1	300	0.303	0.011
0.121	300	0.363	0.011
0.146	300	0.417	0.008
0.227	300	0.539	0.008
0.289	300	0.605	0.007
0.326	300	0.638	0.006
0.358	300	0.666	0.006
0.396	300	0.692	0.006
0.441	300	0.725	0.006
0.467	300	0.748	0.006
0.494	300	0.764	0.005
0.544	300	0.785	0.005
0.575	300	0.806	0.005
0.606	300	0.818	0.005
0.623	300	0.831	0.005
0.645	300	0.843	0.005
0.678	300	0.858	0.005
0.709	300	0.87	0.005
0.782	300	0.907	0.005
0.81	300	0.916	0.004
0.849	300	0.933	0.004
0.884	300	0.947	0.005
0.909	300	0.964	0.005
0.947	300	0.979	0.004
0.977	300	0.989	0.004
0.989	300	0.994	0.004
1	300	1	
0	600	0	
0.038	600	0.092	0.01
0.063	600	0.148	0.01
0.148	600	0.332	0.01
0.181	600	0.384	0.008
0.225	600	0.443	0.007
0.269	600	0.499	0.007
0.297	600	0.528	0.007
0.365	600	0.593	0.006
0.41	600	0.633	0.006
0.429	600	0.65	0.006
0.456	600	0.671	0.006
0.484	600	0.696	0.006
0.512	600	0.718	0.006
0.538	600	0.738	0.006
0.562	600	0.756	0.005
0.592	600	0.774	0.005
0.61	600	0.788	0.006
0.631	600	0.803	0.005
0.657	600	0.818	0.005
0.678	600	0.831	0.005
0.716	600	0.852	0.005
0.74	600	0.863	0.005
0.786	600	0.889	0.005
0.856	600	0.927	0.005
0.88	600	0.942	0.005
0.922	600	0.962	0.004
0.964	600	0.981	0.004
0.979	600	0.988	0.005
1	600	1	

System: butan-2-ol + ethyl acetate; phases: Liquid
Fixed: Pressure, kPa = 101
Fixed: Temperature, K = 298.15
Property: Mass density, kg/m3 (Liquid); method: Vibrating tube method
Mole fraction of ethyl acetate	Mass density, kg/m3	uncertainty
0	802.5	0.2
0.0415	805.6	0.2
0.0917	809.5	0.2
0.1482	813.9	0.2
0.208	818.7	0.2
0.257	822.8	0.2
0.2963	826.2	0.2
0.3488	830.7	0.2
0.3914	834.5	0.2
0.4397	838.9	0.2
0.4905	843.5	0.2
0.5313	847.3	0.2
0.6	853.8	0.2
0.6539	859	0.2
0.7031	863.8	0.2
0.741	867.5	0.2
0.7953	873	0.2
0.8528	878.9	0.2
0.8891	882.6	0.2
0.9484	889	0.2
1	894.5	0.2

System: butan-2-ol + ethyl acetate; phases: Liquid, Gas
Property: Boiling temperature at pressure P, K (Liquid); method: Ebulliometric method (Recirculating still)
Mole fraction of ethyl acetate	Pressure, kPa	Boiling temperature at pressure P, K	uncertainty
0	300	405.81	0.98
0.017	300	405.19	1
0.028	300	404.57	1
0.052	300	403.56	1.04
0.097	300	402.01	1.06
0.121	300	401.18	1.08
0.144	300	400.47	1.07
0.181	300	399.63	1.09
0.223	300	398.65	1.09
0.243	300	398.17	1.09
0.306	300	396.93	1.1
0.323	300	396.6	1.1
0.352	300	396.06	1.1
0.393	300	395.4	1.1
0.457	300	394.32	1.1
0.505	300	393.6	1.1
0.545	300	393.13	1.1
0.634	300	392.05	1.1
0.688	300	391.37	1.11
0.718	300	391.04	1.1
0.736	300	390.97	1.1
0.764	300	390.63	1.1
0.803	300	390.16	1.1
0.833	300	389.81	1.11
0.859	300	389.51	1.11
0.892	300	389.1	1.1
0.921	300	388.91	1.1
0.969	300	388.31	1.11
1	300	387.85	1.11
0	600	431.73	1
0.062	600	430.48	1.05
0.094	600	429.78	1.07
0.129	600	429.06	1.08
0.186	600	428	1.1
0.198	600	427.75	1.1
0.21	600	427.48	1.1
0.257	600	426.68	1.11
0.266	600	426.46	1.11
0.319	600	425.54	1.11
0.397	600	424.22	1.12
0.449	600	423.47	1.12
0.495	600	422.82	1.12
0.52	600	422.53	1.12
0.559	600	421.99	1.12
0.572	600	421.84	1.12
0.613	600	421.35	1.12
0.631	600	421.14	1.12
0.667	600	420.72	1.12
0.699	600	420.35	1.12
0.732	600	419.96	1.12
0.765	600	419.69	1.12
0.798	600	419.25	1.12
0.833	600	418.93	1.12
0.863	600	418.6	1.12
0.894	600	418.22	1.12
0.962	600	417.48	1.12
0.98	600	417.29	1.12
1	600	417.02	1.12

System: butan-2-ol + ethyl acetate; phases: Gas, Liquid
Property: Mole fraction of ethyl acetate (Gas); method: Density calibration data
Mole fraction of ethyl acetate	Pressure, kPa	Mole fraction of ethyl acetate	uncertainty
0	300	0	
0.017	300	0.039	0.01
0.028	300	0.067	0.009
0.052	300	0.115	0.008
0.097	300	0.186	0.008
0.121	300	0.23	0.008
0.144	300	0.263	0.007
0.181	300	0.308	0.006
0.223	300	0.353	0.006
0.243	300	0.376	0.006
0.306	300	0.442	0.006
0.323	300	0.46	0.006
0.352	300	0.489	0.006
0.393	300	0.528	0.006
0.457	300	0.586	0.006
0.505	300	0.629	0.005
0.545	300	0.657	0.005
0.634	300	0.725	0.005
0.688	300	0.771	0.005
0.718	300	0.793	0.005
0.736	300	0.802	0.005
0.764	300	0.822	0.005
0.803	300	0.85	0.005
0.833	300	0.872	0.005
0.859	300	0.891	0.005
0.892	300	0.915	0.005
0.921	300	0.933	0.005
0.969	300	0.974	0.005
1	300	1	
0	600	0	
0.062	600	0.097	0.007
0.094	600	0.143	0.007
0.129	600	0.187	0.006
0.186	600	0.252	0.006
0.198	600	0.266	0.006
0.21	600	0.28	0.006
0.257	600	0.336	0.007
0.266	600	0.347	0.007
0.319	600	0.406	0.006
0.397	600	0.487	0.006
0.449	600	0.538	0.006
0.495	600	0.582	0.006
0.52	600	0.604	0.006
0.559	600	0.639	0.006
0.572	600	0.651	0.005
0.613	600	0.685	0.005
0.631	600	0.7	0.005
0.667	600	0.728	0.005
0.699	600	0.753	0.005
0.732	600	0.78	0.005
0.765	600	0.806	0.005
0.798	600	0.834	0.005
0.833	600	0.862	0.005
0.863	600	0.886	0.005
0.894	600	0.914	0.005
0.962	600	0.97	0.005
0.98	600	0.982	0.005
1	600	1	
