Measured thermophysical data. Liquid Liquid Equilibria of Three Ternary Systems: {Glycerol + Benzene + Methanol}, {Glycerol + Benzene + Ethanol}, and {Glycerol + Benzene + 1-Propanol}
Source: J. Chem. Eng. Data, 2015, 10.1021/je500939v
Compound 1: glycerol, C3H8O3, InChI=1S/C3H8O3/c4-1-3(6)2-5/h3-6H,1-2H2, purity 99.5%
Compound 2: benzene, C6H6, InChI=1S/C6H6/c1-2-4-6-5-3-1/h1-6H, purity 99.5%
Compound 3: methanol, CH4O, InChI=1S/CH4O/c1-2/h2H,1H3, purity 99.5%
Compound 4: ethanol, C2H6O, InChI=1S/C2H6O/c1-2-3/h3H,2H2,1H3, purity 99.5%
Compound 5: propan-1-ol, C3H8O, InChI=1S/C3H8O/c1-2-3-4/h4H,2-3H2,1H3, purity 99.5%

System: glycerol + methanol + benzene; phases: Liquid mixture 2, Liquid mixture 1
Fixed: Pressure, kPa = 101
Property: Mole fraction of benzene (Liquid mixture 2); method: Chromatography
Property: Mole fraction of glycerol (Liquid mixture 1); method: Chromatography
Property: Mole fraction of benzene (Liquid mixture 1); method: Chromatography
Temperature, K	Mole fraction of glycerol	Mole fraction of benzene	uncertainty	Mole fraction of glycerol	uncertainty	Mole fraction of benzene	uncertainty
288.15	0.9914	0.0086	0.004	0		1	
308.15	0.4408	0.0511	0.0041	0		0.9	
308.15	0.3707	0.0717	0.0042	0.0032	0.0032	0.8494	
298.15	0.5612	0.0313	0.004	0		0.95	
308.15	0.2994	0.0983	0.0043	0.0073	0.004	0.7931	
288.15	0.7558	0.0161	0.0041	0		0.981	
288.15	0.6509	0.0217	0.004	0		0.972	
288.15	0.21	0.137	0.005	0.0046	0.004	0.7766	
288.15	0.5675	0.0292	0.004	0		0.957	
288.15	0.4722	0.0386	0.004	0		0.94	
288.15	0.429	0.0488	0.0041	0		0.923	
308.15	0.929	0.0124	0.004	0		0.995	
288.15	0.3435	0.0686	0.0042	0.001	0.001	0.8836	
288.15	0.175	0.17	0.006	0.0082	0.004	0.7153	
298.15	0.9914	0.0086	0.004	0		1	
298.15	0.5046	0.0387	0.0041	0		0.93	
298.15	0.9312	0.0126	0.004	0		0.995	
298.15	0.8045	0.0152	0.004	0		0.984	
298.15	0.7422	0.0174	0.004	0		0.979	
298.15	0.6545	0.0228	0.004	0		0.967	
288.15	0.9278	0.015	0.004	0		0.996	
298.15	0.4305	0.0501	0.0041	0		0.91	
308.15	0.8045	0.0155	0.004	0		0.982	
298.15	0.3587	0.0695	0.0042	0.0026	0.0026	0.8639	
298.15	0.2895	0.0935	0.0045	0.0048	0.004	0.8149	
298.15	0.212	0.137	0.005	0.0079	0.004	0.7501	
308.15	0.9907	0.0093	0.004	0		1	
288.15	0.2771	0.0919	0.0045	0.0029	0.0029	0.8384	
308.15	0.743	0.0188	0.004	0		0.976	
308.15	0.6681	0.0227	0.004	0		0.962	
308.15	0.5631	0.0326	0.004	0		0.941	
288.15	0.7693	0.0184	0.0041	0		0.985	
308.15	0.5114	0.0398	0.0041	0		0.92	

System: glycerol + ethanol + benzene; phases: Liquid mixture 1, Liquid mixture 2
Fixed: Pressure, kPa = 101
Property: Mole fraction of glycerol (Liquid mixture 1); method: Chromatography
Property: Mole fraction of benzene (Liquid mixture 2); method: Chromatography
Property: Mole fraction of glycerol (Liquid mixture 2); method: Chromatography
Temperature, K	Mole fraction of benzene	Mole fraction of glycerol	uncertainty	Mole fraction of benzene	uncertainty	Mole fraction of glycerol	uncertainty
288.15	1	0		0.0086	0.004	0.9914	
288.15	0.8838	0.0016	0.0016	0.0333	0.0041	0.7044	
288.15	0.8478	0.0032	0.0032	0.039	0.0041	0.6713	
308.15	1	0		0.0093	0.004	0.9907	
288.15	0.7886	0.0082	0.004	0.0515	0.0041	0.6158	
288.15	0.7475	0.0154	0.004	0.0578	0.0042	0.5956	
288.15	0.7031	0.0163	0.0041	0.0728	0.0042	0.5423	
298.15	0.7801	0.0092	0.004	0.0513	0.0041	0.6205	
288.15	0.5326	0.0682	0.0044	0.123	0.005	0.437	
298.15	1	0		0.0086	0.004	0.9914	
298.15	0.975	0		0.0163	0.004	0.8791	
308.15	0.7704	0.0135	0.004	0.0534	0.0041	0.6258	
298.15	0.95	0		0.0195	0.004	0.823	
298.15	0.92	0		0.0232	0.004	0.7725	
298.15	0.8756	0.0019	0.0019	0.0324	0.0041	0.7164	
308.15	0.971	0		0.0153	0.004	0.8857	
288.15	0.978	0		0.0138	0.004	0.8864	
298.15	0.7377	0.0174	0.004	0.0626	0.0042	0.5832	
298.15	0.6939	0.0193	0.0041	0.0711	0.0043	0.5633	
298.15	0.6467	0.0349	0.0041	0.0857	0.0043	0.5195	
298.15	0.5718	0.0499	0.0042	0.112	0.005	0.458	
298.15	0.5256	0.0671	0.0043	0.131	0.005	0.429	
308.15	0.7312	0.0149	0.004	0.0641	0.0042	0.5851	
288.15	0.6549	0.0324	0.0041	0.0815	0.0044	0.5247	
308.15	0.945	0		0.0194	0.004	0.8292	
308.15	0.913	0		0.0238	0.004	0.7815	
308.15	0.869	0.0024	0.0024	0.0337	0.0041	0.7168	
288.15	0.956	0		0.0218	0.004	0.806	
308.15	0.8273	0.0071	0.004	0.0416	0.0041	0.6746	
298.15	0.8392	0.0034	0.0034	0.0387	0.0041	0.6789	
308.15	0.6806	0.0249	0.0041	0.0772	0.0043	0.5484	
308.15	0.6409	0.0321	0.0043	0.0906	0.0044	0.512	
308.15	0.5553	0.0695	0.0044	0.117	0.005	0.459	
288.15	0.587	0.0432	0.0042	0.107	0.005	0.462	
288.15	0.927	0		0.0247	0.004	0.7639	

System: glycerol + propan-1-ol + benzene; phases: Liquid mixture 2, Liquid mixture 1
Fixed: Pressure, kPa = 101
Property: Mole fraction of benzene (Liquid mixture 2); method: Chromatography
Property: Mole fraction of glycerol (Liquid mixture 1); method: Chromatography
Property: Mole fraction of benzene (Liquid mixture 1); method: Chromatography
Temperature, K	Mole fraction of glycerol	Mole fraction of benzene	uncertainty	Mole fraction of glycerol	uncertainty	Mole fraction of benzene	uncertainty
288.15	0.9914	0.0086	0.004	0		1	
308.15	0.8346	0.0239	0.004	0.0152	0.0041	0.7481	
308.15	0.8236	0.0258	0.0041	0.0295	0.0041	0.6889	
298.15	0.8573	0.0219	0.004	0		0.841	
308.15	0.799	0.0299	0.0041	0.035	0.0042	0.6288	
308.15	0.7904	0.0317	0.0041	0.061	0.0041	0.5735	
308.15	0.7603	0.0377	0.0041	0.0571	0.0042	0.5324	
288.15	0.7524	0.0377	0.0041	0.098	0.0043	0.4433	
308.15	0.7478	0.0412	0.0041	0.0915	0.0046	0.4769	
308.15	0.7256	0.0463	0.0041	0.104	0.005	0.442	
308.15	0.6982	0.053	0.0042	0.139	0.005	0.401	
298.15	0.7197	0.0459	0.0041	0.131	0.004	0.403	
308.15	0.6764	0.0617	0.0043	0.163	0.005	0.361	
288.15	0.8673	0.0195	0.0041	0		0.841	
288.15	0.8316	0.0258	0.004	0.016	0.0041	0.7455	
298.15	0.8393	0.0218	0.004	0.0134	0.0041	0.7471	
288.15	0.8215	0.0252	0.004	0.025	0.0041	0.6883	
288.15	0.807	0.0267	0.0041	0.0499	0.0041	0.5746	
288.15	0.8047	0.0266	0.0041	0.039	0.0041	0.6194	
288.15	0.7868	0.0306	0.0041	0.062	0.0042	0.525	
288.15	0.7383	0.0411	0.0042	0.103	0.004	0.417	
288.15	0.721	0.0471	0.0042	0.123	0.005	0.379	
298.15	0.6992	0.0518	0.0042	0.135	0.004	0.382	
288.15	0.7058	0.0506	0.0041	0.168	0.005	0.325	
298.15	0.9914	0.0086	0.004	0		1	
298.15	0.9314	0.013	0.004	0		0.962	
298.15	0.8815	0.0199	0.004	0		0.903	
288.15	0.9276	0.0153	0.004	0		0.965	
298.15	0.8267	0.0249	0.0041	0.0275	0.0041	0.6897	
298.15	0.8025	0.0282	0.004	0.0371	0.0041	0.6237	
298.15	0.7905	0.03	0.0041	0.0531	0.0042	0.5787	
298.15	0.7759	0.033	0.0041	0.0672	0.0044	0.5262	
298.15	0.7449	0.0402	0.0041	0.115	0.005	0.433	
288.15	0.7716	0.0333	0.0041	0.0786	0.0044	0.489	
308.15	0.9907	0.0093	0.004	0		1	
308.15	0.9351	0.0137	0.004	0		0.959	
308.15	0.8911	0.0173	0.004	0.001	0.001	0.8956	
288.15	0.8865	0.0163	0.004	0		0.905	
308.15	0.8717	0.0191	0.004	0		0.84	
