Measured thermophysical data. Determination of the Relative Permittivity of Octane at Temperatures between (303 and 393) K and Pressures below 25 MPa with a Concentric Cylinder Capacitor at a Frequency of 1 kHz
Source: J. Chem. Eng. Data, 2014, 10.1021/je5000692
Compound 1: octane, C8H18, InChI=1S/C8H18/c1-3-5-7-8-6-4-2/h3-8H2,1-2H3, purity 99.5%

System: octane; phases: Liquid
Fixed: Frequency, MHz = 0.001
Property: Relative permittivity at various frequencies (Liquid); method: Coaxial cylinder capacitor
Temperature, K	Pressure, kPa	Relative permittivity at various frequencies	uncertainty
303.07	5010	1.94148	0.0007
303.07	10050	1.94875	0.0007
303.07	20060	1.96184	0.00072
303.07	25030	1.9682	0.00072
333.25	5040	1.90899	0.00072
333.25	6780	1.91211	0.00071
333.25	10020	1.91777	0.0007
333.25	20050	1.93287	0.0007
333.25	25050	1.93989	0.0007
373.16	5040	1.85755	0.00069
373.16	10030	1.8684	0.00069
373.16	20030	1.88737	0.00069
373.16	25060	1.89562	0.00071
398.17	5010	1.8243	0.00067
398.17	10010	1.8374	0.00067
398.17	20050	1.85955	0.00069
398.17	25040	1.87023	0.00069
