Measured thermophysical data. Volumetric and Viscometric Studies of Amino Acids in Vitamin B6 Aqueous Solutions at Various Temperatures
Source: J. Chem. Eng. Data, 2015, 10.1021/je500975a
Compound 1: 5-hydroxy-6-methyl-3,4-pyridinedimethanol hydrochloride, C8H12ClNO3, InChI=1S/C8H11NO3.ClH/c1-5-8(12)7(4-11)6(3-10)2-9-5;/h2,10-12H,3-4H2,1H3;1H, purity 99%
Compound 2: 2-aminoacetic acid, C2H5NO2, InChI=1S/C2H5NO2/c3-1-2(4)5/h1,3H2,(H,4,5), purity 99%
Compound 3: (S)-2-aminopropanoic acid, C3H7NO2, InChI=1S/C3H7NO2/c1-2(4)3(5)6/h2H,4H2,1H3,(H,5,6)/t2-/m0/s1, purity 99%
Compound 4: L-valine, C5H11NO2, InChI=1S/C5H11NO2/c1-3(2)4(6)5(7)8/h3-4H,6H2,1-2H3,(H,7,8)/t4-/m0/s1, purity 99%
Compound 5: L-threonine, C4H9NO3, InChI=1S/C4H9NO3/c1-2(6)3(5)4(7)8/h2-3,6H,5H2,1H3,(H,7,8)/t2-,3+/m1/s1, purity 99%
Compound 6: L-arginine, C6H14N4O2, InChI=1S/C6H14N4O2/c7-4(5(11)12)2-1-3-10-6(8)9/h4H,1-3,7H2,(H,11,12)(H4,8,9,10)/t4-/m0/s1, purity 99%
Compound 7: water, H2O, InChI=1S/H2O/h1H2, purity 99.9%

System: 2-aminoacetic acid + 5-hydroxy-6-methyl-3,4-pyridinedimethanol hydrochloride + water; phases: Liquid
Fixed: Pressure, kPa = 101
Property: Mass density, kg/m3 (Liquid); method: Vibrating tube method
Solvent: Molality, mol/kg of 5-hydroxy-6-methyl-3,4-pyridinedimethanol hydrochloride	Temperature, K	Molality, mol/kg of 2-aminoacetic acid	Mass density, kg/m3	uncertainty
0.1	293.15	0	1004.22	0.16
0.1	293.15	0.1009	1007.44	0.16
0.1	293.15	0.1999	1010.53	0.16
0.1	293.15	0.3001	1013.61	0.16
0.1	293.15	0.4003	1016.63	0.16
0.1	293.15	0.5002	1019.59	0.16
0.1	293.15	0.6	1022.5	0.16
0.1	293.15	0.7003	1025.37	0.16
0.1	303.15	0	1001.58	0.16
0.1	303.15	0.1009	1004.74	0.16
0.1	303.15	0.1999	1007.79	0.16
0.1	303.15	0.3001	1010.83	0.16
0.1	303.15	0.4003	1013.81	0.16
0.1	303.15	0.5002	1016.75	0.16
0.1	303.15	0.6	1019.62	0.16
0.1	303.15	0.7003	1022.46	0.16
0.1	313.15	0	998.07	0.15
0.1	313.15	0.1009	1001.18	0.16
0.1	313.15	0.1999	1004.18	0.16
0.1	313.15	0.3001	1007.18	0.16
0.1	313.15	0.4003	1010.13	0.16
0.1	313.15	0.5002	1013.03	0.16
0.1	313.15	0.6	1015.89	0.16
0.1	313.15	0.7003	1018.72	0.16
0.1	323.15	0	993.82	0.16
0.1	323.15	0.1009	996.89	0.16
0.1	323.15	0.1999	999.86	0.15
0.1	323.15	0.3001	1002.82	0.16
0.1	323.15	0.4003	1005.75	0.16
0.1	323.15	0.5002	1008.63	0.16
0.1	323.15	0.6	1011.47	0.16
0.1	323.15	0.7003	1014.29	0.16
0.2	293.15	0	1010.05	0.16
0.2	293.15	0.1002	1013.21	0.16
0.2	293.15	0.2001	1016.31	0.16
0.2	293.15	0.3003	1019.36	0.16
0.2	293.15	0.4	1022.35	0.16
0.2	293.15	0.4999	1025.28	0.16
0.2	293.15	0.6	1028.17	0.17
0.2	293.15	0.7003	1031.02	0.17
0.2	303.15	0	1007.29	0.16
0.2	303.15	0.1002	1010.4	0.16
0.2	303.15	0.2001	1013.45	0.16
0.2	303.15	0.3003	1016.47	0.16
0.2	303.15	0.4	1019.42	0.16
0.2	303.15	0.4999	1022.32	0.16
0.2	303.15	0.6	1025.19	0.16
0.2	303.15	0.7003	1028.03	0.17
0.2	313.15	0	1003.69	0.16
0.2	313.15	0.1002	1006.75	0.16
0.2	313.15	0.2001	1009.76	0.16
0.2	313.15	0.3003	1012.73	0.16
0.2	313.15	0.4	1015.65	0.16
0.2	313.15	0.4999	1018.53	0.16
0.2	313.15	0.6	1021.38	0.16
0.2	313.15	0.7003	1024.2	0.16
0.2	323.15	0	999.39	0.15
0.2	323.15	0.1002	1002.4	0.16
0.2	323.15	0.2001	1005.37	0.16
0.2	323.15	0.3003	1008.31	0.16
0.2	323.15	0.4	1011.2	0.16
0.2	323.15	0.4999	1014.05	0.16
0.2	323.15	0.6	1016.88	0.16
0.2	323.15	0.7003	1019.68	0.16
0.3	293.15	0	1015.52	0.16
0.3	293.15	0.0999	1018.64	0.16
0.3	293.15	0.2	1021.71	0.16
0.3	293.15	0.3	1024.73	0.16
0.3	293.15	0.4001	1027.71	0.17
0.3	293.15	0.5	1030.62	0.17
0.3	293.15	0.6003	1033.5	0.17
0.3	293.15	0.6999	1036.31	0.17
0.3	303.15	0	1012.81	0.16
0.3	303.15	0.0999	1015.88	0.16
0.3	303.15	0.2	1018.91	0.16
0.3	303.15	0.3	1021.88	0.16
0.3	303.15	0.4001	1024.8	0.16
0.3	303.15	0.5	1027.68	0.17
0.3	303.15	0.6003	1030.51	0.17
0.3	303.15	0.6999	1033.29	0.17
0.3	313.15	0	1009.18	0.16
0.3	313.15	0.0999	1012.19	0.16
0.3	313.15	0.2	1015.17	0.16
0.3	313.15	0.3	1018.09	0.16
0.3	313.15	0.4001	1020.97	0.16
0.3	313.15	0.5	1023.8	0.16
0.3	313.15	0.6003	1026.62	0.17
0.3	313.15	0.6999	1029.37	0.17
0.3	323.15	0	1004.86	0.16
0.3	323.15	0.0999	1007.82	0.16
0.3	323.15	0.2	1010.76	0.16
0.3	323.15	0.3	1013.65	0.16
0.3	323.15	0.4001	1016.49	0.16
0.3	323.15	0.5	1019.31	0.16
0.3	323.15	0.6003	1022.09	0.16
0.3	323.15	0.6999	1024.81	0.17
0.4	293.15	0	1021.12	0.16
0.4	293.15	0.1002	1024.22	0.16
0.4	293.15	0.2002	1027.25	0.17
0.4	293.15	0.3	1030.21	0.17
0.4	293.15	0.4	1033.12	0.17
0.4	293.15	0.5006	1036	0.17
0.4	293.15	0.6	1038.79	0.17
0.4	293.15	0.6998	1041.53	0.17
0.4	303.15	0	1018.2	0.16
0.4	303.15	0.1002	1021.24	0.16
0.4	303.15	0.2002	1024.23	0.16
0.4	303.15	0.3	1027.16	0.17
0.4	303.15	0.4	1030.05	0.17
0.4	303.15	0.5006	1032.9	0.17
0.4	303.15	0.6	1035.68	0.17
0.4	303.15	0.6998	1038.43	0.17
0.4	313.15	0	1014.48	0.16
0.4	313.15	0.1002	1017.47	0.16
0.4	313.15	0.2002	1020.41	0.16
0.4	313.15	0.3	1023.31	0.16
0.4	313.15	0.4	1026.18	0.17
0.4	313.15	0.5006	1029.02	0.17
0.4	313.15	0.6	1031.79	0.17
0.4	313.15	0.6998	1034.54	0.17
0.4	323.15	0	1010.06	0.16
0.4	323.15	0.1002	1013	0.16
0.4	323.15	0.2002	1015.91	0.16
0.4	323.15	0.3	1018.77	0.16
0.4	323.15	0.4	1021.6	0.16
0.4	323.15	0.5006	1024.43	0.16
0.4	323.15	0.6	1027.18	0.17
0.4	323.15	0.6998	1029.91	0.17

System: 2-aminoacetic acid + 5-hydroxy-6-methyl-3,4-pyridinedimethanol hydrochloride + water; phases: Liquid
Fixed: Pressure, kPa = 101
Property: Viscosity, Pa*s (Liquid); method: Capillary tube (Ostwald; Ubbelohde) method
Solvent: Molality, mol/kg of 5-hydroxy-6-methyl-3,4-pyridinedimethanol hydrochloride	Temperature, K	Molality, mol/kg of 2-aminoacetic acid	Viscosity, Pa*s	uncertainty
0.1	293.15	0	0.0010472	7.4e-06
0.1	293.15	0.1009	0.0010591	7.5e-06
0.1	293.15	0.1999	0.0010721	7.6e-06
0.1	293.15	0.3001	0.0010862	7.7e-06
0.1	293.15	0.4003	0.0011008	7.8e-06
0.1	293.15	0.5002	0.001116	7.9e-06
0.1	293.15	0.6	0.0011319	8e-06
0.1	293.15	0.7003	0.0011489	8.1e-06
0.1	303.15	0	0.0008322	6.1e-06
0.1	303.15	0.1009	0.0008425	6.1e-06
0.1	303.15	0.1999	0.0008533	6.2e-06
0.1	303.15	0.3001	0.0008651	6.3e-06
0.1	303.15	0.4003	0.0008769	6.3e-06
0.1	303.15	0.5002	0.0008891	6.4e-06
0.1	303.15	0.6	0.0009022	6.5e-06
0.1	303.15	0.7003	0.0009152	6.6e-06
0.1	313.15	0	0.0006798	5.1e-06
0.1	313.15	0.1009	0.0006892	5.1e-06
0.1	313.15	0.1999	0.0006982	5.2e-06
0.1	313.15	0.3001	0.0007078	5.3e-06
0.1	313.15	0.4003	0.0007181	5.3e-06
0.1	313.15	0.5002	0.0007281	5.4e-06
0.1	313.15	0.6	0.0007386	5.4e-06
0.1	313.15	0.7003	0.0007492	5.5e-06
0.1	323.15	0	0.0005676	4.3e-06
0.1	323.15	0.1009	0.0005757	4.4e-06
0.1	323.15	0.1999	0.0005838	4.5e-06
0.1	323.15	0.3001	0.0005923	4.5e-06
0.1	323.15	0.4003	0.000601	4.6e-06
0.1	323.15	0.5002	0.0006095	4.6e-06
0.1	323.15	0.6	0.0006183	4.7e-06
0.1	323.15	0.7003	0.0006272	4.7e-06
0.2	293.15	0	0.0010829	7.7e-06
0.2	293.15	0.1002	0.0010969	7.8e-06
0.2	293.15	0.2001	0.0011117	7.9e-06
0.2	293.15	0.3003	0.0011278	8e-06
0.2	293.15	0.4	0.0011438	8.1e-06
0.2	293.15	0.4999	0.0011607	8.2e-06
0.2	293.15	0.6	0.0011777	8.3e-06
0.2	293.15	0.7003	0.0011948	8.4e-06
0.2	303.15	0	0.0008603	6.2e-06
0.2	303.15	0.1002	0.0008718	6.3e-06
0.2	303.15	0.2001	0.0008844	6.4e-06
0.2	303.15	0.3003	0.0008972	6.5e-06
0.2	303.15	0.4	0.00091	6.6e-06
0.2	303.15	0.4999	0.0009235	6.7e-06
0.2	303.15	0.6	0.0009377	6.7e-06
0.2	303.15	0.7003	0.0009517	6.8e-06
0.2	313.15	0	0.0007025	5.2e-06
0.2	313.15	0.1002	0.0007128	5.3e-06
0.2	313.15	0.2001	0.0007234	5.4e-06
0.2	313.15	0.3003	0.0007342	5.4e-06
0.2	313.15	0.4	0.0007454	5.5e-06
0.2	313.15	0.4999	0.000756	5.6e-06
0.2	313.15	0.6	0.0007679	5.6e-06
0.2	313.15	0.7003	0.0007795	5.7e-06
0.2	323.15	0	0.0005867	4.5e-06
0.2	323.15	0.1002	0.0005956	4.5e-06
0.2	323.15	0.2001	0.0006048	4.6e-06
0.2	323.15	0.3003	0.0006141	4.6e-06
0.2	323.15	0.4	0.0006235	4.7e-06
0.2	323.15	0.4999	0.000633	4.8e-06
0.2	323.15	0.6	0.0006427	4.8e-06
0.2	323.15	0.7003	0.0006524	4.9e-06
0.3	293.15	0	0.0011281	8e-06
0.3	293.15	0.0999	0.0011435	8.1e-06
0.3	293.15	0.2	0.0011597	8.2e-06
0.3	293.15	0.3	0.0011758	8.3e-06
0.3	293.15	0.4001	0.0011919	8.4e-06
0.3	293.15	0.5	0.0012087	8.5e-06
0.3	293.15	0.6003	0.0012253	8.6e-06
0.3	293.15	0.6999	0.0012421	8.7e-06
0.3	303.15	0	0.000895	6.5e-06
0.3	303.15	0.0999	0.0009079	6.6e-06
0.3	303.15	0.2	0.000921	6.6e-06
0.3	303.15	0.3	0.0009344	6.7e-06
0.3	303.15	0.4001	0.0009478	6.8e-06
0.3	303.15	0.5	0.0009612	6.9e-06
0.3	303.15	0.6003	0.0009751	7e-06
0.3	303.15	0.6999	0.0009887	7.1e-06
0.3	313.15	0	0.0007293	5.4e-06
0.3	313.15	0.0999	0.0007406	5.5e-06
0.3	313.15	0.2	0.0007518	5.5e-06
0.3	313.15	0.3	0.0007628	5.6e-06
0.3	313.15	0.4001	0.0007745	5.7e-06
0.3	313.15	0.5	0.0007861	5.8e-06
0.3	313.15	0.6003	0.0007975	5.8e-06
0.3	313.15	0.6999	0.0008087	5.9e-06
0.3	323.15	0	0.0006071	4.6e-06
0.3	323.15	0.0999	0.0006172	4.7e-06
0.3	323.15	0.2	0.0006269	4.7e-06
0.3	323.15	0.3	0.0006368	4.8e-06
0.3	323.15	0.4001	0.0006465	4.9e-06
0.3	323.15	0.5	0.000656	4.9e-06
0.3	323.15	0.6003	0.0006658	5e-06
0.3	323.15	0.6999	0.0006751	5e-06
0.4	293.15	0	0.0011691	8.2e-06
0.4	293.15	0.1002	0.001187	8.3e-06
0.4	293.15	0.2002	0.0012049	8.5e-06
0.4	293.15	0.3	0.0012223	8.6e-06
0.4	293.15	0.4	0.0012409	8.7e-06
0.4	293.15	0.5006	0.0012594	8.8e-06
0.4	293.15	0.6	0.0012774	8.9e-06
0.4	293.15	0.6998	0.0012954	9e-06
0.4	303.15	0	0.0009254	6.7e-06
0.4	303.15	0.1002	0.0009406	6.8e-06
0.4	303.15	0.2002	0.0009552	6.9e-06
0.4	303.15	0.3	0.0009702	7e-06
0.4	303.15	0.4	0.0009848	7e-06
0.4	303.15	0.5006	0.0010001	7.1e-06
0.4	303.15	0.6	0.0010142	7.2e-06
0.4	303.15	0.6998	0.0010288	7.3e-06
0.4	313.15	0	0.000755	5.6e-06
0.4	313.15	0.1002	0.000768	5.6e-06
0.4	313.15	0.2002	0.0007804	5.7e-06
0.4	313.15	0.3	0.0007932	5.8e-06
0.4	313.15	0.4	0.0008055	5.9e-06
0.4	313.15	0.5006	0.0008184	6e-06
0.4	313.15	0.6	0.0008308	6e-06
0.4	313.15	0.6998	0.0008433	6.1e-06
0.4	323.15	0	0.000628	4.7e-06
0.4	323.15	0.1002	0.0006392	4.8e-06
0.4	323.15	0.2002	0.0006499	4.9e-06
0.4	323.15	0.3	0.000661	5e-06
0.4	323.15	0.4	0.0006718	5e-06
0.4	323.15	0.5006	0.0006827	5.1e-06
0.4	323.15	0.6	0.0006936	5.2e-06
0.4	323.15	0.6998	0.0007043	5.2e-06

System: (S)-2-aminopropanoic acid + 5-hydroxy-6-methyl-3,4-pyridinedimethanol hydrochloride + water; phases: Liquid
Fixed: Pressure, kPa = 101
Property: Mass density, kg/m3 (Liquid); method: Vibrating tube method
Solvent: Molality, mol/kg of 5-hydroxy-6-methyl-3,4-pyridinedimethanol hydrochloride	Temperature, K	Molality, mol/kg of (S)-2-aminopropanoic acid	Mass density, kg/m3	uncertainty
0.1	293.15	0	1004.23	0.16
0.1	293.15	0.1003	1007.09	0.16
0.1	293.15	0.2002	1009.87	0.16
0.1	293.15	0.3005	1012.62	0.16
0.1	293.15	0.4001	1015.3	0.16
0.1	293.15	0.5005	1017.93	0.16
0.1	293.15	0.6005	1020.54	0.16
0.1	293.15	0.6998	1023.07	0.16
0.1	303.15	0	1001.59	0.16
0.1	303.15	0.1003	1004.41	0.16
0.1	303.15	0.2002	1007.15	0.16
0.1	303.15	0.3005	1009.86	0.16
0.1	303.15	0.4001	1012.5	0.16
0.1	303.15	0.5005	1015.1	0.16
0.1	303.15	0.6005	1017.67	0.16
0.1	303.15	0.6998	1020.16	0.16
0.1	313.15	0	998.11	0.15
0.1	313.15	0.1003	1000.88	0.16
0.1	313.15	0.2002	1003.6	0.16
0.1	313.15	0.3005	1006.29	0.16
0.1	313.15	0.4001	1008.89	0.16
0.1	313.15	0.5005	1011.44	0.16
0.1	313.15	0.6005	1013.99	0.16
0.1	313.15	0.6998	1016.44	0.16
0.1	323.15	0	993.87	0.16
0.1	323.15	0.1003	996.62	0.16
0.1	323.15	0.2002	999.31	0.15
0.1	323.15	0.3005	1001.96	0.16
0.1	323.15	0.4001	1004.53	0.16
0.1	323.15	0.5005	1007.07	0.16
0.1	323.15	0.6005	1009.58	0.16
0.1	323.15	0.6998	1012.02	0.16
0.2	293.15	0	1010.05	0.16
0.2	293.15	0.1003	1012.86	0.16
0.2	293.15	0.2002	1015.62	0.16
0.2	293.15	0.3	1018.32	0.16
0.2	293.15	0.4002	1020.98	0.16
0.2	293.15	0.5002	1023.59	0.16
0.2	293.15	0.6004	1026.16	0.17
0.2	293.15	0.7002	1028.67	0.17
0.2	303.15	0	1007.3	0.16
0.2	303.15	0.1003	1010.07	0.16
0.2	303.15	0.2002	1012.79	0.16
0.2	303.15	0.3	1015.44	0.16
0.2	303.15	0.4002	1018.07	0.16
0.2	303.15	0.5002	1020.63	0.16
0.2	303.15	0.6004	1023.17	0.16
0.2	303.15	0.7002	1025.64	0.16
0.2	313.15	0	1003.73	0.16
0.2	313.15	0.1003	1006.46	0.16
0.2	313.15	0.2002	1009.15	0.16
0.2	313.15	0.3	1011.77	0.16
0.2	313.15	0.4002	1014.36	0.16
0.2	313.15	0.5002	1016.89	0.16
0.2	313.15	0.6004	1019.4	0.16
0.2	313.15	0.7002	1021.84	0.16
0.2	323.15	0	999.36	0.15
0.2	323.15	0.1003	1002.07	0.16
0.2	323.15	0.2002	1004.73	0.16
0.2	323.15	0.3	1007.33	0.16
0.2	323.15	0.4002	1009.91	0.16
0.2	323.15	0.5002	1012.42	0.16
0.2	323.15	0.6004	1014.9	0.16
0.2	323.15	0.7002	1017.33	0.16
0.3	293.15	0	1015.63	0.16
0.3	293.15	0.1005	1018.42	0.16
0.3	293.15	0.2006	1021.15	0.16
0.3	293.15	0.3001	1023.81	0.16
0.3	293.15	0.4	1026.44	0.17
0.3	293.15	0.5004	1029.01	0.17
0.3	293.15	0.6002	1031.55	0.17
0.3	293.15	0.6997	1034.01	0.17
0.3	303.15	0	1012.83	0.16
0.3	303.15	0.1005	1015.58	0.16
0.3	303.15	0.2006	1018.26	0.16
0.3	303.15	0.3001	1020.87	0.16
0.3	303.15	0.4	1023.45	0.16
0.3	303.15	0.5004	1025.97	0.17
0.3	303.15	0.6002	1028.46	0.17
0.3	303.15	0.6997	1030.88	0.17
0.3	313.15	0	1009.19	0.16
0.3	313.15	0.1005	1011.9	0.16
0.3	313.15	0.2006	1014.54	0.16
0.3	313.15	0.3001	1017.12	0.16
0.3	313.15	0.4	1019.66	0.16
0.3	313.15	0.5004	1022.15	0.16
0.3	313.15	0.6002	1024.61	0.16
0.3	313.15	0.6997	1027	0.17
0.3	323.15	0	1004.84	0.16
0.3	323.15	0.1005	1007.52	0.16
0.3	323.15	0.2006	1010.13	0.16
0.3	323.15	0.3001	1012.68	0.16
0.3	323.15	0.4	1015.2	0.16
0.3	323.15	0.5004	1017.67	0.16
0.3	323.15	0.6002	1020.1	0.16
0.3	323.15	0.6997	1022.48	0.16
0.4	293.15	0	1021.16	0.16
0.4	293.15	0.1003	1023.9	0.16
0.4	293.15	0.2006	1026.6	0.17
0.4	293.15	0.3003	1029.22	0.17
0.4	293.15	0.4001	1031.8	0.17
0.4	293.15	0.5004	1034.35	0.17
0.4	293.15	0.6003	1036.83	0.17
0.4	293.15	0.7	1039.26	0.17
0.4	303.15	0	1018.23	0.16
0.4	303.15	0.1003	1020.93	0.16
0.4	303.15	0.2006	1023.58	0.16
0.4	303.15	0.3003	1026.16	0.17
0.4	303.15	0.4001	1028.69	0.17
0.4	303.15	0.5004	1031.18	0.17
0.4	303.15	0.6003	1033.63	0.17
0.4	303.15	0.7	1036.01	0.17
0.4	313.15	0	1014.54	0.16
0.4	313.15	0.1003	1017.2	0.16
0.4	313.15	0.2006	1019.81	0.16
0.4	313.15	0.3003	1022.35	0.16
0.4	313.15	0.4001	1024.85	0.16
0.4	313.15	0.5004	1027.32	0.17
0.4	313.15	0.6003	1029.73	0.17
0.4	313.15	0.7	1032.09	0.17
0.4	323.15	0	1010.1	0.16
0.4	323.15	0.1003	1012.73	0.16
0.4	323.15	0.2006	1015.31	0.16
0.4	323.15	0.3003	1017.83	0.16
0.4	323.15	0.4001	1020.3	0.16
0.4	323.15	0.5004	1022.73	0.16
0.4	323.15	0.6003	1025.12	0.17
0.4	323.15	0.7	1027.47	0.17

System: (S)-2-aminopropanoic acid + 5-hydroxy-6-methyl-3,4-pyridinedimethanol hydrochloride + water; phases: Liquid
Fixed: Pressure, kPa = 101
Property: Viscosity, Pa*s (Liquid); method: Capillary tube (Ostwald; Ubbelohde) method
Solvent: Molality, mol/kg of 5-hydroxy-6-methyl-3,4-pyridinedimethanol hydrochloride	Temperature, K	Molality, mol/kg of (S)-2-aminopropanoic acid	Viscosity, Pa*s	uncertainty
0.1	293.15	0	0.0010473	7.4e-06
0.1	293.15	0.1003	0.0010714	7.6e-06
0.1	293.15	0.2002	0.0010975	7.8e-06
0.1	293.15	0.3005	0.0011242	7.9e-06
0.1	293.15	0.4001	0.0011514	8.1e-06
0.1	293.15	0.5005	0.0011799	8.3e-06
0.1	293.15	0.6005	0.0012101	8.5e-06
0.1	293.15	0.6998	0.0012395	8.7e-06
0.1	303.15	0	0.000832	6.1e-06
0.1	303.15	0.1003	0.00085	6.2e-06
0.1	303.15	0.2002	0.0008696	6.3e-06
0.1	303.15	0.3005	0.0008904	6.4e-06
0.1	303.15	0.4001	0.0009114	6.6e-06
0.1	303.15	0.5005	0.0009335	6.7e-06
0.1	303.15	0.6005	0.0009551	6.9e-06
0.1	303.15	0.6998	0.0009787	7e-06
0.1	313.15	0	0.0006791	5.1e-06
0.1	313.15	0.1003	0.0006938	5.2e-06
0.1	313.15	0.2002	0.0007088	5.3e-06
0.1	313.15	0.3005	0.0007245	5.4e-06
0.1	313.15	0.4001	0.0007407	5.5e-06
0.1	313.15	0.5005	0.0007582	5.6e-06
0.1	313.15	0.6005	0.0007765	5.7e-06
0.1	313.15	0.6998	0.0007939	5.8e-06
0.1	323.15	0	0.0005676	4.3e-06
0.1	323.15	0.1003	0.0005789	4.4e-06
0.1	323.15	0.2002	0.0005912	4.5e-06
0.1	323.15	0.3005	0.0006043	4.6e-06
0.1	323.15	0.4001	0.0006172	4.7e-06
0.1	323.15	0.5005	0.000631	4.8e-06
0.1	323.15	0.6005	0.0006452	4.9e-06
0.1	323.15	0.6998	0.0006592	4.9e-06
0.2	293.15	0	0.0010831	7.7e-06
0.2	293.15	0.1003	0.0011095	7.8e-06
0.2	293.15	0.2002	0.0011377	8e-06
0.2	293.15	0.3	0.0011682	8.2e-06
0.2	293.15	0.4002	0.0011986	8.4e-06
0.2	293.15	0.5002	0.0012301	8.6e-06
0.2	293.15	0.6004	0.0012629	8.8e-06
0.2	293.15	0.7002	0.0012969	9.1e-06
0.2	303.15	0	0.0008609	6.2e-06
0.2	303.15	0.1003	0.0008809	6.4e-06
0.2	303.15	0.2002	0.0009017	6.5e-06
0.2	303.15	0.3	0.0009244	6.7e-06
0.2	303.15	0.4002	0.0009475	6.8e-06
0.2	303.15	0.5002	0.0009716	7e-06
0.2	303.15	0.6004	0.0009966	7.1e-06
0.2	303.15	0.7002	0.0010235	7.3e-06
0.2	313.15	0	0.0007034	5.2e-06
0.2	313.15	0.1003	0.0007188	5.3e-06
0.2	313.15	0.2002	0.0007354	5.4e-06
0.2	313.15	0.3	0.0007526	5.5e-06
0.2	313.15	0.4002	0.0007702	5.7e-06
0.2	313.15	0.5002	0.0007894	5.8e-06
0.2	313.15	0.6004	0.0008085	5.9e-06
0.2	313.15	0.7002	0.0008284	6e-06
0.2	323.15	0	0.000587	4.5e-06
0.2	323.15	0.1003	0.0005991	4.6e-06
0.2	323.15	0.2002	0.0006123	4.6e-06
0.2	323.15	0.3	0.0006257	4.7e-06
0.2	323.15	0.4002	0.0006401	4.8e-06
0.2	323.15	0.5002	0.0006546	4.9e-06
0.2	323.15	0.6004	0.0006697	5e-06
0.2	323.15	0.7002	0.0006854	5.1e-06
0.3	293.15	0	0.0011285	8e-06
0.3	293.15	0.1005	0.0011575	8.2e-06
0.3	293.15	0.2006	0.0011874	8.3e-06
0.3	293.15	0.3001	0.0012178	8.5e-06
0.3	293.15	0.4	0.0012505	8.8e-06
0.3	293.15	0.5004	0.0012838	9e-06
0.3	293.15	0.6002	0.0013175	9.2e-06
0.3	293.15	0.6997	0.0013531	9.4e-06
0.3	303.15	0	0.000896	6.5e-06
0.3	303.15	0.1005	0.0009176	6.6e-06
0.3	303.15	0.2006	0.0009405	6.8e-06
0.3	303.15	0.3001	0.0009623	6.9e-06
0.3	303.15	0.4	0.0009866	7.1e-06
0.3	303.15	0.5004	0.001012	7.2e-06
0.3	303.15	0.6002	0.0010376	7.4e-06
0.3	303.15	0.6997	0.0010627	7.6e-06
0.3	313.15	0	0.0007294	5.4e-06
0.3	313.15	0.1005	0.000746	5.5e-06
0.3	313.15	0.2006	0.0007637	5.6e-06
0.3	313.15	0.3001	0.0007814	5.7e-06
0.3	313.15	0.4	0.0007999	5.8e-06
0.3	313.15	0.5004	0.0008187	6e-06
0.3	313.15	0.6002	0.0008381	6.1e-06
0.3	313.15	0.6997	0.0008574	6.2e-06
0.3	323.15	0	0.0006071	4.6e-06
0.3	323.15	0.1005	0.0006204	4.7e-06
0.3	323.15	0.2006	0.0006344	4.8e-06
0.3	323.15	0.3001	0.0006477	4.9e-06
0.3	323.15	0.4	0.0006616	5e-06
0.3	323.15	0.5004	0.0006764	5.1e-06
0.3	323.15	0.6002	0.0006913	5.1e-06
0.3	323.15	0.6997	0.0007058	5.2e-06
0.4	293.15	0	0.0011694	8.2e-06
0.4	293.15	0.1003	0.0012015	8.4e-06
0.4	293.15	0.2006	0.0012343	8.7e-06
0.4	293.15	0.3003	0.0012675	8.9e-06
0.4	293.15	0.4001	0.0013024	9.1e-06
0.4	293.15	0.5004	0.001337	9.3e-06
0.4	293.15	0.6003	0.0013748	9.6e-06
0.4	293.15	0.7	0.0014131	9.8e-06
0.4	303.15	0	0.0009255	6.7e-06
0.4	303.15	0.1003	0.000949	6.8e-06
0.4	303.15	0.2006	0.0009732	7e-06
0.4	303.15	0.3003	0.0009987	7.1e-06
0.4	303.15	0.4001	0.0010239	7.3e-06
0.4	303.15	0.5004	0.0010515	7.5e-06
0.4	303.15	0.6003	0.0010795	7.7e-06
0.4	303.15	0.7	0.0011075	7.8e-06
0.4	313.15	0	0.0007548	5.6e-06
0.4	313.15	0.1003	0.0007729	5.7e-06
0.4	313.15	0.2006	0.0007923	5.8e-06
0.4	313.15	0.3003	0.0008118	5.9e-06
0.4	313.15	0.4001	0.0008316	6.1e-06
0.4	313.15	0.5004	0.0008515	6.2e-06
0.4	313.15	0.6003	0.000873	6.3e-06
0.4	313.15	0.7	0.0008947	6.5e-06
0.4	323.15	0	0.0006282	4.7e-06
0.4	323.15	0.1003	0.0006429	4.8e-06
0.4	323.15	0.2006	0.0006582	4.9e-06
0.4	323.15	0.3003	0.0006732	5e-06
0.4	323.15	0.4001	0.0006888	5.1e-06
0.4	323.15	0.5004	0.000705	5.2e-06
0.4	323.15	0.6003	0.0007214	5.3e-06
0.4	323.15	0.7	0.0007377	5.5e-06

System: 5-hydroxy-6-methyl-3,4-pyridinedimethanol hydrochloride + L-valine + water; phases: Liquid
Fixed: Pressure, kPa = 101
Property: Mass density, kg/m3 (Liquid); method: Vibrating tube method
Solvent: Molality, mol/kg of 5-hydroxy-6-methyl-3,4-pyridinedimethanol hydrochloride	Temperature, K	Molality, mol/kg of L-valine	Mass density, kg/m3	uncertainty
0.1	293.15	0	1004.26	0.16
0.1	293.15	0.1	1006.89	0.16
0.1	293.15	0.2001	1009.46	0.16
0.1	293.15	0.3001	1011.95	0.16
0.1	293.15	0.4	1014.37	0.16
0.1	293.15	0.5	1016.73	0.16
0.1	303.15	0	1001.62	0.16
0.1	303.15	0.1	1004.21	0.16
0.1	303.15	0.2001	1006.73	0.16
0.1	303.15	0.3001	1009.18	0.16
0.1	303.15	0.4	1011.55	0.16
0.1	303.15	0.5	1013.86	0.16
0.1	313.15	0	998.15	0.15
0.1	313.15	0.1	1000.69	0.15
0.1	313.15	0.2001	1003.17	0.16
0.1	313.15	0.3001	1005.58	0.16
0.1	313.15	0.4	1007.92	0.16
0.1	313.15	0.5	1010.2	0.16
0.1	323.15	0	993.88	0.16
0.1	323.15	0.1	996.38	0.16
0.1	323.15	0.2001	998.82	0.15
0.1	323.15	0.3001	1001.19	0.16
0.1	323.15	0.4	1003.5	0.16
0.1	323.15	0.5	1005.75	0.16
0.2	293.15	0	1010.03	0.16
0.2	293.15	0.1002	1012.61	0.16
0.2	293.15	0.2001	1015.12	0.16
0.2	293.15	0.2999	1017.56	0.16
0.2	293.15	0.4002	1019.94	0.16
0.2	293.15	0.5001	1022.25	0.16
0.2	303.15	0	1007.28	0.16
0.2	303.15	0.1002	1009.82	0.16
0.2	303.15	0.2001	1012.28	0.16
0.2	303.15	0.2999	1014.66	0.16
0.2	303.15	0.4002	1016.99	0.16
0.2	303.15	0.5001	1019.21	0.16
0.2	313.15	0	1003.72	0.16
0.2	313.15	0.1002	1006.21	0.16
0.2	313.15	0.2001	1008.62	0.16
0.2	313.15	0.2999	1010.95	0.16
0.2	313.15	0.4002	1013.24	0.16
0.2	313.15	0.5001	1015.45	0.16
0.2	323.15	0	999.36	0.15
0.2	323.15	0.1002	1001.81	0.16
0.2	323.15	0.2001	1004.18	0.16
0.2	323.15	0.2999	1006.49	0.16
0.2	323.15	0.4002	1008.74	0.16
0.2	323.15	0.5001	1010.91	0.16
0.3	293.15	0	1015.58	0.16
0.3	293.15	0.1005	1018.12	0.16
0.3	293.15	0.2002	1020.57	0.16
0.3	293.15	0.3	1022.94	0.16
0.3	293.15	0.4002	1025.26	0.16
0.3	293.15	0.4999	1027.5	0.17
0.3	303.15	0	1012.84	0.16
0.3	303.15	0.1005	1015.34	0.16
0.3	303.15	0.2002	1017.74	0.16
0.3	303.15	0.3	1020.06	0.16
0.3	303.15	0.4002	1022.32	0.16
0.3	303.15	0.4999	1024.49	0.16
0.3	313.15	0	1009.18	0.16
0.3	313.15	0.1005	1011.63	0.16
0.3	313.15	0.2002	1013.98	0.16
0.3	313.15	0.3	1016.27	0.16
0.3	313.15	0.4002	1018.49	0.16
0.3	313.15	0.4999	1020.64	0.16
0.3	323.15	0	1004.79	0.16
0.3	323.15	0.1005	1007.19	0.16
0.3	323.15	0.2002	1009.51	0.16
0.3	323.15	0.3	1011.77	0.16
0.3	323.15	0.4002	1013.97	0.16
0.3	323.15	0.4999	1016.1	0.16
0.4	293.15	0	1021.16	0.16
0.4	293.15	0.0999	1023.63	0.16
0.4	293.15	0.2002	1026.04	0.17
0.4	293.15	0.3002	1028.36	0.17
0.4	293.15	0.4003	1030.62	0.17
0.4	293.15	0.5001	1032.81	0.17
0.4	303.15	0	1018.22	0.16
0.4	303.15	0.0999	1020.65	0.16
0.4	303.15	0.2002	1023	0.16
0.4	303.15	0.3002	1025.28	0.16
0.4	303.15	0.4003	1027.49	0.17
0.4	303.15	0.5001	1029.62	0.17
0.4	313.15	0	1014.52	0.16
0.4	313.15	0.0999	1016.9	0.16
0.4	313.15	0.2002	1019.21	0.16
0.4	313.15	0.3002	1021.45	0.16
0.4	313.15	0.4003	1023.62	0.16
0.4	313.15	0.5001	1025.72	0.17
0.4	323.15	0	1010.08	0.16
0.4	323.15	0.0999	1012.41	0.16
0.4	323.15	0.2002	1014.68	0.16
0.4	323.15	0.3002	1016.87	0.16
0.4	323.15	0.4003	1019.01	0.16
0.4	323.15	0.5001	1021.08	0.16

System: 5-hydroxy-6-methyl-3,4-pyridinedimethanol hydrochloride + L-valine + water; phases: Liquid
Fixed: Pressure, kPa = 101
Property: Viscosity, Pa*s (Liquid); method: Capillary tube (Ostwald; Ubbelohde) method
Solvent: Molality, mol/kg of 5-hydroxy-6-methyl-3,4-pyridinedimethanol hydrochloride	Temperature, K	Molality, mol/kg of L-valine	Viscosity, Pa*s	uncertainty
0.1	293.15	0	0.0010468	7.4e-06
0.1	293.15	0.1	0.0010893	7.7e-06
0.1	293.15	0.2001	0.0011349	8e-06
0.1	293.15	0.3001	0.0011833	8.3e-06
0.1	293.15	0.4	0.0012348	8.7e-06
0.1	293.15	0.5	0.0012894	9e-06
0.1	303.15	0	0.0008324	6.1e-06
0.1	303.15	0.1	0.0008646	6.3e-06
0.1	303.15	0.2001	0.0008977	6.5e-06
0.1	303.15	0.3001	0.000933	6.7e-06
0.1	303.15	0.4	0.00097	7e-06
0.1	303.15	0.5	0.0010091	7.2e-06
0.1	313.15	0	0.0006802	5.1e-06
0.1	313.15	0.1	0.0007055	5.2e-06
0.1	313.15	0.2001	0.0007308	5.4e-06
0.1	313.15	0.3001	0.0007574	5.6e-06
0.1	313.15	0.4	0.000785	5.8e-06
0.1	313.15	0.5	0.0008139	5.9e-06
0.1	323.15	0	0.0005679	4.4e-06
0.1	323.15	0.1	0.0005874	4.5e-06
0.1	323.15	0.2001	0.0006072	4.6e-06
0.1	323.15	0.3001	0.0006278	4.7e-06
0.1	323.15	0.4	0.0006484	4.9e-06
0.1	323.15	0.5	0.0006702	5e-06
0.2	293.15	0	0.0010826	7.7e-06
0.2	293.15	0.1002	0.0011271	8e-06
0.2	293.15	0.2001	0.0011771	8.3e-06
0.2	293.15	0.2999	0.0012299	8.6e-06
0.2	293.15	0.4002	0.0012855	9e-06
0.2	293.15	0.5001	0.0013435	9.4e-06
0.2	303.15	0	0.0008604	6.2e-06
0.2	303.15	0.1002	0.0008942	6.5e-06
0.2	303.15	0.2001	0.0009305	6.7e-06
0.2	303.15	0.2999	0.0009691	7e-06
0.2	303.15	0.4002	0.0010092	7.2e-06
0.2	303.15	0.5001	0.0010512	7.5e-06
0.2	313.15	0	0.0007027	5.2e-06
0.2	313.15	0.1002	0.0007293	5.4e-06
0.2	313.15	0.2001	0.0007565	5.6e-06
0.2	313.15	0.2999	0.0007853	5.8e-06
0.2	313.15	0.4002	0.000814	5.9e-06
0.2	313.15	0.5001	0.0008447	6.1e-06
0.2	323.15	0	0.0005871	4.5e-06
0.2	323.15	0.1002	0.0006075	4.6e-06
0.2	323.15	0.2001	0.0006287	4.7e-06
0.2	323.15	0.2999	0.0006501	4.9e-06
0.2	323.15	0.4002	0.0006715	5e-06
0.2	323.15	0.5001	0.0006936	5.2e-06
0.3	293.15	0	0.0011287	8e-06
0.3	293.15	0.1005	0.0011769	8.3e-06
0.3	293.15	0.2002	0.0012289	8.6e-06
0.3	293.15	0.3	0.0012831	9e-06
0.3	293.15	0.4002	0.0013407	9.3e-06
0.3	293.15	0.4999	0.0014019	9.7e-06
0.3	303.15	0	0.0008959	6.5e-06
0.3	303.15	0.1005	0.0009317	6.7e-06
0.3	303.15	0.2002	0.0009701	7e-06
0.3	303.15	0.3	0.0010101	7.2e-06
0.3	303.15	0.4002	0.001052	7.5e-06
0.3	303.15	0.4999	0.0010954	7.8e-06
0.3	313.15	0	0.0007287	5.4e-06
0.3	313.15	0.1005	0.0007569	5.6e-06
0.3	313.15	0.2002	0.0007859	5.8e-06
0.3	313.15	0.3	0.0008159	6e-06
0.3	313.15	0.4002	0.0008465	6.2e-06
0.3	313.15	0.4999	0.0008788	6.4e-06
0.3	323.15	0	0.000608	4.6e-06
0.3	323.15	0.1005	0.0006301	4.8e-06
0.3	323.15	0.2002	0.0006529	4.9e-06
0.3	323.15	0.3	0.0006761	5.1e-06
0.3	323.15	0.4002	0.0006998	5.2e-06
0.3	323.15	0.4999	0.0007236	5.4e-06
0.4	293.15	0	0.0011696	8.2e-06
0.4	293.15	0.0999	0.0012205	8.6e-06
0.4	293.15	0.2002	0.0012766	8.9e-06
0.4	293.15	0.3002	0.0013366	9.3e-06
0.4	293.15	0.4003	0.0013991	9.7e-06
0.4	293.15	0.5001	0.0014642	1.01e-05
0.4	303.15	0	0.0009252	6.7e-06
0.4	303.15	0.0999	0.0009636	6.9e-06
0.4	303.15	0.2002	0.0010051	7.2e-06
0.4	303.15	0.3002	0.0010481	7.5e-06
0.4	303.15	0.4003	0.0010926	7.8e-06
0.4	303.15	0.5001	0.0011393	8.1e-06
0.4	313.15	0	0.0007543	5.6e-06
0.4	313.15	0.0999	0.0007843	5.7e-06
0.4	313.15	0.2002	0.0008155	5.9e-06
0.4	313.15	0.3002	0.0008482	6.2e-06
0.4	313.15	0.4003	0.0008816	6.4e-06
0.4	313.15	0.5001	0.0009159	6.6e-06
0.4	323.15	0	0.0006282	4.7e-06
0.4	323.15	0.0999	0.0006519	4.9e-06
0.4	323.15	0.2002	0.0006763	5.1e-06
0.4	323.15	0.3002	0.0007011	5.2e-06
0.4	323.15	0.4003	0.0007267	5.4e-06
0.4	323.15	0.5001	0.0007527	5.5e-06

System: 5-hydroxy-6-methyl-3,4-pyridinedimethanol hydrochloride + L-threonine + water; phases: Liquid
Fixed: Pressure, kPa = 101
Property: Mass density, kg/m3 (Liquid); method: Vibrating tube method
Solvent: Molality, mol/kg of 5-hydroxy-6-methyl-3,4-pyridinedimethanol hydrochloride	Temperature, K	Molality, mol/kg of L-threonine	Mass density, kg/m3	uncertainty
0.1001	293.15	0	1004.18	0.16
0.1001	293.15	0.1001	1008.37	0.16
0.1001	293.15	0.2	1012.47	0.16
0.1001	293.15	0.3003	1016.49	0.16
0.1001	293.15	0.4001	1020.41	0.16
0.1001	293.15	0.5001	1024.26	0.16
0.1001	293.15	0.6	1028.02	0.17
0.1001	293.15	0.7001	1031.73	0.17
0.1001	303.15	0	1001.56	0.16
0.1001	303.15	0.1001	1005.69	0.16
0.1001	303.15	0.2	1009.73	0.16
0.1001	303.15	0.3003	1013.7	0.16
0.1001	303.15	0.4001	1017.57	0.16
0.1001	303.15	0.5001	1021.36	0.16
0.1001	303.15	0.6	1025.08	0.16
0.1001	303.15	0.7001	1028.73	0.17
0.1001	313.15	0	998.07	0.16
0.1001	313.15	0.1001	1002.15	0.16
0.1001	313.15	0.2	1006.14	0.16
0.1001	313.15	0.3003	1010.06	0.16
0.1001	313.15	0.4001	1013.89	0.16
0.1001	313.15	0.5001	1017.65	0.16
0.1001	313.15	0.6	1021.33	0.16
0.1001	313.15	0.7001	1024.96	0.17
0.1001	323.15	0	993.78	0.16
0.1001	323.15	0.1001	997.83	0.16
0.1001	323.15	0.2	1001.79	0.16
0.1001	323.15	0.3003	1005.68	0.16
0.1001	323.15	0.4001	1009.48	0.16
0.1001	323.15	0.5001	1013.21	0.16
0.1001	323.15	0.6	1016.86	0.16
0.1001	323.15	0.7001	1020.45	0.16
0.2	293.15	0	1010	0.16
0.2	293.15	0.1	1014.15	0.16
0.2	293.15	0.2	1018.21	0.16
0.2	293.15	0.3	1022.18	0.16
0.2	293.15	0.3999	1026.06	0.17
0.2	293.15	0.4998	1029.87	0.17
0.2	293.15	0.6001	1033.6	0.17
0.2	293.15	0.7001	1037.24	0.17
0.2	303.15	0	1007.27	0.16
0.2	303.15	0.1	1011.36	0.16
0.2	303.15	0.2	1015.36	0.16
0.2	303.15	0.3	1019.28	0.16
0.2	303.15	0.3999	1023.11	0.16
0.2	303.15	0.4998	1026.86	0.17
0.2	303.15	0.6001	1030.53	0.17
0.2	303.15	0.7001	1034.19	0.17
0.2	313.15	0	1003.68	0.16
0.2	313.15	0.1	1007.71	0.16
0.2	313.15	0.2	1011.67	0.16
0.2	313.15	0.3	1015.54	0.16
0.2	313.15	0.3999	1019.34	0.16
0.2	313.15	0.4998	1023.07	0.16
0.2	313.15	0.6001	1026.73	0.17
0.2	313.15	0.7001	1030.32	0.17
0.2	323.15	0	999.33	0.16
0.2	323.15	0.1	1003.33	0.16
0.2	323.15	0.2	1007.25	0.16
0.2	323.15	0.3	1011.1	0.16
0.2	323.15	0.3999	1014.87	0.16
0.2	323.15	0.4998	1018.56	0.16
0.2	323.15	0.6001	1022.2	0.16
0.2	323.15	0.7001	1025.76	0.17
0.3	293.15	0	1015.56	0.16
0.3	293.15	0.1001	1019.68	0.16
0.3	293.15	0.2002	1023.71	0.16
0.3	293.15	0.2999	1027.63	0.17
0.3	293.15	0.4	1031.48	0.17
0.3	293.15	0.5	1035.24	0.17
0.3	293.15	0.6001	1038.93	0.17
0.3	293.15	0.7	1042.53	0.17
0.3	303.15	0	1012.8	0.16
0.3	303.15	0.1001	1016.85	0.16
0.3	303.15	0.2002	1020.82	0.16
0.3	303.15	0.2999	1024.69	0.16
0.3	303.15	0.4	1028.48	0.17
0.3	303.15	0.5	1032.21	0.17
0.3	303.15	0.6001	1035.84	0.17
0.3	303.15	0.7	1039.41	0.17
0.3	313.15	0	1009.2	0.16
0.3	313.15	0.1001	1013.19	0.16
0.3	313.15	0.2002	1017.1	0.16
0.3	313.15	0.2999	1020.93	0.16
0.3	313.15	0.4	1024.69	0.16
0.3	313.15	0.5	1028.38	0.17
0.3	313.15	0.6001	1031.99	0.17
0.3	313.15	0.7	1035.53	0.17
0.3	323.15	0	1004.85	0.16
0.3	323.15	0.1001	1008.8	0.16
0.3	323.15	0.2002	1012.68	0.16
0.3	323.15	0.2999	1016.46	0.16
0.3	323.15	0.4	1020.19	0.16
0.3	323.15	0.5	1023.81	0.16
0.3	323.15	0.6001	1027.41	0.17
0.3	323.15	0.7	1030.89	0.17
0.4	293.15	0	1021.1	0.16
0.4	293.15	0.1002	1025.17	0.16
0.4	293.15	0.2001	1029.14	0.17
0.4	293.15	0.2999	1033.02	0.17
0.4	293.15	0.4	1036.82	0.17
0.4	293.15	0.5001	1040.55	0.17
0.4	293.15	0.6001	1044.19	0.17
0.4	293.15	0.7	1047.74	0.17
0.4	303.15	0	1018.18	0.16
0.4	303.15	0.1002	1022.19	0.16
0.4	303.15	0.2001	1026.11	0.17
0.4	303.15	0.2999	1029.94	0.17
0.4	303.15	0.4	1033.71	0.17
0.4	303.15	0.5001	1037.41	0.17
0.4	303.15	0.6001	1041.02	0.17
0.4	303.15	0.7	1044.56	0.17
0.4	313.15	0	1014.46	0.16
0.4	313.15	0.1002	1018.41	0.16
0.4	313.15	0.2001	1022.28	0.16
0.4	313.15	0.2999	1026.06	0.17
0.4	313.15	0.4	1029.78	0.17
0.4	313.15	0.5001	1033.44	0.17
0.4	313.15	0.6001	1037.02	0.17
0.4	313.15	0.7	1040.54	0.17
0.4	323.15	0	1010.1	0.16
0.4	323.15	0.1002	1014.01	0.16
0.4	323.15	0.2001	1017.84	0.16
0.4	323.15	0.2999	1021.59	0.16
0.4	323.15	0.4	1025.28	0.17
0.4	323.15	0.5001	1028.89	0.17
0.4	323.15	0.6001	1032.44	0.17
0.4	323.15	0.7	1035.92	0.17

System: 5-hydroxy-6-methyl-3,4-pyridinedimethanol hydrochloride + L-threonine + water; phases: Liquid
Fixed: Pressure, kPa = 101
Property: Viscosity, Pa*s (Liquid); method: Capillary tube (Ostwald; Ubbelohde) method
Solvent: Molality, mol/kg of 5-hydroxy-6-methyl-3,4-pyridinedimethanol hydrochloride	Temperature, K	Molality, mol/kg of L-threonine	Viscosity, Pa*s	uncertainty
0.1001	293.15	0	0.001047	7.4e-06
0.1001	293.15	0.1001	0.0010818	7.7e-06
0.1001	293.15	0.2	0.0011183	7.9e-06
0.1001	293.15	0.3003	0.0011565	8.1e-06
0.1001	293.15	0.4001	0.0011952	8.4e-06
0.1001	293.15	0.5001	0.0012361	8.7e-06
0.1001	293.15	0.6	0.0012781	8.9e-06
0.1001	293.15	0.7001	0.0013206	9.2e-06
0.1001	303.15	0	0.000832	6.1e-06
0.1001	303.15	0.1001	0.0008583	6.2e-06
0.1001	303.15	0.2	0.0008859	6.4e-06
0.1001	303.15	0.3003	0.0009144	6.6e-06
0.1001	303.15	0.4001	0.0009439	6.8e-06
0.1001	303.15	0.5001	0.0009738	7e-06
0.1001	303.15	0.6	0.0010051	7.2e-06
0.1001	303.15	0.7001	0.0010369	7.4e-06
0.1001	313.15	0	0.0006795	5.1e-06
0.1001	313.15	0.1001	0.0007001	5.2e-06
0.1001	313.15	0.2	0.0007217	5.3e-06
0.1001	313.15	0.3003	0.0007436	5.5e-06
0.1001	313.15	0.4001	0.0007663	5.6e-06
0.1001	313.15	0.5001	0.0007897	5.8e-06
0.1001	313.15	0.6	0.0008127	5.9e-06
0.1001	313.15	0.7001	0.0008376	6.1e-06
0.1001	323.15	0	0.0005673	4.3e-06
0.1001	323.15	0.1001	0.0005837	4.5e-06
0.1001	323.15	0.2	0.0006009	4.6e-06
0.1001	323.15	0.3003	0.0006187	4.7e-06
0.1001	323.15	0.4001	0.0006366	4.8e-06
0.1001	323.15	0.5001	0.0006552	4.9e-06
0.1001	323.15	0.6	0.0006738	5e-06
0.1001	323.15	0.7001	0.0006929	5.2e-06
0.2	293.15	0	0.0010829	7.7e-06
0.2	293.15	0.1	0.0011205	7.9e-06
0.2	293.15	0.2	0.0011604	8.2e-06
0.2	293.15	0.3	0.0012015	8.4e-06
0.2	293.15	0.3999	0.001245	8.7e-06
0.2	293.15	0.4998	0.0012892	9e-06
0.2	293.15	0.6001	0.0013358	9.3e-06
0.2	293.15	0.7001	0.0013834	9.6e-06
0.2	303.15	0	0.0008606	6.2e-06
0.2	303.15	0.1	0.0008889	6.4e-06
0.2	303.15	0.2	0.000918	6.6e-06
0.2	303.15	0.3	0.0009487	6.8e-06
0.2	303.15	0.3999	0.0009807	7e-06
0.2	303.15	0.4998	0.001013	7.2e-06
0.2	303.15	0.6001	0.0010469	7.5e-06
0.2	303.15	0.7001	0.0010812	7.7e-06
0.2	313.15	0	0.0007031	5.2e-06
0.2	313.15	0.1	0.000725	5.4e-06
0.2	313.15	0.2	0.0007481	5.5e-06
0.2	313.15	0.3	0.0007717	5.7e-06
0.2	313.15	0.3999	0.000796	5.8e-06
0.2	313.15	0.4998	0.000821	6e-06
0.2	313.15	0.6001	0.0008466	6.1e-06
0.2	313.15	0.7001	0.0008724	6.3e-06
0.2	323.15	0	0.0005871	4.5e-06
0.2	323.15	0.1	0.0006048	4.6e-06
0.2	323.15	0.2	0.0006227	4.7e-06
0.2	323.15	0.3	0.0006412	4.8e-06
0.2	323.15	0.3999	0.0006605	4.9e-06
0.2	323.15	0.4998	0.0006799	5.1e-06
0.2	323.15	0.6001	0.0006993	5.2e-06
0.2	323.15	0.7001	0.0007193	5.3e-06
0.3	293.15	0	0.0011284	8e-06
0.3	293.15	0.1001	0.0011687	8.2e-06
0.3	293.15	0.2002	0.0012106	8.5e-06
0.3	293.15	0.2999	0.0012538	8.8e-06
0.3	293.15	0.4	0.0012999	9.1e-06
0.3	293.15	0.5	0.0013465	9.4e-06
0.3	293.15	0.6001	0.0013948	9.7e-06
0.3	293.15	0.7	0.0014452	1e-05
0.3	303.15	0	0.0008956	6.5e-06
0.3	303.15	0.1001	0.0009258	6.7e-06
0.3	303.15	0.2002	0.0009568	6.9e-06
0.3	303.15	0.2999	0.0009891	7.1e-06
0.3	303.15	0.4	0.0010232	7.3e-06
0.3	303.15	0.5	0.0010566	7.5e-06
0.3	303.15	0.6001	0.0010924	7.7e-06
0.3	303.15	0.7	0.0011286	8e-06
0.3	313.15	0	0.0007292	5.4e-06
0.3	313.15	0.1001	0.000753	5.5e-06
0.3	313.15	0.2002	0.0007769	5.7e-06
0.3	313.15	0.2999	0.0008022	5.9e-06
0.3	313.15	0.4	0.0008279	6e-06
0.3	313.15	0.5	0.0008537	6.2e-06
0.3	313.15	0.6001	0.0008808	6.4e-06
0.3	313.15	0.7	0.0009084	6.6e-06
0.3	323.15	0	0.0006075	4.6e-06
0.3	323.15	0.1001	0.0006261	4.7e-06
0.3	323.15	0.2002	0.0006457	4.9e-06
0.3	323.15	0.2999	0.000665	5e-06
0.3	323.15	0.4	0.0006852	5.1e-06
0.3	323.15	0.5	0.0007053	5.2e-06
0.3	323.15	0.6001	0.0007258	5.4e-06
0.3	323.15	0.7	0.0007467	5.5e-06
0.4	293.15	0	0.0011691	8.2e-06
0.4	293.15	0.1002	0.0012123	8.5e-06
0.4	293.15	0.2001	0.0012579	8.8e-06
0.4	293.15	0.2999	0.0013034	9.1e-06
0.4	293.15	0.4	0.0013516	9.4e-06
0.4	293.15	0.5001	0.001402	9.7e-06
0.4	293.15	0.6001	0.0014529	1.01e-05
0.4	293.15	0.7	0.001506	1.04e-05
0.4	303.15	0	0.000925	6.7e-06
0.4	303.15	0.1002	0.0009573	6.9e-06
0.4	303.15	0.2001	0.000991	7.1e-06
0.4	303.15	0.2999	0.0010257	7.3e-06
0.4	303.15	0.4	0.0010612	7.5e-06
0.4	303.15	0.5001	0.0010978	7.8e-06
0.4	303.15	0.6001	0.0011355	8e-06
0.4	303.15	0.7	0.0011743	8.3e-06
0.4	313.15	0	0.0007545	5.6e-06
0.4	313.15	0.1002	0.00078	5.7e-06
0.4	313.15	0.2001	0.0008061	5.9e-06
0.4	313.15	0.2999	0.0008321	6.1e-06
0.4	313.15	0.4	0.0008594	6.2e-06
0.4	313.15	0.5001	0.0008876	6.4e-06
0.4	313.15	0.6001	0.0009158	6.6e-06
0.4	313.15	0.7	0.0009448	6.8e-06
0.4	323.15	0	0.0006275	4.7e-06
0.4	323.15	0.1002	0.0006477	4.9e-06
0.4	323.15	0.2001	0.0006684	5e-06
0.4	323.15	0.2999	0.0006892	5.1e-06
0.4	323.15	0.4	0.0007103	5.3e-06
0.4	323.15	0.5001	0.0007321	5.4e-06
0.4	323.15	0.6001	0.0007539	5.6e-06
0.4	323.15	0.7	0.0007764	5.7e-06

System: 5-hydroxy-6-methyl-3,4-pyridinedimethanol hydrochloride + L-arginine + water; phases: Liquid
Fixed: Pressure, kPa = 101
Property: Mass density, kg/m3 (Liquid); method: Vibrating tube method
Solvent: Molality, mol/kg of 5-hydroxy-6-methyl-3,4-pyridinedimethanol hydrochloride	Temperature, K	Molality, mol/kg of L-arginine	Mass density, kg/m3	uncertainty
0.1	293.15	0	1004.26	0.16
0.1	293.15	0.1002	1009.92	0.16
0.1	293.15	0.2002	1015.15	0.16
0.1	293.15	0.3001	1020.06	0.16
0.1	293.15	0.4	1024.57	0.16
0.1	293.15	0.5003	1028.87	0.17
0.1	293.15	0.6	1032.82	0.17
0.1	293.15	0.7003	1036.59	0.17
0.1	303.15	0	1001.62	0.16
0.1	303.15	0.1002	1007.17	0.16
0.1	303.15	0.2002	1012.3	0.16
0.1	303.15	0.3001	1017.16	0.16
0.1	303.15	0.4	1021.61	0.16
0.1	303.15	0.5003	1025.78	0.17
0.1	303.15	0.6	1029.62	0.17
0.1	303.15	0.7003	1033.43	0.17
0.1	313.15	0	998.09	0.16
0.1	313.15	0.1002	1003.55	0.16
0.1	313.15	0.2002	1008.59	0.16
0.1	313.15	0.3001	1013.3	0.16
0.1	313.15	0.4	1017.72	0.16
0.1	313.15	0.5003	1021.87	0.16
0.1	313.15	0.6	1025.75	0.17
0.1	313.15	0.7003	1029.43	0.17
0.1	323.15	0	993.85	0.16
0.1	323.15	0.1002	999.21	0.16
0.1	323.15	0.2002	1004.2	0.16
0.1	323.15	0.3001	1008.84	0.16
0.1	323.15	0.4	1013.17	0.16
0.1	323.15	0.5003	1017.24	0.16
0.1	323.15	0.6	1021.13	0.16
0.1	323.15	0.7003	1024.87	0.17
0.2	293.15	0	1010.06	0.16
0.2	293.15	0.0999	1015.65	0.16
0.2	293.15	0.1999	1020.94	0.16
0.2	293.15	0.3001	1025.92	0.17
0.2	293.15	0.4004	1030.63	0.17
0.2	293.15	0.5002	1035.06	0.17
0.2	293.15	0.6001	1039.31	0.17
0.2	293.15	0.6999	1043.3	0.17
0.2	303.15	0	1007.31	0.16
0.2	303.15	0.0999	1012.78	0.16
0.2	303.15	0.1999	1017.98	0.16
0.2	303.15	0.3001	1022.88	0.16
0.2	303.15	0.4004	1027.55	0.17
0.2	303.15	0.5002	1031.91	0.17
0.2	303.15	0.6001	1036.03	0.17
0.2	303.15	0.6999	1039.99	0.17
0.2	313.15	0	1003.73	0.16
0.2	313.15	0.0999	1009.11	0.16
0.2	313.15	0.1999	1014.24	0.16
0.2	313.15	0.3001	1019.07	0.16
0.2	313.15	0.4004	1023.67	0.16
0.2	313.15	0.5002	1028.06	0.17
0.2	313.15	0.6001	1032.16	0.17
0.2	313.15	0.6999	1036.12	0.17
0.2	323.15	0	999.36	0.15
0.2	323.15	0.0999	1004.65	0.16
0.2	323.15	0.1999	1009.7	0.16
0.2	323.15	0.3001	1014.51	0.16
0.2	323.15	0.4004	1019.08	0.16
0.2	323.15	0.5002	1023.44	0.16
0.2	323.15	0.6001	1027.58	0.17
0.2	323.15	0.6999	1031.55	0.17
0.3	293.15	0	1015.62	0.16
0.3	293.15	0.1002	1021.17	0.16
0.3	293.15	0.2003	1026.45	0.17
0.3	293.15	0.3	1031.48	0.17
0.3	293.15	0.4	1036.28	0.17
0.3	293.15	0.5	1040.83	0.17
0.3	293.15	0.6	1045.17	0.17
0.3	293.15	0.6999	1049.29	0.18
0.3	303.15	0	1012.84	0.16
0.3	303.15	0.1002	1018.28	0.16
0.3	303.15	0.2003	1023.46	0.16
0.3	303.15	0.3	1028.39	0.17
0.3	303.15	0.4	1033.09	0.17
0.3	303.15	0.5	1037.58	0.17
0.3	303.15	0.6	1041.85	0.17
0.3	303.15	0.6999	1045.9	0.17
0.3	313.15	0	1009.2	0.16
0.3	313.15	0.1002	1014.55	0.16
0.3	313.15	0.2003	1019.66	0.16
0.3	313.15	0.3	1024.51	0.16
0.3	313.15	0.4	1029.14	0.17
0.3	313.15	0.5	1033.59	0.17
0.3	313.15	0.6	1037.82	0.17
0.3	313.15	0.6999	1041.82	0.17
0.3	323.15	0	1004.84	0.16
0.3	323.15	0.1002	1010.1	0.16
0.3	323.15	0.2003	1015.12	0.16
0.3	323.15	0.3	1019.91	0.16
0.3	323.15	0.4	1024.52	0.17
0.3	323.15	0.5	1028.92	0.17
0.3	323.15	0.6	1033.15	0.17
0.3	323.15	0.6999	1037.21	0.17
0.4	293.15	0	1021.12	0.16
0.4	293.15	0.1	1026.58	0.17
0.4	293.15	0.2	1031.81	0.17
0.4	293.15	0.3001	1036.83	0.17
0.4	293.15	0.4003	1041.62	0.17
0.4	293.15	0.5	1046.2	0.17
0.4	293.15	0.6	1050.56	0.18
0.4	293.15	0.7	1054.76	0.18
0.4	303.15	0	1018.2	0.16
0.4	303.15	0.1	1023.56	0.16
0.4	303.15	0.2	1028.7	0.17
0.4	303.15	0.3001	1033.63	0.17
0.4	303.15	0.4003	1038.35	0.17
0.4	303.15	0.5	1042.89	0.17
0.4	303.15	0.6	1047.22	0.17
0.4	303.15	0.7	1051.36	0.18
0.4	313.15	0	1014.48	0.16
0.4	313.15	0.1	1019.75	0.16
0.4	313.15	0.2	1024.81	0.17
0.4	313.15	0.3001	1029.66	0.17
0.4	313.15	0.4003	1034.31	0.17
0.4	313.15	0.5	1038.78	0.17
0.4	313.15	0.6	1043.07	0.17
0.4	313.15	0.7	1047.19	0.17
0.4	323.15	0	1010.08	0.16
0.4	323.15	0.1	1015.25	0.16
0.4	323.15	0.2	1020.24	0.16
0.4	323.15	0.3001	1025.04	0.17
0.4	323.15	0.4003	1029.65	0.17
0.4	323.15	0.5	1034.1	0.17
0.4	323.15	0.6	1038.38	0.17
0.4	323.15	0.7	1042.53	0.17

System: 5-hydroxy-6-methyl-3,4-pyridinedimethanol hydrochloride + L-arginine + water; phases: Liquid
Fixed: Pressure, kPa = 101
Property: Viscosity, Pa*s (Liquid); method: Capillary tube (Ostwald; Ubbelohde) method
Solvent: Molality, mol/kg of 5-hydroxy-6-methyl-3,4-pyridinedimethanol hydrochloride	Temperature, K	Molality, mol/kg of L-arginine	Viscosity, Pa*s	uncertainty
0.1	293.15	0	0.0010472	1.26e-05
0.1	303.15	0	0.0008323	1.01e-05
0.1	313.15	0	0.00068	8.3e-06
0.1	323.15	0	0.0005675	7e-06
0.2	293.15	0	0.0010829	1.3e-05
0.2	303.15	0	0.0008608	1.04e-05
0.2	313.15	0	0.0007027	8.6e-06
0.2	323.15	0	0.0005868	7.2e-06
0.3	293.15	0	0.0011285	1.35e-05
0.3	303.15	0	0.0008956	1.08e-05
0.3	313.15	0	0.0007289	8.9e-06
0.3	323.15	0	0.0006074	7.4e-06
0.4	293.15	0	0.0011697	1.4e-05
0.4	303.15	0	0.0009256	1.12e-05
0.4	313.15	0	0.0007551	9.2e-06
0.4	323.15	0	0.0006283	7.7e-06
0.2	293.15	0.0999	0.001141	1.37e-05
0.2	303.15	0.0999	0.0009054	1.09e-05
0.2	313.15	0.0999	0.0007374	9e-06
0.2	323.15	0.0999	0.0006143	7.5e-06
0.4	293.15	0.1	0.0012391	1.48e-05
0.4	303.15	0.1	0.0009787	1.18e-05
0.4	313.15	0.1	0.0007959	9.6e-06
0.4	323.15	0.1	0.0006611	8.1e-06
0.1	323.15	0.1002	0.0005949	7.3e-06
0.1	313.15	0.1002	0.0007122	8.7e-06
0.1	293.15	0.1002	0.0011029	1.32e-05
0.3	293.15	0.1002	0.0011914	1.43e-05
0.1	303.15	0.1002	0.0008748	1.06e-05
0.3	303.15	0.1002	0.0009434	1.14e-05
0.3	313.15	0.1002	0.0007664	9.3e-06
0.3	323.15	0.1002	0.0006372	7.8e-06
0.2	293.15	0.1999	0.00121	1.45e-05
0.2	303.15	0.1999	0.0009552	1.15e-05
0.2	313.15	0.1999	0.0007764	9.4e-06
0.2	323.15	0.1999	0.0006455	7.9e-06
0.4	293.15	0.2	0.0013193	1.58e-05
0.4	303.15	0.2	0.0010383	1.25e-05
0.4	313.15	0.2	0.0008443	1.02e-05
0.4	323.15	0.2	0.0006983	8.5e-06
0.1	293.15	0.2002	0.0011634	1.39e-05
0.1	313.15	0.2002	0.0007498	9.1e-06
0.1	323.15	0.2002	0.0006228	7.6e-06
0.1	303.15	0.2002	0.0009204	1.11e-05
0.3	293.15	0.2003	0.0012631	1.51e-05
0.3	303.15	0.2003	0.0009966	1.2e-05
0.3	313.15	0.2003	0.0008078	9.8e-06
0.3	323.15	0.2003	0.0006698	8.2e-06
0.3	293.15	0.3	0.0013417	1.6e-05
0.3	303.15	0.3	0.0010538	1.27e-05
0.3	313.15	0.3	0.0008506	1.03e-05
0.3	323.15	0.3	0.0007051	8.6e-06
0.1	313.15	0.3001	0.0007864	9.5e-06
0.2	293.15	0.3001	0.0012817	1.53e-05
0.2	323.15	0.3001	0.0006781	8.3e-06
0.1	323.15	0.3001	0.0006518	8e-06
0.1	293.15	0.3001	0.0012286	1.47e-05
0.2	303.15	0.3001	0.00101	1.21e-05
0.1	303.15	0.3001	0.0009701	1.17e-05
0.2	313.15	0.3001	0.0008185	9.9e-06
0.4	293.15	0.3001	0.0014075	1.68e-05
0.4	303.15	0.3001	0.0011041	1.33e-05
0.4	313.15	0.3001	0.0008948	1.08e-05
0.4	323.15	0.3001	0.0007391	9e-06
0.3	293.15	0.4	0.0014239	1.7e-05
0.1	323.15	0.4	0.0006845	8.3e-06
0.3	303.15	0.4	0.0011169	1.34e-05
0.1	293.15	0.4	0.0012987	1.55e-05
0.3	313.15	0.4	0.0008997	1.09e-05
0.3	323.15	0.4	0.000742	9e-06
0.1	303.15	0.4	0.001022	1.23e-05
0.1	313.15	0.4	0.0008283	1e-05
0.4	293.15	0.4003	0.0015024	1.79e-05
0.4	303.15	0.4003	0.001179	1.41e-05
0.4	313.15	0.4003	0.0009531	1.15e-05
0.4	323.15	0.4003	0.0007871	9.5e-06
0.2	303.15	0.4004	0.0010688	1.28e-05
0.2	313.15	0.4004	0.0008635	1.04e-05
0.2	293.15	0.4004	0.0013614	1.63e-05
0.2	323.15	0.4004	0.0007124	8.7e-06
0.3	303.15	0.5	0.0011836	1.42e-05
0.3	313.15	0.5	0.0009503	1.14e-05
0.3	293.15	0.5	0.001515	1.8e-05
0.3	323.15	0.5	0.0007822	9.5e-06
0.4	293.15	0.5	0.0016064	1.91e-05
0.4	303.15	0.5	0.0012544	1.5e-05
0.4	313.15	0.5	0.0010156	1.22e-05
0.4	323.15	0.5	0.0008355	1.01e-05
0.2	313.15	0.5002	0.0009093	1.1e-05
0.2	293.15	0.5002	0.0014448	1.72e-05
0.2	323.15	0.5002	0.0007485	9.1e-06
0.2	303.15	0.5002	0.0011279	1.35e-05
0.1	293.15	0.5003	0.0013688	1.63e-05
0.1	303.15	0.5003	0.001075	1.29e-05
0.1	313.15	0.5003	0.000869	1.05e-05
0.1	323.15	0.5003	0.0007173	8.7e-06
0.3	293.15	0.6	0.0016076	1.91e-05
0.3	303.15	0.6	0.0012526	1.5e-05
0.4	293.15	0.6	0.0017215	2.05e-05
0.1	293.15	0.6	0.0014463	1.72e-05
0.3	323.15	0.6	0.0008233	1e-05
0.1	323.15	0.6	0.0007525	9.1e-06
0.4	303.15	0.6	0.0013383	1.6e-05
0.1	303.15	0.6	0.0011325	1.36e-05
0.1	313.15	0.6	0.0009133	1.1e-05
0.3	313.15	0.6	0.0010015	1.2e-05
0.4	313.15	0.6	0.0010788	1.29e-05
0.4	323.15	0.6	0.0008873	1.07e-05
0.2	303.15	0.6001	0.0011952	1.43e-05
0.2	293.15	0.6001	0.0015282	1.82e-05
0.2	323.15	0.6001	0.0007864	9.5e-06
0.2	313.15	0.6001	0.0009581	1.15e-05
0.3	303.15	0.6999	0.0013219	1.58e-05
0.3	323.15	0.6999	0.000864	1.04e-05
0.3	293.15	0.6999	0.0017057	2.03e-05
0.2	313.15	0.6999	0.0010083	1.21e-05
0.2	293.15	0.6999	0.001622	1.93e-05
0.2	323.15	0.6999	0.0008251	1e-05
0.3	313.15	0.6999	0.0010557	1.27e-05
0.2	303.15	0.6999	0.0012571	1.5e-05
0.4	303.15	0.7	0.0014296	1.71e-05
0.4	293.15	0.7	0.0018389	2.18e-05
0.4	313.15	0.7	0.0011513	1.38e-05
0.4	323.15	0.7	0.0009429	1.14e-05
0.1	293.15	0.7003	0.001523	1.81e-05
0.1	323.15	0.7003	0.0007865	9.5e-06
0.1	303.15	0.7003	0.0011896	1.43e-05
0.1	313.15	0.7003	0.000958	1.15e-05

System: 5-hydroxy-6-methyl-3,4-pyridinedimethanol hydrochloride + water; phases: Liquid
Fixed: Pressure, kPa = 101
Property: Mass density, kg/m3 (Liquid); method: Vibrating tube method
Molality, mol/kg of 5-hydroxy-6-methyl-3,4-pyridinedimethanol hydrochloride	Temperature, K	Mass density, kg/m3	uncertainty
0.1	293.15	1004.22	0.16
0.1	303.15	1001.58	0.16
0.1	313.15	998.07	0.15
0.1	323.15	993.82	0.16
0.2	293.15	1010.05	0.16
0.2	303.15	1007.29	0.16
0.2	313.15	1003.69	0.16
0.2	323.15	999.39	0.15
0.3	293.15	1015.52	0.16
0.3	303.15	1012.81	0.16
0.3	313.15	1009.18	0.16
0.3	323.15	1004.86	0.16
0.4	293.15	1021.12	0.16
0.4	303.15	1018.2	0.16
0.4	313.15	1014.48	0.16
0.4	323.15	1010.06	0.16
0.1	293.15	1004.23	0.16
0.1	303.15	1001.59	0.16
0.1	313.15	998.11	0.15
0.1	323.15	993.87	0.16
0.2	303.15	1007.3	0.16
0.2	313.15	1003.73	0.16
0.2	323.15	999.36	0.15
0.3	293.15	1015.63	0.16
0.3	303.15	1012.83	0.16
0.3	313.15	1009.19	0.16
0.3	323.15	1004.84	0.16
0.4	293.15	1021.16	0.16
0.4	303.15	1018.23	0.16
0.4	313.15	1014.54	0.16
0.4	323.15	1010.1	0.16
0.1	293.15	1004.26	0.16
0.1	303.15	1001.62	0.16
0.1	313.15	998.15	0.15
0.1	323.15	993.88	0.16
0.2	293.15	1010.03	0.16
0.2	303.15	1007.28	0.16
0.2	313.15	1003.72	0.16
0.3	293.15	1015.58	0.16
0.3	303.15	1012.84	0.16
0.3	323.15	1004.79	0.16
0.4	303.15	1018.22	0.16
0.4	313.15	1014.52	0.16
0.4	323.15	1010.08	0.16
0.1001	293.15	1004.18	0.16
0.1001	303.15	1001.56	0.16
0.1001	313.15	998.07	0.16
0.1001	323.15	993.78	0.16
0.2	293.15	1010	0.16
0.2	303.15	1007.27	0.16
0.2	313.15	1003.68	0.16
0.2	323.15	999.33	0.16
0.3	293.15	1015.56	0.16
0.3	303.15	1012.8	0.16
0.3	313.15	1009.2	0.16
0.3	323.15	1004.85	0.16
0.4	293.15	1021.1	0.16
0.4	303.15	1018.18	0.16
0.4	313.15	1014.46	0.16
0.1	313.15	998.09	0.16
0.1	323.15	993.85	0.16
0.2	293.15	1010.06	0.16
0.2	303.15	1007.31	0.16
0.3	293.15	1015.62	0.16

System: 5-hydroxy-6-methyl-3,4-pyridinedimethanol hydrochloride + water; phases: Liquid
Fixed: Pressure, kPa = 101
Property: Viscosity, Pa*s (Liquid); method: Capillary tube (Ostwald; Ubbelohde) method
Molality, mol/kg of 5-hydroxy-6-methyl-3,4-pyridinedimethanol hydrochloride	Temperature, K	Viscosity, Pa*s	uncertainty
0.1	293.15	0.0010472	7.4e-06
0.1	303.15	0.0008322	6.1e-06
0.1	313.15	0.0006798	5.1e-06
0.1	323.15	0.0005676	4.3e-06
0.2	293.15	0.0010829	7.7e-06
0.2	303.15	0.0008603	6.2e-06
0.2	313.15	0.0007025	5.2e-06
0.2	323.15	0.0005867	4.5e-06
0.3	293.15	0.0011281	8e-06
0.3	303.15	0.000895	6.5e-06
0.3	313.15	0.0007293	5.4e-06
0.3	323.15	0.0006071	4.6e-06
0.4	293.15	0.0011691	8.2e-06
0.4	303.15	0.0009254	6.7e-06
0.4	313.15	0.000755	5.6e-06
0.4	323.15	0.000628	4.7e-06
0.1	293.15	0.0010473	7.4e-06
0.1	303.15	0.000832	6.1e-06
0.1	313.15	0.0006791	5.1e-06
0.2	293.15	0.0010831	7.7e-06
0.2	303.15	0.0008609	6.2e-06
0.2	313.15	0.0007034	5.2e-06
0.2	323.15	0.000587	4.5e-06
0.3	293.15	0.0011285	8e-06
0.3	303.15	0.000896	6.5e-06
0.3	313.15	0.0007294	5.4e-06
0.4	293.15	0.0011694	8.2e-06
0.4	303.15	0.0009255	6.7e-06
0.4	313.15	0.0007548	5.6e-06
0.4	323.15	0.0006282	4.7e-06
0.1	293.15	0.0010468	7.4e-06
0.1	303.15	0.0008324	6.1e-06
0.1	313.15	0.0006802	5.1e-06
0.1	323.15	0.0005679	4.4e-06
0.2	293.15	0.0010826	7.7e-06
0.2	303.15	0.0008604	6.2e-06
0.2	313.15	0.0007027	5.2e-06
0.2	323.15	0.0005871	4.5e-06
0.3	293.15	0.0011287	8e-06
0.3	303.15	0.0008959	6.5e-06
0.3	313.15	0.0007287	5.4e-06
0.3	323.15	0.000608	4.6e-06
0.4	293.15	0.0011696	8.2e-06
0.4	303.15	0.0009252	6.7e-06
0.4	313.15	0.0007543	5.6e-06
0.1001	293.15	0.001047	7.4e-06
0.1001	303.15	0.000832	6.1e-06
0.1001	313.15	0.0006795	5.1e-06
0.1001	323.15	0.0005673	4.3e-06
0.2	303.15	0.0008606	6.2e-06
0.2	313.15	0.0007031	5.2e-06
0.3	293.15	0.0011284	8e-06
0.3	303.15	0.0008956	6.5e-06
0.3	313.15	0.0007292	5.4e-06
0.3	323.15	0.0006075	4.6e-06
0.4	303.15	0.000925	6.7e-06
0.4	313.15	0.0007545	5.6e-06
0.4	323.15	0.0006275	4.7e-06
0.1	303.15	0.0008323	1.01e-05
0.1	313.15	0.00068	8.3e-06
0.1	323.15	0.0005675	7e-06
0.2	303.15	0.0008608	1.04e-05
0.2	323.15	0.0005868	7.2e-06
0.3	313.15	0.0007289	8.9e-06
0.3	323.15	0.0006074	7.4e-06
0.4	293.15	0.0011697	1.4e-05
0.4	303.15	0.0009256	1.12e-05
0.4	313.15	0.0007551	9.2e-06
0.4	323.15	0.0006283	7.7e-06
