Measured thermophysical data. Solubility of Dimethyl Ether in Pentaerythritol Tetrahexanoate (PEC6) and in Pentaerythritol Tetraoctanoate (PEC8) Between (283.15 and 353.15) K
Source: J. Chem. Eng. Data, 2014, 10.1021/je500665h
Compound 1: dimethyl ether, C2H6O, InChI=1S/C2H6O/c1-3-2/h1-2H3, purity 99.95%
Compound 2: pentaerythritol tetrahexanoate, C29H52O8, InChI=1S/C29H52O8/c1-5-9-13-17-25(30)34-21-29(22-35-26(31)18-14-10-6-2,23-36-27(32)19-15-11-7-3)24-37-28(33)20-16-12-8-4/h5-24H2,1-4H3, purity 98%
Compound 3: pentaerythritol tetraoctanoate, C37H68O8, InChI=1S/C37H68O8/c1-5-9-13-17-21-25-33(38)42-29-37(30-43-34(39)26-22-18-14-10-6-2,31-44-35(40)27-23-19-15-11-7-3)32-45-36(41)28-24-20-16-12-8-4/h5-32H2,1-4H3, purity 98%

System: dimethyl ether + pentaerythritol tetrahexanoate; phases: Liquid, Gas
Property: Mole fraction of dimethyl ether (Liquid); method: pressure drop
Pressure, kPa	Temperature, K	Mole fraction of dimethyl ether	uncertainty
70.7	283.15	0.3494	0.0121
139	283.15	0.5543	0.0175
196.2	283.15	0.6785	0.0208
243.8	283.15	0.7583	0.023
274.8	283.15	0.8074	0.0244
309.1	283.15	0.8535	0.0258
338.7	283.15	0.8979	0.0271
353.7	283.15	0.9275	0.0281
86.8	293.15	0.3264	0.0109
173.3	293.15	0.5301	0.0165
248.9	293.15	0.6583	0.02
321.2	293.15	0.7405	0.0224
356.8	293.15	0.7956	0.024
405.3	293.15	0.8454	0.0255
450.2	293.15	0.8933	0.0269
479	293.15	0.925	0.0278
103.6	303.15	0.3024	0.0099
209.5	303.15	0.5032	0.0156
306.1	303.15	0.6345	0.0192
390.6	303.15	0.7238	0.0218
450.8	303.15	0.7807	0.0235
518.6	303.15	0.8349	0.0251
585.3	303.15	0.8873	0.0267
627	303.15	0.9218	0.0277
119.4	313.15	0.2801	0.009
246.2	313.15	0.4744	0.0146
362	313.15	0.6098	0.0185
473.1	313.15	0.7013	0.0211
554.2	313.15	0.7621	0.0229
647	313.15	0.8214	0.0247
744.3	313.15	0.8794	0.0264
805.6	313.15	0.9176	0.0276
135.6	323.15	0.2571	0.0082
282.4	323.15	0.445	0.0136
421.6	323.15	0.5809	0.0176
557.7	323.15	0.6756	0.0203
658.1	323.15	0.7414	0.0223
786.6	323.15	0.8046	0.0242
925.5	323.15	0.8689	0.0261
1015.4	323.15	0.9119	0.0274
151.3	333.15	0.2353	0.0074
317.4	333.15	0.4158	0.0127
479.8	333.15	0.5507	0.0167
641.4	333.15	0.6476	0.0195
768.4	333.15	0.7163	0.0215
931.7	333.15	0.7842	0.0235
1123.8	333.15	0.8554	0.0257
1255.9	333.15	0.9043	0.0271
166.4	343.15	0.2148	0.0067
351	343.15	0.3872	0.0118
535.4	343.15	0.5202	0.0158
722.1	343.15	0.6183	0.0186
875.8	343.15	0.6888	0.0207
1076.6	343.15	0.7608	0.0228
1331.6	343.15	0.8383	0.0252
1522.3	343.15	0.8941	0.0268
180.7	353.15	0.1962	0.0061
384	353.15	0.3586	0.0109
588	353.15	0.4906	0.0149
798.9	353.15	0.5886	0.0177
977.7	353.15	0.6604	0.0199
1215.8	353.15	0.7353	0.0221
1537.6	353.15	0.8182	0.0246
1806.7	353.15	0.8807	0.0264

System: dimethyl ether + pentaerythritol tetraoctanoate; phases: Liquid, Gas
Property: Mole fraction of dimethyl ether (Liquid); method: pressure drop
Pressure, kPa	Temperature, K	Mole fraction of dimethyl ether	uncertainty
82.2	283.15	0.411	0.0136
152	283.15	0.6033	0.0188
212.3	283.15	0.718	0.0218
262.6	283.15	0.7886	0.0238
295.9	283.15	0.8323	0.0251
330.3	283.15	0.8742	0.0264
352.7	283.15	0.9124	0.0276
363	283.15	0.9376	0.0286
99.8	293.15	0.3853	0.0125
187	293.15	0.5787	0.0179
265	293.15	0.6985	0.0212
331.2	293.15	0.7739	0.0233
376.9	293.15	0.8211	0.0247
428.3	293.15	0.8667	0.0261
465.2	293.15	0.9082	0.0273
495.3	293.15	0.9352	0.0281
117.5	303.15	0.359	0.0114
223.4	303.15	0.5514	0.0169
321.9	303.15	0.6753	0.0204
407.7	303.15	0.7556	0.0228
469.2	303.15	0.807	0.0243
543.6	303.15	0.8569	0.0257
605.9	303.15	0.9027	0.0271
641.3	303.15	0.9322	0.028
132.8	313.15	0.3371	0.0106
254.4	313.15	0.5222	0.016
374.4	313.15	0.6528	0.0197
488.5	313.15	0.734	0.0221
569.7	313.15	0.7895	0.0237
670.3	313.15	0.8442	0.0254
760.4	313.15	0.8954	0.0269
828.4	313.15	0.9281	0.0279
150.1	323.15	0.3111	0.0097
291.4	323.15	0.4921	0.015
433.2	323.15	0.6245	0.0188
570.6	323.15	0.7094	0.0213
665.9	323.15	0.7711	0.0232
807	323.15	0.8284	0.0249
951.2	323.15	0.8846	0.0266
1038	323.15	0.9226	0.0277
166.8	333.15	0.2861	0.0089
324.4	333.15	0.4619	0.0141
490.4	333.15	0.5947	0.018
651.2	333.15	0.6825	0.0205
773	333.15	0.7471	0.0224
947.8	333.15	0.8093	0.0243
1144.7	333.15	0.8716	0.0262
1275.5	333.15	0.9152	0.0275
186.8	343.15	0.2625	0.0081
363.8	343.15	0.4327	0.0132
545	343.15	0.5645	0.0171
728.6	343.15	0.6543	0.0197
876.6	343.15	0.7208	0.0217
1086.9	343.15	0.7875	0.0236
1345.2	343.15	0.8552	0.0257
1536.4	343.15	0.9051	0.0272
206.2	353.15	0.2405	0.0074
395.1	353.15	0.4046	0.0123
596.7	353.15	0.5346	0.0162
801.9	353.15	0.6257	0.0188
974.4	353.15	0.6936	0.0208
1220.3	353.15	0.7636	0.0229
1541.3	353.15	0.8361	0.0251
1807.1	353.15	0.892	0.0268
