Measured thermophysical data. Volumetric Properties of Binary Mixtures of 1-Butyl-3-Methylimidazolium Tris(pentafluoroethyl)trifluorophosphate with N-Methylformamide, N-Ethylformamide, N,N-Dimethylformamide, N,N-Dibutylformamide, and N,N-Dimethylacetamide from (293.15 to 323.15) K
Source: J. Chem. Eng. Data, 2014, 10.1021/je5002945
Compound 1: N-methylformamide, C2H5NO, InChI=1S/C2H5NO/c1-3-2-4/h2H,1H3,(H,3,4), purity 99%
Compound 2: N-ethylformamide, C3H7NO, InChI=1S/C3H7NO/c1-2-4-3-5/h3H,2H2,1H3,(H,4,5), purity 99%
Compound 3: dimethylformamide, C3H7NO, InChI=1S/C3H7NO/c1-4(2)3-5/h3H,1-2H3, purity 99.8%
Compound 4: N,N-dibutylformamide, C9H19NO, InChI=1S/C9H19NO/c1-3-5-7-10(9-11)8-6-4-2/h9H,3-8H2,1-2H3, purity 99%
Compound 5: N,N-dimethylethanamide, C4H9NO, InChI=1S/C4H9NO/c1-4(6)5(2)3/h1-3H3, purity 99%
Compound 6: 1-butyl-3-methylimidazolium tris(pentafluoroethyl)trifluorophosphate, C14H15F18N2P, InChI=1S/C8H15N2.C6F18P/c1-3-4-5-10-7-6-9(2)8-10;7-1(8,9)4(16,17)25(22,23,24,5(18,19)2(10,11)12)6(20,21)3(13,14)15/h6-8H,3-5H2,1-2H3;/q+1;-1, purity 99%

System: N-methylformamide; phases: Liquid
Fixed: Pressure, kPa = 101.325
Property: Mass density, kg/m3 (Liquid); method: Vibrating tube method
Temperature, K	Mass density, kg/m3	uncertainty
293.15	1003.35	0.23
298.15	998.91	0.23
303.15	994.49	0.23
308.15	990.01	0.23
313.15	985.47	0.23
318.15	980.88	0.23
323.15	976.24	0.23

System: N-ethylformamide; phases: Liquid
Fixed: Pressure, kPa = 101.325
Property: Mass density, kg/m3 (Liquid); method: Vibrating tube method
Temperature, K	Mass density, kg/m3	uncertainty
293.15	951.59	0.23
298.15	947.48	0.23
303.15	943.29	0.23
308.15	939.04	0.23
313.15	934.78	0.23
318.15	930.45	0.23
323.15	926.06	0.23

System: dimethylformamide; phases: Liquid
Fixed: Pressure, kPa = 101.325
Property: Mass density, kg/m3 (Liquid); method: Vibrating tube method
Temperature, K	Mass density, kg/m3	uncertainty
293.15	948.72	0.07
298.15	943.86	0.07
303.15	939	0.07
308.15	934.08	0.07
313.15	929.13	0.08
318.15	924.06	0.08
323.15	918.96	0.08

System: N,N-dibutylformamide; phases: Liquid
Fixed: Pressure, kPa = 101.325
Property: Mass density, kg/m3 (Liquid); method: Vibrating tube method
Temperature, K	Mass density, kg/m3	uncertainty
293.15	879.05	0.23
298.15	875.12	0.23
303.15	871.17	0.23
308.15	867.15	0.23
313.15	863.11	0.23
318.15	859.01	0.23
323.15	854.82	0.23

System: N,N-dimethylethanamide; phases: Liquid
Fixed: Pressure, kPa = 101.325
Property: Mass density, kg/m3 (Liquid); method: Vibrating tube method
Temperature, K	Mass density, kg/m3	uncertainty
293.15	940.92	0.23
298.15	936.3	0.23
303.15	931.62	0.23
308.15	926.89	0.23
313.15	922.09	0.23
318.15	917.23	0.23
323.15	912.23	0.23

System: 1-butyl-3-methylimidazolium tris(pentafluoroethyl)trifluorophosphate; phases: Liquid
Fixed: Pressure, kPa = 101.325
Property: Mass density, kg/m3 (Liquid); method: Vibrating tube method
Temperature, K	Mass density, kg/m3	uncertainty
293.15	1631.16	0.81
298.15	1625.32	0.8
303.15	1619.53	0.8
308.15	1613.68	0.79
313.15	1607.86	0.78
318.15	1601.95	0.78
323.15	1596.03	0.77

System: N-methylformamide + 1-butyl-3-methylimidazolium tris(pentafluoroethyl)trifluorophosphate; phases: Liquid
Fixed: Pressure, kPa = 100
Property: Mass density, kg/m3 (Liquid); method: Vibrating tube method
Temperature, K	Mole fraction of 1-butyl-3-methylimidazolium tris(pentafluoroethyl)trifluorophosphate	Mass density, kg/m3	uncertainty
293.15	0.0177	1063.68	2.74
293.15	0.0496	1150.62	2.6
293.15	0.0664	1188.02	1.99
293.15	0.1003	1250.67	1.64
293.15	0.1495	1320.15	1.33
293.15	0.2	1373.81	1.01
293.15	0.2968	1446.68	0.87
293.15	0.415	1505.35	0.81
293.15	0.4958	1534.52	0.78
293.15	0.5497	1550.47	0.77
293.15	0.6043	1564.53	0.77
293.15	0.6816	1581.75	0.78
293.15	0.8148	1605.62	0.8
293.15	0.9028	1618.56	0.8
298.15	0.0177	1059.08	2.74
298.15	0.0496	1145.91	2.61
298.15	0.0664	1183.15	1.97
298.15	0.1003	1245.48	1.62
298.15	0.1495	1314.68	1.33
298.15	0.2	1368.2	1
298.15	0.2968	1440.98	0.86
298.15	0.415	1499.53	0.81
298.15	0.4958	1528.69	0.78
298.15	0.5497	1544.63	0.77
298.15	0.6043	1558.68	0.77
298.15	0.6816	1575.93	0.77
298.15	0.8148	1599.77	0.79
298.15	0.9028	1612.73	0.8
303.15	0.0177	1054.45	2.73
303.15	0.0496	1140.96	2.6
303.15	0.0664	1178.05	1.96
303.15	0.1003	1240.25	1.61
303.15	0.1495	1309.2	1.32
303.15	0.2	1362.64	0.99
303.15	0.2968	1435.24	0.86
303.15	0.415	1493.67	0.8
303.15	0.4958	1522.88	0.77
303.15	0.5497	1538.76	0.76
303.15	0.6043	1552.85	0.76
303.15	0.6816	1570.09	0.77
303.15	0.8148	1593.95	0.78
303.15	0.9028	1606.93	0.79
308.15	0.0177	1049.77	2.72
308.15	0.0496	1135.95	2.59
308.15	0.0664	1172.9	1.96
308.15	0.1003	1234.94	1.61
308.15	0.1495	1303.67	1.32
308.15	0.2	1356.98	0.99
308.15	0.2968	1429.45	0.85
308.15	0.415	1487.83	0.8
308.15	0.4958	1517.02	0.77
308.15	0.5497	1532.85	0.76
308.15	0.6043	1546.99	0.76
308.15	0.6816	1564.23	0.76
308.15	0.8148	1588.14	0.78
308.15	0.9028	1601.1	0.79
313.15	0.0177	1045.05	2.71
313.15	0.0496	1130.98	2.58
313.15	0.0664	1167.79	1.95
313.15	0.1003	1229.6	1.6
313.15	0.1495	1298.11	1.31
313.15	0.2	1351.3	0.98
313.15	0.2968	1423.65	0.85
313.15	0.415	1481.95	0.79
313.15	0.4958	1511.12	0.76
313.15	0.5497	1526.94	0.75
313.15	0.6043	1541.11	0.75
313.15	0.6816	1558.34	0.75
313.15	0.8148	1582.26	0.77
313.15	0.9028	1595.23	0.78
318.15	0.0177	1040.26	2.7
318.15	0.0496	1125.88	2.57
318.15	0.0664	1162.65	1.94
318.15	0.1003	1224.21	1.6
318.15	0.1495	1292.53	1.31
318.15	0.2	1345.56	0.98
318.15	0.2968	1417.78	0.84
318.15	0.415	1476.01	0.79
318.15	0.4958	1505.15	0.76
318.15	0.5497	1521.06	0.75
318.15	0.6043	1535.17	0.74
318.15	0.6816	1552.44	0.75
318.15	0.8148	1576.38	0.77
318.15	0.9028	1589.36	0.78
323.15	0.0177	1035.4	2.69
323.15	0.0496	1120.76	2.55
323.15	0.0664	1157.38	1.95
323.15	0.1003	1218.75	1.6
323.15	0.1495	1286.99	1.3
323.15	0.2	1339.77	0.98
323.15	0.2968	1411.84	0.84
323.15	0.415	1470.04	0.78
323.15	0.4958	1499.2	0.75
323.15	0.5497	1515.13	0.74
323.15	0.6043	1529.19	0.74
323.15	0.6816	1546.55	0.74
323.15	0.8148	1570.42	0.76
323.15	0.9028	1583.43	0.77

System: dimethylformamide + 1-butyl-3-methylimidazolium tris(pentafluoroethyl)trifluorophosphate; phases: Liquid
Fixed: Pressure, kPa = 100
Property: Mass density, kg/m3 (Liquid); method: Vibrating tube method
Temperature, K	Mole fraction of 1-butyl-3-methylimidazolium tris(pentafluoroethyl)trifluorophosphate	Mass density, kg/m3	uncertainty
293.15	0.0182	1000.5	2.3
293.15	0.0664	1111.33	2.11
293.15	0.0998	1171.62	1.41
293.15	0.201	1304.75	1.11
293.15	0.3017	1392.57	0.79
293.15	0.4016	1455.03	0.63
293.15	0.5024	1502.36	0.57
293.15	0.597	1536.91	0.56
293.15	0.6927	1565.42	0.6
293.15	0.756	1581.39	0.63
293.15	0.7924	1589.58	0.65
293.15	0.8499	1602.04	0.69
293.15	0.8946	1610.97	0.73
298.15	0.0182	995.54	2.29
298.15	0.0664	1106.11	2.12
298.15	0.0998	1166.27	1.39
298.15	0.201	1299.19	1.11
298.15	0.3017	1386.88	0.79
298.15	0.4016	1449.28	0.63
298.15	0.5024	1496.65	0.57
298.15	0.597	1531.06	0.56
298.15	0.6927	1559.58	0.59
298.15	0.756	1575.58	0.62
298.15	0.7924	1583.78	0.64
298.15	0.8499	1596.25	0.69
298.15	0.8946	1605.15	0.72
303.15	0.0182	990.59	2.29
303.15	0.0664	1100.9	2.11
303.15	0.0998	1160.94	1.39
303.15	0.201	1293.61	1.11
303.15	0.3017	1381.21	0.79
303.15	0.4016	1443.55	0.63
303.15	0.5024	1490.89	0.57
303.15	0.597	1525.27	0.56
303.15	0.6927	1553.77	0.59
303.15	0.756	1569.77	0.62
303.15	0.7924	1577.98	0.64
303.15	0.8499	1590.47	0.68
303.15	0.8946	1599.34	0.72
308.15	0.0182	985.56	2.28
308.15	0.0664	1095.62	2.11
308.15	0.0998	1155.53	1.39
308.15	0.201	1287.97	1.11
308.15	0.3017	1375.46	0.79
308.15	0.4016	1437.74	0.63
308.15	0.5024	1485.03	0.56
308.15	0.597	1519.49	0.55
308.15	0.6927	1547.98	0.59
308.15	0.756	1563.95	0.61
308.15	0.7924	1572.18	0.63
308.15	0.8499	1584.67	0.68
308.15	0.8946	1593.56	0.71
313.15	0.0182	980.46	2.28
313.15	0.0664	1090.29	2.11
313.15	0.0998	1150.08	1.38
313.15	0.201	1282.33	1.1
313.15	0.3017	1369.7	0.79
313.15	0.4016	1431.91	0.63
313.15	0.5024	1479.22	0.56
313.15	0.597	1513.69	0.55
313.15	0.6927	1542.16	0.58
313.15	0.756	1558.13	0.61
313.15	0.7924	1566.37	0.63
313.15	0.8499	1578.84	0.67
313.15	0.8946	1587.74	0.71
318.15	0.0182	975.29	2.28
318.15	0.0664	1084.87	2.1
318.15	0.0998	1144.55	1.38
318.15	0.201	1276.6	1.1
318.15	0.3017	1363.86	0.78
318.15	0.4016	1426.04	0.63
318.15	0.5024	1473.31	0.56
318.15	0.597	1507.83	0.55
318.15	0.6927	1536.32	0.58
318.15	0.756	1552.34	0.61
318.15	0.7924	1560.48	0.62
318.15	0.8499	1572.97	0.67
318.15	0.8946	1581.85	0.7
323.15	0.0182	970.02	2.27
323.15	0.0664	1079.38	2.09
323.15	0.0998	1138.97	1.4
323.15	0.201	1270.82	1.1
323.15	0.3017	1357.98	0.78
323.15	0.4016	1420.14	0.62
323.15	0.5024	1467.38	0.56
323.15	0.597	1501.92	0.54
323.15	0.6927	1530.5	0.57
323.15	0.756	1546.43	0.6
323.15	0.7924	1554.62	0.62
323.15	0.8499	1567.02	0.66
323.15	0.8946	1575.91	0.7

System: N-ethylformamide + 1-butyl-3-methylimidazolium tris(pentafluoroethyl)trifluorophosphate; phases: Liquid
Fixed: Pressure, kPa = 100
Property: Mass density, kg/m3 (Liquid); method: Vibrating tube method
Temperature, K	Mole fraction of 1-butyl-3-methylimidazolium tris(pentafluoroethyl)trifluorophosphate	Mass density, kg/m3	uncertainty
293.15	0.0346	1047.96	2.23
293.15	0.0702	1126.6	2.05
293.15	0.1019	1183.75	1.45
293.15	0.2005	1312.44	1.19
293.15	0.3013	1398.64	0.93
293.15	0.4019	1459.7	0.83
293.15	0.4936	1501.92	0.78
293.15	0.6054	1541.77	0.78
293.15	0.7017	1569.08	0.79
293.15	0.7892	1589.79	0.79
293.15	0.8837	1609.26	0.81
293.15	0.9417	1620.24	0.81
298.15	0.0346	1043.51	2.21
298.15	0.0702	1121.75	2.04
298.15	0.1019	1178.7	1.42
298.15	0.2005	1307.03	1.18
298.15	0.3013	1393.22	0.93
298.15	0.4019	1454.14	0.83
298.15	0.4936	1496.21	0.78
298.15	0.6054	1535.92	0.78
298.15	0.7017	1563.25	0.78
298.15	0.7892	1584.01	0.79
298.15	0.8837	1603.53	0.8
298.15	0.9417	1614.53	0.81
303.15	0.0346	1039.06	2.21
303.15	0.0702	1117.03	2.04
303.15	0.1019	1173.82	1.42
303.15	0.2005	1301.67	1.18
303.15	0.3013	1387.64	0.92
303.15	0.4019	1448.47	0.82
303.15	0.4936	1490.49	0.77
303.15	0.6054	1530.27	0.77
303.15	0.7017	1557.56	0.77
303.15	0.7892	1578.31	0.78
303.15	0.8837	1597.77	0.8
303.15	0.9417	1608.73	0.8
308.15	0.0346	1034.61	2.2
308.15	0.0702	1112.31	2.03
308.15	0.1019	1168.88	1.41
308.15	0.2005	1296.29	1.17
308.15	0.3013	1382	0.92
308.15	0.4019	1442.76	0.82
308.15	0.4936	1484.76	0.77
308.15	0.6054	1524.46	0.77
308.15	0.7017	1551.74	0.77
308.15	0.7892	1572.48	0.78
308.15	0.8837	1591.9	0.79
308.15	0.9417	1602.85	0.8
313.15	0.0346	1030.07	2.19
313.15	0.0702	1107.55	2.02
313.15	0.1019	1163.92	1.41
313.15	0.2005	1290.93	1.16
313.15	0.3013	1376.36	0.91
313.15	0.4019	1437.05	0.81
313.15	0.4936	1479.01	0.76
313.15	0.6054	1518.66	0.76
313.15	0.7017	1545.92	0.76
313.15	0.7892	1566.59	0.77
313.15	0.8837	1586.02	0.78
313.15	0.9417	1596.97	0.79
318.15	0.0346	1025.51	2.19
318.15	0.0702	1102.79	2.01
318.15	0.1019	1158.98	1.4
318.15	0.2005	1285.66	1.16
318.15	0.3013	1370.82	0.91
318.15	0.4019	1431.35	0.81
318.15	0.4936	1473.23	0.76
318.15	0.6054	1512.83	0.76
318.15	0.7017	1540.03	0.76
318.15	0.7892	1560.7	0.76
318.15	0.8837	1580.13	0.78
318.15	0.9417	1591.09	0.79
323.15	0.0346	1020.95	2.18
323.15	0.0702	1098.01	2.01
323.15	0.1019	1154.06	1.42
323.15	0.2005	1280.5	1.16
323.15	0.3013	1365.36	0.9
323.15	0.4019	1425.68	0.8
323.15	0.4936	1467.47	0.75
323.15	0.6054	1507	0.75
323.15	0.7017	1534.14	0.75
323.15	0.7892	1554.81	0.76
323.15	0.8837	1574.24	0.77
323.15	0.9417	1585.21	0.78

System: N,N-dibutylformamide + 1-butyl-3-methylimidazolium tris(pentafluoroethyl)trifluorophosphate; phases: Liquid
Fixed: Pressure, kPa = 100
Property: Mass density, kg/m3 (Liquid); method: Vibrating tube method
Temperature, K	Mole fraction of 1-butyl-3-methylimidazolium tris(pentafluoroethyl)trifluorophosphate	Mass density, kg/m3	uncertainty
293.15	0.0344	928.73	1.36
293.15	0.0694	975.75	1.34
293.15	0.0908	1002.84	1.21
293.15	0.1509	1073.17	1.16
293.15	0.1983	1123.57	1.03
293.15	0.3053	1224.38	0.98
293.15	0.4013	1302.46	0.9
293.15	0.5001	1373.1	0.87
293.15	0.5949	1433.03	0.85
293.15	0.7025	1493.16	0.85
293.15	0.8049	1544.02	0.86
293.15	0.9051	1589.61	0.88
293.15	0.947	1607.82	0.89
298.15	0.0344	924.65	1.36
298.15	0.0694	971.59	1.34
298.15	0.0908	998.56	1.2
298.15	0.1509	1068.74	1.16
298.15	0.1983	1118.98	1.02
298.15	0.3053	1219.55	0.97
298.15	0.4013	1297.41	0.9
298.15	0.5001	1367.89	0.87
298.15	0.5949	1427.71	0.84
298.15	0.7025	1487.66	0.84
298.15	0.8049	1538.37	0.85
298.15	0.9051	1583.83	0.88
298.15	0.947	1602.08	0.89
303.15	0.0344	920.52	1.36
303.15	0.0694	967.39	1.33
303.15	0.0908	994.35	1.2
303.15	0.1509	1064.32	1.16
303.15	0.1983	1114.41	1.02
303.15	0.3053	1214.7	0.97
303.15	0.4013	1292.36	0.9
303.15	0.5001	1362.75	0.86
303.15	0.5949	1422.43	0.84
303.15	0.7025	1482.31	0.84
303.15	0.8049	1532.92	0.85
303.15	0.9051	1578.21	0.87
303.15	0.947	1596.37	0.88
308.15	0.0344	916.47	1.36
308.15	0.0694	963.19	1.33
308.15	0.0908	990.05	1.2
308.15	0.1509	1059.86	1.15
308.15	0.1983	1109.82	1.01
308.15	0.3053	1209.82	0.96
308.15	0.4013	1287.3	0.89
308.15	0.5001	1357.46	0.86
308.15	0.5949	1416.97	0.83
308.15	0.7025	1476.66	0.83
308.15	0.8049	1527.13	0.84
308.15	0.9051	1572.38	0.87
308.15	0.947	1590.48	0.88
313.15	0.0344	912.26	1.35
313.15	0.0694	958.86	1.33
313.15	0.0908	985.69	1.2
313.15	0.1509	1055.32	1.15
313.15	0.1983	1105.23	1.01
313.15	0.3053	1204.92	0.96
313.15	0.4013	1282.19	0.89
313.15	0.5001	1352.13	0.85
313.15	0.5949	1411.51	0.83
313.15	0.7025	1471.06	0.83
313.15	0.8049	1521.44	0.84
313.15	0.9051	1566.64	0.86
313.15	0.947	1584.75	0.87
318.15	0.0344	908.02	1.35
318.15	0.0694	954.53	1.32
318.15	0.0908	981.31	1.19
318.15	0.1509	1050.77	1.15
318.15	0.1983	1100.59	1
318.15	0.3053	1200.01	0.96
318.15	0.4013	1277.02	0.88
318.15	0.5001	1346.82	0.85
318.15	0.5949	1406.07	0.82
318.15	0.7025	1465.49	0.82
318.15	0.8049	1515.81	0.83
318.15	0.9051	1560.92	0.86
318.15	0.947	1578.93	0.86
323.15	0.0344	903.69	1.35
323.15	0.0694	950.13	1.32
323.15	0.0908	976.84	1.19
323.15	0.1509	1046.13	1.14
323.15	0.1983	1095.68	1.01
323.15	0.3053	1194.9	0.95
323.15	0.4013	1271.77	0.88
323.15	0.5001	1341.37	0.84
323.15	0.5949	1400.46	0.82
323.15	0.7025	1459.82	0.82
323.15	0.8049	1510.02	0.83
323.15	0.9051	1554.97	0.85
323.15	0.947	1573.01	0.86

System: N,N-dimethylethanamide + 1-butyl-3-methylimidazolium tris(pentafluoroethyl)trifluorophosphate; phases: Liquid
Fixed: Pressure, kPa = 100
Property: Mass density, kg/m3 (Liquid); method: Vibrating tube method
Temperature, K	Mole fraction of 1-butyl-3-methylimidazolium tris(pentafluoroethyl)trifluorophosphate	Mass density, kg/m3	uncertainty
293.15	0.0178	984.58	2.06
293.15	0.0671	1085.39	1.93
293.15	0.1007	1141.43	1.42
293.15	0.1937	1262.04	1.18
293.15	0.3006	1359.87	0.97
293.15	0.3995	1426.94	0.85
293.15	0.5041	1481.89	0.82
293.15	0.5544	1503.95	0.79
293.15	0.6039	1523.58	0.78
293.15	0.699	1556.2	0.79
293.15	0.8104	1587.98	0.81
293.15	0.8588	1600.09	0.81
293.15	0.9093	1611.9	0.82
293.15	0.9408	1618.79	0.82
298.15	0.0178	979.97	2.05
298.15	0.0671	1080.45	1.93
298.15	0.1007	1136.39	1.4
298.15	0.1937	1256.72	1.17
298.15	0.3006	1354.42	0.96
298.15	0.3995	1421.53	0.84
298.15	0.5041	1476.58	0.82
298.15	0.5544	1498.81	0.79
298.15	0.6039	1518.3	0.78
298.15	0.699	1550.76	0.78
298.15	0.8104	1582.2	0.8
298.15	0.8588	1594.19	0.8
298.15	0.9093	1605.85	0.81
298.15	0.9408	1612.7	0.82
303.15	0.0178	975.21	2.05
303.15	0.0671	1075.46	1.92
303.15	0.1007	1131.27	1.39
303.15	0.1937	1251.39	1.17
303.15	0.3006	1348.96	0.96
303.15	0.3995	1415.97	0.84
303.15	0.5041	1470.87	0.82
303.15	0.5544	1493.01	0.79
303.15	0.6039	1512.55	0.77
303.15	0.699	1545.23	0.78
303.15	0.8104	1576.69	0.8
303.15	0.8588	1588.6	0.8
303.15	0.9093	1600.18	0.8
303.15	0.9408	1607.01	0.81
308.15	0.0178	970.38	2.04
308.15	0.0671	1070.43	1.92
308.15	0.1007	1126.1	1.39
308.15	0.1937	1246.03	1.16
308.15	0.3006	1343.48	0.96
308.15	0.3995	1410.4	0.84
308.15	0.5041	1465.14	0.81
308.15	0.5544	1487.2	0.78
308.15	0.6039	1506.69	0.77
308.15	0.699	1539.19	0.77
308.15	0.8104	1570.7	0.79
308.15	0.8588	1582.65	0.79
308.15	0.9093	1594.29	0.8
308.15	0.9408	1601.19	0.8
313.15	0.0178	965.49	2.04
313.15	0.0671	1065.32	1.92
313.15	0.1007	1120.9	1.39
313.15	0.1937	1240.61	1.16
313.15	0.3006	1337.93	0.95
313.15	0.3995	1404.55	0.83
313.15	0.5041	1459.33	0.81
313.15	0.5544	1481.29	0.77
313.15	0.6039	1500.82	0.76
313.15	0.699	1533.27	0.77
313.15	0.8104	1564.79	0.79
313.15	0.8588	1576.79	0.79
313.15	0.9093	1588.45	0.79
313.15	0.9408	1595.31	0.8
318.15	0.0178	960.49	2.03
318.15	0.0671	1060.15	1.91
318.15	0.1007	1115.62	1.38
318.15	0.1937	1235.12	1.16
318.15	0.3006	1332.08	0.95
318.15	0.3995	1398.83	0.83
318.15	0.5041	1453.59	0.8
318.15	0.5544	1475.58	0.77
318.15	0.6039	1495.06	0.76
318.15	0.699	1527.42	0.76
318.15	0.8104	1558.89	0.78
318.15	0.8588	1570.89	0.78
318.15	0.9093	1582.5	0.79
318.15	0.9408	1589.39	0.79
323.15	0.0178	955.45	2.03
323.15	0.0671	1054.92	1.9
323.15	0.1007	1110.29	1.4
323.15	0.1937	1229.57	1.16
323.15	0.3006	1326.56	0.95
323.15	0.3995	1393.16	0.82
323.15	0.5041	1447.73	0.8
323.15	0.5544	1469.76	0.76
323.15	0.6039	1489.13	0.75
323.15	0.699	1521.48	0.76
323.15	0.8104	1552.85	0.77
323.15	0.8588	1564.8	0.77
323.15	0.9093	1576.5	0.78
323.15	0.9408	1583.41	0.79
