Measured thermophysical data. Solubilities of Benzoic Acid in Binary Methylbenzene + Benzyl Alcohol and Methylbenzene + Benzaldehyde Solvent Mixtures
Source: J. Chem. Eng. Data, 2015, 10.1021/je500775r
Compound 1: benzoic acid, C7H6O2, InChI=1S/C7H6O2/c8-7(9)6-4-2-1-3-5-6/h1-5H,(H,8,9), purity 99.9%
Compound 2: toluene, C7H8, InChI=1S/C7H8/c1-7-5-3-2-4-6-7/h2-6H,1H3, purity 99.9%
Compound 3: benzenemethanol, C7H8O, InChI=1S/C7H8O/c8-6-7-4-2-1-3-5-7/h1-5,8H,6H2, purity 99.9%
Compound 4: benzaldehyde, C7H6O, InChI=1S/C7H6O/c8-6-7-4-2-1-3-5-7/h1-6H, purity 99.9%
Compound 5: water, H2O, InChI=1S/H2O/h1H2, purity 99.9%

System: benzoic acid + water; phases: Liquid, Crystal
Fixed: Pressure, kPa = 101.3
Property: Mass ratio of solute to solvent of benzoic acid (Liquid); method: laser detecting system
Temperature, K	Mass ratio of solute to solvent of benzoic acid	uncertainty
298.85	0.00337	0.00027
305.95	0.00431	0.00035
312.85	0.0054	0.00043
319.35	0.00679	0.00054
323.25	0.00826	0.00066
329.55	0.01026	0.00082
335.25	0.01271	0.00102
340.25	0.0156	0.00125

System: benzoic acid + benzenemethanol + toluene; phases: Liquid, Crystal
Fixed: Pressure, kPa = 101.3
Property: Mass ratio of solute to solvent of benzoic acid (Liquid); method: laser-detecting system
Solvent: Mass fraction of benzenemethanol	Temperature, K	Mass ratio of solute to solvent of benzoic acid	uncertainty
0	301.05	0.1133	0.0091
0	306.05	0.1333	0.0107
0	311.75	0.1632	0.0131
0	316.95	0.1997	0.016
0	322.65	0.2462	0.0197
0	328.25	0.303	0.0243
0	334.55	0.3807	0.0305
0	339.85	0.4781	0.0383
0	344.65	0.5899	0.0473
0	348.25	0.7169	0.0575
0	351.35	0.8633	0.0693
0	354.05	1.0278	0.0825
0.2	303.35	0.197	0.0158
0.2	307.45	0.2192	0.0176
0.2	312.75	0.2535	0.0203
0.2	317.35	0.2977	0.0238
0.2	321.75	0.3481	0.0279
0.2	327.85	0.4179	0.0335
0.2	333.05	0.5025	0.0402
0.2	338.55	0.6026	0.0483
0.2	343.35	0.7211	0.0578
0.2	348.75	0.8575	0.0687
0.4	301.55	0.226	0.0181
0.4	304.85	0.2506	0.0201
0.4	310.05	0.2855	0.0229
0.4	316.65	0.3443	0.0276
0.4	323.05	0.4242	0.034
0.4	330.95	0.5272	0.0422
0.4	337.55	0.6489	0.052
0.4	343.45	0.7909	0.0634
0.4	348.25	0.9521	0.0763
0.4	353.45	1.1347	0.0909
0.6	303.35	0.2599	0.0208
0.6	307.35	0.2844	0.0228
0.6	311.55	0.32	0.0256
0.6	317.45	0.3769	0.0302
0.6	323.45	0.4467	0.0358
0.6	329.15	0.5266	0.0422
0.6	334.55	0.6189	0.0496
0.6	339.65	0.7273	0.0583
0.6	344.25	0.8473	0.0679
0.6	348.95	0.9773	0.0783
0.8	307.85	0.2677	0.0214
0.8	310.45	0.2907	0.0233
0.8	314.25	0.3356	0.0269
0.8	318.85	0.3998	0.032
0.8	323.85	0.4704	0.0377
0.8	328.55	0.5522	0.0442
0.8	333.25	0.6445	0.0516
0.8	338.35	0.7473	0.0598
0.8	343.55	0.8702	0.0697
0.8	349.75	1.0128	0.0811
1	306.35	0.2978	0.0238
1	309.05	0.3157	0.0253
1	312.75	0.34	0.0272
1	316.25	0.3738	0.0299
1	321.75	0.4232	0.0339
1	327.45	0.4848	0.0388
1	332.85	0.5529	0.0443
1	338.55	0.6428	0.0515
1	343.05	0.7326	0.0587
1	347.25	0.8291	0.0664
1	351.75	0.9414	0.0754
1	355.65	1.0642	0.0852

System: benzoic acid + benzaldehyde + toluene; phases: Liquid, Crystal
Fixed: Pressure, kPa = 101.3
Property: Mass ratio of solute to solvent of benzoic acid (Liquid); method: laser-detecting system
Solvent: Mass fraction of benzaldehyde	Temperature, K	Mass ratio of solute to solvent of benzoic acid	uncertainty
0	301.05	0.1133	0.0091
0	306.05	0.1333	0.0107
0	311.75	0.1632	0.0131
0	316.95	0.1997	0.016
0	323.35	0.2462	0.0197
0	330.25	0.303	0.0243
0	336.55	0.3807	0.0305
0	340.75	0.4781	0.0383
0	344.65	0.5899	0.0473
0	348.25	0.7169	0.0575
0	351.35	0.8633	0.0693
0	354.05	1.0278	0.0825
0.2	307.95	0.1346	0.0108
0.2	312.85	0.1594	0.0128
0.2	317.25	0.1987	0.0159
0.2	321.85	0.2492	0.02
0.2	326.75	0.3176	0.0255
0.2	332.25	0.4014	0.0322
0.2	337.25	0.5078	0.0407
0.2	342.35	0.6355	0.051
0.2	346.95	0.7864	0.063
0.2	351.65	0.9588	0.0768
0.4	307.75	0.1047	0.0084
0.4	312.65	0.1287	0.0103
0.4	317.45	0.172	0.0138
0.4	323.85	0.2339	0.0188
0.4	329.65	0.3183	0.0255
0.4	335.25	0.4219	0.0338
0.4	340.45	0.5423	0.0435
0.4	345.55	0.6759	0.0542
0.4	349.75	0.8243	0.0661
0.4	352.95	0.9885	0.0792
0.6	307.35	0.097	0.0078
0.6	312.35	0.1214	0.0097
0.6	317.95	0.1627	0.0131
0.6	324.25	0.2236	0.0179
0.6	329.25	0.2995	0.024
0.6	337.45	0.3946	0.0316
0.6	342.25	0.506	0.0406
0.6	346.65	0.6279	0.0503
0.6	350.75	0.7584	0.0608
0.6	354.45	0.9035	0.0724
0.8	305.35	0.0651	0.0052
0.8	310.65	0.0915	0.0073
0.8	316.75	0.1331	0.0107
0.8	322.35	0.1863	0.0149
0.8	327.95	0.2499	0.02
0.8	333.35	0.3307	0.0265
0.8	338.35	0.4257	0.0341
0.8	343.35	0.5266	0.0422
0.8	348.25	0.6469	0.0518
0.8	352.75	0.7883	0.0632
1	307.45	0.0564	0.0045
1	310.95	0.0739	0.0059
1	315.05	0.0999	0.008
1	319.35	0.1321	0.0106
1	322.95	0.1709	0.0137
1	327.05	0.2195	0.0176
1	331.65	0.2763	0.0222
1	334.95	0.3397	0.0272
1	339.55	0.4127	0.0331
1	343.35	0.4916	0.0394
1	347.35	0.5791	0.0464
1	350.55	0.6741	0.054

System: benzoic acid + toluene; phases: Liquid, Crystal
Fixed: Pressure, kPa = 101.3
Property: Mass ratio of solute to solvent of benzoic acid (Liquid); method: laser-detecting system
Temperature, K	Mass ratio of solute to solvent of benzoic acid	uncertainty
301.05	0.1133	0.0091
306.05	0.1317	0.0105
311.75	0.1616	0.0129
316.95	0.1981	0.0159
323.35	0.2446	0.0196
330.25	0.3014	0.0241
336.55	0.3791	0.0304
340.75	0.4765	0.0382
344.65	0.5882	0.0472
348.25	0.7153	0.0574
351.35	0.8616	0.0692
354.05	1.026	0.082
306.05	0.1333	0.0107
311.75	0.1632	0.0131
316.95	0.1997	0.016
322.65	0.2462	0.0197
328.25	0.303	0.0243
334.55	0.3807	0.0305
339.85	0.4781	0.0383
344.65	0.5899	0.0473
348.25	0.7169	0.0575
351.35	0.8633	0.0693
354.05	1.0278	0.0825
323.35	0.2462	0.0197
330.25	0.303	0.0243
336.55	0.3807	0.0305
340.75	0.4781	0.0383

System: benzoic acid + benzenemethanol; phases: Liquid, Crystal
Fixed: Pressure, kPa = 101.3
Property: Mass ratio of solute to solvent of benzoic acid (Liquid); method: laser-detecting system
Temperature, K	Mass ratio of solute to solvent of benzoic acid	uncertainty
306.35	0.2978	0.0238
309.05	0.3157	0.0253
312.75	0.34	0.0272
316.25	0.3738	0.0299
321.75	0.4232	0.0339
327.45	0.4848	0.0388
332.85	0.5529	0.0443
338.55	0.6428	0.0515
343.05	0.7326	0.0587
347.25	0.8291	0.0664
351.75	0.9414	0.0754
355.65	1.0642	0.0852

System: benzoic acid + benzaldehyde; phases: Liquid, Crystal
Fixed: Pressure, kPa = 101.3
Property: Mass ratio of solute to solvent of benzoic acid (Liquid); method: laser-detecting system
Temperature, K	Mass ratio of solute to solvent of benzoic acid	uncertainty
307.45	0.0564	0.0045
310.95	0.0739	0.0059
315.05	0.0999	0.008
319.35	0.1321	0.0106
322.95	0.1709	0.0137
327.05	0.2195	0.0176
331.65	0.2763	0.0222
334.95	0.3397	0.0272
339.55	0.4127	0.0331
343.35	0.4916	0.0394
347.35	0.5791	0.0464
350.55	0.6741	0.054
