Measured thermophysical data. Tetrabutylammonium Chloride Based Ionic Liquid Analogues and Their Physical Properties
Source: J. Chem. Eng. Data, 2014, 10.1021/je5002126
Compound 1: tetrabutylammonium chloride, C16H36ClN, InChI=1S/C16H36N.ClH/c1-5-9-13-17(14-10-6-2,15-11-7-3)16-12-8-4;/h5-16H2,1-4H3;1H/q+1;/p-1, purity 98%
Compound 2: glycerol, C3H8O3, InChI=1S/C3H8O3/c4-1-3(6)2-5/h3-6H,1-2H2, purity 98%
Compound 3: 1,2-ethanediol, C2H6O2, InChI=1S/C2H6O2/c3-1-2-4/h3-4H,1-2H2, purity 98%
Compound 4: triethylene glycol, C6H14O4, InChI=1S/C6H14O4/c7-1-3-9-5-6-10-4-2-8/h7-8H,1-6H2, purity 98%

System: glycerol + tetrabutylammonium chloride; phases: Liquid
Fixed: Pressure, kPa = 101
Property: Mass density, kg/m3 (Liquid); method: Vibrating tube method
Temperature, K	Mole fraction of tetrabutylammonium chloride	Mass density, kg/m3	uncertainty
293.15	0.25	1014	1
303.15	0.25	1008	1
313.15	0.25	1001	1
323.15	0.25	995	1
333.15	0.25	988	1
343.15	0.25	982	1
353.15	0.25	976	1
293.15	0.2	1029	1
303.15	0.2	1023	1
313.15	0.2	1017	1
323.15	0.2	1010	10
333.15	0.2	1004	1
343.15	0.2	997	1
353.15	0.2	991	1
293.15	0.167	1040	10
303.15	0.167	1034	1
313.15	0.167	1027	1
323.15	0.167	1020	10
333.15	0.167	1014	1
343.15	0.167	1007	1
353.15	0.167	1000	1

System: glycerol + tetrabutylammonium chloride; phases: Liquid
Fixed: Pressure, kPa = 101
Property: Viscosity, Pa*s (Liquid); method: Concentric cylinders viscometry
Temperature, K	Mole fraction of tetrabutylammonium chloride	Viscosity, Pa*s	uncertainty
293.15	0.25	1.17	0.1266
303.15	0.25	0.58	0.0615
313.15	0.25	0.2933	0.0305
323.15	0.25	0.157	0.0161
333.15	0.25	0.0907	0.0092
343.15	0.25	0.0567	0.0057
353.15	0.25	0.0367	0.0037
293.15	0.2	0.95	0.1022
303.15	0.2	0.4761	0.0502
313.15	0.2	0.225	0.0233
323.15	0.2	0.1157	0.0118
333.15	0.2	0.0647	0.0065
343.15	0.2	0.0419	0.0042
353.15	0.2	0.025	0.0025
293.15	0.167	1.1	0.1187
303.15	0.167	0.5413	0.0573
313.15	0.167	0.261	0.0271
323.15	0.167	0.1373	0.014
333.15	0.167	0.0784	0.0079
343.15	0.167	0.0476	0.0048
353.15	0.167	0.032	0.0032

System: glycerol + tetrabutylammonium chloride; phases: Liquid
Fixed: Pressure, kPa = 101
Property: Electrical conductivity, S/m (Liquid); method: Alternating current cell with electrodes
Temperature, K	Mole fraction of tetrabutylammonium chloride	Electrical conductivity, S/m	uncertainty
293.15	0.25	0.01696	0.00068
303.15	0.25	0.0309	0.0012
313.15	0.25	0.0485	0.0019
323.15	0.25	0.0781	0.0031
333.15	0.25	0.1172	0.0047
343.15	0.25	0.151	0.006
353.15	0.25	0.24	0.0096
293.15	0.2	0.01921	0.00077
303.15	0.2	0.0358	0.0014
313.15	0.2	0.0525	0.0021
323.15	0.2	0.0863	0.0035
333.15	0.2	0.131	0.0052
343.15	0.2	0.182	0.0073
353.15	0.2	0.264	0.0106
293.15	0.167	0.01618	0.00065
303.15	0.167	0.0307	0.0012
313.15	0.167	0.0492	0.002
323.15	0.167	0.0788	0.0032
333.15	0.167	0.1135	0.0045
343.15	0.167	0.141	0.0056
353.15	0.167	0.222	0.0089

System: glycerol + tetrabutylammonium chloride; phases: Liquid, Air at 1 atmosphere
Property: Surface tension liquid-gas, N/m (Liquid); method: Ring tensiometer
Temperature, K	Mole fraction of tetrabutylammonium chloride	Surface tension liquid-gas, N/m	uncertainty
303.15	0.25	0.046	0.001
313.15	0.25	0.0449	0.0012
323.15	0.25	0.0441	0.0012
333.15	0.25	0.0434	0.0012
343.15	0.25	0.0427	0.0012
353.15	0.25	0.0419	0.0012
303.15	0.2	0.0467	0.0012
313.15	0.2	0.0459	0.0012
323.15	0.2	0.0449	0.0012
333.15	0.2	0.0441	0.0012
343.15	0.2	0.0435	0.0012
353.15	0.2	0.0429	0.0012
303.15	0.167	0.0471	0.0012
313.15	0.167	0.0462	0.0012
323.15	0.167	0.0455	0.0012
333.15	0.167	0.045	0.001
343.15	0.167	0.0442	0.0012
353.15	0.167	0.0435	0.0012

System: glycerol + tetrabutylammonium chloride; phases: Liquid
Fixed: Pressure, kPa = 101
Property: Refractive index (Na D-line) (Liquid); method: Standard Abbe refractometry
Temperature, K	Mole fraction of tetrabutylammonium chloride	Refractive index (Na D-line)	uncertainty
293.15	0.25	1.4802	0.0021
303.15	0.25	1.4774	0.0021
313.15	0.25	1.4745	0.0021
323.15	0.25	1.4716	0.0021
333.15	0.25	1.4685	0.0021
343.15	0.25	1.4652	0.0021
353.15	0.25	1.462	0.0021
293.15	0.2	1.4776	0.0021
303.15	0.2	1.4747	0.0021
313.15	0.2	1.4718	0.0021
323.15	0.2	1.4687	0.0021
333.15	0.2	1.4658	0.0021
343.15	0.2	1.4626	0.0021
353.15	0.2	1.4603	0.0021
293.15	0.167	1.4781	0.0021
303.15	0.167	1.4754	0.0021
313.15	0.167	1.4726	0.0021
323.15	0.167	1.4697	0.0021
333.15	0.167	1.4668	0.0021
343.15	0.167	1.4638	0.0021
353.15	0.167	1.4607	0.0021

System: 1,2-ethanediol + tetrabutylammonium chloride; phases: Liquid
Fixed: Pressure, kPa = 101
Property: Mass density, kg/m3 (Liquid); method: Vibrating tube method
Temperature, K	Mole fraction of tetrabutylammonium chloride	Mass density, kg/m3	uncertainty
293.15	0.333	1105	1.4
303.15	0.333	1099	1.4
313.15	0.333	1092	1.4
323.15	0.333	1086	1.4
333.15	0.333	1079	1.4
343.15	0.333	1073	1.4
353.15	0.333	1067	1.3
293.15	0.25	1130	1.4
303.15	0.25	1123	1.4
313.15	0.25	1117	1.4
323.15	0.25	1110	1.4
333.15	0.25	1104	1.4
343.15	0.25	1097	1.4
353.15	0.25	1091	1.4
293.15	0.2	1145	1.4
303.15	0.2	1138	1.4
313.15	0.2	1132	1.4
323.15	0.2	1125	1.4
333.15	0.2	1119	1.4
343.15	0.2	1112	1.4
353.15	0.2	1106	1.4

System: 1,2-ethanediol + tetrabutylammonium chloride; phases: Liquid
Fixed: Pressure, kPa = 101
Property: Viscosity, Pa*s (Liquid); method: Concentric cylinders viscometry
Temperature, K	Mole fraction of tetrabutylammonium chloride	Viscosity, Pa*s	uncertainty
293.15	0.333	0.212	0.02171
303.15	0.333	0.127	0.01292
313.15	0.333	0.07643	0.00773
323.15	0.333	0.0493	0.00498
333.15	0.333	0.0336	0.00339
343.15	0.333	0.02353	0.00237
353.15	0.333	0.016	0.00162
293.15	0.25	0.105	0.01065
303.15	0.25	0.0719	0.00726
313.15	0.25	0.04517	0.00456
323.15	0.25	0.02937	0.00296
333.15	0.25	0.02023	0.00204
343.15	0.25	0.01453	0.00146
353.15	0.25	0.0107	0.00108
293.15	0.2	0.08533	0.00861
303.15	0.2	0.0569	0.00574
313.15	0.2	0.03716	0.00375
323.15	0.2	0.02627	0.00265
333.15	0.2	0.0197	0.00198
343.15	0.2	0.01485	0.0015
353.15	0.2	0.0105	0.00106

System: 1,2-ethanediol + tetrabutylammonium chloride; phases: Liquid
Fixed: Pressure, kPa = 101
Property: Electrical conductivity, S/m (Liquid); method: Alternating current cell with electrodes
Temperature, K	Mole fraction of tetrabutylammonium chloride	Electrical conductivity, S/m	uncertainty
293.15	0.333	9.91e-05	4e-06
303.15	0.333	0.000139	6e-06
313.15	0.333	0.00022	1e-05
323.15	0.333	0.00026	1e-05
333.15	0.333	0.000375	1.5e-05
343.15	0.333	0.000385	1.5e-05
353.15	0.333	0.000468	1.9e-05
293.15	0.25	0.0001538	6.2e-06
303.15	0.25	0.000214	9e-06
313.15	0.25	0.000293	1.2e-05
323.15	0.25	0.000387	1.5e-05
333.15	0.25	0.000457	1.8e-05
343.15	0.25	0.000567	2.3e-05
353.15	0.25	0.00062	3e-05
293.15	0.2	0.000202	8e-06
303.15	0.2	0.000272	1.1e-05
313.15	0.2	0.000354	1.4e-05
323.15	0.2	0.00045	2e-05
333.15	0.2	0.000521	2.1e-05
343.15	0.2	0.000615	2.5e-05
353.15	0.2	0.000722	2.9e-05

System: 1,2-ethanediol + tetrabutylammonium chloride; phases: Liquid, Air at 1 atmosphere
Property: Surface tension liquid-gas, N/m (Liquid); method: Ring tensiometer
Temperature, K	Mole fraction of tetrabutylammonium chloride	Surface tension liquid-gas, N/m	uncertainty
303.15	0.333	0.0393	0.0012
313.15	0.333	0.0383	0.0012
323.15	0.333	0.0372	0.0012
333.15	0.333	0.0366	0.0012
343.15	0.333	0.0357	0.0012
353.15	0.333	0.0349	0.0011
303.15	0.25	0.0401	0.0012
313.15	0.25	0.0394	0.0012
323.15	0.25	0.0383	0.0012
333.15	0.25	0.0375	0.0012
343.15	0.25	0.0368	0.0012
353.15	0.25	0.0361	0.0012
303.15	0.2	0.0407	0.0012
313.15	0.2	0.0399	0.0012
323.15	0.2	0.0391	0.0012
333.15	0.2	0.0383	0.0012
343.15	0.2	0.0375	0.0012
353.15	0.2	0.0368	0.0012

System: 1,2-ethanediol + tetrabutylammonium chloride; phases: Liquid
Fixed: Pressure, kPa = 101
Property: Refractive index (Na D-line) (Liquid); method: Standard Abbe refractometry
Temperature, K	Mole fraction of tetrabutylammonium chloride	Refractive index (Na D-line)	uncertainty
293.15	0.333	1.4703	0.0021
303.15	0.333	1.4672	0.0021
313.15	0.333	1.4641	0.0021
323.15	0.333	1.4609	0.0021
333.15	0.333	1.4578	0.0021
343.15	0.333	1.4545	0.0021
353.15	0.333	1.4509	0.0021
293.15	0.25	1.4653	0.0021
303.15	0.25	1.4619	0.0021
313.15	0.25	1.4587	0.0021
323.15	0.25	1.4556	0.0021
333.15	0.25	1.4525	0.0021
343.15	0.25	1.4495	0.0021
353.15	0.25	1.4469	0.0021
293.15	0.2	1.4615	0.0021
303.15	0.2	1.4585	0.0021
313.15	0.2	1.4554	0.0021
323.15	0.2	1.4523	0.0021
333.15	0.2	1.4491	0.0021
343.15	0.2	1.445	0.002
353.15	0.2	1.4427	0.0021

System: triethylene glycol + tetrabutylammonium chloride; phases: Liquid
Fixed: Pressure, kPa = 101
Property: Mass density, kg/m3 (Liquid); method: Vibrating tube method
Temperature, K	Mole fraction of tetrabutylammonium chloride	Mass density, kg/m3	uncertainty
293.15	0.5	1027	1
303.15	0.5	1021	1
313.15	0.5	1015	1
323.15	0.5	1009	1
333.15	0.5	1003	1
343.15	0.5	997	1
353.15	0.5	991	1
293.15	0.667	1007	1
303.15	0.667	1001	1
313.15	0.667	995	1
323.15	0.667	989	1
333.15	0.667	983	1
343.15	0.667	976	1
353.15	0.667	970	10
293.15	0.75	996	1
303.15	0.75	990	10
313.15	0.75	984	1
323.15	0.75	978	1
333.15	0.75	972	1
343.15	0.75	966	1
353.15	0.75	960	10
293.15	0.8	990	10
303.15	0.8	985	1
313.15	0.8	980	10
323.15	0.8	973	1
333.15	0.8	968	1
343.15	0.8	961	1
353.15	0.8	955	1

System: triethylene glycol + tetrabutylammonium chloride; phases: Liquid
Fixed: Pressure, kPa = 101
Property: Viscosity, Pa*s (Liquid); method: Concentric cylinders viscometry
Temperature, K	Mole fraction of tetrabutylammonium chloride	Viscosity, Pa*s	uncertainty
293.15	0.5	0.87	0.0929
303.15	0.5	0.5438	0.0573
313.15	0.5	0.2894	0.03
323.15	0.5	0.1664	0.017
333.15	0.5	0.1008	0.0102
343.15	0.5	0.0681	0.0069
353.15	0.5	0.0447	0.0045
303.15	0.667	1.399	0.1529
313.15	0.667	0.9522	0.1024
323.15	0.667	0.493	0.0519
333.15	0.667	0.2641	0.0273
343.15	0.667	0.154	0.0157
353.15	0.667	0.0913	0.0092
313.15	0.75	7.0317	0.8274
323.15	0.75	0.9091	0.1172
333.15	0.75	0.4521	0.0475
343.15	0.75	0.2447	0.0252
353.15	0.75	0.1556	0.016
303.15	0.8	3.2653	0.3695
313.15	0.8	1.9004	0.2114
323.15	0.8	0.8629	0.093
333.15	0.8	0.4112	0.0432
343.15	0.8	0.2045	0.0211
353.15	0.8	0.0999	0.0103

System: triethylene glycol + tetrabutylammonium chloride; phases: Liquid
Fixed: Pressure, kPa = 101
Property: Electrical conductivity, S/m (Liquid); method: Alternating current cell with electrodes
Temperature, K	Mole fraction of tetrabutylammonium chloride	Electrical conductivity, S/m	uncertainty
293.15	0.5	0.01389	0.00056
303.15	0.5	0.0228	0.0009
313.15	0.5	0.0376	0.0015
323.15	0.5	0.055	0.0022
333.15	0.5	0.0805	0.0032
343.15	0.5	0.11	0.0044
353.15	0.5	0.1474	0.0059
293.15	0.667	0.00681	0.00027
303.15	0.667	0.01493	0.0006
313.15	0.667	0.0284	0.0011
323.15	0.667	0.0458	0.0018
333.15	0.667	0.0676	0.0027
343.15	0.667	0.0842	0.0034
353.15	0.667	0.092	0.0037
293.15	0.75	0.002208	8.8e-05
303.15	0.75	0.005	0.0002
313.15	0.75	0.0097	0.0004
323.15	0.75	0.0154	0.0006
333.15	0.75	0.0217	0.0009
343.15	0.75	0.0282	0.0011
353.15	0.75	0.0319	0.0013
293.15	0.8	0.001782	7.1e-05
303.15	0.8	0.0047	0.0002
313.15	0.8	0.0108	0.0004
323.15	0.8	0.0214	0.0009
333.15	0.8	0.0252	0.001
343.15	0.8	0.0262	0.001
353.15	0.8	0.0273	0.0011

System: triethylene glycol + tetrabutylammonium chloride; phases: Liquid, Air at 1 atmosphere
Property: Surface tension liquid-gas, N/m (Liquid); method: Ring tensiometer
Temperature, K	Mole fraction of tetrabutylammonium chloride	Surface tension liquid-gas, N/m	uncertainty
303.15	0.5	0.0406	0.0012
313.15	0.5	0.0395	0.0012
323.15	0.5	0.0388	0.0012
333.15	0.5	0.0382	0.0012
343.15	0.5	0.0376	0.0012
353.15	0.5	0.037	0.001
303.15	0.667	0.0401	0.0012
313.15	0.667	0.0386	0.0012
323.15	0.667	0.038	0.001
333.15	0.667	0.0374	0.0012
343.15	0.667	0.0364	0.0012
353.15	0.667	0.0356	0.0012
303.15	0.75	0.0393	0.0012
313.15	0.75	0.0383	0.0012
323.15	0.75	0.0372	0.0012
333.15	0.75	0.0366	0.0012
343.15	0.75	0.0357	0.0012
353.15	0.75	0.0349	0.0011
303.15	0.8	0.04	0.001
313.15	0.8	0.0384	0.0012
323.15	0.8	0.0373	0.0012
333.15	0.8	0.0365	0.0012
343.15	0.8	0.0356	0.0012
353.15	0.8	0.0346	0.0011

System: triethylene glycol + tetrabutylammonium chloride; phases: Liquid
Fixed: Pressure, kPa = 101
Property: Refractive index (Na D-line) (Liquid); method: Standard Abbe refractometry
Temperature, K	Mole fraction of tetrabutylammonium chloride	Refractive index (Na D-line)	uncertainty
293.15	0.5	1.48	0.01
303.15	0.5	1.4772	0.0021
313.15	0.5	1.4742	0.0021
323.15	0.5	1.4711	0.0021
333.15	0.5	1.4678	0.0021
343.15	0.5	1.4646	0.0021
353.15	0.5	1.4614	0.0021
293.15	0.667	1.4851	0.0021
303.15	0.667	1.4821	0.0021
313.15	0.667	1.479	0.002
323.15	0.667	1.476	0.002
333.15	0.667	1.4731	0.0021
343.15	0.667	1.4701	0.0021
353.15	0.667	1.4673	0.0021
293.15	0.75	1.4858	0.0021
303.15	0.75	1.4836	0.0021
313.15	0.75	1.4806	0.0021
323.15	0.75	1.4777	0.0021
333.15	0.75	1.4747	0.0021
343.15	0.75	1.4717	0.0021
353.15	0.75	1.4686	0.0021
293.15	0.8	1.4871	0.0021
303.15	0.8	1.4841	0.0021
313.15	0.8	1.4811	0.0021
323.15	0.8	1.4781	0.0021
333.15	0.8	1.4752	0.0021
343.15	0.8	1.4722	0.0021
353.15	0.8	1.4692	0.0021
