Measured thermophysical data. Speed of Sound Measurements in Ethanol and Benzene over the Temperature Range from (253.2 to 353.2) K at Pressures up to 30 MPa
Source: J. Chem. Eng. Data, 2015, 10.1021/je501065g
Compound 1: ethanol, C2H6O, InChI=1S/C2H6O/c1-2-3/h3H,2H2,1H3
Compound 2: benzene, C6H6, InChI=1S/C6H6/c1-2-4-6-5-3-1/h1-6H

System: ethanol; phases: Liquid
Property: Speed of sound, m/s (Liquid); method: Pulse-echo method
Pressure, kPa	Temperature, K	Speed of sound, m/s	uncertainty
30113.5	253.223	1444.78	0.76
24920.6	253.221	1422.9	0.75
20403.4	253.221	1402.94	0.74
15229.3	253.221	1379.41	0.73
10245.9	253.221	1355.82	0.72
5283.4	253.221	1331.49	0.71
104.2	253.221	1304.82	0.7
30202.9	273.204	1381.57	0.73
25221	273.203	1359.31	0.72
20253	273.203	1336.04	0.72
15284.4	273.203	1311.72	0.7
10100.1	273.203	1285.41	0.7
5193.3	273.203	1259.26	0.69
99.901	273.203	1230.84	0.67
30068.8	293.204	1321.4	0.7
25256.4	293.204	1298.55	0.7
20222.1	293.203	1273.42	0.69
15196.9	293.204	1247.21	0.68
10367.9	293.204	1220.84	0.66
5339.4	293.204	1191.95	0.65
103.7	293.204	1160.02	0.63
30383.6	313.208	1266.85	0.68
25383.2	313.207	1241.6	0.67
20316.7	313.207	1214.8	0.66
15237.9	313.206	1186.56	0.65
10351.1	313.207	1157.83	0.64
5318.6	313.207	1126.47	0.62
103.8	313.207	1091.91	0.61
30214.1	333.207	1212.32	0.66
25377.1	333.206	1186.4	0.65
20181.3	333.206	1157.08	0.64
15294.3	333.206	1127.88	0.62
10228.4	333.206	1095.91	0.61
5212.7	333.206	1062.1	0.6
104.1	333.206	1024.91	0.59
30289	353.206	1160.47	0.63
25249.8	353.206	1131.76	0.62
20272.6	353.206	1101.73	0.61
15210.9	353.206	1069.36	0.6
10319.2	353.206	1035.89	0.58
5006	353.206	996.7611	0.5694
103.5	353.204	957.7319	0.5539
30052	253.226	1444.46	0.76
25022.3	253.224	1423.58	0.75
19990.7	253.223	1401.38	0.74
15106.2	253.225	1379.06	0.73
10111.9	253.225	1355.38	0.72
5018.8	253.225	1330.44	0.71
130.2	253.225	1305.11	0.7
30338.5	273.208	1382.25	0.73
25058.5	273.205	1358.75	0.72
20069.8	273.206	1335.23	0.71
15029.4	273.206	1310.76	0.7
10148.2	273.206	1285.83	0.7
5026.6	273.206	1258.54	0.68
128.6	273.206	1231.07	0.67
30268.1	293.207	1322.46	0.71
25034.4	293.206	1297.52	0.69
20101.4	293.206	1272.93	0.68
15051.6	293.206	1246.58	0.67
9977.3	293.206	1218.73	0.66
5169	293.207	1191.02	0.65
140	293.207	1160.43	0.63
30116.2	313.213	1265.63	0.68
25162.6	313.213	1240.51	0.67
20051.6	313.213	1213.46	0.66
14993.3	313.213	1185.13	0.64
10011.1	313.213	1155.8	0.63
5023.3	313.213	1124.67	0.62
121.8	313.212	1092.27	0.61
30028.4	333.215	1211.35	0.66
24959.3	333.214	1184.2	0.64
19953.8	333.215	1155.86	0.63
15024.9	333.214	1126.4	0.62
10089.6	333.214	1095.04	0.61
5087.6	333.214	1061.23	0.6
137.3	333.214	1025.23	0.59
30102.1	353.213	1159.45	0.63
25007.1	353.212	1130.47	0.62
20108.2	353.212	1100.89	0.61
15035	353.212	1068.32	0.6
10088.8	353.212	1034.43	0.58
5137.5	353.213	997.7471	0.5699
132.1	353.213	957.5929	0.554

System: benzene; phases: Liquid
Property: Speed of sound, m/s (Liquid); method: Pulse-echo method
Pressure, kPa	Temperature, K	Speed of sound, m/s	uncertainty
29815.1	283.206	1498.11	0.89
24857	283.203	1479.03	0.88
20203.8	283.204	1460.21	0.87
15331.8	283.204	1439.87	0.86
10233.8	283.203	1418.25	0.85
5280.1	283.204	1395.99	0.84
102.1	283.204	1372.03	0.83
30106.1	298.201	1436.88	0.86
25017.8	298.2	1415.76	0.85
20104.1	298.201	1394.27	0.84
14866.5	298.2	1371.03	0.83
10068.6	298.2	1349.48	0.82
5421.7	298.2	1326.99	0.81
84.199	298.2	1299.74	0.79
29980	313.203	1375.67	0.83
25204.4	313.202	1354.82	0.82
20194.5	313.203	1332.15	0.81
15331.6	313.203	1309.02	0.8
10140	313.203	1283.5	0.78
5536.5	313.203	1259.76	0.77
61.201	313.203	1230.41	0.76
30145.6	333.207	1299.17	0.79
24756.4	333.206	1273.95	0.78
19600.7	333.206	1248.51	0.77
15038.4	333.206	1225.05	0.76
10149.2	333.206	1198.3	0.74
5378.8	333.206	1171.44	0.73
153.7	333.206	1139.68	0.72
30063	353.206	1225.96	0.76
24679.7	353.206	1198.74	0.74
19917.5	353.205	1173.19	0.73
15092.2	353.205	1146.64	0.72
10006.9	353.206	1116.2	0.7
5094.9	353.206	1084.94	0.69
172.3	353.206	1052.25	0.68
