Measured thermophysical data. Vapor-Phase (p, n, T, x) Behavior and Virial Coefficients for the (Methane + Propane) System
Source: J. Chem. Eng. Data, 2014, 10.1021/je500792x
Compound 1: methane, CH4, InChI=1S/CH4/h1H4, purity 99.999%
Compound 2: propane, C3H8, InChI=1S/C3H8/c1-3-2/h3H2,1-2H3, purity 99.999%

System: methane + propane; phases: Gas
Property: Mass density, kg/m3 (Gas); method: Buoyancy - hydrostatic balance with magnetic suspension - two sinkers
Mole fraction of methane	Temperature, K	Pressure, kPa	Mass density, kg/m3	uncertainty
0.74977	273.15	1998.9	22.8321	0.0072
0.74977	273.15	1500.89	16.5996	0.0063
0.74977	273.15	1000.41	10.7338	0.0056
0.74977	273.15	492.46	5.1329	0.0036
0.74977	273.148	1014.97	10.9019	0.0056
0.74977	273.15	1510.94	16.7231	0.0063
0.74977	273.15	2001.95	22.875	0.0072
0.74977	373.154	5859.63	48.2829	0.0089
0.74977	373.158	4881.06	39.5669	0.01
0.74977	373.157	3945.03	31.4611	0.0086
0.74977	373.156	2987.42	23.4236	0.0075
0.74977	373.159	1985.8	15.2929	0.0069
0.74977	373.156	1468.24	11.1998	0.0055
0.74977	373.157	991.05	7.4967	0.0042
0.74977	373.157	487.18	3.6521	0.0033
0.74977	298.15	500.2	4.742	0.004
0.74977	298.147	999.01	9.679	0.0051
0.74977	298.148	1999.52	20.2389	0.0083
0.74977	298.146	3990.54	44.5527	0.0127
0.74977	298.148	5999.63	75.0173	0.0122
0.74977	298.148	4119.49	46.3151	0.0135
0.74977	298.151	2001.38	20.2558	0.0083
0.74977	298.15	1000.61	9.6924	0.0051
0.74977	298.151	5997.47	74.9816	0.0122
0.74977	298.146	4993.86	58.9113	0.0099
0.74977	298.148	4003.13	44.7224	0.0127
0.74977	298.148	3006.32	31.9148	0.0103
0.74977	298.148	4424.24	50.5647	0.0149
0.74977	298.147	3043.89	32.3714	0.0103
0.74977	298.147	2075.4	21.0754	0.0083
0.74977	298.146	1686.6	16.8301	0.0078
0.74977	298.147	1372.43	13.507	0.0067
0.74977	298.148	1093.98	10.6384	0.0051
0.74977	298.146	785.06	7.5358	0.0043
0.74977	298.147	493.82	4.6835	0.004
0.74977	323.158	5928.79	62.0416	0.0104
0.74977	323.16	4475.38	44.4692	0.0113
0.74977	323.16	3017.65	28.51	0.0089
0.74977	323.16	1988.81	18.1586	0.0079
0.74977	323.163	1720.99	15.578	0.0074
0.74977	323.163	1492.28	13.4094	0.006
0.74977	323.162	1225.94	10.9233	0.0053
0.74977	323.162	981.92	8.6824	0.0046
0.74977	323.161	747.99	6.5657	0.004
0.74977	373.156	6041.27	49.9291	0.0091
0.74977	373.155	4503.02	36.2589	0.0093
0.74977	373.156	2996.64	23.4974	0.0075
0.74977	373.154	1990.93	15.3338	0.0069
0.74977	373.151	3998.43	31.915	0.0087
0.74977	373.151	1998.27	15.3921	0.0069
0.74977	373.15	1491.13	11.3819	0.0055
0.74977	373.152	1222.44	9.2859	0.0047
0.74977	373.155	973.87	7.3646	0.0042
0.74977	373.152	732.21	5.5128	0.0037
0.74977	373.151	494.25	3.7047	0.0033
0.74977	373.154	293.98	2.1956	0.0029
0.74977	273.154	500.89	5.2229	0.0037
0.74977	273.15	899.81	9.5966	0.0051
0.74977	273.153	1299.21	14.1894	0.0059
0.74977	273.151	1700.39	19.0432	0.0066
0.74977	273.153	1999.71	22.8429	0.0072
0.74977	273.154	2303.64	26.8673	0.0099
0.74977	248.169	276.07	3.1456	0.0033
0.74977	248.164	390.04	4.4826	0.0035
0.74977	248.161	500.33	5.7986	0.0037
0.74977	248.159	580.7	6.7717	0.0038
0.74977	248.159	685.07	8.0551	0.0039
0.74977	248.159	786.24	9.3205	0.0041
0.74977	248.16	835.6	9.9461	0.0042
0.50688	248.151	120.09	1.7641	0.003
0.50688	248.149	183.4	2.7164	0.0034
0.50688	248.15	244.4	3.6498	0.0038
0.50688	248.152	303.31	4.5661	0.0039
0.50688	248.152	360.5	5.4702	0.0043
0.50688	248.151	424.87	6.5055	0.0045
0.50688	273.147	258.4	3.4829	0.0036
0.50688	273.149	321.34	4.3576	0.0037
0.50688	273.15	441.3	6.0553	0.0047
0.50688	273.15	556.33	7.7247	0.0053
0.50688	273.149	612.13	8.5493	0.0055
0.50688	273.149	711.71	10.0475	0.0061
0.50688	273.148	803.19	11.4547	0.0086
0.50688	273.148	930.25	13.4618	0.0079
0.50688	273.148	971.91	14.1337	0.0092
0.50688	273.15	1009.54	14.7469	0.0091
0.50688	273.15	218.04	2.9261	0.0032
0.50688	273.148	340.35	4.6226	0.0041
0.50688	273.147	453.52	6.2301	0.0047
0.50688	273.148	506.93	7.0019	0.0049
0.50688	273.149	607.75	8.4837	0.0055
0.50688	273.15	701.31	9.8889	0.0061
0.50688	273.15	829.52	11.8643	0.008
0.50688	273.149	907.76	13.1006	0.008
0.50688	273.15	1015.45	14.8424	0.0091
0.50688	293.146	393.88	4.9714	0.0043
0.50688	293.148	613.82	7.8849	0.0052
0.50688	293.148	803.74	10.489	0.0069
0.50688	293.146	1006.19	13.3634	0.0087
0.50688	293.146	1209.44	16.361	0.01
0.50688	293.148	1399.6	19.2777	0.0113
0.50688	293.149	1605.8	22.5759	0.014
0.50688	293.145	1807.19	25.9503	0.0143
0.50688	323.165	240.14	2.7038	0.0032
0.50688	323.163	434.83	4.9489	0.0045
0.50688	323.164	609.43	7.005	0.0053
0.50688	323.166	814.12	9.4697	0.0061
0.50688	323.164	1028.37	12.1152	0.0075
0.50688	323.163	1206.2	14.365	0.0088
0.50688	323.161	1407.13	16.9693	0.0101
0.50688	323.164	1603.44	19.5802	0.0104
0.50688	323.164	1804.74	22.3318	0.0131
0.50688	323.163	1913.84	23.855	0.0149
0.50688	373.148	1999.35	20.6289	0.0117
0.50688	373.149	1745.33	17.8434	0.0156
0.50688	373.147	1581.45	16.0735	0.0087
0.50688	373.145	1387.19	14.0021	0.0084
0.50688	373.148	1177.36	11.7969	0.0073
0.50688	373.148	969.14	9.6405	0.0061
0.50688	373.146	776.15	7.6695	0.005
0.50688	373.148	587.98	5.7723	0.0043
0.50688	373.151	286.24	2.7813	0.0033
0.50688	373.147	559.53	5.4874	0.0042
0.50688	373.145	736.34	7.2655	0.005
0.50688	373.148	942.67	9.3682	0.0061
0.50688	373.147	1118.69	11.1859	0.0072
0.50688	373.145	1298.08	13.0615	0.0077
0.50688	373.148	1496.97	15.1688	0.0086
0.50688	373.149	1707.29	17.4293	0.0087
0.50688	373.145	1906.65	19.6043	0.0116
0.50688	273.153	262.29	3.5352	0.0034
0.50688	273.15	269.26	3.6315	0.0035
0.50688	273.147	277.28	3.7427	0.0039
0.50688	273.149	309	4.1836	0.0038
0.50688	273.147	323.08	4.3804	0.004
0.50688	273.146	402.73	5.504	0.0043
0.50688	273.147	409.05	5.5939	0.0043
0.50688	273.149	415.33	5.6832	0.0044
0.50688	273.146	491.06	6.7718	0.0049
0.50688	273.149	497.16	6.8601	0.0049
0.50688	273.151	503.23	6.9481	0.0049
0.50688	273.147	619.26	8.6551	0.0055
0.50688	273.15	625.49	8.7476	0.0062
0.50688	273.151	631.66	8.8402	0.0059
0.50688	273.15	705.87	9.9584	0.0068
0.50688	273.15	781.92	11.1241	0.007
0.50688	273.149	888.98	12.8024	0.008
0.50688	273.149	986.2	14.3651	0.009
0.50688	273.149	1041.67	15.2749	0.0091
0.26579	273.15	167.49	2.7678	0.0032
0.26579	273.15	242.18	4.0482	0.0035
0.26579	273.15	344.34	5.85	0.0037
0.26579	273.149	406.45	6.9764	0.0039
0.26579	273.148	491.73	8.5641	0.0042
0.26579	273.148	568.57	10.0392	0.0046
0.26579	273.149	615.59	10.9644	0.0048
0.26579	273.15	659.32	11.8408	0.005
0.26579	273.149	401.7	6.8905	0.0039
0.26579	273.147	430.8	7.425	0.0041
0.26579	273.148	486.1	8.4581	0.0042
0.26579	273.148	537.7	9.4417	0.0045
0.26579	273.15	562.21	9.9157	0.0046
0.26579	273.15	608.84	10.8307	0.0048
0.26579	273.151	652.39	11.7011	0.0049
0.26579	273.151	635.08	11.3537	0.0049
0.26579	273.149	598.52	10.627	0.0048
0.26579	273.149	542.15	9.5274	0.0045
0.26579	273.149	491.24	8.5547	0.0042
0.26579	273.15	445.43	7.6956	0.0041
0.26579	273.15	396.65	6.7965	0.0039
0.26579	273.149	347.43	5.905	0.0037
0.26579	273.149	300.07	5.0612	0.0036
0.26579	273.15	247.99	4.1483	0.0035
0.26579	273.15	198.96	3.3031	0.0033
0.26579	273.149	149.35	2.4607	0.0032
0.26579	273.151	123.94	2.0343	0.0031
0.26579	298.145	160.58	2.414	0.0033
0.26579	298.149	311.48	4.7646	0.0036
0.26579	298.15	471.27	7.3487	0.0038
0.26579	298.149	605.41	9.6013	0.0045
0.26579	298.148	758.38	12.2732	0.0053
0.26579	298.152	909.2	15.0282	0.0061
0.26579	298.148	1055.13	17.8236	0.0065
0.26579	298.15	1201.17	20.7664	0.0076
0.26579	298.15	1355.71	24.0659	0.0087
0.26579	293.144	149.9	2.2913	0.0033
0.26579	293.146	258.04	3.9961	0.0035
0.26579	293.147	355.08	5.5657	0.0037
0.26579	293.145	469.3	7.4652	0.0038
0.26579	293.145	568.75	9.168	0.0044
0.26579	293.146	655.65	10.6963	0.0046
0.26579	293.147	857.4	14.4071	0.0054
0.26579	293.147	955.25	16.2977	0.0064
0.26579	293.145	1056.3	18.3225	0.0065
0.26579	293.145	1105.65	19.3404	0.0066
0.26579	293.146	1153.92	20.3554	0.0076
0.26579	293.147	1174.97	20.8043	0.0077
0.26579	293.147	1187.46	21.0718	0.0077
0.26579	323.165	161.42	2.2297	0.003
0.26579	323.166	277.8	3.8766	0.0033
0.26579	323.167	380.81	5.3632	0.0036
0.26579	323.166	474.08	6.7339	0.0037
0.26579	323.166	556.87	7.9706	0.0041
0.26579	323.165	653.58	9.4407	0.0043
0.26579	323.167	861.14	12.694	0.005
0.26579	323.166	956.3	14.2336	0.0056
0.26579	323.166	1057.64	15.9088	0.0059
0.26579	323.167	1155.38	17.5614	0.007
0.26579	373.164	150.36	1.7881	0.003
0.26579	373.165	281.96	3.3776	0.0032
0.26579	373.165	361.95	4.3551	0.0033
0.26579	373.165	469.53	5.683	0.0036
0.26579	373.164	564.91	6.8735	0.0038
0.26579	373.164	676.04	8.2772	0.0041
0.26579	373.164	866.5	10.7249	0.0047
0.26579	373.164	963.18	11.9881	0.0049
0.26579	373.163	1057.18	13.2303	0.0052
0.26579	373.163	1156.36	14.557	0.0055
0.26579	373.162	1293.1	16.4139	0.0059
0.26579	373.161	1174.7	14.8058	0.0055
0.26579	373.163	1034.28	12.9279	0.005
0.26579	373.162	883.43	10.9464	0.0047
0.26579	373.16	733.18	9.007	0.0042
0.26579	373.162	592.63	7.2228	0.0039
0.26579	373.164	442.47	5.3479	0.0036
0.26579	373.16	249.5	2.984	0.0032
0.26579	248.155	96.6	1.7469	0.0031
0.26579	248.151	141.7	2.5862	0.0032
0.26579	248.151	184.56	3.3988	0.0034
0.26579	248.152	220.8	4.0982	0.0035
0.26579	248.152	251.13	4.6926	0.0036
0.26579	248.152	271.99	5.106	0.0036
0.26579	248.151	275.99	5.1859	0.0037
0.26579	248.151	251.49	4.7012	0.0036
0.26579	248.151	217.78	4.0405	0.0035
0.26579	248.152	188.16	3.4688	0.0034
0.26579	248.151	159.47	2.9223	0.0034
0.26579	248.151	129.19	2.3527	0.0032
0.26579	248.151	129.2	2.353	0.0032
