Measured thermophysical data. Speed of Sound Measurements Using a Cylindrical Resonator for Gaseous Carbon Dioxide and Propene
Source: J. Chem. Eng. Data, 2014, 10.1021/je500424b
Compound 1: carbon dioxide, CO2, InChI=1S/CO2/c2-1-3, purity 99.995%
Compound 2: propene, C3H6, InChI=1S/C3H6/c1-3-2/h3H,1H2,2H3, purity 99.95%

System: carbon dioxide; phases: Gas
Property: Speed of sound, m/s (Gas); method: Cylindrical cavity resonance method
Temperature, K	Pressure, kPa	Speed of sound, m/s	uncertainty
260	884.92	242.761	0.049
260	822.03	243.577	0.05
260	760.19	244.37	0.05
260	701.21	245.119	0.05
260	626.77	246.054	0.05
260	562.69	246.845	0.05
260	501.31	247.598	0.05
260	434.17	248.411	0.05
260	379.95	249.058	0.051
260	317.37	249.804	0.051
270	977.38	247.218	0.05
270	906.73	248.028	0.05
270	819.89	249.014	0.051
270	732.1	249.996	0.051
270	644.89	250.959	0.051
270	556.68	251.923	0.051
270	460.73	252.96	0.051
270	362.27	254.006	0.051
270	305.05	254.606	0.051
280	981.82	252.563	0.051
280	884.2	253.546	0.051
280	798.98	254.394	0.052
280	692.2	255.443	0.052
280	621.46	256.133	0.052
280	537.04	256.947	0.052
280	453.25	257.75	0.052
280	362.38	258.608	0.052
280	280.31	259.377	0.052
290	819.49	259.125	0.052
290	733.65	259.876	0.053
290	655.16	260.559	0.053
290	571.6	261.28	0.053
290	490.56	261.978	0.053
290	421.86	262.559	0.053
290	355.64	263.124	0.053
290	282.86	263.732	0.053
290	228.71	264.19	0.053
300	1017.33	262.36	0.053
300	927.15	263.073	0.053
300	847.25	263.703	0.053
300	755.49	264.422	0.053
300	663.9	265.134	0.054
300	583.49	265.756	0.054
300	500.85	266.392	0.054
300	415.37	267.046	0.054
300	340.26	267.619	0.054
300	280.85	268.065	0.054
304.09	968.58	264.694	0.054
304.09	868.88	265.446	0.054
304.09	772.25	266.17	0.054
304.09	544.65	267.858	0.054
304.09	434.91	268.664	0.054
312.75	959.38	268.804	0.054
312.75	858.54	269.494	0.054
312.75	729.55	270.371	0.055
312.75	636.23	271.003	0.055
312.75	534.77	271.688	0.055
312.75	441.68	272.312	0.055
312.75	394.2	272.63	0.055
322.75	929.78	273.533	0.055
322.75	832.63	274.131	0.055
322.75	735.59	274.723	0.055
322.75	624.83	275.397	0.056
322.75	522.36	276.021	0.056
322.75	412.26	276.687	0.056
322.75	314.03	277.276	0.056
332.75	958.15	277.777	0.056
332.75	857.33	278.334	0.056
332.75	755.5	278.895	0.056
332.75	664.72	279.393	0.056
332.75	544.84	280.054	0.056
332.75	520.66	280.185	0.056
332.75	415.5	280.761	0.057
332.75	316.28	281.299	0.057

System: propene; phases: Gas
Property: Speed of sound, m/s (Gas); method: Cylindrical cavity resonance method
Temperature, K	Pressure, kPa	Speed of sound, m/s	uncertainty
260	293.11	232.483	0.07
260	275.35	233.169	0.071
260	248.96	234.363	0.071
260	227.97	235.295	0.071
260	206.56	236.232	0.071
260	185.32	237.147	0.071
260	164.45	238.028	0.071
270	389.41	233.762	0.071
270	361.31	234.964	0.071
270	333.53	236.13	0.071
270	302.89	237.393	0.071
270	262.89	239.005	0.071
270	263.03	239	0.071
270	236.28	240.061	0.071
270	206.19	241.233	0.071
270	173.01	242.506	0.071
270	144.04	243.598	0.072
280	556.25	232.732	0.071
280	519.72	234.242	0.071
280	478.89	235.889	0.071
280	438.3	237.487	0.071
280	438.33	237.486	0.071
280	397.57	239.056	0.071
280	354.13	240.694	0.071
280	308.73	242.368	0.071
280	267.79	243.845	0.071
280	226.29	245.315	0.072
280	188.35	246.636	0.072
280	149.29	247.972	0.072
290	695.54	233.484	0.07
290	677.98	234.169	0.071
290	672.07	234.402	0.071
290	616.94	236.509	0.071
290	553.22	238.872	0.071
290	495.22	240.952	0.071
290	434.96	243.061	0.071
290	372.8	245.178	0.071
290	313.39	247.152	0.072
290	257.68	248.961	0.072
290	199.13	250.82	0.072
290	141.01	252.628	0.072
300	960.98	230.066	0.07
300	903.31	232.289	0.07
300	826.4	235.145	0.07
300	740.35	238.219	0.071
300	661.1	240.945	0.071
300	582.66	243.559	0.071
300	505.72	246.037	0.071
300	425.25	248.556	0.072
300	344.4	251.013	0.072
300	260.81	253.485	0.072
300	182.3	255.747	0.073
300	134.71	257.089	0.073
310	952.69	237.373	0.071
310	906.76	238.902	0.071
310	810.73	242.008	0.071
310	713.38	245.043	0.071
310	623.06	247.765	0.072
310	520.89	250.748	0.072
310	424.89	253.463	0.072
310	325.91	256.182	0.073
310	235.24	258.606	0.073
310	142.07	261.046	0.073
320	976.94	243.091	0.071
320	905.02	245.205	0.071
320	834.83	247.22	0.071
320	756.59	249.417	0.072
320	677.09	251.597	0.072
320	596.12	253.766	0.072
320	509.07	256.044	0.072
320	425.07	258.192	0.073
320	349.85	260.081	0.073
320	279.66	261.8119	0.0732
320	210.07	263.494	0.073
320	142.67	265.102	0.074
330	1001.35	248.498	0.072
330	912.04	250.844	0.072
330	821.61	253.162	0.072
330	732.74	255.39	0.072
330	642.65	257.599	0.073
330	550.82	259.806	0.073
330	455.62	262.043	0.073
330	380.89	263.766	0.073
330	302.35	265.548	0.074
330	227.66	267.217	0.074
330	151.93	268.885	0.074
