Measured thermophysical data. Solubility of Hydrogen Sulfide in N-Methylacetamide and N,N-Dimethylacetamide: Experimental Measurement and Modeling
Source: J. Chem. Eng. Data, 2015, 10.1021/je500478t
Compound 1: hydrogen sulfide, H2S, InChI=1S/H2S/h1H2, purity 99.9%
Compound 2: N-methylacetamide, C3H7NO, InChI=1S/C3H7NO/c1-3(5)4-2/h1-2H3,(H,4,5), purity 99.9%
Compound 3: N,N-dimethylethanamide, C4H9NO, InChI=1S/C4H9NO/c1-4(6)5(2)3/h1-3H3, purity 99.9%

System: N-methylacetamide + hydrogen sulfide; phases: Liquid, Gas
Property: Mole fraction of hydrogen sulfide (Liquid); method: Chromatography
Temperature, K	Pressure, kPa	Mole fraction of hydrogen sulfide	uncertainty
303.15	50	0.024	0.005
303.15	179	0.089	0.007
303.15	318	0.151	0.008
303.15	511	0.228	0.01
303.15	705	0.296	0.01
303.15	867	0.348	0.012
303.15	978	0.383	0.012
313.15	60	0.023	0.005
313.15	214	0.086	0.006
313.15	385	0.146	0.008
313.15	613	0.22	0.01
313.15	855	0.287	0.01
313.15	1043	0.338	0.012
313.15	1175	0.373	0.012
323.15	69	0.022	0.005
323.15	251	0.082	0.006
323.15	449	0.141	0.008
323.15	722	0.213	0.01
323.15	1001	0.278	0.01
323.15	1222	0.328	0.012
323.15	1360	0.364	0.012
333.15	79	0.021	0.004
333.15	289	0.079	0.006
333.15	515	0.136	0.008
333.15	832	0.205	0.01
333.15	1151	0.27	0.01
333.15	1405	0.319	0.012
333.15	1589	0.353	0.012
343.15	89	0.02	0.004
343.15	326	0.076	0.006
343.15	582	0.13	0.008
343.15	941	0.198	0.01
343.15	1306	0.261	0.01
343.15	1593	0.31	0.012
343.15	1798	0.344	0.012
353.15	100	0.019	0.004
353.15	364	0.072	0.006
353.15	650	0.124	0.008
353.15	1053	0.188	0.01
353.15	1462	0.249	0.012
353.15	1785	0.296	0.012
353.15	2023	0.329	0.012
363.15	111	0.018	0.004
363.15	401	0.07	0.008
363.15	720	0.121	0.008
363.15	1164	0.185	0.01
363.15	1620	0.244	0.012
363.15	1980	0.291	0.012
363.15	2259	0.323	0.014

System: N,N-dimethylethanamide + hydrogen sulfide; phases: Liquid, Gas
Property: Mole fraction of hydrogen sulfide (Liquid); method: Chromatography
Temperature, K	Pressure, kPa	Mole fraction of hydrogen sulfide	uncertainty
303.15	41	0.047	0.008
303.15	121	0.124	0.008
303.15	191	0.182	0.008
303.15	335	0.28	0.009
303.15	458	0.35	0.009
303.15	586	0.411	0.009
303.15	734	0.474	0.009
313.15	53	0.046	0.008
313.15	150	0.121	0.007
313.15	238	0.178	0.009
313.15	415	0.276	0.009
313.15	564	0.346	0.009
313.15	719	0.406	0.009
313.15	903	0.47	0.009
323.15	64	0.045	0.007
323.15	183	0.119	0.007
323.15	288	0.175	0.009
323.15	500	0.271	0.009
323.15	680	0.34	0.009
323.15	862	0.4	0.009
323.15	1083	0.464	0.009
333.15	79	0.044	0.007
333.15	217	0.116	0.007
333.15	341	0.172	0.008
333.15	592	0.266	0.009
333.15	804	0.335	0.009
333.15	1019	0.394	0.009
333.15	1277	0.458	0.009
343.15	91	0.043	0.007
343.15	254	0.113	0.007
343.15	401	0.168	0.006
343.15	693	0.261	0.008
343.15	938	0.329	0.008
343.15	1190	0.388	0.009
343.15	1486	0.452	0.009
353.15	110	0.041	0.006
353.15	294	0.11	0.006
353.15	464	0.161	0.008
353.15	801	0.253	0.008
353.15	1081	0.321	0.008
353.15	1375	0.38	0.009
353.15	1710	0.443	0.009
