Measured thermophysical data. Liquid Phase Equilibria of the Water + Acetic Acid + Dimethyl Carbonate Ternary System at Several Temperatures
Source: J. Chem. Eng. Data, 2014, 10.1021/je500332k
Compound 1: acetic acid, C2H4O2, InChI=1S/C2H4O2/c1-2(3)4/h1H3,(H,3,4), purity 99.8%
Compound 2: dimethyl carbonate, C3H6O3, InChI=1S/C3H6O3/c1-5-3(4)6-2/h1-2H3, purity 99%
Compound 3: water, H2O, InChI=1S/H2O/h1H2

System: acetic acid; phases: Liquid
Property: Mass density, kg/m3 (Liquid); method: Vibrating tube method
Temperature, K	Pressure, kPa	Mass density, kg/m3	uncertainty
298.2	101.325	1049.42	0.26

System: acetic acid; phases: Liquid
Property: Refractive index (Na D-line) (Liquid); method: Standard Abbe refractometry
Temperature, K	Pressure, kPa	Refractive index (Na D-line)	uncertainty
298.2	101.325	1.3713	0.0003

System: acetic acid; phases: Liquid, Gas
Property: Boiling temperature at pressure P, K (Liquid); method: Distillation
Pressure, kPa	Boiling temperature at pressure P, K	uncertainty
101.325	391.2	0.3

System: dimethyl carbonate; phases: Liquid
Property: Mass density, kg/m3 (Liquid); method: Vibrating tube method
Temperature, K	Pressure, kPa	Mass density, kg/m3	uncertainty
298.2	101.325	1061.9	0.38

System: dimethyl carbonate; phases: Liquid
Property: Refractive index (Na D-line) (Liquid); method: Standard Abbe refractometry
Temperature, K	Pressure, kPa	Refractive index (Na D-line)	uncertainty
298.2	101.325	1.3685	0.0004

System: dimethyl carbonate; phases: Liquid, Gas
Property: Boiling temperature at pressure P, K (Liquid); method: Distillation
Pressure, kPa	Boiling temperature at pressure P, K	uncertainty
101.325	363.23	0.29

System: water; phases: Liquid
Property: Mass density, kg/m3 (Liquid); method: Vibrating tube method
Temperature, K	Pressure, kPa	Mass density, kg/m3	uncertainty
298.2	101.325	998.21	0.24

System: water; phases: Liquid
Property: Refractive index (Na D-line) (Liquid); method: Standard Abbe refractometry
Temperature, K	Pressure, kPa	Refractive index (Na D-line)	uncertainty
298.2	101.325	1.3324	0.0003

System: water; phases: Liquid, Gas
Property: Boiling temperature at pressure P, K (Liquid); method: Distillation
Pressure, kPa	Boiling temperature at pressure P, K	uncertainty
101.325	373.2	0.3

System: acetic acid + dimethyl carbonate + water; phases: Liquid mixture 1, Liquid mixture 2
Fixed: Pressure, kPa = 101
Property: Mass fraction of acetic acid (Liquid mixture 1); method: Titration method
Temperature, K	Mass fraction of water	Mass fraction of acetic acid	uncertainty
298.2	0.0332	0	
298.2	0.1005	0.0942	0.0029
298.2	0.1917	0.1349	0.0042
298.2	0.2877	0.1518	0.0047
298.2	0.398	0.1617	0.005
298.2	0.5339	0.1556	0.0048
298.2	0.6085	0.1306	0.004
298.2	0.7167	0.0869	0.0027
298.2	0.8619	0	
308.2	0.0402	0	
308.2	0.1109	0.0854	0.0027
308.2	0.2015	0.1312	0.0041
308.2	0.2615	0.1409	0.0044
308.2	0.4086	0.1573	0.0049
308.2	0.5547	0.1525	0.0047
308.2	0.6635	0.1282	0.004
308.2	0.7833	0.0509	0.0016
308.2	0.8449	0	
318.2	0.0516	0	
318.2	0.1089	0.0655	0.0021
318.2	0.1719	0.1097	0.0034
318.2	0.3117	0.1292	0.004
318.2	0.4141	0.1273	0.004
318.2	0.5193	0.122	0.0039
318.2	0.6421	0.1062	0.0034
318.2	0.7972	0.0378	0.0012
318.2	0.8453	0	

System: acetic acid + dimethyl carbonate + water; phases: Liquid mixture 2, Liquid mixture 1
Fixed: Pressure, kPa = 101
Property: Mass fraction of acetic acid (Liquid mixture 2); method: Chromatography
Property: Mass fraction of acetic acid (Liquid mixture 1); method: Chromatography
Property: Mass fraction of water (Liquid mixture 1); method: Chromatography
Temperature, K	Mass fraction of water	Mass fraction of acetic acid	uncertainty	Mass fraction of acetic acid	uncertainty	Mass fraction of water	uncertainty
298.2	0.0393	0.0299	0.0009	0.0482	0.0006	0.7883	
298.2	0.067	0.0674	0.0008	0.0936	0.0008	0.7025	
298.2	0.1306	0.1105	0.0009	0.1317	0.0011	0.6189	
308.2	0.0612	0.0314	0.0009	0.0491	0.0006	0.788	
308.2	0.0976	0.0695	0.0008	0.095	0.0008	0.7135	
308.2	0.1425	0.114	0.001	0.1347	0.0011	0.6314	
318.2	0.0812	0.0313	0.0008	0.0493	0.0006	0.7771	
318.2	0.1086	0.0689	0.0008	0.0932	0.0009	0.6785	
318.2	0.2087	0.1072	0.0011	0.1193	0.0012	0.5016	

System: dimethyl carbonate + water; phases: Liquid mixture 1, Liquid mixture 2
Fixed: Pressure, kPa = 101
Property: Mass fraction of water (Liquid mixture 1); method: Titration method
Temperature, K	Mass fraction of water	uncertainty
298.2	0.0332	0.0007
308.2	0.0402	0.0008
318.2	0.0516	0.001

System: dimethyl carbonate + water; phases: Liquid mixture 2, Liquid mixture 1
Fixed: Pressure, kPa = 101
Property: Mass fraction of water (Liquid mixture 2); method: Titration method
Temperature, K	Mass fraction of water	uncertainty
298.2	0.8619	0.0028
308.2	0.8449	0.0031
318.2	0.8453	0.0031
