Measured thermophysical data. Solubility of Dilute SO2 in the Binary System Poly Ethylene Glycol 300 + Dimethyl Sulfoxide at T = 298.15 K and p = 123.15 kPa and Mixtures  Excess Properties at T = (298.15, 303.15, 308.15, 313.15, and 318.15) K
Source: J. Chem. Eng. Data, 2014, 10.1021/je500067f
Compound 1: sulfur dioxide, O2S, InChI=1S/O2S/c1-3-2
Compound 2: dimethyl sulfoxide, C2H6OS, InChI=1S/C2H6OS/c1-4(2)3/h1-2H3, purity 98%

System: dimethyl sulfoxide; phases: Liquid
Fixed: Pressure, kPa = 101.325
Property: Mass density, kg/m3 (Liquid); method: Pycnometric method
Temperature, K	Mass density, kg/m3	uncertainty
298.15	1095.2	0.6
303.15	1090.6	0.6
308.15	1085.9	0.6
313.15	1081.3	0.6
318.15	1075.3	0.6

System: dimethyl sulfoxide; phases: Liquid
Fixed: Pressure, kPa = 101.325
Property: Viscosity, Pa*s (Liquid); method: Capillary tube (Ostwald; Ubbelohde) method
Temperature, K	Viscosity, Pa*s	uncertainty
298.15	0.002	2e-05
303.15	0.0018	2e-05
308.15	0.00161	2e-05
313.15	0.00144	1e-05
318.15	0.00133	1e-05

System: dimethyl sulfoxide + sulfur dioxide; phases: Liquid, Gas
Fixed: Temperature, K = 298.15
Property: Molality, mol/kg of sulfur dioxide (Liquid); method: GC
Pressure, kPa of sulfur dioxide	Molality, mol/kg of sulfur dioxide	uncertainty
0.00419	0.00459	0.00459
0.00739	0.0069	0.0069
0.01465	0.012	0.012
0.0209	0.0178	0.012
0.0256	0.0237	0.012
0.0344	0.0333	0.012
0.0495	0.0576	0.012
0.0751	0.0959	0.012
0.106	0.135	0.012
