Measured thermophysical data. Solubility of 2,5-Di-tert-butylhydroquinone and Process Design for Its Purification Using Crystallization
Source: J. Chem. Eng. Data, 2015, 10.1021/je501049c
Compound 1: 2,5-di-tert-butylhydroquinone, C14H22O2, InChI=1S/C14H22O2/c1-13(2,3)9-7-12(16)10(8-11(9)15)14(4,5)6/h7-8,15-16H,1-6H3, purity 99%
Compound 2: acetone, C3H6O, InChI=1S/C3H6O/c1-3(2)4/h1-2H3, purity 99.5%
Compound 3: ethyl acetate, C4H8O2, InChI=1S/C4H8O2/c1-3-6-4(2)5/h3H2,1-2H3, purity 99.5%
Compound 4: methanol, CH4O, InChI=1S/CH4O/c1-2/h2H,1H3, purity 99.5%
Compound 5: ethanol, C2H6O, InChI=1S/C2H6O/c1-2-3/h3H,2H2,1H3, purity 99.7%
Compound 6: water, H2O, InChI=1S/H2O/h1H2, purity 99.8%

System: 2,5-di-tert-butylhydroquinone + ethyl acetate; phases: Liquid, Crystal
Fixed: Pressure, kPa = 101.3
Property: Mole fraction of ethyl acetate (Liquid); method: gravimetric method
Temperature, K	Mole fraction of ethyl acetate	uncertainty
278.95	0.14441	0.00867
281.55	0.14464	0.00868
284.45	0.14603	0.00877
287.35	0.14788	0.00888
290.45	0.14819	0.0089
293.15	0.14977	0.00899
296.25	0.15137	0.00909
298.85	0.15288	0.00918
301.85	0.15495	0.0093
304.75	0.15676	0.00941
307.45	0.15834	0.00951
310.45	0.16055	0.00964
312.35	0.16272	0.00977
316.15	0.16555	0.00994
319.15	0.16879	0.01013
322.15	0.17033	0.01023
325.15	0.1735	0.01042
328.15	0.17654	0.0106
331.15	0.18034	0.01083
335.15	0.18279	0.01097
337.15	0.18574	0.01115
340.15	0.18824	0.0113
343.15	0.19356	0.01162
346.15	0.19542	0.01173

System: methanol + 2,5-di-tert-butylhydroquinone; phases: Liquid, Crystal
Fixed: Pressure, kPa = 101.3
Property: Mole fraction of 2,5-di-tert-butylhydroquinone (Liquid); method: gravimetric method
Temperature, K	Mole fraction of 2,5-di-tert-butylhydroquinone	uncertainty
280.95	0.06471	0.00389
283.55	0.06498	0.0039
285.95	0.06513	0.00391
288.15	0.06529	0.00392
290.65	0.06576	0.00395
293.15	0.0667	0.004
295.55	0.06775	0.00407
297.95	0.0688	0.00413
300.65	0.06968	0.00418
302.65	0.07065	0.00424
305.15	0.0712	0.00427
307.25	0.07204	0.00433
309.85	0.07269	0.00436
312.05	0.07339	0.00441
316.15	0.07656	0.0046
319.15	0.07801	0.00468
322.15	0.08002	0.0048
325.15	0.08109	0.00487
328.15	0.08331	0.005
331.15	0.08489	0.0051
333.15	0.08629	0.00518

System: acetone + 2,5-di-tert-butylhydroquinone; phases: Liquid, Crystal
Fixed: Pressure, kPa = 101.3
Property: Mole fraction of 2,5-di-tert-butylhydroquinone (Liquid); method: gravimetric method
Temperature, K	Mole fraction of 2,5-di-tert-butylhydroquinone	uncertainty
283.35	0.03324	0.002
285.65	0.0365	0.0022
288.25	0.04125	0.00248
290.55	0.04556	0.00274
293.15	0.05194	0.00313
295.35	0.05703	0.00343
298.05	0.06358	0.00382
300.35	0.06905	0.00415
303.15	0.07755	0.00466
305.45	0.0836	0.00503
308.05	0.09285	0.00559
310.25	0.10027	0.00604
313.05	0.11992	0.00721
316.15	0.12339	0.00741
319.15	0.1357	0.00816
321.15	0.14847	0.00894
323.15	0.16064	0.00966

System: ethanol + 2,5-di-tert-butylhydroquinone + water; phases: Liquid, Crystal
Fixed: Pressure, kPa = 101.3
Property: Mole fraction of 2,5-di-tert-butylhydroquinone (Liquid); method: gravimetric method
Temperature, K	Solvent: Mass fraction of ethanol	Mole fraction of 2,5-di-tert-butylhydroquinone	uncertainty
298.05	1	0.08389	0.00504
302.85	1	0.08542	0.00513
307.65	1	0.0871	0.00523
312.55	1	0.08903	0.00535
319.15	1	0.09599	0.00576
322.15	1	0.09694	0.00582
328.15	1	0.1008	0.0061
335.15	1	0.10471	0.00629
337.15	1	0.10657	0.0064
343.15	1	0.11151	0.0067
298.05	0.8998	0.03438	0.00207
303.15	0.8998	0.03627	0.00218
308.15	0.8998	0.03893	0.00234
313.15	0.8998	0.04125	0.00248
318.15	0.8998	0.04379	0.00263
323.15	0.8998	0.04674	0.00281
328.15	0.8998	0.05021	0.00302
333.15	0.8998	0.05333	0.0032
338.25	0.8998	0.05749	0.00345
343.15	0.8998	0.06167	0.00372
298.05	0.7992	0.02265	0.00136
303.15	0.7992	0.02406	0.00144
308.15	0.7992	0.02543	0.00153
313.05	0.7992	0.02779	0.00167
318.05	0.7992	0.02993	0.0018
323.05	0.7992	0.03274	0.00197
328.15	0.7992	0.03601	0.00216
333.25	0.7992	0.0391	0.00235
338.35	0.7992	0.04315	0.00259
343.35	0.7992	0.04847	0.00291
298.25	0.6501	0.00717	0.00043
303.15	0.6501	0.00807	0.00049
308.25	0.6501	0.00929	0.00056
313.05	0.6501	0.01039	0.00062
318.05	0.6501	0.01156	0.00069
323.05	0.6501	0.01279	0.00077
328.15	0.6501	0.01418	0.00085
333.25	0.6501	0.0154	0.00092
338.35	0.6501	0.01687	0.00101
343.35	0.6501	0.01816	0.0011
298.05	0.4999	0.00104	6e-05
303.15	0.4999	0.00126	8e-05
308.05	0.4999	0.0016	0.0001
313.05	0.4999	0.00189	0.00011
318.05	0.4999	0.0023	0.00014
323.05	0.4999	0.0028	0.00017
328.05	0.4999	0.00337	0.0002
333.15	0.4999	0.00394	0.00024
338.15	0.4999	0.00452	0.00027
343.15	0.4999	0.0051	0.00031

System: ethanol + 2,5-di-tert-butylhydroquinone; phases: Liquid, Crystal
Fixed: Pressure, kPa = 101.3
Property: Mole fraction of 2,5-di-tert-butylhydroquinone (Liquid); method: gravimetric method
Temperature, K	Mole fraction of 2,5-di-tert-butylhydroquinone	uncertainty
298.05	0.08389	0.00504
302.85	0.08542	0.00513
307.65	0.0871	0.00523
312.55	0.08903	0.00535
319.15	0.09599	0.00576
322.15	0.09694	0.00582
328.15	0.1008	0.0061
335.15	0.10471	0.00629
337.15	0.10657	0.0064
343.15	0.11151	0.0067
