Measured thermophysical data. Experimental Determination and Correlation of Liquid Liquid Equilibria for the Ternary System 2-Methoxy-2-methylpropane + o-Cresol + Water at 298.15 K and 313.15 K
Source: J. Chem. Eng. Data, 2015, 10.1021/je501114q
Compound 1: 2-methoxy-2-methylpropane, C5H12O, InChI=1S/C5H12O/c1-5(2,3)6-4/h1-4H3, purity 99%
Compound 2: 2-methylphenol, C7H8O, InChI=1S/C7H8O/c1-6-4-2-3-5-7(6)8/h2-5,8H,1H3, purity 99%
Compound 3: water, H2O, InChI=1S/H2O/h1H2, purity 99.9%

System: 2-methylphenol + 2-methoxy-2-methylpropane + water; phases: Liquid mixture 2, Liquid mixture 1
Fixed: Pressure, kPa = 101
Property: Mass fraction of 2-methylphenol (Liquid mixture 2); method: Chromatography
Property: Mass fraction of 2-methylphenol (Liquid mixture 1); method: Chromatography
Property: Mass fraction of 2-methoxy-2-methylpropane (Liquid mixture 1); method: Chromatography
Temperature, K	Mass fraction of 2-methoxy-2-methylpropane	Mass fraction of 2-methylphenol	uncertainty	Mass fraction of 2-methylphenol	uncertainty	Mass fraction of 2-methoxy-2-methylpropane	uncertainty
298.15	0.00994	0.00561	0.00022	0.49871	0.00609	0.40578	
313.15	0.01612	0.00082	0.00021	0.18633	0.00532	0.77754	
313.15	0.01722	0.00059	0.00021	0.14108	0.00526	0.82689	
298.15	0.01411	0.00382	0.00022	0.43424	0.00584	0.48283	
313.15	0.01801	0.00043	0.0002	0.10583	0.00524	0.86507	
313.15	0.0196	0.00025	0.0002	0.06642	0.00508	0.90739	
313.15	0.025	0		0		0.9853	
298.15	0.01729	0.00272	0.00021	0.38377	0.00566	0.54284	
298.15	0.01995	0.00223	0.00021	0.34586	0.00553	0.58823	
298.15	0.02142	0.00196	0.00021	0.32046	0.00546	0.6184	
298.15	0.02357	0.0015	0.0002	0.28377	0.00539	0.66201	
298.15	0.03444	0.0003	0.0002	0.09341	0.00516	0.88456	
298.15	0.02565	0.0012	0.0002	0.24613	0.0052	0.70526	
298.15	0.02878	0.00086	0.0002	0.19456	0.00505	0.77102	
298.15	0.03036	0.00072	0.0002	0.17258	0.00524	0.7969	
298.15	0.0368	0		0		0.98831	
313.15	0.00451	0.00567	0.00025	0.5355	0.00597	0.3804	
313.15	0.00824	0.0032	0.00023	0.43766	0.00589	0.49594	
313.15	0.01104	0.00212	0.00022	0.35933	0.00567	0.58555	
313.15	0.01309	0.00153	0.00021	0.29483	0.00551	0.65782	
313.15	0.01472	0.00112	0.00021	0.23885	0.00539	0.71991	
313.15	0.01518	0.00102	0.00021	0.22238	0.00538	0.73808	
