Measured thermophysical data. Correlation of Solubility of Bioactive Compound Reserpine in Eight Green Solvents at (298.15 to 338.15) K
Source: J. Chem. Eng. Data, 2015, 10.1021/je500893g
Compound 1: Reserpine, C33H40N2O9, InChI=1S/C33H40N2O9/c1-38-19-7-8-20-21-9-10-35-16-18-13-27(44-32(36)17-11-25(39-2)30(41-4)26(12-17)40-3)31(42-5)28(33(37)43-6)22(18)15-24(35)29(21)34-23(20)14-19/h7-8,11-12,14,18,22,24,27-28,31,34H,9-10,13,15-16H2,1-6H3/t18-,22+,24-,27-,28+,31+/m1/s1, purity 99%
Compound 2: ethanol, C2H6O, InChI=1S/C2H6O/c1-2-3/h3H,2H2,1H3, purity 99.9%
Compound 3: 1,2-propanediol, C3H8O2, InChI=1S/C3H8O2/c1-3(5)2-4/h3-5H,2H2,1H3, purity 99.5%
Compound 4: 3,6-dioxa-1-octanol, C6H14O3, InChI=1S/C6H14O3/c1-2-8-5-6-9-4-3-7/h7H,2-6H2,1H3, purity 99.9%
Compound 5: 1,2-ethanediol, C2H6O2, InChI=1S/C2H6O2/c3-1-2-4/h3-4H,1-2H2, purity 99.6%
Compound 6: ethyl acetate, C4H8O2, InChI=1S/C4H8O2/c1-3-6-4(2)5/h3H2,1-2H3, purity 99.8%
Compound 7: propan-2-ol, C3H8O, InChI=1S/C3H8O/c1-3(2)4/h3-4H,1-2H3, purity 99.7%
Compound 8: water, H2O, InChI=1S/H2O/h1H2, purity 99.9%

System: Reserpine + water; phases: Liquid, Crystal
Fixed: Pressure, kPa = 100
Property: Mole fraction of Reserpine (Liquid); method: UV Spectra
Temperature, K	Mole fraction of Reserpine	uncertainty
298.15	9.71e-07	2.2e-08
308.15	1.25e-06	3e-08
318.15	1.57e-06	4e-08
328.15	1.9e-06	4e-08
338.15	2.25e-06	5e-08

System: Reserpine + ethanol; phases: Liquid, Crystal
Fixed: Pressure, kPa = 100
Property: Mole fraction of Reserpine (Liquid); method: UV Spectra
Temperature, K	Mole fraction of Reserpine	uncertainty
298.15	9.16e-06	2.2e-07
308.15	1.25e-05	3e-07
318.15	1.59e-05	4e-07
328.15	2.07e-05	5e-07
338.15	2.53e-05	6e-07

System: Reserpine + 1,2-propanediol; phases: Liquid, Crystal
Fixed: Pressure, kPa = 100
Property: Mole fraction of Reserpine (Liquid); method: UV Spectra
Temperature, K	Mole fraction of Reserpine	uncertainty
298.15	2.88e-05	7e-07
308.15	3.38e-05	8e-07
318.15	4e-05	9e-07
328.15	4.63e-05	1e-06
338.15	5.5e-05	1.2e-06

System: Reserpine + 3,6-dioxa-1-octanol; phases: Liquid, Crystal
Fixed: Pressure, kPa = 100
Property: Mole fraction of Reserpine (Liquid); method: UV Spectra
Temperature, K	Mole fraction of Reserpine	uncertainty
298.15	0.000769	1.7e-05
308.15	0.000906	2e-05
318.15	0.0011	3e-05
328.15	0.00137	3e-05
338.15	0.00161	4e-05

System: Reserpine + 1,2-ethanediol; phases: Liquid, Crystal
Fixed: Pressure, kPa = 100
Property: Mole fraction of Reserpine (Liquid); method: UV Spectra
Temperature, K	Mole fraction of Reserpine	uncertainty
298.15	5.3e-05	1.2e-06
308.15	7.04e-05	1.6e-06
318.15	9.28e-05	2.1e-06
328.15	0.000114	3e-06
338.15	0.000143	3e-06

System: Reserpine + propan-2-ol; phases: Liquid, Crystal
Fixed: Pressure, kPa = 100
Property: Mole fraction of Reserpine (Liquid); method: UV Spectra
Temperature, K	Mole fraction of Reserpine	uncertainty
298.15	2.43e-05	6e-07
308.15	3.16e-05	7e-07
318.15	4.02e-05	9e-07
328.15	4.95e-05	1.1e-06
338.15	6.07e-05	1.4e-06

System: Reserpine + ethyl acetate; phases: Liquid, Crystal
Fixed: Pressure, kPa = 100
Property: Mole fraction of Reserpine (Liquid); method: UV Spectra
Temperature, K	Mole fraction of Reserpine	uncertainty
298.15	0.000521	1.2e-05
308.15	0.000608	1.4e-05
318.15	0.000723	1.6e-05
328.15	0.000868	2e-05
338.15	0.00104	2e-05
