Measured thermophysical data. Thermal Stability and Vapor Liquid Equilibrium for Imidazolium Ionic Liquids as Alternative Reaction Media
Source: J. Chem. Eng. Data, 2015, 10.1021/je5009558
Compound 1: 1-butyl-3-methylimidazolium tetrafluoroborate, C8H15BF4N2, InChI=1S/C8H15N2.BF4/c1-3-4-5-10-7-6-9(2)8-10;2-1(3,4)5/h6-8H,3-5H2,1-2H3;/q+1;-1, purity 99%
Compound 2: 1-butyl-3-methylimidazolium hexafluorophosphate, C8H15F6N2P, InChI=1S/C8H15N2.F6P/c1-3-4-5-10-7-6-9(2)8-10;1-7(2,3,4,5)6/h6-8H,3-5H2,1-2H3;/q+1;-1, purity 99%
Compound 3: 1-butyl-3-methylimidazolium bis(trifluoromethylsulfonyl)imide, C10H15F6N3O4S2, InChI=1S/C8H15N2.C2F6NO4S2/c1-3-4-5-10-7-6-9(2)8-10;3-1(4,5)14(10,11)9-15(12,13)2(6,7)8/h6-8H,3-5H2,1-2H3;/q+1;-1, purity 99%
Compound 4: methanol, CH4O, InChI=1S/CH4O/c1-2/h2H,1H3, purity 99.5%
Compound 5: ethyl acetate, C4H8O2, InChI=1S/C4H8O2/c1-3-6-4(2)5/h3H2,1-2H3, purity 99%
Compound 6: benzene, C6H6, InChI=1S/C6H6/c1-2-4-6-5-3-1/h1-6H, purity 99%

System: methanol + 1-butyl-3-methylimidazolium tetrafluoroborate; phases: Liquid, Gas
Property: Vapor or sublimation pressure, kPa (Liquid); method: Closed cell (Static) method
Temperature, K	Mass fraction of methanol	Vapor or sublimation pressure, kPa	uncertainty
413.15	0.01588	12.7	0.8
433.15	0.01588	13.7	0.8
453.15	0.01588	14.8	0.8
473.15	0.01588	16.1	0.8
413.15	0.03648	33.4	0.8
433.15	0.03648	37.2	0.8
453.15	0.03648	41.1	0.8
473.15	0.03648	44.2	0.8
413.15	0.06174	63.5	0.8
433.15	0.06174	73.9	0.9
453.15	0.06174	84.2	0.9
473.15	0.06174	95.4	0.9
413.15	0.1	122.1	0.9
433.15	0.1	141.9	1
453.15	0.1	161.7	1
473.15	0.1	182.7	1.1
413.15	0.14126	201.3	16
433.15	0.14126	238.7	16
453.15	0.14126	281.5	16
413.15	0.1953	298.6	16
473.15	0.14126	320.6	16
433.15	0.1953	378.3	16.1
453.15	0.1953	450.8	16.1
473.15	0.1953	529.4	16.2
413.15	0.34777	611.2	16.4
433.15	0.34777	894.8	16.6
413.15	0.56495	941	17.1
453.15	0.34777	1238	17
433.15	0.56495	1461.4	17.7
473.15	0.34777	1680.2	17.3
453.15	0.56495	2155.9	19.2
473.15	0.56495	3075.5	20.9

System: methanol + 1-butyl-3-methylimidazolium bis(trifluoromethylsulfonyl)imide; phases: Liquid, Gas
Property: Vapor or sublimation pressure, kPa (Liquid); method: Closed cell (Static) method
Temperature, K	Mass fraction of methanol	Vapor or sublimation pressure, kPa	uncertainty
413.15	0.00994	11.7	0.8
433.15	0.00994	14.3	0.8
453.15	0.00994	17.6	0.8
473.15	0.00994	20.3	0.8
413.15	0.02313	28.2	0.8
433.15	0.02313	32.9	0.8
453.15	0.02313	38.5	0.8
473.15	0.02313	45.1	0.8
413.15	0.03796	47.4	0.8
433.15	0.03796	55.1	0.8
453.15	0.03796	63.1	0.8
473.15	0.03796	70.6	0.8
413.15	0.05492	74.9	0.9
433.15	0.05492	86.2	0.9
453.15	0.05492	97.4	0.9
413.15	0.0756	109.5	0.9
473.15	0.05492	110.1	0.9
433.15	0.0756	126.1	0.9
453.15	0.0756	144.3	1
473.15	0.0756	162.5	1
413.15	0.12657	179.4	1.1
433.15	0.12657	230.9	16
453.15	0.12657	289.7	16
413.15	0.19515	296.6	16
473.15	0.12657	356.3	16.1
433.15	0.19515	380.7	16.1
453.15	0.19515	458.2	16.1
413.15	0.28769	511.1	16.2
473.15	0.19515	565.7	16.2
433.15	0.28769	659.3	16.2
413.15	0.44016	777.9	16.6
453.15	0.28769	811.6	16.3
473.15	0.28769	983.7	16.5
433.15	0.44016	1102.4	16.8
413.15	0.70226	1105.7	17.4
453.15	0.44016	1496.8	17.3
433.15	0.70226	1700.6	18.3
473.15	0.44016	1967.1	17.8
453.15	0.70226	2524.9	20.2
473.15	0.70226	3599.7	22.3

System: ethyl acetate + 1-butyl-3-methylimidazolium hexafluorophosphate; phases: Liquid, Gas
Property: Vapor or sublimation pressure, kPa (Liquid); method: Closed cell (Static) method
Temperature, K	Mass fraction of ethyl acetate	Vapor or sublimation pressure, kPa	uncertainty
413.15	0.03861	14.1	0.8
433.15	0.03861	15.3	0.8
453.15	0.03861	16.5	0.8
473.15	0.03861	17.5	0.8
413.15	0.06755	28.7	0.8
433.15	0.06755	32.1	0.8
453.15	0.06755	35.5	0.8
473.15	0.06755	38.3	0.8
413.15	0.09865	49.6	0.8
433.15	0.09865	53.7	0.8
453.15	0.09865	57.8	0.8
473.15	0.09865	62.4	0.8
413.15	0.13664	73.8	0.8
433.15	0.13664	80.5	0.9
453.15	0.13664	87.6	0.9
473.15	0.13664	95.1	0.9
413.15	0.18433	111.2	0.9
433.15	0.18433	124.2	0.9
453.15	0.18433	136.3	0.9
473.15	0.18433	148.9	1
413.15	0.25118	170.9	1
433.15	0.25118	186.3	1
453.15	0.25118	203.6	16
473.15	0.25118	215.9	16
413.15	0.33681	264.1	16
433.15	0.33681	292.5	16
413.15	0.382	308.5	16
453.15	0.33681	315.5	16
473.15	0.33681	333.2	16
433.15	0.382	349.2	16
453.15	0.382	385.9	16.1
473.15	0.382	416.3	16.1

System: ethyl acetate + 1-butyl-3-methylimidazolium bis(trifluoromethylsulfonyl)imide; phases: Liquid, Gas
Property: Vapor or sublimation pressure, kPa (Liquid); method: Closed cell (Static) method
Temperature, K	Mass fraction of ethyl acetate	Vapor or sublimation pressure, kPa	uncertainty
413.15	0.03207	12.6	0.8
433.15	0.03207	13.9	0.8
453.15	0.03207	16.1	0.8
473.15	0.03207	17.5	0.8
413.15	0.07386	37.5	0.8
433.15	0.07386	43.2	0.8
453.15	0.07386	49.2	0.8
473.15	0.07386	56.2	0.8
413.15	0.13528	74.9	0.9
433.15	0.13528	94.1	0.9
453.15	0.13528	116.8	0.9
413.15	0.19227	129.3	1
473.15	0.13528	141.2	1
433.15	0.19227	167.8	1.1
413.15	0.25366	189.1	1.2
453.15	0.19227	213.5	16
433.15	0.25366	254.3	16
473.15	0.19227	266.7	16
413.15	0.34722	275.6	16.1
453.15	0.25366	332.6	16.1
413.15	0.43715	377.3	16.2
433.15	0.34722	393.5	16.1
473.15	0.25366	424.3	16.1
413.15	0.52877	439.4	16.2
413.15	0.65763	513.1	16.3
453.15	0.34722	539.1	16.2
433.15	0.43715	540.4	16.2
433.15	0.52877	653.9	16.3
473.15	0.34722	697.5	16.3
453.15	0.43715	753.4	16.4
433.15	0.65763	760.5	16.5
453.15	0.52877	921.5	16.6
473.15	0.43715	1001.8	16.6
453.15	0.65763	1107	16.9
473.15	0.52877	1289.2	16.9
473.15	0.65763	1571.9	17.5

System: benzene + 1-butyl-3-methylimidazolium hexafluorophosphate; phases: Liquid, Gas
Property: Vapor or sublimation pressure, kPa (Liquid); method: Closed cell (Static) method
Temperature, K	Mass fraction of benzene	Vapor or sublimation pressure, kPa	uncertainty
413.15	0.03473	10.9	0.8
433.15	0.03473	11.5	0.8
453.15	0.03473	12.3	0.8
473.15	0.03473	13.1	0.8
413.15	0.06967	24.2	0.8
433.15	0.06967	26.1	0.8
453.15	0.06967	28.7	0.8
473.15	0.06967	30.5	0.8
413.15	0.09562	36.5	0.8
433.15	0.09562	40.8	0.8
453.15	0.09562	44.6	0.8
473.15	0.09562	48.5	0.8
413.15	0.1286	55.9	0.8
433.15	0.1286	62.5	0.8
453.15	0.1286	69.2	0.8
473.15	0.1286	75.9	0.9
413.15	0.17853	85.9	0.9
433.15	0.17853	98.1	0.9
453.15	0.17853	110.3	0.9
473.15	0.17853	123.6	0.9
413.15	0.23655	132.7	0.9
433.15	0.23655	152.6	1
453.15	0.23655	172.8	1
473.15	0.23655	194.7	1.1
413.15	0.31729	209.5	16
433.15	0.31729	240.2	16
453.15	0.31729	275.8	16
473.15	0.31729	310.9	16

System: benzene + 1-butyl-3-methylimidazolium bis(trifluoromethylsulfonyl)imide; phases: Liquid, Gas
Property: Vapor or sublimation pressure, kPa (Liquid); method: Closed cell (Static) method
Temperature, K	Mass fraction of benzene	Vapor or sublimation pressure, kPa	uncertainty
413.15	0.02594	8.5	0.8
433.15	0.02594	9.8	0.8
453.15	0.02594	11.6	0.8
473.15	0.02594	14.2	0.8
413.15	0.05535	20.6	0.8
433.15	0.05535	23.5	0.8
453.15	0.05535	26.7	0.8
473.15	0.05535	30.6	0.8
413.15	0.08748	36.2	0.8
433.15	0.08748	40.3	0.8
453.15	0.08748	44.9	0.8
413.15	0.11543	50.2	0.8
473.15	0.08748	50.3	0.8
433.15	0.11543	56.1	0.8
453.15	0.11543	62.4	0.8
473.15	0.11543	69.3	0.8
413.15	0.15665	73.5	0.8
433.15	0.15665	81.7	0.9
453.15	0.15665	90.8	0.9
473.15	0.15665	100.5	0.9
413.15	0.22457	114.6	0.9
433.15	0.22457	130.4	0.9
453.15	0.22457	147.5	1
413.15	0.28305	153.4	1
473.15	0.22457	165.1	1
433.15	0.28305	178.3	1.1
453.15	0.28305	204.4	16
473.15	0.28305	233.4	16
